#------------------------------------------------------------------------------
#$Date: 2022-03-06 06:37:54 +0200 (Sun, 06 Mar 2022) $
#$Revision: 273468 $
#$URL: file:///home/coder/svn-repositories/cod/cif/1/56/59/1565947.cif $
#------------------------------------------------------------------------------
#
# This file is available in the Crystallography Open Database (COD),
# http://www.crystallography.net/
#
# All data on this site have been placed in the public domain by the
# contributors.
#
data_1565947
loop_
_publ_author_name
'Wildner, Manfred'
'Zakharov, Boris A.'
'Bogdanov, Nikita E.'
'Talla, Dominik'
'Boldyreva, Elena V.'
'Miletich, Ronald'
_publ_section_title
;
 Crystallography relevant to Mars and Galilean icy moons: crystal behavior
 of kieserite-type monohydrate sulfates at extraterrestrial conditions
 down to 15 K
;
_journal_issue                   2
_journal_name_full               IUCrJ
_journal_page_first              194
_journal_page_last               203
_journal_paper_doi               10.1107/S2052252521012720
_journal_volume                  9
_journal_year                    2022
_chemical_formula_sum            'Fe H2 Mg0 O5 S'
_chemical_formula_weight         169.93
_space_group_crystal_system      monoclinic
_space_group_IT_number           15
_space_group_name_Hall           '-C 2yc'
_space_group_name_H-M_alt        'C 1 2/c 1'
_atom_sites_solution_hydrogens   difmap
_audit_creation_method           SHELXL-2017/1
_cell_angle_alpha                90
_cell_angle_beta                 118.454(10)
_cell_angle_gamma                90
_cell_formula_units_Z            4
_cell_length_a                   7.0580(10)
_cell_length_b                   7.5663(10)
_cell_length_c                   7.7576(10)
_cell_measurement_temperature    193(2)
_cell_volume                     364.23(9)
_computing_structure_refinement  'SHELXL-2017/1 (Sheldrick, 2017)'
_diffrn_ambient_temperature      193(2)
_diffrn_measured_fraction_theta_full 0.988
_diffrn_measured_fraction_theta_max 0.996
_diffrn_radiation_type           MoK\a
_diffrn_radiation_wavelength     0.71073
_diffrn_reflns_av_R_equivalents  0.0260
_diffrn_reflns_av_unetI/netI     0.0115
_diffrn_reflns_Laue_measured_fraction_full 0.988
_diffrn_reflns_Laue_measured_fraction_max 0.996
_diffrn_reflns_limit_h_max       12
_diffrn_reflns_limit_h_min       -12
_diffrn_reflns_limit_k_max       13
_diffrn_reflns_limit_k_min       -13
_diffrn_reflns_limit_l_max       14
_diffrn_reflns_limit_l_min       -14
_diffrn_reflns_number            10377
_diffrn_reflns_point_group_measured_fraction_full 0.988
_diffrn_reflns_point_group_measured_fraction_max 0.996
_diffrn_reflns_theta_full        25.242
_diffrn_reflns_theta_max         39.988
_diffrn_reflns_theta_min         4.197
_exptl_absorpt_coefficient_mu    4.597
_exptl_absorpt_correction_T_max  0.7479
_exptl_absorpt_correction_T_min  0.5721
_exptl_absorpt_correction_type   multi-scan
_exptl_absorpt_process_details
;
 SADABS 2016/2: Krause, L., Herbst-Irmer, R., Sheldrick G.M. & Stalke D.,
 J. Appl. Cryst. 48 (2015) 3-10
;
_exptl_crystal_density_diffrn    3.099
_exptl_crystal_F_000             336
_refine_diff_density_max         0.491
_refine_diff_density_min         -0.515
_refine_diff_density_rms         0.081
_refine_ls_extinction_coef       0.0331(14)
_refine_ls_extinction_expression Fc^*^=kFc[1+0.001xFc^2^\l^3^/sin(2\q)]^-1/4^
_refine_ls_extinction_method     'SHELXL-2017/1 (Sheldrick 2017)'
_refine_ls_goodness_of_fit_ref   1.168
_refine_ls_hydrogen_treatment    refall
_refine_ls_matrix_type           full
_refine_ls_number_parameters     40
_refine_ls_number_reflns         1131
_refine_ls_number_restraints     0
_refine_ls_restrained_S_all      1.168
_refine_ls_R_factor_all          0.0131
_refine_ls_R_factor_gt           0.0128
_refine_ls_shift/su_max          0.000
_refine_ls_shift/su_mean         0.000
_refine_ls_structure_factor_coef Fsqd
_refine_ls_weighting_details
'w=1/[\s^2^(Fo^2^)+(0.0150P)^2^+0.2000P] where P=(Fo^2^+2Fc^2^)/3'
_refine_ls_weighting_scheme      calc
_refine_ls_wR_factor_gt          0.0337
_refine_ls_wR_factor_ref         0.0338
_reflns_Friedel_coverage         0.000
_reflns_number_gt                1112
_reflns_number_total             1131
_reflns_threshold_expression     'I > 2\s(I)'
_cod_data_source_file            lt5044.cif
_cod_data_source_block           FeSO4H2O_N2_193K
_cod_depositor_comments
'Adding full bibliography for 1565934--1565967.cif.'
_cod_original_sg_symbol_H-M      'C 2/c'
_cod_database_code               1565947
_shelx_shelxl_version_number     2017/1
_shelx_space_group_comment
;
The symmetry employed for this shelxl refinement is uniquely defined
by the following loop, which should always be used as a source of
symmetry information in preference to the above space-group names.
They are only intended as comments.
;
_shelx_res_file
;
TITL 1991Fekiesx1 193K Apex in C2/c kieserite cell
    latt_corr_for_Nonius20C_1991Fekiesx1_193K_0m.res
    created by SHELXL-2017/1 at 15:53:47 on 08-Oct-2018

REM meas.  mon  7.0442(1)  7.5556(2)  7.5921(1)  90  116.2379(4)  90
REM trans. cryscomp 7.0442  7.5556  7.7443  90  118.437  90
REM meas.trcl 7.0445(1) 7.5559(2) 7.5926(2) 89.9877(5) 116.2405(4) 89.9868(5)
REM trans. cryscomp 7.0445 7.5559 7.7444  89.976 118.434 90.013
REM CELL 0.71073   7.0442  7.5556  7.7443  90  118.437  90
REM latt corr for Nonius20C  +.0138 +.0107 +.0133     +.017
CELL 0.71073   7.0580  7.5663  7.7576  90  118.454  90
ZERR    4.00   0.001   0.001   0.001   0.00   0.01   0.00
LATT  7
SYMM -X, Y, .5-Z
SFAC O H S MG FE
UNIT 20 8 4 0 4
SHEL 20 0.55285
OMIT -2 2 2
OMIT -3 1 1
OMIT 1 3 1
OMIT 3 3 3
REM DAMP 1000
L.S. 10
CONN 12 1.8 $O
EQIV $9 -x+1/2, y+1/2, -z+1/2
BOND $H
FMAP 2
PLAN 20
ACTA
HTAB O3 O2_$9
HTAB
REM EXYZ MG FE
REM EADP MG FE
REM SUMP 1.0 0 1.0 2 1.0 3
WGHT    0.015000    0.200000
EXTI    0.033117
FVAR       0.76286
FE    5    0.000000    0.500000    0.000000    10.50000    0.00531    0.00572 =
         0.00630    0.00064    0.00266   -0.00003
S     3    0.000000    0.154472    0.250000    10.50000    0.00382    0.00462 =
         0.00651    0.00000    0.00225    0.00000
O1    1    0.168738    0.044048    0.399677    11.00000    0.00629    0.01111 =
         0.01199    0.00538    0.00347    0.00299
O2    1    0.098543    0.269405    0.158376    11.00000    0.00832    0.00798 =
         0.01216    0.00344    0.00633    0.00074
O3    1    0.000000    0.644184    0.250000    10.50000    0.00838    0.00884 =
         0.00866    0.00000    0.00439    0.00000
H     2    0.107875    0.716481    0.294025    11.00000    0.02826
HKLF 4 1  1 0 0 0 -1 0 -1 0 -1




REM  1991Fekiesx1 193K Apex in C2/c kieserite cell
REM R1 =  0.0128 for    1112 Fo > 4sig(Fo)  and  0.0131 for all    1131 data
REM     40 parameters refined using      0 restraints

END

WGHT      0.0158      0.1922

REM Instructions for potential hydrogen bonds
EQIV $19 x+1/2, y+1/2, z
HTAB O3 S_$19
EQIV $3 x, y+1, z
HTAB O3 O1_$3
HTAB O3 O2_$9

REM Highest difference peak  0.491,  deepest hole -0.515,  1-sigma level  0.081
Q1    1   0.0606  0.5421  0.0811  11.00000  0.05    0.49
Q2    1  -0.0664  0.5095  0.0385  11.00000  0.05    0.45
Q3    1   0.0429  0.2202  0.1898  11.00000  0.05    0.40
Q4    1   0.1131  0.0963  0.3374  11.00000  0.05    0.32
Q5    1   0.0796  0.3664  0.1380  11.00000  0.05    0.24
Q6    1   0.0147  0.5957  0.3426  11.00000  0.05    0.24
Q7    1   0.0267  0.2309  0.0692  11.00000  0.05    0.21
Q8    1  -0.0775  0.5493 -0.1298  11.00000  0.05    0.19
Q9    1   0.0373  0.6182  0.0196  11.00000  0.05    0.19
Q10   1   0.1511  0.0044  0.3236  11.00000  0.05    0.18
Q11   1   0.0031  0.5085  0.1588  11.00000  0.05    0.17
Q12   1   0.0463  0.0727  0.4900  11.00000  0.05    0.17
Q13   1   0.0000  0.4295  0.2500  10.50000  0.05    0.17
Q14   1  -0.0387  0.3039  0.0678  11.00000  0.05    0.17
Q15   1   0.0393  0.7378  0.1915  11.00000  0.05    0.15
Q16   1   0.0000  0.3459  0.2500  10.50000  0.05    0.15
Q17   1  -0.0628  0.0620  0.4032  11.00000  0.05    0.15
Q18   1  -0.0535  0.6300  0.0213  11.00000  0.05    0.14
Q19   1   0.0329  0.8172  0.2113  11.00000  0.05    0.14
Q20   1   0.1273 -0.0515  0.3553  11.00000  0.05    0.14
;
_shelx_res_checksum              89986
_shelx_hkl_file
;
   2   0   0 8.07642 0.67252  16
  -2   0   0 9.89447 0.96972  14
   2   0   0 8.39059 0.68190   1
   2   0   0 7.56177 0.58040  12
  -2   0   0 7.51454 0.52029   9
  -2   0   0 10.6541 0.99854  10
  -2   0   0 8.58340 0.70360   2
  -4   0   0 8883.09 225.994   2
  -4   0   0 8520.29 230.084   3
   4   0   0 9875.51 226.124  16
  -4   0   0 8542.27 229.094  10
  -4   0   0 8347.46 221.466   9
   4   0   0 9821.65 222.967  12
  -4   0   0 8093.66 226.711  14
   4   0   0 9711.34 226.291   1
   6   0   0 106.743 3.93647  12
   6   0   0 110.999 4.81975  16
  -6   0   0 112.962 5.84109   3
  -6   0   0 104.515 4.07104   9
  -6   0   0 122.749 6.09303  14
   6   0   0 106.744 4.87117   1
  -8   0   0 1528.70 42.1709   9
  -8   0   0 1694.93 46.6499   3
   8   0   0 1646.59 44.1745  13
   8   0   0 1633.88 43.9861  16
  -8   0   0 1711.84 46.7810  14
   8   0   0 1705.16 44.2267   1
  10   0   0 40.6742 4.51921   1
  10   0   0 27.2563 4.03735  13
 -10   0   0 28.1386 4.65200   3
   1   1   0 1575.90 40.4961  16
  -3  -1   0 42.9376 2.02776   2
   3  -1   0 43.8366 1.70470  12
   3  -1   0 44.3423 2.01117  16
  -3  -1   0 51.3161 2.41238  14
  -3  -1   0 42.9001 2.41113  10
  -3   1   0 44.9401 2.62602  14
  -3   1   0 41.3561 1.80054   6
  -3   1   0 41.1458 1.81187   9
  -3   1   0 42.7634 2.14269   8
   3   1   0 43.4715 1.70640  12
   3   1   0 41.0241 2.01734  16
   3   1   0 43.8741 2.10969   1
   5  -1   0 1012.63 26.5544   1
   5  -1   0 1028.84 26.5784  16
  -5  -1   0 948.255 25.6347   9
   5  -1   0 1046.63 25.3348  15
  -5  -1   0 999.350 27.6733  10
   5  -1   0 1017.16 25.6187  12
  -5  -1   0 1003.68 27.5590  14
  -5  -1   0 996.962 26.3484   2
  -5  -1   0 1020.73 27.7301   3
  -5   1   0 981.656 25.9596   9
   5   1   0 1026.20 26.6763  16
  -5   1   0 1024.66 28.3681  14
  -5   1   0 1017.05 27.9586   3
   5   1   0 1003.00 25.6602  12
   5   1   0 1036.56 26.7414   1
   7  -1   0 56.5572 3.65909  16
  -7  -1   0 60.1947 4.44778   3
   7  -1   0 57.6719 3.56052   1
   7  -1   0 57.6380 2.79214  12
  -7  -1   0 63.5085 4.55475  14
  -7  -1   0 56.6784 2.82809   9
  -7  -1   0 61.6368 3.43127   2
  -7   1   0 51.9918 2.97542   9
   7   1   0 56.8624 3.85622  13
   7   1   0 60.8278 3.98457   1
  -7   1   0 52.8643 4.71379  14
  -7   1   0 54.7654 4.45862   3
   7   1   0 58.2833 3.89993  16
   7   1   0 54.8678 2.79906  12
   9  -1   0 51.4968 4.10313  16
   9  -1   0 59.1918 4.75040  13
  -9  -1   0 61.1295 5.87813   3
   9  -1   0 49.4481 4.46961   1
   9   1   0 55.9742 4.49652  16
   9   1   0 64.7906 4.86224   1
  -9   1   0 57.1194 5.83335  14
   9   1   0 59.8925 4.43492  13
  -9   1   0 50.6249 5.09599   3
  11  -1   0 119.130 7.55710  13
  11  -1   0 119.832 7.37173   1
 -11  -1   0 131.725 9.09558   3
 -11   1   0 141.983 9.84198   3
  11   1   0 117.331 7.18697   1
  11   1   0 136.730 7.94572  13
   0  -2   0 1598.27 39.8789  10
   0   2   0 1477.37 39.5404   9
   0   2   0 1589.09 39.0026  12
   0   2   0 1559.65 39.5662   6
   0   2   0 1583.49 40.1572  16
  -2  -2   0 617.599 16.6779  10
  -2  -2   0 580.317 15.7229  15
  -2  -2   0 627.002 16.4105   2
  -2  -2   0 608.807 15.7163   7
  -2   2   0 618.307 16.5081   3
   2   2   0 615.049 15.8866  16
  -2   2   0 625.882 15.7338   6
  -2   2   0 628.482 15.8072   9
  -2   2   0 609.502 16.7849  14
   2   2   0 625.783 15.6769  13
   2   2   0 620.985 15.5651  12
   2   2   0 627.296 15.8948   1
  -2   2   0 599.181 16.0471   8
  -4  -2   0 2269.93 57.2674  10
  -4  -2   0 2108.98 56.1406  14
   4  -2   0 2369.81 55.8355  16
  -4  -2   0 2179.66 56.0501   2
  -4   2   0 2223.64 55.5469   9
  -4   2   0 2226.68 55.4734   6
  -4   2   0 2247.76 57.6751  14
  -4   2   0 2285.00 56.3237   8
   4   2   0 2260.78 55.9923   1
   4   2   0 2231.25 55.1952  12
   4   2   0 2245.79 55.7889  13
  -4   2   0 2188.61 57.0537   3
   4   2   0 2281.37 56.0019  16
  -6  -2   0 1603.35 42.0290   2
   6  -2   0 1670.09 42.2145  16
  -6  -2   0 1682.89 43.8035   3
   6  -2   0 1657.03 42.2182   1
  -6  -2   0 1619.82 43.1018  14
  -6  -2   0 1689.75 44.0804  10
   6  -2   0 1642.28 40.9703  12
  -6  -2   0 1500.79 40.8231   9
   6   2   0 1597.14 42.1216  13
  -6   2   0 1640.48 41.6288   9
   6   2   0 1623.54 42.3772   1
   6   2   0 1624.23 42.3301  16
   6   2   0 1630.25 41.0751  12
  -6   2   0 1666.56 45.0641  14
  -6   2   0 1659.03 44.1896   3
   8  -2   0 873.445 25.1244  16
   8  -2   0 902.975 25.3057   1
  -8  -2   0 928.075 27.6433   3
   8   2   0 828.239 23.3400  12
   8   2   0 875.370 25.4155  16
  -8   2   0 936.137 29.0242  14
   8   2   0 870.483 25.2205  13
  -8   2   0 876.342 27.6721   3
  -8   2   0 853.642 24.0087   9
   8   2   0 874.986 25.3543   1
  10  -2   0 687.572 22.1626  16
 -10  -2   0 744.085 25.5673   3
  10  -2   0 721.388 22.8757  13
  10  -2   0 732.376 22.5691   1
 -10   2   0 756.185 26.8679  14
  10   2   0 685.180 22.2521  13
 -10   2   0 738.029 25.6979   3
  10   2   0 663.505 22.1915  16
  10   2   0 690.862 22.4499   1
  -1  -3   0 224.437 6.97536  10
  -1  -3   0 221.483 6.87688   2
  -1  -3   0 227.365 6.05576   7
  -1   3   0 222.574 6.21088   6
   1   3   0 226.707 6.27060  16
   1   3   0 218.840 6.21598   1
  -1   3   0 223.266 6.77150   3
  -1   3   0 210.510 6.84855  14
  -1   3   0 210.299 6.48425   8
   1   3   0 217.561 6.05488  12
   1   3   0 223.918 5.96972  13
  -1   3   0 222.776 6.27489   9
  -3  -3   0 1319.82 34.3147  11
  -3  -3   0 1368.33 35.6114   2
  -3  -3   0 1397.71 36.1347  10
  -3  -3   0 1354.31 34.6878  14
  -3  -3   0 1302.25 34.6507  15
  -3  -3   0 1332.22 34.5312   7
  -3   3   0 1393.91 34.5996   6
   3   3   0 1377.42 34.4684  13
   3   3   0 1415.53 34.9236   1
  -3   3   0 1391.13 35.8680   3
   3   3   0 1380.74 34.3240  12
  -3   3   0 1417.91 34.6986   9
  -3   3   0 1348.66 35.1442   8
   3   3   0 1440.03 34.9449  16
  -3   3   0 1416.62 36.5271  14
  -5  -3   0 6.37734 1.96536  10
  -5  -3   0 6.48070 1.43840   2
   5  -3   0 5.09204 1.16299  16
   5  -3   0 8.77881 1.14434  15
  -5  -3   0 6.37350 1.24647  14
  -5   3   0 5.76402 1.25242   8
  -5   3   0 6.97152 1.86904  14
   5   3   0 7.25580 1.29688   1
   5   3   0 8.07615 1.35311  16
  -5   3   0 5.53633 1.14528   6
  -5   3   0 8.61485 1.85645   3
  -5   3   0 6.07476 1.12079   9
   5   3   0 6.01039 1.10343  13
   5   3   0 7.12126 1.10119  12
  -7  -3   0 143.542 7.62180  10
  -7  -3   0 146.045 7.37705   3
   7  -3   0 134.343 5.91324  16
   7  -3   0 138.915 6.12544   1
  -7  -3   0 129.415 5.94488   2
   7   3   0 129.272 6.18355  16
   7   3   0 129.585 5.85338  13
   7   3   0 130.625 5.07050  12
  -7   3   0 134.571 5.59419   9
  -7   3   0 130.482 7.46218   3
  -7   3   0 151.506 8.56101  14
   7   3   0 141.293 6.42982   1
   9  -3   0 25.8906 3.65135  13
  -9  -3   0 27.5756 4.29404   3
   9  -3   0 25.8319 3.24029  16
   9  -3   0 28.7195 3.56881   1
  -9   3   0 29.4111 4.57491   3
   9   3   0 21.7889 3.20563  16
  -9   3   0 31.1181 5.20175  14
   9   3   0 30.9066 3.79893   1
  -9   3   0 29.4542 3.01576   9
   9   3   0 26.5840 3.42463  13
  11  -3   0 8.08233 2.64366  13
 -11  -3   0 5.83022 3.05244   3
 -11   3   0 4.94522 3.23928  14
  11   3   0 8.29894 2.78027   1
  11   3   0 5.30116 2.37240  13
 -11   3   0 4.87471 2.61567   3
   0  -4   0 3194.30 82.1570  10
   0  -4   0 3209.71 79.1630   7
   0   4   0 2972.80 76.7900   9
   0   4   0 3017.35 80.0292   8
   0   4   0 3208.08 79.1559   6
   0   4   0 3205.12 78.2484   1
   0   4   0 3151.96 79.1321  12
  -2  -4   0 5094.84 150.937   2
  -2  -4   0 5280.54 150.841  10
  -2  -4   0 5278.26 145.978   7
   2   4   0 6044.01 151.087   1
   2   4   0 5882.34 147.722  12
   2   4   0 6150.22 148.158  16
  -2   4   0 6219.68 154.029   3
  -2   4   0 6351.41 158.160  14
  -2   4   0 6185.15 151.595   8
  -2   4   0 6372.63 151.367   9
   2   4   0 6092.75 146.375  13
  -2   4   0 6046.02 149.237   6
  -4  -4   0 480.355 14.4635   2
  -4  -4   0 477.162 13.1087   7
  -4  -4   0 452.063 12.7463  11
  -4  -4   0 462.712 13.2482  15
  -4  -4   0 488.547 15.1371  10
  -4  -4   0 461.626 12.9954  14
  -4   4   0 459.123 14.5943   3
  -4   4   0 479.123 14.0232   8
   4   4   0 457.702 13.4102   1
   4   4   0 467.726 13.0004  13
  -4   4   0 484.682 13.2033   6
   4   4   0 458.508 13.4227  16
  -4   4   0 473.176 13.2649   9
  -4   4   0 488.513 15.6184  14
   4   4   0 460.932 12.7778  12
  -6  -4   0 1552.26 41.7756  10
   6  -4   0 1553.57 39.2240  16
  -6  -4   0 1438.50 39.6569   2
  -6   4   0 1517.89 42.9679  14
  -6   4   0 1517.63 38.9605   9
  -6   4   0 1420.84 39.9810   8
   6   4   0 1459.85 38.9153  13
  -6   4   0 1568.25 38.8834   6
  -6   4   0 1526.32 41.6277   3
   6   4   0 1491.61 38.2837  12
   6   4   0 1492.49 39.5739   1
   6   4   0 1492.85 39.5570  16
  -8  -4   0 16.8042 3.28966   3
   8  -4   0 18.3756 2.61888  16
  -8  -4   0 12.1190 3.20190  10
   8  -4   0 16.8844 2.58549   1
  -8   4   0 10.3275 3.32175  14
  -8   4   0 8.21770 1.75661   9
  -8   4   0 11.3445 2.65675   3
   8   4   0 6.27934 1.72816  16
   8   4   0 7.87937 1.88376   1
   8   4   0 9.53914 2.11897  13
   8   4   0 6.71423 1.41185  12
  10  -4   0 519.582 17.5385  13
 -10  -4   0 535.091 19.8023   3
  10  -4   0 411.429 16.7733   1
 -10   4   0 522.927 20.0735   3
 -10   4   0 477.522 15.4987   9
 -10   4   0 525.625 22.1592  14
  10   4   0 499.526 17.3045   1
  10   4   0 485.358 16.6529  13
  -1  -5   0 110.800 3.64389   7
  -1  -5   0 115.309 4.97744  10
   1  -5   0 123.776 3.80400   7
  -1  -5   0 122.144 5.05502   2
   1  -5   0 100.047 3.24504   4
   1  -5   0 112.104 4.80416  10
   1   5   0 110.967 3.80024  12
  -1   5   0 108.114 4.38837   8
   1   5   0 105.666 3.78759   6
   1   5   0 109.890 3.92539   1
  -1   5   0 107.438 3.93757   6
  -1   5   0 106.537 4.72528  14
   1   5   0 109.875 3.33320  13
   1   5   0 105.998 3.88785  16
  -1   5   0 110.191 4.00886   9
  -3  -5   0 136.957 5.47586  15
  -3  -5   0 142.207 4.74481   7
  -3  -5   0 146.379 6.63768  10
  -3  -5   0 141.880 6.13411   2
  -3   5   0 135.135 4.91294   6
   3   5   0 140.061 5.11290   1
   3   5   0 133.201 4.59878  12
   3   5   0 136.847 5.09915  16
   3   5   0 129.175 4.40786  13
  -3   5   0 131.311 5.41833   8
  -3   5   0 130.298 4.94678   9
  -3   5   0 126.924 5.86130   3
  -3   5   0 133.223 6.40444  14
   5  -5   0 17.6561 2.07932  15
  -5  -5   0 30.8194 2.95370   2
  -5  -5   0 21.5742 3.13499  10
   5   5   0 19.2729 2.14294  16
   5   5   0 19.0498 2.25714   1
  -5   5   0 20.9097 3.24824  14
  -5   5   0 17.1701 1.94608   9
  -5   5   0 18.1172 2.51126   8
   5   5   0 22.8306 2.05943  12
   5   5   0 19.8357 1.83958  13
  -5   5   0 20.3566 2.77620   3
  -5   5   0 19.1225 1.96802   6
  -7  -5   0 91.9429 5.25056   2
   7  -5   0 90.0664 4.85077  16
  -7  -5   0 100.285 6.63197  10
   7  -5   0 87.4515 4.78028   1
  -7   5   0 88.6328 6.20862   3
  -7   5   0 89.5060 6.98000  14
  -7   5   0 88.1305 5.79270   8
   7   5   0 88.5741 4.69071  13
   7   5   0 91.4124 4.23475  12
   7   5   0 88.0825 5.06881   1
  -7   5   0 94.7676 4.79311   9
  -7   5   0 90.6518 4.65391   6
   7   5   0 91.1542 5.24375  16
  -9  -5   0 55.8872 5.64635   3
   9  -5   0 52.1470 4.71981  13
  -9  -5   0 48.3722 5.22571  10
  -9   5   0 48.9642 5.71536   3
  -9   5   0 51.5960 6.68193  14
   9   5   0 52.9843 4.63909  16
  -9   5   0 52.8928 4.05624   9
   9   5   0 43.1858 4.13754   1
   9   5   0 48.1758 3.90708  13
   0  -6   0 2643.56 66.6932   2
   0  -6   0 2649.50 66.6999  10
   0  -6   0 2668.55 64.6968   7
   0   6   0 2579.34 65.1032   6
   0   6   0 2614.11 65.9947   8
   0   6   0 2616.94 65.0591   1
   2  -6   0 44.1759 2.27634   7
  -2  -6   0 45.1324 3.63147   2
  -2  -6   0 42.4116 3.10037  15
  -2  -6   0 47.4393 3.82328  10
  -2  -6   0 48.8306 2.31436   7
  -2   6   0 45.9384 3.15051   3
   2   6   0 42.7375 2.35671  12
  -2   6   0 44.5701 2.59968   9
  -2   6   0 45.6701 2.46377   6
   2   6   0 42.9918 2.51235  16
  -2   6   0 43.3589 3.21467  14
   2   6   0 41.3728 2.47033   1
   2   6   0 42.1694 2.24166   6
  -2   6   0 44.7572 2.93337   8
   2   6   0 44.4488 1.88326  13
  -4  -6   0 2202.84 61.2057  11
  -4  -6   0 2314.31 63.2274   2
  -4  -6   0 2349.77 60.8784   7
  -4  -6   0 2342.67 62.3023  15
  -4  -6   0 2428.11 63.9348  10
  -4   6   0 2508.24 61.7021   9
   4   6   0 2456.29 60.7554  13
   4   6   0 2514.36 61.1051  12
   4   6   0 2571.92 61.9247   1
   4   6   0 2523.16 61.8665  16
  -4   6   0 2477.34 63.7304   3
  -4   6   0 2561.01 61.5697   6
  -4   6   0 2525.33 62.8910   8
  -4   6   0 2435.97 64.8907  14
  -6  -6   0 144.593 7.34511   2
  -6  -6   0 152.176 8.49080  10
   6  -6   0 150.278 7.12035  15
   6  -6   0 144.268 6.13458  16
  -6   6   0 147.522 9.14513  14
   6   6   0 152.105 6.66412   1
   6   6   0 149.596 5.97409  13
   6   6   0 147.123 6.67137  16
  -6   6   0 166.731 6.51684   6
  -6   6   0 146.238 7.42724   8
  -6   6   0 160.686 6.57861   9
  -6   6   0 155.802 8.24776   3
   6   6   0 154.756 5.78492  12
  -8  -6   0 1421.79 42.1115  10
   8   6   0 1374.86 38.2251  13
   8   6   0 1445.87 39.4787   1
   8   6   0 1393.89 37.3411  12
  -8   6   0 1406.29 38.4441   9
  -8   6   0 1476.00 38.3213   6
  -8   6   0 1469.52 45.2934  14
  -8   6   0 1436.71 42.3929   3
   8   6   0 1404.10 39.2383  16
 -10  -6   0 94.5135 7.99320  10
  10  -6   0 99.1247 6.46883  13
 -10  -6   0 103.643 7.89965   3
 -10   6   0 98.4888 7.88838   3
  10   6   0 99.1659 6.71684   1
  10   6   0 93.2395 6.00076  13
 -10   6   0 94.5556 8.89485  14
 -10   6   0 96.6341 5.46781   9
   1  -7   0 322.613 9.27174   7
  -1  -7   0 345.248 11.4914  10
  -1  -7   0 326.322 11.4478  15
  -1  -7   0 343.789 11.5146   2
  -1  -7   0 329.836 9.19532   7
   1  -7   0 322.164 11.1629  10
  -1   7   0 317.578 9.93451   9
  -1   7   0 313.291 9.74099   6
   1   7   0 322.110 9.73542   1
   1   7   0 310.324 10.4131   8
   1   7   0 328.324 9.82967  16
  -1   7   0 298.845 10.4214   8
   1   7   0 318.323 9.65537   6
  -3  -7   0 627.095 19.2058  15
   3  -7   0 645.753 17.5944   7
  -3  -7   0 650.772 20.0261   2
  -3  -7   0 657.273 20.3563  10
  -3  -7   0 630.823 17.2038   7
   3   7   0 643.935 18.0502   1
  -3   7   0 650.200 18.1606   9
  -3   7   0 652.451 19.8357   3
  -3   7   0 643.672 17.9644   6
   3   7   0 647.423 17.6225  12
   3   7   0 653.540 18.1336  16
   3   7   0 627.211 17.3938   6
  -3   7   0 612.559 20.3844  14
  -3   7   0 645.228 19.1137   8
  -5  -7   0 63.9211 5.88287  10
  -5  -7   0 57.9301 5.24240   2
   5  -7   0 66.2591 4.69960  15
   5   7   0 59.2216 3.79344   1
  -5   7   0 63.5162 5.05631   3
  -5   7   0 61.1146 3.91573   9
  -5   7   0 60.9620 4.63965   8
  -5   7   0 69.2196 3.99470   6
   5   7   0 56.2400 3.71615  16
  -5   7   0 61.2145 5.75111  14
   5   7   0 62.0117 3.33526  12
  -7  -7   0 177.969 8.72061   2
  -7  -7   0 193.991 10.1670  10
  -7   7   0 188.964 7.98861   9
  -7   7   0 179.622 8.92087   8
   7   7   0 186.084 8.35564   1
  -7   7   0 179.797 11.3095  14
   7   7   0 185.352 8.27879  16
  -7   7   0 187.650 7.57263   6
  -7   7   0 192.983 9.96673   3
   7   7   0 188.080 7.21570  12
  -9  -7   0 47.1783 4.93622   3
  -9  -7   0 46.5032 5.45300  10
  -9   7   0 41.6128 6.77824  14
  -9   7   0 54.0809 4.42822   9
  -9   7   0 54.9917 5.75412   3
   9   7   0 41.6052 4.59840   1
   0  -8   0 1266.10 34.2262  10
   0  -8   0 1268.99 34.7357  15
   0  -8   0 1242.97 34.2050   2
   0   8   0 1214.83 32.1325   6
   0   8   0 1167.96 33.0708   8
  -2  -8   0 1251.29 34.2432  10
  -2  -8   0 1172.09 33.6268  15
   2  -8   0 1208.31 33.4870  10
   2  -8   0 1248.98 34.6244  15
  -2  -8   0 1264.40 34.3521   2
  -2   8   0 1201.39 31.8115   6
   2   8   0 1141.59 32.4548   8
  -2   8   0 1219.49 32.0878   9
  -2   8   0 1189.76 33.0336   8
   2   8   0 1213.20 31.8596  16
   2   8   0 1170.55 31.3765   6
   2   8   0 1207.10 31.8092   1
  -4  -8   0 644.975 21.3711   2
  -4  -8   0 669.781 21.8208  10
  -4  -8   0 640.364 19.1177  11
  -4  -8   0 712.675 23.1947  15
   4  -8   0 681.579 21.2209  15
  -4   8   0 633.163 22.3498  14
   4   8   0 675.172 18.5727  12
   4   8   0 668.760 19.1874   1
  -4   8   0 650.782 21.2313   3
   4   8   0 644.713 18.1229   6
   4   8   0 650.649 19.0919  16
  -4   8   0 647.764 20.3686   8
  -4   8   0 653.561 18.9409   6
  -4   8   0 640.092 19.1287   9
  -6  -8   0 383.518 15.1891  10
  -6  -8   0 362.740 14.1725   2
  -6   8   0 345.141 16.1756  14
   6   8   0 343.835 12.3398  16
  -6   8   0 367.709 14.8035   3
  -6   8   0 344.635 13.7314   8
  -6   8   0 372.930 12.2730   6
  -6   8   0 347.146 12.2660   9
   6   8   0 358.756 11.5764  12
   6   8   0 347.196 12.4852   1
  -8  -8   0 210.245 11.7801  10
  -8   8   0 219.977 13.6709  14
   8   8   0 204.138 9.28362   1
   8   8   0 211.733 8.27628  12
  -8   8   0 217.567 11.7018   3
  -8   8   0 210.857 10.9496   8
  -8   8   0 215.645 9.20402   9
  -8   8   0 214.614 9.00787   6
  -1  -9   0 165.689 8.20724  15
   1  -9   0 160.079 8.06891  15
  -1  -9   0 163.519 8.06996   2
   1  -9   0 165.063 8.05994   2
   1  -9   0 170.127 7.85460  10
  -1  -9   0 171.108 8.08996  10
   1   9   0 174.131 6.52309   6
   1   9   0 167.145 7.29132   8
  -1   9   0 169.577 6.64045   6
  -1   9   0 165.301 7.40603   8
   1   9   0 166.461 6.50107   1
  -3  -9   0 60.5770 4.73116  15
  -3  -9   0 57.6487 5.19464  10
  -3  -9   0 55.8260 5.64040   2
   3  -9   0 60.8555 4.77730  10
   3  -9   0 60.6451 5.15841  15
  -3   9   0 58.0745 3.83921   6
   3   9   0 52.7419 3.28989   6
   3   9   0 59.7146 3.87828   1
   3   9   0 57.5114 3.61037  16
  -3   9   0 58.6749 4.56516   8
  -3   9   0 57.5023 3.75240   9
  -5  -9   0 134.726 8.60076   2
  -5  -9   0 129.153 8.27848  10
   5  -9   0 137.997 7.59037  10
  -5   9   0 135.609 6.37303   9
  -5   9   0 123.310 7.39009   8
   5   9   0 123.996 6.35533   1
  -5   9   0 129.468 6.32510   6
  -5   9   0 127.085 8.76997  14
   5   9   0 135.303 5.78560  12
   5   9   0 126.088 6.36748  16
  -5   9   0 128.695 8.05083   3
  -7  -9   0 28.6305 4.64879  10
  -7  -9   0 20.8354 3.78680   2
  -7   9   0 22.7291 3.95677   8
  -7   9   0 21.8962 4.35133   3
   7   9   0 25.9247 3.01112  12
   7   9   0 19.1540 2.80618  16
  -7   9   0 22.1723 3.08871   6
   7   9   0 18.0633 3.06285   1
  -7   9   0 20.2839 4.76943  14
  -7   9   0 19.2995 3.04380   9
   0 -10   0 32.6752 3.68308  10
   0 -10   0 28.8466 4.36809  15
   0 -10   0 27.4425 3.96491   2
   0  10   0 30.8675 2.99639   6
   0  10   0 24.8756 3.18333   8
  -2 -10   0 2006.68 53.4467   2
  -2 -10   0 2015.67 53.3829  10
   2 -10   0 1982.48 52.7618   2
  -2 -10   0 1831.84 52.6578  15
   2 -10   0 1936.38 52.1175  10
  -2  10   0 1918.86 50.1737   6
   2  10   0 1975.45 49.8388   6
   2  10   0 1970.55 50.1933   1
   2  10   0 1796.54 51.0428   8
  -2  10   0 1884.00 51.7628   8
  -4 -10   0 11.5420 3.08220  10
  -4 -10   0 12.6764 2.25738  11
   4 -10   0 5.96435 2.25125  10
  -4 -10   0 10.0515 3.81146   2
  -4  10   0 8.25287 1.84666   6
  -4  10   0 9.55957 2.27586   8
   4  10   0 10.9047 2.14778  16
  -4  10   0 8.45903 1.98253   9
   4  10   0 7.76393 1.92297   1
  -6 -10   0 1248.37 38.4345   2
  -6 -10   0 1282.44 39.4438  10
  -6  10   0 1279.14 36.0838   9
   6  10   0 1284.36 36.0508  16
  -6  10   0 1304.35 38.2926   8
  -6  10   0 1318.88 35.8073   6
   6  10   0 1328.55 36.1896   1
  -1 -11   0 122.701 7.92986  10
   1 -11   0 125.156 7.16547  10
  -1 -11   0 124.739 8.13138   2
   1 -11   0 113.500 7.57190   2
  -1  11   0 124.668 5.85369   6
  -1  11   0 118.248 6.78949   8
   1  11   0 122.369 5.81375   6
  -3 -11   0 74.2308 6.88011  10
  -3 -11   0 70.5725 4.85962  11
   3 -11   0 62.1162 5.34919  10
  -3 -11   0 79.5972 6.58815   2
   3 -11   0 65.5405 5.93095   2
  -3  11   0 63.7383 5.45331   8
   3  11   0 54.1514 3.96653   6
  -3  11   0 65.0849 4.65193   6
   3  11   0 77.3390 4.73019   1
  -5 -11   0 127.321 9.19977   2
   5 -11   0 113.016 7.69320   2
  -5 -11   0 124.884 9.10442  10
   5  11   0 119.902 6.52070   1
   5  11   0 119.467 7.09008  16
  -5  11   0 117.654 7.78857   8
  -5  11   0 118.080 6.67250   9
  -5  11   0 116.680 6.48840   6
   0 -12   0 425.712 16.5775   2
   0 -12   0 435.366 16.3956  10
   0  12   0 408.188 13.8459   6
  -2 -12   0 301.103 13.8159   2
   2 -12   0 292.279 12.8682   2
  -2 -12   0 285.338 12.8773  10
   2 -12   0 277.751 11.9503  10
  -2  12   0 298.294 10.8508   6
  -2  12   0 223.604 11.8045   8
   2  12   0 288.805 10.1967   6
  -4 -12   0 358.465 15.9105  10
  -4 -12   0 365.654 16.3240   2
   4 -12   0 359.697 14.8592   2
   4  12   0 365.972 12.9090   1
  -4  12   0 339.818 14.3914   8
  -4  12   0 351.613 12.8900   6
   1 -13   0 1.81809 2.77441  10
  -1 -13   0 -0.8299 1.87692  10
  -1 -13   0 -0.1361 3.09016   2
   1 -13   0 3.48877 2.53082   2
  -1  13   0 -0.9123 1.09439   6
   1  13   0 0.83564 1.55580   6
   3 -13   0 -0.0577 2.50032   2
  -3 -13   0 2.58695 2.33359  10
  -3 -13   0 -0.1507 2.67384   2
  -3 -13   0 1.96914 2.31629  11
  -3  13   0 -0.0109 1.86681   6
 -10   0   1 1.48861 2.31788   3
  10   0  -1 3.96314 1.67894  16
  10   0  -1 2.09332 1.96702  13
  10   0  -1 3.54231 2.16097   1
 -10   0   1 0.23171 2.10455  14
   8   0  -1 0.50357 0.90254  12
  -8   0   1 10.4234 2.68955  14
  -8   0   1 1.32893 1.54653   3
   8   0  -1 0.16778 1.28057  16
   8   0  -1 -2.0844 1.27054   1
  -6   0   1 1.11640 0.54369   9
  -6   0   1 0.43127 1.12202  14
   6   0  -1 0.32889 0.71882  12
   6   0  -1 3.01719 1.17427  16
   6   0  -1 2.49473 1.14994   1
  -6   0   1 0.22961 1.02300   3
  -4   0   1 2.13331 0.73876  10
  -4   0   1 0.97900 0.78406  14
  -4   0   1 0.69693 0.64019   3
   4   0  -1 1.43058 0.56978  12
   4   0  -1 0.78984 0.13008  15
  -4   0   1 0.48739 0.31147   9
   4   0  -1 -0.2225 0.51693   1
   4   0  -1 0.51183 0.32611   5
  -4   0   1 -0.0847 0.28815   2
   4   0  -1 0.27089 0.56276  16
   2   0  -1 2.36627 0.43870  12
  -2   0  -1 0.99306 0.26212  11
  -2   0  -1 0.46079 0.42001   2
   2   0   1 0.81652 0.34128   1
  -2   0  -1 0.79041 0.37692   3
   4   0   1 1.54053 0.73320   1
   4   0   1 0.65532 0.70787  13
  -4   0  -1 1.44639 0.78741  14
  -4   0  -1 0.50582 0.63481   2
  -4   0  -1 0.65854 0.75093   3
   4   0   1 1.51926 0.44757  12
   4   0   1 1.76140 0.75957  16
   4   0   1 1.01047 0.40626  15
  -4   0  -1 0.99659 0.55802   9
  -6   0  -1 2.02500 1.13296   3
   6   0   1 0.71000 1.06627   1
  -6   0  -1 0.05283 0.72019  14
   6   0   1 1.15713 0.58321  12
   6   0   1 1.81617 1.23867  13
   6   0   1 0.40887 0.97646  16
   8   0   1 -0.1366 1.42262   1
  -8   0  -1 10.3077 2.74085  14
  -8   0  -1 3.31985 2.20643   3
   8   0   1 0.87582 0.99072  16
   8   0   1 0.67111 1.12153  13
  -8   0  -1 1.33264 0.97224   9
  10   0   1 3.95618 2.28608  13
  10   0   1 -0.0286 1.78363   1
  10   0   1 0.14898 1.61407  16
 -10   0  -1 11.2251 3.15617   3
  11  -1  -1 274.055 12.1396  13
 -11  -1   1 329.310 15.0697   3
  11  -1  -1 287.176 12.3246   1
  11   1  -1 293.206 12.4121   1
 -11   1   1 295.633 15.0987  14
 -11   1   1 314.389 14.6063   3
  11   1  -1 304.260 12.3976  13
  -9  -1   1 382.390 15.0420   3
  -9  -1   1 375.609 15.0839  14
   9  -1  -1 352.465 12.9958  16
   9  -1  -1 363.085 13.2084   1
  -9   1   1 381.633 16.0890  14
   9   1  -1 354.657 12.9599  13
  -9   1   1 401.998 15.6620   3
   9   1  -1 356.265 13.0073  16
   9   1  -1 365.563 11.4207  12
   9   1  -1 377.713 13.4091   1
   7  -1  -1 1222.57 33.4533  16
   7  -1  -1 1194.91 33.4276   1
   7  -1  -1 1264.33 32.3337  12
  -7  -1   1 1316.98 35.7673  14
  -7  -1   1 1247.44 34.6314  10
  -7  -1   1 1278.62 35.2519   3
   7   1  -1 1255.35 33.7900   1
  -7   1   1 1267.79 35.4243   3
   7   1  -1 1273.73 33.8136  16
   7   1  -1 1253.96 32.3585  12
  -7   1   1 1335.19 36.8196  14
  -7   1   1 1183.01 32.1927   9
   5  -1  -1 1334.43 30.7452  15
   5  -1  -1 1267.57 31.0294  12
  -5  -1   1 1195.70 31.0144   2
  -5  -1   1 1158.42 30.5086   9
   5  -1  -1 1236.59 30.6480   5
  -5  -1   1 1246.36 32.5764  10
   5  -1  -1 1226.11 31.6991  16
  -5  -1   1 1215.90 32.8994  14
   5   1  -1 1239.18 31.8040   1
   5   1  -1 1206.58 30.3674   5
  -5   1   1 1206.07 32.6919   3
  -5   1   1 1205.35 33.5396  14
   5   1  -1 1255.15 31.8391  16
   5   1  -1 1239.55 30.9994  12
  -5   1   1 1181.58 30.8980   9
  -5   1   1 1199.11 31.9109   8
  -3  -1   1 4966.52 134.029  10
  -3  -1   1 4941.95 130.900   7
  -3  -1   1 4954.88 130.215   2
   3  -1  -1 5347.23 130.933   5
   3  -1  -1 5277.73 132.128  15
   3   1  -1 5455.90 133.124  16
   3   1  -1 5344.65 129.845   5
  -3   1   1 5391.47 131.140   9
  -3   1   1 4834.59 137.941  14
   3   1  -1 5442.89 132.833   1
  -3   1   1 5410.86 132.730   8
  -3   1   1 4904.29 130.039   6
  -3   1   1 5137.20 134.505   3
   3   1  -1 5598.34 131.175  12
   1  -1  -1 1943.52 52.0592  15
   1   1  -1 1959.21 49.3764  16
  -1   1   1 1954.34 52.3190  15
   1   1   1 7436.06 176.366   1
   1   1   1 7225.35 176.385  13
  -1   1  -1 7113.58 176.020   6
  -1   1  -1 6406.94 177.212   3
   1   1   1 7516.77 177.191  16
   3  -1   1 454.971 12.1389   1
  -3  -1  -1 458.294 12.8804   3
   3  -1   1 434.202 12.0352  15
   3  -1   1 466.642 11.5377  12
  -3  -1  -1 449.127 12.6022   2
  -3  -1  -1 446.257 13.1740  10
  -3  -1  -1 460.591 11.6277  15
   3  -1   1 449.323 12.1288  16
  -3  -1  -1 451.855 12.5838  14
  -3  -1  -1 446.248 11.5811  11
   3   1   1 465.190 12.3770   1
  -3   1  -1 466.196 13.2832   3
   3   1   1 485.234 11.7854  15
  -3   1  -1 437.193 11.8481   6
   3   1   1 458.095 12.3429  16
  -3   1  -1 450.527 13.3191  14
   3   1   1 446.700 12.3296  13
  -3   1  -1 443.640 12.1668   9
   3   1   1 446.939 11.6181  12
  -5  -1  -1 2899.48 73.7374   2
  -5  -1  -1 2867.48 74.9776  10
  -5  -1  -1 2896.20 74.8685   3
   5  -1   1 2957.76 72.1803  12
   5  -1   1 2948.20 73.3291   1
   5  -1   1 3037.58 73.4073  16
   5   1   1 2992.28 73.6083   1
   5   1   1 3013.57 73.6075  16
   5   1   1 2935.70 72.2831  12
   5   1   1 2997.47 73.6522  13
  -5   1  -1 2996.26 75.4550  14
  -5   1  -1 2851.34 73.0265   9
  -5   1  -1 2917.41 75.2682   3
  -7  -1  -1 116.843 5.47962   2
   7  -1   1 138.755 6.12473  13
  -7  -1  -1 113.317 6.15929  14
   7  -1   1 103.675 5.15307  16
  -7  -1  -1 113.963 6.64778   3
  -7  -1  -1 102.913 4.47673   9
   7  -1   1 108.596 5.25945   1
   7   1   1 115.413 5.73426  13
   7   1   1 108.937 5.47905   1
  -7   1  -1 118.389 6.94994   3
  -7   1  -1 105.130 4.72904   9
  -7   1  -1 109.308 6.77222  14
   7   1   1 109.410 5.43042  16
   9  -1   1 873.624 26.6841  16
   9  -1   1 891.127 26.8704   1
   9  -1   1 955.057 27.8710  13
  -9  -1  -1 1006.79 30.8836   3
  -9   1  -1 962.109 30.4443  14
   9   1   1 907.977 27.1574  16
   9   1   1 932.290 27.3992   1
  -9   1  -1 969.526 30.5482   3
   9   1   1 893.232 27.2127  13
 -11  -1  -1 72.6511 7.21001   3
  11  -1   1 62.1152 5.32371   1
  11  -1   1 71.2409 5.88567  13
  11   1   1 71.1914 5.84431  13
  11   1   1 65.9148 5.15193   1
 -11   1  -1 73.0431 7.30980   3
  10  -2  -1 159.387 8.15843  13
  10  -2  -1 162.115 8.26484   1
 -10  -2   1 165.666 9.78869   3
  10  -2  -1 161.243 8.10047  16
  10   2  -1 157.775 8.20689   1
 -10   2   1 172.405 10.0262   3
  10   2  -1 156.633 8.06655  13
  10   2  -1 150.640 7.75510  16
 -10   2   1 170.227 10.9078  14
   8  -2  -1 409.879 12.2198  12
  -8  -2   1 437.773 15.4909   3
   8  -2  -1 397.961 13.4136   1
   8  -2  -1 401.414 13.5100  16
  -8  -2   1 426.378 15.2002  14
  -8  -2   1 427.311 15.0350  10
   8   2  -1 391.564 13.6803   1
  -8   2   1 447.305 17.0070  14
   8   2  -1 414.187 12.3303  12
   8   2  -1 415.125 13.5364  13
  -8   2   1 399.268 12.3230   9
   8   2  -1 399.791 13.6686  16
  -8   2   1 418.905 15.5312   3
   6  -2  -1 512.775 13.6845  15
  -6  -2   1 515.507 15.9012  10
   6  -2  -1 491.288 13.6604  12
   6  -2  -1 499.491 13.4085   5
   6  -2  -1 503.406 14.5998  16
  -6  -2   1 475.589 13.9062   2
  -6  -2   1 500.450 15.6875  14
  -6   2   1 488.635 14.9636   8
   6   2  -1 477.931 14.6314   1
  -6   2   1 523.970 17.2546  14
  -6   2   1 478.335 13.7672   9
  -6   2   1 497.829 16.0357   3
   6   2  -1 483.534 13.6991  12
   6   2  -1 504.371 14.7833  16
   4  -2  -1 1610.80 38.7372  15
  -4  -2   1 1434.70 37.5817   9
  -4  -2   1 1563.01 39.6392  14
  -4  -2   1 1562.64 38.7335   2
  -4  -2   1 1583.56 39.8735  10
  -4  -2   1 1524.90 38.6837   7
  -4  -2   1 1392.57 38.9855  15
  -4   2   1 1525.51 40.5594  14
   4   2  -1 1514.51 37.8588   5
   4   2  -1 1580.06 38.8763   1
  -4   2   1 1529.78 38.3557   9
  -4   2   1 1513.02 38.4219   6
   4   2  -1 1557.14 38.2853  12
   4   2  -1 1579.93 38.8609  16
  -4   2   1 1537.17 39.1011   8
  -4   2   1 1546.70 39.8449   3
  -2  -2   1 3003.72 74.5496   7
  -2  -2   1 2855.61 78.2792   2
  -2  -2   1 2986.14 80.0677  10
   2  -2  -1 3091.73 80.2392  15
  -2   2   1 3022.61 81.1738  14
  -2   2   1 2948.17 78.2493   8
  -2   2   1 3041.18 76.3173   6
  -2   2   1 3104.99 78.0986   3
   2   2  -1 2858.22 75.7216   5
  -2   2   1 3037.30 77.5618   9
   2   2  -1 3026.33 77.0283  16
   2   2  -1 3131.14 76.7519   1
   2   2  -1 3095.24 76.1269  12
   0  -2   1 3149.41 78.0110   7
   0  -2  -1 2864.25 80.2879   2
   0  -2  -1 3003.13 80.9219  15
   0  -2  -1 2967.76 80.5487  10
   0   2   1 3135.43 77.7593   1
   0   2   1 3187.62 78.6779  16
   0   2  -1 3230.45 78.1045   5
   0   2  -1 3207.95 77.7347   9
   0   2   1 2955.52 81.8364  15
   0   2  -1 3084.11 75.9974  12
   0   2   1 3167.62 77.6310  13
  -2  -2  -1 3023.96 84.5048   2
  -2  -2  -1 3047.22 86.1662  15
  -2  -2  -1 2969.99 83.3627  10
  -2  -2  -1 3101.22 80.8474  11
   2   2   1 3481.78 85.1571  16
  -2   2  -1 3257.67 84.3986   3
   2   2   1 2962.49 85.3412  15
   2   2   1 3356.15 83.0412  13
  -2   2  -1 3521.04 83.5779   9
   2   2   1 3424.16 84.6571   1
  -2   2  -1 3422.95 85.4290   8
   2   2   1 3433.15 82.5080  12
  -2   2  -1 3525.83 86.4865  14
  -2   2  -1 3394.78 82.6084   6
  -4  -2  -1 1321.54 34.9507  10
   4  -2   1 1333.14 33.1761  16
   4  -2   1 1335.11 32.3999  12
  -4  -2  -1 1271.85 33.8647   2
  -4  -2  -1 1304.11 33.7869  15
  -4  -2  -1 1269.59 32.2552  11
   4  -2   1 1327.71 33.1698   1
  -4  -2  -1 1271.04 33.4604  14
  -4   2  -1 1302.50 35.1274  14
   4   2   1 1310.12 33.5080  16
  -4   2  -1 1278.19 33.8111   8
   4   2   1 1316.05 32.5646  12
   4   2   1 1357.45 33.5331  13
   4   2   1 1300.78 33.4938   1
  -4   2  -1 1300.15 33.2656   9
  -4   2  -1 1293.94 34.7375   3
  -4   2  -1 1280.78 32.8985   6
   6  -2   1 752.784 20.6050  16
  -6  -2  -1 685.427 19.6532   9
  -6  -2  -1 779.332 22.8031  10
  -6  -2  -1 736.401 21.3305  14
  -6  -2  -1 796.735 22.5858   3
  -6  -2  -1 760.491 21.1516   2
   6  -2   1 752.015 20.6247   1
   6   2   1 745.354 20.9299  13
   6   2   1 729.539 19.3983  12
  -6   2  -1 719.159 20.2066   9
   6   2   1 740.108 20.8810  16
  -6   2  -1 716.885 22.5802   3
   6   2   1 734.630 20.8492   1
  -6   2  -1 737.879 23.1698  14
   8  -2   1 526.229 16.4882   1
  -8  -2  -1 513.822 16.5337   2
   8  -2   1 518.595 16.4496  16
  -8  -2  -1 552.418 18.9346   3
   8  -2   1 521.726 16.9261  13
  -8   2  -1 510.402 15.6710   9
   8   2   1 519.774 16.8143   1
  -8   2  -1 541.801 19.3659   3
  -8   2  -1 541.446 19.7816  14
   8   2   1 503.670 16.5235  16
   8   2   1 519.155 16.6189  13
 -10  -2  -1 216.867 11.8102   3
  10  -2   1 189.299 9.19663  13
  10  -2   1 184.302 8.78625   1
  10   2   1 180.558 8.93577   1
 -10   2  -1 197.559 11.4449  14
 -10   2  -1 207.398 11.4325   3
  10   2   1 181.833 8.80639  13
  11  -3  -1 86.9404 5.97032   1
 -11  -3   1 91.1348 7.77315   3
  11  -3  -1 91.6959 6.50500  13
 -11   3   1 89.7147 8.91550  14
  11   3  -1 83.2721 6.43289   1
  11   3  -1 88.3932 5.95705  13
 -11   3   1 97.1610 8.05019   3
   9  -3  -1 1320.13 35.9770   1
   9  -3  -1 1277.60 35.7937  16
  -9  -3   1 1297.63 37.7134  10
  -9  -3   1 1342.98 38.2862   3
   9   3  -1 1258.25 35.8834  16
  -9   3   1 1346.95 41.0816  14
  -9   3   1 1228.03 34.0910   9
   9   3  -1 1282.99 33.9401  12
   9   3  -1 1291.64 36.0979   1
  -9   3   1 1265.57 38.5113   3
   9   3  -1 1245.96 35.4107  13
  -7  -3   1 224.612 8.94896  14
   7  -3  -1 210.969 8.06244  16
   7  -3  -1 217.054 7.13555  12
  -7  -3   1 207.661 7.49509   2
  -7  -3   1 223.132 9.41865  10
  -7   3   1 212.418 10.4544  14
  -7   3   1 215.465 8.63241   8
   7   3  -1 210.293 8.12605   1
  -7   3   1 206.125 9.25310   3
  -7   3   1 213.613 7.37620   9
   7   3  -1 210.782 7.17448  12
   7   3  -1 203.231 7.69258  13
   7   3  -1 206.398 8.13159  16
  -5  -3   1 2349.95 59.3327   2
  -5  -3   1 2354.36 60.0552  14
  -5  -3   1 2249.71 58.7917  15
  -5  -3   1 2296.90 59.0994   7
   5  -3  -1 2471.51 59.3700  15
  -5  -3   1 2157.65 57.6641   9
  -5  -3   1 2460.64 61.0320  10
   5   3  -1 2422.82 58.6527  12
  -5   3   1 2406.96 59.9445   8
   5   3  -1 2391.85 59.4366   1
  -5   3   1 2369.24 60.7173   3
  -5   3   1 2431.95 62.1089  14
  -5   3   1 2399.67 58.8930   9
  -5   3   1 2334.20 58.8625   6
   5   3  -1 2333.72 58.9385  13
   5   3  -1 2307.49 58.0104   5
   5   3  -1 2391.85 59.4041  16
  -3  -3   1 954.336 23.8123   7
  -3  -3   1 913.474 24.8906  10
   3  -3  -1 923.820 24.3281  15
  -3  -3   1 951.526 24.3721   2
  -3   3   1 892.100 24.2113   8
   3   3  -1 924.250 23.3751  13
  -3   3   1 919.137 24.6399   3
  -3   3   1 942.076 25.4756  14
  -3   3   1 954.668 23.7577   9
  -3   3   1 926.468 23.6737   6
   3   3  -1 929.150 23.8272  16
   3   3  -1 913.302 23.3698   5
   3   3  -1 915.907 23.4913  12
   3   3  -1 915.697 23.7959   1
   1  -3  -1 2872.61 68.7953  10
  -1  -3   1 2564.02 67.0381   7
   1  -3  -1 2704.00 72.6882  15
  -1  -3   1 2417.38 67.5540  10
  -1   3   1 2628.17 68.0508   8
  -1   3   1 2700.76 70.1967  14
   1   3  -1 2655.41 67.1227  12
  -1   3   1 2699.55 67.7047   3
   1   3  -1 2586.35 67.1968  16
  -1   3   1 2677.97 66.2973   6
   1   3  -1 2511.18 66.6135   9
  -1   3   1 2645.36 67.6822   9
   1   3  -1 2690.29 68.0138   5
  -1   3   1 2658.30 67.0507  13
   1   3  -1 2625.96 67.0871   1
  -1  -3  -1 2610.56 73.0828  15
  -1  -3  -1 2539.15 67.5611   2
  -1  -3  -1 2572.66 67.7799   7
  -1  -3  -1 2623.74 71.3828  10
  -1   3  -1 2835.31 71.3414   3
  -1   3  -1 2758.18 68.8754   9
   1   3   1 2781.76 69.8796   1
  -1   3  -1 2687.33 69.0826   8
   1   3   1 2741.64 68.5536  12
   1   3   1 2724.33 68.0851   6
  -1   3  -1 2791.97 68.7810   6
  -1   3  -1 2792.84 72.3162  14
   1   3   1 2788.02 68.6759  13
   1   3   1 2825.35 71.3075  16
  -3  -3  -1 2581.63 64.3150  11
  -3  -3  -1 2350.90 66.6591  14
  -3  -3  -1 2472.97 69.6188  15
  -3  -3  -1 2556.87 65.6325   2
  -3  -3  -1 2526.03 65.9508  10
   3   3   1 2677.85 64.7142   1
  -3   3  -1 2691.12 64.5668   9
   3   3   1 2526.58 64.3381  13
  -3   3  -1 2723.65 64.3723   6
  -3   3  -1 2635.69 65.8471   3
  -3   3  -1 2684.40 66.4477  14
   3   3   1 2688.24 65.1735  12
   3   3   1 2701.63 64.7374  16
  -3   3  -1 2657.70 65.0010   8
  -5  -3  -1 1011.33 28.2045   2
  -5  -3  -1 1050.22 29.6707  10
   5  -3   1 1044.43 26.3363  12
   5  -3   1 1066.85 27.3365  16
   5  -3   1 1049.81 27.3021   1
   5   3   1 1005.19 26.5316  12
   5   3   1 1031.70 27.5566  13
  -5   3  -1 1057.29 27.1204   6
  -5   3  -1 1063.69 28.3576   8
  -5   3  -1 1018.92 27.3697   9
   5   3   1 1049.08 27.8667   1
  -5   3  -1 1012.86 29.9521  14
   5   3   1 1051.00 27.8265  16
  -5   3  -1 1049.09 29.5276   3
   7  -3   1 1122.99 30.5488   1
   7  -3   1 1171.63 31.3963  13
  -7  -3  -1 1116.32 33.2679  10
  -7  -3  -1 1214.75 33.2436   3
   7  -3   1 1115.09 30.5578  16
   7   3   1 1053.03 29.1122  12
  -7   3  -1 1114.06 30.3343   9
   7   3   1 1124.04 30.9643  13
  -7   3  -1 1142.77 33.6430   3
   7   3   1 1149.98 31.2125   1
  -7   3  -1 1154.94 34.5950  14
   7   3   1 1099.86 31.0350  16
   9  -3   1 224.158 9.91200  13
  -9  -3  -1 235.960 11.3535   3
   9  -3   1 219.118 9.28532   1
  -9   3  -1 214.758 11.3754   3
  -9   3  -1 207.814 8.40024   9
   9   3   1 206.401 9.06618  13
   9   3   1 207.538 9.23407  16
   9   3   1 212.695 9.25578   1
  -9   3  -1 230.651 12.4162  14
  10  -4  -1 114.061 6.48485   1
  10  -4  -1 114.476 6.64037  16
 -10  -4   1 115.019 8.29382   3
 -10   4   1 126.300 10.0677  14
 -10   4   1 95.7337 6.04392   9
  10   4  -1 121.066 6.86666   1
  10   4  -1 112.697 7.53914  16
 -10   4   1 127.617 8.79082   3
  10   4  -1 120.467 6.70253  13
   8  -4  -1 326.601 11.4772  16
   8  -4  -1 323.223 11.5870   1
  -8  -4   1 337.116 13.2531  10
  -8   4   1 324.033 12.4004   8
   8   4  -1 319.224 10.3792  12
  -8   4   1 323.219 10.7789   9
   8   4  -1 328.749 11.9884   1
  -8   4   1 334.833 15.3049  14
   8   4  -1 310.171 11.1029  13
   8   4  -1 317.380 11.6462  16
  -8   4   1 347.694 13.6709   3
   6  -4  -1 104.923 4.87866  16
  -6  -4   1 114.148 6.41197  10
  -6  -4   1 110.310 5.17764  14
  -6  -4   1 100.683 4.85946   2
   6  -4  -1 107.514 4.92103  15
   6   4  -1 99.8309 4.88141   1
  -6   4   1 100.635 5.85135   3
   6   4  -1 104.223 4.50412  13
  -6   4   1 102.683 4.42371   9
   6   4  -1 104.613 4.95375  16
  -6   4   1 111.892 4.72542   6
  -6   4   1 105.904 6.69093  14
   6   4  -1 103.868 4.34166  12
  -6   4   1 122.619 5.79211   8
  -4  -4   1 432.984 12.3910  15
   4  -4  -1 450.452 13.2500  15
  -4  -4   1 441.697 12.4520   7
  -4  -4   1 441.022 13.2916   2
  -4  -4   1 449.598 14.1649  10
   4   4  -1 445.711 12.6720  16
  -4   4   1 449.594 13.2984   8
  -4   4   1 443.121 14.6787  14
  -4   4   1 436.529 12.4418   9
   4   4  -1 446.576 12.6864   1
  -4   4   1 448.612 12.4178   6
   4   4  -1 429.587 11.9941  13
  -4   4   1 413.927 13.5072   3
   4   4  -1 435.628 12.1182  12
  -2  -4   1 334.734 10.3996  10
  -2  -4   1 343.899 9.27560   7
  -2  -4   1 322.440 10.0569   2
   2  -4  -1 348.662 10.4249  15
  -2   4   1 329.960 10.0372   3
  -2   4   1 326.365 10.4328  14
   2   4  -1 330.736 8.58283  13
   2   4  -1 327.724 9.09955  12
  -2   4   1 331.765 9.26701   6
  -2   4   1 338.017 9.45523   9
   2   4  -1 331.420 9.26174  16
   2   4  -1 330.354 9.24268   1
  -2   4   1 323.201 9.89885   8
   0  -4   1 3.57727 0.98668  10
   0  -4   1 6.37381 0.84048   7
   0  -4  -1 6.04537 1.24713   2
   0  -4   1 5.59321 0.57061   4
   0  -4  -1 4.36980 1.04329  10
   0  -4  -1 6.47854 1.14697  15
   0   4  -1 3.95772 0.62211  12
   0   4   1 4.67614 0.56999  13
   0   4   1 3.85341 0.65729  14
   0   4   1 3.90790 0.71336  16
   0   4   1 5.38710 0.74581   1
   0   4  -1 3.80513 0.69127   6
   0   4  -1 5.98966 0.64526   1
   0   4   1 4.77655 0.67049   6
   0   4  -1 3.51649 0.70834   8
   0   4  -1 3.64750 0.66469   9
  -2  -4  -1 363.034 11.1851  10
  -2  -4  -1 350.359 10.6573  15
  -2  -4  -1 336.456 9.95273  11
  -2  -4  -1 359.623 11.1880   2
  -2  -4  -1 352.230 9.28146   7
  -2   4  -1 334.947 10.7238   3
   2   4   1 341.722 9.39614  12
   2   4   1 333.808 9.45941  13
   2   4   1 357.879 9.96292  16
  -2   4  -1 342.886 9.70409   6
  -2   4  -1 337.044 11.1984  14
  -2   4  -1 324.459 10.0296   8
   2   4   1 347.304 9.89203   1
  -2   4  -1 339.717 9.79080   9
  -4  -4  -1 6.50916 1.27778  15
   4  -4   1 5.83868 1.04740  16
  -4  -4  -1 6.95415 1.77989  10
  -4   4  -1 6.65819 1.53403   3
  -4   4  -1 3.46312 0.90199   9
  -4   4  -1 5.22309 1.71440  14
  -4   4  -1 4.82444 1.35546   8
   4   4   1 5.40416 1.10619  13
   4   4   1 6.80076 1.01262  12
   4   4   1 5.30465 1.12420  16
  -4   4  -1 10.0486 1.35967   6
   4   4   1 6.18482 1.28632   1
  -6  -4  -1 22.2082 2.85365   2
   6  -4   1 36.7717 2.69477  16
  -6  -4  -1 33.7405 4.19136  10
   6  -4   1 36.6028 2.71522   1
   6   4   1 25.2142 2.73516  16
  -6   4  -1 26.7995 3.61196   3
   6   4   1 28.2273 2.72469  13
   6   4   1 24.8279 2.79222   1
  -6   4  -1 31.0312 3.20030   8
  -6   4  -1 27.6733 3.98863  14
  -6   4  -1 26.3408 2.29430   9
   6   4   1 24.5997 1.96558  12
  -6   4  -1 29.6101 2.27955   6
  -8  -4  -1 57.8273 4.44540   2
  -8  -4  -1 61.1095 5.50877  10
   8  -4   1 57.8753 4.57051  13
  -8  -4  -1 75.6370 5.98263   3
   8  -4   1 56.7448 4.15781   1
   8   4   1 49.1903 3.88546  13
   8   4   1 57.6108 4.29636   1
   8   4   1 57.9119 4.48881  16
  -8   4  -1 55.1735 5.53441   3
  -8   4  -1 53.1758 3.88221   9
  -8   4  -1 55.2950 6.18590  14
 -10  -4  -1 2.49148 2.27148   3
  10  -4   1 0.34224 1.86555  13
  10   4   1 3.25647 2.10570  13
 -10   4  -1 3.68819 3.14989  14
 -10   4  -1 2.62495 1.67769   9
 -10   4  -1 1.11531 2.44168   3
  10   4   1 1.16662 1.97388   1
 -11  -5   1 196.180 10.7872   3
  11  -5  -1 163.793 8.88620  13
  11   5  -1 172.896 9.26451   1
 -11   5   1 172.233 10.6434   3
   9  -5  -1 213.289 9.06067  16
  -9  -5   1 206.095 10.8967  10
  -9  -5   1 221.476 10.8810   3
   9  -5  -1 219.829 9.36968   1
   9   5  -1 205.640 9.32564  16
  -9   5   1 207.391 8.28230   9
  -9   5   1 210.638 11.1011   3
   9   5  -1 225.306 8.87266  13
   9   5  -1 213.119 9.55768   1
  -9   5   1 233.305 13.3463  14
   9   5  -1 211.066 8.00732  12
   7  -5  -1 737.660 20.8264  16
  -7  -5   1 690.488 20.6613   2
  -7  -5   1 747.233 23.3236  10
   7   5  -1 695.329 19.7371  12
   7   5  -1 685.574 20.7967   1
  -7   5   1 747.741 20.3760   6
   7   5  -1 703.486 20.1551  13
   7   5  -1 703.357 20.9181  16
  -7   5   1 701.095 21.9333   8
  -7   5   1 729.274 22.9413   3
  -7   5   1 699.741 24.7115  14
  -7   5   1 718.780 20.2935   9
  -5  -5   1 1052.65 29.4321   2
  -5  -5   1 1086.92 28.2675   7
  -5  -5   1 1023.09 28.1314  15
   5  -5  -1 1091.18 29.3574  15
  -5  -5   1 1102.08 30.7088  10
   5   5  -1 1060.55 28.4914  16
   5   5  -1 1047.26 27.8212  12
  -5   5   1 1049.65 31.6750  14
  -5   5   1 1101.01 28.3720   9
   5   5  -1 1032.03 27.6671  13
  -5   5   1 1071.91 29.5693   8
  -5   5   1 1118.10 28.3403   6
  -5   5   1 1090.81 30.3405   3
   5   5  -1 1062.46 28.5139   1
  -3  -5   1 2761.18 71.3108   7
  -3  -5   1 2591.43 72.4370   2
   3  -5  -1 2988.88 72.9513  15
  -3  -5   1 2763.03 73.1768  10
  -3   5   1 3045.20 71.7348   9
  -3   5   1 2988.80 71.5271   6
  -3   5   1 2910.18 72.5280   8
   3   5  -1 2925.45 71.2641  12
   3   5  -1 3015.26 71.6529  16
  -3   5   1 2886.76 73.7333  14
   3   5  -1 2793.57 70.5963  13
  -3   5   1 2870.86 72.8627   3
   3   5  -1 2973.40 71.6170   1
  -1  -5   1 2317.05 56.8973   7
   1  -5  -1 2370.62 58.2228   2
   1  -5  -1 2418.59 58.0253  10
  -1  -5   1 2274.82 58.4865  10
   1  -5  -1 2366.40 56.3312   7
   1  -5  -1 2350.38 58.5270  15
  -1   5   1 2313.30 57.9437  14
   1   5  -1 2290.28 57.0163   6
   1   5  -1 2228.37 56.7654  16
  -1   5   1 2317.59 57.9124   8
   1   5  -1 2322.44 56.8169  12
  -1   5   1 2289.78 56.9115   6
   1   5  -1 2259.42 56.7278   1
   1   5  -1 2184.27 57.1735   8
   1   5  -1 2231.41 56.7444   9
  -1   5   1 2278.52 57.1770   9
   1  -5   1 2621.09 67.1950   4
  -1  -5  -1 2711.96 68.4344  10
  -1  -5  -1 2721.34 71.9318  15
  -1  -5  -1 2735.18 67.6536   7
   1  -5   1 2787.10 67.1040   7
  -1  -5  -1 2758.12 68.7162   2
  -1   5  -1 2736.07 67.1733   9
   1   5   1 2685.23 66.8061  12
  -1   5  -1 2724.92 68.7968  14
   1   5   1 2697.67 66.6094  13
  -1   5  -1 2660.69 67.4989   8
  -1   5  -1 2800.88 67.2429   6
   1   5   1 2709.19 67.2202   1
   1   5   1 2579.81 66.6712   6
   1   5   1 2798.87 67.3122  16
  -3  -5  -1 705.899 20.6233  10
  -3  -5  -1 677.783 20.3884   2
  -3  -5  -1 651.012 18.6593  11
  -3  -5  -1 687.590 19.5723  15
  -3   5  -1 683.568 18.6885   9
   3   5   1 686.469 18.1965  13
   3   5   1 705.842 18.8404   1
   3   5   1 685.916 18.0886  12
  -3   5  -1 676.109 20.8659  14
  -3   5  -1 696.705 18.5323   6
  -3   5  -1 690.880 19.3049   8
  -3   5  -1 668.866 20.0695   3
   3   5   1 706.528 18.8687  16
  -5  -5  -1 794.233 23.3137   2
  -5  -5  -1 824.071 24.5541  10
   5  -5   1 797.857 21.3995  16
   5   5   1 761.096 22.0187   1
  -5   5  -1 766.708 24.9432  14
  -5   5  -1 819.659 21.5859   6
  -5   5  -1 813.943 24.2723   3
   5   5   1 765.637 20.8831  12
   5   5   1 760.663 21.9738  16
   5   5   1 760.575 21.4297  13
  -5   5  -1 786.370 21.8020   9
  -5   5  -1 799.149 22.8025   8
  -7  -5  -1 220.484 10.7274  10
   7  -5   1 225.648 8.68942  13
  -7  -5  -1 206.514 8.96759   2
  -7  -5  -1 218.741 9.80219   3
   7   5   1 201.679 7.99090  13
   7   5   1 197.779 7.04494  12
  -7   5  -1 207.044 8.13191   9
   7   5   1 210.056 8.56436   1
  -7   5  -1 194.063 10.1857   3
  -7   5  -1 198.342 7.59399   6
   7   5   1 199.569 8.51638  16
  -7   5  -1 217.779 11.5701  14
  -9  -5  -1 415.071 16.1751   3
   9  -5   1 420.890 14.6452  13
   9   5   1 390.654 14.3225   1
  -9   5  -1 375.605 13.1775   9
  -9   5  -1 381.693 16.7987   3
   9   5   1 376.942 13.8236  13
  -9   5  -1 389.245 18.1708  14
 -10  -6   1 102.124 8.10909  10
 -10  -6   1 112.271 8.20335   3
  10  -6  -1 101.597 6.60303  13
 -10   6   1 113.250 6.04753   9
  10   6  -1 105.555 7.04222   1
 -10   6   1 112.168 8.65054   3
 -10   6   1 113.917 10.2632  14
   8  -6  -1 53.1403 4.04112  16
  -8  -6   1 53.8249 5.85108  10
  -8   6   1 49.5567 3.92368   6
  -8   6   1 45.4787 3.73399   9
   8   6  -1 45.6481 4.21630  16
   8   6  -1 44.9584 3.28190  13
  -8   6   1 45.5981 5.72864  14
  -8   6   1 52.5032 5.03083   3
  -8   6   1 50.1341 4.69098   8
   8   6  -1 51.9949 4.48602   1
   8   6  -1 51.8935 3.62562  12
  -6  -6   1 336.478 10.8764   7
   6  -6  -1 332.081 12.0534  15
  -6  -6   1 364.891 13.8147  10
  -6  -6   1 327.236 12.0590   2
   6   6  -1 341.879 11.5083   1
  -6   6   1 336.474 13.1013   3
  -6   6   1 349.542 11.1562   9
   6   6  -1 316.345 10.3101  13
   6   6  -1 343.880 10.6680  12
  -6   6   1 339.153 14.6245  14
  -6   6   1 357.613 11.1724   6
  -6   6   1 340.292 12.5367   8
   6   6  -1 344.082 11.5064  16
   4  -6  -1 71.6700 4.48494  15
  -4  -6   1 70.2739 3.43355   7
  -4  -6   1 66.8288 3.66094  15
   4   6  -1 68.5594 2.81392  13
  -4   6   1 71.2939 3.62122   6
   4   6  -1 71.5203 3.66429   1
  -4   6   1 67.3964 4.96063  14
   4   6  -1 68.2896 3.60347  16
   4   6  -1 71.9891 3.26265  12
  -4   6   1 73.6958 3.69366   9
  -4   6   1 67.9033 4.20880   8
  -4   6   1 68.0734 4.40338   3
  -2  -6   1 47.5426 2.54820   7
  -2  -6   1 50.3918 3.57221   2
   2  -6  -1 51.3462 2.19309   7
  -2  -6   1 56.2526 3.76220  10
   2  -6  -1 56.0812 3.28100  10
   2  -6  -1 52.1122 3.51652  15
   2   6  -1 51.3846 2.58882   1
  -2   6   1 56.3358 2.67372   6
  -2   6   1 47.3951 3.35722  14
  -2   6   1 48.4137 3.22505   8
   2   6  -1 51.8372 2.57605  12
  -2   6   1 53.2151 2.79495   9
   2   6  -1 52.2406 2.61980  16
   0  -6  -1 241.480 8.43565   2
   0  -6  -1 223.952 8.46858  15
   0  -6  -1 230.516 6.24267   7
   0  -6  -1 227.502 8.01769  10
   0  -6   1 229.134 8.49960  10
   0  -6   1 236.134 6.98274   7
   0   6  -1 212.280 6.64929   1
   0   6   1 216.427 6.46593  13
   0   6  -1 212.057 7.32560   8
   0   6   1 220.123 7.07720   1
   0   6   1 218.226 6.85019   6
   0   6  -1 230.352 7.08839   9
   0   6   1 224.111 7.79079   8
   0   6  -1 224.831 7.11245   6
  -2  -6  -1 22.1491 1.49817   7
   2  -6   1 20.3162 1.73673   7
   2  -6   1 23.0384 1.54299   4
  -2  -6  -1 22.0247 3.11288   2
  -2  -6  -1 21.8195 2.31396  15
  -2  -6  -1 23.2227 2.73949  10
  -2   6  -1 22.5563 2.53662   3
   2   6   1 22.9636 1.51498  13
  -2   6  -1 23.7455 2.00577   6
   2   6   1 22.5221 1.51199   6
   2   6   1 22.0175 2.01491  16
   2   6   1 21.5163 1.72207  12
  -2   6  -1 20.6516 2.04298   8
  -2   6  -1 21.7670 1.79088   9
  -2   6  -1 22.9168 2.56292  14
   2   6   1 23.3276 1.87766   1
  -4  -6  -1 49.7126 4.58912   2
  -4  -6  -1 51.8314 3.20952  11
  -4  -6  -1 51.3283 4.33818  10
  -4  -6  -1 45.3352 3.41197  15
   4   6   1 50.0269 2.78548  13
  -4   6  -1 53.3602 3.17731   6
  -4   6  -1 51.9969 3.25860   9
   4   6   1 49.4304 3.34580   1
  -4   6  -1 50.0685 4.54304  14
  -4   6  -1 49.0341 3.60762   8
   4   6   1 50.2850 3.20227  16
   4   6   1 47.3873 2.63015  12
  -4   6  -1 51.6229 4.01186   3
  -6  -6  -1 25.0781 3.52570   2
  -6  -6  -1 23.4902 4.07652  10
   6   6   1 21.6207 2.09029  12
   6   6   1 20.6311 2.62144  16
  -6   6  -1 22.1811 2.59655   6
   6   6   1 21.3526 2.79083   1
  -6   6  -1 17.9133 2.54237   9
  -6   6  -1 18.7155 3.40959   3
  -6   6  -1 19.6182 3.70117  14
  -6   6  -1 26.0429 3.35369   8
   6   6   1 21.9672 2.45649  13
  -8  -6  -1 7.67407 2.38683   2
  -8  -6  -1 3.91353 2.35860   3
  -8  -6  -1 9.98211 3.29201  10
   8  -6   1 6.53406 1.91367  13
  -8   6  -1 2.81379 1.80191   3
   8   6   1 8.12461 2.37882   1
   8   6   1 6.07282 1.79803  16
   8   6   1 6.39729 2.02809  13
  -8   6  -1 7.27728 3.28240  14
  -8   6  -1 8.55422 2.17285   6
  -8   6  -1 6.05628 2.08128   9
  -9  -7   1 210.752 11.4145  10
  -9   7   1 205.326 11.0966   3
   9   7  -1 209.018 8.18972  12
  -9   7   1 197.868 8.64868   9
  -9   7   1 195.691 10.5801   8
   9   7  -1 208.802 9.61902   1
  -9   7   1 198.581 13.0522  14
  -7  -7   1 962.986 29.9416  10
  -7  -7   1 924.780 27.8553   2
   7  -7  -1 945.031 26.8323  16
  -7   7   1 934.742 32.2710  14
  -7   7   1 961.464 26.8780   9
  -7   7   1 984.536 26.7729   6
   7   7  -1 947.791 27.3391  16
  -7   7   1 976.826 29.9458   3
  -7   7   1 949.356 28.8871   8
   7   7  -1 956.202 27.3876   1
   7   7  -1 966.254 26.2101  12
  -5  -7   1 157.715 8.11343  10
  -5  -7   1 152.234 5.95547   7
  -5  -7   1 147.453 7.58735   2
   5  -7  -1 156.452 7.54066  15
   5   7  -1 142.386 6.25209   1
   5   7  -1 148.180 6.20337  16
   5   7  -1 155.439 5.86059  12
  -5   7   1 138.932 8.31581  14
  -5   7   1 153.617 6.35975   9
  -5   7   1 147.381 6.14837   6
  -5   7   1 138.216 7.13770   8
  -5   7   1 147.420 7.63609   3
   3  -7  -1 1105.98 30.7161  15
   3  -7  -1 1072.13 29.5240  10
  -3  -7   1 1067.93 30.2318   2
  -3  -7   1 1118.90 30.8955  10
  -3  -7   1 1089.70 28.1018   7
  -3   7   1 1072.70 30.1799   3
  -3   7   1 1036.36 30.9034  14
  -3   7   1 1102.46 28.8124   9
  -3   7   1 1085.55 28.4316   6
   3   7  -1 1073.13 28.4233   1
  -3   7   1 1059.79 29.7340   8
   3   7  -1 1050.89 28.3633  16
   3   7  -1 1079.45 28.1802  12
   1  -7  -1 290.209 10.7827  15
   1  -7  -1 295.676 10.0503  10
  -1  -7   1 294.410 10.6183   2
  -1  -7   1 297.779 10.6859  10
   1  -7  -1 304.265 10.5007   2
  -1  -7   1 300.221 8.75393   7
   1   7  -1 294.265 9.09077   6
   1   7  -1 278.018 8.65489  12
   1   7  -1 274.937 9.30790   8
  -1   7   1 288.212 9.97088   8
   1   7  -1 295.204 8.75872   1
  -1   7   1 279.489 8.84080   6
   1  -7   1 1700.08 42.7521   7
  -1  -7  -1 1685.80 45.0106  15
  -1  -7  -1 1738.93 44.8365  10
  -1  -7  -1 1742.13 45.2048   2
   1  -7   1 1739.41 45.2238  10
   1   7   1 1670.39 42.5899   6
   1   7   1 1688.12 43.1385  16
   1   7   1 1636.02 42.0778  13
  -1   7  -1 1692.24 43.1062   6
   1   7   1 1722.94 43.1601   1
  -1   7  -1 1583.86 43.5345   8
  -1   7  -1 1665.05 43.0682   9
  -3  -7  -1 670.898 20.2341  15
  -3  -7  -1 686.968 21.0485  10
  -3  -7  -1 684.792 21.1492   2
  -3  -7  -1 637.722 19.0165  11
   3  -7   1 665.479 18.5323   7
  -3   7  -1 674.117 18.8639   9
   3   7   1 661.828 18.8337  16
  -3   7  -1 646.226 21.4878  14
   3   7   1 668.603 18.1934  12
   3   7   1 683.544 18.9481   1
  -3   7  -1 667.395 20.6918   3
   3   7   1 659.887 17.7845   6
  -3   7  -1 664.601 19.6255   8
  -3   7  -1 669.577 18.6905   6
   3   7   1 646.987 17.7755  13
  -5  -7  -1 1427.65 40.5569  10
  -5  -7  -1 1410.79 39.8614   2
   5   7   1 1405.06 37.7481   1
  -5   7  -1 1407.77 37.6242   9
   5   7   1 1457.77 36.7056  12
  -5   7  -1 1420.53 42.0911  14
  -5   7  -1 1406.65 37.2383   6
   5   7   1 1411.08 37.7964  16
   5   7   1 1364.25 36.5879  13
  -5   7  -1 1424.62 39.0193   8
  -5   7  -1 1386.67 40.2172   3
  -7  -7  -1 333.421 13.2930   2
  -7  -7  -1 357.239 15.3387  10
   7   7   1 360.947 12.7545   1
  -7   7  -1 342.209 16.6306  14
   7   7   1 355.903 11.2221  12
   7   7   1 347.782 12.7046  16
   7   7   1 325.705 11.5330  13
  -7   7  -1 354.382 13.7828   8
  -7   7  -1 335.806 14.6829   3
  -7   7  -1 342.147 12.2002   9
  -7   7  -1 353.649 11.8070   6
  -9  -7  -1 418.007 17.9192  10
  -9   7  -1 411.435 14.6411   9
  -9   7  -1 427.027 18.1203   3
   9   7   1 414.044 15.4006   1
  -9   7  -1 438.660 20.7559  14
  -8  -8   1 57.6645 5.89498  10
  -8   8   1 55.3684 6.55069  14
  -8   8   1 46.3497 5.69535   3
  -8   8   1 51.2870 4.95931   8
   8   8  -1 56.6983 4.91089   1
  -8   8   1 50.1060 4.33316   9
   8   8  -1 55.1205 4.04804  12
  -8   8   1 55.9972 4.54261   6
   8   8  -1 51.9174 4.28459  16
   6  -8  -1 575.808 19.3454  15
  -6  -8   1 592.074 20.6385  10
  -6  -8   1 551.339 19.0208   2
  -6   8   1 573.148 19.7236   3
   6   8  -1 559.152 17.5104   1
  -6   8   1 549.215 21.7467  14
  -6   8   1 574.777 17.1811   6
   6   8  -1 555.986 17.3658  16
  -6   8   1 563.010 17.3727   9
  -6   8   1 591.407 19.4572   8
   6   8  -1 553.073 16.6309  12
  -4  -8   1 302.057 11.9438   2
   4  -8  -1 298.947 11.8642  15
  -4  -8   1 292.811 10.9758  15
   4  -8  -1 301.900 10.8997  10
  -4  -8   1 298.538 9.32878   7
  -4  -8   1 297.793 12.2406  10
  -4   8   1 297.572 11.3336   8
   4   8  -1 292.650 9.48439   6
   4   8  -1 297.671 9.97599  16
  -4   8   1 302.208 10.2666   9
  -4   8   1 295.653 9.92519   6
   4   8  -1 293.672 9.89470   1
  -4   8   1 293.201 11.5897   3
  -4   8   1 286.082 12.4693  14
   4   8  -1 286.905 9.56378  12
   2  -8  -1 573.388 17.7173   2
  -2  -8   1 565.642 17.9016   2
   2  -8  -1 568.096 17.1966  10
  -2  -8   1 555.293 15.3715   7
   2  -8  -1 559.566 18.2804  15
  -2  -8   1 570.434 18.2194  10
  -2   8   1 562.003 17.3189   8
   2   8  -1 539.907 15.7114   1
   2   8  -1 562.216 15.9074   6
  -2   8   1 546.050 15.8708   6
  -2   8   1 522.729 17.5468  14
   2   8  -1 564.873 15.8102  16
   2   8  -1 530.091 16.3512   8
   2   8  -1 570.628 15.7358  12
   0  -8  -1 1320.72 35.6445   2
   0  -8  -1 1282.52 34.9623  10
   0  -8  -1 1274.62 35.8648  15
   0  -8   1 1342.09 35.9246  10
   0  -8   1 1288.38 33.0136   7
   0   8  -1 1308.40 33.6983   6
   0   8   1 1258.45 33.4709   1
   0   8   1 1303.89 34.9264   8
   0   8  -1 1302.44 33.4966   9
   0   8   1 1277.44 33.2378   6
   0   8  -1 1163.36 33.9387   8
  -2  -8  -1 359.252 13.4046   2
  -2  -8  -1 360.728 13.2001  15
   2  -8   1 361.534 11.1343   7
   2  -8   1 370.081 13.2810  10
  -2  -8  -1 374.902 13.5101  10
   2   8   1 350.825 10.7195   6
   2   8   1 368.062 11.5413   1
  -2   8  -1 358.113 11.4027   6
  -2   8  -1 349.001 12.1034   8
  -2   8  -1 380.182 11.6618   9
   2   8   1 369.303 11.5733  16
  -4  -8  -1 835.024 24.8033  11
  -4  -8  -1 898.465 27.4875  10
   4  -8   1 915.040 24.5785   7
  -4  -8  -1 902.906 27.5016   2
   4   8   1 889.787 24.9350  16
  -4   8  -1 898.824 24.6699   6
  -4   8  -1 858.999 28.5523  14
  -4   8  -1 878.072 27.2393   3
  -4   8  -1 892.278 24.8674   9
  -4   8  -1 872.912 26.0069   8
   4   8   1 883.541 24.9139   1
   4   8   1 887.238 23.9908  12
  -6  -8  -1 468.833 17.1617   2
  -6  -8  -1 480.722 18.2931  10
   6   8   1 463.966 15.4494   1
  -6   8  -1 463.056 16.5056   8
  -6   8  -1 472.770 19.9332  14
   6   8   1 469.413 15.4182  16
  -6   8  -1 446.050 17.5943   3
  -6   8  -1 466.422 15.3101   9
  -6   8  -1 467.504 14.8841   6
   6   8   1 470.540 14.2299  12
  -8  -8  -1 181.383 10.5073  10
  -8   8  -1 166.420 10.4704   3
  -8   8  -1 186.283 12.7679  14
   8   8   1 176.131 8.67883   1
  -8   8  -1 157.119 7.70247   6
  -8   8  -1 167.095 8.10089   9
  -9  -9   1 269.986 13.9831  10
  -9   9   1 272.732 13.3106   8
   9   9  -1 262.889 11.4728   1
  -9   9   1 279.992 10.8728   6
   9   9  -1 285.697 10.3665  12
  -9   9   1 284.686 13.8652   3
  -9   9   1 263.953 15.9672  14
  -7  -9   1 113.751 8.55393  10
  -7  -9   1 101.871 7.02433   2
  -7   9   1 107.011 7.50531   8
   7   9  -1 109.851 6.08736   1
   7   9  -1 103.256 5.84632  16
  -7   9   1 108.069 6.17011   9
  -7   9   1 104.350 7.40587   3
   7   9  -1 106.884 5.61371  12
  -7   9   1 106.873 9.01012  14
  -7   9   1 105.350 5.98613   6
  -5  -9   1 1262.76 37.0017   2
  -5  -9   1 1257.64 37.5831  10
   5   9  -1 1285.83 34.4632  16
   5   9  -1 1269.49 34.3969   1
   5   9  -1 1274.69 33.8632  12
  -5   9   1 1252.39 34.2124   6
   5   9  -1 1265.89 33.5910   6
  -5   9   1 1207.95 38.7352  14
  -5   9   1 1256.31 34.5950   9
  -5   9   1 1329.70 36.8063   8
  -3  -9   1 392.148 14.5622   2
   3  -9  -1 387.020 14.7783  15
  -3  -9   1 413.909 15.0150  10
   3  -9  -1 396.584 13.9918   2
  -3  -9   1 356.642 13.5226  15
   3  -9  -1 384.521 13.3333  10
  -3   9   1 392.753 13.8101   8
   3   9  -1 390.060 12.1775  16
   3   9  -1 384.788 12.0627   1
   3   9  -1 379.278 11.8696  12
  -3   9   1 367.155 14.4651  14
   3   9  -1 378.848 11.9825   6
  -3   9   1 361.220 12.0048   6
  -1  -9   1 2324.70 60.2664  10
   1  -9  -1 2284.72 59.1730  10
  -1  -9   1 2260.55 59.9003   2
   1  -9  -1 2282.31 60.6395  15
   1  -9  -1 2254.13 59.6581   2
  -1   9   1 2337.85 59.3765   8
   1   9  -1 2055.32 57.9512   8
   1   9  -1 2259.49 57.1278   1
   1   9  -1 2290.75 57.5948   6
  -1   9   1 2252.14 57.3554   6
   1  -9   1 137.376 7.28284  10
  -1  -9  -1 143.838 7.50398  10
  -1  -9  -1 138.884 7.74630   2
  -1  -9  -1 130.735 7.38694  15
   1   9   1 130.145 6.53376   8
  -1   9  -1 131.057 5.76913   9
   1   9   1 144.535 5.87820   1
  -1   9  -1 126.659 6.20263   8
   1   9   1 142.690 5.49974   6
  -1   9  -1 131.279 5.71111   6
  -3  -9  -1 1212.66 35.4294   2
  -3  -9  -1 1190.43 32.8356  11
  -3  -9  -1 1208.36 34.9763  10
   3  -9   1 1239.40 34.8931  10
  -3  -9  -1 1137.14 34.1979  15
  -3   9  -1 1129.02 33.2975   8
  -3   9  -1 1205.74 32.2538   6
  -3   9  -1 1211.59 32.4923   9
   3   9   1 1172.19 32.3114  16
   3   9   1 1203.48 32.3549   1
  -5  -9  -1 6.12960 2.54410  10
  -5  -9  -1 10.2899 3.59844   2
  -5   9  -1 7.00168 2.11463   8
   5   9   1 4.58131 1.85161  16
  -5   9  -1 4.82035 1.89992   9
   5   9   1 2.53487 1.77674   1
  -5   9  -1 9.43436 1.90017   6
  -7  -9  -1 541.430 19.6371   2
  -7  -9  -1 597.581 21.8587  10
  -7   9  -1 550.789 18.0213   9
  -7   9  -1 543.448 20.9616   3
  -7   9  -1 578.198 17.8129   6
  -7   9  -1 541.167 19.9632   8
   7   9   1 547.283 18.2522   1
  -8 -10   1 -0.7653 2.69140  10
   8  10  -1 2.31839 1.41312  12
  -8  10   1 3.31072 3.12860  14
  -8  10   1 1.83560 1.88191   8
  -8  10   1 2.37896 1.64991   9
  -8  10   1 2.06977 2.15025   6
   8  10  -1 2.54276 1.94223   1
  -8  10   1 3.15161 2.66907   3
  -6 -10   1 65.6804 7.10624  10
  -6 -10   1 61.7485 6.43912   2
   6 -10  -1 71.6866 5.66509   2
  -6  10   1 69.3681 5.04976   9
  -6  10   1 66.4551 7.17326  14
   6  10  -1 63.1142 4.42955  16
  -6  10   1 65.3565 4.92396   6
   6  10  -1 68.7045 4.30000  12
  -6  10   1 76.3088 6.01641   8
   6  10  -1 69.8791 4.92298   1
  -4 -10   1 2.60021 2.95019   2
  -4 -10   1 2.23287 2.27823  10
   4 -10  -1 0.71072 1.46935   2
  -4  10   1 3.93422 2.10491   8
   4  10  -1 1.42730 1.28105   6
   4  10  -1 1.58131 1.36680   1
  -4  10   1 0.00374 1.08611   6
   4  10  -1 2.23499 1.36929  16
   4  10  -1 0.09490 1.38682  12
   2 -10  -1 -0.4178 1.46547  10
  -2 -10   1 1.39380 2.46378  10
  -2 -10   1 0.26913 1.67262   2
   2 -10  -1 1.54349 2.10002   2
  -2 -10   1 1.95871 1.32195  15
   2  10  -1 1.47854 1.15619   1
  -2  10   1 1.13425 1.14435   8
  -2  10   1 0.43010 1.35589   6
   2  10  -1 7.51207 1.78845   6
   0 -10   1 50.3541 4.87671   2
   0 -10  -1 76.0808 5.43031   2
   0 -10  -1 53.3451 4.96401  10
   0 -10   1 59.3844 5.27766  10
   0  10   1 56.0763 3.61576   6
   0  10  -1 44.2133 3.95281   8
   0  10  -1 58.5778 3.90681   6
   0  10   1 58.6633 4.35571   8
  -2 -10  -1 48.8072 4.84602  10
  -2 -10  -1 42.3232 3.72483  11
  -2 -10  -1 48.7362 5.13432   2
   2 -10   1 48.2649 4.93203  10
  -2 -10  -1 39.1015 4.51270  15
   2  10   1 39.0969 2.94901   6
  -2  10  -1 42.5712 3.32536   6
  -2  10  -1 35.3135 3.69034   8
   2  10   1 43.2461 3.33847   1
  -2  10  -1 44.1387 3.63193   9
   2  10   1 49.3222 4.20550   8
  -4 -10  -1 12.8006 3.20443  10
   4 -10   1 13.7666 3.20938  10
  -4 -10  -1 14.2949 4.19449   2
  -4  10  -1 9.54543 2.70308   8
  -4  10  -1 11.7361 2.56819   9
   4  10   1 11.6128 2.46102   1
   4  10   1 12.6035 2.37115  16
  -4  10  -1 19.8505 2.89159   6
   6 -10   1 4.50642 2.24226  10
  -6 -10  -1 4.11404 3.03167   2
  -6 -10  -1 6.64603 2.79109  10
   6  10   1 4.47882 1.71552   1
  -6  10  -1 5.35697 2.13543   8
  -6  10  -1 2.17978 2.01039   6
  -6  10  -1 5.74843 1.89416   9
  -7 -11   1 272.384 13.4950  10
   7  11  -1 262.495 10.8040   1
  -7  11   1 271.106 13.0118   8
  -7  11   1 254.440 10.5708   6
  -5 -11   1 235.253 12.2263   2
  -5 -11   1 237.736 12.2143  10
   5 -11  -1 225.438 10.6635   2
  -5  11   1 231.549 11.3014   8
   5  11  -1 217.039 9.15954   1
  -5  11   1 234.415 9.49464   6
   5  11  -1 225.814 9.24515  16
  -3 -11   1 102.418 7.85173   2
  -3 -11   1 109.061 7.67430  10
   3 -11  -1 103.440 6.71961   2
  -3  11   1 104.249 6.81153   8
  -3  11   1 117.742 5.91104   6
   3  11  -1 111.677 5.59122   6
   3  11  -1 99.5692 5.35855   1
  -1 -11   1 358.736 14.5143   2
   1 -11  -1 364.964 13.8109  10
  -1 -11   1 361.455 14.5553  10
   1 -11  -1 367.222 14.5742   2
  -1  11   1 347.986 13.6712   8
  -1  11   1 362.901 12.1647   6
   1  11  -1 401.882 12.5941   6
   1 -11   1 186.293 9.66062  10
  -1 -11  -1 179.230 10.1116   2
   1 -11   1 187.620 9.61156   2
  -1 -11  -1 188.980 9.33412  10
  -1  11  -1 186.518 7.91931   6
   1  11   1 186.511 7.31814   6
   1  11   1 179.803 8.76096   8
  -3 -11  -1 789.245 26.8708   2
   3 -11   1 814.159 25.9293  10
   3 -11   1 784.420 25.5532   2
  -3 -11  -1 791.690 26.2470  10
  -3  11  -1 804.399 23.4756   6
  -3  11  -1 804.904 23.5540   9
   3  11   1 774.150 23.3074   1
  -5 -11  -1 294.062 13.9776  10
  -5 -11  -1 317.595 14.4725   2
   5 -11   1 293.646 13.1636  10
  -5  11  -1 290.004 11.5373   9
   5  11   1 285.209 11.3578   1
  -5  11  -1 272.070 12.5367   8
  -5  11  -1 291.528 11.0625   6
   4 -12  -1 226.738 10.6226   2
  -4 -12   1 234.123 11.9948  10
  -4 -12   1 217.799 12.2533   2
  -4  12   1 215.466 10.8928   8
  -4  12   1 208.283 9.05338   6
  -2 -12   1 205.471 11.2889  10
  -2 -12   1 205.675 11.1320   2
   2 -12  -1 181.310 10.1732   2
   2  12  -1 193.811 8.03731   6
  -2  12   1 204.116 9.91437   8
  -2  12   1 189.850 8.25766   6
   0 -12   1 50.4111 5.14839  10
   0 -12  -1 56.3440 5.68883  10
   0 -12  -1 60.6623 6.52272   2
   0 -12   1 50.0587 5.70121   2
   0  12   1 58.0697 5.09961   8
   0  12  -1 53.7441 4.36312   6
   0  12   1 56.7828 4.09269   6
  -2 -12  -1 335.518 13.3788  11
  -2 -12  -1 376.710 15.7014   2
   2 -12   1 350.642 14.8668   2
  -2 -12  -1 346.105 14.4489  10
  -2  12  -1 345.341 12.5551   6
  -4 -12  -1 57.4999 7.18336   2
   4 -12   1 61.4098 6.40278   2
  -4 -12  -1 56.4329 6.57178  10
   4  12   1 65.8564 4.96505   1
  -4  12  -1 61.3898 4.98437   6
   3 -13  -1 768.325 25.7809   2
  -3 -13   1 789.165 27.0459   2
  -3 -13   1 744.913 23.9114  11
  -3  13   1 770.196 23.0580   6
  -3  13   1 791.753 25.7230   8
   1 -13  -1 225.786 11.9096   2
  -1 -13   1 227.684 12.0852   2
  -1 -13   1 227.349 11.9472  10
   1 -13  -1 232.935 10.6571  11
  -1  13   1 223.611 9.15335   6
   1  13  -1 215.374 9.17012   6
  -1 -13  -1 472.975 17.2596  11
   1 -13   1 486.208 18.1042  10
  -1 -13  -1 489.380 18.0134  10
  -1 -13  -1 457.755 18.6580   2
   1 -13   1 499.369 19.0018   2
  -1  13  -1 499.122 16.1591   6
   3 -13   1 77.9049 7.00581   2
  -3 -13  -1 68.1639 7.87974   2
  -3 -13  -1 72.5922 6.41621  10
  -3  13  -1 69.7186 4.95654   6
 -12   0   2 16.6912 4.11778   3
  12   0  -2 13.5320 2.88057   1
  12   0  -2 16.9861 3.48351  13
  10   0  -2 833.964 23.7929  12
 -10   0   2 878.875 29.3543  14
 -10   0   2 873.767 28.2501   3
  10   0  -2 834.142 25.8392  16
  10   0  -2 859.675 26.1341   1
  -8   0   2 435.004 16.0940  14
   8   0  -2 408.273 13.5653   1
   8   0  -2 402.113 12.2187  12
   8   0  -2 402.567 13.4516  16
  -8   0   2 390.077 14.4801   3
  -6   0   2 4467.82 112.215  14
  -6   0   2 4268.72 110.041  10
   6   0  -2 4620.43 110.125   1
  -6   0   2 4030.19 110.459   9
  -6   0   2 4501.79 111.072   3
   6   0  -2 4492.34 109.485   5
   6   0  -2 4525.76 109.192  12
   6   0  -2 4668.23 113.461  16
   4   0  -2 2670.05 68.3445  15
  -4   0   2 2759.76 69.0480   8
  -4   0   2 2651.54 67.9848  10
   4   0  -2 2805.66 65.8404   5
   4   0  -2 2756.85 65.9374  12
  -4   0   2 2637.85 66.1217   7
   4   0  -2 2791.09 68.4666  16
  -4   0   2 2545.22 67.2735  15
  -4   0   2 2571.02 65.3539   9
  -4   0   2 2628.57 67.7240  14
   2   0  -2 9866.42 239.859  12
   2   0  -2 9999.99 241.245   5
  -2   0   2 9511.21 241.235   4
  -2   0   2 9673.39 239.924   7
   0   0  -2 9.47149 0.89815  15
   0   0   2 9.87995 1.01699  15
   0   0   2 9.47766 0.54149  16
   0   0  -2 10.5895 0.79700  11
   0   0  -2 9.57532 0.86085   2
   0   0   2 11.0159 0.68011  13
   0   0   2 8.52027 0.72223   4
   2   0   2 4496.90 108.078  16
   2   0   2 4122.54 110.411  15
  -2   0  -2 3684.48 104.245   3
  -2   0  -2 4002.39 109.084   2
  -2   0  -2 4401.17 112.844  14
  -2   0  -2 4197.12 107.600  11
   2   0   2 4553.31 108.853  13
   2   0   2 4640.19 108.548   1
  -4   0  -2 83.3269 3.98845   2
   4   0   2 88.4996 3.68339  16
  -4   0  -2 85.0099 4.28713  14
  -4   0  -2 84.1714 3.02493  11
  -4   0  -2 86.2258 4.36787   3
   4   0   2 80.2984 2.66568  12
  -4   0  -2 92.7456 3.69790   9
   4   0   2 91.1013 3.70459   1
   4   0   2 91.8784 4.00402  13
  -6   0  -2 2363.52 62.2680   9
  -6   0  -2 2429.51 64.4280  14
   6   0   2 2476.95 62.7560  16
   6   0   2 2573.79 63.3985  13
  -6   0  -2 2491.43 65.1527   3
   6   0   2 2518.43 62.8123   1
   8   0   2 8.32871 2.29406  13
   8   0   2 7.46148 2.01481  16
  -8   0  -2 7.70792 2.31655  14
  -8   0  -2 6.31892 1.60972   9
   8   0   2 7.92141 1.80835   1
  -8   0  -2 7.69850 2.67957   3
 -10   0  -2 1475.14 43.7226   3
  10   0   2 1356.83 40.0157  13
  11  -1  -2 116.877 7.17253  13
  11  -1  -2 112.368 7.08124   1
 -11  -1   2 129.122 8.70274   3
  11   1  -2 125.205 7.64929   1
  11   1  -2 117.668 7.16255  13
 -11   1   2 122.886 8.71703   3
 -11   1   2 125.190 9.75406  14
  -9  -1   2 2.78482 1.68590  14
  -9  -1   2 9.35673 2.58186   3
   9  -1  -2 3.71561 1.41242  12
   9  -1  -2 1.38732 1.26127  16
   9  -1  -2 1.17741 1.26718   1
   9   1  -2 3.84920 1.94617   1
  -9   1   2 1.15404 1.94383   3
   9   1  -2 2.70354 1.74352  16
  -9   1   2 11.9786 3.20412  14
   9   1  -2 4.06222 1.46638  12
   7  -1  -2 254.346 9.15291  16
   7  -1  -2 260.297 8.31435  12
  -7  -1   2 268.772 9.72581  10
   7  -1  -2 252.774 9.15659   1
  -7  -1   2 263.922 10.1540   3
  -7  -1   2 281.582 11.0080  14
  -7   1   2 258.426 10.0771   3
  -7   1   2 242.344 7.73736   9
   7   1  -2 254.596 9.19936   1
  -7   1   2 271.115 11.4431  14
   7   1  -2 262.999 9.24327  16
   7   1  -2 250.880 8.26452  12
  -5  -1   2 112.904 3.51916   9
  -5  -1   2 129.133 5.18903  10
  -5  -1   2 124.664 4.68561   7
   5  -1  -2 123.774 4.19934   5
   5  -1  -2 125.428 4.27349  15
   5  -1  -2 123.639 4.28824  12
  -5  -1   2 117.863 3.78610   2
  -5  -1   2 126.351 5.74183  14
   5  -1  -2 118.563 4.74810  16
   5   1  -2 124.162 4.75053  16
   5   1  -2 135.980 4.46072  12
  -5   1   2 129.402 6.02976  14
  -5   1   2 122.511 4.78510   8
  -5   1   2 117.559 5.17902   3
  -5   1   2 121.960 3.99322   9
   5   1  -2 120.562 3.98338   5
   5   1  -2 121.227 4.76956   1
  -3  -1   2 263.126 7.25452   7
   3  -1  -2 273.877 7.65922  15
  -3  -1   2 238.644 6.93399  15
   3  -1  -2 259.170 6.91236  11
  -3  -1   2 250.633 7.47638  10
   3  -1  -2 257.902 7.14860   5
   3   1  -2 250.886 6.93758   5
  -3   1   2 239.931 8.11647  14
  -3   1   2 236.430 7.17290   8
  -3   1   2 241.063 6.91735   7
  -3   1   2 244.273 7.42258   3
   3   1  -2 255.663 7.16973  16
  -3   1   2 256.801 7.55269  15
   3   1  -2 250.671 6.95247  12
  -3   1   2 244.947 6.78716   9
  -1  -1   2 2141.91 55.2954   4
   1  -1  -2 2208.48 56.5829  11
  -1  -1   2 2160.02 54.9754   7
   1  -1  -2 2385.86 61.7757  15
  -1  -1   2 2086.78 57.9027  15
   1  -1  -2 2210.88 56.1064   5
   1   1  -2 2137.12 54.1540   5
  -1   1   2 2206.08 55.8943  13
   1   1  -2 2106.49 55.7957  11
   1   1  -2 2095.70 55.3391  12
  -1   1   2 2256.90 57.2205  15
  -1   1   2 2305.33 54.0143   4
   1  -1   2 192.968 6.08782  15
  -1  -1  -2 197.186 6.20151  10
  -1  -1  -2 205.908 6.19939  15
   1  -1   2 214.840 5.33370  16
   1  -1   2 203.889 5.80937   4
   1  -1   2 194.618 5.62152  13
  -1  -1  -2 200.941 6.24783   2
  -1  -1  -2 196.623 5.81899   3
  -1  -1  -2 198.694 5.75219  11
   1   1   2 198.627 5.64991   1
  -1   1  -2 212.821 6.04886   3
  -1   1  -2 202.105 5.40942   6
   1   1   2 197.297 5.67853   4
   1   1   2 196.715 5.74567  13
   1   1   2 206.343 6.24539  15
  -1   1  -2 200.077 5.70185  11
   1   1   2 193.474 5.63389  16
  -1   1  -2 194.508 5.34075   5
  -1   1  -2 205.542 6.45887  14
  -3  -1  -2 149.721 5.77466  10
  -3  -1  -2 141.479 4.57325  15
   3  -1   2 137.322 4.81954  15
   3  -1   2 141.405 4.59990   1
  -3  -1  -2 148.273 5.41233   2
   3  -1   2 143.604 4.91742  13
   3  -1   2 140.765 4.59029  16
  -3  -1  -2 144.938 4.37414  11
  -3  -1  -2 142.145 5.06215  14
  -3  -1  -2 136.651 5.24492   3
   3   1   2 140.882 3.97647  12
   3   1   2 139.480 4.81641  16
   3   1   2 142.104 4.83915   1
  -3   1  -2 140.002 4.41555  11
   3   1   2 140.477 4.92999  13
   3   1   2 146.832 4.83516  15
  -3   1  -2 134.139 5.51531  14
  -3   1  -2 133.837 4.24522   6
  -3   1  -2 130.116 4.68631   9
  -3   1  -2 133.585 5.37224   3
  -5  -1  -2 412.911 13.1459  14
  -5  -1  -2 415.093 13.6341   3
  -5  -1  -2 403.790 12.0886   9
   5  -1   2 419.395 12.3426   1
   5  -1   2 424.320 12.8437  13
   5  -1   2 431.112 12.4172  16
  -5  -1  -2 415.187 13.0143   2
   5   1   2 413.759 12.5058   1
  -5   1  -2 423.498 14.0377  14
   5   1   2 430.086 12.5869  16
   5   1   2 436.005 12.8271  13
  -5   1  -2 416.219 13.9381   3
  -5   1  -2 403.566 12.2368   9
   7  -1   2 2.62089 1.13108  16
  -7  -1  -2 4.85850 2.00298   3
   7  -1   2 2.08458 1.25548  13
  -7  -1  -2 2.60993 0.89666   9
   7  -1   2 1.85920 1.38723   1
  -7   1  -2 3.69853 1.64005   3
   7   1   2 1.75873 1.07034  16
  -7   1  -2 2.63546 1.72323  14
   7   1   2 4.93795 1.69719   1
   7   1   2 4.99370 1.76689  13
  -7   1  -2 3.80386 1.38571   9
   9  -1   2 169.969 7.86561  16
  -9  -1  -2 197.364 10.4299   3
   9  -1   2 177.055 8.10281   1
   9  -1   2 167.477 8.32230  13
  -9   1  -2 166.405 10.0131   3
   9   1   2 177.096 8.27621  13
   9   1   2 163.729 7.85361  16
  -9   1  -2 158.645 7.07904   9
   9   1   2 158.857 7.86398   1
  12  -2  -2 735.451 25.0964  13
 -12  -2   2 854.882 28.8561   3
  12  -2  -2 775.337 25.6920   1
  12   2  -2 755.029 24.9204  13
 -12   2   2 847.806 28.9371   3
  12   2  -2 819.897 26.0964   1
 -10  -2   2 116.700 7.88915   3
  10  -2  -2 100.657 6.07900  16
  10  -2  -2 102.989 6.49429   1
 -10   2   2 113.468 7.61144   3
  10   2  -2 99.4520 6.32754  16
  10   2  -2 103.563 6.60264   1
  10   2  -2 109.762 6.34290  13
  10   2  -2 104.000 5.20840  12
 -10   2   2 115.706 8.74698  14
  -8  -2   2 1343.58 36.9769  10
   8  -2  -2 1334.54 34.5277  12
  -8  -2   2 1361.26 38.1038  14
  -8  -2   2 1343.85 37.5473   3
   8  -2  -2 1310.34 35.8835   1
   8  -2  -2 1311.06 35.8668  16
  -8   2   2 1334.74 37.8619   3
   8   2  -2 1296.29 35.9816   1
  -8   2   2 1243.45 34.0525   9
  -8   2   2 1369.96 40.0100  14
   8   2  -2 1303.99 35.9755  16
   8   2  -2 1306.62 34.5238  12
   6  -2  -2 21.3871 1.70872   5
   6  -2  -2 18.3735 1.77935  12
   6  -2  -2 20.9845 1.90347  15
  -6  -2   2 19.7510 1.49199   2
   6  -2  -2 22.4414 2.23205  16
  -6  -2   2 16.0904 1.86340   7
  -6  -2   2 22.5169 2.62275  10
  -6  -2   2 21.7637 2.64912  14
   6   2  -2 22.3064 2.35660   1
  -6   2   2 19.0022 3.02123  14
   6   2  -2 18.4721 2.17622  16
  -6   2   2 25.2239 2.40866   8
  -6   2   2 23.4233 2.60036   3
   6   2  -2 22.1325 1.90277  12
  -6   2   2 17.3161 1.39215   9
   6   2  -2 18.4708 1.29580   5
  -4  -2   2 2560.20 70.2427  15
  -4  -2   2 2757.27 67.4516   7
   4  -2  -2 2939.02 74.4014  15
  -4  -2   2 2642.85 69.2132   2
   4  -2  -2 2722.32 68.6867  11
  -4  -2   2 2706.76 68.2546  10
   4   2  -2 2684.16 68.9214   5
  -4   2   2 2713.99 67.7879   8
   4   2  -2 2767.04 67.1043  12
  -4   2   2 2758.80 67.2619   6
  -4   2   2 2758.03 68.3523   9
  -4   2   2 2757.27 68.2889   3
   4   2  -2 2785.24 67.4992   1
  -4   2   2 2652.26 69.2790  14
   4   2  -2 2683.27 69.5296  16
   2  -2  -2 368.527 9.45200  11
   2  -2  -2 363.182 10.1530  15
   2  -2  -2 347.958 9.24961   2
  -2  -2   2 344.773 9.28155   7
  -2  -2   2 344.717 9.76738  10
  -2  -2   2 337.099 9.06369   4
  -2   2   2 333.578 9.34961   3
  -2   2   2 328.300 9.97746  14
   2   2  -2 336.219 9.16343   5
   2   2  -2 345.072 9.02343   1
  -2   2   2 335.939 9.09018   6
   2   2  -2 347.083 9.05829  12
  -2   2   2 337.257 10.0768  15
  -2   2   2 330.375 9.09028   4
  -2   2   2 326.774 9.49020   8
   2   2  -2 347.040 9.03370  16
   0  -2  -2 7221.46 194.600  11
   0  -2  -2 7311.53 198.453  15
   0  -2  -2 6838.73 193.749  10
   0  -2   2 7837.79 193.977   7
   0  -2   2 7873.68 192.862   4
   0  -2  -2 7075.35 196.674   2
   0   2   2 8300.02 193.309  13
   0   2   2 8037.47 191.735   4
   0   2  -2 7937.47 192.732   5
   0   2   2 8148.23 193.304  16
   0   2  -2 8141.96 193.251   8
   0   2  -2 7891.15 191.044  12
   0   2  -2 8431.28 193.594   9
   0   2   2 8305.99 193.665   1
   0   2   2 7187.35 197.992  15
  -2  -2  -2 2791.30 75.6742   2
   2  -2   2 3169.21 76.0304  16
   2  -2   2 3206.27 77.4552   1
  -2  -2  -2 2950.80 82.6362  15
  -2  -2  -2 2937.56 77.2191  11
  -2  -2  -2 2813.22 75.7661  10
   2  -2   2 3183.56 76.2214  13
  -2   2  -2 3199.33 79.3265  14
   2   2   2 2816.40 77.9808  15
   2   2   2 3088.94 76.2657  12
   2   2   2 3094.34 77.8889   1
  -2   2  -2 3092.60 75.5034   6
  -2   2  -2 3203.68 78.2117   9
  -2   2  -2 3172.68 75.1476   8
  -2   2  -2 2927.06 77.8337   3
   2   2   2 3169.82 78.2185  16
   2   2   2 2978.58 76.3151  13
   4  -2   2 3360.18 79.8713   1
  -4  -2  -2 3216.49 80.2335  14
   4  -2   2 3355.60 79.8645  16
  -4  -2  -2 3119.18 81.0823   2
  -4  -2  -2 3154.04 79.2665  11
   4  -2   2 3516.45 80.5400  13
  -4  -2  -2 3055.67 81.8538  10
  -4  -2  -2 3147.18 83.2766  15
  -4  -2  -2 3186.40 81.2313   3
   4   2   2 3243.82 80.3280  13
   4   2   2 3327.37 80.3631  16
  -4   2  -2 3101.00 79.4806   6
   4   2   2 3308.12 80.3547   1
   4   2   2 3239.29 79.0635  12
  -4   2  -2 3232.96 82.1260  14
  -4   2  -2 3179.01 80.1393   9
  -4   2  -2 3239.20 81.8704   3
  -6  -2  -2 801.850 23.0192   2
   6  -2   2 822.752 22.5899  13
  -6  -2  -2 799.806 23.7470   3
   6  -2   2 797.179 21.8766   1
   6  -2   2 799.479 21.8643  16
  -6  -2  -2 748.823 21.3630   9
  -6   2  -2 781.088 24.2855   3
  -6   2  -2 778.343 21.8756   9
   6   2   2 781.000 22.1982  16
   6   2   2 782.739 22.2016   1
  -6   2  -2 796.221 24.5720  14
   6   2   2 775.398 22.2859  13
   8  -2   2 409.493 13.8461  16
  -8  -2  -2 483.340 17.2205   3
   8  -2   2 416.340 14.6980  13
   8  -2   2 432.741 14.0246   1
  -8   2  -2 419.863 16.9730  14
   8   2   2 404.154 14.0460  16
  -8   2  -2 435.736 16.9873   3
  -8   2  -2 428.824 13.7923   9
   8   2   2 433.810 14.5389  13
   8   2   2 424.108 14.3878   1
 -10  -2  -2 109.361 7.86646   3
  10  -2   2 108.789 6.68135  13
  10   2   2 108.470 6.91840  13
  10   2   2 98.8127 6.56223   1
 -10   2  -2 108.578 8.50582   3
 -11  -3   2 69.7173 6.67135   3
  11  -3  -2 68.2418 5.79484   1
 -11   3   2 66.1556 6.35179   3
 -11   3   2 73.8080 8.09893  14
  11   3  -2 65.9389 5.90142   1
  11   3  -2 63.8363 5.30378  13
   9  -3  -2 19.1505 3.03944  16
   9  -3  -2 14.2440 2.79077   1
  -9  -3   2 17.2420 3.20450   3
   9  -3  -2 16.5861 2.25906  12
  -9  -3   2 17.1154 2.98943  10
  -9   3   2 26.0877 3.90371   3
  -9   3   2 15.8053 1.93541   9
   9   3  -2 17.9070 2.37390  12
   9   3  -2 17.7891 2.93080  16
   9   3  -2 16.3464 2.38740  13
  -9   3   2 18.3248 4.22354  14
   9   3  -2 13.0740 2.75311   1
  -7  -3   2 137.488 6.81680  14
   7  -3  -2 134.712 5.08652   5
   7  -3  -2 133.786 5.89206  16
  -7  -3   2 131.703 6.78815  10
   7  -3  -2 121.793 5.13387  12
   7   3  -2 123.564 5.78581   1
  -7   3   2 122.693 5.00426   9
   7   3  -2 131.351 5.86798  16
  -7   3   2 133.967 8.09877  14
  -7   3   2 133.233 6.83255   3
  -7   3   2 132.480 6.18548   8
   7   3  -2 128.241 5.19566  12
   5  -3  -2 93.0947 4.24006  15
  -5  -3   2 92.2392 4.76602  10
  -5  -3   2 96.3692 4.13920   7
  -5  -3   2 92.0143 3.92239   2
  -5   3   2 89.8368 4.25827   8
  -5   3   2 90.8706 3.63893   9
   5   3  -2 89.9544 3.29995   5
   5   3  -2 88.5635 4.05187   1
  -5   3   2 85.0399 4.42716   3
  -5   3   2 84.0838 3.72496   6
   5   3  -2 88.6855 3.64613  12
  -5   3   2 86.1103 5.36223  14
   5   3  -2 95.0861 4.07422  16
  -3  -3   2 49.8724 2.39116   7
   3  -3  -2 50.8996 2.82989  15
  -3  -3   2 46.8428 2.39048   2
  -3  -3   2 49.5256 2.97108  10
   3   3  -2 48.7056 2.16150  16
  -3   3   2 47.0382 2.56866   8
  -3   3   2 46.6470 2.19572   9
  -3   3   2 45.4571 3.02337  14
  -3   3   2 47.3852 2.56415   3
   3   3  -2 48.4574 2.15036  12
   3   3  -2 46.2615 2.17195   1
  -3   3   2 48.9937 2.22989   6
  -1  -3   2 1304.44 32.9218   4
  -1  -3   2 1274.30 34.1780  10
   1  -3  -2 1392.58 33.2878  10
   1  -3  -2 1324.57 33.5812  11
   1  -3  -2 1381.06 33.9517   2
  -1  -3   2 1305.82 33.3123   7
   1  -3  -2 1350.34 34.4634  15
   1   3  -2 1316.86 33.2521   5
  -1   3   2 1370.15 33.3170   1
  -1   3   2 1271.87 33.5162  14
  -1   3   2 1323.24 33.1250  13
   1   3  -2 1348.98 32.9520  12
  -1   3   2 1288.53 32.7723   4
   1   3  -2 1356.77 33.7824  16
   1   3  -2 1343.95 32.8962   9
  -1   3   2 1367.47 32.9753   6
   1  -3   2 264.092 7.00592  13
  -1  -3  -2 274.603 8.75854   2
   1  -3   2 257.983 7.37158   4
  -1  -3  -2 262.945 7.90738  11
  -1  -3  -2 265.635 8.24348  10
  -1  -3  -2 260.481 8.46001  15
  -1   3  -2 259.386 8.60538  14
   1   3   2 250.064 6.83554   6
  -1   3  -2 258.268 8.12115   3
   1   3   2 258.791 6.97375   4
  -1   3  -2 261.050 7.50483   9
  -1   3  -2 251.721 7.39589   8
  -1   3  -2 255.877 7.31212   6
   1   3   2 256.795 7.50895  16
   1   3   2 251.019 7.48414   1
   1   3   2 261.714 7.36987  13
  -3  -3  -2 4.58777 1.50992   2
  -3  -3  -2 9.34994 1.69663  10
   3  -3   2 5.59425 0.81952  16
  -3  -3  -2 7.91721 1.15173  11
   3  -3   2 5.18519 0.99056  13
   3  -3   2 4.48766 0.74155   1
   3   3   2 3.62011 0.99973  16
  -3   3  -2 4.78267 0.92024   9
   3   3   2 4.99302 0.73974  12
   3   3   2 2.72444 0.77877   1
   3   3   2 4.68790 0.89441  13
  -3   3  -2 5.05443 1.30481  14
  -3   3  -2 3.83548 0.92233   8
  -3   3  -2 10.7133 1.66698   3
  -3   3  -2 3.92482 0.81505   6
   5  -3   2 7.22200 1.25344  16
   5  -3   2 3.36413 1.21028  13
  -5  -3  -2 6.44455 1.74922   2
   5  -3   2 4.14463 1.06148   1
  -5  -3  -2 6.30077 1.68506   3
  -5   3  -2 4.75592 1.73438   3
  -5   3  -2 5.82778 1.16871   6
   5   3   2 4.88988 1.44002   1
  -5   3  -2 6.57768 1.83649  14
   5   3   2 5.87272 1.27162  16
   5   3   2 7.32548 1.55206  13
   5   3   2 6.27832 0.95835  12
  -5   3  -2 5.50399 1.19922   9
  -7  -3  -2 135.868 7.36154   3
   7  -3   2 133.848 5.96287  16
   7  -3   2 134.741 6.43523  13
   7  -3   2 134.576 6.01314   1
  -7  -3  -2 138.646 6.93146   2
   7   3   2 123.983 6.10261  16
   7   3   2 132.783 6.31629   1
  -7   3  -2 136.025 8.00883   3
  -7   3  -2 126.695 7.97898  14
  -7   3  -2 133.185 5.98919   9
   7   3   2 131.071 6.24701  13
   9  -3   2 0.23522 1.26974  13
  -9  -3  -2 1.89009 1.67710   3
  -9   3  -2 0.94441 1.51796   3
   9   3   2 0.55939 1.73069   1
   9   3   2 0.07834 1.87043  13
  -9   3  -2 0.80351 2.24792  14
  -9   3  -2 0.58818 1.46299   9
   9   3   2 1.55411 1.21758  16
 -10  -4   2 15.6709 3.24433   3
 -10  -4   2 23.9207 3.63905  10
  10  -4  -2 13.9030 2.81674  16
  10  -4  -2 19.0801 2.89010   1
 -10   4   2 16.1100 3.62128   3
 -10   4   2 13.1840 4.01215  14
  10   4  -2 14.2015 2.81255   1
  10   4  -2 16.7269 2.60958  13
  10   4  -2 11.2428 1.97604  12
  10   4  -2 14.8222 3.00484  16
   8  -4  -2 2256.20 59.0847  16
  -8  -4   2 2248.60 60.9081  10
   8  -4  -2 2388.86 57.8347  12
   8   4  -2 2192.62 58.2910  13
   8   4  -2 2255.48 59.1209  16
  -8   4   2 2263.58 60.0559   8
  -8   4   2 2342.44 61.4435   3
   8   4  -2 2281.15 59.2325   1
  -8   4   2 2261.11 57.8388   9
  -8   4   2 2302.09 64.2703  14
   8   4  -2 2203.20 57.6914  12
   6  -4  -2 308.805 10.4153  15
  -6  -4   2 328.895 11.6874  10
  -6  -4   2 311.199 10.0599   2
  -6  -4   2 314.647 10.1620   7
  -6  -4   2 341.443 11.2785  14
   6   4  -2 306.215 9.63605  13
   6   4  -2 311.994 9.59779  12
  -6   4   2 321.851 9.90098   6
  -6   4   2 306.146 9.68010   9
  -6   4   2 307.360 12.8042  14
   6   4  -2 314.804 10.2567   1
   6   4  -2 291.065 8.99086   5
   6   4  -2 313.828 10.2668  16
  -6   4   2 310.812 11.4118   3
  -6   4   2 309.755 10.9461   8
  -4  -4   2 5985.66 164.457   2
  -4  -4   2 6237.13 161.646  10
   4  -4  -2 6940.30 173.698  15
  -4  -4   2 6177.59 162.527   7
   4   4  -2 6641.05 163.398  16
  -4   4   2 6219.86 164.490  14
  -4   4   2 6489.80 165.673   8
   4   4  -2 6163.78 161.491   5
  -4   4   2 6676.23 164.390   9
  -4   4   2 6450.02 166.391   3
   4   4  -2 6336.30 161.054  13
   4   4  -2 6510.42 163.910   1
   4   4  -2 6765.84 160.530  12
  -4   4   2 6429.27 163.986   6
  -2  -4   2 467.253 12.5602   7
   2  -4  -2 478.455 13.1509   2
   2  -4  -2 475.562 13.8232  15
  -2  -4   2 452.860 13.6086  10
   2  -4  -2 489.722 12.6619  10
  -2  -4   2 448.625 11.8992   4
  -2   4   2 451.321 13.4819  14
   2   4  -2 458.311 12.1967  16
  -2   4   2 463.909 12.3467   6
  -2   4   2 458.843 13.1687   8
   2   4  -2 466.892 12.2936  12
   2   4  -2 455.434 12.1823   1
   2   4  -2 448.167 11.8566   9
  -2   4   2 453.736 12.9180   3
   2   4  -2 445.515 12.4741   5
   0  -4   2 4906.64 118.909   4
   0  -4  -2 4634.13 127.311  15
   0  -4  -2 4651.25 124.463   2
   0  -4  -2 4617.16 121.649  10
   0  -4   2 5034.49 121.041   7
   0  -4  -2 4590.86 123.063  11
   0   4   2 4841.31 118.450   6
   0   4   2 4931.79 121.662  13
   0   4  -2 4765.12 122.666   8
   0   4  -2 4803.49 122.275   6
   0   4  -2 4791.82 122.599   9
   0   4   2 4916.88 122.624   1
   0   4  -2 4810.04 118.418  12
   0   4   2 5029.81 123.426  16
  -2  -4  -2 14.3321 2.21072   2
  -2  -4  -2 13.7258 2.04425  15
  -2  -4  -2 15.2390 1.84350  11
  -2  -4  -2 15.1918 2.30573  10
   2  -4   2 15.4095 1.15764  13
   2   4   2 13.1860 1.31165   1
   2   4   2 14.7987 1.06456  12
   2   4   2 15.6488 1.37413  13
   2   4   2 14.4737 0.85956   6
  -2   4  -2 13.3611 2.05544  14
  -2   4  -2 13.9092 1.64310   3
  -2   4  -2 13.9737 1.29238   6
   2   4   2 13.4055 0.99586   4
  -2   4  -2 15.9969 1.40151   8
   2   4   2 12.9693 1.31930  16
  -4  -4  -2 1688.64 44.8741   2
  -4  -4  -2 1606.66 42.6254  11
   4  -4   2 1689.05 42.5243  16
  -4  -4  -2 1619.14 43.0468  15
   4  -4   2 1752.13 43.1984  13
  -4  -4  -2 1726.23 45.5008  10
   4   4   2 1705.07 42.2919  12
  -4   4  -2 1713.88 42.8865   6
   4   4   2 1712.98 43.2257  13
   4   4   2 1678.14 43.4741   1
   4   4   2 1713.86 43.5259  16
  -4   4  -2 1715.63 46.0538  14
  -4   4  -2 1648.96 43.2734   9
  -4   4  -2 1684.17 45.2477   3
  -4   4  -2 1714.16 43.9653   8
   6  -4   2 42.1167 3.56939   1
  -6  -4  -2 48.7871 4.14360   2
   6  -4   2 58.2607 3.74559  16
  -6  -4  -2 56.3872 5.18763  10
   6  -4   2 67.3635 3.98537  13
  -6  -4  -2 55.1475 4.23589   3
   6   4   2 51.0783 3.42210  13
   6   4   2 44.5413 2.78092  12
  -6   4  -2 53.3941 4.58641   3
  -6   4  -2 53.5230 3.21606   6
  -6   4  -2 46.9898 3.27822   9
   6   4   2 50.9989 3.50622  16
   6   4   2 47.0620 3.45566   1
  -6   4  -2 53.5676 5.17280  14
  -8  -4  -2 946.582 28.1150   2
   8  -4   2 961.529 27.8095  13
  -8  -4  -2 968.132 29.6019   3
   8   4   2 934.925 27.6053   1
  -8   4  -2 925.115 30.5920   3
  -8   4  -2 972.317 31.9602  14
  -8   4  -2 945.313 26.9330   9
   8   4   2 943.245 27.4465  13
   8   4   2 925.072 27.4721  16
  10  -4   2 142.388 8.01526  13
  10   4   2 140.537 7.86819  13
 -10   4  -2 155.122 11.0221  14
 -10   4  -2 139.834 7.06383   9
 -10   4  -2 141.379 9.94192   3
  11  -5  -2 66.1630 5.56096   1
 -11  -5   2 66.2767 6.67853   3
 -11   5   2 70.7053 6.56744   3
  11   5  -2 65.4169 5.92805   1
 -11   5   2 66.0292 7.73293  14
  11   5  -2 65.8542 5.15461  13
   9  -5  -2 484.767 16.2818   1
  -9  -5   2 499.087 18.1687  10
   9  -5  -2 480.519 16.1540  16
   9   5  -2 485.577 14.9691  12
   9   5  -2 486.930 16.4859   1
  -9   5   2 481.818 18.2207   3
   9   5  -2 460.330 15.2920  13
   9   5  -2 469.967 16.2669  16
  -9   5   2 485.047 20.8362  14
  -9   5   2 499.771 15.1967   9
  -9   5   2 484.416 17.5290   8
   7  -5  -2 265.925 8.83393   5
  -7  -5   2 270.455 9.35063   7
  -7  -5   2 263.073 11.1833  10
  -7   5   2 275.730 11.0094   3
   7   5  -2 258.467 8.78986  12
   7   5  -2 247.380 8.69227  13
   7   5  -2 249.435 9.56876   1
  -7   5   2 259.950 8.96867   9
   7   5  -2 258.830 9.61630  16
  -7   5   2 273.361 9.23584   6
  -7   5   2 250.102 12.3696  14
  -7   5   2 245.407 10.2597   8
  -5  -5   2 501.925 15.9770  10
   5  -5  -2 486.965 15.0660  15
  -5  -5   2 459.175 14.5402   2
  -5  -5   2 494.384 14.0231   7
   5   5  -2 487.643 14.1079   1
   5   5  -2 473.296 14.0325  16
   5   5  -2 481.831 13.6295  12
  -5   5   2 486.373 13.9075   6
  -5   5   2 479.885 16.8466  14
  -5   5   2 481.541 14.9779   8
  -5   5   2 467.361 15.2731   3
  -5   5   2 487.803 13.9531   9
   5   5  -2 452.345 13.1035  13
  -3  -5   2 1215.37 31.2801   7
  -3  -5   2 1190.34 32.7188  10
  -3  -5   2 1136.44 32.0827   2
   3  -5  -2 1263.71 31.5885  10
   3  -5  -2 1277.85 32.9918  15
   3   5  -2 1226.51 31.1463  16
   3   5  -2 1202.71 31.1742   5
  -3   5   2 1233.33 31.1994   6
   3   5  -2 1187.30 31.0048  12
  -3   5   2 1246.10 31.4944   9
  -3   5   2 1216.57 32.2830   3
   3   5  -2 1254.02 31.1762   1
  -3   5   2 1176.17 33.1204  14
  -3   5   2 1248.46 32.3450   8
  -1  -5   2 54.8705 2.61644   7
   1  -5  -2 54.4156 3.43762  15
  -1  -5   2 51.1106 1.98329   4
  -1  -5   2 55.4855 3.40295  10
   1  -5  -2 57.6325 3.35397   2
   1  -5  -2 55.7340 2.89461  10
  -1   5   2 53.1791 2.33034  13
  -1   5   2 52.5345 2.26570   6
   1   5  -2 51.7101 2.11890  16
  -1   5   2 51.9060 2.57130   1
   1   5  -2 49.4551 2.28084   8
  -1   5   2 59.5427 2.78355  14
   1   5  -2 51.7210 2.28339   9
  -1   5   2 51.0833 2.99511   8
   1   5  -2 51.5776 2.07925   1
   1   5  -2 53.8515 2.27401  12
  -1  -5  -2 758.648 21.0021  10
  -1  -5  -2 757.520 21.4218  15
  -1  -5  -2 740.693 21.4299   2
   1  -5   2 761.533 20.0064   7
   1  -5   2 742.768 19.3850   4
   1  -5   2 728.743 18.7117  13
  -1  -5  -2 761.346 20.4879  11
  -1   5  -2 748.471 19.7970   6
   1   5   2 744.405 19.9287   1
   1   5   2 751.266 19.4943  13
  -1   5  -2 750.022 19.8488   9
   1   5   2 747.083 19.1253   6
   1   5   2 756.260 20.0039  16
  -1   5  -2 739.069 19.8962   8
  -3  -5  -2 202.822 8.28349   2
  -3  -5  -2 198.194 8.06810  10
   3  -5   2 185.931 6.03288  13
  -3  -5  -2 185.453 7.53658  15
  -3  -5  -2 182.878 6.77673  11
   3   5   2 182.722 6.26717  13
   3   5   2 168.794 5.52295   4
  -3   5  -2 186.425 7.75288   3
   3   5   2 183.065 6.66261   1
  -3   5  -2 180.000 6.82621   8
  -3   5  -2 186.663 8.34142  14
  -3   5  -2 181.227 6.51004   9
   3   5   2 180.320 6.57992  16
   3   5   2 188.504 5.94437  12
  -3   5  -2 198.942 6.45404   6
  -5  -5  -2 19.0385 3.11074   2
  -5  -5  -2 22.6943 3.32360  10
   5  -5   2 15.4266 2.04621  13
   5   5   2 19.7578 2.15431  13
   5   5   2 16.8586 1.72532  12
  -5   5  -2 19.1831 2.15812   6
   5   5   2 21.3234 2.40731  16
  -5   5  -2 20.1954 3.18572   3
  -5   5  -2 19.2504 2.53412   8
   5   5   2 19.0727 2.44920   1
  -5   5  -2 20.8989 3.53808  14
  -5   5  -2 19.3980 2.36051   9
  -7  -5  -2 174.911 8.48284   2
  -7  -5  -2 192.533 9.09751   3
   7  -5   2 169.260 7.40393  13
  -7  -5  -2 178.877 9.99207  10
   7   5   2 167.955 7.78463   1
  -7   5  -2 168.116 6.85983   6
  -7   5  -2 158.044 9.17658   3
   7   5   2 163.467 7.65333  16
  -7   5  -2 160.961 10.0134  14
   7   5   2 175.533 7.55731  13
  -7   5  -2 160.739 7.33426   9
   9  -5   2 2.03487 1.83057  13
   9   5   2 4.12540 2.24029   1
  -9   5  -2 1.18189 2.02135  14
  -9   5  -2 -0.6547 1.50239   9
   9   5   2 0.73383 1.90508  13
  -9   5  -2 0.08536 2.23099   3
  10  -6  -2 873.665 27.0035   1
 -10  -6   2 904.952 29.2447   3
 -10  -6   2 882.540 29.2456  10
  10   6  -2 881.470 25.3410  12
 -10   6   2 888.598 33.2011  14
  10   6  -2 914.486 27.5091   1
 -10   6   2 892.352 25.7067   9
 -10   6   2 927.176 30.1147   3
   8  -6  -2 8.31221 2.07323  16
  -8  -6   2 7.96118 2.60349  10
  -8   6   2 8.98672 2.70652   8
  -8   6   2 9.29422 2.70909   3
   8   6  -2 8.58902 2.28599   1
  -8   6   2 7.62457 3.22753  14
   8   6  -2 7.69674 1.60200  12
   8   6  -2 9.15357 2.02579  16
  -8   6   2 10.9072 2.13866   9
  -8   6   2 5.51183 1.59272   6
  -6  -6   2 1533.71 40.0365   7
   6  -6  -2 1546.97 41.5164  15
  -6  -6   2 1475.21 40.8710   2
  -6  -6   2 1528.76 42.6759  10
  -6   6   2 1480.75 44.4124  14
  -6   6   2 1525.76 41.7061   8
  -6   6   2 1543.62 39.8850   6
   6   6  -2 1514.28 39.5579  12
   6   6  -2 1522.88 40.2801  16
  -6   6   2 1560.28 40.0905   9
   6   6  -2 1552.65 40.3809   1
  -6   6   2 1565.25 42.4013   3
  -4  -6   2 9.10279 2.11662  10
  -4  -6   2 8.20198 1.57825   7
  -4  -6   2 9.18529 2.01291   2
   4  -6  -2 16.7207 2.53301  15
  -4   6   2 9.57149 1.60308   9
  -4   6   2 6.92304 1.89964  14
  -4   6   2 12.5708 1.97835   8
   4   6  -2 7.67990 1.36386  16
   4   6  -2 6.00013 1.22929  12
   4   6  -2 6.89204 1.31565   1
  -4   6   2 8.23850 1.41617   6
  -4   6   2 6.86039 1.68202   3
   2  -6  -2 3545.25 85.8005  15
   2  -6  -2 3466.04 84.0673  10
  -2  -6   2 3339.42 83.4753   7
   2  -6  -2 3595.16 84.8634   2
  -2  -6   2 3326.47 85.4534  10
   2   6  -2 3356.55 83.0920   1
   2   6  -2 3368.42 83.1215  16
   2   6  -2 3394.05 83.2419  12
  -2   6   2 3450.66 83.3617   6
  -2   6   2 3240.56 84.7286  14
  -2   6   2 3428.19 84.7482   8
   2   6  -2 3028.95 83.1894   8
   0  -6  -2 310.357 10.5648   2
   0  -6  -2 305.275 9.86602  10
   0  -6   2 303.537 10.6752  10
   0  -6   2 281.159 8.05961   4
   0  -6   2 296.991 8.98680   7
   0  -6  -2 298.628 10.5873  15
   0   6  -2 277.124 8.82186   8
   0   6   2 296.634 8.54632  13
   0   6  -2 301.613 8.83957   9
   0   6   2 273.796 8.89786   1
   0   6   2 291.455 8.47513   6
   0   6  -2 305.778 9.07875   6
   2  -6   2 4237.84 102.232   7
  -2  -6  -2 3951.74 103.729  15
  -2  -6  -2 3887.64 102.534  11
  -2  -6  -2 4072.75 103.864  10
  -2  -6  -2 3977.12 104.252   2
  -2   6  -2 4269.43 102.053   6
  -2   6  -2 4305.28 102.202   9
   2   6   2 4166.89 102.225   1
  -2   6  -2 4048.62 102.407   8
  -2   6  -2 4230.59 104.012   3
   2   6   2 4148.22 101.505  13
   2   6   2 4266.35 102.335  16
  -4  -6  -2 255.506 10.3313   2
  -4  -6  -2 229.147 8.28636  11
  -4  -6  -2 246.499 10.2242  10
   4  -6   2 228.742 7.67354  13
  -4   6  -2 234.579 8.85076   8
  -4   6  -2 244.176 8.18843   6
   4   6   2 231.032 7.92318  13
   4   6   2 232.266 8.52405   1
   4   6   2 225.018 7.48663  12
   4   6   2 229.984 8.50405  16
  -4   6  -2 236.475 8.38356   9
  -4   6  -2 241.575 10.0078   3
  -4   6  -2 235.833 10.9114  14
  -6  -6  -2 1698.87 47.0508  10
  -6  -6  -2 1577.80 45.2449   2
   6  -6   2 1646.90 43.2375  13
   6   6   2 1649.66 43.9968  16
   6   6   2 1618.52 43.1873  13
  -6   6  -2 1634.65 43.5685   9
   6   6   2 1619.80 43.9369   1
  -6   6  -2 1719.30 43.1901   6
  -6   6  -2 1641.69 48.4445  14
  -6   6  -2 1649.46 46.8656   3
  -8  -6  -2 22.2444 4.10216  10
   8  -6   2 26.2065 3.10140  13
  -8  -6  -2 28.2030 3.94801   2
  -8   6  -2 29.6905 4.86919   3
  -8   6  -2 22.3547 2.60264   6
  -8   6  -2 26.2528 3.14353   9
   8   6   2 30.6991 3.53646  13
   8   6   2 25.2539 3.71654  16
   8   6   2 26.1593 3.56129   1
  -8   6  -2 21.2627 4.47303  14
   9  -7  -2 21.0858 3.13952  16
  -9  -7   2 25.8449 4.51200  10
   9   7  -2 22.5728 3.29836  16
  -9   7   2 27.2238 3.37483   9
   9   7  -2 22.3655 3.18682   1
  -9   7   2 23.9837 4.18595   3
  -9   7   2 32.7536 6.15000  14
   9   7  -2 21.0138 2.87827  12
  -9   7   2 20.6304 4.08437   8
  -7  -7   2 6.21554 1.80690   7
  -7  -7   2 5.51499 2.22120   2
  -7  -7   2 6.95407 3.07877  10
   7   7  -2 5.12666 1.69598  12
  -7   7   2 6.17409 2.84637  14
  -7   7   2 6.48069 2.42601   8
  -7   7   2 8.50854 2.03143   6
  -7   7   2 8.36700 2.01192   9
   7   7  -2 8.30071 1.82159   1
  -7   7   2 5.57857 1.90400   3
   7   7  -2 7.32022 1.90383  16
  -5  -7   2 0.60337 1.65697  10
  -5  -7   2 -0.5630 1.73719   2
   5  -7  -2 5.61938 1.92685  15
  -5  -7   2 1.01342 1.23441   7
  -5   7   2 4.80355 2.08436  14
  -5   7   2 0.38072 1.08111   8
  -5   7   2 1.43243 1.27192   6
  -5   7   2 0.40923 0.89796   9
   5   7  -2 0.79828 1.06261  16
   5   7  -2 1.23450 1.06193  12
   5   7  -2 1.12618 0.85552   1
  -5   7   2 0.84374 1.35407   3
  -3  -7   2 93.4360 5.00269   2
  -3  -7   2 86.2804 3.87378   7
   3  -7  -2 79.9502 4.99024  15
  -3  -7   2 75.5471 5.29222  10
   3  -7  -2 75.7974 4.32951   2
   3  -7  -2 75.2580 3.91849  10
  -3   7   2 72.1391 3.71076   6
   3   7  -2 75.1183 3.55741   1
  -3   7   2 67.5427 4.62636  14
   3   7  -2 77.1239 3.52314  16
  -3   7   2 76.1227 4.60812   8
   3   7  -2 82.3536 3.72466  12
   1  -7  -2 16.0640 2.13301  10
  -1  -7   2 12.7717 2.47549  10
   1  -7  -2 13.6475 2.52135   2
  -1  -7   2 13.7625 1.70868   7
   1  -7  -2 15.5398 2.63546  15
  -1   7   2 13.3775 1.70420  14
  -1   7   2 16.4816 2.34483   8
   1   7  -2 16.2783 1.90281   6
   1   7  -2 21.4846 1.76712   9
  -1   7   2 16.1699 1.65055   6
   1   7  -2 14.6602 1.55932  12
  -1  -7  -2 188.848 8.33953  15
   1  -7   2 209.453 8.76681  10
   1  -7   2 187.991 6.79606   7
  -1  -7  -2 196.350 7.54130  11
  -1  -7  -2 209.603 8.93042   2
  -1  -7  -2 199.659 8.20198  10
   1   7   2 180.703 6.07827   6
  -1   7  -2 188.613 6.86369   6
   1   7   2 186.148 6.89176   1
   1   7   2 195.886 6.92515  16
  -1   7  -2 197.141 6.83807   9
   1   7   2 184.564 6.18276  13
  -1   7  -2 185.727 6.89268   8
   3  -7   2 55.7991 3.44095   7
   3  -7   2 57.1060 3.07517   4
  -3  -7  -2 61.1166 5.53137   2
  -3  -7  -2 51.4278 3.86550  11
  -3  -7  -2 59.0358 5.01528  10
  -3  -7  -2 52.5046 4.23590  15
  -3   7  -2 52.1986 4.40776   3
  -3   7  -2 53.9290 3.71165   8
   3   7   2 56.4726 3.65260   1
   3   7   2 53.6302 2.95008  13
  -3   7  -2 53.7245 3.40254   6
   3   7   2 51.0142 3.34747  16
  -3   7  -2 54.4367 3.48992   9
  -5  -7  -2 46.2034 5.09749   2
   5  -7   2 51.0165 3.66833   4
  -5  -7  -2 52.8006 5.00329  10
   5   7   2 50.3404 4.01908   1
   5   7   2 50.1265 3.09989  12
  -5   7  -2 48.3364 5.58382  14
  -5   7  -2 45.7322 4.74026   3
  -5   7  -2 46.4032 3.48812   6
   5   7   2 49.2001 3.30409  13
  -5   7  -2 44.1636 3.40324   9
  -5   7  -2 46.9441 3.93866   8
   5   7   2 48.8324 3.62615  16
   7  -7   2 139.532 7.23870   4
  -7  -7  -2 152.684 9.61873  10
  -7  -7  -2 143.708 8.21619   2
   7   7   2 141.939 6.54979  13
   7   7   2 134.322 7.01363  16
  -7   7  -2 142.093 6.88005   9
   7   7   2 153.160 7.56230   1
  -7   7  -2 145.545 6.71010   6
  -7   7  -2 151.106 10.2820  14
  -7   7  -2 138.173 8.82862   3
 -10  -8   2 400.828 16.9742  10
 -10   8   2 405.240 20.5434  14
 -10   8   2 419.727 14.3055   9
 -10   8   2 428.394 17.6594   3
  10   8  -2 390.339 13.4908  12
 -10   8   2 413.540 16.9991   8
  10   8  -2 403.283 15.2836   1
  -8  -8   2 216.660 11.5795  10
  -8   8   2 229.175 9.19557   9
  -8   8   2 200.632 12.8003  14
  -8   8   2 242.341 11.3675   8
   8   8  -2 214.869 9.42250   1
  -8   8   2 212.701 11.0138   3
  -8   8   2 215.503 9.01321   6
   8   8  -2 217.816 8.65246  12
   8   8  -2 210.159 9.12294  16
  -6  -8   2 1110.35 33.0497   2
  -6  -8   2 1141.64 31.1347   7
  -6  -8   2 1142.70 34.8091  10
   6  -8  -2 1186.30 34.0608  15
   6  -8  -2 1153.73 32.1458   2
  -6   8   2 1157.03 31.4317   6
  -6   8   2 1193.92 33.8011   8
  -6   8   2 1187.87 34.1285   3
  -6   8   2 1174.49 31.7411   9
   6   8  -2 1144.73 31.6262   1
  -6   8   2 1094.15 36.0359  14
   6   8  -2 1141.69 31.6589  16
   6   8  -2 1167.45 31.1504  12
  -4  -8   2 528.965 17.1357   2
  -4  -8   2 545.757 15.1884   7
  -4  -8   2 522.208 18.0873  10
   4  -8  -2 531.551 17.8153  15
   4  -8  -2 472.187 16.2756  10
   4  -8  -2 512.124 16.3625   2
  -4   8   2 478.692 17.7803  14
  -4   8   2 533.366 17.1715   3
   4   8  -2 507.149 15.1098  16
   4   8  -2 519.358 15.0556  12
  -4   8   2 522.869 16.9485   8
   4   8  -2 498.437 15.0227   1
  -4   8   2 511.145 15.1621   6
  -2  -8   2 1497.32 41.2100   2
   2  -8  -2 1532.32 40.7455   2
   2  -8  -2 1541.34 42.0284  15
   2  -8  -2 1487.39 39.8620  10
  -2  -8   2 1548.59 41.8814  10
  -2  -8   2 1523.42 38.8177   7
   2   8  -2 1498.77 38.6127  16
   2   8  -2 1505.86 38.7271  12
   2   8  -2 1501.10 38.5415   1
  -2   8   2 1522.51 40.7101   8
  -2   8   2 1425.30 40.3980  14
   2   8  -2 1514.95 39.1859   6
  -2   8   2 1508.23 38.8434   6
   0  -8   2 421.503 12.5744   7
   0  -8  -2 436.735 14.1174  10
   0  -8  -2 434.578 14.8257   2
   0  -8   2 488.956 15.5942  10
   0  -8  -2 421.266 15.0283  15
   0   8  -2 411.267 12.5934   9
   0   8  -2 414.716 12.8541   6
   0   8  -2 383.505 12.7048   8
   0   8   2 427.113 13.9942   8
   0   8   2 415.543 12.8655   1
   0   8   2 416.086 12.2186   6
   2  -8   2 781.474 23.5658  10
  -2  -8  -2 743.353 21.6818  11
  -2  -8  -2 728.371 23.0654  15
  -2  -8  -2 752.371 22.8003  10
  -2  -8  -2 741.699 23.6270   2
   2  -8   2 757.689 20.9452   7
   2   8   2 743.350 21.1156  16
  -2   8  -2 704.926 21.3433   8
  -2   8  -2 752.738 21.0438   9
  -2   8  -2 744.587 20.9334   6
   2   8   2 739.119 21.0732   1
  -4  -8  -2 231.163 10.7859  10
  -4  -8  -2 221.241 10.9499   2
   4  -8   2 223.488 8.56321   7
  -4   8  -2 211.646 10.3911   3
   4   8   2 216.070 8.67592   1
  -4   8  -2 235.344 8.45037   6
   4   8   2 206.768 8.57992  16
  -4   8  -2 224.787 9.38850   8
  -4   8  -2 225.615 8.70436   9
  -6  -8  -2 324.094 14.0214   2
  -6  -8  -2 367.587 15.2050  10
  -6   8  -2 347.409 12.4892   9
   6   8   2 335.757 12.4986  16
  -6   8  -2 352.267 13.7101   8
  -6   8  -2 356.631 12.0999   6
  -6   8  -2 329.914 14.7227   3
   6   8   2 346.515 12.6625   1
  -8  -8  -2 237.118 12.6168  10
  -8   8  -2 209.554 8.97207   6
  -8   8  -2 227.488 12.5024   3
  -8   8  -2 210.070 9.52480   9
   8   8   2 203.049 9.50945   1
  -9  -9   2 0.70568 2.79625  10
   9   9  -2 -0.6013 1.83342   1
  -9   9   2 -0.3081 2.41361  14
  -9   9   2 1.20211 2.53859   8
   9   9  -2 6.95034 2.21778  12
  -9   9   2 1.72021 2.08097   9
  -9   9   2 4.89065 2.27444   3
  -7  -9   2 9.76383 3.09179  10
  -7   9   2 4.56035 2.14629   6
   7   9  -2 8.69331 2.18729  16
  -7   9   2 7.71404 2.42826   3
  -7   9   2 3.24912 2.65904  14
   7   9  -2 6.52674 1.97619  12
   7   9  -2 8.85063 2.21419   1
  -7   9   2 6.35225 1.84183   9
  -7   9   2 6.81118 2.93761   8
  -5  -9   2 11.1435 2.03397   7
  -5  -9   2 8.58733 3.43763  10
   5  -9  -2 12.0409 2.63488   2
  -5  -9   2 9.94296 3.23218   2
  -5   9   2 11.5302 2.23543   6
   5   9  -2 10.4588 1.92303   6
   5   9  -2 11.5544 1.84957   1
  -5   9   2 9.26311 2.82229   8
   5   9  -2 15.7791 2.29282  12
  -5   9   2 13.1356 3.18467  14
   5   9  -2 9.81799 1.98030  16
   3  -9  -2 -0.3540 1.60523  15
  -3  -9   2 0.15516 2.21589  10
   3  -9  -2 3.33927 1.63482   2
  -3  -9   2 0.75224 1.38834   2
  -3  -9   2 -0.2426 1.07945   7
  -3   9   2 -0.3369 1.48689   8
  -3   9   2 8.76286 1.77523   6
   3   9  -2 0.16714 0.79974  16
  -3   9   2 0.75681 1.26174  14
   3   9  -2 0.79495 1.16021   6
   3   9  -2 1.77016 1.27912  12
   3   9  -2 1.91034 1.00550   1
   1  -9  -2 80.1971 4.80320  10
  -1  -9   2 80.8317 5.64594  10
  -1  -9   2 72.9207 5.51858   2
   1  -9  -2 92.7336 5.65645   2
  -1  -9   2 74.7510 3.90204   7
   1  -9  -2 77.0336 5.58703  15
  -1   9   2 83.3260 5.25359   8
  -1   9   2 73.2561 3.92610   6
   1   9  -2 74.7790 4.29547   6
  -1  -9  -2 8.52574 2.21834  10
   1  -9   2 13.1950 1.85441   7
  -1  -9  -2 10.0018 2.68806  15
  -1  -9  -2 13.2157 3.05386   2
  -1  -9  -2 9.19458 2.36497  11
   1  -9   2 12.0604 2.94106  10
   1   9   2 12.0890 2.44996   8
  -1   9  -2 10.5069 1.79547   9
  -1   9  -2 13.0542 1.95549   6
   1   9   2 10.1478 1.90533   1
   1   9   2 8.95234 1.49222   6
   3  -9   2 53.9729 3.65034   7
  -3  -9  -2 43.6074 4.23202  11
  -3  -9  -2 44.0170 5.73740   2
   3  -9   2 44.3346 4.88250  10
  -3  -9  -2 47.9926 5.33625  10
  -3   9  -2 47.0546 3.44747   9
  -3   9  -2 38.0157 3.45106   8
  -3   9  -2 51.7993 3.82457   6
   3   9   2 43.9485 3.78384   1
   3   9   2 43.7759 3.66339  16
  -5  -9  -2 80.6253 6.61916  10
  -5  -9  -2 75.8563 6.76722   2
   5  -9   2 71.6038 4.64619   7
   5   9   2 77.5314 5.24136   1
  -5   9  -2 71.3189 5.58758   8
  -5   9  -2 75.4484 4.90426   6
  -5   9  -2 73.7285 4.80671   9
   5   9   2 68.9368 4.94494  16
   7  -9   2 8.70668 1.87850   7
  -7  -9  -2 8.71892 3.42964  10
  -7  -9  -2 9.06223 2.47558   2
  -7   9  -2 4.77126 2.06306   6
  -7   9  -2 5.85597 2.41887   3
  -7   9  -2 5.60591 2.35476   9
   7   9   2 9.85323 2.58035   1
  -8 -10   2 487.561 19.8683  10
  -8  10   2 487.975 18.9993   8
  -8  10   2 506.328 19.3352   3
  -8  10   2 504.357 16.3263   6
  -8  10   2 462.723 21.4878  14
   8  10  -2 492.940 15.9229  12
   8  10  -2 480.244 16.5664   1
  -6 -10   2 47.9470 5.61629  10
  -6 -10   2 46.0230 5.59714   2
  -6  10   2 39.5200 3.56618   6
   6  10  -2 34.2302 3.48193  16
   6  10  -2 46.9243 3.84451  12
  -6  10   2 37.1570 5.38746  14
   6  10  -2 42.1825 3.82271   1
  -6  10   2 46.3524 5.42407   8
  -4 -10   2 937.975 29.1255   2
   4 -10  -2 936.677 27.8974   2
  -4 -10   2 940.623 29.8830  10
  -4  10   2 873.405 29.1860  14
   4  10  -2 962.075 26.1431   6
  -4  10   2 956.389 28.4881   8
   4  10  -2 946.630 25.9632   1
   4  10  -2 836.865 27.7053  16
   4  10  -2 979.139 26.0547  12
  -4  10   2 952.269 26.2139   6
  -2 -10   2 62.8644 5.50161   2
  -2 -10   2 52.0682 4.96985  10
   2 -10  -2 57.7746 4.76098   2
   2  10  -2 55.8619 3.92249   6
  -2  10   2 55.3172 3.72415   6
  -2  10   2 56.5220 4.56205   8
   0 -10  -2 1482.59 41.1371  11
   0 -10  -2 1534.28 42.9571   2
   0 -10   2 1545.09 43.2606  10
   0 -10  -2 1509.88 41.6795  10
   0 -10   2 1505.18 42.6495   2
   0  10   2 1517.85 41.8824   8
   0  10  -2 1489.44 40.1034   6
  -2 -10  -2 55.8973 5.56871  10
   2 -10   2 65.4611 5.93361  10
  -2 -10  -2 55.5334 4.85478  11
  -2 -10  -2 52.2017 6.21990   2
  -2  10  -2 80.0688 5.79726   8
   2  10   2 62.9802 4.10174   1
  -2  10  -2 50.7942 4.01184   6
  -2  10  -2 55.9214 4.16732   9
   2  10   2 54.3077 4.71820   8
  -4 -10  -2 1349.30 39.7616  10
  -4 -10  -2 1324.06 40.2005   2
   4 -10   2 1423.53 40.3362  10
   4  10   2 1325.68 36.9329   1
  -4  10  -2 1343.44 36.6664   6
  -4  10  -2 1287.64 37.9666   8
  -4  10  -2 1348.66 37.0335   9
   4  10   2 1330.07 36.9707  16
   6 -10   2 25.6097 4.18878  10
  -6 -10  -2 20.9561 4.31784   2
  -6 -10  -2 16.9421 4.11469  10
   6  10   2 17.5007 2.87480   1
  -6  10  -2 23.0705 3.99002   8
  -6  10  -2 20.5647 3.38323   9
  -7 -11   2 87.4754 7.67696  10
   7 -11  -2 92.0842 6.05904  11
  -7  11   2 87.7943 5.82907   6
  -7  11   2 89.7275 8.40380  14
  -7  11   2 87.7095 6.88202   8
   7  11  -2 87.3663 5.40657  12
  -5 -11   2 105.016 8.23347   2
  -5 -11   2 98.0884 8.39064  10
   5 -11  -2 105.938 6.82539   2
  -5  11   2 98.9830 5.85224   6
  -5  11   2 104.860 7.12798   8
   3 -11  -2 99.2963 6.49720   2
  -3 -11   2 104.059 8.08397  10
  -3 -11   2 94.5455 7.36900   2
  -3  11   2 91.3736 5.22761   6
   3  11  -2 92.7499 5.04711   6
  -3  11   2 90.3289 6.46324   8
   1 -11  -2 153.608 8.97770   2
  -1 -11   2 155.377 8.94301   2
  -1 -11   2 157.856 9.32059  10
   1 -11  -2 152.288 7.94380  11
  -1  11   2 154.033 8.24767   8
  -1  11   2 152.191 6.57786   6
   1  11  -2 154.561 7.09872   6
  -1 -11  -2 73.0536 5.65775  11
  -1 -11  -2 69.9904 5.97841  10
   1 -11   2 69.4352 6.35134  10
  -1 -11  -2 62.6417 6.57716   2
   1 -11   2 67.6419 6.12411   2
  -1  11  -2 71.2589 4.55104   6
   1  11   2 71.4186 5.25225   8
  -3 -11  -2 95.0872 6.53857  11
  -3 -11  -2 108.491 8.95493   2
   3 -11   2 118.276 8.11397  10
  -3 -11  -2 108.995 7.35154  10
   3  11   2 105.684 6.13026   1
  -3  11  -2 104.300 6.06377   6
  -3  11  -2 113.041 6.06614   9
   3  11   2 97.8221 6.62829   8
  -5 -11  -2 56.3459 6.48746  10
   5 -11   2 49.6369 5.61045  10
  -5 -11  -2 51.3877 6.43025   2
  -5  11  -2 46.7573 4.61224   9
   5  11   2 50.1513 4.68694   1
  -5  11  -2 45.0960 4.39976   6
  -6 -12   2 630.223 23.2207   2
  -6 -12   2 619.084 24.0757  10
   6 -12  -2 687.690 21.8501  11
  -6  12   2 687.733 23.2971   8
  -6  12   2 623.524 20.1333   6
  -4 -12   2 56.8073 6.86042  10
  -4 -12   2 66.9913 6.46150   2
   4 -12  -2 70.7237 6.04142  11
   4 -12  -2 56.6838 5.76301   2
  -4  12   2 59.2445 5.82360   8
   4  12  -2 61.2904 4.51439   6
  -4  12   2 56.4655 4.21918   6
   2 -12  -2 754.127 25.0458   2
   2 -12  -2 752.194 24.0815  11
  -2 -12   2 774.256 26.0295  10
  -2 -12   2 769.968 25.9596   2
  -2  12   2 763.499 22.3399   6
  -2  12   2 761.439 24.8110   8
   2  12  -2 783.204 22.7926   6
   0 -12   2 98.1251 7.24190  10
   0 -12   2 97.1199 7.60606   2
   0 -12  -2 97.9235 8.05907   2
   0 -12  -2 99.9437 6.36237  11
   0  12  -2 98.1400 5.89764   6
   0  12   2 91.1859 6.31911   8
  -2 -12  -2 528.844 18.6448  11
   2 -12   2 576.291 20.8663   2
  -2 -12  -2 533.564 19.5427  10
  -2 -12  -2 548.668 21.1522   2
   2 -12   2 553.983 20.4424  10
  -2  12  -2 549.151 17.6874   6
   4 -12   2 107.178 8.01706   2
   4 -12   2 112.763 8.04917  10
  -4 -12  -2 104.081 7.90054  10
  -4 -12  -2 92.8807 8.45189   2
  -4  12  -2 107.255 6.42923   9
   4  12   2 101.849 6.05511   1
  -4  12  -2 101.447 5.98831   6
  -3 -13   2 7.84980 4.03365  10
  -3 -13   2 17.1008 4.66809   2
   3 -13  -2 14.0023 3.95385   2
   3 -13  -2 14.6415 3.15430  11
  -3  13   2 12.1207 2.58564   6
  -3  13   2 12.1827 2.77005   8
   3  13  -2 11.7031 2.51019   6
  -1 -13   2 18.2781 4.59716  10
   1 -13  -2 9.98965 3.35174   2
  -1 -13   2 9.97454 3.29395   2
   1 -13  -2 10.4567 2.73278  11
  -1  13   2 11.8028 2.96234   8
  -1  13   2 9.80308 2.21866   6
   1  13  -2 11.6905 2.61904   6
   1 -13   2 7.14517 3.30804   2
   1 -13   2 8.74904 2.89138  10
  -1 -13  -2 8.74331 4.26475   2
  -1 -13  -2 10.9820 3.31406  11
  -1  13  -2 13.2584 2.88059   6
  12   0  -3 2.03321 1.80214  13
  12   0  -3 2.32019 2.44365   1
 -12   0   3 0.45846 2.40417  14
 -12   0   3 -0.2826 2.49614   3
 -10   0   3 -0.1648 1.96048  14
  10   0  -3 1.19840 1.43327   1
  10   0  -3 0.74084 1.42888  12
 -10   0   3 2.79160 2.40050   3
  10   0  -3 1.56780 1.80299  16
   8   0  -3 2.00819 1.47960   1
   8   0  -3 0.61474 1.18918  12
   8   0  -3 3.47222 1.63144  16
  -8   0   3 0.11753 1.69502  14
  -8   0   3 1.23569 1.41099   3
   6   0  -3 0.56150 0.37202  15
  -6   0   3 0.40445 0.32274   9
   6   0  -3 -0.0959 0.55750  12
  -6   0   3 0.57922 0.68594   3
  -6   0   3 -0.0690 0.48880  10
  -6   0   3 1.16156 0.95469   7
  -6   0   3 0.51514 0.60028   8
  -6   0   3 1.73087 1.37220  14
   6   0  -3 0.18865 0.67960  16
   6   0  -3 0.24995 0.61681   5
  -2   0   3 2.45811 0.66864  15
   2   0  -3 0.35982 0.34088   5
   2   0  -3 0.33162 0.40206  15
   2   0  -3 0.85215 0.41950  11
  -2   0   3 0.42943 0.37519   7
  -2   0   3 1.33579 0.44038  13
  -2   0   3 0.83336 0.32382   8
   2   0  -3 0.36191 0.28400  12
   0   0   3 0.08471 0.38689  15
   0   0  -3 0.97605 0.43953   2
   0   0  -3 2.82693 0.61947  11
   0   0   3 0.37504 0.35367  13
   0   0   3 0.65343 0.31197   4
   0   0   3 1.47802 0.31698  16
   0   0  -3 0.22373 0.52524  15
   0   0  -3 0.11146 0.28616   5
   0   0   3 1.41437 0.31296   1
  -2   0  -3 1.71683 0.60855   3
   2   0   3 -0.1956 0.52810   4
  -2   0  -3 2.05235 0.60082  11
   2   0   3 0.44211 0.41462  16
   2   0   3 3.42582 0.79534  13
   2   0   3 0.81663 0.45585   1
  -2   0  -3 1.58762 0.79445   2
  -4   0  -3 0.31825 0.80394   3
  -4   0  -3 0.32298 0.80117  14
  -4   0  -3 0.24172 0.72676   9
   4   0   3 -0.0585 0.46236   1
   4   0   3 0.83522 0.73611  16
  -4   0  -3 -0.2035 0.84726   2
  -4   0  -3 0.24979 0.45590  11
   4   0   3 -0.2436 0.92307  13
   6   0   3 0.70463 0.95167  13
   6   0   3 -0.0394 0.96098  16
  -6   0  -3 0.70553 1.19452  14
   6   0   3 0.40070 1.09539   1
  -6   0  -3 -0.4879 0.69205   3
   8   0   3 -0.1758 1.33618   1
  -8   0  -3 0.22743 1.75392   3
   8   0   3 1.28720 1.85247  13
  -8   0  -3 2.83889 1.51215   9
   8   0   3 0.94826 1.02209  16
 -10   0  -3 0.97453 2.22241   3
 -11  -1   3 318.999 14.3964   3
 -11  -1   3 315.752 15.1119  14
  11  -1  -3 316.195 12.7792  16
  11  -1  -3 304.690 12.8945   1
  11   1  -3 307.165 12.7564  16
  11   1  -3 296.041 12.3461  13
 -11   1   3 308.494 14.2439   3
 -11   1   3 309.995 15.9011  14
  11   1  -3 293.381 10.7006  12
  11   1  -3 308.995 12.9999   1
  -9  -1   3 668.814 22.0813   3
   9  -1  -3 641.905 20.4581  16
  -9  -1   3 700.021 23.4978  14
   9  -1  -3 660.902 20.6609   1
   9  -1  -3 678.622 19.2829  12
  -9   1   3 679.139 22.1685   3
   9   1  -3 670.454 20.7639   1
   9   1  -3 663.431 20.6803  16
   9   1  -3 648.301 19.1460  12
  -9   1   3 689.975 24.0801  14
  -7  -1   3 1362.65 37.8463  14
  -7  -1   3 1312.46 36.3942   3
   7  -1  -3 1351.88 35.6309  16
   7  -1  -3 1367.46 34.7075  12
   7  -1  -3 1351.49 34.2500   5
  -7  -1   3 1329.53 35.6482  10
   7   1  -3 1293.11 35.3776   1
  -7   1   3 1388.25 38.6773  14
   7   1  -3 1315.83 34.0181   5
   7   1  -3 1326.97 35.4772  16
  -7   1   3 1330.65 36.4885   3
   7   1  -3 1360.30 34.6792  12
  -7   1   3 1311.12 35.4911   8
  -5  -1   3 1236.34 32.0687  10
  -5  -1   3 1236.95 31.7089   7
   5  -1  -3 1240.89 31.4455   5
   5  -1  -3 1275.53 31.7476  15
  -5  -1   3 1240.71 31.3017  15
   5  -1  -3 1250.72 30.7092  11
   5  -1  -3 1239.15 31.4105  12
   5   1  -3 1248.62 31.2778   5
  -5   1   3 1158.97 30.8015   9
  -5   1   3 1172.16 31.7217   8
  -5   1   3 1228.92 33.9010  14
  -5   1   3 1217.48 31.4375   7
   5   1  -3 1242.70 31.8503   1
  -5   1   3 1216.76 32.3245   3
   5   1  -3 1241.08 31.3825  12
   5   1  -3 1280.64 31.9575  16
  -3  -1   3 4942.14 129.061  10
   3  -1  -3 5233.11 128.342  11
  -3  -1   3 5031.39 127.706   4
   3  -1  -3 5233.79 128.637   5
  -3  -1   3 4799.98 130.210  15
  -3  -1   3 5072.17 127.153   7
   3  -1  -3 5160.82 133.793  15
  -3   1   3 4936.22 126.511   7
   3   1  -3 5167.73 130.434  15
   3   1  -3 5072.43 127.527  16
  -3   1   3 5071.67 128.689   8
   3   1  -3 4949.21 126.617  11
  -3   1   3 4968.74 132.542  15
  -3   1   3 5008.01 127.720   4
   3   1  -3 5135.76 128.942   5
  -3   1   3 4959.33 129.030   3
   3   1  -3 5088.65 127.055  12
  -1  -1   3 1032.37 25.8905   7
  -1  -1   3 961.103 26.4349  15
  -1  -1   3 1016.58 25.5683  13
   1  -1  -3 1080.28 27.0410  15
  -1  -1   3 1018.66 25.8929   4
   1  -1  -3 1060.65 26.0245   5
   1  -1  -3 1092.98 26.2883  11
   1  -1  -3 1064.79 26.1663   2
   1   1  -3 1022.59 25.8416   5
   1   1  -3 1021.36 25.3962  12
  -1   1   3 996.371 25.4218   7
   1   1  -3 1025.50 26.6728  15
  -1   1   3 1036.68 26.8726  15
  -1   1   3 1031.42 25.8373  13
  -1   1   3 1028.72 25.8124   4
   1   1  -3 1012.14 25.9285  11
  -1  -1  -3 3526.04 88.9382  11
   1  -1   3 3615.22 88.9618  13
   1  -1   3 3564.40 90.0618   4
  -1  -1  -3 3431.14 90.8140   2
  -1  -1  -3 3293.31 89.2586   3
  -1  -1  -3 3592.57 94.5288  15
  -1  -1  -3 3403.62 87.4567   5
   1  -1   3 3569.39 87.9177   1
   1  -1   3 3514.33 88.0554  16
   1   1   3 3611.93 88.4121   1
   1   1   3 3381.01 90.0963  15
   1   1   3 3590.01 88.4383   4
   1   1   3 3547.58 88.8258  16
  -1   1  -3 3585.67 89.8323  11
  -1   1  -3 3386.46 89.7194   3
  -1   1  -3 3618.75 88.8619   5
  -1   1  -3 3364.84 87.8358   6
   1   1   3 3575.39 88.6085  13
  -3  -1  -3 1176.75 31.8459   2
   3  -1   3 1249.63 31.0598  13
  -3  -1  -3 1257.24 31.3687  14
  -3  -1  -3 1166.72 30.3951  11
   3  -1   3 1206.48 30.3525   1
   3  -1   3 1220.08 30.3789  16
  -3  -1  -3 1168.05 31.3406   3
  -3  -1  -3 1216.26 30.9397  15
   3   1   3 1231.51 30.7324  16
  -3   1  -3 1236.83 32.3063  14
  -3   1  -3 1218.00 31.0259   9
  -3   1  -3 1166.80 31.6654   3
  -3   1  -3 1119.44 29.8470   6
  -3   1  -3 1186.34 30.4738  11
   3   1   3 1155.60 29.4275  12
   3   1   3 1203.88 31.0196  13
   3   1   3 1204.78 30.7010   1
   5  -1   3 798.692 21.9855   1
  -5  -1  -3 818.368 23.7914   3
  -5  -1  -3 834.102 23.2243  14
   5  -1   3 812.237 21.9954  16
  -5  -1  -3 842.086 23.5966   2
  -5  -1  -3 806.535 22.2796   9
   5  -1   3 844.847 22.8329  13
  -5   1  -3 788.761 23.9489   3
   5   1   3 825.929 22.6965  13
  -5   1  -3 808.281 24.1326  14
   5   1   3 804.784 22.2792  16
  -5   1  -3 823.576 22.5046   9
   5   1   3 784.604 22.1932   1
   7  -1   3 654.591 19.2150  16
  -7  -1  -3 634.169 18.9979   9
   7  -1   3 669.268 20.1270  13
  -7  -1  -3 660.829 21.5106   3
   7  -1   3 667.423 19.2928   1
  -7   1  -3 653.333 19.2829   9
   7   1   3 612.738 19.2148  16
   7   1   3 639.600 19.4002   1
   7   1   3 654.327 20.0336  13
  -7   1  -3 672.847 21.8244  14
  -7   1  -3 684.429 22.1094   3
   9  -1   3 210.647 9.73337  13
  -9  -1  -3 245.365 11.9103   3
   9   1   3 211.671 9.86252   4
   9   1   3 205.948 9.81578  13
   9   1   3 217.434 9.46271   1
  -9   1  -3 211.309 8.84328   9
  -9   1  -3 218.120 11.6433   3
 -12  -2   3 83.5805 7.20700   3
  12  -2  -3 86.0085 6.34058   1
 -12   2   3 99.2430 7.82680   3
 -12   2   3 103.216 9.63194  14
  12   2  -3 75.0260 6.18161  13
  12   2  -3 87.0741 6.76123   1
  10  -2  -3 224.139 10.0801   1
  10  -2  -3 240.961 8.93915  12
  10  -2  -3 224.466 10.0302  16
 -10  -2   3 245.472 11.5447   3
 -10  -2   3 242.929 12.0536  14
  10   2  -3 233.852 10.4055   1
 -10   2   3 244.841 11.6648   3
  10   2  -3 212.924 9.98588  16
  10   2  -3 231.671 8.85779  12
 -10   2   3 244.558 13.1749  14
  -8  -2   3 304.839 12.4114  14
   8  -2  -3 289.808 9.61221  12
  -8  -2   3 289.617 10.9067  10
   8  -2  -3 299.788 10.7456  16
  -8  -2   3 298.900 11.5740   3
   8   2  -3 283.888 10.5601   1
  -8   2   3 298.255 13.3035  14
  -8   2   3 295.881 10.8525   8
   8   2  -3 299.176 10.7944  16
   8   2  -3 291.912 9.69752  12
  -8   2   3 286.420 11.5328   3
  -8   2   3 279.757 8.94234   9
  -6  -2   3 320.262 11.5213  14
   6  -2  -3 337.941 9.70708  12
   6  -2  -3 324.752 10.0092  15
  -6  -2   3 328.093 10.0832   7
   6  -2  -3 316.667 9.60440   5
  -6  -2   3 310.430 10.6059  10
  -6   2   3 307.359 10.2866   8
   6   2  -3 317.910 10.1667  16
  -6   2   3 313.667 10.8065   3
   6   2  -3 314.695 10.1361   1
   6   2  -3 307.441 9.22263   5
  -6   2   3 317.588 12.3297  14
  -6   2   3 311.236 9.18985   9
   6   2  -3 324.538 9.63785  12
  -4  -2   3 776.750 20.5715   4
   4  -2  -3 827.318 20.6395  11
  -4  -2   3 780.487 20.1700   2
   4  -2  -3 826.519 20.9457   5
   4  -2  -3 830.549 21.7264  15
  -4  -2   3 789.624 20.7592   7
  -4  -2   3 780.484 21.3356  10
   4   2  -3 784.251 20.6829  16
  -4   2   3 782.911 21.2129   3
  -4   2   3 771.901 21.0363   8
  -4   2   3 784.835 22.5307  14
   4   2  -3 801.177 20.5212  12
  -4   2   3 758.307 20.3049   9
   4   2  -3 795.304 20.7052   1
   4   2  -3 797.007 20.5516   5
  -2  -2   3 460.922 11.9879   7
   2  -2  -3 459.253 12.1034   2
   2  -2  -3 462.374 12.3059  11
   2  -2  -3 465.323 13.2875  15
  -2  -2   3 416.620 12.9120  15
  -2  -2   3 449.613 11.8100   4
  -2  -2   3 436.050 12.3782  10
  -2   2   3 440.598 12.1405   8
  -2   2   3 431.591 11.8098   3
  -2   2   3 458.748 11.8171   4
   2   2  -3 447.067 11.7887  11
   2   2  -3 440.609 11.3984   1
  -2   2   3 423.327 11.5471   6
   2   2  -3 425.708 11.3470   9
   2   2  -3 441.808 11.5788  12
   2   2  -3 445.448 11.4112  16
  -2   2   3 440.623 11.8605  13
   2   2  -3 462.343 11.9623   5
   0  -2  -3 751.153 20.0316  15
   0  -2   3 721.977 18.7414   7
   0  -2  -3 721.294 18.8146  10
   0  -2   3 713.038 18.6366   4
   0  -2  -3 727.617 19.1570  11
   0  -2  -3 744.626 19.5574   2
   0  -2   3 692.091 18.1532  13
   0   2   3 730.639 18.5782  16
   0   2   3 717.553 18.6208  13
   0   2  -3 724.190 18.7739  11
   0   2   3 719.284 18.5443   1
   0   2  -3 728.609 18.5098   5
   0   2   3 712.638 18.4053   4
   0   2  -3 733.091 18.6390   9
  -2  -2  -3 744.787 20.0042  15
  -2  -2  -3 739.014 20.4704   2
  -2  -2  -3 724.883 20.4104  10
   2  -2   3 767.918 19.6386   4
   2  -2   3 730.669 19.1973  13
  -2  -2  -3 722.963 19.3517   3
  -2  -2  -3 720.426 19.3577  11
   2  -2   3 744.509 18.5966   1
   2  -2   3 736.868 18.5841  16
   2   2   3 743.478 19.3446  16
   2   2   3 722.405 19.2067   4
  -2   2  -3 741.523 20.1167   3
   2   2   3 717.222 19.4081  13
  -2   2  -3 729.605 19.2885  11
  -2   2  -3 751.545 19.5337   9
  -2   2  -3 737.495 18.8334   6
  -2   2  -3 739.291 20.8062  14
   2   2   3 722.259 19.2827   1
   4  -2   3 287.596 9.06878  13
   4  -2   3 286.376 8.43322  16
  -4  -2  -3 274.062 9.45895   3
   4  -2   3 281.750 8.39663   1
  -4  -2  -3 273.211 8.21432  11
  -4  -2  -3 266.626 9.84362   2
   4   2   3 282.498 8.93267   1
  -4   2  -3 266.643 8.06537   6
  -4   2  -3 291.695 10.6748  14
   4   2   3 276.404 8.94279  16
  -4   2  -3 286.334 9.08448   9
   4   2   3 271.902 9.05204  13
  -4   2  -3 267.562 9.97651   3
   6  -2   3 354.516 11.2381  16
  -6  -2  -3 373.358 13.2540   3
  -6  -2  -3 365.979 12.8435   2
  -6  -2  -3 353.687 11.3768   9
   6  -2   3 361.717 11.9676  13
   6  -2   3 350.353 11.1361   1
   6   2   3 358.145 11.8166   1
  -6   2  -3 348.400 11.6111   9
  -6   2  -3 355.652 13.8566  14
   6   2   3 340.925 11.6492  16
  -6   2  -3 355.217 13.5583   3
   6   2   3 343.252 11.9279  13
   8  -2   3 166.627 8.02466  13
  -8   2  -3 159.802 7.12837   9
   8   2   3 149.040 7.21451  16
   8   2   3 158.987 7.75011  13
  -8   2  -3 167.678 9.38074   3
   8   2   3 167.211 7.75651   1
  -8   2  -3 169.469 9.79724  14
  11  -3  -3 759.941 24.3930   1
 -11  -3   3 770.403 26.1780   3
 -11   3   3 739.294 26.0863   3
  11   3  -3 757.557 24.3698   1
  11   3  -3 747.939 22.0592  12
  11   3  -3 728.194 23.5154  13
 -11   3   3 802.898 29.8048  14
  -9  -3   3 39.0100 3.85387  10
   9  -3  -3 31.4401 3.12035  12
   9  -3  -3 36.5799 3.45066  16
  -9  -3   3 41.0768 4.12724   3
  -9  -3   3 40.6585 4.43301  14
   9  -3  -3 33.9203 3.81857   1
   9   3  -3 31.0322 3.09004  12
   9   3  -3 39.2749 3.90013  16
  -9   3   3 41.4777 5.59936  14
  -9   3   3 31.2537 2.57566   9
  -9   3   3 33.5981 3.56336   8
  -9   3   3 41.4193 4.47454   3
   9   3  -3 27.5486 3.56836   1
  -7  -3   3 2087.60 55.0144  10
   7  -3  -3 2126.15 53.1204   5
  -7  -3   3 2088.42 55.6973  14
  -7  -3   3 2125.30 53.7733   7
   7  -3  -3 2116.19 53.1240  12
   7   3  -3 1994.50 52.3825   5
  -7   3   3 2044.77 52.7845   9
  -7   3   3 2078.98 54.5210   8
  -7   3   3 2106.64 57.8488  14
   7   3  -3 2111.60 54.1088  16
   7   3  -3 2160.46 54.2272   1
  -7   3   3 2088.71 55.2713   3
   7   3  -3 2128.25 53.2265  12
   5  -3  -3 128.921 5.44189  15
  -5  -3   3 120.894 4.49193   2
  -5  -3   3 125.855 5.01026   7
  -5  -3   3 127.507 5.60206  10
   5  -3  -3 125.236 4.53970  11
   5  -3  -3 118.406 4.09161   2
   5  -3  -3 130.205 4.87428   5
  -5   3   3 131.375 4.59744   9
  -5   3   3 122.259 5.19535   8
   5   3  -3 119.004 4.39519   5
  -5   3   3 128.799 4.76866   6
   5   3  -3 127.601 4.61421  12
   5   3  -3 123.278 4.86385  16
  -5   3   3 125.504 5.40467   3
  -5   3   3 123.869 6.46579  14
   5   3  -3 126.111 4.90249   1
   3  -3  -3 5933.83 147.601   2
   3  -3  -3 5900.53 149.991  11
   3  -3  -3 6106.06 156.505  15
  -3  -3   3 5428.51 147.569   4
  -3  -3   3 5937.55 146.159   7
  -3  -3   3 5658.08 154.023  10
  -3   3   3 5324.96 151.701  14
  -3   3   3 5758.18 149.489   6
  -3   3   3 6032.21 152.460   3
   3   3  -3 5930.58 149.737   5
   3   3  -3 6279.33 148.606  12
  -3   3   3 6179.97 154.369   8
   3   3  -3 6047.42 147.480  16
   3   3  -3 6122.68 148.966   1
   1  -3  -3 787.319 20.0390  10
  -1  -3   3 797.593 20.1195   4
   1  -3  -3 824.019 21.2064   2
   1  -3  -3 794.227 20.9043  11
   1  -3  -3 821.584 22.0089  15
  -1  -3   3 782.294 20.3854   7
  -1   3   3 773.369 19.7170   6
   1   3  -3 774.918 20.2599   5
   1   3  -3 785.644 19.9237   9
  -1   3   3 799.994 20.3026   1
   1   3  -3 770.505 19.5979  16
   1   3  -3 797.530 19.7844  12
  -1   3   3 780.655 19.8472   4
  -1   3   3 790.071 20.2024  13
  -1   3   3 713.088 20.2870  14
  -1  -3  -3 5205.20 139.348  11
   1  -3   3 5734.27 138.619  13
  -1  -3  -3 5153.27 143.892   2
  -1  -3  -3 4970.78 142.106  10
  -1  -3  -3 5213.90 144.823  15
   1  -3   3 5615.37 139.608   4
   1  -3   3 5703.16 134.645  16
  -1   3  -3 5951.19 141.540   9
  -1   3  -3 5841.42 139.457   5
  -1   3  -3 5637.24 138.421   6
   1   3   3 5473.79 138.305   4
   1   3   3 5389.40 140.435   1
   1   3   3 5525.10 140.998  16
  -1   3  -3 5527.40 139.040   3
   1   3   3 5634.86 139.618  13
  -3  -3  -3 351.646 10.4529  11
   3  -3   3 358.290 9.82703   1
  -3  -3  -3 359.235 11.9686   2
  -3  -3  -3 362.748 10.9145   3
  -3  -3  -3 364.755 12.0974  10
   3  -3   3 361.451 10.4750  13
   3  -3   3 366.084 9.84351  16
  -3  -3  -3 356.260 10.9981  15
   3   3   3 353.346 10.3892   4
   3   3   3 360.092 10.7045   1
  -3   3  -3 357.051 10.7917   9
   3   3   3 357.825 10.7101  13
  -3   3  -3 364.528 12.5046  14
  -3   3  -3 349.813 10.1118   6
   3   3   3 351.105 9.62137  12
   3   3   3 359.157 10.7095  16
  -3   3  -3 348.508 11.7385   3
   5  -3   3 1794.29 44.9510  13
  -5  -3  -3 1740.39 45.8629   3
  -5  -3  -3 1731.79 46.3289   2
   5  -3   3 1744.87 43.9920  16
  -5  -3  -3 1713.63 47.2581  10
   5   3   3 1720.53 44.9074   1
  -5   3  -3 1645.24 43.6609   6
  -5   3  -3 1785.90 45.0763   9
  -5   3  -3 1702.78 46.9158   3
   5   3   3 1704.30 44.8501  16
  -5   3  -3 1740.04 47.7185  14
   5   3   3 1732.18 44.9972  13
  -7  -3  -3 56.0142 3.62558   9
  -7  -3  -3 64.0516 5.18451   3
   7  -3   3 57.0119 4.47710  13
  -7  -3  -3 58.7722 4.61207   2
  -7   3  -3 53.4512 3.80066   9
   7   3   3 61.7105 4.31261  13
   7   3   3 65.4311 4.23067  16
  -7   3  -3 58.7021 5.46822   3
  -7   3  -3 65.0833 6.04764  14
   7   3   3 66.5683 4.60500   1
   9  -3   3 459.333 16.3220  13
   9  -3   3 470.799 16.7911   4
   9   3   3 467.885 16.0413   4
  -9   3  -3 434.855 15.2403   9
   9   3   3 476.999 16.4771  13
  -9   3  -3 479.330 19.1794   3
   9   3   3 459.197 16.0756   1
 -10  -4   3 274.335 12.7438   3
 -10  -4   3 280.729 12.3741  10
  10  -4  -3 277.741 11.5739   1
  10  -4  -3 282.357 10.1042  12
  10  -4  -3 271.509 11.3695  16
  10   4  -3 276.631 10.1557  12
 -10   4   3 284.488 13.0167   3
 -10   4   3 293.686 15.3901  14
  10   4  -3 263.428 11.3564  16
  10   4  -3 297.280 11.8867   1
  10   4  -3 267.121 10.7178  13
   8  -4  -3 351.413 12.4173  16
  -8  -4   3 375.135 13.8661  10
  -8  -4   3 355.478 13.5817  14
   8  -4  -3 358.098 11.5712  12
   8  -4  -3 365.073 12.1749   5
  -8   4   3 393.042 16.4331  14
   8   4  -3 343.816 11.6301  13
  -8   4   3 361.989 13.1568   8
   8   4  -3 365.645 12.5124   1
   8   4  -3 351.830 12.4084  16
  -8   4   3 362.006 13.7661   3
  -8   4   3 360.514 11.3264   9
   8   4  -3 369.660 11.6175  12
   6  -4  -3 470.097 13.4855  11
  -6  -4   3 462.089 13.7832   2
   6  -4  -3 497.345 14.0363   5
  -6  -4   3 488.075 14.2580   7
   6  -4  -3 475.310 14.7830  15
  -6  -4   3 489.509 15.6236  10
   6   4  -3 482.137 13.7741  12
   6   4  -3 470.807 14.2065  16
  -6   4   3 483.352 17.1384  14
  -6   4   3 477.298 15.3717   3
  -6   4   3 467.799 14.9366   8
   6   4  -3 468.973 13.3966   5
  -6   4   3 488.230 13.8128   9
   6   4  -3 468.908 14.1986   1
  -6   4   3 481.148 13.8781   6
   4  -4  -3 1657.57 41.9865   2
  -4  -4   3 1623.52 43.3599  10
  -4  -4   3 1591.22 42.3076   2
   4  -4  -3 1704.38 42.2609  11
   4  -4  -3 1697.78 43.5681  15
  -4  -4   3 1710.28 42.2733   7
   4   4  -3 1700.55 42.0165  16
  -4   4   3 1712.05 42.0049   6
   4   4  -3 1695.32 41.9102  12
  -4   4   3 1585.53 44.2769  14
   4   4  -3 1632.66 41.9216   5
  -4   4   3 1649.08 42.9325   8
  -4   4   3 1692.28 42.1050   9
  -4   4   3 1641.69 42.8478   3
   4   4  -3 1671.19 41.9609   1
   2  -4  -3 1130.54 26.7766  10
  -2  -4   3 1036.93 27.1984   7
   2  -4  -3 1117.56 27.8466   2
   2  -4  -3 1089.20 28.7997  15
   2  -4  -3 1079.87 27.6319  11
  -2  -4   3 992.107 28.2712  10
  -2  -4   3 986.212 26.5864   4
  -2   4   3 1065.91 27.0420  13
   2   4  -3 1051.52 26.7201  12
  -2   4   3 1048.84 26.5695   4
   2   4  -3 1043.02 27.1320   5
   2   4  -3 1044.81 26.3759   1
   2   4  -3 1062.61 26.4049  16
  -2   4   3 1054.19 27.1022   3
   2   4  -3 1087.21 26.4034   9
  -2   4   3 1057.52 26.7208   6
  -2   4   3 1073.17 27.8376   8
  -2   4   3 999.219 27.8428  14
   0  -4  -3 1620.08 42.4179  15
   0  -4   3 1663.42 40.8334   7
   0  -4  -3 1623.73 41.0251  10
   0  -4   3 1640.05 39.6893  16
   0  -4  -3 1596.26 41.3002  11
   0  -4  -3 1628.47 42.0703   2
   0  -4   3 1621.79 40.3001   4
   0   4  -3 1542.40 40.0400   8
   0   4  -3 1599.50 40.4843   5
   0   4  -3 1606.73 39.7972  12
   0   4   3 1583.42 39.6805   6
   0   4   3 1596.10 39.7722   4
   0   4   3 1635.61 40.6192   1
   0   4   3 1657.87 40.6695  16
   0   4   3 1622.54 40.4171  13
   0   4  -3 1595.07 40.3787   9
   0   4  -3 1597.97 40.4861   6
   2  -4   3 1112.26 29.2402   4
  -2  -4  -3 1146.26 30.8875  15
  -2  -4  -3 1214.36 31.3915   2
   2  -4   3 1111.98 28.5957  13
  -2  -4  -3 1148.95 30.5457  10
   2  -4   3 1094.49 27.9384  16
  -2  -4  -3 1118.32 29.7325  11
  -2   4  -3 1110.45 29.3318   8
   2   4   3 1131.60 29.3316   1
   2   4   3 1132.58 29.3345  16
  -2   4  -3 1150.18 29.4162   9
  -2   4  -3 1120.44 28.9257   6
  -2   4  -3 1111.04 30.4071   3
   2   4   3 1118.49 29.1128  13
   2   4   3 1106.39 28.5292   4
   4  -4   3 303.637 9.44348  13
  -4  -4  -3 287.818 11.0062   2
  -4  -4  -3 309.944 10.1334   3
  -4  -4  -3 275.116 8.98624  11
  -4  -4  -3 302.179 11.3355  10
   4   4   3 279.913 9.47298  13
   4   4   3 290.379 8.46441  12
  -4   4  -3 291.215 9.66584   9
   4   4   3 298.805 9.79604   1
   4   4   3 292.351 9.67757  16
  -4   4  -3 295.478 11.8169  14
  -4   4  -3 300.748 11.2130   3
  -4   4  -3 301.445 9.14404   6
   4   4   3 295.658 9.19004   4
  -6  -4  -3 330.654 12.5965   2
  -6  -4  -3 325.916 13.5141  10
  -6  -4  -3 326.352 12.0717   3
   6  -4   3 335.750 11.2335  13
  -6   4  -3 320.527 13.9874  14
  -6   4  -3 310.087 13.0544   3
   6   4   3 306.235 10.5960   4
  -6   4  -3 324.225 11.2529   9
   6   4   3 328.963 11.3452  16
   6   4   3 319.486 11.3201   1
   6   4   3 313.669 11.1942  13
  -6   4  -3 322.934 10.2245   6
  -8  -4  -3 118.803 6.88873   2
   8  -4   3 110.368 6.77007   4
   8  -4   3 110.728 6.37529  13
   8   4   3 119.164 6.63323   1
  -8   4  -3 107.995 8.02012   3
   8   4   3 109.070 6.51388  13
  -8   4  -3 114.748 6.01723   9
  -8   4  -3 110.083 8.64778  14
   8   4   3 108.211 6.26017  16
   8   4   3 110.541 6.10219   4
 -11  -5   3 268.638 12.9051   3
 -11  -5   3 252.675 12.0638  10
 -11   5   3 295.119 16.5377  14
 -11   5   3 280.449 13.1756   3
  11   5  -3 241.711 11.4098   1
  11   5  -3 265.352 10.0086  12
  -9  -5   3 739.233 23.5510  10
   9  -5  -3 723.985 20.4224  12
   9  -5  -3 704.140 21.8277  16
   9   5  -3 692.515 21.7758   1
   9   5  -3 705.941 21.8001  16
   9   5  -3 682.783 20.5573  13
   9   5  -3 722.480 20.5999  12
  -9   5   3 693.114 26.4545  14
  -9   5   3 697.636 23.4283   3
  -9   5   3 659.946 22.2845   8
  -7  -5   3 898.125 26.5989  14
   7  -5  -3 923.494 24.9194   5
  -7  -5   3 883.197 26.9048  10
  -7  -5   3 941.995 25.3511   7
   7   5  -3 912.901 24.7125  12
  -7   5   3 929.931 26.5936   8
  -7   5   3 947.075 24.8924   9
   7   5  -3 843.900 23.8903   5
   7   5  -3 916.083 25.4883   1
  -7   5   3 888.376 29.3401  14
  -7   5   3 922.620 24.8546   6
   7   5  -3 830.472 24.1386  13
  -7   5   3 923.544 26.9727   3
   7   5  -3 900.855 25.4124  16
   5  -5  -3 1437.05 37.8562  11
  -5  -5   3 1424.11 38.3785   2
  -5  -5   3 1525.84 38.2457   7
   5  -5  -3 1472.27 39.5073  15
  -5  -5   3 1483.03 39.8447  10
   5   5  -3 1439.43 37.6415   5
  -5   5   3 1418.26 41.1413  14
  -5   5   3 1470.44 37.9179   9
  -5   5   3 1491.59 37.8494   6
  -5   5   3 1493.78 39.2517   8
   5   5  -3 1516.65 37.7950  12
   5   5  -3 1511.55 38.0542  16
   5   5  -3 1454.39 37.9726   1
  -5   5   3 1464.41 39.2841   3
   3  -5  -3 1159.99 29.2925  10
  -3  -5   3 1156.16 31.3254  10
  -3  -5   3 1083.52 28.8717   4
   3  -5  -3 1177.13 31.5770  15
  -3  -5   3 1135.99 29.7777   7
   3  -5  -3 1149.33 30.1756   2
   3  -5  -3 1173.80 30.1134  11
   3   5  -3 1145.88 29.2153   1
   3   5  -3 1159.71 29.4255  12
  -3   5   3 1169.04 29.4656   6
   3   5  -3 1178.23 29.8046   5
  -3   5   3 1154.96 30.6554   8
  -3   5   3 1098.63 31.2976  14
  -3   5   3 1150.13 30.2503   3
  -1  -5   3 1259.66 33.3237  10
   1  -5  -3 1257.98 32.7160   2
   1  -5  -3 1234.98 32.1297  11
  -1  -5   3 1234.44 30.8597   4
   1  -5  -3 1273.24 31.6948  10
   1  -5  -3 1268.77 33.4729  15
  -1  -5   3 1260.39 31.6519   7
  -1   5   3 1214.82 30.7959   6
  -1   5   3 1184.69 31.3174  14
   1   5  -3 1214.19 31.4530   5
   1   5  -3 1185.60 30.6122   8
  -1   5   3 1240.31 31.4860   1
   1   5  -3 1201.07 30.8276  12
  -1   5   3 1170.72 30.3438   4
  -1   5   3 1188.34 31.1113  13
   1   5  -3 1230.51 30.9848   9
  -1  -5  -3 813.750 21.9928  10
   1  -5   3 774.198 20.5578   4
  -1  -5  -3 808.467 22.9413   2
  -1  -5  -3 774.150 22.7429  15
  -1  -5  -3 768.303 21.6149  11
   1  -5   3 798.437 21.2190   7
   1   5   3 786.423 20.9693   1
   1   5   3 777.127 20.6448  13
   1   5   3 746.212 19.6785   6
  -1   5  -3 749.103 20.6466   8
  -1   5  -3 795.561 20.7815   6
  -1   5  -3 798.381 20.9618   9
   1   5   3 786.366 21.0240  16
   3  -5   3 902.363 23.9778   4
  -3  -5  -3 842.576 24.9159  15
  -3  -5  -3 913.945 26.1898   2
   3  -5   3 862.515 23.1341  13
  -3  -5  -3 841.928 24.0185  11
  -3  -5  -3 925.892 25.8813  10
   3   5   3 910.652 24.1696   1
   3   5   3 903.272 24.1104  16
   3   5   3 896.444 23.7366  13
  -3   5  -3 895.339 23.5809   6
  -3   5  -3 879.383 24.2600   8
  -3   5  -3 875.745 25.6073   3
  -3   5  -3 901.680 24.1785   9
   3   5   3 846.561 22.8445   4
  -5  -5  -3 561.678 19.0107  10
  -5  -5  -3 579.787 17.4014   3
   5  -5   3 534.408 16.6562   4
  -5  -5  -3 557.808 18.3849   2
   5  -5   3 533.727 16.0116  13
   5   5   3 574.461 15.4518  12
  -5   5  -3 550.820 15.8601   6
   5   5   3 527.304 16.6127  16
   5   5   3 542.963 16.3671  13
  -5   5  -3 546.440 19.7739  14
  -5   5  -3 552.546 16.6417   9
  -5   5  -3 532.316 18.6474   3
   5   5   3 517.660 16.4970   1
   7  -5   3 633.501 19.4619  13
  -7  -5  -3 614.972 20.9843   2
   7  -5   3 630.939 20.1086   4
   7   5   3 652.739 19.9056   1
   7   5   3 628.489 19.4141  13
  -7   5  -3 670.489 24.1057  14
   7   5   3 628.128 19.7496  16
  -7   5  -3 630.410 19.4837   9
  -7   5  -3 597.333 22.2070   3
   9  -5   3 259.772 11.2290   4
   9  -5   3 257.920 10.7272  13
  -9   5  -3 249.562 13.2369   3
   9   5   3 250.471 10.7886   1
  -9   5  -3 248.323 10.2318   9
   9   5   3 245.019 10.4189  13
  10  -6  -3 59.6081 5.03764  16
 -10  -6   3 57.5271 5.95973  10
 -10   6   3 67.1296 8.20775  14
  10   6  -3 61.4674 4.23073  12
 -10   6   3 66.4053 6.17598   8
 -10   6   3 63.6839 4.36850   9
  10   6  -3 65.4806 5.48632   1
 -10   6   3 63.0105 5.79859   3
  -8  -6   3 240.623 11.2775  10
   8  -6  -3 245.052 9.07764   5
  -8  -6   3 239.619 9.20099   7
   8   6  -3 226.594 9.42067  16
  -8   6   3 261.418 11.0480   8
   8   6  -3 235.151 9.57005   1
  -8   6   3 239.443 13.0578  14
  -8   6   3 260.025 11.2837   3
   8   6  -3 251.968 9.09323  12
  -8   6   3 252.075 9.16190   9
  -6  -6   3 602.837 18.6396   2
  -6  -6   3 626.125 20.2405  10
  -6  -6   3 653.519 18.3213   7
   6  -6  -3 625.765 17.9660  11
   6  -6  -3 623.929 19.5414  15
  -6   6   3 660.313 20.0197   3
  -6   6   3 638.667 18.0937   9
  -6   6   3 642.882 19.6733   8
   6   6  -3 635.551 17.8530  12
   6   6  -3 605.718 18.0732  16
  -6   6   3 606.820 21.6883  14
  -6   6   3 642.698 18.0096   6
   6   6  -3 609.414 18.1280   1
  -4  -6   3 301.447 11.1592  10
  -4  -6   3 289.476 10.2912   2
  -4  -6   3 303.050 9.62656   7
   4  -6  -3 309.480 9.99931   2
   4  -6  -3 310.339 11.2843  15
   4   6  -3 309.504 9.30820  12
   4   6  -3 303.512 9.28605  16
  -4   6   3 311.856 9.43941   6
  -4   6   3 295.940 10.3644   3
   4   6  -3 305.048 9.26971   1
  -4   6   3 285.309 11.3658  14
  -4   6   3 303.727 10.6270   8
   4   6  -3 291.642 9.40737   5
  -2  -6   3 1182.81 33.2945  10
  -2  -6   3 1213.10 31.4803   7
   2  -6  -3 1258.01 31.4569  10
  -2  -6   3 1142.50 30.2940   4
   2  -6  -3 1207.42 33.5248  15
   2  -6  -3 1231.01 32.0756  11
   2  -6  -3 1274.15 32.6806   2
   2   6  -3 1227.96 30.6801   9
  -2   6   3 1280.59 32.7326   8
   2   6  -3 1228.10 30.9782  12
   2   6  -3 1180.66 30.4687   1
   2   6  -3 1201.90 30.5202  16
  -2   6   3 1135.11 32.0569  14
  -2   6   3 1197.42 30.9238   6
   0  -6  -3 685.309 19.4919  11
   0  -6  -3 686.423 19.4467  10
   0  -6   3 706.959 18.9334   7
   0  -6   3 674.134 18.0060   4
   0  -6  -3 675.424 20.6765  15
   0  -6   3 720.454 20.9851  10
   0  -6  -3 697.234 20.5619   2
   0   6   3 660.010 17.7977   6
   0   6  -3 708.695 18.8316   6
   0   6  -3 647.410 18.1856   8
   0   6   3 698.718 18.8481   1
   0   6   3 673.644 18.3152  13
   0   6  -3 683.621 18.5079   9
  -2  -6  -3 302.344 10.3222  10
  -2  -6  -3 272.054 10.9359   2
  -2  -6  -3 258.155 10.3795  15
  -2  -6  -3 255.310 9.21255  11
   2  -6   3 256.130 8.34305   4
   2  -6   3 259.194 8.92975   7
   2   6   3 261.730 8.76565   1
  -2   6  -3 257.275 10.0462   3
  -2   6  -3 261.057 8.72899   9
  -2   6  -3 253.975 8.71562   8
  -2   6  -3 267.447 8.59928   6
   2   6   3 261.533 8.34092  13
   2   6   3 255.468 8.80375  16
  -4  -6  -3 582.245 18.8328  10
  -4  -6  -3 556.527 18.6047   2
   4  -6   3 553.643 16.4270   4
  -4  -6  -3 505.172 16.0074  11
   4   6   3 558.866 16.6143  16
  -4   6  -3 531.933 16.8289   8
   4   6   3 562.587 16.6151   1
  -4   6  -3 550.950 15.9888   6
  -4   6  -3 538.589 18.3287   3
   4   6   3 551.583 16.0366  13
  -4   6  -3 549.768 16.4489   9
  -6  -6  -3 63.2492 6.15607  10
   6  -6   3 58.4523 4.48780   4
  -6  -6  -3 50.4237 5.11824   2
   6   6   3 57.3416 4.15054  13
   6   6   3 58.5578 4.14400  16
  -6   6  -3 62.3970 4.00957   6
  -6   6  -3 54.0914 4.29083   9
  -6   6  -3 53.9981 5.47609   3
   6   6   3 52.5205 4.35434   1
   8  -6   3 75.8083 5.76567   4
  -8  -6  -3 89.9430 6.29065   2
  -8   6  -3 78.3737 7.23963   3
   8   6   3 82.2935 5.60999  13
   8   6   3 79.1686 5.36655   1
  -8   6  -3 77.3351 5.18808   9
  -9  -7   3 532.864 19.8239  10
   9  -7  -3 525.156 17.4773  16
   9  -7  -3 544.051 16.3336  12
   9   7  -3 497.158 17.2324  16
  -9   7   3 515.390 16.4895   9
  -9   7   3 504.157 22.4083  14
   9   7  -3 507.866 16.4349  12
   9   7  -3 528.318 17.5268   1
  -9   7   3 531.470 19.4305   3
  -9   7   3 572.919 19.6451   8
   7  -7  -3 29.4511 3.04503  11
  -7  -7   3 27.1043 3.13758   7
  -7  -7   3 33.9051 4.75102  10
  -7   7   3 33.1341 3.65725   3
  -7   7   3 30.1789 4.00958   8
  -7   7   3 33.3711 5.13596  14
  -7   7   3 33.7625 3.15701   9
   7   7  -3 28.0540 2.76986  12
  -7   7   3 27.1950 3.03468   6
   7   7  -3 34.3298 3.19413  16
   7   7  -3 33.3703 2.99862   1
   5  -7  -3 1357.95 38.1653  15
  -5  -7   3 1372.26 38.5918  10
   5  -7  -3 1354.49 36.2980   2
  -5  -7   3 1357.86 35.9348   7
  -5  -7   3 1332.59 37.0504   2
  -5   7   3 1380.84 37.5525   3
   5   7  -3 1386.39 35.6323  12
  -5   7   3 1405.89 37.6797   8
   5   7  -3 1333.92 35.6576   1
  -5   7   3 1319.30 39.3727  14
   5   7  -3 1333.99 35.6304  16
  -5   7   3 1408.00 35.8543   6
   3  -7  -3 369.005 11.9024   2
   3  -7  -3 342.598 12.7453  15
  -3  -7   3 345.571 10.8285   7
  -3  -7   3 363.880 13.0468  10
  -3  -7   3 362.014 12.4397   2
  -3   7   3 361.111 12.2103   8
   3   7  -3 365.442 10.6786  12
   3   7  -3 338.810 10.2485   1
  -3   7   3 333.333 12.2080  14
   3   7  -3 350.440 10.3173  16
  -3   7   3 344.814 10.5610   6
  -1  -7   3 3157.03 79.1252  10
   1  -7  -3 3193.36 78.3087   2
  -1  -7   3 3053.53 76.3621   7
   1  -7  -3 3047.53 76.8150  10
   1  -7  -3 3030.17 78.8562  15
   1  -7  -3 3116.44 77.3037  11
  -1   7   3 3075.62 77.6656   8
   1   7  -3 3032.03 75.7582   9
   1   7  -3 3012.23 76.3432   6
   1   7  -3 3014.67 75.5881  12
  -1   7   3 2956.58 75.5135   6
  -1   7   3 2979.02 75.7642  13
   1  -7   3 536.739 15.9366   7
  -1  -7  -3 548.406 16.6235  11
  -1  -7  -3 541.457 17.9177  15
  -1  -7  -3 572.585 18.2877   2
  -1  -7  -3 559.024 17.0395  10
   1   7   3 539.017 15.8866  16
   1   7   3 547.006 15.2544  13
   1   7   3 531.072 15.7729   1
  -1   7  -3 555.076 15.7766   6
  -1   7  -3 511.070 15.4529   8
  -1   7  -3 541.303 15.6121   9
  -3  -7  -3 1681.84 45.6010  11
  -3  -7  -3 1787.47 47.2992  10
  -3  -7  -3 1648.58 46.8888  15
   3  -7   3 1754.64 45.3924   7
   3  -7   3 1766.22 44.6485   4
  -3  -7  -3 1751.10 47.9351   2
   3   7   3 1752.05 45.2273   1
  -3   7  -3 1639.55 45.1354   8
  -3   7  -3 1737.35 44.7225   6
  -3   7  -3 1738.73 47.4921   3
   3   7   3 1719.71 44.3678  13
   3   7   3 1758.90 45.2816  16
  -3   7  -3 1750.62 45.1195   9
  -5  -7  -3 89.4797 6.80567   2
  -5  -7  -3 98.9577 7.10212  10
   5  -7   3 90.1131 5.14064   4
  -5   7  -3 88.4090 5.21221   9
   5   7   3 88.5634 4.65258  13
  -5   7  -3 87.6120 6.62395   3
   5   7   3 88.9986 5.24758  16
  -5   7  -3 92.8173 4.73485   6
   5   7   3 93.0764 5.45395   1
  -7  -7  -3 445.723 17.8909  10
   7  -7   3 439.156 15.1699   4
  -7  -7  -3 402.495 16.0422   2
  -7   7  -3 421.365 14.6714   9
  -7   7  -3 413.718 13.8177   6
   7   7   3 413.853 14.2153  13
  -7   7  -3 437.190 17.8927   3
   7   7   3 429.647 15.0710   1
 -10  -8   3 28.2621 4.82542  10
 -10   8   3 32.7197 4.67998   3
 -10   8   3 29.1048 5.82026  14
  10   8  -3 33.9916 3.46793  12
  10   8  -3 37.6274 4.32166   1
 -10   8   3 31.2551 5.11656   8
  -8  -8   3 139.133 9.20993  10
  -8  -8   3 137.007 6.74871   7
   8  -8  -3 144.555 6.74066   5
  -8   8   3 145.021 6.95495   6
   8   8  -3 130.318 6.75047   1
  -8   8   3 139.351 8.40763   3
   8   8  -3 140.017 7.01110  16
  -8   8   3 139.090 8.13741   8
   8   8  -3 137.840 6.57106  12
  -8   8   3 133.589 10.0216  14
  -6  -8   3 290.223 12.8249  10
   6  -8  -3 277.823 11.9830  15
   6  -8  -3 290.473 10.3925  11
  -6  -8   3 265.470 11.1777   2
  -6  -8   3 276.061 9.79589   7
  -6   8   3 279.035 11.5634   3
  -6   8   3 253.566 12.6538  14
   6   8  -3 292.782 10.1177   1
   6   8  -3 278.047 9.66658  12
   6   8  -3 278.903 10.0064  16
  -6   8   3 303.030 10.1326   6
  -6   8   3 291.951 11.6557   8
   4  -8  -3 33.7002 3.41043   2
  -4  -8   3 40.5333 4.05898   2
   4  -8  -3 39.7040 4.31682  15
  -4  -8   3 46.7267 3.29176   7
  -4  -8   3 49.8347 5.18141  10
  -4   8   3 37.7402 3.78509   8
   4   8  -3 48.2987 3.14102  12
   4   8  -3 43.9161 2.82609   1
   4   8  -3 41.5581 2.76368  16
  -4   8   3 38.0585 3.95992  14
  -4   8   3 35.2727 2.69450   6
  -2  -8   3 470.721 16.0667  10
   2  -8  -3 433.596 15.8063  15
   2  -8  -3 441.268 14.3020  11
   2  -8  -3 462.693 14.2490  10
  -2  -8   3 445.760 13.4370   7
   2  -8  -3 446.470 14.9546   2
   2   8  -3 445.316 13.5940   6
  -2   8   3 430.232 12.9471   6
  -2   8   3 450.632 14.9030   8
   2   8  -3 435.715 12.9257  12
   0  -8  -3 181.633 7.72639  11
   0  -8  -3 174.508 8.66523  15
   0  -8  -3 183.635 8.68370   2
   0  -8  -3 183.231 7.55356  10
   0  -8   3 177.331 8.73808  10
   0  -8   3 166.054 6.57557   7
   0   8   3 167.252 7.66893   8
   0   8   3 182.691 7.00404   1
   0   8  -3 176.905 6.53067   9
   0   8   3 171.500 5.97848   6
   0   8   3 171.604 6.13296  13
   0   8  -3 172.486 6.72035   6
  -2  -8  -3 121.551 6.86981  10
  -2  -8  -3 123.271 6.48123  11
  -2  -8  -3 111.141 6.72416  15
   2  -8   3 116.548 5.58748   7
  -2  -8  -3 118.650 7.86271   2
   2   8   3 120.783 5.71196  16
   2   8   3 124.062 5.03237  13
  -2   8  -3 117.019 6.20745   8
  -2   8  -3 116.201 5.40000   9
  -2   8  -3 119.031 5.40184   6
   2   8   3 112.349 5.60266   1
  -4  -8  -3 399.770 14.8693  10
   4  -8   3 362.380 12.7985   7
  -4  -8  -3 389.152 15.4017   2
   4   8   3 362.503 11.8462  13
  -4   8  -3 369.845 12.6973   9
   4   8   3 368.875 12.7574   1
  -4   8  -3 387.913 12.5065   6
   4   8   3 374.645 12.8457  16
  -4   8  -3 354.503 13.0551   8
   6  -8   3 72.9592 5.14114   7
  -6  -8  -3 66.1288 6.15132   2
  -6  -8  -3 69.4029 6.21846  10
  -6   8  -3 72.1736 5.15641   9
  -6   8  -3 79.7768 4.89411   6
  -6   8  -3 76.8708 6.75820   3
   6   8   3 50.7805 4.93720  13
   6   8   3 71.3825 4.94649  16
   6   8   3 76.1914 5.03393   1
  -9  -9   3 286.805 14.0971  10
  -9   9   3 270.926 15.5255  14
   9   9  -3 265.818 11.0003   1
  -9   9   3 277.591 12.9436   3
  -9   9   3 291.415 13.4933   8
   9   9  -3 283.119 10.7282  12
  -7  -9   3 860.847 27.9974  10
  -7  -9   3 854.350 24.2303   7
   7   9  -3 819.147 24.4326   1
  -7   9   3 770.216 28.8570  14
   7   9  -3 797.856 24.2866  16
  -7   9   3 826.010 24.2515   6
   7   9  -3 871.185 24.2795  12
  -7   9   3 870.167 27.2133   8
  -7   9   3 904.937 27.3650   3
  -5  -9   3 413.883 13.2047   7
  -5  -9   3 426.112 16.4192  10
  -5  -9   3 415.254 15.2260   2
   5  -9  -3 412.165 14.2775   2
   5  -9  -3 459.286 14.6200  11
  -5   9   3 436.026 15.4200   8
   5   9  -3 418.398 13.1987  16
  -5   9   3 380.826 16.2030  14
   5   9  -3 417.400 13.2940  12
  -5   9   3 418.055 13.3260   6
   5   9  -3 413.822 13.1400   1
  -3  -9   3 710.860 22.5165   2
   3  -9  -3 740.612 21.5564  11
  -3  -9   3 733.012 23.2206  10
   3  -9  -3 697.287 23.3498  15
  -3  -9   3 701.676 20.1262   7
   3  -9  -3 713.561 21.9433   2
  -3   9   3 722.745 22.2277   8
  -3   9   3 697.447 19.9758   6
   3   9  -3 714.850 19.9728  12
   3   9  -3 691.349 20.4417   6
   1  -9  -3 212.567 9.45294   2
   1  -9  -3 184.650 8.24597  11
   1  -9  -3 179.883 9.34556  15
  -1  -9   3 183.521 9.10585  10
  -1  -9   3 183.313 7.13846   7
   1  -9  -3 177.888 7.65416  10
  -1   9   3 176.172 6.59932   6
  -1   9   3 185.124 8.52551   8
   1   9  -3 189.885 6.88242   9
   1   9  -3 174.540 7.30738   6
   1  -9   3 479.685 17.2806  10
  -1  -9  -3 469.267 16.0615  10
  -1  -9  -3 465.824 17.2786   2
  -1  -9  -3 454.674 17.0668  15
   1  -9   3 471.934 14.6051   7
  -1  -9  -3 489.415 15.9105  11
  -1   9  -3 462.296 14.6745   6
   1   9   3 457.744 14.6747   1
  -1   9  -3 477.312 14.5695   9
   3  -9   3 182.250 9.73782  10
  -3  -9  -3 166.881 8.16945  11
  -3  -9  -3 160.333 8.47882  10
  -3  -9  -3 173.981 9.61803   2
   3  -9   3 167.339 7.38148   7
  -3   9  -3 151.493 7.31729   8
   3   9   3 170.865 7.52389  16
  -3   9  -3 167.936 7.26382   9
  -3   9  -3 163.170 7.25249   6
   3   9   3 164.876 7.47660   1
   5  -9   3 587.405 18.5888   7
  -5  -9  -3 617.721 21.4958  10
  -5  -9  -3 569.867 20.9479   2
   5   9   3 543.357 18.3420  16
  -5   9  -3 588.509 18.7041   9
   5   9   3 592.115 18.8254   1
  -5   9  -3 582.361 18.0215   6
   7  -9   3 216.053 9.58853   7
  -7  -9  -3 233.825 12.3906  10
  -7  -9  -3 223.241 11.2634   2
  -7   9  -3 226.716 9.23817   6
   7   9   3 213.896 9.84185   1
  -7   9  -3 206.248 9.71334   9
  -8 -10   3 14.5537 4.44784  10
   8 -10  -3 9.33296 2.59519   5
   8  10  -3 8.85345 2.36525   1
  -8  10   3 10.3974 2.22434   6
  -8  10   3 9.62014 3.39940   8
  -8  10   3 17.1484 3.78212   3
   8  10  -3 11.6665 2.22907  12
  -8  10   3 9.58237 3.19645  14
  -6 -10   3 83.5966 6.74580   2
   6 -10  -3 88.2681 6.12865  11
  -6 -10   3 83.2286 7.19276  10
  -6  10   3 77.5913 6.09107   8
   6  10  -3 84.3634 5.06201   6
   6  10  -3 78.1865 4.95028  12
  -6  10   3 73.4754 6.85820  14
  -6  10   3 75.8538 5.09337   6
   4 -10  -3 4.16464 1.93435  11
   4 -10  -3 7.75396 2.54833   2
  -4 -10   3 5.15247 1.80296   7
  -4 -10   3 4.21472 2.70930   2
  -4 -10   3 4.12740 3.16432  10
  -4  10   3 6.23395 2.53521   8
   4  10  -3 6.84962 1.79724  12
  -4  10   3 3.92139 1.75399   6
   4  10  -3 4.88895 1.52549   6
  -2 -10   3 133.914 7.97687  10
  -2 -10   3 115.350 7.43067   2
   2 -10  -3 119.933 6.63499  11
   2 -10  -3 126.220 7.61766   2
  -2 -10   3 114.798 5.52917   7
  -2  10   3 126.280 7.31583   8
  -2  10   3 125.100 5.56144   6
   2  10  -3 130.043 6.19937   6
   0 -10   3 37.8631 4.41696  10
   0 -10  -3 25.9480 4.59681   2
   0 -10  -3 16.0146 2.75938  10
   0 -10   3 18.5655 2.48631   7
   0 -10  -3 18.2133 3.40058  11
   0  10   3 26.4276 3.78815   8
   0  10  -3 25.2817 2.74384   9
   0  10  -3 30.6123 3.39170   6
  -2 -10  -3 2.62626 2.33087  10
   2 -10   3 1.47828 1.71212  10
  -2 -10  -3 2.84159 2.53846  11
   2 -10   3 0.80118 1.35696   7
  -2 -10  -3 2.27076 3.29608   2
   2  10   3 2.45248 1.76096   1
  -2  10  -3 6.48519 2.00593   9
  -2  10  -3 1.13136 1.22382   6
  -4 -10  -3 82.3948 7.52979   2
   4 -10   3 87.7337 7.44912  10
   4 -10   3 89.4075 5.46351   7
  -4 -10  -3 95.9929 7.33426  10
  -4  10  -3 83.6354 5.24506   9
  -4  10  -3 86.8754 5.49081   6
   4  10   3 85.8623 5.60987  16
   4  10   3 88.5605 5.47161   1
  -6 -10  -3 8.11807 3.19513  10
  -6 -10  -3 9.87016 3.35353   2
  -6  10  -3 13.1706 2.68814   6
  -6  10  -3 12.6152 2.82817   9
   6  10   3 11.2102 2.83305   1
   7 -11  -3 50.5679 5.24672  11
  -7 -11   3 54.8165 6.88631  10
   7  11  -3 51.8492 4.41232  12
  -7  11   3 70.3281 6.64157   8
  -7  11   3 61.5870 4.84056   6
  -7  11   3 47.4000 6.35332  14
  -5 -11   3 365.022 16.5631  10
  -5 -11   3 360.094 15.5686   2
   5 -11  -3 384.549 14.6176   2
   5 -11  -3 401.114 14.7784  11
  -5  11   3 386.938 15.3977   8
   5  11  -3 380.196 12.7614  12
   5  11  -3 388.414 13.2436   6
  -5  11   3 372.393 13.0463   6
  -3 -11   3 281.660 13.3566  10
   3 -11  -3 291.724 11.8205  11
   3 -11  -3 271.799 12.0561   2
  -3 -11   3 285.252 12.8117   2
  -3  11   3 265.054 9.84153   6
   3  11  -3 260.104 10.1658   6
  -3  11   3 274.407 12.0003   8
  -1 -11   3 915.898 29.3817   2
  -1 -11   3 950.142 30.1316  10
   1 -11  -3 908.923 27.8589  11
   1 -11  -3 916.840 29.2604   2
  -1  11   3 889.989 25.5045   6
   1  11  -3 974.330 26.9858   6
  -1  11   3 963.177 28.7230   8
  -1 -11  -3 443.040 16.2050  11
  -1 -11  -3 457.558 18.1330   2
   1 -11   3 473.714 18.2467  10
  -1  11  -3 453.602 15.2113   6
   1  11   3 449.120 16.6602   8
  -1  11  -3 462.477 14.9370   9
   3 -11   3 589.126 21.2124  10
  -3 -11  -3 575.119 21.7580   2
  -3 -11  -3 566.725 20.0423  10
  -3 -11  -3 548.361 18.9789  11
  -3  11  -3 546.847 17.8882   6
   3  11   3 552.837 18.2204   1
   3  11   3 543.749 19.2096   8
  -3  11  -3 596.552 18.4805   9
  -5 -11  -3 154.638 9.59470   2
   5 -11   3 173.111 10.2108  10
  -5 -11  -3 160.430 9.73284  10
  -5  11  -3 156.336 7.54181   6
  -5  11  -3 152.543 8.06690   9
   5  11   3 159.744 8.19121   1
  -6 -12   3 28.9093 5.40542   2
  -6 -12   3 36.2368 6.03246  10
   6 -12  -3 43.6154 4.74428  11
  -6  12   3 42.1093 4.23208   6
  -6  12   3 41.6208 5.29352   8
   4 -12  -3 265.593 12.1925   2
  -4 -12   3 262.692 13.1060   2
  -4 -12   3 271.648 13.9001  10
   4 -12  -3 253.361 11.4628  11
   4  12  -3 264.283 10.3868   6
  -4  12   3 270.327 10.2826   6
  -4  12   3 275.561 12.3500   8
  -2 -12   3 43.2471 5.72874   2
   2 -12  -3 42.0963 5.51575   2
  -2 -12   3 38.5850 5.26585  10
   2 -12  -3 38.4757 4.81321  11
  -2  12   3 37.8114 4.82155   8
   2  12  -3 38.3382 3.65183   6
  -2  12   3 38.3592 3.45837   6
   0 -12  -3 153.052 8.14251  11
   0 -12   3 137.620 9.12923   2
   0 -12  -3 136.635 9.49120   2
   0 -12   3 140.595 9.43549  10
   0  12  -3 147.317 7.19581   6
   0  12   3 143.635 8.12485   8
  -2 -12  -3 163.436 10.6873   2
   2 -12   3 158.348 9.82001   2
  -2 -12  -3 149.444 8.50505  11
   2 -12   3 149.150 9.82100  10
  -2  12  -3 164.116 7.80840   9
   2  12   3 169.075 9.22787   8
  -2  12  -3 164.848 8.06441   6
   3 -13  -3 7.79202 2.86707   2
  -3 -13   3 3.46743 3.69620  10
  -3 -13   3 6.84733 3.69140   2
   3 -13  -3 7.07194 3.25351  11
  -3  13   3 5.31472 1.99947   6
   3  13  -3 11.6961 2.60169   6
  -3  13   3 6.95386 2.89257   8
   1 -13  -3 520.946 20.2389   2
  -1 -13   3 535.094 20.3240   2
   1 -13  -3 523.905 18.9341  11
  -1 -13   3 538.706 20.7155  10
  -1  13   3 542.463 19.4708   8
   1  13  -3 530.951 17.5203   6
  -1 -13  -3 3.51656 3.71024   2
   1 -13   3 3.31275 2.91997  10
   1 -13   3 2.79142 2.19775   2
  -1 -13  -3 2.41392 2.77788  11
  -1  13  -3 4.30544 1.80403   6
   1  13   3 2.99327 2.31126   8
 -12   0   4 1574.19 46.0495   3
  12   0  -4 1459.22 43.4002   1
 -12   0   4 1529.71 47.6155  14
  12   0  -4 1486.79 40.9170  12
  10   0  -4 90.9567 6.10031  16
  10   0  -4 99.5810 6.11705   1
 -10   0   4 96.2457 7.94173  14
  10   0  -4 98.5812 5.37454  12
 -10   0   4 90.3059 6.61354   3
   8   0  -4 3307.45 83.4251   1
   8   0  -4 3271.71 82.2017  12
  -8   0   4 3388.38 86.7662  14
  -8   0   4 3228.39 84.1669   3
   8   0  -4 3272.02 83.3530  16
   8   0  -4 3245.02 81.6645   5
  -6   0   4 105.286 4.89131   3
   6   0  -4 106.094 4.19092  15
   6   0  -4 110.632 4.79138  16
  -6   0   4 108.739 4.36119   7
  -6   0   4 98.3946 4.18027   8
   6   0  -4 102.734 4.24140   5
   6   0  -4 104.234 4.36178  12
  -6   0   4 97.4594 4.06981  10
  -6   0   4 108.241 5.99107  14
  -4   0   4 2877.69 74.9525  10
  -4   0   4 2888.14 75.4415   8
   4   0  -4 3083.17 81.3615  15
  -4   0   4 3059.68 73.7373   7
   4   0  -4 3014.41 73.6762  12
  -4   0   4 3006.67 74.0087   4
   4   0  -4 3037.44 73.9967   5
   4   0  -4 2984.44 75.4533  11
  -2   0   4 14.8001 1.16225   4
  -2   0   4 15.7970 1.13510  13
   2   0  -4 13.6616 1.24831   5
   2   0  -4 18.8353 1.34569  11
   2   0  -4 12.8013 1.56758  15
   2   0  -4 13.9369 0.98715  12
  -2   0   4 13.3063 1.03770   7
   2   0  -4 12.9413 1.06683   2
   0   0  -4 2665.48 66.3238  11
   0   0  -4 2774.50 72.7674  15
   0   0  -4 2705.51 68.8195   3
   0   0  -4 2616.72 69.0044   2
   0   0   4 2627.66 67.2174  13
   0   0  -4 2720.06 69.4173   5
   0   0   4 2629.48 66.5304   1
   0   0   4 2705.99 66.1433   4
  -2   0  -4 564.652 15.8104   3
  -2   0  -4 567.136 16.7186   2
   2   0   4 593.306 16.0082   4
  -2   0  -4 585.555 15.7694  11
   2   0   4 589.881 15.8639  13
   2   0   4 587.208 15.2801  16
   2   0   4 564.001 15.2206   1
   4   0   4 2635.27 65.9863   1
   4   0   4 2690.98 66.7775  13
  -4   0  -4 2591.59 66.6243   9
   4   0   4 2679.48 66.0296  16
  -4   0  -4 2655.63 67.9451   2
   4   0   4 2783.11 67.0665   4
  -4   0  -4 2519.08 67.2532   3
  -4   0  -4 2584.32 65.7923  11
  -6   0  -4 375.559 13.8487   3
   6   0   4 383.704 12.2215  16
   6   0   4 384.448 13.0710   4
   6   0   4 386.775 13.0332  13
   6   0   4 386.533 12.2411   1
  -6   0  -4 369.351 12.4944   9
  -8   0  -4 930.963 27.8616   9
   8   0   4 1002.57 29.1825  13
   8   0   4 1015.63 29.5072   4
  -8   0  -4 978.524 30.5814   3
  11  -1  -4 46.5982 4.97056   1
  11  -1  -4 50.8072 3.83245  12
 -11  -1   4 55.6543 6.55034  14
 -11  -1   4 57.4004 5.89247   3
  11  -1  -4 45.5765 4.41292  16
 -11   1   4 52.4560 5.88113   3
 -11   1   4 52.0837 6.87832  14
  11   1  -4 52.9334 5.61623   1
  11   1  -4 57.9844 4.05579  12
  11   1  -4 44.0710 4.91289  16
   9  -1  -4 30.4123 3.58629  16
  -9  -1   4 28.3299 3.84582   3
  -9  -1   4 28.0534 4.35812  14
  -9  -1   4 30.2485 3.09256  10
   9  -1  -4 24.4126 3.30319   1
   9  -1  -4 26.3719 2.92807  12
   9   1  -4 32.2877 3.26593  12
   9   1  -4 30.0204 3.53979  16
  -9   1   4 29.3415 4.68050  14
  -9   1   4 27.4654 3.58904   3
   9   1  -4 24.5466 3.12743   1
  -7  -1   4 561.117 16.1708   7
   7  -1  -4 548.409 15.6624   5
   7  -1  -4 577.658 16.8065  16
   7  -1  -4 561.865 15.8974  12
  -7  -1   4 555.137 16.3853  10
  -7  -1   4 585.434 18.7993  14
   7   1  -4 549.770 15.8938  12
   7   1  -4 550.869 16.5993   1
  -7   1   4 539.839 16.2826   8
   7   1  -4 550.242 15.5330   5
   7   1  -4 557.165 16.5503  16
  -7   1   4 547.178 17.0936   3
  -7   1   4 565.672 19.1036  14
  -5  -1   4 14.2358 1.67439   7
   5  -1  -4 18.2798 1.30874  11
   5  -1  -4 16.4342 1.86511  15
  -5  -1   4 17.9090 1.28221   8
   5  -1  -4 17.8948 1.61136   5
   5  -1  -4 18.3334 1.51250  12
  -5  -1   4 14.9919 1.66858  10
   5   1  -4 14.9798 1.02016  11
  -5   1   4 14.7645 1.47907   8
  -5   1   4 14.9595 2.26393  14
  -5   1   4 18.4135 1.57955   7
   5   1  -4 14.3120 1.46409  15
   5   1  -4 13.2178 1.50537   5
   5   1  -4 19.1221 1.51727  12
  -5   1   4 14.2957 1.59775   3
   5   1  -4 15.9762 1.54116  16
   3  -1  -4 313.278 8.87779  11
   3  -1  -4 310.731 9.02440   5
   3  -1  -4 297.441 8.13438   2
  -3  -1   4 300.035 8.76804   4
  -3  -1   4 307.527 8.72831  10
  -3  -1   4 304.548 8.65399   7
   3  -1  -4 318.220 9.92062  15
   3   1  -4 303.385 8.54098  11
  -3   1   4 289.616 8.39974   3
  -3   1   4 303.369 8.71824   8
  -3   1   4 308.409 8.34000   7
   3   1  -4 317.914 9.56499  15
  -3   1   4 313.472 8.82955   4
   3   1  -4 290.597 8.72423   5
   3   1  -4 301.916 8.45434  12
  -1  -1   4 390.333 10.0790  13
  -1  -1   4 370.826 10.3170   7
   1  -1  -4 386.684 11.6392  15
  -1  -1   4 374.048 10.4267   4
   1  -1  -4 376.088 10.4095   5
   1  -1  -4 384.753 10.7682   2
   1  -1  -4 379.351 10.7259  11
   1   1  -4 372.969 9.67367  12
  -1   1   4 372.257 9.91730   7
   1   1  -4 371.897 10.4845  11
   1   1  -4 381.896 11.3925  15
   1   1  -4 376.713 10.3020   5
  -1   1   4 371.148 10.2984   4
  -1   1   4 365.581 10.2626  13
   1  -1   4 136.882 4.05790   1
  -1  -1  -4 146.731 5.63409   2
  -1  -1  -4 141.081 4.95959  11
  -1  -1  -4 140.437 4.34501   3
  -1  -1  -4 146.747 5.64968  15
   1  -1   4 139.730 4.92430   4
   1  -1   4 136.501 4.05797  16
  -1  -1  -4 142.166 4.29873   5
   1  -1   4 137.113 4.65384  13
  -1   1  -4 138.284 4.80905   3
   1   1   4 142.811 4.51631   1
  -1   1  -4 141.279 4.32676   5
   1   1   4 139.832 4.85316  13
   1   1   4 141.932 4.78523   4
  -1   1  -4 138.592 4.12148   6
   1   1   4 140.546 4.51084  16
  -1   1  -4 147.401 4.99160  11
   3  -1   4 400.727 12.0027   4
   3  -1   4 381.783 11.6190  13
  -3  -1  -4 401.772 12.8767   2
   3  -1   4 382.610 10.9182   1
  -3  -1  -4 376.417 11.2925  11
  -3  -1  -4 413.849 12.1478  15
  -3  -1  -4 379.010 11.7277   3
   3  -1   4 394.728 10.9560  16
  -3   1  -4 390.872 11.3725  11
  -3   1  -4 403.897 11.9185   9
   3   1   4 395.326 11.3532  16
  -3   1  -4 388.233 12.1739   3
   3   1   4 392.421 11.3134   1
   3   1   4 396.871 11.7749  13
   3   1   4 395.707 11.7483   4
  -5  -1  -4 11.6636 2.13278   3
  -5  -1  -4 14.4989 2.16881   9
   5  -1   4 11.7221 2.04809   4
   5  -1   4 11.5051 1.62018   1
  -5  -1  -4 9.91476 2.04653   2
   5  -1   4 10.0233 1.51224  16
   5  -1   4 10.0539 1.76132  13
   5   1   4 11.7628 1.79130  16
   5   1   4 10.8626 2.02908   4
   5   1   4 12.1878 1.70529   1
   5   1   4 12.9284 2.18364  13
  -5   1  -4 13.4257 2.33858   3
  -5   1  -4 14.6451 2.18778   9
   7  -1   4 12.8196 2.33601  13
   7  -1   4 12.8164 2.68602   4
  -7  -1  -4 14.9922 2.94735   3
  -7  -1  -4 15.6075 2.42097   9
   7   1   4 12.9796 2.36827   4
   7   1   4 17.5933 2.37401  16
   7   1   4 18.7343 2.54305   1
  -7   1  -4 13.1223 2.41330   9
   7   1   4 15.9547 2.82203  13
  -7   1  -4 15.3018 3.01073   3
   9  -1   4 77.8192 5.66320  13
   9  -1   4 80.1489 6.25677   4
   9   1   4 76.7384 5.97147  13
   9   1   4 82.2039 6.16571   4
  12  -2  -4 87.7395 6.85863   1
 -12  -2   4 91.3894 7.70076   3
  12   2  -4 99.6455 7.20995   1
  12   2  -4 77.4154 6.13626  13
 -12   2   4 96.5176 9.29953  14
 -12   2   4 92.7710 7.28760   3
  10  -2  -4 326.019 12.9167  16
 -10  -2   4 344.055 14.1422   3
 -10  -2   4 328.723 12.6932  10
 -10  -2   4 351.429 15.0505  14
  10  -2  -4 330.667 12.9685   1
  10  -2  -4 323.844 11.5175  12
  10   2  -4 344.099 13.1986   1
  10   2  -4 364.741 11.9671  12
  10   2  -4 321.937 12.7303  16
 -10   2   4 354.830 16.3580  14
 -10   2   4 339.951 14.2404   3
   8  -2  -4 211.663 7.59885   5
  -8  -2   4 226.119 8.17626   7
   8  -2  -4 218.174 7.79354  12
  -8  -2   4 222.694 10.3569  14
   8  -2  -4 209.827 8.65421  16
  -8  -2   4 209.798 8.60947  10
   8   2  -4 205.926 7.19191   5
  -8   2   4 198.232 8.35306   8
  -8   2   4 227.272 9.37543   3
   8   2  -4 214.387 8.45068   1
   8   2  -4 216.383 7.78245  12
  -8   2   4 219.896 10.9067  14
   8   2  -4 218.267 8.57748  16
  -6  -2   4 2435.34 61.7560  10
  -6  -2   4 2422.32 61.1055   7
   6  -2  -4 2430.20 60.1619  11
   6  -2  -4 2460.40 60.8778  12
   6  -2  -4 2463.67 61.6781  15
   6  -2  -4 2457.44 61.0787   5
   6   2  -4 2523.25 60.9156  12
   6   2  -4 2386.46 61.2041  16
   6   2  -4 2393.87 60.6726   5
  -6   2   4 2369.69 61.4551   8
  -6   2   4 2387.28 61.9130   3
  -6   2   4 2448.58 64.2191  14
   6   2  -4 2397.44 61.2341   1
   4  -2  -4 1696.39 43.7757  15
  -4  -2   4 1669.32 42.3605   4
  -4  -2   4 1641.21 42.7534  10
   4  -2  -4 1733.76 42.7692   5
  -4  -2   4 1697.24 42.4284   7
   4  -2  -4 1767.68 42.5991  11
   4   2  -4 1669.14 41.8409  11
   4   2  -4 1683.29 42.2023   1
   4   2  -4 1660.83 42.3728   5
   4   2  -4 1665.58 42.1909  16
  -4   2   4 1624.98 44.1894  14
  -4   2   4 1661.53 42.5483   3
  -4   2   4 1689.11 41.7946   7
   4   2  -4 1711.69 42.1715  12
  -4   2   4 1689.73 42.4731   4
  -4   2   4 1684.19 42.7013   8
  -2  -2   4 7530.74 209.676  10
  -2  -2   4 7720.17 204.516  13
   2  -2  -4 8672.21 209.558   2
   2  -2  -4 8224.44 210.686  11
  -2  -2   4 8235.90 207.862   7
   2  -2  -4 8519.58 218.512  15
   2  -2  -4 8602.29 209.983   5
  -2  -2   4 8280.74 207.816   4
  -2   2   4 8412.42 203.637   7
  -2   2   4 8761.43 207.914   4
  -2   2   4 8679.42 208.777  13
   2   2  -4 8280.92 208.588   5
   2   2  -4 7471.25 207.879  11
   2   2  -4 8138.56 203.824  16
   2   2  -4 8523.58 205.330  12
   0  -2  -4 1137.07 29.5624  15
   0  -2   4 1064.30 27.3980  13
   0  -2   4 1062.30 27.9933   7
   0  -2   4 1078.49 27.9459   4
   0  -2  -4 1129.56 28.5398  11
   0  -2  -4 1092.36 27.8127   5
   0  -2  -4 1119.23 28.9302   2
   0   2   4 1099.25 27.7062   1
   0   2   4 1101.05 27.8886  13
   0   2  -4 1086.65 28.1103  11
   0   2   4 1077.20 27.7014   4
   0   2  -4 1074.62 27.6736   5
   0   2  -4 1097.46 27.9168   9
   0   2   4 1097.26 27.7307  16
  -2  -2  -4 3219.93 83.9418  11
   2  -2   4 3513.33 83.8010  13
  -2  -2  -4 3395.24 84.6914   5
   2  -2   4 3468.45 84.2519   4
  -2  -2  -4 3386.25 84.9125  15
   2  -2   4 3367.38 84.2899   1
   2  -2   4 3462.80 85.6063  16
  -2  -2  -4 3172.20 83.5555   3
  -2  -2  -4 3317.57 85.3787   2
  -2   2  -4 3324.32 83.6767   5
   2   2   4 3357.26 83.7864   4
  -2   2  -4 3494.99 84.2631   9
   2   2   4 3445.13 83.7685   1
  -2   2  -4 3343.10 84.5840   3
   2   2   4 3508.39 83.8414  16
   2   2   4 3524.95 84.1306  13
  -2   2  -4 3362.15 83.1478   6
  -2   2  -4 3455.25 84.0021  11
   4  -2   4 39.6171 2.88070  13
   4  -2   4 40.5100 2.27244  16
   4  -2   4 43.7395 3.25639   4
  -4  -2  -4 40.0488 2.94383   3
  -4  -2  -4 39.8805 2.40600  11
  -4  -2  -4 40.1889 3.60793   2
   4   2   4 38.2246 3.02981  13
   4   2   4 40.9960 2.95856   4
   4   2   4 41.3808 2.81243   1
  -4   2  -4 41.1015 3.37182   3
   4   2   4 38.2984 2.73024  16
  -6  -2  -4 707.357 21.8408   3
  -6  -2  -4 741.699 22.5612   2
  -6  -2  -4 695.463 20.5705   9
   6  -2   4 702.004 21.4207   4
   6  -2   4 707.964 21.0320  13
  -6   2  -4 691.140 20.7594   9
  -6   2  -4 697.562 22.5899   3
   6   2   4 740.594 21.1923   4
   6   2   4 708.237 21.1493  13
   6   2   4 694.704 20.5967   1
   6   2   4 698.546 20.5231  16
   8  -2   4 19.2243 3.40124   4
   8  -2   4 23.6291 3.57226  13
   8   2   4 19.9574 2.90795  16
   8   2   4 23.1035 3.39496   4
  -8   2  -4 21.4705 3.65995   3
  -8   2  -4 22.6713 3.19668   9
   8   2   4 20.4274 3.43845  13
   8   2   4 20.1546 2.79094   1
  11  -3  -4 19.4795 2.80935  12
 -11  -3   4 17.1792 3.88561   3
  11  -3  -4 14.1680 3.25539   1
  11  -3  -4 16.7173 3.23215  16
  11   3  -4 17.9141 3.41798  16
  11   3  -4 18.4875 2.89510  13
  11   3  -4 18.8316 2.66297  12
 -11   3   4 15.1915 3.31153   3
 -11   3   4 18.7227 4.45878  14
  11   3  -4 16.8764 3.04076   1
   9  -3  -4 52.8572 3.87890  12
  -9  -3   4 59.0475 4.73718  10
  -9  -3   4 57.0447 5.39635  14
   9  -3  -4 57.8025 4.53801  16
  -9   3   4 57.1281 6.36393  14
  -9   3   4 53.8727 4.89311   3
   9   3  -4 54.0388 4.21681  16
   9   3  -4 52.2608 4.53742   1
   9   3  -4 47.3264 3.72434  12
  -9   3   4 52.8512 4.57597   8
  -7  -3   4 90.5900 5.27608  10
   7  -3  -4 86.9070 4.16522  12
   7  -3  -4 87.1484 4.38875   5
   7  -3  -4 86.7475 4.57171  15
  -7  -3   4 95.6578 4.56994   7
   7   3  -4 88.4292 4.36876  12
   7   3  -4 84.9971 3.90086   5
   7   3  -4 91.1160 4.75918  16
  -7   3   4 85.4259 6.15127  14
  -7   3   4 87.7063 4.89872   8
   7   3  -4 90.9241 4.63823   1
  -7   3   4 82.4400 5.03994   3
  -7   3   4 90.3270 3.87245   9
  -5  -3   4 114.460 5.08287  10
  -5  -3   4 104.074 4.29168   7
  -5  -3   4 92.4476 3.64892   2
   5  -3  -4 101.658 4.18369  11
   5  -3  -4 102.791 5.25241  15
   5  -3  -4 102.496 4.49424   5
   5   3  -4 98.5612 4.13167  16
   5   3  -4 96.9014 4.04981   5
  -5   3   4 94.5834 5.59086  14
  -5   3   4 96.5912 4.56696   8
   5   3  -4 96.8747 4.03258  12
  -5   3   4 97.0615 4.46888   3
   5   3  -4 98.0527 4.11003   1
   3  -3  -4 178.404 5.86491   2
   3  -3  -4 183.179 7.31736  15
   3  -3  -4 178.249 6.22501  11
  -3  -3   4 172.219 5.75219   7
  -3  -3   4 172.783 5.60599   4
  -3  -3   4 165.847 6.26365  10
  -3   3   4 166.310 5.32192   6
   3   3  -4 172.181 5.19672   1
   3   3  -4 174.742 5.77357   5
   3   3  -4 174.300 5.42953  12
  -3   3   4 173.655 6.13052   8
  -3   3   4 160.948 6.46231  14
  -3   3   4 179.330 5.54594   3
  -3   3   4 169.920 5.53006   4
   3   3  -4 174.900 4.78587   9
   3   3  -4 174.981 5.22017  16
  -1  -3   4 332.034 9.70407   7
   1  -3  -4 324.375 9.10516  10
   1  -3  -4 348.344 10.3995  11
  -1  -3   4 318.558 8.67111  13
   1  -3  -4 356.203 11.5543  15
  -1  -3   4 331.223 9.44331   4
   1  -3  -4 344.729 10.4882   2
   1   3  -4 327.531 9.64966  11
   1   3  -4 327.416 9.23739   9
   1   3  -4 319.635 9.45014   5
  -1   3   4 332.119 9.48785  13
   1   3  -4 323.772 8.78738  12
  -1   3   4 327.384 9.15450   4
  -1   3   4 326.142 9.42762   1
  -1  -3  -4 33.7775 1.59927   3
  -1  -3  -4 38.1727 3.16529   2
  -1  -3  -4 35.4817 2.47557  11
  -1  -3  -4 35.7658 3.09242  15
  -1  -3  -4 36.9191 2.56526  10
  -1  -3  -4 33.5767 1.95985   5
   1  -3   4 34.5815 2.11896   4
   1  -3   4 30.8707 1.72296  13
   1   3   4 33.5328 2.03350  16
  -1   3  -4 34.9363 1.87542   6
  -1   3  -4 38.0883 1.94183   5
  -1   3  -4 35.8775 2.15743   9
  -1   3  -4 35.0583 2.42685   3
   1   3   4 34.7249 2.01564   1
   1   3   4 36.0440 1.93832   4
   1   3   4 33.2668 2.18315  13
  -3  -3  -4 230.900 9.08656   2
  -3  -3  -4 227.597 7.65709  11
   3  -3   4 230.196 8.09173   4
   3  -3   4 231.565 7.55850  13
  -3  -3  -4 233.858 9.13270  10
  -3  -3  -4 235.971 8.30771  15
  -3  -3  -4 234.065 7.72363   3
   3   3   4 238.142 7.76331   1
  -3   3  -4 218.680 8.59818   3
   3   3   4 225.318 7.50847   4
  -3   3  -4 230.707 7.93987   9
  -3   3  -4 230.060 7.12097   6
   3   3   4 233.264 7.73694  16
   3   3   4 236.964 7.96629  13
   5  -3   4 0.06587 0.78478  13
   5  -3   4 2.55628 1.20618   4
  -5  -3  -4 0.55273 1.60012   2
   5   3   4 1.76970 0.98528  16
   5   3   4 3.45208 1.64229  13
   5   3   4 0.96182 1.18040   4
   5   3   4 1.62451 1.32002   1
  -5   3  -4 0.67858 1.21047   9
   7  -3   4 2.13930 1.96925   4
  -7  -3  -4 0.77925 1.94422   2
  -7  -3  -4 5.98350 1.78370   9
   7  -3   4 -1.2416 1.42373  13
  -7   3  -4 2.50336 2.16431   3
   7   3   4 0.84674 1.54386   1
   7   3   4 4.44969 1.80316   4
  -7   3  -4 -0.7976 1.00594   9
   7   3   4 9.59531 2.46663  13
   7   3   4 0.88269 1.02348  16
   9  -3   4 37.4853 4.45714   4
   9  -3   4 43.4808 4.68934  13
  -9   3  -4 41.8340 4.07695   9
   9   3   4 40.4152 4.41789   1
  -9   3  -4 36.4288 5.06750   3
   9   3   4 39.8114 4.29337  13
   9   3   4 40.9665 4.37042   4
  12  -4  -4 150.577 8.67353   1
 -12  -4   4 144.438 9.58935   3
  12   4  -4 144.016 7.26695  12
 -12   4   4 148.367 9.37792   3
 -12   4   4 167.082 12.4205  14
  12   4  -4 144.511 8.47927   1
 -10  -4   4 1447.04 41.9768   3
  10  -4  -4 1480.09 38.9443  12
 -10  -4   4 1416.01 41.0467  10
  10  -4  -4 1467.92 40.7118  16
  10   4  -4 1371.82 39.2973  13
 -10   4   4 1480.56 41.4184   8
  10   4  -4 1448.27 38.9644  12
  10   4  -4 1412.56 40.3782   1
 -10   4   4 1509.21 46.4773  14
  10   4  -4 1418.21 40.4057  16
 -10   4   4 1458.34 42.2035   3
   8  -4  -4 190.696 7.27013   5
  -8  -4   4 167.850 8.34561  10
  -8  -4   4 181.075 7.38292   7
   8  -4  -4 183.636 7.11645  12
  -8  -4   4 186.323 9.00074  14
  -8   4   4 168.369 10.2367  14
  -8   4   4 185.146 8.36484   8
  -8   4   4 181.199 8.56602   3
   8   4  -4 187.600 7.87846   1
   8   4  -4 173.902 7.09849  12
  -8   4   4 182.258 6.74634   9
   8   4  -4 174.428 7.51752  16
   6  -4  -4 2611.25 65.6395  11
  -6  -4   4 2530.16 67.3269  10
   6  -4  -4 2693.92 66.2481   5
  -6  -4   4 2622.82 66.1479   7
   6  -4  -4 2638.85 67.3963  15
   6   4  -4 2597.23 65.6515   5
  -6   4   4 2661.10 67.1050   8
  -6   4   4 2633.73 67.2294   3
   6   4  -4 2668.77 65.8127  12
   6   4  -4 2617.63 66.1252   1
  -6   4   4 2535.17 69.5474  14
   6   4  -4 2652.99 66.1239  16
  -4  -4   4 5.65009 1.13754   7
   4  -4  -4 5.88746 1.26774  11
   4  -4  -4 6.58939 1.89321  15
   4  -4  -4 5.65157 1.17458   2
   4   4  -4 4.83982 0.95249  12
  -4   4   4 5.28162 1.12034   6
   4   4  -4 4.14552 0.91814   5
  -4   4   4 9.15954 1.74473  14
   4   4  -4 5.17528 0.92159  16
   4   4  -4 5.08967 0.93012   1
  -4   4   4 5.43220 1.38456   8
  -4   4   4 6.89496 1.22839   3
  -2  -4   4 2704.65 78.2301  10
   2  -4  -4 3286.21 78.0473  11
   2  -4  -4 3158.28 78.6905  10
   2  -4  -4 3224.88 78.0525   2
   2  -4  -4 3311.76 79.6462  15
  -2  -4   4 3047.19 77.2870   7
  -2  -4   4 2946.74 76.7671   4
   2   4  -4 3184.06 77.2582   5
  -2   4   4 3186.83 77.0943  13
   2   4  -4 3202.48 78.2842   9
  -2   4   4 3223.05 77.7793   8
   2   4  -4 3012.41 77.0557  16
   2   4  -4 3254.68 76.6390  12
  -2   4   4 3158.28 76.6324   4
  -2   4   4 2924.38 77.6463  14
  -2   4   4 3099.57 77.5826   6
   0  -4   4 5.27944 1.17289   7
   0  -4  -4 16.5486 2.60197   2
   0  -4  -4 5.20948 1.59980  15
   0  -4  -4 6.50140 1.13543  10
   0  -4   4 6.74611 0.68853  13
   0  -4  -4 7.99980 1.85924  11
   0  -4   4 5.22990 0.92713   4
   0   4  -4 8.68833 0.79576  12
   0   4  -4 6.15253 0.98990   9
   0   4   4 6.54849 0.86104   4
   0   4   4 5.87796 0.60878   6
   0   4  -4 6.35357 1.06259   5
   0   4   4 4.64523 1.02063  13
   0   4  -4 3.78505 0.88173   6
   2  -4   4 3407.24 82.6959   4
   2  -4   4 3304.88 81.8241  13
  -2  -4  -4 3266.01 83.1238  11
  -2  -4  -4 3189.36 84.0728  15
  -2  -4  -4 3165.55 83.6355  10
  -2  -4  -4 3365.56 84.7500   2
  -2   4  -4 3324.28 82.0799   6
   2   4   4 3328.44 81.9240   4
   2   4   4 3443.35 82.6613  16
   2   4   4 3394.91 82.6042   1
  -2   4  -4 3427.58 82.7998   9
   2   4   4 3352.24 82.5397  13
  -2   4  -4 3223.86 83.6672   3
  -4  -4  -4 129.510 5.23206  11
   4  -4   4 129.110 5.38292  13
   4  -4   4 133.703 6.05340   4
  -4  -4  -4 136.641 7.19868  10
  -4  -4  -4 136.761 7.00054   2
   4   4   4 138.903 5.87429  16
  -4   4  -4 131.693 5.10403   6
  -4   4  -4 132.124 5.94493   9
  -4   4  -4 133.173 6.82904   3
   4   4   4 135.882 5.87817  13
   4   4   4 132.956 5.80717   1
   4   4   4 126.242 5.15414   4
  -6  -4  -4 1740.60 49.9738   2
   6  -4   4 1845.57 47.9656  13
   6  -4   4 1862.98 48.8784   4
  -6   4  -4 1847.10 50.9730   3
   6   4   4 1786.77 47.5574   4
  -6   4  -4 1846.98 48.2922   9
   6   4   4 1839.73 48.2204   1
   6   4   4 1791.87 48.1639  13
   6   4   4 1824.40 48.1666  16
   8  -4   4 76.1285 5.43512  13
   8  -4   4 84.7755 6.15416   4
  -8  -4  -4 82.0797 6.08669   2
   8   4   4 74.7078 5.60735  13
  -8   4  -4 74.7245 5.38087   9
   8   4   4 80.9231 5.22472   1
  -8   4  -4 75.1134 6.48006   3
  11  -5  -4 40.8195 4.07590  12
 -11  -5   4 41.5637 5.10010  10
  11  -5  -4 36.8751 4.71067   1
 -11  -5   4 47.7902 5.96828   3
  11   5  -4 38.3618 3.76441  12
  11   5  -4 37.6208 4.37822   1
 -11   5   4 45.9814 5.71430   3
 -11   5   4 37.4021 6.71412  14
  -9  -5   4 176.558 9.17714  10
   9  -5  -4 160.049 7.83972  16
   9  -5  -4 179.788 7.50171  12
   9   5  -4 174.640 7.46390  12
   9   5  -4 172.803 7.97100  16
   9   5  -4 165.476 8.09224   1
  -9   5   4 181.494 9.03918   8
  -9   5   4 177.340 11.4341  14
  -9   5   4 168.920 9.02061   3
   7  -5  -4 35.0734 2.85400   5
   7  -5  -4 31.6702 2.70626  11
   7  -5  -4 31.9868 3.45293  15
  -7  -5   4 35.6301 3.36668   7
  -7  -5   4 36.0156 4.15404  10
   7   5  -4 33.6600 2.76443  16
  -7   5   4 34.4127 4.61975  14
   7   5  -4 32.8935 2.78812   1
   7   5  -4 32.9174 2.51519   5
  -7   5   4 30.7129 3.35742   3
  -7   5   4 31.9615 3.53944   8
   7   5  -4 31.6699 2.93225  12
  -5  -5   4 652.419 18.9909   2
   5  -5  -4 686.164 20.6168  15
   5  -5  -4 707.972 19.1457  11
  -5  -5   4 687.453 18.9500   7
  -5  -5   4 672.253 20.3402  10
   5  -5  -4 670.570 18.5612   2
   5   5  -4 689.269 18.6388  12
  -5   5   4 684.962 19.6563   3
   5   5  -4 666.372 18.6162   1
   5   5  -4 693.590 18.6748  16
  -5   5   4 689.838 19.9413   8
  -5   5   4 683.387 18.6165   6
  -5   5   4 636.974 21.3292  14
   5   5  -4 682.810 18.8211   5
   3  -5  -4 343.356 10.8147   2
  -3  -5   4 347.713 11.7021  10
  -3  -5   4 339.116 9.79976   4
  -3  -5   4 348.760 10.4966   7
   3  -5  -4 367.216 11.0584  11
   3  -5  -4 342.276 12.0248  15
  -3   5   4 348.661 11.1582   8
  -3   5   4 321.721 11.3156  14
   3   5  -4 346.630 9.51832  16
   3   5  -4 346.528 10.3939   5
  -3   5   4 343.027 10.3227   3
   3   5  -4 332.778 9.46043   1
  -3   5   4 338.701 9.85583   6
   3   5  -4 340.501 9.91805  12
  -1  -5   4 368.035 11.1083   7
   1  -5  -4 367.245 11.6633  11
   1  -5  -4 373.665 12.9913  15
   1  -5  -4 387.677 10.8310  10
  -1  -5   4 366.191 12.5429  10
   1  -5  -4 379.168 12.3454   2
  -1  -5   4 373.934 10.4938   4
  -1   5   4 351.180 9.94942   4
   1   5  -4 362.660 10.1191  12
   1   5  -4 359.445 10.4623   9
   1   5  -4 358.277 10.8711   5
  -1   5   4 379.804 10.0575   6
  -1   5   4 362.792 10.7111  13
  -1   5   4 371.113 10.8943   1
  -1  -5  -4 1167.82 31.7104  10
  -1  -5  -4 1147.83 31.8687  11
  -1  -5  -4 1253.41 33.3920   2
   1  -5   4 1208.16 31.4591   7
   1  -5   4 1188.69 30.8290   4
  -1  -5  -4 1181.18 33.4323  15
   1   5   4 1183.63 31.0162   1
  -1   5  -4 1205.55 31.0071   9
  -1   5  -4 1184.00 30.7475   6
   1   5   4 1197.10 31.0796  16
   1   5   4 1175.35 30.8230  13
   1   5   4 1168.73 29.9688   4
  -3  -5  -4 167.856 8.07600   2
  -3  -5  -4 156.868 6.56054  11
   3  -5   4 163.298 6.41573   4
  -3  -5  -4 149.723 7.07227  15
  -3  -5  -4 162.624 7.64661  10
  -3   5  -4 158.835 5.98743   6
   3   5   4 183.279 6.74514   1
   3   5   4 166.665 6.41696  13
  -3   5  -4 184.070 7.82310   3
   3   5   4 180.612 6.61143  16
   3   5   4 151.884 5.57580   4
  -3   5  -4 158.746 6.41859   9
  -5  -5  -4 455.106 16.3169  10
   5  -5   4 432.454 14.2992   4
   5  -5   4 423.182 13.3624  13
  -5  -5  -4 418.692 15.7698   2
  -5   5  -4 437.024 14.2959   9
   5   5   4 451.362 14.2424   1
  -5   5  -4 422.302 15.9474   3
   5   5   4 426.496 13.9205  13
   5   5   4 434.557 14.0891  16
  -5   5  -4 423.793 13.0800   6
  -7  -5  -4 179.994 9.45550   2
   7  -5   4 190.192 8.75795   4
   7  -5   4 167.874 7.84350  13
   7   5   4 181.812 8.21354   1
   7   5   4 177.244 8.23845  16
  -7   5  -4 185.895 10.3072   3
   7   5   4 175.791 8.27783  13
  -7   5  -4 187.027 8.41377   9
  10  -6  -4 3.73416 1.92711  12
 -10  -6   4 4.73268 2.11647  10
  10  -6  -4 3.66773 2.07304  16
  10   6  -4 4.86983 2.00752  12
 -10   6   4 2.44285 2.39814   3
 -10   6   4 5.38434 3.37885  14
 -10   6   4 6.05481 2.76219   8
  10   6  -4 5.58910 2.24021  16
  10   6  -4 6.97446 2.34544   1
   8  -6  -4 1205.81 32.5644   5
  -8  -6   4 1176.90 35.0116  10
  -8  -6   4 1190.42 32.7811   7
   8   6  -4 1190.67 32.2980  12
  -8   6   4 1175.99 38.0977  14
   8   6  -4 1136.75 32.7556  16
   8   6  -4 1167.85 32.8988   1
  -8   6   4 1216.02 34.7594   3
  -8   6   4 1260.50 34.8763   8
  -6  -6   4 89.2691 6.15649  10
   6  -6  -4 98.5848 4.70327  11
  -6  -6   4 91.0252 4.92849   7
   6  -6  -4 96.1646 5.88690  15
   6   6  -4 88.6548 4.34776  12
   6   6  -4 95.6403 4.55256   1
   6   6  -4 94.0341 4.51315  16
  -6   6   4 102.439 5.47000   3
   6   6  -4 90.2763 4.43613   5
  -6   6   4 85.0710 6.43601  14
  -6   6   4 95.3697 4.66854   6
  -6   6   4 96.0458 5.60952   8
  -4  -6   4 3292.73 85.5458  10
   4  -6  -4 3454.20 84.2289  11
  -4  -6   4 2965.57 84.3134   2
  -4  -6   4 3275.66 83.6128   7
   4  -6  -4 3524.67 84.2104   2
  -4  -6   4 3103.95 82.4653   4
   4  -6  -4 3437.91 86.1051  15
   4   6  -4 3479.05 83.3255  12
  -4   6   4 3496.32 83.2954   6
   4   6  -4 3416.48 82.9537   1
  -4   6   4 3567.35 85.1705   8
   4   6  -4 3438.88 83.7658   5
  -4   6   4 3149.13 85.7388  14
  -4   6   4 3375.83 84.2426   3
  -2  -6   4 459.725 13.4667   7
   2  -6  -4 462.147 14.0959  11
  -2  -6   4 446.093 12.4654   4
   2  -6  -4 437.659 15.1510  15
  -2  -6   4 458.696 15.2318  10
   2  -6  -4 467.368 14.4643   2
   2   6  -4 442.758 13.2675   5
  -2   6   4 445.642 13.0377  13
   2   6  -4 463.303 12.5283   9
  -2   6   4 470.602 14.3602   8
   2   6  -4 444.473 12.6157  12
  -2   6   4 444.745 12.5330   6
   0  -6  -4 3584.42 91.9438  11
   0  -6  -4 3599.21 93.5505  15
   0  -6   4 3806.41 91.3850   7
   0  -6  -4 3657.59 93.1054   2
   0  -6   4 3628.17 90.3380   4
   0  -6  -4 3679.81 91.3897  10
   0   6  -4 3576.05 90.8189   6
   0   6   4 3646.48 90.9296   1
   0   6  -4 3723.02 90.6688   9
   0   6   4 3702.12 90.6433  13
  -2  -6  -4 99.1374 5.23660  11
  -2  -6  -4 91.0517 5.29271  10
  -2  -6  -4 86.5627 5.76214  15
  -2  -6  -4 83.4325 6.10478   2
   2  -6   4 93.0952 4.81484   7
   2  -6   4 84.6520 4.17342   4
   2   6   4 88.5294 4.22030  13
  -2   6  -4 87.2085 4.18495   6
   2   6   4 89.5270 4.53018   1
  -2   6  -4 89.6371 4.49815   9
   2   6   4 88.0995 4.34779  16
  -4  -6  -4 1317.59 37.7722   2
  -4  -6  -4 1355.98 37.5317  10
   4  -6   4 1314.09 35.1359   4
  -4   6  -4 1271.38 34.3004   6
  -4   6  -4 1273.83 37.3708   3
   4   6   4 1297.97 35.1442  16
  -4   6  -4 1295.88 35.2374   9
   4   6   4 1311.58 34.7577  13
   4   6   4 1278.56 35.0736   1
  -6  -6  -4 6.13770 2.72932   2
   6  -6   4 8.92890 2.38445   4
  -6   6  -4 5.48234 2.13689   9
   6   6   4 3.50058 1.45833  16
   6   6   4 4.00686 1.81205  13
  -6   6  -4 2.22974 1.69501   3
   6   6   4 4.40671 1.60749   1
   8  -6   4 458.083 16.7166   4
  -8  -6  -4 479.923 17.9455   2
  -8   6  -4 494.172 16.7298   9
   8   6   4 502.669 16.8851   1
  -8   6  -4 483.562 19.6846   3
   8   6   4 476.630 16.3916  13
   9  -7  -4 87.0669 5.72368  16
   9  -7  -4 85.1433 5.26321  12
  -9  -7   4 90.7491 7.07470  10
  -9  -7   4 90.1516 5.65230   7
  -9   7   4 85.8435 6.31034   3
   9   7  -4 82.0588 5.31201   1
   9   7  -4 81.1743 5.47456  16
   9   7  -4 82.8350 5.17089  12
  -9   7   4 82.0891 6.53716   8
  -9   7   4 77.6036 8.18363  14
  -7  -7   4 5.49863 2.03968   7
  -7  -7   4 2.10054 1.99245  10
   7  -7  -4 0.34253 1.31535  15
   7  -7  -4 1.18817 1.52616  11
   7   7  -4 1.49397 1.36340  16
  -7   7   4 2.89637 2.07303   8
   7   7  -4 6.55160 1.86543  12
  -7   7   4 0.94995 1.50059   3
   7   7  -4 -0.5562 1.23675   1
  -7   7   4 1.38417 2.04026  14
  -7   7   4 2.30253 1.29034   6
   5  -7  -4 111.291 6.73969  15
  -5  -7   4 117.189 6.71988  10
  -5  -7   4 111.279 5.34477   7
  -5  -7   4 111.021 5.93145   2
   5  -7  -4 133.577 5.76222   2
   5  -7  -4 108.790 5.60574  11
  -5   7   4 120.393 5.97259   3
   5   7  -4 107.467 4.70268  16
  -5   7   4 104.724 6.63720  14
  -5   7   4 115.371 6.28298   8
   5   7  -4 111.620 4.84751   1
  -5   7   4 119.100 5.14945   6
   5   7  -4 107.658 4.86021  12
  -3  -7   4 1.48996 1.37780  10
   3  -7  -4 3.10874 1.52812  15
   3  -7  -4 2.56853 1.35393   2
  -3  -7   4 1.75305 1.05575   7
   3  -7  -4 2.17274 1.26519  11
   3   7  -4 1.80641 0.98192  12
  -3   7   4 5.05570 1.46488  14
  -3   7   4 4.60450 1.21046   6
  -3   7   4 2.94356 1.24171   8
   1  -7  -4 2.56087 1.28820  10
   1  -7  -4 2.13454 2.08562   2
  -1  -7   4 3.14283 1.55694  10
   1  -7  -4 1.02712 1.28273  11
   1  -7  -4 -1.2094 1.63892  15
  -1  -7   4 2.67012 1.27314   7
  -1   7   4 0.22918 0.63573   6
  -1   7   4 0.67008 0.86419  13
   1   7  -4 1.69452 1.10596   6
   1   7  -4 0.57242 0.58686  12
  -1   7   4 0.06769 1.24787   8
   1   7  -4 2.57753 0.82217   9
   1  -7   4 30.9435 2.70129   7
  -1  -7  -4 39.0176 3.91482  11
  -1  -7  -4 32.3843 4.07840  15
  -1  -7  -4 32.1786 4.34282   2
   1  -7   4 29.1953 2.26245   4
  -1  -7  -4 30.8035 2.91910  10
   1   7   4 33.4654 2.58233  13
   1   7   4 35.9929 2.75225   1
  -1   7  -4 32.1390 2.68570   9
  -1   7  -4 29.5378 2.69437   6
  -3  -7  -4 23.8615 3.31343  10
  -3  -7  -4 21.0350 3.90941   2
   3  -7   4 20.0286 2.30577   4
  -3  -7  -4 18.2676 2.79490  11
   3  -7   4 21.6148 2.78900   7
  -3   7  -4 20.1694 2.68197   9
  -3   7  -4 19.8568 2.39117   6
   3   7   4 18.6053 2.63935   1
   3   7   4 20.1061 2.31055  13
   3   7   4 19.2767 2.57557  16
   5  -7   4 5.14529 1.78428   4
  -5  -7  -4 9.22757 2.91969  10
  -5  -7  -4 6.97572 2.93843   2
   5   7   4 2.77977 1.71537  16
   5   7   4 7.20769 1.98087  13
   5   7   4 5.73083 2.09359   1
  -5   7  -4 4.24874 1.60016   6
  -5   7  -4 5.35527 1.71519   9
  -5   7  -4 4.45617 1.97241   3
  -7  -7  -4 8.02944 2.64756   2
   7  -7   4 1.04079 1.35608   4
   7   7   4 3.86734 1.97229  13
   7   7   4 3.02078 2.06539   1
  -7   7  -4 2.83188 1.63732   9
  -7   7  -4 1.74519 2.34542   3
 -10  -8   4 297.172 14.0514  10
 -10   8   4 310.278 16.7248  14
 -10   8   4 314.525 13.9481   8
  10   8  -4 315.803 11.6516  12
  10   8  -4 304.666 12.3259   1
 -10   8   4 304.811 13.6719   3
  -8  -8   4 558.528 20.6353  10
  -8  -8   4 555.804 17.8080   7
   8  -8  -4 572.653 17.9270   5
  -8   8   4 526.934 22.2615  14
  -8   8   4 560.614 17.5119   6
  -8   8   4 595.921 20.2467   8
   8   8  -4 563.660 17.4979  12
   8   8  -4 568.201 17.9280   1
  -8   8   4 582.387 19.9005   3
  -6  -8   4 300.652 12.7704  10
  -6  -8   4 297.883 10.3985   7
   6  -8  -4 287.631 13.8504  15
   6  -8  -4 302.857 10.9449  11
  -6  -8   4 274.086 11.1729   2
   6   8  -4 279.672 9.93764   1
  -6   8   4 303.276 10.2775   6
  -6   8   4 309.299 11.7884   3
  -6   8   4 312.373 12.1572   8
   6   8  -4 279.398 9.89958  12
  -6   8   4 282.803 13.2237  14
   6   8  -4 279.151 9.88742  16
  -4  -8   4 750.834 21.0348   7
  -4  -8   4 719.982 22.3813   2
   4  -8  -4 732.680 23.6991  15
  -4  -8   4 736.498 23.5068  10
   4  -8  -4 754.638 21.8946  11
   4  -8  -4 735.377 21.8824   2
  -4   8   4 674.846 22.6130  14
  -4   8   4 759.891 22.6258   8
   4   8  -4 750.750 20.5943  12
  -4   8   4 753.235 20.6076   6
   2  -8  -4 216.062 9.45534   2
   2  -8  -4 212.083 8.84158  11
  -2  -8   4 240.804 10.4056  10
  -2  -8   4 211.904 7.93546   7
   2  -8  -4 220.468 10.2689  15
   2   8  -4 206.842 7.29181  12
  -2   8   4 215.075 7.27170   6
  -2   8   4 216.187 9.19082   8
   2   8  -4 218.509 8.16791   6
   0  -8  -4 911.499 27.4292   2
   0  -8   4 908.823 27.8460  10
   0  -8  -4 902.465 25.4015  10
   0  -8  -4 894.988 25.9894  11
   0  -8  -4 855.579 27.4544  15
   0  -8   4 892.649 24.9926   7
   0   8  -4 912.701 24.5194   9
   0   8   4 894.734 24.9353   1
   0   8  -4 883.487 24.7561   6
  -2  -8  -4 234.097 11.2322   2
   2  -8   4 234.641 9.13063   7
  -2  -8  -4 246.159 10.2241  10
  -2  -8  -4 238.819 9.92381  11
   2   8   4 229.219 8.27282  13
  -2   8  -4 240.238 8.70300   6
  -2   8  -4 229.547 8.69147   9
   2   8   4 223.364 8.88072  16
   2   8   4 232.823 8.96340   1
  -4  -8  -4 853.390 26.1671  10
   4  -8   4 809.757 24.1598   7
  -4  -8  -4 834.531 26.9534   2
   4   8   4 785.692 22.9252  13
   4   8   4 784.656 23.7478  16
  -4   8  -4 824.105 24.0305   9
   4   8   4 784.107 23.7606   1
  -4   8  -4 810.678 23.2541   6
  -6  -8  -4 200.130 10.8318   2
   6  -8   4 202.353 9.49515   7
  -6  -8  -4 214.353 11.2901  10
  -6   8  -4 205.593 8.47494   6
  -6   8  -4 210.645 9.32918   9
   6   8   4 198.058 9.11397   1
  -9  -9   4 3.09034 2.32437  10
  -9   9   4 5.03064 2.62009   3
   9   9  -4 6.22886 2.37389  12
   9   9  -4 5.61403 2.20260   1
  -9   9   4 4.65806 3.18997  14
  -9   9   4 7.63095 3.33575   8
  -7  -9   4 56.3283 5.86596  10
  -7  -9   4 57.5307 4.56505   7
   7  -9  -4 58.2704 4.89348  11
   7   9  -4 56.5447 4.30068  12
  -7   9   4 56.7450 6.35952  14
  -7   9   4 58.1905 4.20702   6
  -7   9   4 60.3573 5.26355   3
   7   9  -4 62.9565 6.62039   1
  -7   9   4 68.3863 6.06326   8
   5  -9  -4 -1.6757 1.84914  11
  -5  -9   4 2.89697 1.46770   7
  -5  -9   4 0.97228 2.08607  10
  -5  -9   4 0.37351 2.02124   2
   5  -9  -4 -1.0542 1.63781   2
  -5   9   4 -0.3577 0.92254   6
  -5   9   4 -0.0143 1.81798   8
   5   9  -4 3.09217 1.26555  12
  -5   9   4 0.78518 1.50046  14
  -3  -9   4 13.8868 2.10383   7
  -3  -9   4 17.0161 3.60493  10
  -3  -9   4 21.3166 3.63881   2
   3  -9  -4 17.8549 3.29498   2
   3  -9  -4 15.3844 2.67004  11
   3   9  -4 15.0881 2.40542   6
  -3   9   4 17.1558 2.22315   6
  -3   9   4 18.4298 3.22487   8
   3   9  -4 14.9628 2.09127  12
   1  -9  -4 16.0390 3.61727   2
  -1  -9   4 11.9222 1.96236   7
   1  -9  -4 11.8952 3.20138  15
  -1  -9   4 16.8377 3.25302  10
   1  -9  -4 11.8440 2.48390  11
   1   9  -4 10.9047 2.13178   6
  -1   9   4 12.2447 2.79690   8
   1   9  -4 12.8618 1.90960   9
  -1  -9  -4 5.09154 2.50516   2
  -1  -9  -4 5.74845 2.59963  15
   1  -9   4 7.88415 1.77158   7
  -1  -9  -4 9.82081 2.17272  10
   1  -9   4 10.5920 3.06203  10
  -1  -9  -4 5.08436 2.57751  11
  -1   9  -4 6.23961 1.76905   9
  -1   9  -4 4.89646 1.79053   6
   1   9   4 6.07877 1.87024   1
  -3  -9  -4 22.2505 3.43215  11
  -3  -9  -4 27.9966 3.80751  10
  -3  -9  -4 24.6769 4.72296   2
   3  -9   4 29.6361 3.31971   7
   3   9   4 27.0113 3.25375  16
  -3   9  -4 23.2659 3.13995   9
   3   9   4 25.0905 3.23633   1
  -3   9  -4 26.3429 3.22755   6
  -5  -9  -4 2.64235 2.39766  10
  -5  -9  -4 3.80492 2.77224   2
   5  -9   4 5.64291 2.06358   7
  -5   9  -4 3.71992 1.88037   6
  -5   9  -4 4.37179 2.17286   9
   5   9   4 4.81469 2.08775   1
  -8 -10   4 11.3988 3.99362  10
  -8 -10   4 8.97956 2.04137   7
   8 -10  -4 11.8806 2.94908   5
  -8  10   4 5.66957 3.03950  14
   8  10  -4 11.2615 2.25536  12
  -8  10   4 10.6447 2.23711   6
  -8  10   4 11.2619 3.56049   8
  -6 -10   4 1002.38 29.1868   7
  -6 -10   4 1054.86 33.5108  10
   6 -10  -4 1099.89 30.9887  11
   6  10  -4 1042.46 29.3233  12
   6  10  -4 1051.85 29.6405   6
  -6  10   4 1028.75 29.2691   6
  -6  10   4 1090.66 32.3278   8
   4 -10  -4 71.2459 5.81874   2
  -4 -10   4 77.2766 4.76692   7
   4 -10  -4 77.5532 5.41245  11
  -4 -10   4 78.4985 6.16370   2
  -4 -10   4 85.2037 7.32506  10
  -4  10   4 74.0965 4.57652   6
   4  10  -4 79.8504 4.57424  12
   4  10  -4 72.8367 4.89538   6
  -4  10   4 74.7057 5.92767   8
  -2 -10   4 1373.42 40.6172  10
   2 -10  -4 1359.90 38.4306  11
   2 -10  -4 1347.53 39.2223   2
  -2 -10   4 1371.00 36.8887   7
  -2 -10   4 1371.64 39.8433   2
  -2  10   4 1384.63 39.1599   8
   2  10  -4 1416.97 37.5622   6
   0 -10  -4 137.127 8.35548   2
   0 -10  -4 140.679 7.83774  11
   0 -10   4 140.238 8.88565  10
   0 -10   4 125.415 6.34194   7
   0  10  -4 147.956 6.39974   9
   0  10  -4 128.106 6.56721   6
   0  10   4 131.571 7.39465   8
   2 -10   4 895.939 26.1232   7
  -2 -10  -4 914.572 27.6291  11
  -2 -10  -4 909.343 27.7593  10
  -2 -10  -4 929.769 29.8280   2
   2 -10   4 923.706 29.9217  10
  -2  10  -4 892.163 26.0925   6
  -2  10  -4 892.360 25.9954   9
   2  10   4 895.206 26.3205   1
   4 -10   4 66.8848 5.03990   7
  -4 -10  -4 76.9366 6.42390  10
  -4 -10  -4 69.1809 7.02498   2
   4 -10   4 63.3640 6.17174  10
  -4  10  -4 68.6730 4.97903   6
  -4  10  -4 62.5986 4.97170   9
   4  10   4 66.5970 4.84194   1
   7 -11  -4 101.132 6.86702  11
  -7 -11   4 94.7782 7.99335  10
  -7  11   4 84.9512 5.71593   6
   7  11  -4 89.1260 5.65872   6
  -7  11   4 109.391 7.89654   8
   7  11  -4 97.7933 5.88541  12
  -5 -11   4 77.6073 7.90338  10
   5 -11  -4 79.9704 5.89662  11
  -5 -11   4 86.2225 7.16514   2
  -5  11   4 79.2997 5.11789   6
   5  11  -4 77.6743 5.31433   6
   5  11  -4 82.3079 5.07419  12
  -5  11   4 79.2996 6.60342   8
  -3 -11   4 143.178 8.79149   2
   3 -11  -4 146.193 8.66026   2
  -3 -11   4 135.915 9.23503  10
   3 -11  -4 137.913 7.72637  11
  -3  11   4 148.142 8.51359   8
   3  11  -4 151.124 7.34401   6
  -3  11   4 148.464 6.52840   6
  -1 -11   4 126.008 8.32091   2
  -1 -11   4 127.034 8.43728  10
   1 -11  -4 117.253 8.54835   2
   1 -11  -4 130.710 7.84734  11
  -1  11   4 126.120 7.51773   8
   1  11  -4 125.285 6.70368   6
  -1 -11  -4 97.7047 6.49308  11
   1 -11   4 97.3079 7.93108  10
  -1 -11  -4 94.1590 8.16324   2
  -1  11  -4 105.352 6.18034   6
  -1  11  -4 102.028 5.80893   9
   1  11   4 96.3317 6.55430   8
  -3 -11  -4 92.5232 8.19924   2
   3 -11   4 106.528 7.91306  10
  -3  11  -4 95.3609 6.01651   6
  -3  11  -4 103.983 5.97014   9
   3  11   4 98.3466 6.27103   1
   6 -12  -4 86.2759 6.88869  11
  -6 -12   4 66.0992 7.81005  10
  -6  12   4 85.9613 7.27276   8
   6  12  -4 83.5386 5.57907   6
  -6  12   4 66.6740 4.70734   6
  -4 -12   4 615.073 22.3015   2
  -4 -12   4 627.997 23.4075  10
   4 -12  -4 619.422 21.2003  11
  -4  12   4 600.534 18.7448   6
  -4  12   4 632.609 21.8362   8
   4  12  -4 641.941 19.8449   6
  -2 -12   4 39.6405 5.65444  10
   2 -12  -4 51.9799 5.61163  11
   2 -12  -4 40.0478 5.12382   2
  -2 -12   4 53.2604 6.11428   2
   2  12  -4 46.5535 4.57590   6
  -2  12   4 54.8571 5.64188   8
   0 -12   4 706.655 24.8442  10
   0 -12  -4 660.948 22.5069  11
   0 -12   4 721.060 24.7865   2
   0 -12  -4 691.358 24.6492   2
   0  12  -4 691.695 21.6150   6
   0  12   4 687.633 23.3022   8
   2 -12   4 29.6560 4.81303  10
  -2 -12  -4 25.6357 3.79084  11
  -2 -12  -4 27.0671 5.45967   2
   2  12   4 26.6413 4.14380   8
  -2  12  -4 24.8340 3.57470   6
  -2  12  -4 28.1273 3.51480   9
  -3 -13   4 16.2033 4.17354   2
  -3 -13   4 13.7004 3.81583  10
   3 -13  -4 7.84069 2.92951   2
   3 -13  -4 11.4735 3.09257  11
   3  13  -4 10.7712 2.73205   6
  -3  13   4 10.3621 2.75872   8
   1 -13  -4 6.80351 3.31084  11
   1 -13  -4 11.6385 4.35326   2
  -1 -13   4 8.66395 3.07373  10
  -1 -13   4 11.7730 3.90517   2
   1  13  -4 11.9073 2.91395   6
  -1  13   4 11.7067 3.34413   8
 -12   0   5 -0.5837 2.35030   3
  12   0  -5 2.20626 1.98878  12
 -12   0   5 -0.6991 2.61146  14
  12   0  -5 -2.3492 2.28566   1
  10   0  -5 5.42822 2.30829  16
 -10   0   5 -0.9541 1.67222   3
  10   0  -5 5.59651 2.28729   1
  10   0  -5 8.11780 2.13663  12
 -10   0   5 4.23672 2.89438  14
  -8   0   5 3.26157 1.74099  14
  -8   0   5 0.76658 0.94254   3
   8   0  -5 0.37046 1.35328  16
   8   0  -5 3.44191 1.24880   5
   8   0  -5 0.81973 1.23085  12
  -6   0   5 2.02751 1.08467   7
  -6   0   5 2.07064 0.77689   8
   6   0  -5 0.35576 0.45080  11
   6   0  -5 -0.0895 0.60876  15
  -6   0   5 0.94781 0.59154  10
   6   0  -5 1.24477 1.01343   5
   6   0  -5 1.49381 1.02338  12
   4   0  -5 1.25739 0.56094  12
  -4   0   5 0.47748 0.68282   7
  -4   0   5 2.61364 0.60224   8
  -4   0   5 1.19457 0.54915  10
   4   0  -5 -0.3323 0.70398  15
   4   0  -5 -0.1161 0.70795   5
   4   0  -5 1.82314 0.67607  11
  -4   0   5 1.64797 0.86379   4
   2   0  -5 1.13668 0.48790  12
   2   0  -5 0.48749 0.64344  11
  -2   0   5 1.19915 0.56061   4
   2   0  -5 0.61834 0.64052  15
   2   0  -5 0.94751 0.68340   5
   2   0  -5 0.79183 0.55147   2
  -2   0   5 -0.2073 0.49796  13
  -2   0   5 0.14628 0.46186   7
   0   0  -5 -0.0347 0.61690  11
   0   0   5 0.85065 0.38610   1
   0   0   5 0.24259 0.50147   4
   0   0  -5 0.97137 0.69089  15
   0   0  -5 0.53111 0.75407   2
   0   0  -5 1.22612 0.45983   5
   0   0   5 0.70889 0.47348  13
  -2   0  -5 0.35541 0.75841  11
   2   0   5 0.34276 0.48828   1
   2   0   5 2.55486 0.91134   4
   2   0   5 -0.0874 0.79350  13
  -2   0  -5 0.98753 1.13775   2
   2   0   5 0.04710 0.46502  16
   4   0   5 0.34346 0.72067  16
  -4   0  -5 0.40652 0.77432  11
   4   0   5 -0.3732 0.80067   4
   4   0   5 -0.1433 0.72071   1
   4   0   5 0.92385 1.20837  13
  -4   0  -5 1.35658 1.02204   3
  -4   0  -5 -0.3825 1.04829   9
   6   0   5 -0.7537 1.61927   4
  -6   0  -5 1.08841 1.13445   9
   6   0   5 -2.1268 1.34618  13
   8   0   5 1.61988 2.03626   4
  -8   0  -5 -0.8372 1.50648   9
   8   0   5 2.11866 2.14729  13
  11  -1  -5 966.539 28.0209  12
  11  -1  -5 963.009 29.7105  16
 -11  -1   5 1023.22 33.6254  14
  11  -1  -5 955.090 29.7454   1
 -11  -1   5 958.135 30.8813   3
  11   1  -5 956.862 29.7683  16
 -11   1   5 1000.09 31.2535   3
  11   1  -5 996.026 30.0340   1
  11   1  -5 1008.08 28.2599  12
 -11   1   5 1008.21 34.2373  14
   9  -1  -5 117.141 6.47880  16
   9  -1  -5 119.675 5.77315  12
  -9  -1   5 121.902 7.01434   3
   9  -1  -5 112.869 6.42100   1
  -9  -1   5 118.800 7.99680  14
   9  -1  -5 115.385 5.25289   5
  -9   1   5 119.706 6.76911   3
   9   1  -5 106.642 6.19147   1
   9   1  -5 122.204 5.82813  12
  -9   1   5 123.074 8.19956  14
   9   1  -5 113.019 6.28624  16
   7  -1  -5 2084.67 53.7272  12
   7  -1  -5 2136.41 54.5889  16
  -7  -1   5 2158.72 53.9315   7
  -7  -1   5 2009.84 53.6579  10
   7  -1  -5 2107.16 53.7673   5
  -7   1   5 2118.39 53.5415   7
   7   1  -5 2124.73 54.4272   1
  -7   1   5 2204.80 57.6373  14
  -7   1   5 2112.99 54.8901   3
   7   1  -5 2111.93 53.7252  12
  -7   1   5 2068.81 53.9493   8
   7   1  -5 2156.12 54.4819  16
   5  -1  -5 451.226 12.4004  11
  -5  -1   5 454.432 12.9183   4
   5  -1  -5 454.503 13.7845  15
  -5  -1   5 439.147 12.5858  10
  -5  -1   5 418.453 11.8508   8
   5  -1  -5 425.392 12.4905  12
  -5  -1   5 447.348 12.6597   7
   5  -1  -5 460.990 13.0763   5
  -5   1   5 439.266 12.9212   3
   5   1  -5 451.559 12.6042  12
   5   1  -5 449.078 12.8648   5
   5   1  -5 442.860 13.3814  15
  -5   1   5 455.020 12.9235   4
   5   1  -5 441.527 12.1500  11
   5   1  -5 451.536 12.8097  16
  -5   1   5 444.435 12.6642   8
  -5   1   5 451.539 12.3638   7
   3  -1  -5 3219.33 77.9540   2
  -3  -1   5 2974.48 79.4805   8
   3  -1  -5 3260.63 78.6373  11
  -3  -1   5 3228.59 78.1945   7
   3  -1  -5 3317.87 84.2028  15
   3  -1  -5 3319.83 78.7688   5
  -3  -1   5 3073.28 79.5105  10
  -3  -1   5 3216.06 78.4018   4
  -3  -1   5 3093.29 77.9720  13
  -3   1   5 3181.51 78.3772   4
   3   1  -5 3221.54 78.3614  11
   3   1  -5 3136.09 83.1084  15
  -3   1   5 3258.68 79.7994   8
  -3   1   5 3249.23 80.2957  13
  -3   1   5 3125.45 78.7186   7
   3   1  -5 3066.70 77.8196  12
   3   1  -5 3218.41 78.5046   5
  -3   1   5 2977.25 78.6804   3
   1  -1  -5 1261.72 31.9448   5
  -1  -1   5 1247.92 32.0164   4
   1  -1  -5 1302.83 33.7004  15
   1  -1  -5 1292.96 32.6088   2
  -1  -1   5 1217.37 31.7928   7
  -1  -1   5 1198.97 31.4797  13
   1  -1  -5 1264.52 32.3972  11
   1   1  -5 1265.10 32.2012  11
  -1   1   5 1254.22 31.9098   4
   1   1  -5 1277.04 33.4528  15
   1   1  -5 1233.65 30.8946  12
  -1   1   5 1245.51 31.8007  13
   1   1  -5 1246.13 31.8001   5
  -1   1   5 1237.03 31.3704   7
   1  -1   5 1927.28 48.3347   4
   1  -1   5 1931.87 47.9143  13
  -1  -1  -5 1969.45 49.6380  15
  -1  -1  -5 1917.41 49.3991   2
   1  -1   5 1901.20 46.9538   1
  -1  -1  -5 1901.09 47.3252   5
  -1  -1  -5 1932.56 48.4488  11
   1  -1   5 1913.63 46.9663  16
  -1   1  -5 1915.78 47.3915   5
   1   1   5 1917.71 48.1478   4
   1   1   5 1925.50 47.5564  16
  -1   1  -5 1866.39 46.9880   6
  -1   1  -5 1913.04 48.3617  11
  -1   1  -5 1848.10 47.8661   3
   1   1   5 1834.28 47.4195   1
   1   1   5 1945.11 48.1251  13
   3  -1   5 794.041 21.6523  13
   3  -1   5 780.648 20.5653  16
   3  -1   5 777.158 21.9026   4
  -3  -1  -5 774.772 21.4184  11
  -3  -1  -5 778.253 23.1308   2
  -3   1  -5 788.094 21.4678  11
   3   1   5 820.084 21.8706  13
   3   1   5 771.784 21.0094   1
   3   1   5 794.617 21.0892  16
   3   1   5 799.594 21.7804   4
  -3   1  -5 754.577 21.8908   3
  -3   1  -5 810.353 22.0833   9
  -5  -1  -5 672.729 21.3485   2
   5  -1   5 680.124 20.0920   4
   5  -1   5 663.120 19.6091  13
  -5  -1  -5 639.054 19.5017   9
   5   1   5 641.092 18.7049   1
   5   1   5 651.763 18.7963  16
  -5   1  -5 664.699 19.7576   9
   5   1   5 663.961 19.7627  13
   5   1   5 643.814 19.6179   4
  -5   1  -5 647.789 20.2781   3
   7  -1   5 321.505 12.1266  13
  -7  -1  -5 292.759 11.2562   9
   7  -1   5 305.498 12.2547   4
   7   1   5 322.184 12.2093   4
   7   1   5 325.221 12.2529  13
  -7   1  -5 294.499 11.4620   9
 -12  -2   5 241.667 12.3016   3
  12  -2  -5 231.579 11.1755   1
 -12  -2   5 228.065 12.9597  14
  12  -2  -5 222.673 9.57847  12
 -12   2   5 247.442 14.6652  14
  12   2  -5 244.716 9.77314  12
 -12   2   5 228.785 12.0096   3
  12   2  -5 243.943 11.2800   1
 -10  -2   5 525.862 19.7874  14
  10  -2  -5 500.899 17.4702  16
  10  -2  -5 505.180 16.1750  12
 -10  -2   5 513.014 18.5652   3
  10  -2  -5 523.164 17.7712   1
  10   2  -5 507.669 17.5818   1
 -10   2   5 508.162 18.3783   3
  10   2  -5 500.086 17.4260  16
 -10   2   5 545.636 21.5619  14
  10   2  -5 508.330 16.2051  12
   8  -2  -5 547.645 17.3517  16
  -8  -2   5 553.927 16.6855   7
   8  -2  -5 560.161 16.4335  12
   8  -2  -5 563.484 16.4232   5
  -8  -2   5 544.513 16.9152  10
  -8  -2   5 580.188 19.6538  14
   8   2  -5 543.196 17.1395  16
  -8   2   5 567.499 17.9300   3
  -8   2   5 568.448 20.3034  14
   8   2  -5 553.167 17.2138   1
   8   2  -5 538.327 16.0338   5
  -8   2   5 549.002 17.0840   8
   8   2  -5 566.399 16.4946  12
   6  -2  -5 1009.22 27.7893  15
  -6  -2   5 1009.08 26.7694   7
  -6  -2   5 984.352 27.0410  10
   6  -2  -5 1002.71 26.6420  12
   6  -2  -5 1034.79 27.0356   5
   6  -2  -5 1012.41 26.1919  11
  -6   2   5 993.191 27.2369   3
  -6   2   5 996.147 27.0323   8
   6   2  -5 1007.92 26.6942   5
   6   2  -5 997.887 26.8565  16
   6   2  -5 984.861 26.8639   1
  -6   2   5 1034.68 29.7192  14
   6   2  -5 1014.05 26.5970  12
  -4  -2   5 1263.94 32.5190   4
  -4  -2   5 1266.81 32.4455   7
   4  -2  -5 1300.50 32.9799   5
  -4  -2   5 1225.02 32.6404  10
   4  -2  -5 1271.20 34.2431  15
   4  -2  -5 1318.22 32.8372  11
   4  -2  -5 1257.70 31.6477   2
   4   2  -5 1258.33 32.1931  11
  -4   2   5 1273.60 31.6937   7
   4   2  -5 1267.96 32.1418  12
   4   2  -5 1230.49 32.5428   5
  -4   2   5 1286.45 32.5404   4
   4   2  -5 1249.04 32.0660  16
  -4   2   5 1256.55 32.2367   3
  -4   2   5 1254.63 32.6714   8
  -2  -2   5 890.159 23.8364   4
   2  -2  -5 963.977 24.6166  11
   2  -2  -5 930.025 24.2015   2
  -2  -2   5 943.896 23.9412   7
   2  -2  -5 954.689 25.9198  15
   2  -2  -5 934.230 24.2407   5
  -2  -2   5 892.484 23.2495  13
  -2   2   5 909.706 23.7352   4
   2   2  -5 905.206 24.0118  11
   2   2  -5 881.388 22.7430  16
   2   2  -5 907.688 23.9140   5
  -2   2   5 900.984 22.9390   7
  -2   2   5 937.246 23.8974  13
   2   2  -5 895.301 23.1224  12
   0  -2  -5 1083.37 28.5171   5
   0  -2   5 1083.55 28.2148  13
   0  -2  -5 1119.84 30.5548  15
   0  -2   5 1088.36 28.8474   4
   0  -2   5 1102.40 28.8984   7
   0  -2  -5 1117.78 29.3590  11
   0  -2  -5 1155.61 29.9787   2
   0   2   5 1115.43 28.6048   4
   0   2   5 1106.60 28.3753   1
   0   2  -5 1131.08 29.0832  11
   0   2  -5 1119.58 28.4657   5
   0   2   5 1139.33 28.7587  13
   2  -2   5 480.343 13.5234  13
  -2  -2  -5 483.874 15.3338   2
  -2  -2  -5 480.089 13.9714  11
   2  -2   5 479.247 14.0480   4
  -2  -2  -5 485.356 14.9219  15
   2   2   5 466.439 13.6138   4
  -2   2  -5 493.752 14.1477   9
  -2   2  -5 467.094 14.0604   3
   2   2   5 464.395 13.7860  13
   2   2   5 459.667 13.3176  16
   2   2   5 475.394 13.3604   1
  -2   2  -5 466.424 12.6852   5
  -2   2  -5 475.273 13.8292  11
   4  -2   5 316.102 10.8205   4
   4  -2   5 316.371 10.4742  13
  -4  -2  -5 309.779 9.93791  11
  -4  -2  -5 299.653 11.8506   2
   4   2   5 309.253 10.0262   1
   4   2   5 307.386 10.4352   4
   4   2   5 306.129 10.0700  16
  -4   2  -5 317.766 11.2893   3
  -4   2  -5 322.474 10.8220   9
   4   2   5 311.063 10.5902  13
   6  -2   5 212.785 9.38865   4
   6  -2   5 223.022 9.12645  13
  -6  -2  -5 206.615 10.1603   2
  -6  -2  -5 209.386 8.68353   9
   6   2   5 219.601 9.03085   4
   6   2   5 223.317 8.63463   1
   6   2   5 209.570 8.42138  16
  -6   2  -5 218.504 9.06176   9
   6   2   5 226.860 9.31378  13
  -6   2  -5 217.956 9.94084   3
   8  -2   5 69.5350 5.54455  13
   8  -2   5 73.9919 5.93452   4
   8   2   5 74.0283 5.82744  13
   8   2   5 73.2315 5.47497   4
  -8   2  -5 69.2016 5.10238   9
  11  -3  -5 151.384 7.31915  12
 -11  -3   5 163.900 10.0852  14
 -11  -3   5 149.224 9.15157   3
  11  -3  -5 154.436 8.66502   1
  11  -3  -5 159.681 8.34582  16
  11   3  -5 146.165 8.38212   1
 -11   3   5 155.493 9.15213   3
  11   3  -5 146.494 8.23914  16
 -11   3   5 154.416 11.3807  14
  11   3  -5 156.859 7.51174  12
   9  -3  -5 879.678 24.6194   5
  -9  -3   5 858.621 25.8876  10
   9  -3  -5 884.617 26.1446  16
  -9  -3   5 876.481 25.1744   7
   9  -3  -5 897.118 24.9290  12
  -9  -3   5 899.806 28.3894  14
  -9   3   5 912.312 30.2095  14
  -9   3   5 868.751 25.9921   8
   9   3  -5 878.013 24.9418  12
  -9   3   5 869.588 26.6723   3
   9   3  -5 886.054 25.9949   1
   9   3  -5 862.662 25.7712  16
  -7  -3   5 566.280 16.6985   7
   7  -3  -5 578.705 16.6212  12
   7  -3  -5 579.536 16.8514   5
  -7  -3   5 549.136 17.3882  10
   7  -3  -5 575.938 17.5295  15
  -7   3   5 572.623 17.3903   8
   7   3  -5 565.415 16.4343   5
  -7   3   5 573.328 17.6905   3
   7   3  -5 565.388 16.8611  16
  -7   3   5 590.988 20.0843  14
   7   3  -5 567.797 16.9419   1
   7   3  -5 583.260 16.6086  12
  -5  -3   5 2487.21 64.6732  10
   5  -3  -5 2588.74 65.8979  15
  -5  -3   5 2536.73 63.9821   4
   5  -3  -5 2579.11 64.2139  11
   5  -3  -5 2618.89 64.5699   5
  -5  -3   5 2543.89 64.0868   7
   5   3  -5 2607.48 63.8557  12
  -5   3   5 2601.54 64.6802   8
   5   3  -5 2536.49 64.1266   5
   5   3  -5 2551.65 63.8344   1
  -5   3   5 2526.95 66.5652  14
  -5   3   5 2488.09 64.2210   3
   5   3  -5 2592.98 63.8934  16
   3  -3  -5 1092.68 28.5467   5
   3  -3  -5 1104.76 28.7173  11
  -3  -3   5 1058.61 27.9177   4
  -3  -3   5 1096.91 28.1592   7
   3  -3  -5 1082.72 28.1741   2
   3  -3  -5 1096.59 30.1846  15
  -3  -3   5 1068.34 28.9092  10
   3   3  -5 1107.90 27.5782  12
   3   3  -5 1072.92 27.0937   9
   3   3  -5 1059.67 27.9964  11
  -3   3   5 1093.76 28.5297   8
  -3   3   5 1065.66 27.1930   3
   3   3  -5 1086.87 28.2031   5
  -3   3   5 1051.43 26.7274   7
  -3   3   5 1102.53 27.9070   4
  -3   3   5 1112.50 28.1503  13
   3   3  -5 1052.18 27.0718   1
   3   3  -5 1074.99 27.0872  16
   1  -3  -5 3046.89 73.2965   2
   1  -3  -5 2907.27 72.2691   5
  -1  -3   5 2864.93 72.2880   7
   1  -3  -5 3009.65 74.6252  15
  -1  -3   5 2775.36 71.9924   4
  -1  -3   5 2745.80 71.1290  13
   1  -3  -5 2960.74 72.9673  11
   1   3  -5 2856.58 70.9623  12
  -1   3   5 2982.67 71.9343   1
  -1   3   5 2988.39 71.7707   4
  -1   3   5 3056.16 72.1739  13
   1   3  -5 2859.15 72.3030  11
   1   3  -5 2875.31 71.8065   9
   1   3  -5 2887.53 72.0251   5
  -1   3   5 2769.76 70.7155   7
  -1  -3  -5 288.266 9.56519  11
  -1  -3  -5 299.444 10.5366   2
  -1  -3  -5 272.413 8.55477   5
   1  -3   5 278.013 8.43224  13
  -1  -3  -5 291.277 10.5740  15
   1  -3   5 283.536 9.15020   4
  -1   3  -5 290.762 9.25091   9
   1   3   5 293.330 8.88797   1
   1   3   5 293.648 8.90671  16
  -1   3  -5 290.606 9.29732  11
  -1   3  -5 279.010 9.39659   3
   1   3   5 272.243 8.65999   4
  -1   3  -5 337.302 8.66164   6
   1   3   5 297.580 9.13783  13
  -1   3  -5 280.326 8.53446   5
  -3  -3  -5 1528.47 41.4034   2
  -3  -3  -5 1460.64 39.1114  11
   3  -3   5 1480.81 39.4683   4
   3  -3   5 1527.95 38.8552  13
  -3  -3  -5 1497.35 40.1081  15
   3   3   5 1479.39 38.8936   1
   3   3   5 1470.16 38.8320   4
   3   3   5 1506.67 38.9564  16
  -3   3  -5 1499.69 40.2023   3
   3   3   5 1529.36 39.3611  13
  -3   3  -5 1562.94 39.6951   9
   5  -3   5 55.2633 3.70449  13
   5  -3   5 48.2623 3.85245   4
  -5  -3  -5 56.5047 5.08788   2
   5   3   5 59.8951 3.98092   4
  -5   3  -5 53.5117 4.05766   9
   5   3   5 49.3022 3.77298  13
   5   3   5 53.0818 3.56364  16
   5   3   5 48.4689 3.69657   1
  -5   3  -5 56.7591 4.39232   3
  -7  -3  -5 689.110 21.5915   9
   7  -3   5 737.316 23.0626   4
  -7  -3  -5 736.864 24.5005   2
  -7   3  -5 725.729 22.3305   9
   7   3   5 728.970 21.9830  16
   7   3   5 735.399 22.6445  13
  -7   3  -5 746.151 24.4080   3
   7   3   5 728.375 21.9108   1
   7   3   5 726.417 22.0286   4
  12  -4  -5 4.80533 2.11095  12
 -12  -4   5 3.71564 2.79927   3
  12  -4  -5 7.20755 2.85441   1
 -12   4   5 5.29976 3.80791  14
 -12   4   5 11.5602 3.55712   3
  12   4  -5 4.70533 2.64829   1
  12   4  -5 6.17962 2.21145  12
 -10  -4   5 60.0531 5.99569  14
 -10  -4   5 62.5362 5.24742  10
  10  -4  -5 63.1652 4.59419  12
  10  -4  -5 59.1976 5.07593  16
  10   4  -5 65.0875 4.66631  12
 -10   4   5 65.3832 5.49801   8
  10   4  -5 54.7982 4.47315  16
 -10   4   5 69.5634 7.76429  14
  10   4  -5 59.3360 5.15550   1
 -10   4   5 63.3786 5.68113   3
  -8  -4   5 6.89348 1.95258   7
   8  -4  -5 8.38691 1.94506   5
  -8  -4   5 6.03651 2.24512  10
   8   4  -5 9.29008 1.65868   5
  -8   4   5 8.53982 2.15109   3
  -8   4   5 8.59333 2.86473  14
  -8   4   5 7.29522 2.19582   8
   8   4  -5 6.20582 1.78186  12
   8   4  -5 5.48567 1.78916  16
   8   4  -5 5.85010 1.84304   1
  -6  -4   5 113.490 5.98584  10
   6  -4  -5 124.645 6.49821  15
  -6  -4   5 119.777 5.27710   7
   6  -4  -5 120.011 5.22586  11
   6  -4  -5 132.548 5.73908   5
   6   4  -5 124.217 5.13903   5
  -6   4   5 118.928 7.03121  14
   6   4  -5 120.878 5.12420   1
  -6   4   5 124.773 5.85487   8
  -6   4   5 116.857 5.49186   3
   6   4  -5 127.830 5.09530  12
   6   4  -5 118.190 5.09387  16
   4  -4  -5 204.466 8.48433  15
   4  -4  -5 213.668 7.46123  11
   4  -4  -5 193.113 6.65878   2
  -4  -4   5 193.862 6.77680   7
   4  -4  -5 197.964 7.20195   5
  -4  -4   5 187.109 6.45732   4
  -4  -4   5 199.537 7.52048  10
   4   4  -5 181.637 5.94769  16
   4   4  -5 185.776 5.97768   1
  -4   4   5 191.016 6.47545   3
  -4   4   5 181.003 7.76537  14
  -4   4   5 183.527 7.11543   8
   4   4  -5 192.358 6.81621   5
   4   4  -5 197.035 6.39052  12
  -4   4   5 200.034 6.53582   4
   2  -4  -5 99.6323 4.64367  11
  -2  -4   5 78.7665 3.81569   7
  -2  -4   5 83.4778 4.62298  10
   2  -4  -5 89.9816 5.38403  15
  -2  -4   5 84.6543 3.66494   4
   2  -4  -5 82.6350 4.40792   2
   2   4  -5 80.3067 3.20231   9
  -2   4   5 85.1686 3.73636  13
  -2   4   5 85.4631 3.97702  14
   2   4  -5 85.0300 3.74954   5
  -2   4   5 86.9911 3.42179   4
   2   4  -5 79.7281 3.11431  12
   0  -4  -5 499.073 15.0753  11
   0  -4  -5 486.041 14.1571   5
   0  -4  -5 508.301 16.4789  15
   0  -4  -5 498.452 14.2469  10
   0  -4   5 519.595 14.6184   7
   0  -4   5 500.986 14.1784   4
   0  -4   5 479.277 13.0928  13
   0  -4  -5 510.465 15.7470   2
   0   4   5 510.303 14.2339  13
   0   4  -5 496.259 14.1149   9
   0   4   5 495.972 13.6164   4
   0   4   5 492.427 14.0705   1
   0   4  -5 507.012 13.9283   6
   0   4  -5 495.607 14.0242   5
  -2  -4  -5 255.209 9.92572   2
   2  -4   5 242.923 8.39075   4
   2  -4   5 237.090 7.51230  13
  -2  -4  -5 250.744 9.19079  10
  -2  -4  -5 233.835 8.52388  11
  -2  -4  -5 235.374 9.48956  15
  -2   4  -5 233.581 8.83019   3
   2   4   5 227.811 7.60535   4
   2   4   5 238.065 8.16124  13
   2   4   5 241.545 8.13736   1
   2   4   5 237.729 8.13058  16
  -2   4  -5 242.994 8.44246   9
  -2   4  -5 234.851 7.58992   6
  -4  -4  -5 164.545 8.64287   2
   4  -4   5 176.195 7.44966   4
   4  -4   5 172.694 6.70680  13
  -4  -4  -5 154.923 6.50662  11
  -4   4  -5 160.209 7.79347   3
   4   4   5 180.125 7.30004  13
   4   4   5 176.884 6.71475   4
   4   4   5 182.528 7.14342  16
  -4   4  -5 185.974 7.50038   9
   4   4   5 170.901 6.91733   1
   6  -4   5 248.538 10.3960   4
  -6  -4  -5 246.172 11.4535   2
   6  -4   5 253.117 9.79073  13
   6   4   5 252.865 9.84716  16
   6   4   5 260.170 10.2833  13
   6   4   5 257.178 9.73796   4
  -6   4  -5 252.222 11.4186   3
  -6   4  -5 255.433 10.0602   9
   6   4   5 249.399 9.76607   1
   8  -4   5 56.5540 5.22273   4
   8  -4   5 51.4681 4.63715  13
   8   4   5 55.7596 4.36415   1
  -8   4  -5 49.5238 4.35435   9
   8   4   5 57.9344 5.12707  13
  11  -5  -5 542.344 17.1132  12
 -11  -5   5 536.994 19.9518   3
 -11  -5   5 497.796 18.5792  10
  11  -5  -5 544.124 18.8025   1
  11   5  -5 520.271 17.1823  12
 -11   5   5 529.335 23.4807  14
 -11   5   5 525.818 19.1100   8
 -11   5   5 525.889 19.6538   3
  11   5  -5 534.716 18.6362   1
   9  -5  -5 296.873 10.6950   5
  -9  -5   5 285.448 12.2883  10
  -9  -5   5 309.344 11.3791   7
  -9  -5   5 312.321 13.1191  14
   9  -5  -5 322.665 11.0556  12
  -9   5   5 319.366 12.5729   8
   9   5  -5 288.947 11.2172  16
   9   5  -5 309.715 11.6242   1
  -9   5   5 319.225 15.6446  14
   9   5  -5 317.160 11.1299  12
  -9   5   5 309.453 12.5776   3
   7  -5  -5 705.094 21.7704  15
   7  -5  -5 722.155 20.4214   5
   7  -5  -5 710.110 19.8459  11
  -7  -5   5 709.270 20.2717   7
  -7  -5   5 688.015 21.6013  10
  -7   5   5 698.449 23.9297  14
  -7   5   5 691.332 21.0553   3
   7   5  -5 680.260 19.9669   1
   7   5  -5 666.307 19.9514  16
  -7   5   5 699.809 21.2240   8
   7   5  -5 697.870 19.8511   5
   7   5  -5 706.893 19.9487  12
   5  -5  -5 373.797 13.3159  15
  -5  -5   5 382.645 12.9417  10
  -5  -5   5 365.410 11.0960   4
   5  -5  -5 381.726 12.0299   5
   5  -5  -5 392.461 12.0685  11
  -5  -5   5 362.611 11.6262   2
  -5  -5   5 371.947 11.6505   7
  -5   5   5 373.675 11.8620   3
   5   5  -5 383.583 11.3553  12
  -5   5   5 376.910 12.4229   8
   5   5  -5 386.035 11.7322   5
  -5   5   5 387.923 11.2962   6
  -5   5   5 366.304 13.7102  14
   5   5  -5 359.251 10.9956   1
   5   5  -5 367.273 11.0299  16
  -3  -5   5 1164.90 30.5717   7
  -3  -5   5 1141.05 32.0113  10
   3  -5  -5 1146.22 32.6742  15
  -3  -5   5 1110.61 29.8711   4
   3  -5  -5 1166.65 31.1009  11
   3  -5  -5 1284.30 31.3734   2
  -3   5   5 1074.40 31.1749  14
   3   5  -5 1160.42 30.5159   5
  -3   5   5 1184.92 31.3300   8
   3   5  -5 1156.38 29.7237  12
  -3   5   5 1142.05 29.6482   4
  -3   5   5 1167.57 29.6394   6
  -3   5   5 1151.63 30.2606  13
  -1  -5   5 951.256 25.0992   7
   1  -5  -5 932.323 25.8883  11
   1  -5  -5 933.443 27.5236  15
   1  -5  -5 934.225 26.3024   2
  -1  -5   5 906.446 24.3894   4
   1   5  -5 930.445 24.3036   9
  -1   5   5 915.896 24.6986   1
   1   5  -5 903.694 23.5823  12
  -1   5   5 919.482 23.8441   4
  -1   5   5 917.017 24.5803  13
   1   5  -5 946.699 24.8149   5
  -1  -5  -5 1277.07 36.9166  15
  -1  -5  -5 1284.39 35.4800  11
  -1  -5  -5 1337.44 36.8079   2
  -1  -5  -5 1308.59 35.1456  10
   1  -5   5 1317.46 35.0317   7
   1  -5   5 1341.91 34.5996   4
  -1   5  -5 1352.76 34.7645   9
   1   5   5 1344.00 34.5224  13
   1   5   5 1323.40 34.6002  16
   1   5   5 1344.69 34.6301   1
  -1   5  -5 1315.30 34.2432   6
  -3  -5  -5 810.646 25.2769   2
  -3  -5  -5 789.775 22.9846  11
   3  -5   5 827.712 23.1320   4
  -3  -5  -5 833.181 24.4630  10
  -3   5  -5 839.848 22.1977   6
   3   5   5 805.238 22.8096  16
   3   5   5 790.282 21.8935   4
  -3   5  -5 784.412 24.1695   3
   3   5   5 793.298 22.7533   1
  -3   5  -5 848.951 23.2498   9
   3   5   5 820.824 22.8054  13
   5  -5   5 554.519 17.9875   4
  -5  -5  -5 570.617 20.2352   2
   5   5   5 574.611 17.7015  16
  -5   5  -5 585.287 18.1475   9
   5   5   5 580.497 17.8595  13
   5   5   5 580.474 17.7725   1
  -5   5  -5 566.231 19.7266   3
   7  -5   5 254.513 10.6409   4
  -7  -5  -5 238.006 11.7280   2
   7   5   5 235.825 10.1632  13
  -7   5  -5 244.123 12.1472   3
   7   5   5 233.880 10.0619   1
  -7   5  -5 258.671 10.4446   9
  10  -6  -5 7.12420 2.68712  16
 -10  -6   5 12.5699 3.27507  10
  10  -6  -5 7.18336 2.21383  12
  10   6  -5 7.06582 1.88913  12
 -10   6   5 5.58490 2.60646   3
  10   6  -5 9.82367 2.50356   1
 -10   6   5 10.9911 4.16183  14
 -10   6   5 4.59077 2.75079   8
  10   6  -5 6.89466 1.95121  16
  -8  -6   5 70.0984 5.94467  10
   8  -6  -5 72.4994 4.80589   5
  -8  -6   5 63.2780 4.68740   7
   8   6  -5 65.3247 4.04624   5
  -8   6   5 72.3627 6.86528  14
   8   6  -5 63.3738 4.08639  12
   8   6  -5 67.2690 4.33946   1
  -8   6   5 67.9118 5.43769   8
  -8   6   5 65.9028 5.05741   3
   8   6  -5 74.1569 4.60653  16
   6  -6  -5 7.80168 2.43171  15
   6  -6  -5 10.3951 1.93709   5
  -6  -6   5 9.54530 2.17094   7
   6  -6  -5 8.09557 2.02891  11
  -6  -6   5 10.1713 2.44313  10
   6   6  -5 8.64435 1.73619  12
  -6   6   5 9.31727 2.54254  14
  -6   6   5 7.91456 1.80423   3
  -6   6   5 8.50366 1.56767   6
   6   6  -5 11.4791 1.91055   5
   6   6  -5 4.57537 1.27796   1
  -6   6   5 9.06777 2.23945   8
   6   6  -5 6.82490 1.39737  16
   4  -6  -5 25.8675 2.80642  11
   4  -6  -5 34.6931 3.99229  15
  -4  -6   5 26.2364 2.02688   4
  -4  -6   5 29.3680 2.83138   7
   4  -6  -5 25.4597 2.73419   2
  -4  -6   5 27.9589 3.49872  10
  -4   6   5 27.6684 3.02382   8
   4   6  -5 29.0138 2.28821  12
  -4   6   5 32.8148 2.34150   6
  -4   6   5 23.4744 2.74749  14
   4   6  -5 25.4577 2.50519   5
   2  -6  -5 309.205 11.1401   2
  -2  -6   5 329.660 10.3208   7
  -2  -6   5 305.568 9.33520   4
  -2  -6   5 312.508 11.7436  10
   2  -6  -5 318.576 10.9197  11
   2  -6  -5 305.147 12.2077  15
  -2   6   5 296.242 8.85224   6
   2   6  -5 312.848 10.0364   5
  -2   6   5 298.157 9.67304  13
   2   6  -5 311.215 9.12940   9
  -2   6   5 292.669 10.6931   8
   2   6  -5 295.646 9.02564  12
   0  -6  -5 23.2640 2.33778  10
   0  -6   5 29.8812 2.95419   7
   0  -6  -5 29.8916 4.05022  15
   0  -6  -5 25.3605 3.04808  11
   0  -6  -5 31.3365 3.97295   2
   0  -6   5 27.7237 2.29479   4
   0   6  -5 27.1802 2.33696   9
   0   6  -5 26.2354 2.37782   6
   0   6   5 22.5241 2.34309  13
  -2  -6  -5 253.556 10.8710  15
  -2  -6  -5 255.148 9.85308  11
  -2  -6  -5 257.111 11.0238   2
  -2  -6  -5 267.951 10.0702  10
   2  -6   5 253.890 8.99504   4
   2  -6   5 254.975 9.58465   7
   2   6   5 258.569 9.15869   1
  -2   6  -5 259.430 9.30796   9
   2   6   5 253.387 9.09377  16
  -2   6  -5 250.963 8.67554   6
   2   6   5 253.736 8.91321  13
  -4  -6  -5 169.847 9.35078   2
   4  -6   5 165.961 7.26115   4
  -4  -6  -5 160.567 8.35732  10
   4   6   5 165.768 7.19007  13
  -4   6  -5 156.472 8.48048   3
   4   6   5 166.302 7.30605  16
  -4   6  -5 162.379 6.51192   6
   4   6   5 159.558 7.22701   1
  -4   6  -5 164.032 7.50582   9
  -6  -6  -5 63.8000 6.17757   2
   6  -6   5 53.1329 4.50507   4
  -6   6  -5 52.9998 5.61833   3
  -6   6  -5 53.5862 4.33331   9
   6   6   5 57.0625 4.70231  13
   6   6   5 52.5632 4.61799   1
 -11  -7   5 260.321 12.3799  10
 -11   7   5 288.868 13.2539   3
  11   7  -5 277.920 10.9617  12
 -11   7   5 292.344 16.5490  14
 -11   7   5 283.740 13.1041   8
  11   7  -5 252.290 11.4438   1
  -9  -7   5 166.044 9.63981  10
   9  -7  -5 181.366 7.97388   5
  -9  -7   5 178.161 8.02884   7
   9   7  -5 166.612 8.07107   1
   9   7  -5 182.789 7.83563  12
  -9   7   5 186.878 9.48899   3
  -9   7   5 186.065 9.73580   8
   9   7  -5 166.858 7.98478  16
  -9   7   5 190.761 11.9981  14
  -7  -7   5 1075.88 32.0784  10
   7  -7  -5 1083.45 30.1495   5
  -7  -7   5 1070.53 29.8293   7
   7  -7  -5 1061.37 29.7266  11
   7  -7  -5 1009.47 31.5372  15
   7   7  -5 1090.75 29.4646  12
   7   7  -5 1048.26 29.2764  16
  -7   7   5 1049.56 33.9510  14
  -7   7   5 1124.85 31.6965   8
   7   7  -5 1091.25 29.5283   5
  -7   7   5 1098.67 31.0609   3
   5  -7  -5 626.922 18.8514  11
   5  -7  -5 616.486 20.5558  15
  -5  -7   5 619.351 18.3320   7
  -5  -7   5 645.063 20.5232  10
  -5  -7   5 608.958 18.9190   2
   5   7  -5 617.719 18.3069   5
  -5   7   5 666.374 20.9635   3
  -5   7   5 568.616 20.2203  14
  -5   7   5 623.451 19.5587   8
  -5   7   5 631.032 17.7061   6
   5   7  -5 623.356 17.7793  12
  -3  -7   5 1690.81 43.8860   7
  -3  -7   5 1664.28 46.0642  10
   3  -7  -5 1628.83 46.4196  15
   3  -7  -5 1676.62 44.7377   2
   3  -7  -5 1686.85 44.6190  11
   3   7  -5 1700.28 42.9341  12
  -3   7   5 1727.16 45.1177   8
  -3   7   5 1661.44 42.6486   6
   3   7  -5 1692.93 43.8454   5
   1  -7  -5 387.232 13.6853   2
  -1  -7   5 356.594 11.1496   4
  -1  -7   5 381.769 12.2045   7
  -1  -7   5 389.729 14.5269  10
   1  -7  -5 370.778 14.4274  15
   1  -7  -5 368.367 12.8638  11
   1   7  -5 376.790 11.9569   6
  -1   7   5 387.729 11.7054  13
   1   7  -5 370.355 10.8009  12
   1   7  -5 386.184 11.5140   9
  -1  -7  -5 881.138 26.1344  11
  -1  -7  -5 899.045 25.5556  10
   1  -7   5 878.686 24.3911   4
  -1  -7  -5 948.952 27.8964   2
   1  -7   5 898.256 25.5329   7
  -1  -7  -5 865.974 27.7376  15
   1   7   5 891.914 24.6358  13
   1   7   5 909.282 25.0284   1
  -1   7  -5 899.467 24.8921   9
  -1   7  -5 900.478 24.7816   6
  -3  -7  -5 60.1997 4.47232  11
   3  -7   5 64.9959 4.65738   7
   3  -7   5 62.1828 4.15256   4
  -3  -7  -5 61.9604 5.96497   2
  -3  -7  -5 63.3820 4.83317  10
  -3   7  -5 59.9963 3.70273   6
   3   7   5 66.0372 4.41806   1
  -3   7  -5 62.0772 4.11971   9
   3   7   5 59.2436 4.22099  16
   3   7   5 59.6995 4.00853  13
   5  -7   5 436.578 15.6457   7
  -5  -7  -5 441.919 17.3716   2
   5  -7   5 436.962 14.9745   4
   5   7   5 441.583 15.0123   1
   5   7   5 435.586 14.5723  13
   5   7   5 443.081 15.0541  16
  -5   7  -5 453.740 15.3933   9
  10  -8  -5 141.479 7.06101  12
 -10  -8   5 144.679 8.98641  10
  10   8  -5 128.464 7.13271   1
 -10   8   5 146.651 9.15777   8
  10   8  -5 144.706 7.35269  12
 -10   8   5 151.325 8.93497   3
 -10   8   5 144.447 11.2601  14
  -8  -8   5 570.893 20.8870  10
  -8  -8   5 585.725 18.3722   7
   8  -8  -5 588.322 18.6282   5
  -8   8   5 558.839 22.6697  14
  -8   8   5 596.993 19.8709   3
   8   8  -5 577.955 18.0617  12
  -8   8   5 604.057 20.4407   8
   6  -8  -5 367.570 12.8084  11
  -6  -8   5 379.577 14.6796  10
  -6  -8   5 370.727 12.5130   7
   6   8  -5 356.714 11.8031  12
  -6   8   5 324.735 14.5765  14
  -6   8   5 353.576 11.8188   6
  -6   8   5 347.146 13.5467   8
  -4  -8   5 388.825 14.9342  10
   4  -8  -5 395.096 13.4009  11
  -4  -8   5 380.381 13.8901   2
   4  -8  -5 363.531 14.7457  15
   4  -8  -5 381.400 13.3255   2
  -4  -8   5 392.703 12.7390   7
  -4   8   5 397.028 14.0756   8
  -4   8   5 380.726 11.8481   6
   4   8  -5 388.997 12.0381  12
   2  -8  -5 771.132 23.3928   2
   2  -8  -5 750.215 22.6593  11
   2  -8  -5 712.658 24.1711  15
  -2  -8   5 771.077 24.5204  10
  -2  -8   5 780.875 21.8382   7
   2   8  -5 784.332 21.8469   6
   2   8  -5 752.089 20.4863  12
  -2   8   5 690.379 20.1777   6
  -2   8   5 758.590 23.0184   8
  -2   8   5 769.182 21.1764  13
   0  -8  -5 166.349 8.12801  11
   0  -8   5 152.550 6.91522   7
   0  -8  -5 160.094 8.74763   2
   0  -8   5 139.066 8.52325  10
   0  -8  -5 139.969 8.53855  15
   0   8  -5 149.166 6.57369   6
   0   8   5 147.331 6.63843   1
   0   8  -5 160.456 6.38449   9
   0   8   5 147.641 6.15849  13
  -2  -8  -5 300.616 11.5012  10
   2  -8   5 283.988 10.8950   7
  -2  -8  -5 274.917 11.3030  11
  -2  -8  -5 311.136 13.3300   2
   2   8   5 286.758 10.1078  13
   2   8   5 288.233 10.6316   1
  -2   8  -5 276.787 10.1911   6
  -2   8  -5 306.573 10.7024   9
  -4  -8  -5 213.051 10.2094  10
   4  -8   5 194.587 8.99359   7
  -4  -8  -5 195.520 10.7316   2
   4   8   5 179.401 8.39677   1
   4   8   5 190.598 8.05009  13
  -4   8  -5 195.642 7.97879   6
  -4   8  -5 193.469 8.63563   9
   4   8   5 180.506 8.19886  16
  -6  -8  -5 16.4977 3.86506   2
   6  -8   5 16.2697 3.17058   7
  -6   8  -5 17.0875 3.11503   9
   6   8   5 12.9701 2.58309  13
   6   8   5 14.7589 2.87965   1
  -9  -9   5 735.773 25.8562  10
  -9  -9   5 727.287 22.5614   7
   9  -9  -5 749.294 22.8483   5
   9   9  -5 758.031 22.5994  12
  -9   9   5 778.481 25.4591   8
  -9   9   5 707.335 27.7605  14
   7  -9  -5 9.59277 2.64403   5
  -7  -9   5 9.20727 3.61628  10
   7  -9  -5 20.1291 3.41066  11
  -7  -9   5 9.52568 2.14169   7
  -7   9   5 5.46649 2.19132  14
  -7   9   5 8.12483 2.84495   8
   7   9  -5 7.08973 2.07906  12
  -5  -9   5 720.605 23.5006   2
   5  -9  -5 776.139 23.2054  11
  -5  -9   5 746.401 25.0379  10
  -5  -9   5 760.642 22.2435   7
   5   9  -5 762.074 21.6815  12
  -5   9   5 782.612 21.6537   6
  -5   9   5 764.146 23.9884   8
   3  -9  -5 19.8045 3.58986   2
  -3  -9   5 24.7119 2.89979   7
   3  -9  -5 20.3076 3.44217  11
  -3  -9   5 27.8295 4.12368  10
   3   9  -5 21.8242 2.89852   6
   3   9  -5 27.3364 2.64207  12
  -3   9   5 25.0413 2.47841   6
  -3   9   5 24.9401 3.54152   8
  -1  -9   5 1161.20 34.8752  10
   1  -9  -5 1150.41 33.8500   2
   1  -9  -5 1116.15 32.5961  11
  -1  -9   5 1145.44 31.5738   7
  -1   9   5 1154.10 33.1643   8
  -1   9   5 1099.57 30.5186  13
   1   9  -5 1132.27 31.4669   6
   1  -9   5 255.565 12.4248  10
   1  -9   5 255.919 9.97425   7
  -1  -9  -5 254.475 10.9992  11
  -1  -9  -5 253.851 12.2301   2
  -1   9  -5 261.862 9.64562   9
   1   9   5 242.209 9.03301  13
   1   9   5 244.543 9.77211   1
  -1   9  -5 245.487 9.47975   6
  -3  -9  -5 946.797 28.7325  10
   3  -9   5 1000.83 28.3020   7
  -3  -9  -5 959.652 30.8470   2
  -3  -9  -5 897.854 27.7855  11
   3   9   5 953.590 26.7139  13
   3   9   5 943.517 27.5822   1
  -3   9  -5 945.027 27.3998   9
  -3   9  -5 949.712 26.9892   6
   5  -9   5 206.040 9.74760   7
  -5  -9  -5 212.720 10.6918  10
  -5  -9  -5 208.352 11.5693   2
   5   9   5 209.682 9.34665   1
  -5   9  -5 216.304 8.85169   6
  -5   9  -5 220.667 9.75138   9
  -8 -10   5 35.4029 4.08852   7
   8 -10  -5 32.4568 4.12044   5
  -8 -10   5 39.5631 5.48148  10
  -8  10   5 38.8986 5.48675   8
   8  10  -5 32.7557 3.78970  12
  -8  10   5 26.7599 5.93278  14
  -6 -10   5 7.06286 3.64077  10
  -6 -10   5 -0.4350 1.86676   7
   6 -10  -5 2.97379 2.63640  11
  -6  10   5 0.00777 1.28253   6
   6  10  -5 2.35156 1.73941  12
  -6  10   5 -0.8356 1.57274   8
  -4 -10   5 5.83668 3.29787  10
   4 -10  -5 -0.7574 2.46442  11
  -4 -10   5 3.42296 2.42038   2
   4 -10  -5 1.69690 2.38140   2
  -4 -10   5 -1.0518 1.78232   7
   4  10  -5 0.27855 1.40966  12
   4  10  -5 -0.1948 1.14119   6
  -4  10   5 0.57299 2.05197   8
  -4  10   5 1.30410 1.50417   6
   2 -10  -5 87.5181 6.95097   2
   2 -10  -5 97.6729 6.64592  11
  -2 -10   5 80.6803 7.15453  10
  -2 -10   5 90.0757 5.41179   7
   2  10  -5 82.8055 5.35970   6
  -2  10   5 86.9216 6.42101   8
   0 -10   5 8.72828 2.02788   7
   0 -10  -5 8.04958 3.20677  11
   0 -10  -5 13.7432 4.03268   2
   0 -10   5 28.0574 4.80009  10
   0  10  -5 12.2745 2.58180   6
   0  10  -5 13.0389 2.26167   9
   0  10   5 7.23626 2.28900   8
  -2 -10  -5 62.2897 7.07324   2
  -2 -10  -5 56.6978 5.30996  11
   2 -10   5 56.6262 6.30447  10
   2 -10   5 45.8385 4.05179   7
  -2  10  -5 52.0567 4.30263   9
   2  10   5 49.9992 4.18831   1
  -2  10  -5 54.0699 4.46807   6
   4 -10   5 16.9480 3.68804  10
   4 -10   5 23.3397 3.37205   7
  -4 -10  -5 22.5768 4.81645   2
  -4  10  -5 15.9141 3.03834   9
  -4  10  -5 16.4866 2.85355   6
   4  10   5 16.4461 3.10323   1
  -7 -11   5 233.318 13.0758  10
   7 -11  -5 227.809 10.4216  11
   7 -11  -5 213.753 10.2442   5
   7  11  -5 226.661 9.49812  12
  -7  11   5 230.697 9.46838   6
  -7  11   5 252.644 11.9532   8
   7  11  -5 241.951 10.0890   6
  -5 -11   5 730.164 24.7806   2
  -5 -11   5 741.265 26.3573  10
   5 -11  -5 765.249 24.1630  11
  -5 -11   5 753.751 22.5011   7
   5  11  -5 756.936 22.1132  12
  -5  11   5 736.366 21.7528   6
  -5  11   5 757.382 24.8712   8
   5  11  -5 761.428 22.9988   6
  -3 -11   5 397.224 15.9210   2
  -3 -11   5 390.619 16.5571  10
   3 -11  -5 367.380 14.5282  11
   3 -11  -5 379.774 15.0934   2
  -3  11   5 408.635 15.5294   8
   3  11  -5 398.118 14.0273   6
  -1 -11   5 425.848 17.5976  10
   1 -11  -5 420.679 16.9612   2
  -1 -11   5 427.680 14.3770   7
   1 -11  -5 398.633 15.3747  11
  -1  11   5 442.315 16.5109   8
   1  11  -5 420.123 14.7726   6
  -1 -11  -5 183.138 10.9737   2
  -1 -11  -5 187.001 9.71362  11
   1 -11   5 191.656 11.2727  10
   1 -11   5 184.029 8.39567   7
  -1  11  -5 185.935 8.21440   9
  -1  11  -5 177.269 8.44159   6
   1  11   5 173.237 9.71277   8
  -3 -11  -5 102.158 7.91626   2
   3 -11   5 101.924 8.34551  10
   3 -11   5 91.1174 5.96432   7
  -3  11  -5 88.8333 5.96250   9
   3  11   5 98.9245 6.38236   1
  -3  11  -5 98.0737 6.09679   6
  -4 -12   5 198.094 10.5983   2
   4 -12  -5 189.482 10.1142  11
  -4 -12   5 191.348 11.7317  10
   4 -12  -5 185.486 9.72699   2
   4  12  -5 196.394 8.83981   6
  -4  12   5 200.066 10.5827   8
   2 -12  -5 62.5254 6.20910  11
   2 -12  -5 60.3896 6.00327   2
  -2 -12   5 52.8367 6.69993  10
  -2 -12   5 64.6628 6.47835   2
   2  12  -5 56.3968 4.97838   6
  -2  12   5 56.6586 5.87935   8
   0 -12   5 279.276 13.8623  10
   0 -12  -5 275.579 12.2097  11
   0 -12  -5 263.178 13.5223   2
   0  12  -5 293.153 11.4366   6
   0  12   5 284.911 12.8505   8
 -12   0   6 4.79622 2.14645   3
 -12   0   6 4.89672 2.59928  14
  12   0  -6 4.20231 2.74086   1
  12   0  -6 4.97877 2.21833  12
  10   0  -6 1707.72 45.5771  12
  10   0  -6 1694.01 46.8761  16
  10   0  -6 1713.93 47.0565   1
 -10   0   6 1693.53 47.5405   3
 -10   0   6 1759.42 50.6556  14
  -8   0   6 257.763 11.6133  14
  -8   0   6 241.979 9.64488   3
   8   0  -6 236.280 9.23800  16
  -8   0   6 262.100 8.85641   7
   8   0  -6 243.286 8.85680  12
   8   0  -6 245.426 8.73091   5
   6   0  -6 3840.29 96.0642  15
  -6   0   6 3861.67 95.1498   4
   6   0  -6 3832.41 94.7341  12
  -6   0   6 3679.04 94.2141   8
  -6   0   6 3809.96 94.5741   7
   6   0  -6 3928.69 95.2679   5
   4   0  -6 115.737 5.54577  15
  -4   0   6 128.553 4.86360   4
   4   0  -6 121.438 4.32085  12
   4   0  -6 112.450 4.58056  11
  -4   0   6 112.377 4.25480   7
  -4   0   6 109.457 4.01765   8
   4   0  -6 117.695 4.85276   5
  -2   0   6 7721.36 195.970   7
  -2   0   6 7946.78 195.394   4
   2   0  -6 7936.94 199.506   5
  -2   0   6 7833.83 197.185  13
   2   0  -6 7667.11 199.596   2
   2   0  -6 7767.64 192.751  12
   2   0  -6 7826.45 199.914  11
   2   0  -6 7865.77 206.716  15
   0   0   6 109.075 4.33956  13
   0   0   6 115.754 4.31288   7
   0   0   6 108.709 4.57917   4
   0   0  -6 119.669 5.81665  15
   0   0  -6 109.604 4.13289   5
   0   0  -6 115.976 4.83212  11
   0   0  -6 113.645 5.26871   2
   0   0   6 106.477 3.70322   1
   2   0   6 4510.64 108.455   1
  -2   0  -6 4363.47 109.589  11
   2   0   6 4500.05 109.693   4
  -2   0  -6 4260.96 111.166   2
   2   0   6 4544.65 109.378  13
   2   0   6 4312.92 108.164  16
   4   0   6 17.4668 2.50187   4
  -4   0  -6 21.8298 2.09637  11
  -4   0  -6 18.6643 2.54157   9
   4   0   6 23.8950 2.81813  13
  -6   0  -6 1033.33 29.9554   9
   6   0   6 1031.80 29.8951  13
   6   0   6 1041.09 30.2059   4
 -11  -1   6 11.7414 3.11717   3
 -11  -1   6 11.3935 3.65368  14
  11  -1  -6 5.69778 2.22469  12
  11  -1  -6 10.3356 3.11950   1
  11  -1  -6 7.83700 2.66496  16
 -11   1   6 9.99441 3.85879  14
  11   1  -6 6.01890 2.27326  12
  11   1  -6 5.98882 2.43358  16
  11   1  -6 4.68225 2.52295   1
 -11   1   6 8.84540 2.92702   3
   9  -1  -6 264.924 9.64883   5
  -9  -1   6 285.626 12.9408  14
   9  -1  -6 269.091 9.81994  12
   9  -1  -6 274.208 10.6463  16
  -9  -1   6 270.767 9.77256   7
  -9  -1   6 273.792 11.2205   3
  -9   1   6 282.607 13.4197  14
   9   1  -6 270.837 9.95153  12
   9   1  -6 283.465 10.8005  16
  -9   1   6 273.307 10.0587   8
  -9   1   6 270.712 10.8111   3
   9   1  -6 290.977 10.8475   1
   9   1  -6 268.902 9.52166   5
   7  -1  -6 280.144 10.0115  15
   7  -1  -6 284.395 9.63463   5
  -7  -1   6 294.200 9.43415   7
   7  -1  -6 275.619 9.35961  12
   7   1  -6 274.419 9.44926   5
  -7   1   6 272.528 9.82105   3
  -7   1   6 276.668 9.32276   8
  -7   1   6 287.195 12.0592  14
   7   1  -6 278.061 9.33883  12
  -7   1   6 286.044 9.06879   7
   7   1  -6 281.695 9.73066  16
   5  -1  -6 33.5431 2.54679   5
   5  -1  -6 31.5763 2.29539  12
  -5  -1   6 30.7685 2.04165  10
  -5  -1   6 28.9888 2.50249   4
   5  -1  -6 28.9306 2.17657  11
  -5  -1   6 30.0035 2.09287   7
   5  -1  -6 32.6245 3.00854  15
   5   1  -6 27.3789 2.65008  15
  -5   1   6 32.2909 2.31617   4
  -5   1   6 28.8086 2.01771   7
  -5   1   6 29.1690 2.04308   8
   5   1  -6 29.0126 2.16746  12
   5   1  -6 32.4493 2.50804   5
   5   1  -6 29.5650 2.00692  11
  -5   1   6 29.2935 2.04041   3
   3  -1  -6 1053.88 27.7093   2
  -3  -1   6 1094.21 28.0467   4
  -3  -1   6 1095.50 27.6162  13
  -3  -1   6 1029.31 27.8165  10
   3  -1  -6 1077.95 29.9122  15
   3  -1  -6 1095.83 28.3811  11
  -3  -1   6 1059.02 27.6685   7
   3  -1  -6 1126.79 28.4473   5
  -3  -1   6 1050.34 26.8939   8
   3   1  -6 1090.09 29.6811  15
   3   1  -6 1078.86 28.1030  11
   3   1  -6 1071.12 27.2931  12
  -3   1   6 1071.04 27.2447   7
  -3   1   6 1064.28 27.9227   4
  -3   1   6 1070.89 27.7135   8
  -3   1   6 1062.36 27.7982  13
   3   1  -6 1065.96 28.1306   5
   1  -1  -6 46.3120 2.81452  11
   1  -1  -6 49.5302 2.60614   5
  -1  -1   6 43.1971 2.67407   4
   1  -1  -6 43.4847 3.38921  15
  -1  -1   6 41.0558 2.28029  13
  -1  -1   6 44.2776 2.49944   7
   1  -1  -6 47.2146 2.97185   2
   1   1  -6 43.0365 3.30350  15
   1   1  -6 44.6211 2.43122   5
  -1   1   6 40.8881 2.47743  13
  -1   1   6 42.6096 2.45238   4
  -1   1   6 42.7472 2.15585   7
   1   1  -6 39.8386 2.56185  11
  -1  -1  -6 167.056 7.16750   2
   1  -1   6 159.374 6.17560   4
  -1  -1  -6 163.252 5.26784   5
  -1  -1  -6 161.267 6.31791  11
   1  -1   6 157.274 5.75395  13
  -1  -1  -6 167.187 7.30489  15
   1   1   6 162.678 5.94641  13
   1   1   6 164.969 5.40515  16
  -1   1  -6 156.256 5.26470   5
   1   1   6 159.200 5.34192   1
   1   1   6 164.056 6.03226   4
  -1   1  -6 160.056 6.22424  11
  -1   1  -6 154.301 5.54807   3
  -3  -1  -6 302.000 11.6333   2
   3  -1   6 294.632 10.3105   4
   3  -1   6 288.547 9.80792  13
  -3  -1  -6 291.324 9.83844  11
  -3   1  -6 303.657 10.4232   9
   3   1   6 290.234 10.0674   4
  -3   1  -6 292.273 9.82167  11
   3   1   6 287.290 9.16070   1
   3   1   6 307.408 10.1941  13
   3   1   6 284.397 9.14666  16
  -5  -1  -6 7.39871 2.16618   9
   5  -1   6 3.79030 1.89029   4
   5  -1   6 2.93790 1.82531  13
  -5   1  -6 4.46590 1.62242   9
   5   1   6 5.26215 1.95322  13
   5   1   6 1.76237 1.32830   4
   7  -1   6 96.5189 6.58029   4
   7  -1   6 101.563 6.47538  13
  -7  -1  -6 88.6626 5.81592   9
   7   1   6 105.496 6.58580  13
  -7   1  -6 91.7557 5.78866   9
   7   1   6 105.849 6.72435   4
  12  -2  -6 294.913 13.0317   1
 -12  -2   6 322.461 15.7152  14
  12  -2  -6 301.461 11.6200  12
 -12  -2   6 288.687 13.5208   3
  12   2  -6 285.721 12.8429   1
  12   2  -6 302.570 11.6873  12
 -12   2   6 302.545 13.5669   3
 -12   2   6 303.264 16.4759  14
 -10  -2   6 636.665 23.1713  14
  10  -2  -6 655.669 20.8679  16
  10  -2  -6 659.910 19.6273  12
 -10  -2   6 653.456 21.7235   3
  10   2  -6 639.975 20.6643   1
  10   2  -6 653.426 19.6033  12
 -10   2   6 642.375 21.4644   3
 -10   2   6 645.440 24.4593  14
  10   2  -6 623.518 20.5052  16
 -10   2   6 614.231 19.9541   8
  -8  -2   6 1195.58 32.1483   7
   8  -2  -6 1186.06 32.1747   5
  -8  -2   6 1127.95 32.3368  10
   8  -2  -6 1187.17 32.0549  12
  -8   2   6 1243.56 36.4379  14
   8   2  -6 1180.98 32.5905  16
  -8   2   6 1209.24 32.6122   8
  -8   2   6 1221.40 33.3280   3
   8   2  -6 1220.02 32.1359   5
   8   2  -6 1145.02 32.4353   1
   8   2  -6 1216.55 32.1853  12
   6  -2  -6 1964.04 48.4210  11
  -6  -2   6 1900.25 48.6148   7
   6  -2  -6 1944.37 50.3509  15
  -6  -2   6 1867.88 48.7019  10
   6  -2  -6 2005.53 49.3115   5
  -6  -2   6 1912.82 48.7458   4
   6  -2  -6 1891.41 48.5189  12
  -6   2   6 1858.51 48.8119   3
  -6   2   6 1926.67 51.7237  14
   6   2  -6 1842.69 48.5690   1
  -6   2   6 1916.54 47.8648   7
   6   2  -6 1917.39 48.8820   5
   6   2  -6 1899.86 48.6479  16
   6   2  -6 1896.05 48.4697  12
  -6   2   6 1913.05 48.9013   8
   6   2  -6 1851.55 47.7433  11
   4  -2  -6 1404.29 35.8247   2
   4  -2  -6 1500.99 38.9483  15
   4  -2  -6 1487.16 36.9832  11
  -4  -2   6 1434.86 36.4671   7
   4  -2  -6 1484.15 37.1928   5
  -4  -2   6 1430.80 36.6101   4
  -4  -2   6 1353.98 36.5493  10
  -4   2   6 1385.60 35.7386   3
   4   2  -6 1389.95 35.8569  16
  -4   2   6 1413.79 36.6298   8
   4   2  -6 1416.65 36.4305  11
  -4   2   6 1404.44 35.5582   7
  -4   2   6 1395.59 36.4753   4
   4   2  -6 1398.31 36.0121  12
   4   2  -6 1428.07 36.7664   5
   2  -2  -6 1124.72 29.6721   5
   2  -2  -6 1147.76 31.7679  15
  -2  -2   6 1110.78 29.3231   7
   2  -2  -6 1186.54 30.2253  11
   2  -2  -6 1179.90 29.9978   2
  -2  -2   6 1118.67 29.4584   4
  -2  -2   6 1105.15 28.7146  13
   2   2  -6 1126.14 28.3662  12
   2   2  -6 1099.69 29.5920  11
  -2   2   6 1100.04 28.3246   7
  -2   2   6 1130.79 29.2572   4
  -2   2   6 1137.57 29.3250  13
   2   2  -6 1117.79 29.4199   5
   0  -2  -6 628.407 16.7348  11
   0  -2   6 558.180 15.9375   4
   0  -2  -6 582.755 17.2083   2
   0  -2   6 539.526 15.8223   7
   0  -2  -6 568.591 17.8225  15
   0  -2   6 544.420 15.2137  13
   0  -2  -6 556.462 15.5011   5
   0   2   6 564.370 15.7423   4
   0   2  -6 530.118 14.8991   6
   0   2  -6 597.682 16.3420  11
   0   2  -6 561.765 15.4491   5
   0   2   6 559.265 15.7791  13
   0   2   6 537.133 14.9473   7
   0   2   6 565.835 15.3252   1
  -2  -2  -6 294.218 11.2597   2
   2  -2   6 289.534 9.33945  13
  -2  -2  -6 302.235 10.0298  11
  -2  -2  -6 296.585 11.0066  15
   2  -2   6 294.028 9.98633   4
   2   2   6 289.825 9.13620  16
   2   2   6 290.232 9.71637  13
  -2   2  -6 283.061 9.62667   3
   2   2   6 287.421 9.55591   4
  -2   2  -6 301.894 9.90076  11
   2   2   6 282.389 9.02608   1
  -2   2  -6 307.517 10.1110   9
   4  -2   6 569.623 16.8859  13
   4  -2   6 560.623 17.4553   4
  -4  -2  -6 551.202 18.9862   2
   4   2   6 572.572 17.0478   4
   4   2   6 536.529 16.1910  16
  -4   2  -6 534.202 17.2293   3
   4   2   6 549.292 17.0437  13
   4   2   6 568.482 16.3496   1
  -4   2  -6 559.521 17.4070   9
  -6  -2  -6 251.709 10.2259   9
   6  -2   6 254.717 10.3540  13
   6  -2   6 265.214 10.9580   4
   6   2   6 263.257 10.5156   4
   6   2   6 260.642 10.6862  13
  -6   2  -6 256.472 10.5760   9
 -11  -3   6 125.381 8.68421  14
  11  -3  -6 141.176 7.03232  12
  11  -3  -6 126.897 7.54628   1
  11  -3  -6 101.120 7.94028  16
 -11  -3   6 135.440 8.62891   3
 -11   3   6 141.605 10.6633  14
  11   3  -6 128.769 6.86531  12
  11   3  -6 131.474 7.65345  16
  11   3  -6 127.246 7.75267   1
 -11   3   6 124.932 8.00792   3
   9  -3  -6 17.5098 2.45942  12
  -9  -3   6 17.4462 2.63403  10
  -9  -3   6 18.7023 2.89608   7
  -9  -3   6 13.3829 3.42580  14
   9  -3  -6 12.7773 2.40364  16
   9  -3  -6 9.33410 2.13246   5
  -9   3   6 9.37079 2.01225   8
   9   3  -6 11.4948 2.42008  16
   9   3  -6 14.6709 2.61501   1
  -9   3   6 10.9423 2.42740   3
   9   3  -6 9.94561 2.22502  12
  -9   3   6 11.2774 3.09479  14
   9   3  -6 8.52329 1.72917   5
  -7  -3   6 54.5205 3.96604  10
  -7  -3   6 58.4824 3.92359   7
   7  -3  -6 57.6702 3.25918  11
   7  -3  -6 63.2529 3.85836   5
   7  -3  -6 55.4039 3.65511  12
   7  -3  -6 56.7197 4.25877  15
  -7   3   6 59.5889 3.95116   8
   7   3  -6 60.7380 3.50776  12
   7   3  -6 55.4416 3.57147   1
  -7   3   6 71.3268 4.14762   3
  -7   3   6 59.5561 5.11277  14
   7   3  -6 57.4732 3.60580   5
   7   3  -6 56.1040 3.58580  16
  -5  -3   6 379.329 12.2775  10
  -5  -3   6 404.836 12.0999   4
   5  -3  -6 411.513 12.5883   5
   5  -3  -6 406.879 13.9312  15
  -5  -3   6 394.549 12.0224   7
   5  -3  -6 421.077 12.4305  11
   5   3  -6 396.669 12.2512   5
   5   3  -6 400.783 11.5351  16
  -5   3   6 404.085 12.4095   8
  -5   3   6 397.410 13.7985  14
   5   3  -6 395.104 11.6717  12
  -5   3   6 394.615 11.7098   3
   5   3  -6 391.943 11.4908   1
  -5   3   6 401.836 12.0005   4
  -3  -3   6 7.33087 1.20699   4
   3  -3  -6 3.87485 1.24558   5
  -3  -3   6 10.6970 1.48927   7
   3  -3  -6 2.51498 1.03221   2
   3  -3  -6 3.07588 1.25572  11
   3  -3  -6 3.09629 1.43579  15
  -3  -3   6 3.09045 1.16158  10
   3   3  -6 4.42834 0.79081  12
  -3   3   6 3.67851 1.13925  13
   3   3  -6 4.28330 0.59027  16
   3   3  -6 4.02950 1.08830  11
  -3   3   6 4.80870 1.31147   8
  -3   3   6 4.00300 1.07280   4
   3   3  -6 4.49111 1.14048   5
   1  -3  -6 318.075 10.6677   2
  -1  -3   6 309.398 8.86061  13
   1  -3  -6 304.240 9.76817   5
  -1  -3   6 315.554 9.78983   4
   1  -3  -6 312.954 10.4715  11
   1  -3  -6 309.431 11.8214  15
  -1  -3   6 309.522 9.82574   7
   1   3  -6 310.644 9.55640   5
  -1   3   6 312.776 9.40150   4
   1   3  -6 304.089 9.91378  11
  -1   3   6 313.388 9.69641  13
   1   3  -6 316.684 9.53065   9
   1  -3   6 84.7350 4.30810   7
   1  -3   6 79.8879 4.18983   4
  -1  -3  -6 83.6180 5.21277   2
  -1  -3  -6 78.6706 4.41988  11
  -1  -3  -6 76.9614 5.05258  15
   1  -3   6 83.0750 3.54508  13
   1   3   6 79.8103 4.02968  13
   1   3   6 79.3349 3.65552  16
  -1   3  -6 85.6594 4.23892   9
   1   3   6 79.1710 3.72076   4
   1   3   6 77.5934 3.69624   1
  -1   3  -6 81.3103 3.51555   5
  -1   3  -6 81.2673 4.10797  11
  -1   3  -6 79.5551 3.34314   6
   3  -3   6 0.47277 1.27318   4
  -3  -3  -6 3.89268 2.05011   2
   3  -3   6 1.13999 1.05646  13
  -3  -3  -6 -0.1345 0.95576  11
   3   3   6 0.28996 1.32258  13
   3   3   6 1.51873 1.19064   4
   3   3   6 4.04887 1.12124   1
   3   3   6 5.08592 1.35024  16
  -3   3  -6 0.01687 0.87178   9
  -3   3  -6 0.78926 1.12462   3
   5  -3   6 98.2047 5.76894   4
   5  -3   6 92.6014 5.29734  13
  -5  -3  -6 93.5575 6.91540   2
   5   3   6 96.1024 5.01916   1
  -5   3  -6 94.4420 5.73704   9
   5   3   6 92.5636 5.61450  13
   5   3   6 95.7721 5.21057   4
  -5   3  -6 95.3873 5.79387   3
   5   3   6 94.3789 5.10314  16
   7  -3   6 5.86946 2.48752   4
  -7  -3  -6 6.51160 2.20929   9
   7  -3   6 7.12543 1.92989  13
   7   3   6 3.09154 2.29077  13
   7   3   6 5.88189 1.80615   4
  -7   3  -6 7.14944 1.99151   9
  12  -4  -6 629.278 21.4175   1
 -12  -4   6 614.155 22.4178   3
 -12   4   6 638.413 26.2349  14
  12   4  -6 573.076 20.7323   1
  12   4  -6 616.806 19.7395  12
 -10  -4   6 42.5224 5.31297  14
 -10  -4   6 36.6569 3.70977   7
 -10  -4   6 35.1197 3.73770  10
  10  -4  -6 37.1309 4.08505  16
  10  -4  -6 38.2888 3.30568   5
 -10   4   6 39.2562 6.07584  14
 -10   4   6 38.2091 3.94251   8
  10   4  -6 31.9399 3.59944  16
  10   4  -6 37.4863 3.76334  12
  10   4  -6 35.3469 4.05956   1
 -10   4   6 40.8995 4.49096   3
   8  -4  -6 814.949 22.8303  12
  -8  -4   6 786.557 22.9524   7
  -8  -4   6 780.672 23.8734  10
   8  -4  -6 818.596 23.2407   5
   8   4  -6 800.391 23.3234   1
  -8   4   6 798.566 23.9778   3
   8   4  -6 809.457 22.8822  12
   8   4  -6 790.403 22.8109   5
  -8   4   6 813.864 27.1497  14
   8   4  -6 796.637 23.2473  16
  -8   4   6 857.697 24.2872   8
  -6  -4   6 64.9601 3.96530   7
  -6  -4   6 57.9603 3.53220   4
   6  -4  -6 60.3620 4.13246   5
   6  -4  -6 68.3024 4.88598  15
  -6  -4   6 59.1199 4.25516  10
   6  -4  -6 61.4292 3.76310  11
   6   4  -6 65.6145 3.45414   1
   6   4  -6 57.2603 3.43201  12
   6   4  -6 67.4252 3.88140   5
  -6   4   6 64.6885 4.15042   8
  -6   4   6 60.5207 3.55028   3
  -6   4   6 79.8517 5.61611  14
   6   4  -6 61.8190 3.37260  16
   4  -4  -6 2107.05 51.9222  11
   4  -4  -6 1987.26 50.9097   2
  -4  -4   6 2020.12 51.2490   7
   4  -4  -6 1997.25 53.5730  15
  -4  -4   6 2014.85 50.9765   4
  -4  -4   6 1963.47 52.0969  10
   4  -4  -6 2069.98 51.7676   5
   4   4  -6 2013.25 50.5315  12
  -4   4   6 1929.53 52.6229  14
  -4   4   6 1981.26 50.7620   4
  -4   4   6 2011.74 51.7549   8
   4   4  -6 2041.63 51.4127   5
   2  -4  -6 572.983 16.7381  11
  -2  -4   6 550.020 17.1299  10
   2  -4  -6 551.697 16.0152   5
   2  -4  -6 552.339 18.1186  15
  -2  -4   6 541.626 15.5692   4
   2  -4  -6 573.575 16.6164   2
  -2  -4   6 566.752 15.9586   7
   2   4  -6 553.759 15.1004   9
   2   4  -6 546.128 14.6322  12
  -2   4   6 507.885 15.7164  14
  -2   4   6 562.012 15.7165  13
   2   4  -6 542.984 15.7471   5
  -2   4   6 553.325 15.2388   4
   0  -4  -6 3015.75 75.3400  11
   0  -4  -6 2935.02 77.0205  15
   0  -4   6 2999.22 74.6248   7
   0  -4   6 2955.66 74.2406   4
   0  -4  -6 2807.26 73.9893   5
   0  -4  -6 3024.47 76.0629   2
   0   4  -6 3036.60 74.2420   9
   0   4  -6 2799.61 73.5402   6
   0   4   6 2966.38 73.5919   4
   0   4  -6 3013.18 73.9492   5
   0   4   6 3018.77 74.0059   1
   0   4   6 2991.64 74.1719  13
  -2  -4  -6 349.704 12.9172  15
   2  -4   6 363.283 11.8926   7
  -2  -4  -6 342.717 11.8305  11
   2  -4   6 355.000 11.7069   4
  -2  -4  -6 374.588 13.6006   2
   2  -4   6 355.976 10.6490  13
   2   4   6 354.184 11.1923  16
   2   4   6 350.923 10.8870   4
   2   4   6 346.727 11.1124   1
   2   4   6 360.131 11.5449  13
  -2   4  -6 371.241 11.7768   9
  -2   4  -6 336.950 10.4539   6
  -4  -4  -6 1294.67 38.3211   2
   4  -4   6 1277.72 34.6551  13
   4  -4   6 1288.67 35.7558   4
   4   4   6 1315.79 35.1084  16
   4   4   6 1334.04 35.6000  13
   4   4   6 1290.26 34.7501   4
   4   4   6 1319.62 35.1044   1
  -4   4  -6 1250.41 36.4602   3
  -4   4  -6 1347.72 36.0479   9
   6  -4   6 24.7325 3.05402  13
   6  -4   6 24.8824 3.56463   4
  -6  -4  -6 35.2788 5.01889   2
  -6  -4  -6 30.3994 3.50134   9
   6   4   6 24.0574 3.19645  16
   6   4   6 31.0778 3.51511  13
  -6   4  -6 29.3541 3.50490   9
  -6   4  -6 25.6310 3.70965   3
   6   4   6 29.5601 3.26187   1
   6   4   6 19.0032 3.37470   4
  11  -5  -6 72.4951 5.21334  12
 -11  -5   6 66.7359 6.34617   3
 -11   5   6 79.1562 6.37156   8
  11   5  -6 75.4542 5.40466  12
  11   5  -6 75.7545 5.56422   1
 -11   5   6 70.7075 6.18577   3
 -11   5   6 74.3096 8.32465  14
   9  -5  -6 0.67962 1.70982  12
   9  -5  -6 2.73639 1.38566   5
  -9  -5   6 1.33538 1.45190   7
  -9  -5   6 -0.8514 1.74898  10
  -9   5   6 0.38499 1.38141   8
   9   5  -6 0.96402 1.37582  16
  -9   5   6 -0.2423 1.38260   3
   9   5  -6 -1.0413 0.86110   1
  -9   5   6 -0.7382 2.06246  14
   9   5  -6 -0.2524 1.44800  12
   9   5  -6 0.05023 0.73901   5
  -7  -5   6 5.96035 2.21987  10
  -7  -5   6 5.44440 1.93311   7
   7  -5  -6 5.77846 1.46164  11
   7  -5  -6 3.60749 1.99473  15
   7  -5  -6 4.64976 1.93391   5
  -7   5   6 4.14803 1.44286   3
  -7   5   6 3.81699 1.54934   8
   7   5  -6 2.80335 1.12315   5
   7   5  -6 3.95347 1.29353  16
   7   5  -6 1.88499 1.09485   1
   7   5  -6 4.44581 1.35921  12
  -7   5   6 5.08663 2.31190  14
  -5  -5   6 95.8746 5.45453  10
  -5  -5   6 93.8527 4.57607   7
   5  -5  -6 88.7976 5.05180  11
   5  -5  -6 97.0576 6.24847  15
  -5  -5   6 94.3772 4.33581   4
   5  -5  -6 90.9928 5.02274   5
   5   5  -6 92.5348 4.27763  12
   5   5  -6 100.596 4.84096   5
  -5   5   6 101.432 5.16255   8
  -5   5   6 86.4596 5.59893  14
   3  -5  -6 51.3568 3.70174  11
  -3  -5   6 42.8032 3.56596  10
   3  -5  -6 54.0515 3.37488   5
  -3  -5   6 46.3443 3.04940   7
  -3  -5   6 50.0967 2.79847   4
   3  -5  -6 41.3457 4.03382  15
   3  -5  -6 43.9390 3.43010   2
  -3   5   6 42.1192 2.94958  13
  -3   5   6 42.2448 3.06670  14
   3   5  -6 41.4187 2.83488   5
  -3   5   6 45.2188 3.50445   8
  -3   5   6 42.4845 2.41942   4
   3   5  -6 46.8517 2.51279  12
   1  -5  -6 110.351 6.65743  15
  -1  -5   6 97.3146 4.46864   4
   1  -5  -6 98.1943 5.59577  11
   1  -5  -6 102.344 5.47575   2
   1  -5  -6 101.306 4.76115   5
  -1  -5   6 105.372 4.98393   7
   1   5  -6 100.031 4.61208   5
   1   5  -6 104.531 4.50539   6
   1   5  -6 97.5096 4.36436   9
  -1   5   6 107.718 4.73306  13
  -1   5   6 100.347 4.02591   4
   1  -5   6 20.2188 2.44674   4
   1  -5   6 23.2651 2.64663   7
  -1  -5  -6 22.6931 3.51432   2
  -1  -5  -6 24.1722 3.02044  11
  -1  -5  -6 20.7413 3.15246  15
  -1   5  -6 24.4233 2.33477   9
   1   5   6 23.3630 2.45960   1
  -1   5  -6 24.0865 1.99656   6
   1   5   6 26.0137 2.01377   4
   1   5   6 25.1591 2.34749  13
  -3  -5  -6 9.55165 2.88063   2
  -3  -5  -6 8.58457 1.90730  11
   3  -5   6 8.69764 1.91853   7
   3  -5   6 8.25512 2.04889   4
  -3   5  -6 7.93860 2.07936   9
   3   5   6 8.52308 1.92362   1
   3   5   6 6.66643 1.72787  16
   3   5   6 6.63463 1.94278  13
  -5  -5  -6 111.424 7.53156   2
   5  -5   6 104.704 6.37190   4
   5   5   6 109.951 6.06009   1
  -5   5  -6 113.016 6.43116   9
   5   5   6 112.295 6.01864  13
  -5   5  -6 105.364 6.69877   3
   5   5   6 112.028 6.02520  16
   7  -5   6 8.79313 2.70835   4
   7   5   6 3.60361 2.00370   1
   7   5   6 8.34693 2.53902  13
  -7   5  -6 7.79334 2.25153   9
  10  -6  -6 1014.69 31.3150   5
  10  -6  -6 1098.90 30.9092  12
 -10  -6   6 1074.03 32.9454  10
 -10  -6   6 1125.97 31.5413   7
 -10   6   6 1152.10 33.4086   8
  10   6  -6 1058.76 31.5903   1
  10   6  -6 1132.11 31.3060  12
 -10   6   6 1093.53 32.9521   3
 -10   6   6 1131.94 37.7550  14
   8  -6  -6 146.525 7.01730   5
  -8  -6   6 155.037 8.12944  10
  -8  -6   6 156.384 7.25111   7
   8   6  -6 150.119 6.89399  12
   8   6  -6 154.872 6.89340   5
  -8   6   6 164.780 10.1200  14
   8   6  -6 138.335 6.53789  16
  -8   6   6 160.586 8.19384   8
  -8   6   6 155.067 7.63287   3
   8   6  -6 141.485 6.70657   1
   6  -6  -6 2229.37 57.9580  11
  -6  -6   6 2278.84 57.8061   7
  -6  -6   6 2183.21 59.2603  10
   6  -6  -6 2234.21 58.0116   5
   6  -6  -6 2223.24 60.3232  15
   6   6  -6 2233.33 57.7400   5
  -6   6   6 2209.70 60.8452  14
  -6   6   6 2335.77 58.9829   8
   6   6  -6 2238.01 57.1498  12
   4  -6  -6 129.686 5.99553   2
  -4  -6   6 127.334 5.23806   4
   4  -6  -6 142.407 6.44783  11
  -4  -6   6 142.378 5.97963   7
   4  -6  -6 126.928 7.30020  15
  -4  -6   6 124.514 6.64233  10
   4  -6  -6 132.331 6.10889   5
   4   6  -6 126.512 5.81967   5
  -4   6   6 124.385 6.41394  14
  -4   6   6 127.931 6.35740   8
   4   6  -6 139.695 5.21441  12
  -2  -6   6 1825.01 51.2641  10
  -2  -6   6 1930.79 48.5082   4
   2  -6  -6 1898.35 52.2874  15
   2  -6  -6 1946.00 50.4060   2
  -2  -6   6 1906.57 49.3156   7
   2  -6  -6 1945.30 50.2896  11
  -2   6   6 1920.38 48.7957  13
  -2   6   6 1870.64 49.8343   8
   2   6  -6 1849.58 47.6557  12
   2   6  -6 1930.41 48.0982   9
   2   6  -6 1892.87 49.0855   5
   0  -6  -6 17.5880 3.15003   2
   0  -6  -6 15.5804 3.14964  15
   0  -6   6 22.7936 2.40158   4
   0  -6   6 21.6649 2.73581   7
   0  -6  -6 18.9485 2.77553  11
   0  -6  -6 13.8491 2.04865   5
   0   6   6 17.4896 2.12938   1
   0   6   6 16.4515 2.16763  13
   0   6  -6 26.3012 2.27123   9
   0   6  -6 20.7507 2.21862   6
  -2  -6  -6 1028.64 30.8142   2
   2  -6   6 1041.27 28.8361   7
  -2  -6  -6 967.907 28.6164  11
   2  -6   6 1029.50 28.1606   4
   2   6   6 1004.51 27.9547   1
  -2   6  -6 1007.03 28.1873   9
  -2   6  -6 999.495 27.3067   6
   2   6   6 999.747 27.9747  16
   2   6   6 1022.14 27.9208  13
   4  -6   6 31.9107 3.73119   4
   4  -6   6 26.3240 3.64681   7
  -4  -6  -6 29.1344 4.40963   2
  -4   6  -6 23.6940 3.16307   9
   4   6   6 29.8181 3.44001  13
   4   6   6 28.1746 3.38675   1
   4   6   6 24.7362 3.03102  16
   6  -6   6 657.804 21.6989   7
   6  -6   6 693.869 21.6814   4
  -6  -6  -6 659.159 23.8187   2
   6   6   6 658.721 20.8088   1
  -6   6  -6 647.278 23.0345   3
   6   6   6 656.510 20.8208  13
  -6   6  -6 659.864 21.2707   9
  11  -7  -6 143.570 7.07299  12
 -11   7   6 153.788 11.6791  14
  11   7  -6 133.250 7.40290   1
  11   7  -6 137.377 7.36839  12
 -11   7   6 136.614 8.58257   8
  -9  -7   6 89.9735 5.95363   7
  -9  -7   6 82.9121 6.74982  10
   9  -7  -6 83.9549 5.26185   5
   9   7  -6 89.5272 5.54704  12
  -9   7   6 91.3132 6.75589   8
  -9   7   6 81.4698 7.57461  14
   7  -7  -6 167.594 7.42078  11
   7  -7  -6 160.723 7.68642   5
  -7  -7   6 161.142 9.00094  10
  -7  -7   6 171.306 7.75733   7
   7   7  -6 180.416 7.34632  12
  -7   7   6 162.026 9.56897  14
   7   7  -6 162.113 7.19220   5
  -7   7   6 176.258 8.60899   8
   5  -7  -6 388.839 15.1404  15
  -5  -7   6 409.538 13.8049   2
  -5  -7   6 404.289 13.1028   7
  -5  -7   6 395.451 14.5070  10
   5  -7  -6 409.170 13.7137  11
   5  -7  -6 374.749 13.1147   5
  -5   7   6 399.022 14.0807   8
  -5   7   6 382.650 14.5699  14
   5   7  -6 418.383 13.2852   5
   5   7  -6 403.309 12.3993  12
  -3  -7   6 113.103 5.43784   7
   3  -7  -6 105.141 7.12953  15
   3  -7  -6 101.076 5.90354   2
  -3  -7   6 110.482 6.86155  10
   3  -7  -6 101.546 6.13717  11
  -3   7   6 100.876 4.24163   6
  -3   7   6 108.035 6.17637   8
   3   7  -6 106.981 5.36851   5
   3   7  -6 109.453 4.58712  12
  -1  -7   6 321.715 13.4486  10
  -1  -7   6 330.381 10.5792   4
   1  -7  -6 326.614 13.8139  15
   1  -7  -6 339.948 12.3491  11
   1  -7  -6 340.680 12.7773   2
  -1  -7   6 333.177 11.5198   7
   1   7  -6 326.505 11.0815   6
   1   7  -6 344.107 10.7221   9
  -1   7   6 322.644 10.8294  13
  -1  -7  -6 135.039 7.31499  11
   1  -7   6 138.579 6.21493   4
   1  -7   6 139.792 6.94135   7
  -1  -7  -6 141.361 8.13685  15
  -1  -7  -6 141.875 7.99299   2
  -1   7  -6 136.492 6.10996   6
   1   7   6 145.209 6.54631   1
  -1   7  -6 152.357 6.56852   9
   1   7   6 146.867 6.28021  13
   3  -7   6 26.5185 3.19567   4
  -3  -7  -6 28.9522 4.79525   2
   3  -7   6 26.5768 3.32775   7
  -3  -7  -6 18.9865 2.90778  11
   3   7   6 26.2018 3.01391   1
   3   7   6 30.1854 3.41007  16
  -3   7  -6 24.6449 2.74771   6
   3   7   6 29.1563 3.07126  13
  -3   7  -6 33.9754 3.72056   9
   5  -7   6 97.7846 6.26784   4
  -5  -7  -6 104.982 8.14133   2
   5  -7   6 104.515 6.56304   7
  -5   7  -6 101.418 6.42404   9
   5   7   6 100.366 5.78818  13
   5   7   6 110.347 6.47725   1
  10  -8  -6 185.305 8.22919  12
 -10  -8   6 191.184 9.01544   7
 -10  -8   6 184.444 10.4141  10
  10   8  -6 202.784 8.90937  12
 -10   8   6 200.359 10.2544   8
 -10   8   6 199.736 12.7982  14
  -8  -8   6 233.534 9.94981   7
  -8  -8   6 244.085 11.5678  10
   8  -8  -6 235.127 10.1041   5
  -8   8   6 254.117 11.5566   8
   8   8  -6 248.069 9.65625  12
  -8   8   6 242.629 13.0614  14
  -6  -8   6 298.179 12.7863  10
  -6  -8   6 281.529 10.5394   7
   6  -8  -6 273.598 10.8357  11
   6  -8  -6 264.050 10.4752   5
   6   8  -6 276.066 9.85570  12
  -6   8   6 251.769 12.0833  14
  -6   8   6 290.433 11.6165   8
  -4  -8   6 533.706 16.3403   7
   4  -8  -6 509.839 16.8557   2
   4  -8  -6 515.093 17.0327  11
  -4  -8   6 515.802 18.4489  10
  -4   8   6 518.409 17.4483   8
  -4   8   6 510.137 14.9552   6
   4   8  -6 523.709 15.3434  12
  -2  -8   6 590.190 18.0944   7
  -2  -8   6 592.266 20.4960  10
   2  -8  -6 601.265 19.5130   2
   2  -8  -6 588.639 18.9723  11
  -2   8   6 579.870 19.1299   8
   2   8  -6 602.310 17.9915   6
  -2   8   6 580.466 17.3644  13
   2   8  -6 562.538 16.3775  12
   0  -8  -6 688.816 21.8691  11
   0  -8  -6 707.580 23.1635   2
   0  -8   6 692.434 23.8835  10
   0  -8   6 707.606 21.3249   7
   0   8   6 723.453 20.5369  13
   0   8  -6 705.814 20.7450   6
   0   8  -6 708.309 20.4624   9
   2  -8   6 549.370 18.0328   7
  -2  -8  -6 518.823 17.9063  11
  -2  -8  -6 557.379 20.2089   2
   2   8   6 529.853 17.1667   1
  -2   8  -6 548.659 17.3917   9
  -2   8  -6 580.219 17.0520   6
   2   8   6 547.914 16.9810  13
  -4  -8  -6 333.345 15.1111   2
   4  -8   6 330.196 12.9924   7
   4   8   6 344.665 12.6897   1
   4   8   6 338.545 12.0107  13
  -4   8  -6 339.389 12.7826   9
   9  -9  -6 75.9788 5.73500   5
  -9  -9   6 73.2575 7.10382  10
  -9  -9   6 75.0486 5.70469   7
  -9   9   6 75.5139 6.61970   8
  -9   9   6 68.5856 7.29347  14
   9   9  -6 75.5228 4.97606  12
  -7  -9   6 77.3209 7.25807  10
  -7  -9   6 79.0984 5.21189   7
   7  -9  -6 77.7845 5.37065  11
   7  -9  -6 75.7110 5.73137   5
  -7   9   6 86.6646 6.17661   8
   7   9  -6 75.0940 4.90370  12
   5  -9  -6 46.7388 4.36410  11
  -5  -9   6 57.9032 4.68075   7
  -5  -9   6 44.3258 5.58826  10
  -5  -9   6 53.0138 4.82911   2
  -5   9   6 50.2446 3.65431   6
  -5   9   6 43.8276 4.77205   8
   5   9  -6 49.2260 3.66351  12
   3  -9  -6 159.271 8.36934  11
  -3  -9   6 160.654 9.48848  10
  -3  -9   6 166.241 7.67365   7
   3  -9  -6 170.516 8.74189   2
   3   9  -6 158.361 6.43182  12
  -3   9   6 168.982 8.67432   8
   3   9  -6 158.771 7.33297   6
  -1  -9   6 27.1327 4.37445  10
  -1  -9   6 25.3856 3.34962   7
   1  -9  -6 22.3510 3.49754  11
   1  -9  -6 22.9979 4.24355   2
  -1   9   6 23.9294 3.89114   8
   1   9  -6 27.3939 3.29607   6
  -1   9   6 29.3934 3.03535  13
   1  -9   6 60.1757 4.57395   7
  -1  -9  -6 64.3473 5.70377  11
  -1  -9  -6 60.1746 6.31615   2
   1  -9   6 65.9136 6.59487  10
  -1   9  -6 61.1765 4.50490   6
   1   9   6 62.3494 4.70196   1
   1   9   6 67.4487 4.18862  13
  -1   9  -6 63.0542 4.17302   9
  -3  -9  -6 28.3211 4.93859   2
   3  -9   6 24.4803 3.72414   7
  -3   9  -6 24.9151 2.90603   6
   3   9   6 25.3669 2.92734  13
   3   9   6 25.5862 3.43251   1
  -3   9  -6 30.9000 3.78973   9
   8 -10  -6 1153.96 33.8554   5
  -8 -10   6 1163.14 33.4992   7
   8  10  -6 1187.11 33.1312  12
  -8  10   6 1212.85 35.9765   8
  -6 -10   6 8.79387 3.16962  10
   6 -10  -6 -0.4055 2.41188  11
   6 -10  -6 6.63992 2.64898   5
  -6 -10   6 5.53676 2.49738   7
   6  10  -6 4.17059 1.85061  12
  -6  10   6 3.70653 2.74903   8
  -6  10   6 4.31052 1.91710   6
  -4 -10   6 1609.29 47.7708  10
   4 -10  -6 1582.42 45.5131   2
  -4 -10   6 1616.70 46.5219   2
  -4 -10   6 1631.91 44.3279   7
   4 -10  -6 1638.73 45.6184  11
  -4  10   6 1729.44 46.7914   8
   4  10  -6 1688.88 44.8175   6
   4  10  -6 1669.27 43.3305  12
   2 -10  -6 7.70759 3.17872   2
  -2 -10   6 18.0977 4.23749  10
   2 -10  -6 6.92257 3.25719  11
  -2 -10   6 16.9331 2.94849   7
  -2  10   6 8.22474 2.90103   8
   2  10  -6 8.04904 2.42136   6
   0 -10   6 1237.52 39.0570  10
   0 -10  -6 1201.67 36.1978  11
   0 -10  -6 1290.61 38.0516   2
   0 -10   6 1293.42 35.4216   7
   0  10   6 1285.50 37.1804   8
   0  10  -6 1230.17 34.8875   6
   2 -10   6 5.97081 2.40731   7
  -2 -10  -6 6.96540 2.69487  11
   2 -10   6 2.35551 2.18046  10
  -2 -10  -6 13.1360 4.01852   2
  -2  10  -6 9.50009 2.45635   9
  -2  10  -6 3.56954 1.95956   6
   2  10   6 4.94286 2.18920   1
  -7 -11   6 69.1040 6.93062  10
  -7 -11   6 55.0001 4.84594   7
   7 -11  -6 55.1442 5.45719   5
   7 -11  -6 57.6695 5.85646  11
   7  11  -6 59.3571 4.73265   6
   7  11  -6 52.7485 4.11654  12
  -7  11   6 55.8381 6.37788   8
  -5 -11   6 59.7668 5.86598   2
   5 -11  -6 59.7107 6.08596  11
  -5 -11   6 48.7483 6.42674  10
  -5 -11   6 54.9543 4.89048   7
   5  11  -6 63.2153 4.44725  12
  -5  11   6 55.1329 5.88037   8
   5  11  -6 56.8476 4.88820   6
  -3 -11   6 104.742 7.84724   2
   3 -11  -6 100.666 6.90118  11
  -3 -11   6 93.4681 7.69656  10
   3 -11  -6 109.248 7.66415   2
  -3 -11   6 100.668 6.19279   7
   3  11  -6 111.627 6.54922   6
  -3  11   6 110.613 7.32468   8
   1 -11  -6 71.6494 5.85462  11
  -1 -11   6 61.3370 5.01431   7
  -1 -11   6 63.9444 6.29946  10
   1 -11  -6 66.8557 6.80421   2
   1  11  -6 65.4481 4.84505   6
  -1  11   6 63.7685 6.17586   8
   1 -11   6 79.2198 7.32183  10
  -1 -11  -6 82.5116 7.52514   2
   1 -11   6 83.2996 5.77772   7
  -1 -11  -6 80.9890 6.48623  11
   1  11   6 74.6318 6.61350   8
  -1  11  -6 86.7743 5.76699   6
  -4 -12   6 192.270 10.6316   2
  -4 -12   6 210.535 12.3774  10
   4 -12  -6 204.127 10.5492  11
  -4  12   6 196.790 10.6397   8
   4  12  -6 196.652 9.11653   6
  -2 -12   6 285.013 13.9799   2
   2 -12  -6 292.573 13.0564  11
  -2 -12   6 295.783 14.7816  10
   2 -12  -6 280.811 13.4237   2
  -2  12   6 297.668 13.4265   8
   2  12  -6 302.027 11.9911   6
   0 -12  -6 175.283 9.68267  11
   0 -12   6 171.947 10.7168  10
   0 -12  -6 189.877 10.8512   2
   0  12   6 195.339 10.1251   8
   0  12  -6 196.080 9.17744   6
  12   0  -7 0.34953 2.24235   1
 -12   0   7 0.18465 2.09671   3
  12   0  -7 -1.7452 1.76103  12
 -12   0   7 -0.3850 1.86274  14
  10   0  -7 0.31765 1.29435   5
  10   0  -7 3.41414 2.12293   1
  10   0  -7 0.02719 1.64229  12
  10   0  -7 -0.2251 1.24897  16
 -10   0   7 1.71309 2.47317  14
 -10   0   7 -0.2593 1.59309   3
   8   0  -7 0.22380 1.28860  16
  -8   0   7 3.30919 1.45226   3
   8   0  -7 -1.6428 1.25573  12
  -8   0   7 1.65055 1.34724   7
   8   0  -7 1.06335 1.30573   5
  -8   0   7 -0.2479 1.85588  14
   6   0  -7 0.03733 0.75362  12
  -6   0   7 -0.0114 0.76692   7
   6   0  -7 -0.0796 0.81215   5
   6   0  -7 -0.1627 0.66122  11
   6   0  -7 1.49072 1.23048  15
  -6   0   7 0.55368 1.14089   4
  -4   0   7 1.15117 1.09168   4
   4   0  -7 1.01792 1.10560   5
   4   0  -7 -0.7520 0.66331  12
   4   0  -7 0.47188 0.89294  11
   4   0  -7 -0.7249 0.97451  15
  -4   0   7 0.65565 0.54375   8
  -4   0   7 0.63249 0.83408   7
   2   0  -7 -0.0211 0.53754   5
  -2   0   7 1.63521 0.65309   7
   2   0  -7 0.04435 0.62725  11
   2   0  -7 1.76168 0.56393  12
  -2   0   7 0.68265 0.62309  13
   2   0  -7 2.07987 1.38894  15
   0   0  -7 1.08199 0.70171   5
   0   0   7 1.05991 0.98071  13
   0   0   7 0.53474 0.57139   7
   0   0   7 -0.0861 0.73934   4
   0   0  -7 0.36211 0.98992  11
   0   0  -7 -0.3360 1.21997   2
   0   0  -7 4.75944 1.50847  15
   2   0   7 1.53411 0.99781  13
   2   0   7 -0.4449 1.17756   4
  -2   0  -7 0.58772 0.82912  11
  -4   0  -7 1.61294 0.97075  11
   4   0   7 -0.1161 1.21088   4
  -4   0  -7 0.26934 1.57570   9
   4   0   7 0.62916 1.54351  13
   6   0   7 3.06722 2.12229  13
   6   0   7 -1.1272 1.90428   4
  -6   0  -7 -0.3881 1.24023   9
  11  -1  -7 186.882 9.27948   1
 -11  -1   7 172.619 9.16907   3
 -11  -1   7 186.027 11.3554  14
  11  -1  -7 163.216 7.88190  12
  11  -1  -7 165.352 8.93028  16
 -11   1   7 173.635 9.44014   3
  11   1  -7 174.987 9.11299   1
  11   1  -7 189.509 8.40954  12
 -11   1   7 190.009 11.8588  14
  11   1  -7 182.867 9.07305  16
   9  -1  -7 887.141 25.3116   5
  -9  -1   7 897.023 25.0442   7
   9  -1  -7 892.447 25.3114  12
  -9  -1   7 886.560 28.9043  14
   9  -1  -7 914.668 26.4047  16
  -9  -1   7 874.917 26.4142   3
  -9   1   7 935.782 29.7803  14
   9   1  -7 899.438 26.1631   1
   9   1  -7 890.547 25.3338  12
  -9   1   7 869.495 26.0794   3
   9   1  -7 862.792 25.9398  16
   9   1  -7 891.340 25.2784   5
   7  -1  -7 267.656 9.13039  12
   7  -1  -7 277.353 9.76251   5
   7  -1  -7 258.163 10.1380  15
  -7  -1   7 264.358 9.32290   4
  -7  -1   7 268.853 9.08157   7
  -7   1   7 280.744 11.8567  14
   7   1  -7 279.460 9.63407   5
  -7   1   7 259.024 9.29038   3
  -7   1   7 277.886 8.78785   7
   7   1  -7 251.950 9.01228  12
  -7   1   7 253.001 8.82900   8
   7   1  -7 261.912 9.34199  16
  -5  -1   7 2211.37 57.3686   7
   5  -1  -7 2281.96 57.8697  11
   5  -1  -7 2362.50 58.4707   5
  -5  -1   7 2296.79 57.9380   4
   5  -1  -7 2330.18 60.1051  15
   5  -1  -7 2235.93 57.4275  12
  -5   1   7 2270.48 57.3653   8
   5   1  -7 2236.09 59.5878  15
   5   1  -7 2291.10 57.6739  11
   5   1  -7 2256.32 57.3638  12
   5   1  -7 2389.98 58.3783   5
  -5   1   7 2267.21 56.9705   7
  -5   1   7 2281.24 57.9044   4
  -3  -1   7 358.975 10.3069  13
   3  -1  -7 356.344 11.2040  11
  -3  -1   7 364.485 10.8359   4
   3  -1  -7 344.549 10.6179   2
   3  -1  -7 334.391 9.93525  12
   3  -1  -7 364.188 12.8233  15
  -3  -1   7 331.299 10.4866  10
  -3  -1   7 339.020 10.3661   7
   3  -1  -7 359.364 11.0914   5
   3   1  -7 345.006 12.3566  15
  -3   1   7 345.010 9.90506   7
   3   1  -7 346.011 9.82219  12
  -3   1   7 346.958 10.4587  13
   3   1  -7 348.372 10.9578  11
  -3   1   7 342.350 10.6662   4
   3   1  -7 345.509 10.8686   5
   1  -1  -7 2580.20 67.7257  15
  -1  -1   7 2618.63 65.3546   4
   1  -1  -7 2673.02 66.0397  11
   1  -1  -7 2564.73 64.9738   5
  -1  -1   7 2553.21 64.9359   7
   1  -1  -7 2639.40 66.3209   2
  -1  -1   7 2564.70 64.6347  13
   1   1  -7 2588.16 64.9183   5
   1   1  -7 2616.89 65.7393  11
  -1   1   7 2496.65 64.3406   7
  -1   1   7 2593.78 65.1227   4
  -1   1   7 2628.20 64.9947  13
  -1  -1  -7 175.838 7.15774  11
  -1  -1  -7 179.877 8.06186   2
   1  -1   7 171.788 6.59293   7
  -1  -1  -7 175.719 8.08505  15
   1  -1   7 174.428 6.86665   4
   1  -1   7 159.839 6.25816  13
  -1   1  -7 179.998 7.03273  11
   1   1   7 167.699 5.77192   1
   1   1   7 173.410 6.68268   4
   1   1   7 171.879 6.51789  13
  -3  -1  -7 1188.43 35.0274   2
  -3  -1  -7 1184.76 32.4687  11
   3  -1   7 1193.86 32.8557   4
   3  -1   7 1180.51 32.1615  13
   3   1   7 1182.38 32.5581   4
   3   1   7 1184.28 32.4505  13
  -3   1  -7 1230.61 33.2976   9
  -3   1  -7 1181.96 32.4189  11
   5  -1   7 77.9863 5.56892   4
  -5  -1  -7 71.9194 5.37600   9
   5  -1   7 84.0850 5.13067  13
   5   1   7 75.8621 5.12450   4
   5   1   7 75.5658 4.99168  13
  -5   1  -7 84.5662 5.69845   9
   7  -1   7 420.414 15.1677  13
  -7  -1  -7 400.351 14.9318   9
   7  -1   7 445.247 15.9903   4
   7   1   7 412.703 15.3966   4
  -7   1  -7 414.313 15.3288   9
   7   1   7 417.652 15.3138  13
  12  -2  -7 191.751 8.71656  12
 -12  -2   7 175.149 10.0005   3
 -12  -2   7 173.279 11.0494  14
  12  -2  -7 168.767 9.34053   1
 -12   2   7 184.470 9.97072   3
 -12   2   7 181.631 12.3975  14
  12   2  -7 169.405 8.21377  12
  12   2  -7 172.287 9.26128   1
 -10  -2   7 277.238 10.2873   7
  10  -2  -7 278.167 10.5851  12
  10  -2  -7 276.219 11.4536  16
 -10  -2   7 266.556 13.2168  14
  10  -2  -7 272.995 10.2783   5
 -10  -2   7 268.877 11.7294   3
  10   2  -7 277.934 10.5916  12
 -10   2   7 284.694 11.7943   3
  10   2  -7 272.219 11.0692  16
 -10   2   7 283.185 14.4004  14
  10   2  -7 269.070 10.0399   5
  10   2  -7 279.784 11.1001   1
   8  -2  -7 382.665 12.6699   5
  -8  -2   7 379.089 12.3699   7
   8  -2  -7 372.962 12.3262  12
   8   2  -7 365.440 12.6048  16
  -8   2   7 399.410 15.7422  14
  -8   2   7 372.809 12.5288   8
   8   2  -7 391.212 12.6575   5
   8   2  -7 382.926 12.7893   1
  -8   2   7 384.317 12.9976   3
   8   2  -7 374.423 12.3114  12
   6  -2  -7 793.145 21.9681  12
  -6  -2   7 797.646 22.3270   4
   6  -2  -7 810.629 24.1682  15
  -6  -2   7 807.031 22.1105   7
   6  -2  -7 804.456 22.1070  11
   6  -2  -7 831.796 22.9174   5
  -6   2   7 824.518 24.8793  14
   6   2  -7 815.868 22.6411   5
  -6   2   7 804.375 22.2188   8
  -6   2   7 799.996 21.2705   7
   6   2  -7 792.151 21.6590  11
   6   2  -7 788.098 21.9280  12
  -6   2   7 812.865 22.3692   4
   6   2  -7 779.103 21.9231  16
  -4  -2   7 761.091 20.3242   4
  -4  -2   7 729.550 19.9456   7
   4  -2  -7 745.356 22.5500  15
   4  -2  -7 754.382 20.3025   2
  -4  -2   7 684.522 19.9887  10
   4  -2  -7 756.709 20.6844  11
   4  -2  -7 732.112 20.6189   5
  -4   2   7 704.742 18.9354   7
  -4   2   7 743.760 20.1201   4
   4   2  -7 728.851 20.1996  11
  -4   2   7 732.836 20.0436  13
  -4   2   7 737.893 20.1429   8
   4   2  -7 717.431 20.3328   5
   4   2  -7 711.816 19.3906  12
   4   2  -7 698.510 19.0773  16
   2  -2  -7 907.156 24.4006   2
   2  -2  -7 885.084 24.4160  11
   2  -2  -7 859.891 23.8023   5
  -2  -2   7 866.240 23.6993   4
  -2  -2   7 872.242 23.4907   7
  -2  -2   7 867.462 22.8790  13
   2  -2  -7 851.053 26.0087  15
   2   2  -7 865.083 23.6206   5
  -2   2   7 844.880 22.3659   7
  -2   2   7 889.379 23.4969   4
   2   2  -7 891.689 24.0563  11
  -2   2   7 876.913 23.4719  13
   0  -2   7 804.378 21.5826  13
   0  -2  -7 839.810 23.9353   2
   0  -2   7 802.110 22.4210   4
   0  -2  -7 863.669 23.2925  11
   0  -2  -7 787.986 21.7323   5
   0  -2  -7 831.903 24.8028  15
   0  -2   7 780.021 22.1651   7
   0   2   7 820.035 22.1448   4
   0   2   7 774.280 21.1583   7
   0   2  -7 791.873 21.6949   5
   0   2  -7 805.353 22.6977  11
   0   2   7 797.697 21.4658   1
   0   2   7 814.192 22.1824  13
  -2  -2  -7 452.883 14.4635  11
  -2  -2  -7 466.995 16.1838   2
   2  -2   7 438.780 13.5516  13
  -2  -2  -7 445.345 15.5713  15
   2  -2   7 453.820 14.3468   4
  -2   2  -7 445.339 14.4925   9
   2   2   7 457.528 14.1825  13
   2   2   7 451.603 13.2494  16
   2   2   7 455.111 14.0723   4
  -2   2  -7 453.456 14.3263  11
   4  -2   7 360.970 13.3374   4
  -4  -2  -7 364.372 14.8975   2
   4  -2   7 370.573 12.5568  13
   4   2   7 399.809 13.1536   4
  -4   2  -7 383.612 13.5754   9
   4   2   7 382.521 13.1451  13
   6  -2   7 205.471 9.76866   4
  -6  -2  -7 205.072 9.38436   9
   6  -2   7 213.085 9.25645  13
   6   2   7 215.135 9.36718   4
   6   2   7 196.049 9.10136  13
  -6   2  -7 196.998 9.20383   9
 -11  -3   7 853.739 29.4804  14
  11  -3  -7 882.881 25.4406  12
 -11  -3   7 882.968 28.0248   3
  11   3  -7 854.445 25.5576  12
  11   3  -7 820.119 26.3893  16
  11   3  -7 826.987 26.5644   1
 -11   3   7 894.983 31.7175  14
  -9  -3   7 233.049 11.5927  14
   9  -3  -7 230.949 9.19059   5
  -9  -3   7 225.747 9.15763   7
   9  -3  -7 226.843 8.91648  12
   9   3  -7 239.443 9.12494   5
   9   3  -7 233.581 9.05365  12
   9   3  -7 230.993 9.49175   1
  -9   3   7 229.930 9.47706   8
  -9   3   7 220.367 9.51322   3
  -9   3   7 249.174 12.4629  14
   9   3  -7 224.852 9.37751  16
  -7  -3   7 1369.84 36.4222   4
   7  -3  -7 1341.97 36.2321  12
  -7  -3   7 1293.10 36.4958  10
   7  -3  -7 1330.34 38.1668  15
  -7  -3   7 1394.29 36.5395   7
   7  -3  -7 1394.20 37.0462   5
   7   3  -7 1343.36 36.2800  16
  -7   3   7 1387.61 36.9325   8
  -7   3   7 1526.45 39.4109   3
   7   3  -7 1378.56 36.7200   5
   7   3  -7 1350.43 36.2299  12
   7   3  -7 1338.33 36.2700   1
  -7   3   7 1422.13 40.0830  14
  -5  -3   7 381.604 12.5645  10
   5  -3  -7 402.966 12.8123  11
   5  -3  -7 410.307 14.6841  15
  -5  -3   7 415.792 12.5459   4
   5  -3  -7 418.935 13.1995   5
  -5  -3   7 414.035 12.5102   7
  -5   3   7 422.862 12.5123   4
  -5   3   7 397.559 14.2018  14
   5   3  -7 411.131 12.0614  12
   5   3  -7 387.993 11.5704  16
   5   3  -7 415.594 12.3518  11
   5   3  -7 431.180 12.9925   5
  -5   3   7 404.104 12.7333   8
   3  -3  -7 1304.90 34.4451  11
   3  -3  -7 1286.17 34.0609   5
  -3  -3   7 1259.09 33.5329   4
   3  -3  -7 1318.69 36.5717  15
  -3  -3   7 1209.95 34.3083  10
   3  -3  -7 1303.43 33.8948   2
  -3  -3   7 1288.12 33.5987   7
   3   3  -7 1293.43 33.7785   5
  -3   3   7 1306.73 33.3813   4
   3   3  -7 1294.34 33.8757  11
  -3   3   7 1250.61 33.4310  13
   3   3  -7 1254.00 32.4854  12
   1  -3  -7 428.791 15.4847  15
   1  -3  -7 449.210 14.4276   2
  -1  -3   7 450.140 13.3913   4
   1  -3  -7 443.878 14.0897  11
   1  -3  -7 404.358 13.0319   5
  -1  -3   7 432.065 12.2941  13
  -1  -3   7 435.057 13.3170   7
   1   3  -7 446.987 13.1066   5
   1   3  -7 460.810 13.2405   9
   1   3  -7 441.173 13.6148  11
  -1   3   7 440.138 13.1677  13
  -1   3   7 434.575 12.8884   4
  -1  -3  -7 957.526 26.8482  11
  -1  -3  -7 995.136 28.4119   2
   1  -3   7 910.716 25.1126  13
  -1  -3  -7 940.126 28.4462  15
   1  -3   7 991.462 26.4874   4
   1  -3   7 947.681 26.3540   7
   1   3   7 936.850 25.9628  13
   1   3   7 945.597 25.7542   4
   1   3   7 964.280 25.4716   1
  -1   3  -7 952.269 26.4458  11
  -1   3  -7 963.501 26.4032   9
  -1   3  -7 897.415 25.1952   5
  -3  -3  -7 303.168 10.9621  11
   3  -3   7 301.770 10.2882  13
   3  -3   7 324.655 11.3335   4
  -3  -3  -7 308.061 12.9954   2
   3   3   7 310.210 10.3345  16
   3   3   7 310.145 11.0777  13
   3   3   7 305.114 10.2812   1
   3   3   7 295.049 10.6072   4
  -3   3  -7 321.948 11.5190   9
   5  -3   7 573.864 18.8891   4
   5  -3   7 544.878 17.6558  13
  -5  -3  -7 568.177 20.9200   2
  -5   3  -7 574.472 18.6561   9
   5   3   7 567.471 17.9263   4
   5   3   7 582.907 18.4346  13
 -12  -4   7 122.159 9.26583  14
  12  -4  -7 112.513 6.39767  12
  12  -4  -7 120.994 7.96097   1
 -12  -4   7 114.147 7.86923   3
 -12   4   7 118.849 10.0587  14
  12   4  -7 109.671 7.05259   1
  12   4  -7 130.943 7.15314  12
  10  -4  -7 104.380 5.90698   5
  10  -4  -7 107.683 6.74881  16
 -10  -4   7 106.668 7.99152  14
  10  -4  -7 102.702 6.00883  12
 -10  -4   7 107.291 5.90800   7
 -10   4   7 105.458 6.56472   8
 -10   4   7 108.335 8.98115  14
 -10   4   7 105.908 6.61812   3
  10   4  -7 96.9565 5.67493  12
  10   4  -7 100.919 6.05637   1
  -8  -4   7 54.8172 3.90613   7
  -8  -4   7 46.1175 3.86577  10
   8  -4  -7 58.5324 4.10859   5
   8  -4  -7 61.6721 4.19350  12
   8   4  -7 55.8990 3.94122   1
  -8   4   7 54.3311 5.72556  14
  -8   4   7 56.7656 4.44972   8
   8   4  -7 54.0169 3.95259  12
   8   4  -7 59.8644 3.97137  16
   8   4  -7 62.4945 4.18881   5
  -6  -4   7 211.420 7.79820   4
   6  -4  -7 203.270 9.41086  15
  -6  -4   7 203.297 7.89354   7
   6  -4  -7 212.941 8.14225  11
   6  -4  -7 214.516 8.37973   5
  -6  -4   7 203.949 8.30774  10
   6   4  -7 213.059 8.07396   5
  -6   4   7 220.080 8.41090   8
   6   4  -7 206.488 7.54590  12
  -6   4   7 212.551 9.75323  14
  -4  -4   7 32.5632 2.62777   7
  -4  -4   7 30.1290 2.69453   4
   4  -4  -7 33.3979 3.32693   5
   4  -4  -7 32.1507 2.98681  11
   4  -4  -7 30.9425 3.53864  15
   4  -4  -7 32.0646 2.51242   2
  -4  -4   7 43.1267 3.20709  10
  -4   4   7 33.5234 2.58970   4
   4   4  -7 33.6785 2.65510   5
  -4   4   7 31.0300 2.73162  13
  -4   4   7 32.9961 3.00830   8
  -4   4   7 31.6906 3.03601  14
   4   4  -7 29.5451 2.16367  12
   2  -4  -7 52.1996 4.82217  15
  -2  -4   7 44.7443 3.30209   7
  -2  -4   7 51.1460 3.32743   4
   2  -4  -7 44.7425 3.54648  11
   2  -4  -7 48.7209 3.59597   2
   2  -4  -7 47.8858 3.21322   5
  -2   4   7 51.3364 3.13964  13
   2   4  -7 43.0723 2.66691   9
   2   4  -7 52.6220 3.26757   5
  -2   4   7 42.3574 2.76416   4
   0  -4  -7 95.6299 5.85732   2
   0  -4   7 103.293 5.14981   7
   0  -4  -7 95.1146 5.45058  11
   0  -4   7 94.7502 4.87391   4
   0  -4  -7 95.0552 6.28609  15
   0  -4  -7 86.6408 4.36445   5
   0   4   7 91.6447 4.18661   4
   0   4  -7 99.9385 4.80504   9
   0   4  -7 94.7190 4.14421   6
   0   4   7 95.9184 4.63446  13
   0   4  -7 98.1438 4.37885   5
   0   4   7 97.0066 4.49610   1
  -2  -4  -7 4.43219 1.62878  11
   2  -4   7 1.40245 1.48757   7
  -2  -4  -7 3.12982 1.39053  15
   2  -4   7 3.85914 1.36580   4
  -2  -4  -7 0.83039 1.47660   2
   2   4   7 4.58849 1.44870   1
  -2   4  -7 2.26320 1.16698   9
   2   4   7 7.49646 1.67486  16
   2   4   7 4.13386 1.67723  13
   2   4   7 0.82346 1.17031   4
  -4  -4  -7 53.2041 5.69027   2
   4  -4   7 50.9355 4.55225   4
   4   4   7 53.2687 3.94244   4
   4   4   7 51.8464 4.12707  13
  -4   4  -7 51.8997 4.46676   9
   4   4   7 55.9825 4.05917   1
   4   4   7 47.1209 3.48425  16
   6  -4   7 8.81076 2.70264   4
  -6  -4  -7 11.6354 2.37058   9
  -6  -4  -7 10.2216 3.61197   2
  -6   4  -7 10.4992 2.67282   9
   6   4   7 9.58745 2.78449  13
  11  -5  -7 127.160 6.89954  12
 -11   5   7 134.968 7.93002   8
  11   5  -7 127.135 7.43976   1
 -11   5   7 138.910 10.8500  14
  11   5  -7 126.075 6.78663  12
   9  -5  -7 390.556 13.1831  12
  -9  -5   7 387.866 14.3462  10
   9  -5  -7 398.466 13.5415   5
  -9  -5   7 400.026 13.5167   7
   9   5  -7 382.798 13.2687  12
  -9   5   7 413.522 14.7049   8
   9   5  -7 347.241 12.9064  16
   9   5  -7 390.430 13.2387   5
  -9   5   7 403.446 17.4073  14
   9   5  -7 372.385 13.2248   1
  -7  -5   7 319.024 11.1344   7
   7  -5  -7 307.435 10.7251  11
   7  -5  -7 316.190 11.3981   5
  -7  -5   7 299.262 11.7360  10
   7  -5  -7 294.217 12.3569  15
  -7   5   7 330.106 11.8386   8
   7   5  -7 314.037 10.5624  12
   7   5  -7 316.957 11.0650   5
  -7   5   7 317.545 13.5759  14
  -5  -5   7 1205.73 31.7739   4
  -5  -5   7 1201.76 32.1752   7
   5  -5  -7 1201.30 32.4926   5
   5  -5  -7 1150.91 34.4512  15
   5  -5  -7 1196.82 32.5492  11
  -5  -5   7 1163.31 33.0947  10
  -5   5   7 1150.00 33.7533  14
   5   5  -7 1210.55 32.4092   5
  -5   5   7 1200.91 31.4989   4
  -5   5   7 1228.49 32.9181   8
   5   5  -7 1202.50 31.3498  12
  -3  -5   7 743.932 20.8693   7
   3  -5  -7 729.908 21.0945   2
  -3  -5   7 714.844 20.2971   4
   3  -5  -7 729.061 21.4872  11
   3  -5  -7 701.699 23.2251  15
  -3  -5   7 707.471 22.0128  10
   3  -5  -7 725.445 20.9389   5
  -3   5   7 752.107 21.4622   8
  -3   5   7 716.451 19.8094   4
   3   5  -7 729.116 19.4379  12
   3   5  -7 741.426 20.7975   5
  -3   5   7 735.381 20.5315  13
   1  -5  -7 1385.75 37.4792  11
   1  -5  -7 1312.88 36.1135   5
   1  -5  -7 1331.34 39.1458  15
   1  -5  -7 1369.40 37.6041   2
  -1  -5   7 1307.30 35.9054   4
  -1  -5   7 1366.53 36.5157   7
  -1   5   7 1385.02 36.1141  13
  -1   5   7 1363.85 35.2577   4
   1   5  -7 1404.42 35.8810   9
   1   5  -7 1419.88 36.1921   5
   1   5  -7 1373.82 35.7970   6
   1  -5   7 440.602 13.8258   4
  -1  -5  -7 436.937 14.7032  11
   1  -5   7 435.643 14.2904   7
  -1  -5  -7 413.573 15.8349  15
  -1  -5  -7 444.908 15.8832   2
   1   5   7 444.814 13.5626   1
   1   5   7 440.480 13.6751  13
   1   5   7 409.433 12.7553   4
  -1   5  -7 424.834 12.8590   6
  -1   5  -7 429.603 13.8580   9
   3  -5   7 483.687 16.1136   7
  -3  -5  -7 434.968 15.1776  11
   3  -5   7 477.391 15.6416   4
  -3  -5  -7 460.545 17.6509   2
   3   5   7 454.336 14.7626  16
   3   5   7 483.038 15.3281  13
  -3   5  -7 461.801 15.5166   9
   3   5   7 486.304 15.0767   1
   5  -5   7 122.673 7.19213   4
   5  -5   7 125.405 7.43214   7
  -5  -5  -7 127.507 8.90553   2
  -5   5  -7 121.472 7.07713   9
   5   5   7 137.678 6.87597   1
   5   5   7 131.872 6.83311  13
  10  -6  -7 43.4492 4.22645  12
 -10  -6   7 50.0117 5.73617  14
 -10  -6   7 44.0656 4.52416   7
  10  -6  -7 44.2609 3.85236   5
 -10   6   7 43.4336 6.54807  14
 -10   6   7 48.6097 5.19461   8
  10   6  -7 42.6207 4.22211  12
   8  -6  -7 95.2726 6.02097   5
  -8  -6   7 106.028 6.89890  10
  -8  -6   7 102.243 6.03258   7
  -8   6   7 110.069 6.40201   8
   8   6  -7 110.502 5.59511  12
   8   6  -7 107.524 5.88587   5
  -8   6   7 114.549 8.16829  14
   6  -6  -7 1.80684 1.77214   5
  -6  -6   7 -0.2727 1.13579   4
   6  -6  -7 4.93079 2.02940  11
  -6  -6   7 -0.6377 1.58060   7
  -6   6   7 0.81110 1.25553  14
   6   6  -7 0.67923 0.97393   5
  -6   6   7 0.82398 1.65343   8
   6   6  -7 0.04438 0.84467  12
  -4  -6   7 76.3290 4.37933   7
   4  -6  -7 68.2246 4.95014  11
   4  -6  -7 70.4570 5.80430  15
   4  -6  -7 77.4872 4.81392   5
   4  -6  -7 65.0619 4.16384   2
  -4  -6   7 65.0039 5.05389  10
  -4  -6   7 72.6506 4.06243   4
  -4   6   7 75.0565 4.96106   8
   4   6  -7 73.9922 4.28557   5
  -4   6   7 79.9029 3.91337   4
   4   6  -7 74.6341 3.68588  12
   2  -6  -7 10.1490 2.40507   2
   2  -6  -7 13.0777 2.03912   5
  -2  -6   7 9.44061 1.75485   4
   2  -6  -7 11.2926 2.72826  11
  -2  -6   7 11.7728 2.79920  10
  -2  -6   7 13.8758 2.39553   7
   2  -6  -7 13.4020 2.84864  15
  -2   6   7 10.2748 1.97422  13
   2   6  -7 11.0817 2.00149   5
   2   6  -7 9.96170 1.63364   9
   0  -6  -7 1.48378 2.05039   2
   0  -6  -7 0.20942 1.12307   5
   0  -6  -7 -0.2543 1.86687  11
   0  -6  -7 1.91944 1.94012  15
   0  -6   7 1.86834 1.40763   4
   0  -6   7 0.47807 1.49361   7
   0   6  -7 2.42820 1.08744   9
   0   6   7 0.15189 1.21911   1
   0   6  -7 2.29342 1.21364   6
   0   6   7 1.77787 1.50233  13
   2  -6   7 33.5250 3.56234   4
  -2  -6  -7 33.4900 3.68815  11
  -2  -6  -7 43.1103 5.33694   2
   2  -6   7 37.2664 3.87366   7
   2   6   7 40.3930 3.63349   1
  -2   6  -7 44.4298 3.74672   9
   2   6   7 32.0654 3.38834  13
   4  -6   7 -0.1556 1.28252   4
   4  -6   7 1.47373 2.01116   7
  -4  -6  -7 3.66900 2.87991   2
   4   6   7 -0.0320 1.41388  16
   4   6   7 -0.5000 1.60342  13
   4   6   7 0.78935 1.22135   1
  -4   6  -7 -0.1433 1.29616   9
  -9  -7   7 845.155 27.5918  10
   9  -7  -7 912.295 26.5481   5
  -9  -7   7 878.185 26.1924   7
  -9   7   7 876.981 30.8003  14
   9   7  -7 898.888 25.8822  12
  -9   7   7 904.262 27.8558   8
   9   7  -7 890.482 25.9762   5
   7  -7  -7 201.075 8.95755   5
   7  -7  -7 204.637 8.53641  11
  -7  -7   7 210.016 9.95176  10
  -7  -7   7 210.149 8.74317   7
   7   7  -7 209.104 8.29930  12
  -7   7   7 211.785 10.9556  14
  -7   7   7 219.378 9.63692   8
   7   7  -7 207.135 8.81996   5
   5  -7  -7 830.006 24.4143  11
  -5  -7   7 790.348 25.4290  10
  -5  -7   7 828.108 23.8654   7
   5  -7  -7 792.197 23.8724   5
   5   7  -7 844.222 24.1101   5
  -5   7   7 863.847 25.1399   8
   5   7  -7 815.056 22.7919  12
   3  -7  -7 109.525 6.11201  11
  -3  -7   7 108.121 7.13230  10
   3  -7  -7 108.931 5.92990   5
   3  -7  -7 113.524 6.25735   2
  -3  -7   7 118.194 5.83758   7
   3  -7  -7 102.428 7.12535  15
  -3   7   7 111.103 5.35093  13
   3   7  -7 114.715 4.71104  12
  -3   7   7 121.399 6.48695   8
   3   7  -7 108.914 5.55406   5
  -1  -7   7 602.202 17.7226   4
   1  -7  -7 607.021 19.4131  11
  -1  -7   7 614.591 18.7219   7
   1  -7  -7 610.005 19.9094   2
  -1  -7   7 595.938 20.8937  10
   1  -7  -7 565.326 17.9329   5
   1   7  -7 619.920 17.6559   9
   1   7  -7 604.021 18.1019   6
  -1   7   7 603.367 17.9077  13
   1  -7   7 172.602 7.44571   4
  -1  -7  -7 163.331 8.23913  11
  -1  -7  -7 176.020 9.38250   2
   1  -7   7 180.397 8.24683   7
  -1   7  -7 170.372 7.50974   9
  -1   7  -7 167.074 6.99536   6
   1   7   7 163.830 7.37079  13
   1   7   7 159.191 7.21281   1
   3  -7   7 584.378 18.5002   4
  -3  -7  -7 582.124 21.4294   2
   3  -7   7 605.910 19.4307   7
  -3  -7  -7 517.082 18.2666  11
  -3   7  -7 589.074 18.6367   9
   3   7   7 571.498 18.1120  13
   3   7   7 585.922 18.2674   1
  -5  -7  -7 232.531 12.4451   2
   5  -7   7 219.513 10.6483   7
   5  -7   7 227.167 10.2999   4
  -5   7  -7 235.655 10.4554   9
   5   7   7 234.593 9.99606  13
   5   7   7 233.974 9.99005   1
 -10  -8   7 157.774 8.13515   7
  10  -8  -7 148.679 7.22296  12
  10   8  -7 151.667 7.50427  12
 -10   8   7 156.841 9.13493   8
 -10   8   7 154.253 11.1841  14
   8  -8  -7 394.604 14.4164   5
  -8  -8   7 397.895 14.0793   7
  -8  -8   7 396.896 15.8530  10
  -8   8   7 403.590 17.3751  14
  -8   8   7 440.270 15.8658   8
   8   8  -7 391.187 13.5284  12
   6  -8  -7 190.236 8.89614  11
  -6  -8   7 200.782 10.2474  10
  -6  -8   7 184.975 8.24674   7
   6  -8  -7 181.703 8.52818   5
  -6   8   7 185.462 9.15994   8
   6   8  -7 185.103 7.60950  12
   6   8  -7 204.511 8.65808   5
   4  -8  -7 646.483 20.9251  11
   4  -8  -7 651.159 20.3028   5
   4  -8  -7 639.496 20.3657   2
  -4  -8   7 674.909 20.3031   7
  -4  -8   7 672.542 22.5614  10
   4   8  -7 660.162 18.8375  12
  -4   8   7 685.924 21.4605   8
  -2  -8   7 508.793 19.0794  10
   2  -8  -7 483.110 16.3008   5
   2  -8  -7 527.668 17.8340   2
   2  -8  -7 516.461 17.5447  11
  -2  -8   7 541.032 16.8982   7
  -2   8   7 526.085 16.2121  13
   2   8  -7 533.908 16.5995   6
  -2   8   7 509.755 17.7994   8
   0  -8   7 273.116 12.8891  10
   0  -8  -7 247.400 9.76853   5
   0  -8  -7 267.823 11.4601  11
   0  -8   7 289.928 11.0766   7
   0  -8  -7 272.902 12.2283   2
   0   8   7 274.712 10.1126  13
   0   8  -7 260.001 9.93346   6
   0   8  -7 282.365 10.0587   9
  -2  -8  -7 566.578 20.5775   2
  -2  -8  -7 506.578 18.0924  11
   2  -8   7 560.844 18.5345   7
   2   8   7 550.710 17.7086   1
  -2   8  -7 526.076 16.7698   6
   2   8   7 558.490 17.3376  13
  -2   8  -7 561.788 17.8418   9
   4  -8   7 115.668 7.40114   7
  -4  -8  -7 119.773 8.46179   2
  -4   8  -7 115.914 6.92736   9
   4   8   7 115.006 6.58241  13
   4   8   7 124.173 6.92780   1
  -9  -9   7 17.3879 2.86120   7
  -9  -9   7 17.1484 4.05501  10
   9  -9  -7 13.9200 3.15937   5
   9   9  -7 20.2474 3.03595  12
  -9   9   7 13.3560 3.57986   8
  -7  -9   7 644.370 22.9589  10
   7  -9  -7 612.473 20.3640   5
   7  -9  -7 657.534 20.8852  11
  -7  -9   7 650.694 20.5324   7
  -7   9   7 665.075 22.0039   8
   7   9  -7 638.274 19.5296  12
  -5  -9   7 119.775 6.65098   7
   5  -9  -7 109.415 6.62500  11
   5  -9  -7 111.270 6.39135   5
  -5  -9   7 115.223 8.19729  10
  -5   9   7 111.940 6.96560   8
   5   9  -7 109.397 5.35153  12
  -3  -9   7 1411.65 38.9444   7
   3  -9  -7 1389.01 39.8324   2
  -3  -9   7 1454.56 42.2289  10
   3  -9  -7 1354.94 38.7079   5
   3  -9  -7 1394.44 39.9348  11
  -3   9   7 1449.33 40.6046   8
   3   9  -7 1463.13 39.0920   6
   1  -9  -7 143.602 8.62706   2
   1  -9  -7 136.768 7.03268   5
   1  -9  -7 148.720 8.30931  11
  -1  -9   7 146.888 9.46701  10
  -1  -9   7 149.887 7.33980   7
  -1   9   7 151.477 6.91220  13
  -1   9   7 155.023 8.59242   8
   1   9  -7 145.705 7.17489   6
  -1  -9  -7 1004.93 31.3202   2
   1  -9   7 979.998 32.6921  10
  -1  -9  -7 954.657 29.6395  11
   1  -9   7 992.182 29.3166   7
  -1   9  -7 990.149 28.2851   9
   1   9   7 999.914 28.1103  13
  -1   9  -7 991.301 28.2883   6
   3  -9   7 15.9181 3.26346   7
  -3  -9  -7 14.9596 3.51941   2
   3   9   7 24.0588 3.19643   1
   3   9   7 13.8990 2.32468  13
  -3   9  -7 17.4114 2.98726   9
   8 -10  -7 19.1673 3.52188   5
  -8 -10   7 14.0145 3.18007   7
  -8 -10   7 21.6327 4.78269  10
   8  10  -7 17.1080 2.87372  12
  -8  10   7 21.0949 4.04541   8
   6 -10  -7 35.5078 4.28494   5
  -6 -10   7 33.6778 3.78325   7
   6 -10  -7 28.2695 4.33871  11
  -6 -10   7 33.8509 5.50950  10
  -6  10   7 32.0956 4.74532   8
   6  10  -7 34.2447 3.56659  12
   6  10  -7 32.7373 4.11083   6
   4 -10  -7 14.4820 3.53941  11
   4 -10  -7 16.0447 2.87705   5
  -4 -10   7 25.1160 4.85517  10
  -4 -10   7 15.2124 3.06640   2
  -4 -10   7 21.4384 3.51167   7
   4  10  -7 13.8873 2.22439  12
   4  10  -7 14.0929 2.95251   6
  -4  10   7 22.3361 4.08361   8
   2 -10  -7 8.62952 2.17066   5
  -2 -10   7 -1.7759 1.87192   7
  -2 -10   7 2.19574 2.15552  10
   2 -10  -7 -0.4683 2.39294   2
   2 -10  -7 -0.2134 1.84345  11
  -2  10   7 3.52124 2.62349   8
   2  10  -7 0.41486 1.85375   6
   0 -10   7 15.2388 4.23897  10
   0 -10   7 14.9170 3.08666   7
   0 -10  -7 14.6186 3.42009   2
   0 -10  -7 14.7074 3.08880  11
   0  10  -7 11.7749 2.34319   6
   0  10   7 14.0459 3.54721   8
   2 -10   7 14.9201 2.85154   7
  -2 -10  -7 17.1231 3.27897  11
   2 -10   7 15.9869 4.02024  10
  -2 -10  -7 16.5127 4.17043   2
  -2  10  -7 19.7845 3.05471   6
  -2  10  -7 12.7009 2.63149   9
  -5 -11   7 111.652 9.06306  10
  -5 -11   7 112.266 6.78372   7
   5 -11  -7 109.735 6.80239   5
   5 -11  -7 114.630 7.76348  11
   5  11  -7 101.906 5.63831  12
   5  11  -7 106.782 6.65428   6
  -5  11   7 112.129 7.83930   8
  -3 -11   7 275.680 11.2353   7
  -3 -11   7 288.883 13.2482   2
   3 -11  -7 258.815 11.9180  11
  -3 -11   7 283.223 14.1642  10
   3 -11  -7 278.505 12.2418   2
   3 -11  -7 262.696 11.1253   5
  -3  11   7 276.894 12.5009   8
   3  11  -7 283.292 11.3537   6
   1 -11  -7 29.5081 3.73702   5
  -1 -11   7 37.5010 4.00394   7
   1 -11  -7 37.4635 5.03977  11
  -1 -11   7 41.6798 5.97163  10
   1 -11  -7 37.2004 5.37127   2
   1  11  -7 39.9258 4.33969   6
  -1  11   7 44.2157 5.63438   8
  12   0  -8 369.510 13.5482  12
 -12   0   8 366.538 15.1892   3
  12   0  -8 360.593 14.8274   1
 -12   0   8 370.676 17.6032  14
 -10   0   8 32.9030 4.97671  14
  10   0  -8 31.7707 3.53850  12
  10   0  -8 32.1023 3.14680   5
 -10   0   8 26.1539 3.49962   3
  10   0  -8 27.6952 3.48954   1
  10   0  -8 30.2222 3.55854  16
  -8   0   8 1719.12 43.8302   7
   8   0  -8 1698.88 44.8772   5
   8   0  -8 1636.53 44.7062  16
  -8   0   8 1633.93 44.5412   3
   8   0  -8 1739.58 44.4239  12
   6   0  -8 279.909 9.51057  12
  -6   0   8 282.254 9.23800   7
   6   0  -8 292.557 11.5345  15
   6   0  -8 290.944 9.67453  11
   6   0  -8 298.073 10.3452   5
  -6   0   8 293.665 10.0187   4
  -4   0   8 3888.81 95.8887  13
  -4   0   8 3779.01 95.4532   7
   4   0  -8 3795.03 95.4357  12
   4   0  -8 3890.34 96.7750   5
   4   0  -8 3972.85 99.3821  15
  -4   0   8 3795.30 96.3106   4
   4   0  -8 3943.68 96.7860  11
  -2   0   8 135.234 5.77174   4
   2   0  -8 138.656 6.22624  11
  -2   0   8 135.086 5.13549   7
  -2   0   8 122.580 5.22465  13
   2   0  -8 143.797 7.53189  15
   2   0  -8 135.810 5.60345   5
   0   0   8 2341.61 58.9645  13
   0   0   8 2418.01 59.6124   4
   0   0   8 2240.90 58.6369   7
   0   0  -8 2226.97 58.6408   5
   0   0  -8 2390.30 60.2470  11
   2   0   8 35.1069 3.17054  13
   2   0   8 30.5537 3.30861   4
  -2   0  -8 24.8737 3.01436  11
   2   0   8 33.0466 2.91419   7
  -4   0  -8 894.933 27.8190   9
   4   0   8 953.777 27.8258   4
   4   0   8 979.777 27.4609  13
   6   0   8 9.08070 2.72964  13
  -6   0  -8 9.01957 2.33828   9
   6   0   8 14.8364 3.23721   4
 -11  -1   8 4.91879 1.92353   3
  11  -1  -8 2.34229 2.14003  16
 -11  -1   8 2.88175 2.90300  14
  11  -1  -8 4.30753 2.23476  12
  11  -1  -8 5.29817 2.37176   1
  11   1  -8 5.58403 2.49859   1
  11   1  -8 4.02233 1.73879  16
 -11   1   8 9.30741 3.74461  14
 -11   1   8 3.36892 2.10173   3
  11   1  -8 -0.7439 1.86398  12
  -9  -1   8 242.455 12.2341  14
   9  -1  -8 223.898 9.11229  12
   9  -1  -8 224.808 9.52779  16
  -9  -1   8 226.072 9.64906   3
   9  -1  -8 226.418 9.34654   5
  -9  -1   8 240.516 9.05579   7
   9   1  -8 238.663 9.26501  12
   9   1  -8 228.245 9.53971   1
  -9   1   8 237.270 12.0759  14
  -9   1   8 238.103 9.53641   3
   9   1  -8 229.362 9.48790  16
   9   1  -8 244.644 9.46787   5
   7  -1  -8 4.84416 1.80086   5
   7  -1  -8 5.35260 1.56293  15
  -7  -1   8 1.28169 1.48496   7
  -7  -1   8 2.34651 1.17565   4
   7  -1  -8 2.02820 1.40609  12
   7  -1  -8 2.25391 1.06910  11
   7   1  -8 5.25684 1.45591   5
  -7   1   8 2.65792 1.59509   4
  -7   1   8 3.76925 1.26895   7
   7   1  -8 2.85766 1.09763  16
   7   1  -8 2.38878 1.12183  12
  -5  -1   8 145.292 6.30609   4
   5  -1  -8 156.137 6.86178   5
  -5  -1   8 154.245 5.91765   7
   5  -1  -8 151.165 5.81917  12
   5  -1  -8 161.323 6.53969  11
   5  -1  -8 151.310 7.83841  15
  -5   1   8 152.357 5.43470   7
   5   1  -8 148.377 6.19929  11
   5   1  -8 159.454 7.75016  15
   5   1  -8 147.278 5.67826  12
  -5   1   8 161.819 6.33617   4
   5   1  -8 161.022 6.71531   5
   3  -1  -8 268.020 11.1823  15
   3  -1  -8 276.609 9.49310   5
  -3  -1   8 269.555 9.19922   4
   3  -1  -8 256.677 8.12227  12
  -3  -1   8 273.317 8.63318  13
  -3  -1   8 268.328 8.73119   7
   3  -1  -8 268.234 9.28970   2
   3  -1  -8 295.131 9.96183  11
   3   1  -8 269.765 9.52496  11
   3   1  -8 272.592 9.25094   5
   3   1  -8 276.186 11.1741  15
  -3   1   8 263.667 8.99896   4
  -3   1   8 256.161 8.15146   7
   3   1  -8 254.420 7.94430  12
  -3   1   8 273.865 8.91144  13
   1  -1  -8 3.57219 1.82239  15
   1  -1  -8 3.62471 1.61727   2
  -1  -1   8 4.94234 1.58067   4
  -1  -1   8 1.96776 1.08258   7
   1  -1  -8 3.74090 1.13281   5
  -1  -1   8 4.92698 1.27269  13
   1  -1  -8 3.43977 1.54280  11
  -1   1   8 7.22025 1.59168  13
  -1   1   8 4.35129 1.05097   7
  -1   1   8 4.59770 1.48679   4
   1   1  -8 7.31350 1.81856  11
   1   1  -8 11.4348 1.70120   5
  -1  -1  -8 273.463 11.7118  15
  -1  -1  -8 280.012 11.5582   2
   1  -1   8 267.907 9.55361   7
   1  -1   8 277.058 9.91094   4
   1  -1   8 272.662 9.37059  13
  -1  -1  -8 276.263 10.3294  11
   1   1   8 271.083 9.75012   4
  -1   1  -8 297.676 10.4733  11
   1   1   8 280.171 9.61048  13
   1   1   8 264.074 9.05890   7
  -3  -1  -8 41.6535 3.67462  11
   3  -1   8 33.0901 3.08612  13
   3  -1   8 37.0372 3.54992   4
   3   1   8 46.0406 3.73749   4
  -3   1  -8 40.2182 4.00476   9
  -3   1  -8 38.2871 3.31254  11
   3   1   8 40.1322 3.47576  13
   5  -1   8 17.7493 2.92651   4
  -5  -1  -8 25.6618 3.69581   9
   5  -1   8 15.4399 2.59890  13
   5   1   8 20.0150 3.27035   4
  -5   1  -8 14.6767 3.09654   9
   5   1   8 15.2912 3.02404  13
 -12  -2   8 174.005 10.9698  14
 -12  -2   8 164.644 9.22930   3
  12  -2  -8 171.438 9.26296   1
  12  -2  -8 179.453 8.32820  12
 -12   2   8 178.173 11.8400  14
  12   2  -8 161.747 8.29518  12
  12   2  -8 161.879 9.09758   1
 -12   2   8 162.656 8.94787   3
 -10  -2   8 1102.76 35.1522  14
 -10  -2   8 1148.25 30.9085   7
 -10  -2   8 1106.61 32.3068   3
  10  -2  -8 1123.45 31.1132  12
  10  -2  -8 1122.45 32.3230  16
  10   2  -8 1120.44 31.1402  12
  10   2  -8 1110.06 31.0442   5
  10   2  -8 1096.83 31.6728  16
  10   2  -8 1098.69 31.7976   1
 -10   2   8 1155.82 36.2628  14
 -10   2   8 914.940 31.5265   3
  -8  -2   8 119.255 5.53246   7
   8  -2  -8 126.465 5.96620  12
   8  -2  -8 114.815 5.96417   5
   8   2  -8 106.764 5.47209  16
   8   2  -8 117.507 6.00517   5
   8   2  -8 105.376 5.61508   1
  -8   2   8 115.860 7.94299  14
   8   2  -8 109.755 5.64632  12
   6  -2  -8 946.768 25.3965  11
   6  -2  -8 917.767 25.8596   5
  -6  -2   8 898.022 25.2684   4
   6  -2  -8 911.414 24.8770  12
   6  -2  -8 903.948 27.4898  15
  -6  -2   8 896.141 24.8169   7
   6   2  -8 920.591 25.6795   5
  -6   2   8 942.138 25.3140   4
   6   2  -8 913.664 24.7565  12
   6   2  -8 921.246 24.8738  11
   6   2  -8 883.932 24.5143  16
  -6   2   8 884.379 24.8153   8
   4  -2  -8 110.754 6.80492  15
  -4  -2   8 115.654 5.23854   4
  -4  -2   8 107.073 4.99526  10
   4  -2  -8 119.550 5.75947  11
   4  -2  -8 129.888 5.92236   5
  -4  -2   8 117.013 5.10921   7
  -4   2   8 117.480 5.10695   8
  -4   2   8 129.383 5.41374   4
   4   2  -8 121.619 5.46656  11
  -4   2   8 119.974 5.15407  13
   4   2  -8 125.422 5.49077   5
   4   2  -8 110.233 4.46161  12
  -2  -2   8 874.131 23.4749  13
   2  -2  -8 869.705 27.2037  15
  -2  -2   8 887.402 24.4289   4
   2  -2  -8 879.766 25.1558  11
  -2  -2   8 859.458 24.0358   7
   2  -2  -8 898.850 25.1232   2
   2  -2  -8 873.798 24.4470   5
  -2   2   8 879.878 24.1269  13
   2   2  -8 898.566 24.2855   5
  -2   2   8 897.634 24.1873   4
   2   2  -8 897.103 24.8527  11
   0  -2  -8 504.982 16.7343   2
   0  -2   8 483.768 14.3144  13
   0  -2   8 471.703 14.9022   7
   0  -2  -8 493.673 17.6335  15
   0  -2  -8 490.821 15.9908  11
   0  -2   8 498.348 15.3630   4
   0   2   8 494.005 14.9420   4
   0   2   8 511.338 14.9514  13
   0   2  -8 502.269 15.6232  11
   0   2  -8 503.234 15.3265   9
   0   2  -8 482.788 14.3613   5
   2  -2   8 881.420 25.3482   4
  -2  -2  -8 860.509 27.2181   2
   2  -2   8 887.243 25.1030   7
  -2  -2  -8 847.113 25.2545  11
   2  -2   8 848.958 24.2079  13
   2   2   8 896.437 24.8655  13
  -2   2  -8 870.370 25.4400   9
  -2   2  -8 881.937 25.2708  11
   2   2   8 867.580 24.7500   4
   4  -2   8 486.372 15.7713  13
   4  -2   8 482.907 16.6520   4
   4   2   8 499.155 16.3573  13
  -4   2  -8 482.268 16.8150   9
   4   2   8 484.143 16.1237   4
 -11  -3   8 -0.1487 1.91773   7
 -11  -3   8 1.55870 2.19107   3
 -11  -3   8 0.67065 2.61412  14
  11  -3  -8 3.65817 2.23723  12
  11  -3  -8 -0.1166 1.55067   5
 -11   3   8 4.78775 3.61855  14
  11   3  -8 -0.6539 1.77757  12
  11   3  -8 2.12847 1.62437   1
  11   3  -8 1.22238 1.83505  16
   9  -3  -8 86.3823 5.38673  12
  -9  -3   8 92.9289 5.54266   7
   9  -3  -8 85.9191 5.51434   5
  -9   3   8 94.2466 7.73326  14
   9   3  -8 79.1510 4.98091   1
   9   3  -8 77.5849 5.02963  16
   9   3  -8 93.6865 5.20078  12
   9   3  -8 86.1103 5.34650   5
   7  -3  -8 22.2379 2.49423  12
   7  -3  -8 24.2273 3.57912  15
  -7  -3   8 23.7952 2.62964   7
   7  -3  -8 26.5205 2.61827  11
   7  -3  -8 23.4189 3.07247   5
  -7  -3   8 21.3625 2.49781   4
   7   3  -8 19.6461 2.29017   1
   7   3  -8 24.0482 2.82125   5
   7   3  -8 20.3609 2.60733  16
   7   3  -8 22.5696 2.70222  12
  -7   3   8 19.7005 2.57447   8
  -7   3   8 21.4600 3.69294  14
  -5  -3   8 12.7677 2.13407   4
   5  -3  -8 7.42294 2.37686  15
  -5  -3   8 9.71242 1.76868  10
   5  -3  -8 6.88826 1.88054  11
   5  -3  -8 8.41854 1.83213   5
  -5  -3   8 9.34738 1.89946   7
   5   3  -8 7.50947 1.59764  11
   5   3  -8 6.35209 1.34704  12
   5   3  -8 9.51694 1.73924   5
  -5   3   8 7.32325 1.66843   8
  -5   3   8 6.45418 1.68151   4
  -3  -3   8 16.1306 2.30480  10
   3  -3  -8 27.1525 2.95083   5
   3  -3  -8 17.6781 2.38968   2
   3  -3  -8 16.9818 2.61185  11
  -3  -3   8 14.1885 2.12188   4
   3  -3  -8 16.2313 2.92627  15
  -3  -3   8 18.3940 1.69523  13
  -3  -3   8 21.1490 2.30248   7
  -3   3   8 19.3700 2.19779  13
   3   3  -8 18.3990 2.45901  11
   3   3  -8 14.8410 1.79694   9
   3   3  -8 13.8284 2.08147   5
  -3   3   8 17.9289 2.19342   4
   1  -3  -8 100.564 6.57675  15
   1  -3  -8 110.505 6.13703   2
  -1  -3   8 112.069 5.37169   4
   1  -3  -8 107.413 5.03242   5
  -1  -3   8 104.822 4.37955  13
   1  -3  -8 109.028 5.78006  11
  -1  -3   8 105.645 5.17284   7
   1   3  -8 105.381 5.38039  11
   1   3  -8 107.011 5.08605   9
  -1   3   8 111.431 5.07758  13
  -1   3   8 112.042 5.07082   4
   1   3  -8 112.867 4.96157   5
  -1  -3  -8 10.0033 2.02436  11
  -1  -3  -8 13.3198 2.72348  15
  -1  -3  -8 12.9493 2.99545   2
   1  -3   8 12.7973 1.83771  13
   1  -3   8 5.11580 1.87032   4
   1   3   8 14.6285 2.30274  13
   1   3   8 9.83049 1.92806   4
   1   3   8 11.6913 1.66495   1
  -1   3  -8 11.9790 2.34125   9
  -1   3  -8 9.96910 2.16287  11
  -3  -3  -8 32.2542 4.84891   2
   3  -3   8 42.0734 3.40589  13
   3  -3   8 46.0800 4.56485   4
   3  -3   8 37.2795 3.78846   7
  -3  -3  -8 35.7472 3.55977  11
   3   3   8 37.9055 3.81424  13
  -3   3  -8 34.3556 3.93698   9
   3   3   8 37.4301 3.26615   4
  -5  -3  -8 26.0768 3.88064   9
   5  -3   8 28.4248 4.00661   4
   5  -3   8 23.1952 3.49181   7
   5   3   8 26.1658 3.57120  13
   5   3   8 24.3611 3.29874   4
  -5   3  -8 31.0669 4.23076   9
  12  -4  -8 4.92679 2.84131   1
  12  -4  -8 3.28251 2.08068  12
 -12  -4   8 2.53797 2.79294  14
 -12  -4   8 4.93521 2.70387   3
  12   4  -8 4.82910 2.24781   1
  12   4  -8 4.23133 2.23683  12
 -12   4   8 6.95162 3.81784  14
  10  -4  -8 876.709 26.0415  12
  10  -4  -8 890.295 26.3271   5
 -10  -4   8 900.109 30.1467  14
 -10  -4   8 911.848 26.3840   7
  10  -4  -8 907.039 27.4219  16
 -10   4   8 914.853 31.5468  14
  10   4  -8 924.234 26.3855   5
  10   4  -8 833.236 26.3049   1
 -10   4   8 909.420 27.0519   8
  10   4  -8 897.027 26.3281  12
   8  -4  -8 56.5463 4.64484   5
  -8  -4   8 62.6859 4.63153   7
   8  -4  -8 68.4466 4.19829  12
   8   4  -8 56.0132 4.15253  12
  -8   4   8 57.1922 4.40922   8
   8   4  -8 61.3566 4.26196   5
  -8   4   8 67.3200 5.89640  14
   6  -4  -8 2250.75 61.3005  15
   6  -4  -8 2285.64 58.7429  11
  -6  -4   8 2163.44 58.7111  10
   6  -4  -8 2313.77 59.2277   5
  -6  -4   8 2282.88 58.4486   7
  -6  -4   8 2251.85 58.3723   4
  -6   4   8 2315.20 58.9520   8
   6   4  -8 2296.86 57.9233  12
  -6   4   8 2258.29 61.0842  14
  -6   4   8 2318.11 58.2838   4
   6   4  -8 2284.49 58.9738   5
  -4  -4   8 324.018 10.9676   7
  -4  -4   8 321.049 11.6555  10
   4  -4  -8 334.944 11.4762   5
  -4  -4   8 335.378 10.9842   4
   4  -4  -8 328.323 13.3155  15
   4  -4  -8 333.051 11.6327  11
  -4   4   8 319.255 11.8492  14
   4   4  -8 318.911 11.0702   5
  -4   4   8 332.033 11.3692   8
  -4   4   8 331.710 10.5838   4
   4   4  -8 321.397 9.90549  12
  -4   4   8 333.887 10.9599  13
   2  -4  -8 2122.02 54.7813  11
  -2  -4   8 2049.32 53.5206   4
  -2  -4   8 1989.64 53.4613   7
   2  -4  -8 2017.35 56.7668  15
   2  -4  -8 2087.51 54.6123   2
   2  -4  -8 2032.11 53.7068   5
   2   4  -8 2092.70 53.5946   5
  -2   4   8 2137.10 53.5583  13
  -2   4   8 2137.23 53.0257   4
   2   4  -8 2115.09 53.0517   9
   0  -4  -8 105.380 6.59742   2
   0  -4  -8 111.582 6.28380  11
   0  -4  -8 115.123 7.32552  15
   0  -4   8 114.316 5.90070   7
   0  -4   8 122.209 5.92489   4
   0   4   8 115.925 5.49784  13
   0   4  -8 110.776 5.11042   5
   0   4  -8 119.525 5.68381   9
   0   4   8 111.996 5.20556   4
  -2  -4  -8 705.848 23.7889   2
   2  -4   8 702.442 21.3965   4
   2  -4   8 719.278 21.6109   7
  -2  -4  -8 679.283 21.6172  11
   2   4   8 709.068 20.4691   4
  -2   4  -8 713.381 21.4760   9
   2   4   8 714.608 21.1025  13
   2   4   8 692.695 20.3036   1
   4  -4   8 21.6138 3.53788   7
  -4  -4  -8 19.7921 4.32924   2
   4  -4   8 17.4735 3.15631   4
  -4   4  -8 22.0118 3.27195   9
   4   4   8 16.8330 2.63495   4
   4   4   8 19.9572 3.14502  13
 -11  -5   8 248.009 10.5896   7
  11  -5  -8 250.386 10.2940  12
  11  -5  -8 242.763 10.1457   5
 -11   5   8 258.128 11.3899   8
  11   5  -8 261.566 10.7528  12
 -11   5   8 275.456 15.1606  14
  -9  -5   8 90.3080 5.72345   7
   9  -5  -8 79.5153 5.29559  12
   9  -5  -8 80.1394 5.61667   5
   9   5  -8 85.7408 5.10876  12
  -9   5   8 89.4332 7.80343  14
  -9   5   8 81.3615 5.75476   8
   9   5  -8 85.4495 5.41607   5
  -7  -5   8 404.653 14.2151  10
   7  -5  -8 403.145 13.3206  11
  -7  -5   8 399.739 13.4311   7
   7  -5  -8 386.787 16.8535  15
  -7  -5   8 424.229 13.3599   4
   7  -5  -8 406.248 13.8685   5
   7   5  -8 424.217 14.0045   5
  -7   5   8 401.571 15.9793  14
  -7   5   8 410.097 14.0198   8
   7   5  -8 401.501 12.9802  12
  -5  -5   8 154.463 6.59464   4
   5  -5  -8 163.329 7.49705   5
  -5  -5   8 161.497 7.67981  10
   5  -5  -8 165.971 7.36236  11
  -5  -5   8 164.010 7.18861   7
   5  -5  -8 161.877 8.60587  15
  -5   5   8 164.063 6.51531   4
  -5   5   8 165.540 7.41295   8
  -5   5   8 161.784 7.95196  14
   5   5  -8 169.045 6.32760  12
   5   5  -8 159.397 7.18300   5
  -3  -5   8 83.7119 4.58723   4
  -3  -5   8 77.4309 5.40659  10
   3  -5  -8 85.0648 5.13583  11
   3  -5  -8 84.8651 4.90079   2
  -3  -5   8 85.3280 4.73782   7
   3  -5  -8 73.5907 4.81335   5
   3  -5  -8 78.0373 5.97519  15
  -3   5   8 83.8816 4.67892  13
  -3   5   8 81.5317 4.12767   4
  -3   5   8 85.5880 5.16105   8
   3   5  -8 86.3823 4.78298   5
   1  -5  -8 228.953 9.74089  11
   1  -5  -8 220.959 10.9808  15
   1  -5  -8 228.182 9.88974   2
   1  -5  -8 216.131 8.53306   5
  -1  -5   8 235.466 8.71760   4
  -1  -5   8 245.783 9.25247   7
   1   5  -8 237.635 8.67739   5
  -1   5   8 236.275 8.08493   4
   1   5  -8 224.726 8.15486   6
  -1   5   8 242.074 8.72865  13
   1   5  -8 225.561 8.38614   9
  -1  -5  -8 5.52570 2.51488   2
   1  -5   8 4.78722 1.62796   4
  -1  -5  -8 8.03589 2.37036  11
   1  -5   8 7.24745 2.21996   7
  -1   5  -8 5.24362 1.83195   9
   1   5   8 6.28434 1.97633  13
   1   5   8 7.00858 1.84836   1
  -3  -5  -8 38.5210 3.63871  11
   3  -5   8 35.9710 3.82540   4
   3  -5   8 37.5693 4.23316   7
  -3  -5  -8 31.8850 4.94065   2
   3   5   8 41.6897 4.18314  13
   3   5   8 36.6184 3.57261   1
  -3   5  -8 43.4965 4.54334   9
   5  -5   8 18.7665 3.17726   4
   5  -5   8 27.2196 4.07263   7
  -5  -5  -8 21.6457 4.02154   2
  -5   5  -8 22.5911 3.41104   9
   5   5   8 27.8785 3.82664  13
 -10  -6   8 47.9638 6.06425  14
  10  -6  -8 51.0411 4.27427   5
 -10  -6   8 64.0374 5.30869   7
  10  -6  -8 43.9972 4.19025  12
 -10   6   8 56.3153 6.47815  14
  10   6  -8 49.7116 4.39335   5
 -10   6   8 40.6734 5.05255   8
  10   6  -8 54.5305 4.98683  12
  -8  -6   8 1150.06 32.0913   7
   8  -6  -8 1108.89 32.2081   5
   8   6  -8 1118.62 31.5393  12
  -8   6   8 1156.39 33.1479   8
  -8   6   8 1154.20 35.9282  14
   8   6  -8 1161.05 32.4893   5
  -6  -6   8 7.34735 2.31746   7
   6  -6  -8 3.69274 2.09383  11
  -6  -6   8 7.43330 1.83872   4
   6  -6  -8 2.54075 1.99510   5
  -6   6   8 2.56460 1.83240  14
   6   6  -8 5.31049 1.88326   5
   6   6  -8 5.04801 1.57884  12
  -6   6   8 6.26986 2.18759   8
   4  -6  -8 1248.19 34.1163   5
  -4  -6   8 1206.90 35.2646  10
  -4  -6   8 1244.81 33.8705   7
  -4  -6   8 1195.92 33.0999   4
   4  -6  -8 1257.30 34.6399  11
  -4   6   8 1263.80 34.6044   8
   4   6  -8 1248.56 34.0161   5
   4   6  -8 1218.38 32.2384  12
  -2  -6   8 10.3423 2.37203   7
  -2  -6   8 5.85847 1.73112   4
   2  -6  -8 6.62706 2.47881  11
   2  -6  -8 8.15081 2.31208   2
  -2  -6   8 10.1061 2.51123  10
   2  -6  -8 6.81849 1.98412   5
  -2   6   8 7.64111 1.93991  13
   2   6  -8 8.78541 1.82961   6
   2   6  -8 6.65101 1.81708   5
   0  -6  -8 1312.00 37.9807   2
   0  -6   8 1356.69 36.4866   7
   0  -6  -8 1309.02 37.0915  11
   0  -6   8 1333.13 35.8504   4
   0   6  -8 1311.58 35.6421   9
   0   6   8 1325.70 35.7328  13
   0   6  -8 1271.55 35.0614   6
   2  -6   8 76.5671 5.32651   4
   2  -6   8 81.4123 5.70227   7
  -2  -6  -8 64.8895 4.81133  11
  -2  -6  -8 69.5649 6.36997   2
  -2   6  -8 66.0139 4.85685   9
   2   6   8 73.2624 4.88908   1
   2   6   8 74.4173 5.06075  13
   4  -6   8 891.762 27.5265   7
   4  -6   8 899.224 27.0352   4
  -4  -6  -8 899.561 30.2074   2
   4   6   8 893.954 26.1216   1
   4   6   8 858.383 26.3370  13
  -4   6  -8 888.640 27.1032   9
   9  -7  -8 8.16811 2.59249   5
  -9  -7   8 4.77694 2.23973  10
  -9  -7   8 8.41480 2.61250   7
  -9   7   8 16.5121 4.09637  14
   9   7  -8 5.62415 1.81562  12
   9   7  -8 8.64447 2.34315   5
  -9   7   8 4.84142 2.52765   8
  -7  -7   8 56.5695 5.55488  10
  -7  -7   8 49.3805 4.52884   7
   7  -7  -8 54.0167 4.84164   5
   7  -7  -8 53.6570 4.12719  11
   7   7  -8 51.9945 4.19530   5
  -7   7   8 53.2289 4.95535   8
   7   7  -8 50.6839 3.90902  12
  -7   7   8 48.1816 5.26003  14
   5  -7  -8 15.1124 2.46362   5
   5  -7  -8 12.5678 2.90208  11
  -5  -7   8 20.3002 3.12580   7
  -5  -7   8 15.0931 3.21244  10
  -5   7   8 22.4954 3.52479   8
   5   7  -8 16.8701 2.16408  12
   5   7  -8 12.9536 2.29867   5
  -3  -7   8 24.2368 2.75918   4
  -3  -7   8 21.4256 3.11108   7
   3  -7  -8 21.9198 3.20413   2
   3  -7  -8 23.1884 3.57222  11
   3  -7  -8 20.8626 2.96224   5
  -3  -7   8 22.7289 3.60776  10
   3   7  -8 25.4908 2.95600   5
  -3   7   8 24.7148 3.00971  13
  -3   7   8 26.4587 3.83390   8
  -1  -7   8 167.728 9.33657  10
  -1  -7   8 157.394 7.43994   7
   1  -7  -8 153.787 7.94942  11
   1  -7  -8 164.605 8.56575   2
  -1  -7   8 152.040 6.81497   4
   1  -7  -8 153.256 7.12257   5
   1   7  -8 157.332 7.02721   6
  -1   7   8 159.096 7.16849  13
   1   7  -8 163.602 6.85412   9
  -1  -7  -8 17.3624 2.81385  11
   1  -7   8 16.6339 3.03153   7
   1  -7   8 13.1815 2.47211   4
  -1  -7  -8 17.7966 3.82626   2
   1   7   8 16.0223 2.70912  13
  -1   7  -8 14.5639 2.50973   6
  -1   7  -8 14.2526 2.40017   9
   3  -7   8 113.096 6.88936   7
   3  -7   8 106.484 6.54625   4
  -3  -7  -8 107.966 8.28831   2
  -3   7  -8 107.168 6.56166   9
   3   7   8 98.8144 5.88377  13
   3   7   8 100.536 6.19422   1
  -8  -8   8 519.524 19.4769  10
   8  -8  -8 523.359 17.8532   5
  -8  -8   8 563.204 18.1522   7
   8   8  -8 556.065 18.1309   5
   8   8  -8 534.450 17.0892  12
  -8   8   8 552.756 19.2146   8
  -6  -8   8 292.549 11.1452   7
   6  -8  -8 277.252 11.2087  11
   6  -8  -8 257.009 10.8436   5
  -6  -8   8 272.612 12.4758  10
  -6   8   8 278.788 11.7783   8
   6   8  -8 268.101 10.9564   5
   6   8  -8 274.481 9.75125  12
   4  -8  -8 792.029 24.2967  11
  -4  -8   8 773.108 25.7837  10
  -4  -8   8 813.836 23.9108   7
   4  -8  -8 782.136 23.7933   5
   4   8  -8 800.139 23.8878   5
  -4   8   8 811.571 24.9225   8
  -2  -8   8 357.955 12.9748   7
   2  -8  -8 362.612 13.8907  11
   2  -8  -8 360.549 13.7739   2
  -2  -8   8 345.345 15.1902  10
   2  -8  -8 322.758 12.3138   5
  -2   8   8 347.625 12.2780  13
  -2   8   8 365.688 13.9093   8
   2   8  -8 366.733 12.7644   6
   0  -8   8 472.127 18.7446  10
   0  -8  -8 438.398 16.1834  11
   0  -8   8 480.698 16.3194   7
   0  -8  -8 447.778 17.1053   2
   0   8  -8 471.589 15.1554   6
   0   8   8 465.791 15.2648  13
   2  -8   8 182.980 9.02221   7
  -2  -8  -8 156.727 8.30746  11
  -2  -8  -8 173.535 10.3359   2
   2   8   8 162.188 7.65600  13
  -2   8  -8 165.411 8.17208   9
   2   8   8 183.326 8.38063   1
   7  -9  -8 0.93442 2.20260   5
   7  -9  -8 0.09842 2.12949  11
  -7  -9   8 -1.0783 1.52583   7
  -7  -9   8 3.07395 3.05479  10
   7   9  -8 1.81625 1.66179  12
  -7   9   8 0.29848 2.25021   8
   5  -9  -8 29.6372 4.04842   5
   5  -9  -8 30.7776 3.93776  11
  -5  -9   8 26.5770 4.56400  10
  -5  -9   8 30.5757 4.00304   7
   5   9  -8 31.4060 3.08535  12
  -5   9   8 35.4688 4.71743   8
  -3  -9   8 45.1257 5.81681  10
   3  -9  -8 38.1994 4.44215   2
   3  -9  -8 37.5260 4.35220  11
   3  -9  -8 38.6992 3.90372   5
  -3  -9   8 44.5794 4.68280   7
  -3   9   8 40.0396 5.06292   8
   3   9  -8 34.2086 3.96709   6
   1  -9  -8 16.5703 3.33426   2
   1  -9  -8 14.8975 2.69112   5
  -1  -9   8 18.1901 4.19161  10
  -1  -9   8 17.6737 3.33055   7
   1  -9  -8 17.4620 3.68067  11
  -1   9   8 22.5154 3.99982   8
   1   9  -8 22.9061 3.28500   6
  -1   9   8 16.5044 2.81308  13
  -1  -9  -8 63.1596 5.92832   2
   1  -9   8 61.7928 5.50931   7
  -1  -9  -8 67.1805 5.64268  11
   1  -9   8 69.0641 7.14961  10
  -1   9  -8 66.2323 4.81693   9
   1   9   8 62.0352 4.43337  13
  -6 -10   8 619.083 19.9921   7
  -6 -10   8 629.908 22.8643  10
   6 -10  -8 615.899 20.4191   5
   6 -10  -8 608.553 20.5353  11
  -6  10   8 671.657 22.0762   8
   6  10  -8 604.913 18.8594  12
   6  10  -8 645.054 20.4475   6
  -4 -10   8 15.7793 4.15302  10
   4 -10  -8 17.6797 3.64208  11
   4 -10  -8 11.5974 2.59087   5
  -4 -10   8 12.5462 3.01707   7
   4  10  -8 14.3144 3.05269   6
  -4  10   8 20.0707 4.04042   8
   2 -10  -8 724.058 23.8899  11
   2 -10  -8 692.210 22.6783   5
  -2 -10   8 750.524 26.5339  10
  -2 -10   8 775.627 23.6138   7
  -2  10   8 776.760 25.2116   8
   2  10  -8 784.899 23.4228   6
   0 -10  -8 11.0552 3.38234   2
   0 -10   8 14.3491 4.14090  10
   0 -10  -8 6.31293 2.37951  11
   0 -10   8 11.1861 2.52622   7
   0  10   8 5.53194 2.99815   8
   0  10   8 8.40597 2.27158  13
   0  10  -8 8.55892 2.13263   6
   5 -11  -8 46.5673 4.82787  11
  -5 -11   8 45.9248 5.92176  10
   5 -11  -8 48.6826 5.08661   5
  -5 -11   8 50.6145 5.12946   7
  -5  11   8 56.0883 5.90013   8
   5  11  -8 56.6568 4.80971   6
  -3 -11   8 39.7596 4.50620   7
  -3 -11   8 37.1631 5.75104  10
   3 -11  -8 41.8756 4.29161   5
   3 -11  -8 42.0027 4.79231  11
  -3  11   8 44.0412 5.63922   8
   3  11  -8 44.9485 4.65856   6
  12   0  -9 -0.5011 1.89575  12
  12   0  -9 0.30096 1.47148   1
 -12   0   9 -0.1846 2.86751  14
  10   0  -9 1.31374 1.83209  12
 -10   0   9 1.40297 1.57791   7
  10   0  -9 0.44353 1.64532   5
  10   0  -9 -0.9283 1.41243  16
  10   0  -9 -0.1270 1.71267   1
 -10   0   9 3.42830 2.83844  14
  -8   0   9 0.89709 1.59831   4
   8   0  -9 -0.0052 1.27683  16
   8   0  -9 -0.3058 1.54980   5
   8   0  -9 1.68926 1.63370  12
  -8   0   9 1.49952 1.40061   7
   6   0  -9 0.23966 0.98176  15
   6   0  -9 0.55814 1.11559  11
  -6   0   9 -1.2454 0.89885   4
  -6   0   9 -0.2926 0.76516   7
   6   0  -9 0.09250 1.09184  12
   6   0  -9 0.93875 1.46840   5
  -4   0   9 1.43601 1.03445   7
   4   0  -9 1.11489 1.52998  15
   4   0  -9 0.41002 0.78910  12
   4   0  -9 1.51913 1.33589  11
  -4   0   9 2.15192 1.20967  13
  -4   0   9 0.92257 1.00307   4
   4   0  -9 -0.0101 1.16126   5
   2   0  -9 7.93202 1.66341   5
  -2   0   9 0.50849 0.94737   4
   2   0  -9 -0.7541 1.31673  15
  -2   0   9 1.26996 0.98926   7
   2   0  -9 -0.1198 1.22038  11
  -2   0   9 -0.5915 1.02605  13
   0   0   9 0.66675 1.48795   4
   0   0  -9 2.22979 1.25313  11
   0   0   9 0.71390 1.04350   7
   0   0   9 -0.3757 0.77610  13
   2   0   9 4.16575 1.46387  13
   2   0   9 1.31890 1.39601   7
  -2   0  -9 0.23457 1.59761   9
   2   0   9 0.12690 1.34992   4
  -2   0  -9 2.49477 1.59832  11
   4   0   9 0.64263 2.00221   4
   4   0   9 0.48763 1.46005   7
  -4   0  -9 1.51302 1.50652   9
   4   0   9 -1.3013 1.51342  13
  11  -1  -9 293.056 11.2555   5
  11  -1  -9 271.155 11.1452  12
 -11  -1   9 285.836 14.6732  14
 -11   1   9 271.972 14.6992  14
  11   1  -9 277.260 11.1861  12
  11   1  -9 278.812 10.9876   5
  11   1  -9 253.000 12.5216  16
  11   1  -9 282.013 11.8435   1
   9  -1  -9 527.897 16.8678  12
  -9  -1   9 501.765 17.3149   3
  -9  -1   9 551.180 16.4312   7
   9  -1  -9 546.697 17.4483   5
   9  -1  -9 516.203 17.3175  16
  -9   1   9 555.142 20.7614  14
   9   1  -9 540.781 17.4462   5
   9   1  -9 520.364 17.0584  16
   9   1  -9 542.893 16.9760  12
   9   1  -9 527.888 17.1943   1
   7  -1  -9 518.952 16.6241   5
  -7  -1   9 529.001 16.1682   4
   7  -1  -9 532.718 15.8880  12
   7  -1  -9 516.439 18.1820  15
   7  -1  -9 509.015 15.6118  11
  -7  -1   9 510.834 15.4494   7
   7   1  -9 483.022 15.4971  16
   7   1  -9 515.583 15.6681  12
   7   1  -9 530.372 16.6300   5
  -7   1   9 526.955 16.1134   4
  -7   1   9 507.894 14.8216   7
   7   1  -9 498.770 15.4117  11
   5  -1  -9 834.492 23.6474   5
   5  -1  -9 797.209 22.0683  12
  -5  -1   9 790.939 22.1159   7
  -5  -1   9 814.620 22.9697   4
   5  -1  -9 804.473 25.6783  15
   5  -1  -9 815.037 23.2929  11
  -5   1   9 781.224 21.5319   7
   5   1  -9 820.189 23.4181   5
   5   1  -9 785.227 21.9749  12
  -5   1   9 807.395 22.8779   4
   5   1  -9 824.534 23.2095  11
  -3  -1   9 659.989 19.1284   4
   3  -1  -9 661.456 19.4226   5
   3  -1  -9 646.815 22.1827  15
   3  -1  -9 686.939 20.1008  11
  -3  -1   9 648.655 18.3691  13
  -3  -1   9 637.271 18.4434   7
  -3   1   9 636.442 18.8888   4
  -3   1   9 651.477 18.6913  13
   3   1  -9 675.238 19.8374  11
   3   1  -9 663.138 19.2794   5
  -3   1   9 631.125 17.8031   7
   1  -1  -9 494.814 18.3018  15
   1  -1  -9 513.842 16.6296  11
   1  -1  -9 503.166 15.1889   5
  -1  -1   9 495.383 15.0109   7
  -1  -1   9 517.453 15.7711   4
  -1  -1   9 495.296 14.8837  13
   1   1  -9 516.018 15.2187   5
  -1   1   9 484.223 14.4283   7
  -1   1   9 514.002 15.2892  13
  -1   1   9 506.021 15.6076   4
   1   1  -9 507.509 16.3825  11
   1  -1   9 507.655 16.1996   4
  -1  -1  -9 514.869 16.8253  11
   1  -1   9 485.884 15.2602  13
   1  -1   9 478.294 15.4130   7
   1   1   9 491.413 15.5540  13
  -1   1  -9 507.369 16.5967  11
   1   1   9 498.858 15.8794   4
  -1   1  -9 506.227 16.5051   9
   3  -1   9 198.758 8.80320   7
   3  -1   9 208.382 9.30371   4
  -3  -1  -9 209.243 9.78493   9
  -3  -1  -9 212.839 9.18195  11
   3  -1   9 207.623 8.69166  13
   3   1   9 220.891 9.39993   4
  -3   1  -9 205.275 9.46909   9
  -3   1  -9 204.180 9.07398  11
   3   1   9 216.244 9.10423  13
   5  -1   9 290.117 11.5220  13
   5   1   9 325.417 12.4089  13
 -12  -2   9 114.242 9.42776  14
  12  -2  -9 104.026 7.42144   1
  12  -2  -9 111.833 6.51914  12
 -12  -2   9 110.235 7.53378   3
  12   2  -9 110.468 7.29739   1
 -12   2   9 120.625 10.2454  14
  12   2  -9 114.304 6.90293  12
  10  -2  -9 107.779 6.33901   5
 -10  -2   9 97.8326 6.37104   3
 -10  -2   9 102.814 8.07611  14
  10  -2  -9 104.990 6.16999  12
  10  -2  -9 97.2834 6.39683  16
 -10  -2   9 98.1168 5.53205   7
 -10   2   9 106.640 8.78789  14
  10   2  -9 98.1217 5.99630  12
  10   2  -9 107.233 6.00449   5
  10   2  -9 97.9484 5.94166   1
   8  -2  -9 182.048 7.79373  12
  -8  -2   9 182.090 7.98733   4
   8  -2  -9 202.700 8.82981   5
  -8  -2   9 193.541 7.87250   7
  -8   2   9 196.981 10.5601  14
   8   2  -9 191.915 8.47604   5
   8   2  -9 182.425 7.77980  12
   8   2  -9 175.682 7.62318   1
   6  -2  -9 256.694 9.46099  11
  -6  -2   9 257.539 9.34861   4
  -6  -2   9 244.531 8.77409   7
   6  -2  -9 235.553 8.63549  12
   6  -2  -9 231.916 11.0077  15
   6  -2  -9 252.957 9.76054   5
   6   2  -9 252.735 8.99502  11
   6   2  -9 236.794 9.40138   5
   6   2  -9 247.277 8.63661  12
  -6   2   9 246.661 9.04974   4
   4  -2  -9 184.602 6.67751  12
   4  -2  -9 179.460 7.83182   5
   4  -2  -9 184.632 7.94850  11
   4  -2  -9 186.512 9.71019  15
  -4  -2   9 181.216 7.12398   7
  -4  -2   9 196.883 7.68434   4
  -4   2   9 190.141 7.38801  13
  -4   2   9 191.989 7.34822   4
  -4   2   9 181.502 7.07284   8
   4   2  -9 186.023 7.66809   5
   4   2  -9 189.649 7.78954  11
   2  -2  -9 286.292 10.1448   5
   2  -2  -9 281.558 12.6025  15
  -2  -2   9 299.157 9.39682  13
  -2  -2   9 290.985 9.87132   7
  -2  -2   9 284.348 10.2383   4
   2  -2  -9 295.385 11.1623  11
   2  -2  -9 278.528 10.6444   2
  -2   2   9 280.430 9.84655   4
   2   2  -9 299.251 10.1599   5
  -2   2   9 281.947 9.92046  13
   2   2  -9 288.282 10.6974  11
   0  -2   9 194.557 7.43776  13
   0  -2  -9 195.667 8.90094  11
   0  -2   9 206.023 8.16836   7
   0  -2   9 209.705 8.40068   4
   0  -2  -9 190.385 10.0557  15
   0  -2  -9 194.520 9.46893   2
   0   2   9 204.593 8.08372  13
   0   2  -9 197.793 8.53819  11
   0   2   9 237.405 8.45350   4
   0   2  -9 200.531 8.35835   9
   2  -2   9 148.949 7.47951   4
   2  -2   9 149.652 6.61931  13
   2  -2   9 140.944 6.97362   7
  -2  -2  -9 142.440 7.38604  11
  -2  -2  -9 158.193 9.24960   2
   2   2   9 138.152 7.03559   4
   2   2   9 139.490 6.76857  13
  -2   2  -9 148.843 7.44939  11
  -2   2  -9 142.627 7.53794   9
   4  -2   9 152.756 7.80913   7
  -4  -2  -9 151.389 8.32153   9
   4  -2   9 141.852 7.08163  13
   4  -2   9 151.411 7.89206   4
   4   2   9 153.390 7.85475  13
   4   2   9 150.240 7.75958   4
  -4   2  -9 144.940 8.10667   9
  11  -3  -9 17.9128 2.89999  12
 -11  -3   9 23.1282 3.35794   7
  11  -3  -9 23.4565 3.38660   5
 -11  -3   9 22.0244 4.74173  14
  11   3  -9 17.7056 3.05117   1
  11   3  -9 24.7580 3.66806  12
  11   3  -9 20.1266 3.00220   5
 -11   3   9 29.2517 5.20185  14
   9  -3  -9 1082.13 30.6315  12
  -9  -3   9 1079.61 30.5245   7
   9  -3  -9 1113.82 31.5943   5
   9   3  -9 1085.82 30.7951  12
   9   3  -9 1093.69 31.3990   5
  -9   3   9 1116.45 35.3477  14
   7  -3  -9 15.8361 2.46554  11
  -7  -3   9 12.0386 2.06365   7
   7  -3  -9 15.6322 2.51668   5
   7  -3  -9 15.2774 2.44174  12
  -7  -3   9 19.4548 2.78877   4
   7  -3  -9 13.1975 2.87284  15
  -7   3   9 11.5102 2.91189  14
   7   3  -9 14.9285 2.36914   5
  -7   3   9 12.5648 2.07063   4
   7   3  -9 13.7706 2.04607  12
  -5  -3   9 1611.63 42.0248   4
   5  -3  -9 1503.33 44.8450  15
   5  -3  -9 1591.71 42.7464   5
   5  -3  -9 1578.59 41.2113  12
  -5  -3   9 1575.80 41.5827   7
   5  -3  -9 1613.14 42.6282  11
  -5   3   9 1568.86 41.7264   8
   5   3  -9 1626.20 42.1707  11
   5   3  -9 1592.96 42.4488   5
   5   3  -9 1559.92 40.8313  12
  -5   3   9 1612.68 41.7653   4
  -3  -3   9 86.4927 5.09793  10
  -3  -3   9 82.6119 4.64369   4
   3  -3  -9 83.8392 4.84072   2
   3  -3  -9 88.8593 5.28918  11
   3  -3  -9 87.6016 6.36693  15
  -3  -3   9 81.2711 4.64922   7
   3  -3  -9 88.1832 5.11835   5
  -3   3   9 86.8041 4.52008  13
   3   3  -9 87.8835 4.85662   5
  -3   3   9 89.1672 4.54660   4
   3   3  -9 84.9115 4.27851   9
   3   3  -9 86.9733 5.10072  11
   1  -3  -9 1381.86 38.5705   5
   1  -3  -9 1451.28 40.2990  11
  -1  -3   9 1428.72 38.9344   7
   1  -3  -9 1431.21 42.6966  15
   1  -3  -9 1462.44 40.6747   2
  -1  -3   9 1463.67 39.2332   4
  -1   3   9 1477.45 38.9082  13
  -1   3   9 1526.76 38.8763   4
   1   3  -9 1507.03 38.8032   5
   1   3  -9 1439.68 39.7632  11
   1   3  -9 1503.67 39.1525   9
  -1  -3  -9 137.801 8.09266   2
   1  -3   9 146.186 6.90995   7
  -1  -3  -9 147.834 7.59852  11
   1  -3   9 152.156 7.39916   4
   1   3   9 146.995 6.71552   4
   1   3   9 146.595 6.92190  13
  -1   3  -9 151.405 7.39242   9
   3  -3   9 657.422 20.9447   4
   3  -3   9 668.011 20.9392   7
  -3  -3  -9 684.767 24.0791   2
  -3  -3  -9 647.430 20.7870  11
  -3   3  -9 662.714 21.3250   9
   3   3   9 647.117 20.3021   4
   3   3   9 656.936 20.5590  13
  10  -4  -9 154.115 7.97683   5
 -10  -4   9 160.486 7.57844   7
  10  -4  -9 154.033 7.46176  12
 -10   4   9 171.050 10.7286  14
  10   4  -9 160.078 7.77768   5
  10   4  -9 159.530 7.60871  12
  -8  -4   9 363.207 12.4905   7
   8  -4  -9 361.345 13.0835   5
   8  -4  -9 354.171 12.2042  12
  -8   4   9 365.386 15.5349  14
   8   4  -9 345.953 12.1840  12
  -8   4   9 366.317 12.8205   8
   8   4  -9 345.422 12.8172   5
   6  -4  -9 440.413 14.9906   5
   6  -4  -9 442.483 14.6239  11
  -6  -4   9 443.963 14.3037   7
  -6  -4   9 465.070 14.5301   4
   6   4  -9 447.541 13.7180  12
  -6   4   9 452.198 14.0770   4
   6   4  -9 441.962 14.8970   5
  -6   4   9 438.840 16.2209  14
  -6   4   9 443.558 14.4857   8
   4  -4  -9 247.274 9.70131   5
   4  -4  -9 233.380 11.3286  15
  -4  -4   9 262.899 9.28227   7
   4  -4  -9 246.744 9.95785  11
  -4  -4   9 241.065 9.75539  10
  -4  -4   9 243.555 9.16589   4
   4   4  -9 254.126 9.61044   5
  -4   4   9 237.727 9.12682  13
  -4   4   9 251.267 9.44361   8
  -4   4   9 251.044 8.92925   4
   2  -4  -9 423.703 14.6373  11
   2  -4  -9 410.513 13.7261   5
   2  -4  -9 422.171 14.5981   2
  -2  -4   9 414.607 13.6640   4
  -2  -4   9 419.544 13.7029   7
   2   4  -9 406.418 13.1253   9
  -2   4   9 409.121 13.4775  13
   2   4  -9 430.678 13.6340   5
  -2   4   9 426.554 13.1637   4
   0  -4   9 169.976 7.63462   4
   0  -4   9 178.224 7.75970   7
   0  -4  -9 187.683 9.36097   2
   0  -4  -9 168.272 8.48337  11
   0   4   9 180.566 7.77972  13
   0   4   9 176.445 7.24367   4
   0   4  -9 174.891 7.69293   9
   2  -4   9 108.016 6.44640   7
   2  -4   9 111.152 6.61086   4
  -2  -4  -9 111.882 7.90569   2
  -2  -4  -9 104.177 6.39916  11
   2   4   9 106.449 5.64938   4
   2   4   9 102.347 5.84489  13
  -2   4  -9 106.238 6.40006   9
   4  -4   9 96.2867 6.23214   4
   4  -4   9 95.3979 6.47712   7
  -4  -4  -9 102.882 8.31858   2
  -4   4  -9 97.9284 6.66321   9
   4   4   9 101.388 6.48556  13
 -11  -5   9 281.446 14.2942  14
  11  -5  -9 280.997 11.0795  12
 -11  -5   9 280.925 11.2434   7
 -11   5   9 309.221 15.9143  14
  11   5  -9 299.683 11.7433  12
   9  -5  -9 406.251 14.8556   5
   9  -5  -9 402.168 14.1334  12
  -9  -5   9 406.907 14.3461   7
   9   5  -9 421.707 14.8966   5
  -9   5   9 447.034 18.4012  14
   9   5  -9 426.792 14.3562  12
  -9   5   9 425.410 15.1222   8
   7  -5  -9 666.828 20.6804  11
  -7  -5   9 703.033 20.5193   4
   7  -5  -9 698.754 21.4740   5
  -7  -5   9 692.926 20.8090   7
  -7   5   9 679.905 23.2329  14
   7   5  -9 677.413 20.1284  12
   7   5  -9 706.430 21.4642   5
  -7   5   9 695.878 21.2300   8
  -5  -5   9 536.688 16.6173   7
  -5  -5   9 506.366 17.2091  10
   5  -5  -9 547.202 17.2441  11
  -5  -5   9 551.916 16.6204   4
   5  -5  -9 501.673 16.8450   5
  -5   5   9 525.211 16.9858   8
  -5   5   9 549.946 16.1257   4
   5   5  -9 541.955 17.0883   5
   5   5  -9 517.483 15.4438  12
  -3  -5   9 572.708 19.4882  10
   3  -5  -9 586.308 18.3916   5
   3  -5  -9 621.638 19.3142  11
   3  -5  -9 601.331 18.6850   2
  -3  -5   9 602.097 18.4045   7
  -3  -5   9 595.031 18.1368   4
  -3   5   9 623.160 18.9756   8
   3   5  -9 577.116 18.2148   5
  -3   5   9 599.107 17.4979   4
  -3   5   9 608.878 18.2170  13
   1  -5  -9 229.602 9.02894   5
   1  -5  -9 231.008 10.4017   2
  -1  -5   9 244.634 9.40065   4
  -1  -5   9 245.272 9.75669   7
   1  -5  -9 235.821 10.2954  11
  -1   5   9 243.284 9.24056  13
   1   5  -9 237.930 9.01367   9
   1   5  -9 237.636 9.07610   5
  -1   5   9 225.944 8.43398   4
   1  -5   9 335.719 12.3973   4
   1  -5   9 325.157 12.3733   7
  -1  -5  -9 323.572 13.9987   2
  -1  -5  -9 327.553 12.8993  11
  -1   5  -9 320.746 12.1480   9
   1   5   9 334.364 12.1307  13
   3  -5   9 149.682 7.97929   7
   3  -5   9 141.132 7.86474   4
  -3  -5  -9 130.426 9.21924   2
  -3   5  -9 128.625 7.47266   9
   3   5   9 147.609 7.57666  13
  10  -6  -9 250.790 10.2203  12
 -10  -6   9 258.579 10.7660   7
  10  -6  -9 253.075 10.5570   5
 -10   6   9 250.163 11.1550   8
  10   6  -9 235.590 10.2124   5
 -10   6   9 258.943 13.7014  14
  10   6  -9 236.545 10.1881  12
   8  -6  -9 175.159 8.33070   5
  -8  -6   9 187.233 8.57962   7
   8  -6  -9 169.411 8.58180  11
   8   6  -9 181.359 7.83734  12
  -8   6   9 180.683 8.73425   8
  -8   6   9 178.517 10.1110  14
   8   6  -9 169.374 8.23407   5
   6  -6  -9 172.693 8.08435  11
  -6  -6   9 176.194 7.42472   4
   6  -6  -9 169.785 7.91295   5
  -6  -6   9 166.754 8.39733  10
  -6  -6   9 169.100 7.97526   7
   6   6  -9 185.159 7.18163  12
  -6   6   9 175.496 8.15770   8
   6   6  -9 172.513 8.13003   5
  -4  -6   9 378.426 12.7860   4
   4  -6  -9 362.137 13.2232   5
   4  -6  -9 374.693 13.5504  11
  -4  -6   9 383.364 14.4772  10
  -4  -6   9 381.399 13.1380   7
  -4   6   9 392.479 13.9396   8
   4   6  -9 392.617 13.3777   5
  -2  -6   9 99.6255 7.00645  10
   2  -6  -9 97.2590 6.12779   2
  -2  -6   9 108.253 5.72653   4
   2  -6  -9 96.4424 6.34179  11
   2  -6  -9 91.9329 5.47902   5
  -2  -6   9 95.1447 5.55308   7
   2   6  -9 94.5752 5.32489   5
   2   6  -9 102.118 5.30365   6
  -2   6   9 90.5289 5.17189  13
   0  -6  -9 131.845 7.39817  11
   0  -6   9 145.792 7.17028   4
   0  -6  -9 134.738 8.20476   2
   0  -6   9 141.550 7.45193   7
   0   6  -9 142.190 6.80835   9
   0   6   9 132.371 6.63005  13
  -2  -6  -9 111.188 8.19811   2
  -2  -6  -9 99.9887 6.34254  11
   2  -6   9 117.117 6.89352   7
   2  -6   9 104.140 6.61515   4
  -2   6  -9 109.465 6.49303   9
   2   6   9 112.663 6.26850  13
   9  -7  -9 23.1723 3.68136   5
  -9  -7   9 24.0736 3.56881   7
   9  -7  -9 32.6106 3.43612  12
   9   7  -9 29.4281 3.80467   5
  -9   7   9 25.1241 4.07374   8
   9   7  -9 25.1721 3.31805  12
  -9   7   9 39.6426 5.74858  14
  -7  -7   9 579.134 18.2440   7
   7  -7  -9 537.038 17.9645  11
   7  -7  -9 541.706 18.3184   5
  -7  -7   9 542.902 19.1000  10
   7   7  -9 587.189 18.7235   5
  -7   7   9 580.335 18.9855   8
   7   7  -9 544.798 17.1203  12
  -5  -7   9 36.7710 3.87617   7
   5  -7  -9 36.9811 4.25617  11
   5  -7  -9 41.7188 4.37230   5
  -5  -7   9 38.9857 4.23115  10
  -5   7   9 37.6625 4.27522   8
   5   7  -9 43.6212 3.84094   5
   3  -7  -9 898.346 27.3840  11
  -3  -7   9 890.638 25.8823   4
  -3  -7   9 912.044 26.7434   7
  -3  -7   9 892.791 28.7159  10
   3  -7  -9 899.638 26.9902   2
   3  -7  -9 893.734 26.4874   5
  -3   7   9 930.807 27.7554   8
   3   7  -9 950.668 26.6498   6
   3   7  -9 912.463 26.6677   5
  -3   7   9 951.356 26.4913  13
  -1  -7   9 170.558 8.28748   7
  -1  -7   9 179.039 7.76871   4
   1  -7  -9 149.893 8.17297  11
  -1  -7   9 164.414 9.90499  10
   1  -7  -9 176.667 9.13310   2
   1   7  -9 161.057 7.22196   6
  -1   7   9 169.131 7.78102  13
  -1  -7  -9 772.811 25.2900  11
  -1  -7  -9 832.916 27.2093   2
   1  -7   9 812.583 25.1438   7
   1  -7   9 830.283 24.5321   4
  -1   7  -9 817.940 24.4613   9
   1   7   9 807.354 24.1717  13
  -8  -8   9 44.8631 4.84925   7
  -8  -8   9 43.9989 5.61523  10
   8  -8  -9 54.3789 4.64063  11
   8  -8  -9 49.2876 4.44939   5
  -8   8   9 41.8604 4.86790   8
   8   8  -9 44.6378 4.54094   5
   8   8  -9 47.3807 4.03682  12
  -6  -8   9 47.4825 4.52523   7
   6  -8  -9 49.7160 5.03410  11
   6  -8  -9 46.1571 4.27323   5
   6   8  -9 49.6664 3.71862  12
  -6   8   9 49.3941 4.67508   8
   6   8  -9 54.1092 4.74669   5
  -4  -8   9 250.069 11.9315  10
   4  -8  -9 218.006 9.83457   5
   4  -8  -9 229.277 10.3364  11
  -4  -8   9 248.040 10.1586   7
  -4   8   9 244.424 10.9857   8
   4   8  -9 244.625 10.1732   5
   4   8  -9 234.244 9.93292   6
   2  -8  -9 47.3053 4.22425   5
  -2  -8   9 41.5976 5.49824  10
   2  -8  -9 41.4370 4.75484  11
  -2  -8   9 45.5912 4.79908   7
   2  -8  -9 43.0972 4.60562   2
  -2   8   9 42.7147 3.77010  13
  -2   8   9 36.7731 4.54030   8
   2   8  -9 39.7167 3.61868   6
   0  -8  -9 156.165 8.71580  11
   0  -8   9 163.264 10.5069  10
   0  -8  -9 179.193 9.83206   2
   0  -8   9 171.960 8.43495   7
   0   8   9 162.386 7.89142  13
  -7  -9   9 320.014 14.4894  10
   7  -9  -9 324.452 12.9971   5
  -7  -9   9 320.763 12.5553   7
   7  -9  -9 336.505 13.0415  11
  -7   9   9 345.663 13.7929   8
   7   9  -9 330.847 11.7851  12
   5  -9  -9 517.437 17.7746   5
   5  -9  -9 509.837 18.1264  11
  -5  -9   9 536.871 17.7003   7
  -5  -9   9 514.681 19.6178  10
   5   9  -9 560.838 18.2033   6
  -5   9   9 544.725 19.0550   8
  -3  -9   9 183.204 9.06643   7
  -3  -9   9 171.273 10.1446  10
   3  -9  -9 180.327 8.70384   5
   3  -9  -9 200.408 9.78045  11
  -3   9   9 198.484 10.0497   8
   3   9  -9 194.987 8.82990   6
  -1  -9   9 256.264 13.5297  10
   1  -9  -9 264.685 12.2105   2
   1  -9  -9 261.937 11.8225  11
  -1  -9   9 273.164 11.6447   7
  -1   9   9 284.781 10.9025  13
  -1   9   9 279.012 12.5417   8
   1   9  -9 267.570 10.6483   6
   6 -10  -9 2.69582 2.43759  11
  -6 -10   9 2.71106 2.00303   7
   6 -10  -9 3.50724 2.36984   5
  -6 -10   9 -1.0315 2.71941  10
   6  10  -9 9.43328 2.44485   6
  -6  10   9 -0.1523 2.33300   8
  -4 -10   9 52.2392 6.64706  10
   4 -10  -9 47.8668 5.43340  11
  -4 -10   9 63.1329 5.50460   7
   4 -10  -9 51.5834 5.07888   5
   4  10  -9 42.3282 4.58807   6
  -4  10   9 54.3188 5.79130   8
  -2 -10   9 6.56964 3.05618  10
   2 -10  -9 1.95382 2.17376   5
   2 -10  -9 6.42565 2.35907  11
  -2 -10   9 5.73259 2.65038   7
   2 -10  -9 7.71837 2.45333   2
  -2  10   9 3.57245 2.99043   8
   2  10  -9 2.45070 2.06428   6
 -12   0  10 70.9266 7.90194  14
  12   0 -10 59.3472 4.88380  12
  12   0 -10 55.6803 5.44952   1
  10   0 -10 1316.16 37.3319   1
 -10   0  10 1345.57 41.5521  14
  10   0 -10 1280.57 37.1163  16
  10   0 -10 1349.85 37.4059   5
  10   0 -10 1315.63 36.6821  12
   8   0 -10 177.787 7.68842  12
   8   0 -10 165.999 7.59200  16
   8   0 -10 182.045 8.55141   5
  -8   0  10 183.778 8.10456   4
  -8   0  10 177.164 7.11149   7
   6   0 -10 1276.49 36.3278  12
   6   0 -10 1380.42 37.6561  11
  -6   0  10 1563.00 37.8098   4
   6   0 -10 1315.45 38.0191   5
  -4   0  10 69.4940 4.27442   4
  -4   0  10 62.0921 3.87270  13
  -4   0  10 50.0757 3.31011   7
   4   0 -10 57.1212 4.20203  11
   4   0 -10 60.8746 4.39217   5
  -2   0  10 694.300 20.6028   4
  -2   0  10 694.594 20.0741  13
   2   0 -10 701.521 20.5522   5
  -2   0  10 693.934 19.6101   7
   2   0 -10 691.803 21.6411  11
   0   0  10 32.2520 3.63430   4
   0   0  10 23.9563 2.70906   7
   0   0 -10 31.9230 3.94120  11
   0   0  10 29.9267 3.09483  13
   2   0  10 609.457 19.4680   4
  -2   0 -10 567.687 19.3597  11
  -2   0 -10 604.514 20.1246   9
   2   0  10 602.075 18.7159  13
  11  -1 -10 84.4589 5.84284  12
  11  -1 -10 89.1451 6.38060   1
 -11  -1  10 86.2199 8.29005  14
  11  -1 -10 83.4508 5.84912   5
  11   1 -10 84.4034 5.78771   1
  11   1 -10 82.1624 5.81767  12
 -11   1  10 87.1941 8.41544  14
  11   1 -10 88.6154 5.74910   5
   9  -1 -10 87.9748 5.46500  16
  -9  -1  10 81.5123 4.71552   7
   9  -1 -10 91.1038 5.71373   5
   9  -1 -10 72.6242 5.15102  12
  -9   1  10 87.6057 7.23853  14
   9   1 -10 80.1954 5.66753   5
   9   1 -10 78.1672 5.03708   1
   9   1 -10 88.0895 5.41147  12
   7  -1 -10 1.71736 1.40912  11
   7  -1 -10 0.32623 0.98127  12
   7  -1 -10 2.37230 1.96631   5
  -7  -1  10 2.52468 1.77618   4
  -7  -1  10 3.46639 1.69704   7
   7   1 -10 8.23372 1.90673  12
  -7   1  10 3.89021 1.90293   4
   7   1 -10 3.98810 1.51239  11
   7   1 -10 2.15934 1.36353   5
   5  -1 -10 214.114 9.18439   5
  -5  -1  10 218.033 8.01328   7
   5  -1 -10 216.536 7.89649  12
  -5  -1  10 210.774 8.54627   4
   5  -1 -10 228.024 9.18623  11
   5   1 -10 230.368 9.29549   5
  -5   1  10 227.460 8.85203   4
   5   1 -10 220.227 9.04980  11
   3  -1 -10 9.38044 2.35330  11
  -3  -1  10 13.3139 2.45911   4
   3  -1 -10 12.8557 2.32861   5
  -3  -1  10 12.0653 2.02590   7
  -3  -1  10 13.2569 2.01683  13
  -3   1  10 13.5916 2.36560   4
  -3   1  10 12.0421 2.15021  13
   3   1 -10 10.6500 2.41583  11
   3   1 -10 11.3526 2.24824   5
  -1  -1  10 27.3423 3.21416   4
  -1  -1  10 27.1534 2.82850  13
  -1  -1  10 29.4685 2.94024   7
   1  -1 -10 26.3522 3.57667  11
  -1   1  10 35.2029 3.19056   4
   1   1 -10 25.9726 3.33055  11
  -1   1  10 28.5297 3.12349  13
   1  -1  10 95.1263 6.03034   4
   1  -1  10 88.1475 5.36191   7
  -1  -1 -10 95.2741 6.23496  11
   1  -1  10 95.3204 5.12397  13
   1   1  10 102.526 5.74424  13
  -1   1 -10 98.6973 6.03452  11
  -1   1 -10 93.6325 6.15579   9
   1   1  10 99.0928 5.66030   4
  -3  -1 -10 0.49881 2.11510   9
   3  -1  10 0.95994 1.70994  13
   3  -1  10 0.67250 1.65499   7
   3  -1  10 0.66648 1.45159   4
   3   1  10 0.17663 1.36622  13
  -3   1 -10 -0.8968 1.83486   9
   3   1  10 0.83240 1.48351   4
  10  -2 -10 23.4433 3.23979  16
  10  -2 -10 24.7419 3.60767   5
 -10  -2  10 23.1585 2.91299   7
  10  -2 -10 27.9104 3.76006  12
 -10  -2  10 24.4282 4.47660  14
  10   2 -10 22.5666 3.02905  12
 -10   2  10 24.6310 5.15001  14
  10   2 -10 21.3351 3.09448   5
   8  -2 -10 641.978 19.3315  12
  -8  -2  10 622.258 18.9030   7
  -8  -2  10 635.894 19.6279   4
   8  -2 -10 641.638 20.3175   5
   8   2 -10 620.392 19.1562  12
   8   2 -10 657.650 20.5717   5
  -8   2  10 637.967 22.8740  14
   6  -2 -10 94.1928 5.64341   5
   6  -2 -10 87.6702 4.79309  12
  -6  -2  10 95.1972 5.05338   7
   6  -2 -10 92.3500 5.52625  11
  -6  -2  10 91.5537 5.37648   4
  -6   2  10 86.2130 4.98922   4
   6   2 -10 95.0943 5.29264  11
   6   2 -10 88.7991 4.58594  12
   6   2 -10 98.8660 5.67526   5
   4  -2 -10 1513.04 41.7720   5
   4  -2 -10 1617.60 42.6256  11
  -4  -2  10 1517.62 40.5614   7
  -4  -2  10 1514.07 41.2544   4
  -4   2  10 1540.52 40.9826  13
  -4   2  10 1533.12 41.0340   4
   4   2 -10 1573.23 42.0488  11
   4   2 -10 1544.59 41.7542   5
  -2  -2  10 265.574 10.2434   4
   2  -2 -10 272.786 11.0447  11
  -2  -2  10 254.348 9.07892  13
   2  -2 -10 258.572 9.93995   5
   2  -2 -10 279.201 11.1675   2
  -2  -2  10 266.752 9.68503   7
   2   2 -10 269.480 10.6843  11
  -2   2  10 272.618 10.0078   4
   2   2 -10 278.439 10.0535   9
  -2   2  10 271.212 9.90263  13
   2   2 -10 286.223 10.0673   5
   0  -2  10 1167.73 33.4972   4
   0  -2  10 1177.12 32.9688   7
   0  -2 -10 1180.69 34.5813  11
   0   2  10 1227.80 33.3043  13
   0   2  10 1236.89 33.3932   4
   0   2 -10 1235.09 34.2108   9
   0   2 -10 1176.85 34.2812  11
   2  -2  10 105.686 5.93767   7
   2  -2  10 107.171 6.39735   4
  -2  -2 -10 104.834 6.58418  11
   2  -2  10 107.503 5.50550  13
   2   2  10 104.749 6.21344  13
  -2   2 -10 103.922 6.79431   9
   2   2  10 103.507 6.20446   4
  11  -3 -10 5.26707 2.53485  12
  11  -3 -10 6.93409 2.02779   5
 -11  -3  10 6.08710 3.42508  14
 -11  -3  10 5.43103 2.34330   7
  11   3 -10 6.50027 2.53683  12
  11   3 -10 5.73469 2.32299   5
 -11   3  10 6.15365 2.95947  14
  -9  -3  10 3.42770 2.11198   7
   9  -3 -10 6.51632 2.24817  12
   9  -3 -10 4.92487 2.38566   5
   9   3 -10 7.09017 2.01220   5
  -9   3  10 4.77609 2.97852  14
   9   3 -10 6.79375 1.81781  12
  -7  -3  10 12.3912 2.44747   7
   7  -3 -10 10.1571 2.22442  11
   7  -3 -10 15.0163 2.46814  12
  -7  -3  10 13.9940 2.72615   4
   7  -3 -10 14.1707 2.59390   5
   7   3 -10 14.9066 2.31280  12
  -7   3  10 13.6709 2.98494  14
   7   3 -10 14.3248 2.48070   5
  -7   3  10 13.8120 2.50384   4
   5  -3 -10 84.3721 4.51819  12
  -5  -3  10 89.0501 5.06467   4
   5  -3 -10 94.1610 5.79829  11
  -5  -3  10 86.4968 4.76913   7
   5  -3 -10 89.6314 5.73033   5
  -5   3  10 87.1985 5.04509   4
   5   3 -10 88.8268 5.10746  11
   5   3 -10 84.3378 5.44944   5
  -3  -3  10 6.02566 1.64212   7
   3  -3 -10 -0.7377 1.53441  11
   3  -3 -10 10.7464 2.35924   5
  -3  -3  10 0.92426 1.64754   4
   3  -3 -10 0.19812 1.26132   2
  -3   3  10 -0.4264 1.34801  13
  -3   3  10 0.03043 1.21549   8
   3   3 -10 0.00813 1.50623  11
  -3   3  10 2.18551 1.18663   4
   3   3 -10 2.78685 1.29582   5
  -1  -3  10 6.15047 1.75206   7
   1  -3 -10 6.82832 1.99360   2
  -1  -3  10 9.96192 2.15518   4
   1  -3 -10 6.07348 2.35951  11
  -1   3  10 11.4353 2.07217  13
   1   3 -10 7.46805 2.30229  11
  -1   3  10 8.91483 2.11805   4
   1   3 -10 7.86410 2.15494   9
   1   3 -10 6.35112 1.48790   5
  -1  -3 -10 50.4485 5.49543   2
  -1  -3 -10 42.9866 4.16862  11
   1  -3  10 45.4100 4.61542   4
   1  -3  10 49.2495 4.03175   7
  -1   3 -10 50.5279 4.57619   9
   1   3  10 39.6294 4.13016  13
   1   3  10 49.9924 4.24698   4
   3  -3  10 5.81147 2.27777   7
   3  -3  10 0.48879 2.11761   4
  -3   3 -10 3.15791 2.31460   9
   3   3  10 13.5915 3.04397  13
   3   3  10 1.21142 1.37795   4
  10  -4 -10 96.0362 6.44888   5
  10  -4 -10 93.3187 5.92340  12
 -10  -4  10 108.111 6.04588   7
 -10   4  10 103.097 8.31978  14
  10   4 -10 94.1169 5.97324  12
  10   4 -10 103.132 6.55190   5
   8  -4 -10 1441.40 39.4676  12
  -8  -4  10 1461.74 39.8040   7
  -8  -4  10 1525.87 40.1500   4
   8  -4 -10 1430.10 40.5575   5
   8   4 -10 1490.45 40.8891   5
   8   4 -10 1454.60 39.4710  12
  -8   4  10 1453.14 43.4639  14
   6  -4 -10 36.4155 4.05347   5
   6  -4 -10 31.3782 3.72982  11
   6  -4 -10 39.5678 3.61555  12
  -6  -4  10 37.6301 3.74231   4
  -6  -4  10 38.7939 3.80841   7
  -6   4  10 31.4668 3.35046   8
   6   4 -10 33.4947 2.91260  12
   6   4 -10 35.5251 3.80235   5
  -6   4  10 37.7563 3.22312   4
  -6   4  10 38.9619 4.35820  14
   4  -4 -10 1233.53 34.3986  11
  -4  -4  10 1197.98 33.2693   4
   4  -4 -10 1162.43 33.5311   5
  -4  -4  10 1220.85 33.1514   7
  -4   4  10 1174.50 33.0785  13
   4   4 -10 1237.71 33.8335   5
  -4   4  10 1201.27 33.4155   8
  -4   4  10 1205.91 32.7652   4
   2  -4 -10 3.77625 1.78931   2
  -2  -4  10 4.58776 1.92064   7
  -2  -4  10 3.08913 1.51674   4
   2  -4 -10 4.92994 1.79061   5
  -2  -4  10 4.05860 1.92582  10
   2  -4 -10 7.46641 2.55552  11
  -2   4  10 10.1367 1.88364   4
  -2   4  10 3.63272 1.82889  13
   2   4 -10 4.03574 1.56970   9
   2   4 -10 12.2958 2.11521   5
   0  -4 -10 777.864 25.3476   2
   0  -4  10 790.095 23.3863   7
   0  -4  10 787.786 23.5001   4
   0  -4 -10 746.763 24.2636  11
   0   4  10 776.378 23.0221  13
   0   4  10 752.137 22.3530   4
   0   4 -10 780.995 23.3893   9
   2  -4  10 13.4604 2.99010   4
   2  -4  10 14.8264 3.12480   7
  -2  -4 -10 13.1377 3.23729   2
  -2  -4 -10 17.2063 3.06655  11
   2   4  10 11.5217 2.43669  13
  -2   4 -10 14.4504 2.96696   9
  -9  -5  10 93.5327 6.21123   7
   9  -5 -10 106.095 6.69770   5
   9  -5 -10 104.274 6.09289  12
   9   5 -10 105.410 6.61872   5
   9   5 -10 102.724 5.72970  12
  -9   5  10 112.188 8.53318  14
  -7  -5  10 335.284 12.0844   4
  -7  -5  10 343.131 12.2424   7
   7  -5 -10 345.776 12.8449   5
   7  -5 -10 314.179 11.3139  12
   7  -5 -10 335.484 12.2723  11
   7   5 -10 311.430 11.2226  12
   7   5 -10 335.767 12.7876   5
  -7   5  10 332.416 12.2965   8
  -7   5  10 327.872 13.9774  14
  -5  -5  10 105.621 6.04124   7
   5  -5 -10 97.6637 5.94611  11
   5  -5 -10 101.081 5.91764   5
  -5  -5  10 113.173 6.11897   4
  -5   5  10 108.557 5.45105   4
  -5   5  10 98.8629 5.89275   8
   5   5 -10 100.256 6.07656   5
  -3  -5  10 335.452 12.0507   7
  -3  -5  10 324.845 11.8464   4
   3  -5 -10 324.651 12.6228  11
  -3  -5  10 318.050 12.9506  10
   3  -5 -10 303.551 11.7265   5
  -3   5  10 325.677 11.1392   4
  -3   5  10 328.880 12.3658   8
   3   5 -10 341.018 12.1106   5
  -3   5  10 346.480 11.8640  13
   1  -5 -10 205.396 9.92359   2
   1  -5 -10 197.109 9.81884  11
  -1  -5  10 224.214 9.43333   7
  -1  -5  10 225.326 9.36299   4
  -1   5  10 212.831 8.90441  13
   1   5 -10 206.084 8.67735   9
   1   5 -10 214.995 8.69322   5
  -1  -5 -10 70.7313 6.05850   2
   1  -5  10 71.4776 5.47329   4
   1  -5  10 73.0584 5.52691   7
  -1  -5 -10 75.9520 5.74775  11
  -1   5 -10 73.0156 5.34784   9
   1   5  10 71.2116 5.40310  13
  10  -6 -10 479.769 16.0221  12
  10  -6 -10 470.076 16.7463   5
 -10  -6  10 491.872 16.6398   7
  10   6 -10 481.537 16.9867   5
  10   6 -10 473.919 16.1644  12
 -10   6  10 498.789 20.5182  14
   8  -6 -10 11.7897 2.52373   5
   8  -6 -10 9.40831 2.39358  12
  -8  -6  10 12.1253 2.53636   7
   8  -6 -10 8.18548 2.13528  11
   8   6 -10 6.47125 2.02959  12
  -8   6  10 8.07117 2.50816   8
   8   6 -10 8.35273 2.20960   5
  -6  -6  10 942.189 26.7017   4
  -6  -6  10 941.183 27.0707   7
   6  -6 -10 923.156 27.4289  11
   6  -6 -10 909.349 27.3761   5
   6   6 -10 907.193 27.5431   5
  -6   6  10 942.831 27.6686   8
  -4  -6  10 83.4566 6.04597  10
   4  -6 -10 64.9643 5.40801  11
  -4  -6  10 73.2411 5.27354   7
   4  -6 -10 72.4889 5.26720   5
  -4  -6  10 77.5101 4.82359   4
   4   6 -10 76.8700 5.27043   5
  -4   6  10 68.7390 5.33128   8
   2  -6 -10 1141.33 33.7511   5
   2  -6 -10 1199.88 35.3821  11
   2  -6 -10 1231.43 35.4043   2
  -2  -6  10 1210.28 34.0174   4
  -2  -6  10 1251.64 34.6387   7
  -2  -6  10 1159.40 36.5180  10
  -2   6  10 1297.61 35.2629   8
  -2   6  10 1255.48 34.1450  13
   2   6 -10 1243.79 34.2786   5
   0  -6  10 76.2652 5.81637   7
   0  -6  10 73.6353 5.59384   4
   0  -6 -10 79.7986 5.84447  11
   0  -6 -10 82.3699 6.62048   2
   0   6  10 80.8934 5.63275  13
   0   6 -10 81.8945 5.31391   9
   2  -6  10 707.432 22.0561   4
  -2  -6 -10 647.325 24.1344   2
   2  -6  10 675.127 22.1733   7
  -2   6 -10 678.060 21.8499   9
   2   6  10 707.286 21.7750  13
   9  -7 -10 1.59779 1.70976   5
   9  -7 -10 0.39102 1.40450  12
  -9  -7  10 2.06735 2.54640   7
   9   7 -10 6.62814 2.44959   5
   9   7 -10 1.87961 1.80255  12
  -9   7  10 3.30838 2.22732   8
   7  -7 -10 15.0903 2.92439  11
  -7  -7  10 18.2795 3.01671   7
   7  -7 -10 16.0958 2.92960   5
  -7   7  10 17.4313 3.29034   8
   7   7 -10 20.0798 2.79912  12
   7   7 -10 20.7611 3.55170   5
  -5  -7  10 12.3226 2.53997   7
  -5  -7  10 13.5658 2.18415   4
  -5  -7  10 10.3220 3.00269  10
   5  -7 -10 14.1245 2.94254   5
   5  -7 -10 10.6599 2.86034  11
  -5   7  10 12.9052 2.98292   8
   5   7 -10 16.5141 3.01830   5
  -3  -7  10 3.11207 2.39459  10
   3  -7 -10 5.05465 2.12909   5
  -3  -7  10 10.1565 2.86536   7
   3  -7 -10 8.75759 2.89247  11
  -3  -7  10 6.66103 2.14773   4
  -3   7  10 10.0742 2.50706  13
   3   7 -10 10.0268 2.41288   5
   3   7 -10 6.07928 1.98987   6
  -3   7  10 9.79074 2.92484   8
  -1  -7  10 -1.4957 1.61358   4
  -1  -7  10 2.28025 1.91277  10
  -1  -7  10 -1.7051 2.09722   7
   1  -7 -10 0.79099 1.90762  11
   1  -7 -10 1.71199 2.15364   2
  -1   7  10 -0.5338 1.74709  13
  -1  -7 -10 0.06026 2.52130   2
   1  -7  10 0.71342 2.45686   7
   1  -7  10 2.84691 1.62803   4
  -1  -7 -10 7.59648 2.34306  11
  -1   7 -10 1.66371 1.77919   9
   1   7  10 1.43767 2.09660  13
   8  -8 -10 220.394 9.86297   5
  -8  -8  10 229.766 10.1872   7
   8  -8 -10 210.146 9.36458  11
   8   8 -10 214.681 10.1077   5
   8   8 -10 202.390 8.78696  12
  -8   8  10 223.834 10.5031   8
   6  -8 -10 491.458 16.8793  11
  -6  -8  10 499.625 16.8074   7
  -6  -8  10 463.433 17.7884  10
   6  -8 -10 470.796 16.6059   5
   6   8 -10 477.708 16.9202   5
  -6   8  10 477.168 17.2969   8
   4  -8 -10 110.855 6.86768  11
  -4  -8  10 124.427 8.33874  10
  -4  -8  10 121.071 6.87914   7
   4  -8 -10 123.818 6.95212   5
  -4   8  10 119.868 7.59523   8
   4   8 -10 125.271 6.96479   6
  -2  -8  10 368.512 16.0299  10
   2  -8 -10 335.647 13.8734   2
  -2  -8  10 350.691 13.4722   7
   2  -8 -10 357.473 14.0679  11
  -2   8  10 376.030 14.7560   8
   2   8 -10 348.449 12.8554   6
  -2   8  10 376.324 13.3834  13
   0  -8 -10 61.4032 5.51161  11
   0  -8 -10 61.3816 5.98713   2
   0  -8  10 52.5395 5.37898   7
   0  -8  10 70.6302 6.98121  10
   0   8  10 60.0357 4.98053  13
   5  -9 -10 10.8413 2.38254   5
  -5  -9  10 6.29343 2.75765   7
  -5  -9  10 10.5977 3.02269  10
   5  -9 -10 7.52617 2.29068  11
  -5   9  10 8.82463 3.12833   8
   5   9 -10 5.51644 2.44016   6
   3  -9 -10 1.96225 1.96170   5
  -3  -9  10 0.55031 2.44308  10
  -3  -9  10 3.00889 2.57144   7
   3  -9 -10 0.46557 2.34949  11
   3   9 -10 1.64784 1.88437   6
  -3   9  10 0.29627 2.37325   8
  10   0 -11 -0.7223 1.87421   5
  10   0 -11 -1.6544 1.80092  12
 -10   0  11 -3.1432 2.54244  14
   8   0 -11 0.04922 1.28758   5
   8   0 -11 2.53302 1.81014  12
  -8   0  11 -0.6803 1.72905   4
   6   0 -11 1.14973 1.19606  11
  -6   0  11 0.67544 1.84996   4
   6   0 -11 0.69406 1.27951   5
  -4   0  11 0.34790 1.33012  13
  -4   0  11 -1.2101 1.62632   4
   4   0 -11 0.63827 1.66627  11
   4   0 -11 -0.0323 1.39754   5
  -2   0  11 1.78687 1.37740   4
   2   0 -11 5.69769 1.77502   5
   2   0 -11 -1.3610 1.02784  11
  -2   0  11 0.94069 1.37609  13
   0   0 -11 7.37288 2.57364  11
   0   0  11 1.07568 1.17027  13
   0   0  11 1.28795 1.51925   4
  -2   0 -11 7.05923 2.26669  11
   2   0  11 0.38744 1.98649   4
  -2   0 -11 10.8157 2.91266   9
  11  -1 -11 78.4451 5.93627   1
  11  -1 -11 86.9272 5.59685  12
 -11  -1  11 79.7723 8.07930  14
 -11  -1  11 95.8906 6.77545   7
  11  -1 -11 80.7412 5.64638   5
  11   1 -11 82.4850 6.13449   5
  11   1 -11 83.2165 5.84252  12
 -11   1  11 86.0125 8.38713  14
   9  -1 -11 669.248 20.4661  12
  -9  -1  11 661.791 19.7166   7
   9  -1 -11 664.515 21.6502   5
  -9   1  11 657.009 24.5568  14
   9   1 -11 680.161 21.6528   5
   9   1 -11 652.411 20.4319  12
  -7  -1  11 165.059 7.06617   7
   7  -1 -11 170.836 7.73922  11
   7  -1 -11 171.493 8.58148   5
   7  -1 -11 168.198 7.32884  12
  -7  -1  11 161.800 7.80807   4
   7   1 -11 178.184 8.62625   5
  -7   1  11 172.095 7.94121   4
   7   1 -11 179.552 7.78505  11
   7   1 -11 165.023 7.05905  12
  -5  -1  11 592.601 17.7996   7
   5  -1 -11 607.067 19.5709   5
  -5  -1  11 595.594 18.8022   4
   5  -1 -11 625.353 19.7510  11
  -5   1  11 609.214 18.8961   4
   5   1 -11 626.120 19.7274  11
   5   1 -11 612.449 19.5453   5
  -3  -1  11 255.296 9.48007  13
   3  -1 -11 268.784 10.4951   5
  -3  -1  11 275.398 10.4011   4
  -3  -1  11 264.686 9.50114   7
   3  -1 -11 275.245 11.4318  11
  -3   1  11 275.712 10.4129   4
   3   1 -11 269.705 10.3665   5
  -3   1  11 272.714 9.85492  13
   3   1 -11 258.972 11.0841  11
   1  -1 -11 411.881 15.5641  11
  -1  -1  11 428.813 14.6378   4
  -1  -1  11 415.539 13.5802  13
  -1   1  11 407.620 13.7724  13
   1   1 -11 416.303 15.4083  11
   1   1 -11 401.755 14.6997   9
  -1   1  11 410.950 14.2744   4
   1  -1  11 272.978 11.2296   4
   1  -1  11 266.400 10.3360  13
  -1  -1 -11 268.363 11.8223  11
   1   1  11 263.626 10.6829  13
  -1   1 -11 267.153 11.6209  11
  -1   1 -11 266.671 11.5102   9
   1   1  11 282.892 11.2284   4
 -10  -2  11 189.456 8.36730   7
  10  -2 -11 190.815 8.75843  12
  10  -2 -11 191.859 9.44969   5
 -10  -2  11 188.529 11.7290  14
 -10   2  11 188.660 11.3694  14
  10   2 -11 196.722 9.45946   5
  10   2 -11 193.498 8.83780  12
   8  -2 -11 321.921 12.5706   5
  -8  -2  11 318.154 11.2374   7
  -8  -2  11 310.162 11.5810   4
   8  -2 -11 305.234 11.1597  12
  -8   2  11 321.882 11.6075   4
   8   2 -11 295.419 11.0297  12
   8   2 -11 314.151 12.4764   5
  -8   2  11 295.658 14.2779  14
  -6  -2  11 219.608 8.82658   7
   6  -2 -11 228.744 8.76321  12
   6  -2 -11 236.923 10.1099   5
   6  -2 -11 241.184 10.1167  11
  -6  -2  11 222.395 9.35751   4
   6   2 -11 252.165 10.4703   5
  -6   2  11 253.797 9.78052   4
   6   2 -11 241.343 9.71275  11
  -4  -2  11 233.560 9.35044   4
  -4  -2  11 214.261 8.55547   7
   4  -2 -11 222.847 10.0985  11
   4  -2 -11 227.000 9.67869   5
  -4   2  11 235.542 9.02574  13
   4   2 -11 226.976 9.89854  11
  -4   2  11 226.575 9.16912   4
   4   2 -11 233.656 9.61348   5
   2  -2 -11 217.676 10.2487  11
  -2  -2  11 215.757 8.51701   7
  -2  -2  11 221.013 9.37039   4
  -2   2  11 208.599 8.84788   4
  -2   2  11 213.803 8.82065  13
   2   2 -11 220.138 9.83533  11
   2   2 -11 232.260 9.43065   9
   2   2 -11 210.527 8.75755   5
   0  -2 -11 94.0043 6.67400  11
   0  -2  11 105.784 6.48749   4
   0  -2  11 97.3905 5.69909   7
   0   2  11 94.4841 5.85273  13
   0   2 -11 94.9079 6.30080   9
   0   2 -11 108.520 6.85389  11
   0   2  11 100.003 6.07036   4
   2  -2  11 103.067 6.81003   4
   2  -2  11 98.3103 6.04219   7
  -2  -2 -11 98.8884 6.48785  11
   2   2  11 97.7531 6.30793  13
   2   2  11 93.1978 5.87203   4
  -2   2 -11 99.0960 6.55943   9
  11  -3 -11 355.799 13.8713   5
  11  -3 -11 361.000 13.5697  12
 -11  -3  11 363.926 17.4100  14
  11   3 -11 381.652 14.3862   5
  11   3 -11 376.581 13.7033  12
 -11   3  11 379.156 17.8646  14
   9  -3 -11 101.904 6.64241   5
   9  -3 -11 99.5889 5.80981  12
  -9  -3  11 105.546 6.07751   7
   9   3 -11 101.969 5.73643  12
   9   3 -11 103.553 6.78667   5
  -9   3  11 114.225 8.22958  14
  -7  -3  11 830.130 24.1920   7
  -7  -3  11 843.744 24.9309   4
   7  -3 -11 840.633 25.1420  11
   7  -3 -11 828.711 24.0856  12
   7  -3 -11 868.776 25.7980   5
  -7   3  11 830.256 27.3769  14
   7   3 -11 811.832 23.8497  12
   7   3 -11 865.665 26.0029   5
  -7   3  11 846.722 24.5436   4
   5  -3 -11 148.208 7.65094   5
  -5  -3  11 132.728 6.40802   7
  -5  -3  11 152.006 7.10405   4
   5  -3 -11 144.558 7.55271  11
   5   3 -11 144.946 7.44261  11
   5   3 -11 134.532 7.32166   5
  -5   3  11 151.072 7.04426   4
   3  -3 -11 981.395 29.6094  11
  -3  -3  11 962.742 27.6817   7
   3  -3 -11 948.356 28.2859   5
  -3  -3  11 993.120 28.3900   4
   3   3 -11 1008.79 29.3533  11
  -3   3  11 984.233 27.9589  13
  -3   3  11 998.698 27.9453   4
   1  -3 -11 67.2293 5.71956  11
  -1  -3  11 72.3728 4.93610   7
  -1  -3  11 74.4241 5.41306   4
   1   3 -11 71.5412 5.20450   9
  -1   3  11 72.0573 5.08237  13
  -1   3  11 63.7852 4.75556   4
  -1  -3 -11 573.613 19.8690  11
   1  -3  11 542.070 18.2893   7
   1  -3  11 585.791 19.1297   4
   1   3  11 589.738 18.7758  13
  -1   3 -11 560.889 19.1337   9
   1   3  11 562.036 18.2428   4
  10  -4 -11 13.2497 3.00131   5
  10  -4 -11 9.73929 2.33407  12
 -10  -4  11 8.19651 2.60127   7
 -10   4  11 12.6036 3.86712  14
  10   4 -11 10.8025 2.47836   5
  10   4 -11 7.32098 2.34097  12
   8  -4 -11 91.5471 5.55944  12
  -8  -4  11 103.548 6.21632   4
   8  -4 -11 94.4157 5.77880  11
  -8  -4  11 99.0921 6.05773   7
   8  -4 -11 102.641 6.68382   5
   8   4 -11 97.2280 6.54635   5
   8   4 -11 89.5069 5.39263  12
  -8   4  11 99.9971 7.73344  14
   6  -4 -11 60.5277 4.08333  12
  -6  -4  11 57.3857 4.70178   4
   6  -4 -11 49.6764 4.40412   5
   6  -4 -11 51.5624 4.66456  11
  -6  -4  11 51.1435 4.44011   7
   6   4 -11 59.1896 4.67349   5
  -6   4  11 58.7454 4.39232   4
   4  -4 -11 90.2268 5.71545   5
  -4  -4  11 99.6550 5.97715   4
  -4  -4  11 84.5998 5.51693   7
   4  -4 -11 96.7615 6.39862  11
  -4   4  11 99.5340 5.55811   4
   4   4 -11 97.3496 6.02660   5
  -4   4  11 102.687 5.89443  13
   2  -4 -11 159.461 8.76753  11
  -2  -4  11 149.499 7.53931   4
  -2  -4  11 158.734 7.67439   7
   2  -4 -11 159.522 8.35780   2
  -2   4  11 156.167 7.27792   4
   2   4 -11 172.645 7.74382   5
  -2   4  11 165.778 7.70830  13
   0  -4 -11 67.1566 5.84452  11
   0  -4  11 65.9923 5.43254   4
   0  -4 -11 72.0625 6.34389   2
   0  -4  11 70.4153 5.38160   7
   0   4  11 68.2924 5.29491  13
   0   4 -11 72.8062 5.35329   9
   9  -5 -11 340.866 13.2639   5
   9  -5 -11 342.228 12.4682  12
  -9  -5  11 343.862 12.7619   7
   9   5 -11 334.671 12.2723  12
   9   5 -11 351.756 13.7087   5
   7  -5 -11 210.021 9.76007   5
   7  -5 -11 217.286 9.51899  11
   7  -5 -11 216.718 8.75325  12
  -7  -5  11 225.557 9.28131   4
  -7  -5  11 213.125 9.33049   7
   7   5 -11 227.496 10.1962   5
   5  -5 -11 274.773 11.4484  11
  -5  -5  11 278.399 10.9061   4
   5  -5 -11 258.628 10.9646   5
  -5  -5  11 281.731 10.6827   7
   5   5 -11 273.800 11.2538   5
  -5   5  11 286.740 10.2908   4
  -5   5  11 262.575 10.8601   8
  -3  -5  11 221.689 9.43450   7
   3  -5 -11 218.561 10.2833  11
   3  -5 -11 209.195 9.28344   5
  -3  -5  11 222.373 9.44966   4
  -3   5  11 216.814 9.47857   8
   3   5 -11 206.997 9.16562   5
  -3   5  11 219.168 9.33771  13
  -1  -5  11 271.972 11.3118   4
   1  -5 -11 275.605 12.3407  11
  -1  -5  11 283.149 11.2484   7
   1  -5 -11 270.246 12.0407   2
  -1   5  11 301.495 11.3311  13
   1   5 -11 284.399 11.1073   9
   1  -5  11 243.225 10.7063   7
  -1  -5 -11 237.795 11.0554  11
  -1  -5 -11 257.821 12.4741   2
   1   5  11 236.045 10.1516  13
  -1   5 -11 244.354 10.7800   9
   8  -6 -11 0.94468 1.75104  12
   8  -6 -11 6.22684 1.84151  11
   8  -6 -11 1.61431 1.73759   5
  -8  -6  11 3.91493 2.00201   4
  -8  -6  11 3.01162 2.28029   7
   8   6 -11 2.61031 1.51237   5
   6  -6 -11 79.9741 5.49149  11
  -6  -6  11 74.9310 5.64482   7
   6  -6 -11 82.0816 5.60712   5
  -6  -6  11 89.5244 5.72835   4
  -6   6  11 75.5856 5.60519   8
   6   6 -11 83.4034 6.00595   5
  -4  -6  11 84.4398 5.79960   7
  -4  -6  11 80.3549 5.43909   4
   4  -6 -11 72.7641 5.85086  11
   4  -6 -11 74.2829 5.13491   5
   4   6 -11 73.5725 4.80794   6
  -4   6  11 75.8055 5.31300   8
   4   6 -11 85.6559 5.79439   5
  -2  -6  11 35.2727 3.75240   4
   2  -6 -11 33.1800 3.75343   2
  -2  -6  11 41.7322 4.52713   7
   2  -6 -11 29.7990 4.30514  11
   2   6 -11 38.7275 3.63960   5
  -2   6  11 30.1955 4.20182   8
  -2   6  11 32.2769 3.88817  13
   0  -6  11 145.483 7.62544   4
   0  -6 -11 132.358 7.88553  11
   0  -6 -11 147.745 8.82546   2
   0  -6  11 147.667 7.78073   7
   0   6 -11 141.537 7.52827   9
  -7  -7  11 178.802 8.85590   7
   7  -7 -11 181.107 8.66236  11
   7  -7 -11 174.838 8.93410   5
   7   7 -11 185.942 9.28824   5
  -5  -7  11 638.216 20.2377   7
   5  -7 -11 586.433 19.9288   5
   5  -7 -11 623.959 20.6404  11
   5   7 -11 644.921 20.7623   5
  -5   7  11 655.791 20.9387   8
   3  -7 -11 196.806 9.03941   5
   3  -7 -11 204.384 10.0970  11
  -3  -7  11 207.298 9.40000   7
  -3  -7  11 214.298 10.9673  10
   3   7 -11 211.174 9.45206   5
  -3   7  11 207.570 10.0789   8
  -3   7  11 202.869 9.22170  13
  -1  -7  11 438.105 15.3720   4
   1  -7 -11 427.318 16.5444  11
  -1  -7  11 438.427 16.0037   7
  -1  -7  11 441.979 18.0456  10
  -1   7  11 453.880 16.6238   8
  -6  -8  11 183.191 9.02516   7
   6  -8 -11 170.035 8.56488   5
   6  -8 -11 159.671 8.27763  11
  -6   8  11 171.977 9.05123   8
   6   8 -11 168.762 8.67254   5
   4  -8 -11 106.808 6.94433  11
  -4  -8  11 100.827 7.19041  10
   4  -8 -11 97.3449 6.31126   5
  -4  -8  11 99.5696 6.88359   7
   4   8 -11 96.3695 6.28065   6
  -4   8  11 98.2640 6.58932   8
  10   0 -12 18.5900 3.41549   5
 -10   0  12 20.2367 4.25029  14
  10   0 -12 17.5018 2.80007  12
   8   0 -12 1073.40 31.6786   5
   8   0 -12 1035.14 29.5740  12
  -8   0  12 1050.28 30.2763   4
   6   0 -12 55.1534 4.88540  11
   6   0 -12 61.1576 5.20511   5
  -6   0  12 57.8390 4.79670   4
   4   0 -12 1153.92 33.5131   5
  -4   0  12 1149.27 32.8261   4
  -4   0  12 1161.13 32.1169  13
   4   0 -12 1189.06 34.4291  11
  -2   0  12 8.88010 1.89544  13
   2   0 -12 11.5975 2.96873  11
  -2   0  12 6.77163 2.44881   4
   0   0  12 1019.65 29.4219  13
   0   0  12 1036.64 30.3750   4
   0   0 -12 1016.79 31.6176  11
   0   0 -12 1059.23 31.6452   9
   9  -1 -12 19.8427 2.83218  12
   9  -1 -12 19.5349 3.51562   5
   9   1 -12 16.8456 2.55797  12
  -9   1  12 23.6705 4.97229  14
   9   1 -12 24.8127 3.84242   5
  -7  -1  12 87.6317 5.90593   4
   7  -1 -12 90.6975 6.07941   5
   7  -1 -12 92.0209 6.04067  11
  -7   1  12 103.972 6.20526   4
   7   1 -12 94.0453 5.67041  11
   7   1 -12 88.9924 6.10449   5
   5  -1 -12 164.006 8.42219  11
  -5  -1  12 137.162 7.40582   4
   5  -1 -12 145.886 7.63255   5
  -5   1  12 138.169 7.28719   4
   5   1 -12 133.624 7.44475   5
   5   1 -12 151.068 8.07082  11
  -3  -1  12 6.77116 2.04734   4
  -3  -1  12 7.94469 2.06699  13
   3  -1 -12 10.7179 2.86737  11
   3  -1 -12 8.71878 2.00382   5
   3   1 -12 7.01349 2.59125  11
  -3   1  12 9.70372 2.29340  13
  -3   1  12 8.14543 2.43525   4
   3   1 -12 5.31470 1.72322   5
  -1  -1  12 110.999 6.47293   4
   1  -1 -12 114.677 7.31156  11
   1   1 -12 120.202 7.25875   9
  -1   1  12 115.788 6.46140   4
  -1   1  12 110.112 6.26486  13
   1   1 -12 111.947 7.40746  11
  10  -2 -12 295.442 12.4036   5
 -10  -2  12 288.865 10.6750   7
 -10   2  12 299.672 15.0172  14
  10   2 -12 281.879 12.2998   5
  10   2 -12 265.388 10.9609  12
   8  -2 -12 497.986 17.6284   5
   8  -2 -12 486.168 15.9411  12
  -8  -2  12 485.904 16.6487   4
  -8  -2  12 489.001 15.8044   7
  -8   2  12 494.188 16.5757   4
   8   2 -12 481.418 17.5263   5
  -8   2  12 513.266 19.9403  14
   6  -2 -12 546.252 19.1691   5
  -6  -2  12 578.441 18.6317   4
  -6  -2  12 561.696 17.5070   7
   6  -2 -12 601.353 19.5246  11
   6   2 -12 575.936 19.4595   5
  -6   2  12 586.165 18.5389   4
   6   2 -12 580.128 19.0512  11
  -4  -2  12 348.369 12.3742   7
   4  -2 -12 390.526 14.5685  11
  -4  -2  12 372.940 13.5746   4
   4  -2 -12 362.439 13.5976   5
  -4   2  12 372.460 13.2288   4
   4   2 -12 389.042 14.5393  11
   4   2 -12 354.048 13.5120   5
  -4   2  12 375.245 12.9993  13
   2  -2 -12 351.007 14.3109  11
  -2  -2  12 340.253 12.8497   4
  -2  -2  12 336.765 12.1502   7
  -2   2  12 333.581 12.3225  13
   2   2 -12 353.369 14.1336  11
   2   2 -12 348.707 13.0341   9
  -2   2  12 352.429 12.5933   4
   0  -2 -12 85.1084 6.57994  11
   0  -2  12 97.1145 6.54898   4
   0   2 -12 78.8180 6.16950   9
   0   2  12 89.5796 5.58215  13
   0   2  12 82.2526 5.76271   4
  -9  -3  12 88.0514 5.62994   7
   9  -3 -12 88.3159 6.05717   5
   9  -3 -12 90.1441 5.61571  12
   9   3 -12 88.3313 5.53826  12
   9   3 -12 86.4264 6.15188   5
  -9   3  12 92.8521 7.97490  14
   7  -3 -12 29.3169 3.84791  11
  -7  -3  12 35.9356 4.12818   4
   7  -3 -12 24.1100 3.48259   5
  -7  -3  12 27.7782 3.08100   7
  -7   3  12 30.2274 4.58238  14
   7   3 -12 29.8349 3.81707   5
  -7   3  12 23.6933 3.28196   4
  -5  -3  12 5.94867 2.41375   4
  -5  -3  12 4.13271 2.05119   7
   5  -3 -12 4.50804 2.40394  11
   5  -3 -12 7.31194 2.09615   5
  -5   3  12 3.69424 1.98312   4
   5   3 -12 4.25759 1.73106   5
   5   3 -12 3.78901 2.11079  11
   3  -3 -12 72.6747 5.97804  11
  -3  -3  12 68.8976 5.30610   4
  -3  -3  12 68.3002 4.59450   7
   3   3 -12 72.4526 5.25822   5
  -3   3  12 74.1163 5.20270   4
   3   3 -12 75.1344 5.84725  11
  -3   3  12 72.4734 5.20112  13
  -1  -3  12 0.34630 1.95819   4
   1  -3 -12 1.27181 1.66596  11
  -1  -3  12 0.89236 1.82258   7
  -1   3  12 0.38363 1.79126   4
  -1   3  12 0.92341 1.34769  13
   1   3 -12 2.29864 1.53496   9
  -8  -4  12 26.1973 3.43781   7
   8  -4 -12 23.1032 2.97420  12
   8  -4 -12 29.6096 4.08852   5
  -8  -4  12 21.9534 3.06023   4
   8   4 -12 24.9895 3.94285   5
  -6  -4  12 452.464 15.6085   4
  -6  -4  12 452.120 15.1195   7
   6  -4 -12 436.579 16.0138   5
  -6   4  12 456.652 15.1716   4
   6   4 -12 460.394 16.4190   5
   4  -4 -12 28.5710 3.92304  11
   4  -4 -12 26.7684 3.42239   5
  -4  -4  12 47.7656 4.10927   4
  -4  -4  12 27.6342 3.47229   7
   4   4 -12 31.1013 3.61402   5
  -4   4  12 33.7898 3.84873  13
  -4   4  12 30.0357 3.45112   4
  -2  -4  12 675.951 20.8487   7
   2  -4 -12 642.575 22.1999  11
  -2  -4  12 669.497 21.1873   4
  -2   4  12 658.941 20.6793  13
  -2   4  12 653.395 20.1499   4
  -7  -5  12 4.35234 2.29546   4
   7  -5 -12 2.95049 1.67629  12
  -7  -5  12 5.20016 2.44594   7
   7  -5 -12 6.19958 2.14819   5
   7  -5 -12 5.31579 2.07547  11
   7   5 -12 4.13992 1.87631   5
  -5  -5  12 1.24090 2.02336   4
   5  -5 -12 1.51374 1.84772   5
  -5  -5  12 3.47573 2.23875   7
   5  -5 -12 1.51827 1.59461  11
   5   5 -12 -0.0434 1.76469   5
  -3  -5  12 60.0318 5.16295   4
   3  -5 -12 70.2898 5.91267  11
  -3  -5  12 57.0568 5.00768   7
  -3   5  12 59.0216 4.99334  13
  -1   5  12 1.08155 2.01507  13
  -6  -6  12 106.444 6.70983   7
   6  -6 -12 98.8029 6.57680   5
   6  -6 -12 114.359 7.01297  11
  -6  -6  12 115.791 6.71466   4
   6   6 -12 109.845 7.01184   5
  -4  -6  12 716.334 22.1340   4
   4  -6 -12 716.066 23.2491  11
   4  -6 -12 676.309 22.0528   5
  -4  -6  12 700.555 22.1589   7
   4   6 -12 720.300 22.7831   5
   8   0 -13 -1.3656 1.20328   5
  -8   0  13 1.32297 2.13531   4
  -6   0  13 2.44843 1.58714   4
   6   0 -13 1.35341 1.38923  11
   6   0 -13 -0.4556 1.78793   5
  -4   0  13 3.81244 1.86936   4
   4   0 -13 0.47917 1.97817  11
   4   0 -13 -0.4811 1.51238   5
   2   0 -13 2.49360 2.17217   9
  -2   0  13 0.43723 1.66668  13
   2   0 -13 -1.2607 2.00359  11
  -2   0  13 0.67050 1.48281   4
  -9  -1  13 53.1879 4.91558   4
   9  -1 -13 51.1397 5.08203   5
   9   1 -13 54.5754 5.29614   5
  -9   1  13 52.1330 6.61763  14
  -7  -1  13 617.057 20.0296   4
   7  -1 -13 590.835 20.6511   5
   7  -1 -13 616.487 20.5086  11
   7   1 -13 647.006 20.5900  11
  -7   1  13 626.163 19.9636   4
   7   1 -13 627.665 21.2374   5
   5  -1 -13 62.8858 5.24975   5
  -5  -1  13 66.6942 5.02117   4
   5  -1 -13 70.0150 5.88046  11
  -5   1  13 68.2439 4.94423   4
   5   1 -13 59.5938 5.45456  11
   5   1 -13 67.1435 5.14459   5
  -3  -1  13 595.141 19.7645   4
   3  -1 -13 594.527 21.2189  11
   3   1 -13 617.954 21.1955  11
  -3   1  13 615.999 19.2141  13
  -3   1  13 614.354 19.7503   4
   8  -2 -13 210.151 10.0980   5
  -8  -2  13 213.000 9.74494   4
  -8   2  13 219.747 9.74059   4
   6  -2 -13 172.797 9.00838   5
   6  -2 -13 174.729 9.08237  11
  -6  -2  13 182.163 8.65831   4
   6   2 -13 176.882 8.76914  11
   6   2 -13 166.690 9.03191   5
  -6   2  13 177.891 8.50941   4
   4  -2 -13 220.661 10.0206   5
  -4  -2  13 227.901 10.1097   4
   4  -2 -13 224.653 10.7826  11
  -4   2  13 234.532 9.90831   4
   4   2 -13 236.866 10.8486  11
   4   2 -13 224.119 10.0542   5
   2  -2 -13 151.925 8.77787  11
  -2  -2  13 159.922 8.43393   4
  -2   2  13 151.775 7.72438  13
  -2   2  13 172.673 8.22398   4
   2   2 -13 163.962 9.01024  11
  -7  -3  13 169.071 7.80198   7
  -7  -3  13 175.346 8.63629   4
   7  -3 -13 168.177 8.93491   5
   7  -3 -13 174.556 8.55484  11
   7   3 -13 169.633 9.18002   5
  -7   3  13 181.316 8.42621   4
  -5  -3  13 347.713 13.2801   4
   5  -3 -13 369.206 14.5205  11
  -5  -3  13 361.104 12.6785   7
  -5   3  13 350.874 12.9562   4
   5   3 -13 360.448 13.9650   5
   3  -3 -13 117.540 7.48822  11
  -3  -3  13 123.399 6.61492   7
  -3  -3  13 120.480 7.13924   4
  -3   3  13 121.865 6.84737  13
  -3   3  13 105.125 6.42596   4
  -6  -4  13 -2.5635 1.82904   7
  -6  -4  13 3.34600 1.75342   4
   6  -4 -13 0.16855 1.36562   5
   6  -4 -13 0.41085 1.37775  11
  -6   4  13 3.81842 2.04786   4
   6   4 -13 5.29806 2.35743   5
  -4  -4  13 16.6249 2.88466   4
  -4  -4  13 18.9687 3.22183   7
   4  -4 -13 21.3142 3.70114  11
   4   4 -13 24.5482 3.36378   5
  -4   4  13 23.6963 3.33053   4
   0   0   0    0.00    0.00   0

 _exptl_absorpt_process_details
)
 SADABS 2016/2: Krause, L., Herbst-Irmer, R., Sheldrick G.M. & Stalke D.,
 J. Appl. Cryst. 48 (2015) 3-10
)
 _exptl_absorpt_correction_type   multi-scan
 _exptl_absorpt_correction_T_max  0.7479
 _exptl_absorpt_correction_T_min  0.5721
 _exptl_special_details
)
 The following wavelength and cell were deduced by SADABS from the
 direction cosines etc. They are given here for emergency use only:
 CELL 0.71064    7.055    7.563    7.602   89.993  116.245   90.030
)

;
_shelx_hkl_checksum              64576
loop_
_space_group_symop_operation_xyz
'x, y, z'
'-x, y, -z+1/2'
'x+1/2, y+1/2, z'
'-x+1/2, y+1/2, -z+1/2'
'-x, -y, -z'
'x, -y, z-1/2'
'-x+1/2, -y+1/2, -z'
'x+1/2, -y+1/2, z-1/2'
loop_
_atom_site_label
_atom_site_type_symbol
_atom_site_fract_x
_atom_site_fract_y
_atom_site_fract_z
_atom_site_U_iso_or_equiv
_atom_site_adp_type
_atom_site_occupancy
_atom_site_site_symmetry_order
_atom_site_calc_flag
_atom_site_refinement_flags_posn
_atom_site_refinement_flags_adp
_atom_site_refinement_flags_occupancy
_atom_site_disorder_assembly
_atom_site_disorder_group
Fe Fe 0.000000 0.500000 0.000000 0.00582(4) Uani 1 2 d S . P . .
S S 0.000000 0.15447(2) 0.250000 0.00507(4) Uani 1 2 d S T P . .
O1 O 0.16874(7) 0.04405(7) 0.39968(7) 0.01016(8) Uani 1 1 d . . . . .
O2 O 0.09854(7) 0.26941(6) 0.15838(7) 0.00889(7) Uani 1 1 d . . . . .
O3 O 0.000000 0.64418(9) 0.250000 0.00850(9) Uani 1 2 d S T P . .
H H 0.108(2) 0.716(2) 0.294(2) 0.028(4) Uiso 1 1 d . . . . .
loop_
_atom_site_aniso_label
_atom_site_aniso_U_11
_atom_site_aniso_U_22
_atom_site_aniso_U_33
_atom_site_aniso_U_23
_atom_site_aniso_U_13
_atom_site_aniso_U_12
Fe 0.00531(5) 0.00572(5) 0.00630(5) 0.00064(3) 0.00266(4) -0.00003(3)
S 0.00382(7) 0.00462(7) 0.00651(7) 0.000 0.00225(5) 0.000
O1 0.00629(15) 0.01111(17) 0.01199(17) 0.00538(14) 0.00347(13) 0.00299(13)
O2 0.00832(15) 0.00798(15) 0.01216(17) 0.00344(13) 0.00633(13) 0.00074(12)
O3 0.0084(2) 0.0088(2) 0.0087(2) 0.000 0.00439(18) 0.000
loop_
_atom_type_symbol
_atom_type_description
_atom_type_scat_dispersion_real
_atom_type_scat_dispersion_imag
_atom_type_scat_source
O O 0.0106 0.0060 'International Tables Vol C Tables 4.2.6.8 and 6.1.1.4'
H H 0.0000 0.0000 'International Tables Vol C Tables 4.2.6.8 and 6.1.1.4'
S S 0.1246 0.1234 'International Tables Vol C Tables 4.2.6.8 and 6.1.1.4'
Mg Mg 0.0486 0.0363 'International Tables Vol C Tables 4.2.6.8 and 6.1.1.4'
Fe Fe 0.3463 0.8444 'International Tables Vol C Tables 4.2.6.8 and 6.1.1.4'
loop_
_geom_angle_atom_site_label_1
_geom_angle_atom_site_label_2
_geom_angle_atom_site_label_3
_geom_angle
_geom_angle_site_symmetry_1
_geom_angle_site_symmetry_3
_geom_angle_publ_flag
O2 Fe O2 180.0 . 5_565 ?
O2 Fe O1 94.95(2) . 8_455 ?
O2 Fe O1 85.05(2) 5_565 8_455 ?
O2 Fe O1 85.05(2) . 4 ?
O2 Fe O1 94.95(2) 5_565 4 ?
O1 Fe O1 180.0 8_455 4 ?
O2 Fe O3 87.95(2) . 5_565 ?
O2 Fe O3 92.05(2) 5_565 5_565 ?
O1 Fe O3 93.511(16) 8_455 5_565 ?
O1 Fe O3 86.489(16) 4 5_565 ?
O2 Fe O3 92.05(2) . . ?
O2 Fe O3 87.95(2) 5_565 . ?
O1 Fe O3 86.489(16) 8_455 . ?
O1 Fe O3 93.511(17) 4 . ?
O3 Fe O3 180.0 5_565 . ?
O2 Fe O2 83.023(13) . 8_455 ?
O2 Fe O2 96.977(14) 5_565 8_455 ?
O1 Fe O2 42.903(16) 8_455 8_455 ?
O1 Fe O2 137.097(16) 4 8_455 ?
O3 Fe O2 52.100(12) 5_565 8_455 ?
O3 Fe O2 127.900(12) . 8_455 ?
O2 Fe O2 96.977(13) . 4 ?
O2 Fe O2 83.023(13) 5_565 4 ?
O1 Fe O2 137.097(16) 8_455 4 ?
O1 Fe O2 42.903(16) 4 4 ?
O3 Fe O2 127.900(12) 5_565 4 ?
O3 Fe O2 52.099(12) . 4 ?
O2 Fe O2 180.0 8_455 4 ?
O2 Fe O2 137.854(17) . 6_565 ?
O2 Fe O2 42.145(17) 5_565 6_565 ?
O1 Fe O2 112.562(19) 8_455 6_565 ?
O1 Fe O2 67.438(19) 4 6_565 ?
O3 Fe O2 60.205(18) 5_565 6_565 ?
O3 Fe O2 119.795(18) . 6_565 ?
O2 Fe O2 95.671(16) 8_455 6_565 ?
O2 Fe O2 84.329(15) 4 6_565 ?
O2 Fe O2 42.146(17) . 2 ?
O2 Fe O2 137.855(17) 5_565 2 ?
O1 Fe O2 67.438(19) 8_455 2 ?
O1 Fe O2 112.562(19) 4 2 ?
O3 Fe O2 119.795(18) 5_565 2 ?
O3 Fe O2 60.205(18) . 2 ?
O2 Fe O2 84.329(16) 8_455 2 ?
O2 Fe O2 95.671(15) 4 2 ?
O2 Fe O2 180.0 6_565 2 ?
O1 S O1 110.47(4) . 2 ?
O1 S O2 110.06(3) . 2 ?
O1 S O2 108.86(3) 2 2 ?
O1 S O2 108.86(3) . . ?
O1 S O2 110.06(3) 2 . ?
O2 S O2 108.52(4) 2 . ?
S O1 Fe 136.22(3) . 4_545 ?
S O1 O2 35.897(16) . . ?
Fe O1 O2 100.40(2) 4_545 . ?
S O1 O1 34.77(2) . 2 ?
Fe O1 O1 140.29(3) 4_545 2 ?
O2 O1 O1 60.43(2) . 2 ?
S O1 O2 35.289(17) . 2 ?
Fe O1 O2 143.95(3) 4_545 2 ?
O2 O1 O2 60.13(2) . 2 ?
O1 O1 O2 59.691(19) 2 2 ?
S O1 O2 127.60(3) . 4_545 ?
Fe O1 O2 46.662(14) 4_545 4_545 ?
O2 O1 O2 108.58(2) . 4_545 ?
O1 O1 O2 103.31(2) 2 4_545 ?
O2 O1 O2 162.30(3) 2 4_545 ?
S O1 O3 170.59(3) . 7_556 ?
Fe O1 O3 48.383(12) 4_545 7_556 ?
O2 O1 O3 146.43(2) . 7_556 ?
O1 O1 O3 150.246(17) 2 7_556 ?
O2 O1 O3 135.38(2) 2 7_556 ?
O2 O1 O3 61.808(17) 4_545 7_556 ?
S O1 O2 115.65(3) . 8_556 ?
Fe O1 O2 41.839(14) 4_545 8_556 ?
O2 O1 O2 87.46(2) . 8_556 ?
O1 O1 O2 147.79(2) 2 8_556 ?
O2 O1 O2 103.74(2) 2 8_556 ?
O2 O1 O2 88.50(2) 4_545 8_556 ?
O3 O1 O2 61.344(19) 7_556 8_556 ?
S O1 O3 92.09(2) . 3_545 ?
Fe O1 O3 44.684(12) 4_545 3_545 ?
O2 O1 O3 57.135(18) . 3_545 ?
O1 O1 O3 102.17(3) 2 3_545 ?
O2 O1 O3 114.23(2) 2 3_545 ?
O2 O1 O3 61.815(19) 4_545 3_545 ?
O3 O1 O3 93.067(18) 7_556 3_545 ?
O2 O1 O3 57.040(16) 8_556 3_545 ?
S O1 O3 103.07(3) . 1_545 ?
Fe O1 O3 97.906(18) 4_545 1_545 ?
O2 O1 O3 118.49(2) . 1_545 ?
O1 O1 O3 68.305(10) 2 1_545 ?
O2 O1 O3 117.90(2) 2 1_545 ?
O2 O1 O3 53.072(16) 4_545 1_545 ?
O3 O1 O3 82.848(17) 7_556 1_545 ?
O2 O1 O3 137.737(18) 8_556 1_545 ?
O3 O1 O3 107.508(19) 3_545 1_545 ?
S O1 O2 126.31(3) . 6_556 ?
Fe O1 O2 97.095(19) 4_545 6_556 ?
O2 O1 O2 161.95(3) . 6_556 ?
O1 O1 O2 102.76(2) 2 6_556 ?
O2 O1 O2 106.89(2) 2 6_556 ?
O2 O1 O2 80.476(19) 4_545 6_556 ?
O3 O1 O2 51.583(15) 7_556 6_556 ?
O2 O1 O2 108.75(2) 8_556 6_556 ?
O3 O1 O2 138.54(2) 3_545 6_556 ?
O3 O1 O2 54.020(14) 1_545 6_556 ?
S O1 O2 112.98(3) . 7_556 ?
Fe O1 O2 76.743(19) 4_545 7_556 ?
O2 O1 O2 108.60(2) . 7_556 ?
O1 O1 O2 140.31(2) 2 7_556 ?
O2 O1 O2 81.45(2) 2 7_556 ?
O2 O1 O2 116.02(2) 4_545 7_556 ?
O3 O1 O2 58.262(18) 7_556 7_556 ?
O2 O1 O2 44.154(18) 8_556 7_556 ?
O3 O1 O2 100.865(19) 3_545 7_556 ?
O3 O1 O2 132.726(17) 1_545 7_556 ?
O2 O1 O2 79.711(15) 6_556 7_556 ?
S O2 Fe 132.79(3) . . ?
S O2 O1 35.246(16) . . ?
Fe O2 O1 162.50(3) . . ?
S O2 O2 35.742(19) . 2 ?
Fe O2 O2 103.061(17) . 2 ?
O1 O2 O2 60.299(19) . 2 ?
S O2 O1 34.652(17) . 2 ?
Fe O2 O1 118.36(3) . 2 ?
O1 O2 O1 59.88(3) . 2 ?
O2 O2 O1 59.565(18) 2 2 ?
S O2 O3 109.55(3) . 3_545 ?
Fe O2 O3 117.52(2) . 3_545 ?
O1 O2 O3 75.45(2) . 3_545 ?
O2 O2 O3 131.39(3) 2 3_545 ?
O1 O2 O3 114.99(3) 2 3_545 ?
S O2 O1 161.54(3) . 4 ?
Fe O2 O1 48.292(16) . 4 ?
O1 O2 O1 136.81(2) . 4 ?
O2 O2 O1 129.598(17) 2 4 ?
O1 O2 O1 162.30(3) 2 4 ?
O3 O2 O1 71.74(2) 3_545 4 ?
S O2 O3 135.36(3) . 5_565 ?
Fe O2 O3 48.382(16) . 5_565 ?
O1 O2 O3 147.41(3) . 5_565 ?
O2 O2 O3 135.93(3) 2 5_565 ?
O1 O2 O3 100.99(2) 2 5_565 ?
O3 O2 O3 92.317(18) 3_545 5_565 ?
O1 O2 O3 61.674(17) 4 5_565 ?
S O2 O1 92.28(2) . 8_455 ?
Fe O2 O1 43.208(13) . 8_455 ?
O1 O2 O1 127.48(3) . 8_455 ?
O2 O2 O1 73.62(2) 2 8_455 ?
O1 O2 O1 76.26(2) 2 8_455 ?
O3 O2 O1 154.97(2) 3_545 8_455 ?
O1 O2 O1 91.50(2) 4 8_455 ?
O3 O2 O1 62.987(16) 5_565 8_455 ?
S O2 O3 102.66(2) . . ?
Fe O2 O3 46.173(13) . . ?
O1 O2 O3 117.30(2) . . ?
O2 O2 O3 66.921(10) 2 . ?
O1 O2 O3 116.71(2) 2 . ?
O3 O2 O3 125.25(2) 3_545 . ?
O1 O2 O3 64.579(16) 4 . ?
O3 O2 O3 94.555(16) 5_565 . ?
O1 O2 O3 57.752(13) 8_455 . ?
S O2 O1 96.34(3) . 6 ?
Fe O2 O1 110.70(2) . 6 ?
O1 O2 O1 85.909(17) . 6 ?
O2 O2 O1 130.871(15) 2 6 ?
O1 O2 O1 73.11(2) 2 6 ?
O3 O2 O1 58.129(17) 3_545 6 ?
O1 O2 O1 99.52(2) 4 6 ?
O3 O2 O1 62.354(19) 5_565 6 ?
O1 O2 O1 108.75(2) 8_455 6 ?
O3 O2 O1 156.786(19) . 6 ?
S O2 O1 82.50(2) . 7_556 ?
Fe O2 O1 96.67(2) . 7_556 ?
O1 O2 O1 71.40(2) . 7_556 ?
O2 O2 O1 62.22(2) 2 7_556 ?
O1 O2 O1 116.66(2) 2 7_556 ?
O3 O2 O1 86.425(19) 3_545 7_556 ?
O1 O2 O1 79.195(16) 4 7_556 ?
O3 O2 O1 138.94(2) 5_565 7_556 ?
O1 O2 O1 109.11(2) 8_455 7_556 ?
O3 O2 O1 55.052(13) . 7_556 ?
O1 O2 O1 142.132(18) 6 7_556 ?
Fe O3 Fe 121.28(3) . 2 ?
Fe O3 O2 88.063(13) . 4 ?
Fe O3 O2 111.885(14) 2 4 ?
Fe O3 O2 111.885(14) . 3_455 ?
Fe O3 O2 88.063(13) 2 3_455 ?
O2 O3 O2 139.55(3) 4 3_455 ?
Fe O3 O1 45.128(13) . 8_455 ?
Fe O3 O1 103.62(2) 2 8_455 ?
O2 O3 O1 131.968(16) 4 8_455 ?
O2 O3 O1 70.288(17) 3_455 8_455 ?
Fe O3 O1 103.62(2) . 7_556 ?
Fe O3 O1 45.128(13) 2 7_556 ?
O2 O3 O1 70.289(17) 4 7_556 ?
O2 O3 O1 131.967(16) 3_455 7_556 ?
O1 O3 O1 122.71(3) 8_455 7_556 ?
Fe O3 O2 159.87(2) . 6_566 ?
Fe O3 O2 43.664(11) 2 6_566 ?
O2 O3 O2 87.684(18) 4 6_566 ?
O2 O3 O2 83.595(17) 3_455 6_566 ?
O1 O3 O2 139.678(17) 8_455 6_566 ?
O1 O3 O2 56.519(16) 7_556 6_566 ?
Fe O3 O2 43.664(11) . 5_565 ?
Fe O3 O2 159.87(2) 2 5_565 ?
O2 O3 O2 83.595(17) 4 5_565 ?
O2 O3 O2 87.684(18) 3_455 5_565 ?
O1 O3 O2 56.519(16) 8_455 5_565 ?
O1 O3 O2 139.678(17) 7_556 5_565 ?
O2 O3 O2 154.60(3) 6_566 5_565 ?
Fe O3 O2 41.780(14) . . ?
Fe O3 O2 81.00(2) 2 . ?
O2 O3 O2 93.374(13) 4 . ?
O2 O3 O2 125.25(2) 3_455 . ?
O1 O3 O2 60.904(18) 8_455 . ?
O1 O3 O2 66.686(19) 7_556 . ?
O2 O3 O2 118.94(2) 6_566 . ?
O2 O3 O2 85.444(16) 5_565 . ?
Fe O3 O2 81.00(2) . 2 ?
Fe O3 O2 41.780(14) 2 2 ?
O2 O3 O2 125.25(2) 4 2 ?
O2 O3 O2 93.373(14) 3_455 2 ?
O1 O3 O2 66.685(19) 8_455 2 ?
O1 O3 O2 60.904(18) 7_556 2 ?
O2 O3 O2 85.445(16) 6_566 2 ?
O2 O3 O2 118.94(2) 5_565 2 ?
O2 O3 O2 46.16(2) . 2 ?
Fe O3 O1 120.68(2) . 3_455 ?
Fe O3 O1 41.805(11) 2 3_455 ?
O2 O3 O1 147.402(15) 4 3_455 ?
O2 O3 O1 47.419(14) 3_455 3_455 ?
O1 O3 O1 79.835(16) 8_455 3_455 ?
O1 O3 O1 86.932(18) 7_556 3_455 ?
O2 O3 O1 59.973(15) 6_566 3_455 ?
O2 O3 O1 127.291(15) 5_565 3_455 ?
O2 O3 O1 98.74(2) . 3_455 ?
O2 O3 O1 53.606(14) 2 3_455 ?
Fe O3 O1 41.805(11) . 4 ?
Fe O3 O1 120.68(2) 2 4 ?
O2 O3 O1 47.420(14) 4 4 ?
O2 O3 O1 147.403(15) 3_455 4 ?
O1 O3 O1 86.932(18) 8_455 4 ?
O1 O3 O1 79.835(17) 7_556 4 ?
O2 O3 O1 127.291(15) 6_566 4 ?
O2 O3 O1 59.973(15) 5_565 4 ?
O2 O3 O1 53.605(14) . 4 ?
O2 O3 O1 98.74(2) 2 4 ?
O1 O3 O1 152.24(3) 3_455 4 ?
Fe O3 H 106.8(10) . . ?
Fe O3 H 109.4(10) 2 . ?
O2 O3 H 21.9(10) 4 . ?
O2 O3 H 119.4(11) 3_455 . ?
O1 O3 H 145.7(10) 8_455 . ?
O1 O3 H 77.3(10) 7_556 . ?
O2 O3 H 74.1(10) 6_566 . ?
O2 O3 H 89.8(10) 5_565 . ?
O2 O3 H 114.8(11) . . ?
O2 O3 H 138.1(10) 2 . ?
O1 O3 H 132.3(10) 3_455 . ?
O1 O3 H 68.3(10) 4 . ?
Fe O3 H 109.4(10) . 2 ?
Fe O3 H 106.8(10) 2 2 ?
O2 O3 H 119.4(11) 4 2 ?
O2 O3 H 21.9(11) 3_455 2 ?
O1 O3 H 77.3(10) 8_455 2 ?
O1 O3 H 145.7(10) 7_556 2 ?
O2 O3 H 89.8(10) 6_566 2 ?
O2 O3 H 74.1(10) 5_565 2 ?
O2 O3 H 138.1(10) . 2 ?
O2 O3 H 114.8(11) 2 2 ?
O1 O3 H 68.3(10) 3_455 2 ?
O1 O3 H 132.3(10) 4 2 ?
H O3 H 102(2) . 2 ?
loop_
_geom_bond_atom_site_label_1
_geom_bond_atom_site_label_2
_geom_bond_distance
_geom_bond_site_symmetry_2
_geom_bond_publ_flag
Fe O2 2.0550(5) . ?
Fe O2 2.0551(5) 5_565 ?
Fe O1 2.1093(6) 8_455 ?
Fe O1 2.1093(6) 4 ?
Fe O3 2.2252(4) 5_565 ?
Fe O3 2.2252(4) . ?
Fe O2 3.4715(6) 8_455 ?
Fe O2 3.4715(6) 4 ?
Fe O2 3.5082(6) 6_565 ?
Fe O2 3.5082(6) 2 ?
S O1 1.4652(5) . ?
S O1 1.4652(5) 2 ?
S O2 1.4887(5) 2 ?
S O2 1.4887(5) . ?
O1 O2 2.4027(7) . ?
O1 O1 2.4074(10) 2 ?
O1 O2 2.4206(7) 2 ?
O1 O2 2.8150(7) 4_545 ?
O1 O3 2.9708(7) 7_556 ?
O1 O2 3.0694(8) 8_556 ?
O1 O3 3.1584(6) 3_545 ?
O1 O3 3.2562(9) 1_545 ?
O1 O2 3.2932(7) 6_556 ?
O1 O2 3.3284(8) 7_556 ?
O2 O2 2.4166(9) 2 ?
O2 O3 2.7409(6) 3_545 ?
O2 O3 2.9745(6) 5_565 ?
O2 O3 3.0824(8) . ?
O3 H 0.865(16) . ?
O3 H 0.865(16) 2 ?
loop_
_geom_hbond_atom_site_label_D
_geom_hbond_atom_site_label_H
_geom_hbond_atom_site_label_A
_geom_hbond_distance_DH
_geom_hbond_distance_HA
_geom_hbond_distance_DA
_geom_hbond_angle_DHA
_geom_hbond_site_symmetry_A
_geom_hbond_publ_flag
O3 H O2 0.865(16) 1.965(15) 2.7409(6) 148.7(15) 4 yes
