#------------------------------------------------------------------------------
#$Date: 2022-01-01 07:13:54 +0200 (Sat, 01 Jan 2022) $
#$Revision: 271676 $
#$URL: file:///home/coder/svn-repositories/cod/cif/1/56/58/1565866.cif $
#------------------------------------------------------------------------------
#
# This file is available in the Crystallography Open Database (COD),
# http://www.crystallography.net/. The original data for this entry
# were provided by IUCr Journals, http://journals.iucr.org/.
#
# The file may be used within the scientific community so long as
# proper attribution is given to the journal article from which the
# data were obtained.
#
data_1565866
loop_
_publ_author_name
'Olejniczak, Anna'
'Katrusiak, Anna'
'Podsiad\/lo, Marcin'
'Katrusiak, Andrzej'
_publ_section_title
;
 Stochastic hydration of a high-nitrogen-content molecular compound
 recrystallized under pressure
;
_journal_issue                   1
_journal_name_full               IUCrJ
_journal_page_first              49
_journal_page_last               54
_journal_paper_doi               10.1107/S2052252521010381
_journal_volume                  9
_journal_year                    2022
_chemical_formula_moiety         'C4 H2 Cl N5'
_chemical_formula_sum            'C4 H2 Cl N5'
_chemical_formula_weight         155.56
_chemical_name_systematic        6-chloro-1,2,3,4-tetrazolo[1,5-b]pyridazine
_space_group_crystal_system      orthorhombic
_space_group_IT_number           19
_space_group_name_Hall           'P 2ac 2ab'
_space_group_name_H-M_alt        'P 21 21 21'
_atom_sites_solution_hydrogens   geom
_atom_sites_solution_primary     direct
_audit_creation_date             2020-07-14
_audit_creation_method
;
Olex2 1.3
(compiled 2020.06.28 svn.raecde09e for OlexSys, GUI svn.r6132)
;
_cell_angle_alpha                90
_cell_angle_beta                 90
_cell_angle_gamma                90
_cell_formula_units_Z            4
_cell_length_a                   7.0533(2)
_cell_length_b                   8.7742(2)
_cell_length_c                   10.0552(2)
_cell_measurement_reflns_used    2554
_cell_measurement_temperature    250.0(1)
_cell_measurement_theta_max      64.7340
_cell_measurement_theta_min      6.6920
_cell_volume                     622.29(3)
_computing_cell_refinement       'CrysAlisPro 1.171.40.67a (Rigaku OD, 2019)'
_computing_data_collection       'CrysAlisPro 1.171.40.67a (Rigaku OD, 2019)'
_computing_data_reduction        'CrysAlisPro 1.171.40.67a (Rigaku OD, 2019)'
_computing_molecular_graphics    'Olex2 1.3 (Dolomanov et al., 2009)'
_computing_publication_material  'Olex2 1.3 (Dolomanov et al., 2009)'
_computing_structure_refinement  'SHELXL 2018/3 (Sheldrick, 2015)'
_computing_structure_solution    'SHELXT 2018/2 (Sheldrick, 2018)'
_diffrn_ambient_environment      N~2~
_diffrn_ambient_temperature      250.0(1)
_diffrn_detector                 'CCD plate'
_diffrn_detector_area_resol_mean 10.5357
_diffrn_detector_type            Atlas
_diffrn_measured_fraction_theta_full 0.995
_diffrn_measured_fraction_theta_max 0.995
_diffrn_measurement_details
;
List of Runs (angles in degrees, time in seconds):

  # Type    Start    End  Width  t~exp~   \w     \q     \k     \f   Frames
--------------------------------------------------------------------------
  1  \w     13.00 116.00   1.00    1.25    --   41.73  77.00 150.00  103
  2  \w     13.00  88.00   1.00    1.25    --   41.73-125.00  60.00   75
  3  \w     40.00  99.00   1.00    1.25    --   41.73  37.00 -90.00   59
  4  \w     16.00  51.00   1.00    2.50    --   88.44 -45.00 150.00   35
  5  \w     36.00 158.00   1.00    2.50    --   88.44  15.00  60.00  122
  6  \w      8.00 106.00   1.00    2.50    --   88.44 -94.00 120.00   98
  7  \w     37.00  77.00   1.00    2.50    --   88.44 -45.00  90.00   40
  8  \w     44.00  70.00   1.00    2.50    --   88.44 -45.00-120.00   26
  9  \w     16.00 109.00   1.00    2.50    --   88.44 -94.00-120.00   93
 10  \w     26.00  75.00   1.00    2.50    --   88.44 -45.00   0.00   49
 11  \w     42.00  81.00   1.00    2.50    --   88.44 -94.00   0.00   39
 12  \w     85.00 111.00   1.00    2.50    --   88.44 125.00  90.00   26
 13  \w    116.00 146.00   1.00    2.50    --   88.44 125.00  90.00   30
 14  \w     68.00 107.00   1.00    2.50    --   88.44-125.00  90.00   39
 15  \w     75.00 156.00   1.00    2.50    --   88.44  61.00 -90.00   81
;
_diffrn_measurement_device       'four-circle diffractometer'
_diffrn_measurement_device_type
'SuperNova, Single source at offset/far, Atlas'
_diffrn_measurement_method       '\w scans'
_diffrn_orient_matrix_type
'CrysAlisPro convention (1999,Acta A55,543-557)'
_diffrn_orient_matrix_UB_11      0.0560155000
_diffrn_orient_matrix_UB_12      -0.0094470000
_diffrn_orient_matrix_UB_13      0.1478208000
_diffrn_orient_matrix_UB_21      -0.0480815000
_diffrn_orient_matrix_UB_22      -0.1713134000
_diffrn_orient_matrix_UB_23      0.0006184000
_diffrn_orient_matrix_UB_31      0.2055681000
_diffrn_orient_matrix_UB_32      -0.0374516000
_diffrn_orient_matrix_UB_33      -0.0401516000
_diffrn_radiation_monochromator  mirror
_diffrn_radiation_probe          x-ray
_diffrn_radiation_type           'Cu K\a'
_diffrn_radiation_wavelength     1.54184
_diffrn_reflns_av_R_equivalents  0.0172
_diffrn_reflns_av_unetI/netI     0.0139
_diffrn_reflns_Laue_measured_fraction_full 0.995
_diffrn_reflns_Laue_measured_fraction_max 0.995
_diffrn_reflns_limit_h_max       8
_diffrn_reflns_limit_h_min       -6
_diffrn_reflns_limit_k_max       9
_diffrn_reflns_limit_k_min       -10
_diffrn_reflns_limit_l_max       10
_diffrn_reflns_limit_l_min       -11
_diffrn_reflns_number            3654
_diffrn_reflns_point_group_measured_fraction_full 0.989
_diffrn_reflns_point_group_measured_fraction_max 0.989
_diffrn_reflns_theta_full        64.632
_diffrn_reflns_theta_max         64.632
_diffrn_reflns_theta_min         6.696
_diffrn_source                   'micro-focus sealed X-ray tube'
_diffrn_source_type              'SuperNova (Cu) X-ray Source'
_exptl_absorpt_coefficient_mu    4.799
_exptl_absorpt_correction_T_max  1.00000
_exptl_absorpt_correction_T_min  0.70489
_exptl_absorpt_correction_type   multi-scan
_exptl_absorpt_process_details
;
CrysAlisPro 1.171.40.67a (Rigaku Oxford Diffraction, 2019)
Empirical absorption correction using spherical harmonics,
 implemented in SCALE3 ABSPACK scaling algorithm.
;
_exptl_crystal_colour            colourless
_exptl_crystal_density_diffrn    1.660
_exptl_crystal_description       plate
_exptl_crystal_F_000             312
_exptl_crystal_size_max          0.50
_exptl_crystal_size_mid          0.20
_exptl_crystal_size_min          0.15
_refine_diff_density_max         0.124
_refine_diff_density_min         -0.176
_refine_diff_density_rms         0.031
_refine_ls_abs_structure_details
;
 Flack x determined using 379 quotients [(I+)-(I-)]/[(I+)+(I-)]
 (Parsons, Flack and Wagner, Acta Cryst. B69 (2013) 249-259).
;
_refine_ls_abs_structure_Flack   0.487(7)
_refine_ls_extinction_method     none
_refine_ls_goodness_of_fit_ref   1.084
_refine_ls_hydrogen_treatment    constr
_refine_ls_matrix_type           full
_refine_ls_number_parameters     91
_refine_ls_number_reflns         1038
_refine_ls_number_restraints     0
_refine_ls_restrained_S_all      1.084
_refine_ls_R_factor_all          0.0338
_refine_ls_R_factor_gt           0.0325
_refine_ls_shift/su_max          0.000
_refine_ls_shift/su_mean         0.000
_refine_ls_structure_factor_coef Fsqd
_refine_ls_weighting_details
'w=1/[\s^2^(Fo^2^)+(0.0428P)^2^+0.2471P] where P=(Fo^2^+2Fc^2^)/3'
_refine_ls_weighting_scheme      calc
_refine_ls_wR_factor_gt          0.0849
_refine_ls_wR_factor_ref         0.0860
_reflns_Friedel_coverage         0.637
_reflns_Friedel_fraction_full    0.978
_reflns_Friedel_fraction_max     0.978
_reflns_number_gt                1006
_reflns_number_total             1038
_reflns_threshold_expression     'I > 2\s(I)'
_cod_data_source_file            lt5042.cif
_cod_data_source_block           C4H2N5Cl1@250K_phase_alpha
_cod_database_code               1565866
_shelx_shelxl_version_number     2018/3
_chemical_oxdiff_formula         C4H2N5Cl1
_shelx_space_group_comment
;
The symmetry employed for this shelxl refinement is uniquely defined
by the following loop, which should always be used as a source of
symmetry information in preference to the above space-group names.
They are only intended as comments.
;
_reflns_odcompleteness_completeness 99.54
_reflns_odcompleteness_iscentric 1
_reflns_odcompleteness_theta     64.53
_olex2_refinement_description
;
1. Fixed Uiso
 At 1.2 times of:
  All C(H) groups
2.a Aromatic/amide H refined with riding coordinates:
 C7(H7), C8(H8)
;
_shelx_res_file
;
TITL 1a_a.res in P2(1)2(1)2(1)
    1a.res
    created by SHELXL-2018/3 at 12:32:20 on 14-Jul-2020
REM Old TITL 1a in P2(1)2(1)2(1)
REM SHELXT solution in P2(1)2(1)2(1): R1 0.146, Rweak 0.041, Alpha 0.004
REM <I/s> 0.771 for 15 systematic absences, Orientation as input
REM Flack x = 0.484 ( 0.006 ) from 384 Parsons' quotients
REM Formula found by SHELXT: C8 N Cl
CELL 1.54184 7.0533 8.7742 10.0552 90 90 90
ZERR 4 0.0002 0.0002 0.0002 0 0 0
LATT -1
SYMM 0.5-X,-Y,0.5+Z
SYMM -X,0.5+Y,0.5-Z
SYMM 0.5+X,0.5-Y,-Z
SFAC C H Cl N
UNIT 16 8 4 20

L.S. 44
PLAN  5
CONF
BOND
list 4
MORE -1
BOND $H
fmap 2 53
ACTA
REM <olex2.extras>
REM <HklSrc "%.\\1a.hkl">
REM </olex2.extras>

WGHT    0.042800    0.247100
FVAR       1.04177
CL1   3    0.290207    0.333742    0.320185    11.00000    0.07230    0.03477 =
         0.08258   -0.00323    0.01888   -0.00190
N4    4    0.357190    0.748091    0.411718    11.00000    0.05118    0.03767 =
         0.03371   -0.00189   -0.00087   -0.00281
N5    4    0.367489    0.594838    0.418220    11.00000    0.05369    0.03876 =
         0.04059    0.00527    0.00215    0.00070
N3    4    0.430353    0.838893    0.506249    11.00000    0.07331    0.05513 =
         0.04426   -0.00864   -0.00850   -0.00992
N2    4    0.392289    0.977306    0.465918    11.00000    0.08334    0.04994 =
         0.06316   -0.01635    0.00372   -0.01134
N1    4    0.298094    0.980654    0.349229    11.00000    0.07142    0.03909 =
         0.06052   -0.00292    0.00657   -0.00100
C9    1    0.276814    0.834437    0.315214    11.00000    0.05068    0.03486 =
         0.03713    0.00369    0.00535    0.00193
C7    1    0.200457    0.604610    0.208267    11.00000    0.05823    0.05206 =
         0.03476   -0.00829    0.00011   -0.00444
AFIX  43
H7    2    0.147632    0.548551    0.139069    11.00000   -1.20000
AFIX   0
C6    1    0.286717    0.529946    0.317096    11.00000    0.04877    0.03518 =
         0.04417   -0.00220    0.01024   -0.00060
C8    1    0.195767    0.757941    0.206093    11.00000    0.05736    0.05448 =
         0.03560    0.00651   -0.00142    0.00272
AFIX  43
H8    2    0.141421    0.810960    0.135661    11.00000   -1.20000
AFIX   0
HKLF 4




REM  1a_a.res in P2(1)2(1)2(1)
REM wR2 = 0.0860, GooF = S = 1.084, Restrained GooF = 1.084 for all data
REM R1 = 0.0325 for 1006 Fo > 4sig(Fo) and 0.0338 for all 1038 data
REM 91 parameters refined using 0 restraints

END

WGHT      0.0429      0.2465

REM Highest difference peak  0.124,  deepest hole -0.176,  1-sigma level  0.031
Q1    1   0.2660  0.5637  0.2581  11.00000  0.05    0.12
Q2    1   0.2803  1.0470  0.3161  11.00000  0.05    0.12
Q3    1   0.3960  0.3513  0.3640  11.00000  0.05    0.12
Q4    1   0.2737  0.9137  0.3266  11.00000  0.05    0.11
Q5    1   0.2843  0.7780  0.3580  11.00000  0.05    0.11
;
_shelx_res_checksum              69350
_shelx_hkl_file
;
   0   0   1    0.26    0.18
   0   0   2 1568.44    9.72
   0   0   3    0.19    0.44
   0   0   4   25.22    1.88
   0   0   5    0.47    0.68
   0   0  -6 1181.01   11.25
   0   0   6 1144.48   16.23
   0   0  -6 1158.43   11.02
   0   0  -7   -0.03    0.32
   0   0  -7    0.47    0.57
   0   0   8  688.98   15.45
   0   0  -8  660.83    9.69
   0   0  -8  659.86   10.12
   0   0  -9   -0.67    0.63
   0   0 -10  232.25    6.22
   0   0 -11   -0.28    0.43
   0  -1   0    0.58    0.25
   0  -1   0    0.06    0.12
   0  -1   1 1385.66    7.12
   0   1   1 1377.73    7.86
   0   1   2   41.41    1.77
   0  -1   2   40.41    1.60
   0   1   3 3857.81   19.92
   0  -1   3 3840.78   18.83
   0  -1   4   19.28    1.68
   0   1   4   18.70    1.73
   0   1   5 1194.80   15.02
   0  -1   5 1199.37   14.47
   0   1  -6    0.46    0.49
   0   1   6    1.57    0.78
   0  -1   6    0.66    0.67
   0  -1  -6    0.27    0.44
   0   1  -6   -0.01    0.42
   0  -1  -6    1.31    0.65
   0  -1  -7   24.48    1.86
   0  -1  -7   22.19    1.77
   0  -1   7   24.31    2.87
   0   1  -7   24.07    1.86
   0   1  -7   25.67    1.88
   0   1   7   26.53    2.92
   0  -1  -8   39.73    2.40
   0   1  -8   39.15    2.51
   0  -1   8   37.20    3.73
   0  -1  -8   36.82    2.51
   0   1   8   37.94    3.78
   0   1  -8   38.03    2.40
   0  -1  -9   13.55    1.67
   0   1  -9   15.76    1.60
   0  -1  -9   12.59    1.40
   0   1  -9   14.72    1.74
   0  -1 -10   89.75    3.94
   0   1 -10   96.08    3.93
   0   1 -10   89.25    3.53
   0   1 -11   36.06    2.18
   0  -1 -11   36.23    2.23
   0  -2   0  174.77    3.59
   0  -2   0  178.59    2.11
   0  -2   1 1090.52    9.33
   0   2   1 1124.87    8.72
   0  -2   2  357.48    5.97
   0  -2   2  358.50    5.31
   0   2   2  347.99    5.76
   0  -2   3  360.77    6.15
   0   2   3  353.02    6.63
   0   2   4    5.39    1.11
   0  -2   4    8.49    1.19
   0   2  -5  737.65    8.10
   0   2  -5  738.82    8.34
   0   2   5  742.86   12.48
   0  -2  -5  747.78    8.24
   0  -2  -6   14.41    1.37
   0   2   6   14.10    2.04
   0  -2   6   14.91    2.03
   0   2  -6   14.45    1.36
   0  -2  -6   13.27    1.32
   0   2  -6   14.98    1.36
   0   2  -7  370.90    7.13
   0  -2  -7  369.26    7.37
   0  -2  -7  382.86    7.17
   0  -2   7  396.19   10.78
   0   2   7  377.65   10.95
   0   2  -7  378.31    7.11
   0   2  -8   24.45    1.99
   0   2  -8   25.81    2.06
   0  -2  -8   25.63    2.15
   0  -2  -8   26.68    2.03
   0   2   8   28.23    3.49
   0  -2   8   25.41    3.41
   0  -2  -9    1.18    0.86
   0   2  -9    1.05    0.63
   0   2  -9    1.52    0.72
   0   2 -10   95.03    3.64
   0  -2 -10   90.96    3.77
   0   2 -10   93.99    3.74
   0   2 -11    2.74    0.74
   0  -2 -11    3.66    0.82
   0  -3   0    0.13    0.13
   0  -3   0    0.13    0.55
   0   3   1  262.76    5.03
   0  -3   1  254.93    5.52
   0  -3   1  273.61    3.97
   0  -3   2 1998.91   16.31
   0   3   2 2070.04   15.89
   0   3   3    5.93    1.11
   0  -3   3    7.02    1.19
   0  -3   4   25.95    2.32
   0   3  -4   23.62    1.52
   0   3   4   22.32    2.10
   0  -3  -4   23.84    1.49
   0  -3   5   90.00    4.34
   0   3   5   81.00    4.39
   0  -3   5   79.87    4.46
   0   3  -5   80.79    2.99
   0  -3  -5   81.31    2.98
   0   3  -5   84.19    2.86
   0   3  -6   14.63    1.30
   0  -3   6   16.02    2.16
   0  -3   6   18.64    2.30
   0  -3  -6   14.37    1.45
   0   3   6   13.96    2.05
   0   3  -6   15.35    1.46
   0  -3  -7    5.77    0.99
   0   3  -7   11.22    1.41
   0  -3  -7    6.97    1.17
   0   3   7    6.64    1.85
   0   3  -7    6.15    1.04
   0  -3   7    6.72    1.63
   0  -3  -7    5.44    1.08
   0   3  -8  131.78    4.45
   0  -3   8  126.02    7.00
   0  -3  -8  131.06    4.81
   0   3  -8  131.63    4.58
   0   3  -9   11.98    1.43
   0  -3  -9   11.53    1.54
   0   3  -9   11.64    1.48
   0   3 -10    1.02    0.62
   0   3 -10    0.69    0.44
   0  -3 -10    1.08    0.71
   0  -3 -11    1.28    0.59
   0  -4   0   10.91    1.48
   0  -4   1 3007.26   22.22
   0   4   1 3015.18   19.79
   0   4   2   90.12    3.79
   0  -4   2   90.23    3.02
   0  -4   2   86.09    3.96
   0   4   3  192.43    5.96
   0   4  -3  186.61    4.23
   0  -4   3  192.69    6.24
   0  -4  -3  189.76    4.26
   0  -4  -4   83.76    2.82
   0  -4  -4   93.63    3.21
   0   4   4   85.69    4.41
   0  -4   4   94.44    4.75
   0   4  -4   86.72    3.11
   0   4  -5  208.73    5.14
   0  -4   5  212.77    7.73
   0  -4  -5  219.75    4.80
   0  -4  -5  214.31    5.16
   0   4   5  201.96    7.37
   0   4  -5  213.57    4.74
   0   4  -6   49.20    2.71
   0   4  -6   52.68    2.56
   0  -4  -6   50.70    2.74
   0  -4   6   48.18    4.00
   0   4   6   52.42    4.18
   0  -4  -7  163.37    5.14
   0  -4  -7  164.35    5.38
   0   4  -7  165.05    5.15
   0   4  -7  166.27    4.79
   0   4   7  170.37    7.86
   0  -4   7  162.74    7.82
   0  -4  -8    3.13    1.01
   0   4  -8    4.88    1.12
   0   4  -8    6.34    1.07
   0   4  -9  220.91    5.79
   0  -4  -9  220.90    6.03
   0   4 -10    8.33    1.11
   0  -4 -10    8.54    1.11
   0  -5   0    0.41    0.65
   0   5   0    0.36    0.47
   0  -5   0    0.11    0.60
   0  -5   0    1.78    0.51
   0  -5   1  500.52    6.95
   0  -5   1  488.28   10.36
   0   5  -1  527.59    7.28
   0   5   1  501.91    7.07
   0  -5  -1  512.14    7.22
   0   5   1  540.41    9.50
   0  -5   1  502.97    6.87
   0  -5  -1  512.90    7.20
   0   5   2    3.41    0.65
   0  -5   2    4.79    1.25
   0   5   2    3.42    0.98
   0   5  -2    1.96    0.64
   0  -5   2    4.94    0.76
   0  -5  -2    2.73    0.72
   0  -5   2    2.79    0.68
   0  -5   3  734.03   13.72
   0  -5  -3  772.97    9.52
   0  -5   3  766.41    8.93
   0   5  -3  785.43    9.65
   0   5   3  814.37   13.31
   0  -5  -4  594.62    8.28
   0   5  -4  591.25    8.83
   0  -5   4  600.26    8.16
   0   5   4  605.31   12.44
   0  -5  -4  601.53    8.83
   0  -5   4  606.41   13.08
   0  -5  -5    3.66    0.92
   0   5   5    4.64    1.35
   0   5  -5    3.48    0.90
   0  -5  -5    5.22    0.89
   0  -5   5    4.32    1.15
   0  -5  -6   58.52    3.12
   0  -5   6   53.11    4.37
   0   5   6   59.28    4.56
   0   5  -6   59.14    3.12
   0  -5  -7    3.73    1.19
   0   5  -7    6.39    1.22
   0   5  -8    1.95    0.73
   0  -5  -8    3.35    1.13
   0   5  -9   60.74    2.90
   0  -5  -9   59.07    3.02
   0  -5 -10   -0.85    0.50
   0   5 -10    0.50    0.37
   0  -6   0  877.21   10.32
   0  -6   0  883.62   10.25
   0   6   1   38.49    2.23
   0   6  -1   35.98    2.20
   0  -6   1   36.76    3.22
   0  -6   1   33.50    2.06
   0  -6   1   33.70    2.05
   0  -6  -1   34.19    2.11
   0  -6  -1   34.74    2.20
   0  -6   2  178.91    4.62
   0   6  -2  185.01    5.01
   0  -6   2  173.73    7.14
   0  -6   2  178.04    4.62
   0  -6  -2  180.57    4.88
   0  -6   3   25.24    2.75
   0   6  -3   23.40    1.94
   0  -6   3   21.48    1.71
   0  -6  -3   22.25    1.83
   0  -6   4    2.40    0.96
   0  -6  -4    4.46    0.99
   0   6  -4    3.81    1.09
   0  -6  -4    4.79    1.02
   0  -6   4    4.92    0.98
   0  -6   5   11.90    2.18
   0   6  -5    7.96    1.38
   0  -6  -5    8.01    1.31
   0  -6  -5    8.87    1.19
   0  -6  -6 1074.20   13.39
   0   6  -6 1058.95   13.41
   0   6  -7    1.76    0.80
   0  -6  -7    0.24    0.75
   0  -6  -8   24.71    2.05
   0   6  -8   20.48    1.84
   0  -6  -9    1.52    0.61
   0   6  -9    1.28    0.64
   0   7   0   -1.08    0.67
   0  -7   0    0.78    0.76
   0  -7   0   -0.71    0.51
   0  -7  -1    3.60    0.92
   0   7   1    3.21    0.87
   0  -7   1    4.05    0.86
   0  -7   1    3.50    0.87
   0   7  -1    4.82    1.01
   0  -7  -2    1.49    0.74
   0  -7   2    1.64    0.81
   0   7  -2    3.39    0.98
   0  -7  -3   36.35    2.45
   0   7  -3   34.43    2.49
   0  -7  -3   33.61    2.32
   0  -7   3   36.84    3.59
   0  -7   3   33.08    2.19
   0  -7  -4   81.12    3.54
   0   7  -4   84.88    3.85
   0  -7  -4   85.06    3.75
   0   7  -5  209.52    5.95
   0  -7  -5  208.42    5.60
   0  -7  -5  202.73    5.78
   0   7  -6    4.13    1.15
   0  -7  -6    4.41    1.07
   0  -7  -7    8.72    1.28
   0   7  -7    8.71    1.33
   0   7  -8    0.17    0.48
   0   7  -8    0.88    0.55
   0  -7  -8    0.35    0.53
   0   8   0    2.17    0.86
   0  -8   0    2.62    0.90
   0  -8  -1  471.41    8.20
   0  -8   1  475.56    8.32
   0   8  -1  470.94    8.91
   0  -8  -2   24.14    2.06
   0   8  -2   24.61    2.13
   0  -8  -2   24.22    2.02
   0  -8   2   22.50    1.93
   0  -8  -3    5.07    1.06
   0  -8  -3    7.01    1.16
   0   8  -3    5.36    1.05
   0  -8  -4    0.57    0.66
   0  -8  -4    1.39    0.70
   0   8  -4    2.03    0.78
   0  -8  -5   20.11    1.74
   0  -8  -5   17.47    1.63
   0   8  -5   17.27    1.73
   0   8  -6   63.60    2.98
   0  -8  -6   61.50    2.91
   0  -8  -7   50.06    2.41
   0   8  -7   55.73    2.51
   0  -9   0    0.74    0.53
   0  -9  -1   45.98    2.38
   0  -9  -1   51.29    2.79
   0   9  -1   47.53    2.74
   0  -9  -2  113.81    4.03
   0   9  -2  112.50    4.11
   0  -9  -2  106.18    3.62
   0   9  -3    5.29    1.03
   0  -9  -3    4.95    0.91
   0  -9  -3    5.01    0.92
   0   9  -4  140.90    4.29
   0  -9  -4  130.34    3.96
   0  -9  -4  129.51    3.86
   0   9  -5    2.22    0.58
   0  -9  -5    3.96    0.71
   0 -10   0   84.74    3.04
   0 -10   1  104.02    3.27
   0 -10  -1  101.96    3.33
   0 -10  -2   19.18    1.45
   0 -10   2   16.26    1.29
  -1   0   0    0.06    0.14
   1   0   0    1.07    0.39
   1   0   1  977.87    7.01
   1   0  -1  968.40    6.90
  -1   0   3 1332.43   11.06
   1   0   3 1364.77   12.46
  -1   0   4  424.77    7.42
   1   0   4  438.98    8.24
  -1   0   5    3.59    0.97
   1   0   5    3.66    1.07
   1   0  -5    4.36    0.71
  -1   0  -5    5.10    0.84
   1   0  -6   15.25    1.42
  -1   0   6   16.46    1.87
  -1   0  -6   15.60    1.28
   1   0   6   13.53    1.95
  -1   0  -6   14.83    1.43
  -1   0  -7   10.92    1.37
   1   0   7   10.13    1.92
   1   0  -7   14.23    1.54
  -1   0  -7   17.01    1.47
  -1   0   7   14.51    2.02
   1   0   8  139.02    7.33
   1   0  -8  139.11    4.90
  -1   0   8  134.94    6.79
  -1   0  -8  136.70    4.34
  -1   0  -8  138.56    4.74
  -1   0  -9   16.68    1.81
   1   0  -9   18.15    1.91
   1   0  -9   19.84    1.95
  -1   0 -10  345.13    7.31
   1   0 -10  347.93    7.65
  -1   0 -10  334.55    7.19
   1   0 -11   19.97    1.68
  -1   0 -11   16.64    1.45
   1   1 -11   19.52    1.65
  -1  -1 -11   17.36    1.56
  -1  -1 -10   41.37    2.53
   1   1 -10   49.06    2.76
   1   1 -10   45.10    2.76
  -1  -1  -9   82.54    3.49
  -1  -1  -9   82.22    3.78
   1   1  -9   79.58    3.80
   1  -1   8  259.22   10.03
  -1  -1  -8  259.99    6.09
   1   1  -8  257.74    6.52
  -1   1   8  268.73    9.85
  -1  -1  -8  263.64    6.60
  -1   1   7  207.42    7.88
  -1  -1  -7  204.68    5.03
   1   1  -7  204.17    5.37
   1   1  -7  210.30    5.54
   1   1  -7  202.18    4.89
   1  -1   7  218.07    8.37
  -1  -1  -7  209.83    5.64
  -1  -1  -6   15.55    1.50
  -1   1   6   15.90    2.12
   1  -1   6   18.28    2.37
  -1  -1  -6   17.26    1.36
  -1  -1  -6   17.24    1.33
   1   1  -6   17.08    1.35
   1   1  -6   16.13    1.42
   1   1  -6   17.62    1.53
  -1   1   5  353.86    8.17
   1   1  -5  365.12    5.95
   1  -1   4  123.16    4.42
  -1   1   4  133.13    4.46
  -1   1   3  794.25    9.59
   1  -1   3  768.06    9.60
  -1   1   2 1700.20   12.26
   1  -1   2 1693.29   12.41
   1  -1   1  712.92    4.52
   1   1   0  667.19    4.64
   1  -1   0  682.21    6.40
  -1  -1   0  685.89    5.96
  -1  -1   1  716.53    3.60
   1   1   1  719.30    5.63
   1   1   2 1677.08   11.51
  -1  -1   2 1660.35    8.98
  -1  -1   3  752.97    7.84
   1   1   3  761.96    9.42
   1   1   4  138.54    4.76
  -1  -1   4  129.99    3.93
   1   1   5  365.63    8.82
  -1  -1   5  348.44    7.51
  -1   1  -5  362.67    5.98
   1  -1  -5  368.28    6.01
   1  -1  -6   17.08    1.52
  -1  -1   6   15.99    2.03
  -1   1  -6   18.35    1.55
   1   1   6   13.88    2.03
  -1  -1   7  207.59    7.53
   1   1   7  198.05    8.06
   1  -1  -7  214.07    5.65
  -1   1  -7  202.11    5.41
   1  -1  -8  256.64    6.70
   1   1   8  259.75    9.90
  -1  -1   8  245.75    8.99
  -1   1  -8  260.96    6.53
  -1   1  -9   83.16    3.64
  -1   1  -9   81.40    3.80
   1  -1  -9   79.53    3.88
   1  -1 -10   42.70    2.73
  -1   1 -10   42.82    2.65
  -1   1 -10   48.84    2.64
  -1   1 -11   18.94    1.50
   1  -1 -11   16.66    1.57
  -1   1 -11   16.34    1.39
   1   2 -11   14.89    1.43
  -1  -2 -11   14.32    1.39
  -1  -2 -10   23.57    1.92
   1   2 -10   27.84    2.12
   1   2  -9   29.29    2.33
  -1  -2  -9   26.87    2.18
  -1  -2  -9   27.35    2.11
   1  -2   8   38.83    3.94
   1   2  -8   38.91    2.57
   1   2  -8   40.40    2.43
  -1   2   8   37.19    3.77
  -1  -2  -8   41.58    2.75
  -1  -2  -8   42.59    2.49
  -1   2   7   54.43    4.26
   1  -2   7   59.93    4.56
   1   2  -7   50.31    2.76
  -1  -2  -7   56.02    2.69
  -1  -2  -7   55.72    2.75
   1   2  -7   59.48    2.74
  -1  -2  -7   53.24    2.96
   1  -2   6  377.95   10.24
  -1  -2  -6  380.03    6.33
   1   2  -6  357.58    6.28
  -1   2   6  373.10    9.98
   1   2  -6  354.59    6.69
  -1  -2  -6  364.94    6.43
   1   2  -5 1749.03   13.20
   1   2  -5 1762.06   12.72
  -1   2   5 1750.78   19.46
  -1  -2  -5 1789.95   12.52
   1  -2   5 1723.94   19.56
  -1   2   4  239.94    6.46
   1  -2   4  249.53    6.66
   1  -2   3 1931.68   16.59
  -1   2   3 1864.70   16.42
  -1   2   2   37.74    2.17
   1  -2   2   41.41    1.88
   1  -2   1  742.92    7.97
   1  -2   1  756.24    6.79
   1   2   0  707.88    3.84
  -1  -2   0  723.00    8.01
   1  -2   0  712.11    7.30
  -1  -2   1  779.44    8.85
   1   2   1  785.64    6.60
   1   2   1  776.14    4.26
  -1  -2   2   40.22    2.28
   1   2   2   41.69    2.00
  -1  -2   2   45.79    1.50
   1   2   3 1938.49   16.07
  -1  -2   3 1944.70   12.36
  -1  -2   4  233.51    5.24
   1   2   4  242.90    6.60
   1  -2  -5 1728.88   12.48
  -1  -2   5 1822.32   16.98
   1  -2  -5 1742.65   13.31
   1   2   5 1773.38   20.07
  -1   2  -5 1797.50   13.64
   1   2   6  383.33   10.45
  -1   2  -6  350.84    6.69
  -1  -2   6  384.92    8.99
   1  -2  -6  371.68    7.02
   1  -2  -6  366.47    6.21
  -1   2  -6  370.47    6.13
  -1   2  -7   58.16    2.98
   1   2   7   55.43    4.48
  -1  -2   7   61.31    4.14
   1  -2  -7   56.36    3.06
  -1   2  -7   60.56    2.74
   1  -2  -8   41.64    2.82
  -1   2  -8   38.48    2.65
  -1   2  -8   44.23    2.55
   1   2   8   42.19    4.10
   1  -2  -9   28.18    2.39
  -1   2  -9   28.46    2.33
  -1   2  -9   31.17    2.18
  -1   2 -10   28.61    2.13
   1  -2 -10   26.69    2.21
   1  -2 -10   28.23    2.24
   1  -2 -11   14.45    1.44
  -1   2 -11   15.89    1.41
  -1  -3 -11    6.69    0.91
   1   3 -11    7.28    1.10
   1   3 -10   12.15    1.43
  -1  -3  -9   31.51    2.18
   1   3  -9   31.95    2.16
   1   3  -9   33.03    2.39
  -1  -3  -9   31.83    2.32
   1   3  -8   44.22    2.59
  -1  -3  -8   46.09    2.89
  -1  -3  -8   39.10    2.49
   1   3  -8   43.64    2.73
  -1  -3  -7   50.82    2.78
   1   3  -7   48.05    2.76
  -1  -3  -7   53.03    2.79
   1   3  -7   48.46    2.64
   1  -3   7   51.78    3.94
  -1   3   7   45.00    3.97
  -1  -3  -6   86.47    3.26
   1   3  -6   81.21    3.28
  -1   3   6   86.86    5.07
   1  -3   6   80.66    4.64
   1   3  -6   85.75    3.27
  -1   3   5   28.37    2.70
  -1  -3  -5   24.68    1.66
   1  -3   5   23.64    2.26
   1   3  -5   23.51    1.63
   1   3  -5   25.06    1.71
   1   3  -4  131.91    3.48
  -1  -3  -4  127.96    3.44
  -1   3   4  133.31    5.27
   1  -3   4  126.07    4.67
   1   3  -4  126.93    3.44
   1  -3   3  164.22    4.73
  -1   3   3  174.44    5.55
   1  -3   2  226.00    5.02
   1  -3   2  215.68    5.24
  -1   3   2  224.70    5.77
   1  -3   1  116.95    3.53
   1  -3   1  122.35    3.49
  -1  -3  -1  120.81    4.09
   1   3   0 1887.74    9.64
  -1  -3   0 1888.81   15.88
   1  -3   0 1923.10   13.05
   1  -3  -1  121.30    3.16
   1   3   1  115.60    3.01
  -1  -3   1  121.28    4.16
   1   3   2  215.92    2.51
   1   3   2  223.59    5.04
  -1  -3   3  165.58    5.65
   1   3   3  170.05    5.15
   1  -3  -4  126.45    3.41
  -1  -3   4  134.75    5.55
  -1   3  -4  133.88    3.63
   1  -3  -4  130.88    3.54
   1   3   4  137.55    5.27
  -1   3  -5   25.10    1.77
   1  -3  -5   27.21    1.70
   1  -3  -5   25.24    1.76
  -1  -3   5   23.73    2.57
   1   3   5   24.73    2.60
  -1  -3   6   75.71    4.95
  -1   3  -6   82.73    3.43
   1   3   6   83.52    5.07
   1  -3  -6   81.97    3.40
   1  -3  -6   81.29    3.11
   1  -3  -7   50.10    2.98
  -1   3  -7   52.19    2.93
   1   3   7   45.81    4.12
  -1  -3   7   48.72    4.40
   1  -3  -8   45.82    2.99
  -1   3  -8   41.95    2.78
   1  -3  -9   32.62    2.52
  -1   3  -9   30.31    2.36
   1  -3 -10   12.48    1.51
  -1   3 -10   15.96    1.63
   1   3  10   14.76    1.71
   1  -3 -10   12.28    1.41
   1  -3 -11    5.42    0.90
  -1   3 -11    6.47    0.89
   1   4 -10   13.25    1.51
   1   4  -9   56.91    2.81
  -1  -4  -9   59.72    2.91
  -1  -4  -9   61.31    3.04
  -1  -4  -8    5.76    1.14
  -1  -4  -8    5.88    1.04
  -1  -4  -8    4.82    1.18
   1   4  -8    4.03    1.01
  -1   4   7    8.27    1.93
  -1  -4  -7    9.57    1.35
   1   4  -7    8.95    1.19
  -1  -4  -7    9.02    1.29
   1   4  -7    9.48    1.36
  -1  -4  -6   50.77    2.71
  -1   4   6   52.59    4.17
   1   4  -6   50.57    2.71
   1  -4   6   47.29    3.73
   1   4  -6   48.89    2.65
  -1  -4  -5  332.76    6.40
   1   4  -5  325.29    6.39
   1  -4   5  324.91    8.89
  -1   4   5  308.99    9.30
  -1   4   4  158.33    6.29
   1  -4   4  175.80    5.96
   1   4  -4  173.46    4.40
  -1  -4  -4  170.12    4.40
   1   4  -3  865.07    9.21
  -1  -4  -3  859.58    9.34
  -1   4   3  866.36   13.61
   1  -4   3  837.64   12.04
   1  -4   2   20.62    1.80
   1  -4   2   17.67    1.73
   1   4  -2   17.72    1.32
  -1   4   2   20.57    2.00
  -1  -4  -2   19.47    1.42
   1  -4   1  401.51    6.88
   1  -4   1  395.49    7.52
   1  -4   0  291.51    5.26
  -1  -4   0  277.29    7.13
   1   4   1  380.04    6.27
  -1  -4   1  392.05    8.60
   1  -4  -1  390.31    5.74
   1   4   2   20.09    1.75
   1   4   2   23.10    1.52
  -1  -4   2   23.95    2.30
   1  -4  -2   18.94    1.38
   1   4   3  851.66   12.44
   1  -4  -3  849.12    9.03
  -1  -4   3  883.70   14.30
  -1   4  -3  862.95    9.20
   1  -4  -3  851.08    9.10
   1  -4  -4  175.76    4.45
  -1   4  -4  167.81    4.40
   1  -4  -4  165.52    4.35
  -1  -4   4  172.46    6.83
   1   4   4  170.43    6.24
  -1   4  -5  324.37    6.58
   1   4   5  326.45    9.51
   1  -4  -5  321.45    6.53
   1  -4  -5  319.67    6.27
  -1  -4   5  318.26   10.00
   1  -4  -6   49.08    2.61
   1  -4  -6   47.99    2.78
  -1  -4   6   45.01    4.06
  -1   4  -6   49.93    2.80
   1   4   6   45.40    3.92
   1  -4  -7    8.58    1.42
   1   4   7    7.95    1.86
  -1  -4   7    5.66    1.54
   1  -4  -7    9.62    1.45
  -1   4  -7    7.95    1.30
   1  -4  -8    5.11    1.21
  -1   4  -8    3.88    1.16
   1  -4  -9   66.47    3.43
  -1   4  -9   63.72    3.25
   1   4  10   11.66    1.51
   1  -4 -10   13.64    1.40
  -1   4 -10   11.66    1.27
   1  -4 -10    9.92    1.29
   1   5 -10    0.00    0.56
  -1  -5  -9   30.01    1.93
   1   5  -9   28.57    1.91
  -1  -5  -8    3.84    1.14
   1   5  -8    3.87    0.98
  -1  -5  -8    0.99    0.79
  -1  -5  -8    1.27    0.62
  -1  -5  -7   98.50    4.05
   1   5  -7   93.34    3.90
   1   5  -6   70.53    3.36
  -1   5   6   64.10    4.85
  -1  -5  -6   68.85    3.34
   1   5  -5   47.04    2.70
  -1  -5  -5   51.76    2.78
  -1   5   5   44.56    3.84
  -1   5   4    4.65    1.12
  -1  -5  -4    3.82    0.66
  -1  -5  -4    3.24    0.91
   1  -5   4    5.57    1.15
   1   5  -4    4.70    1.00
  -1   5   3   40.10    3.28
   1   5  -3   44.30    2.39
   1  -5   3   45.68    3.18
   1  -5   3   44.32    2.36
  -1  -5  -3   49.22    2.53
  -1  -5  -2  347.97    6.42
  -1   5   2  345.12    8.89
   1  -5   2  352.33    8.44
   1  -5   2  335.61    6.19
   1   5  -2  336.97    6.24
   1   5  -1 1835.60   14.37
  -1   5   1 1873.48   13.02
   1  -5   1 1849.06   14.06
  -1  -5  -1 1875.05   14.60
   1  -5   1 1831.15   18.82
  -1  -5   0  269.59    8.03
   1   5   0  250.52    5.26
  -1  -5   0  249.54    4.79
  -1   5   0  257.46    4.89
   1  -5   0  249.10    5.18
  -1  -5   0  250.94    5.33
   1  -5  -1 1868.06   13.52
  -1  -5   1 1877.04   21.41
   1  -5  -1 1842.71   14.15
  -1   5  -1 1851.50   13.47
   1   5   1 1870.36   14.49
   1  -5  -2  339.39    6.33
  -1  -5   2  359.22    9.63
  -1   5  -2  350.72    6.13
   1  -5  -2  343.44    6.11
  -1   5  -3   44.13    2.32
   1  -5  -3   45.41    2.39
  -1  -5   3   43.76    3.52
   1  -5  -3   39.26    2.22
  -1   5  -4    5.12    0.99
   1  -5  -4    4.75    0.95
  -1  -5   4    5.14    1.26
   1  -5  -4    4.85    0.94
   1   5   4    2.69    0.85
   1  -5  -5   47.89    2.74
   1   5   5   44.55    3.68
   1  -5  -5   50.87    2.74
  -1   5  -5   50.04    2.80
  -1  -5   5   49.54    4.25
  -1  -5   6   76.08    5.41
   1  -5  -6   71.66    3.55
  -1   5  -6   67.39    3.40
   1  -5  -6   77.42    3.45
   1  -5  -7   95.65    4.23
  -1   5  -7   99.65    4.21
  -1   5  -8    3.89    1.05
   1  -5  -8    3.17    1.03
   1  -5  -9   31.61    2.27
  -1   5  -9   31.34    2.17
   1  -5 -10    1.11    0.52
  -1   5 -10    1.55    0.53
   1   5  10    1.21    0.54
   1   6  -9    5.80    0.99
  -1  -6  -8   46.50    2.57
   1   6  -8   47.13    2.56
   1   6  -8   50.40    2.87
  -1  -6  -8   51.25    2.76
  -1  -6  -7   90.41    3.84
   1  -6   7   84.33    3.49
   1   6  -7   79.99    3.59
   1  -6   6  244.70    6.12
  -1  -6  -6  238.47    6.29
   1   6  -6  237.67    6.28
  -1  -6  -5  104.69    4.15
   1   6  -5  104.60    4.20
  -1   6   5   92.91    5.72
   1  -6   5  101.03    3.96
  -1  -6  -4 1650.80   14.52
  -1  -6  -4 1619.58   15.74
   1   6  -4 1639.47   15.95
   1  -6   4 1619.07   15.41
  -1  -6  -3  123.15    4.28
   1  -6   3  120.04    5.71
  -1   6   3  128.06    6.13
   1  -6   3  130.63    4.31
   1   6  -3  135.45    4.55
   1  -6   2  637.03    9.28
  -1   6   2  635.11   13.16
   1  -6   2  606.23   12.49
   1   6  -2  632.49    9.57
  -1  -6  -2  641.18    9.55
  -1  -6  -1   59.83    2.92
   1  -6   1   57.11    2.82
  -1   6   1   64.98    2.74
   1   6  -1   57.95    2.87
  -1   6   1   60.66    3.93
   1   6   0   15.72    1.59
   1  -6   0   11.22    1.30
  -1  -6   0   14.71    1.34
  -1   6   0   15.50    1.34
  -1  -6   0   13.68    1.48
   1  -6  -1   55.77    2.60
  -1  -6   1   55.31    2.80
   1   6   1   61.62    3.00
  -1  -6   1   54.22    4.16
  -1   6  -1   59.04    2.70
   1  -6  -1   56.86    2.86
   1  -6  -2  628.86    9.42
  -1  -6   2  611.40   14.06
  -1  -6   2  617.06    9.24
  -1   6  -2  656.63    9.23
   1  -6  -2  635.34    9.03
   1  -6  -2  631.56    9.43
  -1   6  -3  125.47    4.26
   1  -6  -3  130.66    4.31
  -1  -6   3  128.74    6.75
   1  -6  -3  125.68    4.32
  -1   6  -4 1600.88   15.72
  -1  -6   4 1606.91   24.36
   1  -6  -4 1628.39   15.77
   1  -6  -4 1602.01   15.55
  -1  -6   5  107.39    6.58
   1  -6  -5   98.07    4.10
   1  -6  -5  101.33    4.04
  -1   6  -5  103.58    4.19
   1  -6  -6  244.78    6.24
   1  -6  -6  255.49    6.63
  -1   6  -6  252.96    6.58
   1  -6  -7   83.99    3.80
  -1   6  -7   87.81    3.88
   1  -6  -8   47.34    2.82
  -1   6  -8   50.77    2.79
   1  -6  -9    8.43    1.07
   1   6   9    6.11    1.17
  -1   6  -9    7.08    1.07
   1   7  -8   28.43    1.83
   1   7  -8   29.92    1.91
  -1  -7  -8   23.41    1.55
   1   7  -7    1.29    0.74
  -1  -7  -7    1.57    0.49
   1   7  -7   -0.56    0.55
  -1  -7  -7    1.35    0.70
  -1  -7  -6   13.60    1.63
   1   7  -6   12.00    1.40
   1  -7   6   13.29    1.47
   1   7  -6   10.95    1.44
   1   7  -5    5.20    1.10
   1  -7   5    4.95    1.09
  -1  -7  -5    3.16    1.05
   1   7  -4    1.27    0.89
  -1  -7  -4    1.81    0.75
  -1  -7  -4    1.71    0.83
   1  -7   4    0.83    0.71
   1  -7   3   23.64    2.05
   1   7  -3   23.54    2.08
  -1  -7  -3   25.99    2.17
   1   7  -2  145.97    4.98
   1  -7   2  145.13    4.77
  -1  -7  -2  154.61    4.97
  -1  -7  -1  265.67    6.42
   1   7  -1  277.02    6.82
   1  -7   1  259.80    6.35
  -1   7   1  283.32    6.22
  -1  -7   0    1.67    0.81
   1  -7   0    2.42    0.90
  -1   7   0    2.09    0.72
   1   7   0    1.84    0.63
  -1  -7   1  266.78    6.40
   1  -7  -1  257.61    6.44
   1  -7  -1  280.60    6.09
  -1   7  -1  285.40    6.45
   1   7   1  276.67    6.83
  -1  -7   2  147.05    4.73
   1  -7  -2  148.28    4.59
   1  -7  -2  147.21    4.88
  -1   7  -2  150.58    4.81
  -1  -7   2  148.95    7.49
  -1  -7   3   24.95    3.27
   1  -7  -3   20.59    1.88
   1  -7  -3   24.66    2.13
  -1  -7   3   23.08    1.91
  -1   7  -3   25.31    2.08
   1  -7  -4    0.81    0.72
  -1   7  -4    0.46    0.72
  -1  -7   4    1.06    0.74
   1  -7  -4    1.65    0.93
  -1   7  -5    4.88    1.13
   1  -7  -5    4.71    1.03
   1  -7  -5    4.18    1.03
   1  -7  -6   12.81    1.56
   1  -7  -6   11.63    1.43
  -1   7  -6   12.22    1.47
  -1   7  -7    0.10    0.55
   1  -7  -7    1.03    0.69
   1  -7  -8   28.57    1.91
  -1   7  -8   27.21    1.84
   1   7   8   26.85    2.04
   1   8  -7    1.23    0.57
  -1  -8  -7    3.76    0.78
  -1  -8  -6   41.38    2.32
   1   8  -6   38.08    2.28
   1   8  -5   49.47    2.79
   1  -8   5   50.08    2.53
  -1  -8  -5   51.56    2.77
   1  -8   4  188.65    5.15
  -1  -8  -4  190.68    5.41
   1   8  -4  192.65    5.61
  -1  -8  -4  197.68    5.23
  -1  -8  -3  166.04    5.11
  -1  -8  -3  173.38    5.05
   1  -8   3  164.89    5.03
   1   8  -3  166.10    5.36
   1  -8   2   32.55    2.35
   1   8  -2   40.39    2.66
  -1  -8  -2   33.70    2.39
  -1  -8  -1  214.44    5.81
   1  -8   1  216.28    5.93
   1   8  -1  222.00    6.31
   1  -8   0  179.22    5.47
  -1   8   0  185.64    5.27
  -1  -8   0  174.82    5.19
   1   8   0  182.77    5.70
   1  -8   0  186.07    5.52
  -1   8  -1  219.06    5.80
  -1  -8   1  212.55    5.68
   1  -8  -1  214.59    5.99
   1  -8  -2   34.26    2.24
  -1  -8   2   36.98    2.34
   1  -8  -2   37.09    2.58
  -1   8  -2   37.58    2.49
   1  -8  -3  174.49    5.37
  -1  -8   3  156.78    4.60
  -1   8  -3  175.80    5.28
   1  -8  -3  164.71    4.84
   1  -8  -4  185.50    5.44
  -1   8  -4  195.89    5.54
   1  -8  -4  191.13    5.22
   1  -8  -5   46.44    2.57
   1  -8  -5   49.97    2.69
  -1   8  -5   53.20    2.87
  -1   8  -6   39.32    2.29
   1   8   6   37.51    2.37
   1  -8  -6   37.72    2.24
   1  -8  -6   37.74    2.15
  -1   8  -7    2.06    0.63
   1  -8  -7    2.64    0.67
  -1  -9  -5   10.10    1.16
   1   9  -5   10.99    1.19
  -1  -9  -4    9.04    1.10
  -1  -9  -4   10.71    1.23
   1   9  -4    9.71    1.20
  -1  -9  -3   29.01    1.99
  -1  -9  -3   25.86    1.82
   1  -9   3   29.10    1.86
   1   9  -3   29.12    2.12
  -1  -9  -2   74.00    3.13
   1   9  -2   78.33    3.52
   1  -9   2   74.73    3.18
   1  -9   2   76.55    3.16
  -1  -9  -2   70.82    3.13
   1  -9   1   38.70    2.36
  -1  -9  -1   39.47    2.30
  -1  -9   0  107.44    3.71
   1  -9   0  120.45    4.21
  -1   9  -1   41.74    2.39
  -1  -9   1   37.92    2.20
   1  -9  -1   43.45    2.59
   1  -9  -2   76.73    3.41
  -1   9  -2   73.76    3.14
   1  -9  -3   27.50    2.02
  -1   9  -3   28.56    1.99
   1  -9  -4   10.32    1.17
  -1   9  -4    9.99    1.23
   1  -9  -5    8.89    1.08
  -1   9  -5   10.00    1.10
   1 -10   1   10.83    1.16
  -1 -10  -1   13.47    1.22
  -1 -10   0    3.60    0.73
   1 -10   0    3.31    0.72
   1 -10  -1   12.18    1.23
  -1 -10   1   14.56    1.25
  -1 -10   2   34.52    1.81
   1 -10  -2   32.90    1.84
   2   0  -1 9999.00   30.94
   2   0   1 9835.49   32.18
   2   0   2 6942.12   29.56
  -2   0   2 6988.44   24.80
  -2   0   3  822.36    9.52
   2   0   3  821.60   11.11
  -2   0   4  351.51    7.08
   2   0   4  350.60    8.27
  -2   0  -5  270.11    5.70
   2   0  -5  255.13    4.92
   2   0   5  269.92    5.74
   2   0  -5  260.24    5.23
  -2   0   5  253.47    6.91
   2   0   5  259.07    8.03
  -2   0  -6  471.68    8.18
   2   0  -6  482.71    8.00
   2   0  -6  454.86    6.97
   2   0  -6  464.33    7.70
  -2   0   6  491.79   10.70
   2   0   6  476.90    8.18
   2   0   6  485.49   12.22
  -2   0   7   58.11    4.13
   2   0  -7   53.16    2.93
   2   0  -7   55.71    2.94
   2   0  -7   57.44    2.61
   2   0   7   59.46    4.78
   2   0  -7   55.83    3.02
  -2   0  -7   58.35    3.17
   2   0  -8  609.64   10.41
   2   0   8  627.42   16.40
  -2   0   8  608.60   14.32
   2   0  -8  611.12   10.22
   2   0  -8  617.92   10.08
  -2   0  -8  598.62   10.48
   2   0  -9    0.99    0.82
  -2   0  -9    1.37    0.86
  -2   0 -10   46.27    2.76
   2   0 -10   42.66    2.68
  -2   0 -10   43.03    2.41
  -2   0 -11   64.71    2.77
   2   0 -11   66.43    2.92
  -2  -1 -11    9.93    1.00
   2   1 -11    9.11    1.18
  -2  -1 -11    9.37    1.11
   2   1 -10   22.61    1.97
   2   1 -10   26.66    2.03
  -2  -1 -10   21.92    1.93
   2   1  -9   57.29    3.29
   2   1  -9   57.64    3.30
  -2  -1  -9   55.51    3.23
  -2   1   8   16.62    2.63
   2   1  -8   18.72    2.02
   2   1  -8   22.42    2.05
   2  -1   8   22.42    3.45
  -2  -1  -8   22.43    2.19
  -2  -1  -7   14.05    1.68
  -2   1   7   14.01    2.07
   2   1  -7   12.26    1.49
   2   1  -7   12.09    1.17
   2  -1   7   15.63    2.59
  -2  -1  -6  246.17    6.08
   2  -1   6  253.67    8.93
   2   1  -6  234.78    5.54
   2   1  -6  237.71    5.64
  -2   1   6  238.77    7.86
   2   1  -6  231.09    4.90
   2   1  -5  744.17    8.24
   2  -1   5  759.50   14.07
   2   1  -5  768.79    9.06
  -2   1   5  763.34   12.66
   2   1  -5  752.62    8.96
   2  -1   4   19.91    2.20
  -2   1   4   17.59    1.82
  -2   1   3  323.78    6.86
   2  -1   3  325.87    7.38
   2  -1   2 2083.96   17.29
   2  -1   1  423.77    7.16
   2   1  -1  414.39    5.81
   2  -1   0  187.28    4.62
   2   1   0  184.85    3.92
  -2  -1   0  189.54    3.66
   2  -1  -1  414.74    6.80
   2   1   1  422.24    6.11
  -2  -1   1  408.82    5.99
  -2  -1   1  421.58    4.04
  -2  -1   2 2110.34   10.82
   2   1   2 2079.59   15.16
   2   1   2 2089.74   14.75
   2  -1  -2 2110.41   15.58
   2   1   3  316.29    6.77
  -2  -1   3  329.43    5.28
   2   1   4   17.81    2.00
  -2  -1   4   29.68    1.96
   2   1   5  758.30   13.75
   2  -1  -5  777.14    9.19
  -2   1  -5  750.06    9.36
   2  -1  -5  763.22    8.78
  -2  -1   5  790.93   11.28
   2   1   6  239.80    8.60
   2  -1  -6  239.30    5.70
   2  -1  -6  245.20    5.31
  -2  -1   6  253.30    7.40
  -2   1  -6  238.51    5.80
   2  -1  -7   14.08    1.63
  -2  -1   7   13.29    2.04
   2   1   7   13.82    1.68
   2   1   7   15.35    2.47
  -2   1  -7   14.54    1.69
   2  -1  -7   14.80    1.40
   2  -1  -8   21.26    2.14
   2   1   8   17.95    3.00
   2  -1  -8   20.84    2.05
  -2   1  -8   19.52    2.03
   2   1   8   24.22    2.33
   2  -1  -9   57.32    3.35
   2  -1  -9   54.60    3.18
  -2   1  -9   52.89    3.19
  -2   1 -10   22.66    1.98
   2  -1 -10   22.71    1.98
   2  -1 -11   10.86    1.24
  -2   1 -11   10.44    1.13
   2   2 -10   11.01    1.39
   2   2 -10   10.73    1.46
  -2  -2 -10   11.16    1.42
   2   2  -9   25.79    2.22
   2   2  -9   22.72    2.28
  -2  -2  -9   22.58    2.19
  -2  -2  -8  145.35    5.32
   2   2  -8  140.89    5.00
   2   2  -7  192.96    5.54
  -2  -2  -7  195.85    5.99
  -2   2   7  204.84    8.38
   2   2  -6    6.11    0.85
   2   2  -6    5.27    0.94
  -2   2   6    3.49    1.26
   2   2  -5  217.79    4.52
  -2  -2  -5  215.89    4.41
   2   2  -5  209.06    4.95
   2   2  -4  378.12    5.55
   2   2  -4  386.02    6.11
   2  -2   3  104.12    4.59
   2  -2   3  102.01    2.90
  -2   2   3  104.32    4.34
   2  -2   2   97.35    4.00
   2  -2   2   99.24    2.24
   2  -2   1  889.32   11.07
  -2  -2  -1  923.99   10.00
  -2  -2   0   86.64    3.11
   2   2   0   80.31    2.24
   2  -2   0   87.45    3.39
   2  -2  -1  899.04   10.54
   2   2   1  876.18    6.96
  -2  -2   1  895.38   10.49
   2   2   1  886.06    7.90
   2   2   2  102.83    3.24
   2   2   2   99.68    3.01
  -2  -2   2  105.80    3.96
   2  -2  -2  104.57    3.70
   2   2   3  103.55    4.03
   2   2   3  104.73    3.68
  -2  -2   3  104.67    4.33
   2  -2  -4  386.76    6.11
   2   2   4  379.68    8.93
  -2   2  -4  402.93    6.23
   2   2   4  383.30    5.73
   2  -2  -5  219.99    5.12
   2   2   5  218.76    7.65
  -2   2  -5  226.36    5.20
   2  -2  -5  228.99    5.14
   2   2   5  219.25    4.60
   2  -2  -6    4.89    0.98
   2  -2  -6    6.42    0.99
  -2   2  -6    4.91    0.98
   2   2   6    7.06    1.62
   2   2   7  190.74    8.58
   2  -2  -7  199.03    5.78
  -2   2  -7  202.80    5.77
   2  -2  -7  198.84    5.17
   2  -2  -8  142.24    5.18
  -2   2  -8  143.15    5.13
   2   2   8  145.49    5.67
   2  -2  -9   23.20    2.16
   2  -2  -9   24.73    2.16
   2   2   9   22.13    2.19
  -2   2  -9   21.41    2.03
   2  -2 -10   12.45    1.54
   2  -2 -10    8.25    1.29
  -2   2 -10   11.05    1.42
   2  -2 -11   18.95    1.51
  -2   2 -11   21.26    1.57
  -2  -3 -10    3.05    0.85
   2   3 -10    1.61    0.69
  -2  -3  -9   21.54    2.02
   2   3  -9   23.02    2.29
   2   3  -9   21.44    1.94
  -2  -3  -8   14.83    1.79
   2   3  -8   14.16    1.71
   2  -3   7   68.87    5.36
  -2  -3  -7   66.07    3.00
   2   3  -7   64.12    3.29
  -2   3   7   55.43    4.55
   2   3  -6   31.09    2.18
  -2  -3  -6   33.65    2.07
   2   3  -6   30.72    1.99
  -2   3   6   27.45    3.08
  -2   3   5    8.02    1.73
  -2  -3  -5   11.20    1.15
   2   3  -5   10.90    1.12
   2  -3   5   12.50    2.13
   2   3  -5   11.01    1.26
   2  -3   4  216.69    7.46
  -2   3   4  208.16    7.20
   2   3  -4  196.47    4.68
   2   3  -4  196.85    4.48
  -2  -3  -4  201.46    4.43
  -2   3   3  271.95    7.67
  -2  -3  -3  273.74    4.95
   2  -3   3  286.23    7.78
   2  -3   2  324.19    7.60
   2  -3   2  330.15    5.23
   2  -3   1  425.78    8.13
  -2  -3  -1  424.11    8.06
   2  -3   0  174.51    5.05
  -2  -3   0  178.47    5.31
   2  -3  -1  423.13    7.66
  -2  -3   1  427.90    8.46
  -2  -3   2  331.38    7.86
   2  -3  -2  334.75    6.83
   2  -3  -3  267.78    5.10
  -2  -3   3  280.61    7.79
  -2   3  -3  273.57    4.92
   2  -3  -4  195.89    4.70
   2   3   4  187.56    6.53
   2  -3  -4  202.11    4.76
  -2  -3   4  207.69    7.30
  -2   3  -4  204.84    4.69
   2   3   4  200.02    4.40
   2  -3  -5   11.28    1.34
   2   3   5   11.88    1.95
   2  -3  -5   11.74    1.27
   2   3   5   10.18    1.03
  -2   3  -5   12.01    1.32
  -2  -3   5   12.39    2.06
   2  -3  -6   30.60    2.24
   2   3   6   35.13    3.47
  -2  -3   6   32.77    3.45
  -2   3  -6   28.95    2.17
   2  -3  -6   32.58    2.19
   2   3   7   57.54    4.79
   2  -3  -7   68.06    3.54
   2  -3  -7   63.64    3.13
  -2  -3   7   61.76    5.04
  -2   3  -7   62.74    3.36
  -2   3  -8   13.98    1.69
   2  -3  -8   13.34    1.71
   2   3   8   17.39    2.25
   2  -3  -9   23.56    2.18
   2   3   9   19.85    2.33
  -2   3  -9   19.81    1.94
   2  -3  -9   19.34    1.85
   2  -3 -10    3.06    0.82
  -2   3 -10    2.52    0.84
   2  -3 -10    3.68    0.82
   2   3  10    3.80    0.79
   2   4 -10   36.51    2.31
  -2  -4  -9   62.26    3.21
   2   4  -9   67.44    3.62
  -2  -4  -8   33.19    2.59
  -2  -4  -8   35.74    2.31
   2   4  -8   38.10    3.00
  -2  -4  -7  253.09    6.03
   2   4  -7  240.75    5.94
   2   4  -6    4.57    0.79
  -2  -4  -6    3.89    1.01
  -2   4   6    5.98    1.51
   2  -4   6    5.50    1.54
  -2  -4  -5   82.67    3.28
   2  -4   5   84.28    5.22
  -2   4   5   84.81    5.20
   2   4  -5   78.98    3.28
   2   4  -4  191.05    4.81
  -2  -4  -4  190.30    4.72
  -2   4   4  194.39    7.53
   2  -4   4  179.15    7.02
   2   4  -3  131.04    3.81
  -2  -4  -3  131.19    3.84
  -2   4   3  138.45    5.98
   2  -4   3  137.83    5.68
   2  -4   2  426.35    9.23
  -2  -4  -2  409.78    6.71
   2   4  -2  419.03    6.61
   2   4  -2  423.76    6.75
  -2  -4  -1 1436.36   12.44
   2  -4   1 1442.36   11.93
   2  -4   1 1493.94   16.20
   2   4  -1 1472.30   12.04
   2   4   0    1.10    0.56
   2  -4   0    2.21    0.58
   2  -4   0    1.81    0.52
   2  -4   0    1.43    0.62
   2  -4   0    2.37    0.89
  -2  -4   0    1.21    0.91
  -2  -4   1 1479.95   17.78
   2   4   1 1431.33   12.24
   2  -4  -1 1452.73   11.81
   2  -4  -1 1462.26   12.24
   2  -4  -2  421.60    6.53
   2  -4  -2  437.81    6.89
  -2   4  -2  422.30    6.11
  -2  -4   2  428.60   10.09
   2  -4  -3  131.85    3.86
   2  -4  -3  133.40    4.03
  -2   4  -3  142.62    3.86
   2  -4  -3  132.54    3.83
  -2  -4   3  133.38    5.96
   2  -4  -4  185.50    4.91
  -2   4  -4  188.26    4.79
  -2  -4   4  190.16    7.62
   2  -4  -4  186.27    4.90
   2   4   4  180.73    4.43
   2  -4  -5   82.57    3.48
  -2  -4   5   76.83    5.21
   2  -4  -5   80.18    3.51
  -2   4  -5   80.88    3.40
   2   4   5   75.17    2.91
   2  -4  -6    6.29    1.14
  -2   4  -6    3.69    1.00
  -2  -4   6    3.98    1.48
   2  -4  -7  241.20    6.71
   2  -4  -7  250.57    6.28
  -2   4  -7  239.28    6.46
   2  -4  -8   34.69    2.58
   2   4   8   32.33    2.94
  -2   4  -8   33.77    2.54
   2  -4  -9   63.79    3.31
   2   4   9   61.11    3.57
   2  -4  -9   71.00    3.17
  -2   4  -9   67.70    3.31
   2  -4 -10   34.30    2.16
  -2   4 -10   38.10    2.18
   2   4  10   34.13    2.25
  -2  -5  -9    8.80    1.15
   2  -5   9    8.00    1.17
   2   5  -9   10.67    1.45
  -2  -5  -8   25.42    2.23
  -2  -5  -8   25.86    1.97
   2   5  -8   26.64    2.38
   2   5  -7   21.50    1.88
   2   5  -7   23.90    2.31
  -2  -5  -7   22.42    1.93
   2   5  -6   69.97    3.31
   2   5  -6   68.69    3.78
  -2  -5  -6   70.24    3.32
  -2   5   5  111.31    6.28
   2   5  -5  108.73    4.11
   2  -5   5  116.06    6.31
  -2  -5  -5  118.40    4.21
  -2   5   4  274.54    9.55
  -2  -5  -4  284.06    6.30
   2  -5   4  282.61    8.99
   2   5  -4  277.22    6.33
   2   5  -4  294.20    6.93
   2  -5   3  437.60    7.72
   2   5  -3  426.07    7.61
  -2  -5  -3  435.23    7.67
   2  -5   3  434.74   10.41
  -2   5   3  419.33   11.27
   2   5  -3  433.51    7.78
   2   5  -2   38.51    2.28
  -2   5   2   37.25    3.26
   2  -5   2   40.73    2.38
  -2  -5  -2   38.36    2.32
   2  -5   2   40.62    3.01
   2   5  -1  223.82    5.33
   2  -5   1  231.98    5.35
  -2  -5  -1  229.38    5.50
  -2  -5   0  483.72    8.02
  -2  -5   0  493.25   11.46
   2   5   0  485.28    7.86
   2  -5   0  491.43    7.71
   2  -5   0  478.45    7.76
   2   5   1  229.91    5.50
   2  -5  -1  232.81    5.51
  -2  -5   1  226.10    7.94
   2  -5  -1  231.97    5.33
  -2   5  -1  227.47    4.68
  -2  -5   2   33.74    3.26
   2  -5  -2   39.08    2.38
  -2   5  -2   39.09    2.05
   2  -5  -2   36.49    2.09
   2  -5  -2   37.58    2.26
   2  -5  -3  419.04    7.43
  -2  -5   3  448.27   12.04
  -2   5  -3  425.46    7.18
   2  -5  -3  437.83    8.02
   2  -5  -4  271.47    6.37
   2   5   4  273.86    5.69
  -2  -5   4  286.22   10.01
  -2   5  -4  270.99    6.16
   2  -5  -4  273.62    6.50
   2  -5  -5  116.11    4.43
   2  -5  -5  112.50    4.34
  -2  -5   5  113.52    6.64
  -2   5  -5  115.52    4.26
   2  -5  -6   72.44    3.52
  -2   5  -6   67.30    3.41
   2  -5  -7   21.64    2.12
   2  -5  -7   22.69    2.04
  -2   5  -7   20.30    1.98
   2  -5  -8   23.83    2.12
   2   5   8   25.43    2.61
  -2   5  -8   25.82    2.12
   2  -5  -9    7.28    1.19
  -2   5  -9    7.60    1.09
   2   5   9    8.20    1.46
   2   6  -9   31.04    1.93
  -2  -6  -8   73.21    3.25
  -2  -6  -8   76.06    3.10
   2   6  -8   82.96    3.61
   2  -6   8   77.10    3.11
   2   6  -7  136.49    4.45
   2  -6   7  138.03    4.61
   2   6  -7  141.11    5.01
  -2  -6  -7  136.00    4.48
  -2  -6  -6  208.67    5.75
   2   6  -6  196.15    5.61
   2  -6   6  208.17    5.88
   2   6  -6  216.66    6.32
  -2  -6  -5  231.54    6.10
   2   6  -5  230.84    6.22
   2  -6   5  232.36    6.24
   2   6  -5  230.56    6.38
  -2  -6  -4  104.39    4.11
   2   6  -4  107.17    4.19
   2   6  -4   96.08    4.04
   2  -6   4  101.05    4.15
  -2   6   4   96.11    5.88
  -2  -6  -3   24.56    2.09
   2   6  -3   24.04    2.09
  -2   6   3   24.78    2.99
   2  -6   3   24.57    2.15
  -2   6   2  378.10   11.06
  -2  -6  -2  371.73    7.58
   2   6  -2  370.06    7.63
   2  -6   2  377.47    7.57
  -2  -6  -1   14.80    1.67
   2  -6   1   16.78    1.64
   2   6  -1   15.23    1.60
   2  -6   1   16.46    1.71
   2  -6   0  400.53    7.81
   2   6   0  380.23    7.74
  -2  -6   0  385.68    7.76
   2  -6   0  388.87    7.53
  -2  -6   1   16.20    1.73
   2  -6  -1   15.56    1.66
   2   6   1   15.88    1.73
   2  -6  -1   17.80    1.72
  -2   6  -1   14.98    1.40
  -2  -6   1   20.80    2.72
   2  -6  -2  389.63    7.89
  -2  -6   2  381.88   11.69
   2  -6  -2  376.20    7.55
  -2   6  -2  374.98    6.89
   2  -6  -3   26.00    2.05
   2  -6  -3   27.23    2.25
  -2  -6   3   25.90    3.15
  -2   6  -3   26.32    1.98
   2  -6  -4  102.04    4.08
   2  -6  -4   95.54    4.09
  -2  -6   4  100.57    6.38
  -2   6  -4  103.68    3.97
   2  -6  -5  225.83    6.24
   2  -6  -5  216.63    6.17
  -2   6  -5  236.65    6.13
  -2   6  -6  206.32    5.81
   2  -6  -6  210.67    5.97
   2  -6  -7  142.90    4.97
   2   6   7  144.86    5.77
  -2   6  -7  144.77    4.76
   2  -6  -7  148.68    4.73
   2  -6  -8   75.47    3.39
  -2   6  -8   82.45    3.37
   2   6   8   81.19    3.98
   2   6   9   30.95    2.15
   2  -6  -9   29.94    1.87
  -2   6  -9   30.71    1.83
  -2  -7  -7   11.93    1.37
   2   7  -7    9.03    1.10
   2  -7   7   11.17    1.29
   2   7  -7   11.75    1.34
   2   7  -6   58.89    2.95
  -2  -7  -6   61.59    3.04
   2   7  -6   53.67    2.85
   2  -7   6   60.28    3.00
   2   7  -5   11.86    1.61
   2  -7   5   11.82    1.59
  -2  -7  -4  120.29    4.52
   2   7  -4  117.71    4.53
   2  -7   4  116.62    4.47
  -2  -7  -3   32.08    2.46
   2   7  -3   37.72    2.65
   2  -7   3   32.11    2.43
   2   7  -2    6.39    1.21
   2  -7   2    5.78    1.11
  -2  -7  -2    5.29    1.23
   2  -7   2    7.07    1.34
  -2   7   2    5.46    1.38
  -2   7   1   21.39    2.77
   2  -7   1   18.89    1.80
   2   7  -1   17.77    1.91
   2  -7   1   20.11    1.98
  -2  -7  -1   17.44    1.88
  -2  -7   0    8.91    1.41
   2  -7   0    9.12    1.42
   2   7   0    9.22    1.47
   2  -7   0    9.02    1.47
  -2   7   0   10.35    1.89
   2  -7  -1   17.49    1.85
   2  -7  -1   16.92    1.89
  -2   7  -1   20.14    1.71
  -2  -7   1   18.24    1.88
  -2   7  -2    7.43    1.10
   2  -7  -2    7.27    1.33
  -2  -7   2    6.72    1.26
   2  -7  -3   36.56    2.42
  -2  -7   3   35.47    2.55
  -2   7  -3   33.65    2.25
   2  -7  -3   33.01    2.52
   2  -7  -4  118.41    4.34
   2  -7  -4  118.84    4.65
  -2  -7   4  112.36    4.34
   2   7   4  122.96    4.92
  -2   7  -4  123.61    4.36
   2  -7  -5   13.74    1.60
  -2  -7   5   13.03    1.51
   2  -7  -5   15.45    1.70
   2   7   5   16.19    1.90
  -2   7  -5   11.76    1.43
   2  -7  -6   60.30    3.04
  -2   7  -6   60.37    3.00
   2   7   6   58.39    3.43
   2  -7  -7   12.49    1.44
   2   7   7   15.72    1.76
  -2   7  -7   13.78    1.39
   2  -7  -7   12.22    1.29
  -2   7  -8    6.83    0.87
   2  -7  -8    6.29    0.92
   2   7   8    4.71    0.94
   2   8  -6   12.84    1.23
   2  -8   6   11.26    1.18
  -2  -8  -6   13.00    1.34
   2   8  -5   42.72    2.50
   2  -8   5   41.60    2.37
  -2  -8  -5   43.14    2.45
   2   8  -4    2.79    0.85
  -2  -8  -4    4.45    1.02
   2  -8   4    4.51    1.02
  -2  -8  -3   12.49    1.37
   2   8  -3   12.79    1.58
  -2  -8  -3   16.01    1.76
   2  -8   3   14.02    1.67
   2  -8   2  145.76    4.65
   2   8  -2  140.29    4.98
   2  -8   2  142.41    4.89
  -2  -8  -2  141.86    4.88
  -2  -8  -1  232.66    6.23
   2  -8   1  226.03    6.22
   2  -8   1  228.14    6.09
   2   8  -1  222.59    6.32
   2  -8   0    3.63    1.04
   2  -8   0    5.51    1.32
  -2  -8   0    5.13    1.16
   2  -8  -1  222.86    6.25
  -2  -8   1  225.39    6.12
  -2   8  -2  130.02    4.17
  -2  -8   2  136.12    4.68
   2  -8  -3   13.77    1.65
  -2  -8   3   12.19    1.45
  -2   8  -3   14.83    1.44
  -2   8  -4    4.14    0.95
   2  -8  -4    3.14    0.94
  -2   8  -5   40.75    2.31
   2  -8  -5   41.73    2.51
   2  -8  -6   10.04    1.20
   2  -8  -6   12.43    1.29
  -2   8  -6    9.92    1.08
   2  -9   4   65.12    2.66
  -2  -9  -4   64.38    2.71
   2   9  -4   66.89    2.83
  -2  -9  -3   19.89    1.44
   2   9  -3   19.42    1.67
   2  -9   3   21.31    1.68
  -2  -9  -3   20.10    1.64
  -2  -9  -2   70.09    3.06
   2  -9   2   70.35    3.12
  -2  -9  -2   65.25    2.81
   2  -9   1   34.26    2.14
   2  -9   1   34.61    2.28
  -2  -9  -1   31.65    2.10
   2  -9   0   34.93    2.30
  -2  -9   0   34.33    2.22
  -2  -9   1   33.64    2.16
   2  -9  -1   38.50    2.45
   2  -9  -2   72.29    3.25
  -2  -9   2   60.62    2.74
   2  -9  -3   19.24    1.67
   2  -9  -4   67.06    2.86
   3   0   0   -0.22    0.66
   3   0  -1 1398.48   14.62
   3   0   1 1364.20   15.04
  -3   0   1 1389.80   10.06
  -3   0   2  319.34    6.26
   3   0   2  308.81    7.53
   3   0  -2  320.88    7.11
   3   0  -3  904.49    8.98
  -3   0   3  908.74   11.44
   3   0   3  912.60   14.24
   3   0   3  898.75    8.67
   3   0  -3  912.91    8.73
   3   0   3  940.68    8.78
   3   0  -4 1714.01   12.78
  -3   0  -4 1720.31   14.06
   3   0  -4 1749.21   13.28
   3   0   4 1753.19   15.46
   3   0   4 1740.26   22.00
   3   0  -4 1750.95   14.70
   3   0  -4 1713.98   13.47
   3   0  -5  161.64    4.41
  -3   0  -5  167.38    4.77
   3   0  -5  167.06    4.47
   3   0  -5  165.15    4.93
   3   0  -5  174.77    4.66
  -3   0   5  171.14    5.91
   3   0   5  168.19    7.37
   3   0   5  165.43    5.09
   3   0  -6    4.41    0.91
   3   0  -6    7.45    1.15
  -3   0  -6    5.36    1.01
   3   0  -6    7.24    1.27
   3   0   6    7.62    1.83
   3   0   6    3.58    1.35
  -3   0   6    5.71    1.38
   3   0  -6    7.14    1.10
   3   0  -7   73.82    3.53
   3   0  -7   77.02    3.32
   3   0   7   76.35    3.80
   3   0   7   65.07    5.73
   3   0  -7   81.60    3.73
   3   0   7   73.52    5.70
   3   0  -7   73.36    3.66
  -3   0  -7   74.67    3.72
   3   0  -8  104.24    3.81
   3   0  -8   99.91    4.27
   3   0  -8   93.74    4.08
  -3   0  -8  109.86    4.59
   3   0  -9   26.80    2.25
  -3   0  -9   26.31    2.29
   3   0 -10   32.83    2.26
  -3   0 -10   35.29    2.37
   3   1 -10   10.05    1.34
  -3  -1 -10    9.62    1.30
  -3  -1  -9    7.21    1.34
   3   1  -9    7.30    1.22
   3   1  -9    5.76    1.17
   3   1  -8  176.12    4.90
   3   1  -8  169.90    5.59
   3   1  -8  177.21    6.06
  -3  -1  -8  179.12    5.93
  -3  -1  -7   54.39    3.26
   3   1  -7   53.69    2.75
   3   1  -7   57.73    3.19
  -3   1   7   49.18    4.13
   3  -1   7   43.61    4.76
   3   1  -7   54.94    3.44
  -3  -1  -6  138.94    4.87
   3   1  -6  129.43    4.11
   3  -1   6  130.46    7.58
   3   1  -6  133.68    4.50
  -3   1   6  126.90    5.96
   3   1  -6  126.32    5.02
   3   1  -5   32.73    1.99
   3  -1   5   33.28    3.65
   3   1  -5   32.27    2.44
   3   1  -5   37.12    2.21
  -3   1   5   31.73    2.81
   3   1  -4  429.10    6.67
  -3   1   4  444.32    9.75
   3  -1   4  438.23   11.54
   3   1  -4  440.72    6.87
   3   1  -4  413.75    7.75
  -3   1   3  262.83    6.94
   3   1  -3  254.30    4.76
   3  -1   3  258.58    7.99
   3  -1   3  255.01    4.78
   3   1  -3  250.12    5.53
   3  -1   2  203.05    6.47
   3  -1   1  107.95    4.51
   3   1  -1  110.22    3.85
   3   1   0  580.82    8.95
   3  -1   0  561.18    9.89
  -3  -1   0  575.99    6.91
   3   1   1  110.07    4.00
   3  -1  -1  116.59    4.48
  -3  -1   1  111.90    3.48
   3   1   2  191.23    5.60
  -3  -1   2  193.83    3.87
  -3  -1   2  196.83    5.25
   3  -1  -2  204.67    5.93
   3  -1  -3  257.35    4.99
   3   1   3  249.08    7.04
   3   1   3  253.43    5.87
   3  -1  -3  255.98    4.78
   3   1   3  249.61    7.01
   3   1   3  252.90    4.74
  -3   1  -4  436.91    6.87
   3  -1  -4  432.28    6.50
   3  -1  -4  433.07    6.58
   3  -1  -4  424.97    6.89
   3   1   4  439.14    8.37
   3   1   4  450.67   10.54
   3  -1  -4  430.13    6.47
   3   1   4  434.90    6.36
   3   1   4  437.32   10.60
   3  -1  -4  417.11    6.69
   3   1   4  421.64    6.53
   3  -1  -5   34.37    2.10
   3   1   5   35.14    2.65
   3  -1  -5   34.37    2.11
   3   1   5   31.72    3.22
   3  -1  -5   35.47    2.14
   3  -1  -5   32.04    2.04
   3   1   5   33.89    3.41
  -3   1  -5   37.85    2.28
   3  -1  -6  130.74    4.40
   3   1   6  130.56    7.13
   3  -1  -6  127.31    4.27
   3  -1  -6  136.14    4.52
   3   1   6  133.35    5.20
   3   1   6  119.67    6.75
   3  -1  -6  117.19    4.01
  -3   1  -6  124.30    4.41
   3  -1  -7   53.75    3.07
   3  -1  -7   55.04    2.85
   3   1   7   49.03    4.66
   3   1   7   60.31    3.64
   3  -1  -7   58.71    3.18
   3   1   7   59.03    5.10
  -3   1  -7   55.74    3.15
   3  -1  -8  175.99    5.63
   3  -1  -8  180.26    5.68
   3   1   8  172.83    5.95
   3  -1  -8  175.98    5.02
  -3   1  -8  170.79    5.61
  -3   1  -9    7.41    1.25
   3  -1  -9    7.20    1.25
   3  -1 -10   11.01    1.34
  -3   1 -10   12.44    1.52
  -3  -2 -10    0.41    0.50
   3   2 -10    2.28    0.80
   3   2  -9   35.72    2.52
   3   2  -9   38.94    2.80
  -3  -2  -9   36.29    2.61
  -3  -2  -8   49.81    3.26
   3   2  -8   46.68    3.29
   3   2  -8   43.77    2.88
  -3  -2  -7  138.29    5.25
   3   2  -7  137.50    4.91
  -3   2   7  138.15    7.02
   3  -2   7  145.86    8.53
   3   2  -7  128.29    5.49
   3   2  -6  277.79    6.04
   3  -2   6  297.45   11.59
   3   2  -6  273.88    6.55
  -3   2   6  276.19    9.37
  -3   2   5   35.82    3.24
   3   2  -5   32.69    2.18
   3  -2   5   38.50    3.94
   3   2  -5   32.43    2.62
   3   2  -5   39.27    2.20
   3   2  -4   16.30    1.36
  -3   2   4   15.48    2.05
   3   2  -4   14.09    1.36
   3  -2   4   15.68    2.44
   3   2  -4   16.33    1.70
  -3   2   3 1251.07   16.92
   3  -2   3 1275.25   18.40
   3   2  -3 1247.54   13.09
   3   2  -2  582.30    6.87
   3  -2   2  589.74   11.54
   3  -2   2  594.75    7.08
   3   2  -2  593.26    8.26
   3  -2   1   48.61    3.22
   3   2   0  394.85    6.65
   3  -2   0  413.62    8.92
  -3  -2   0  409.63    7.27
   3  -2  -1   51.27    3.16
   3   2   1   50.12    2.55
  -3  -2   1   54.08    2.86
   3   2   2  579.78    8.88
   3   2   2  591.00    8.86
   3  -2  -2  578.03    6.97
   3  -2  -2  572.46    7.35
   3  -2  -2  591.53    7.50
  -3  -2   2  587.14   10.10
   3  -2  -2  593.56   10.44
   3  -2  -3 1255.25   11.14
   3   2   3 1236.49   14.33
   3   2   3 1298.52   14.26
   3   2   3 1243.06   15.21
  -3  -2   3 1286.97   16.30
   3  -2  -3 1302.91   11.77
  -3   2  -3 1259.75   10.44
   3   2   3 1263.68   11.30
   3  -2  -4   13.40    1.28
   3  -2  -4   14.65    1.45
  -3  -2   4   13.27    1.95
   3   2   4   16.43    1.96
   3   2   4   14.79    1.83
   3   2   4   15.17    1.19
   3  -2  -4   15.74    1.35
   3   2   4   16.05    1.99
  -3   2  -4   17.56    1.43
   3   2   4   15.36    1.33
   3  -2  -5   37.57    2.28
   3  -2  -5   38.62    2.36
   3  -2  -5   37.89    2.22
   3   2   5   38.32    3.09
   3   2   5   39.48    3.18
   3  -2  -5   41.04    2.19
  -3  -2   5   39.55    3.60
   3   2   5   32.35    3.24
  -3   2  -5   37.31    2.21
   3   2   5   36.31    2.14
   3  -2  -6  265.28    6.37
   3  -2  -6  280.39    6.49
   3   2   6  273.39    7.99
   3  -2  -6  264.75    6.30
  -3  -2   6  273.93    9.81
   3   2   6  246.76    9.86
  -3   2  -6  270.96    6.45
   3  -2  -7  136.29    4.86
   3  -2  -7  133.79    4.58
   3  -2  -7  135.11    4.79
   3   2   7  133.90    5.72
  -3  -2   7  136.13    7.46
   3   2   7  120.87    7.38
  -3   2  -7  134.67    4.84
   3  -2  -8   44.29    2.91
   3  -2  -8   44.94    2.61
   3   2   8   50.24    3.46
   3  -2  -8   45.23    2.85
  -3   2  -8   45.92    2.94
   3  -2  -9   33.40    2.45
   3   2   9   37.31    2.73
  -3   2  -9   37.37    2.54
   3  -2  -9   40.45    2.60
  -3   2 -10    2.55    0.84
   3  -2 -10    1.49    0.67
  -3  -3 -10    3.21    0.77
   3   3 -10    1.97    0.71
   3   3  -9    8.98    1.49
  -3  -3  -9    8.73    1.36
  -3  -3  -8   12.38    1.77
   3   3  -8   13.04    2.00
   3   3  -7   10.10    1.80
   3  -3   6  120.68    7.38
   3   3  -6  103.97    4.98
  -3   3   6  109.95    6.25
  -3   3   5   71.14    4.86
   3  -3   5   78.37    5.54
   3   3  -5   64.00    3.74
  -3  -3  -4    8.79    1.06
   3  -3   4    8.16    1.14
   3  -3   4    8.49    1.83
  -3   3   4    8.37    1.64
   3   3  -4    8.73    1.31
  -3   3   3  130.49    5.91
   3  -3   3  136.62    6.21
   3  -3   3  124.06    3.67
   3   3  -3  126.92    4.44
  -3  -3  -3  124.80    3.62
   3  -3   2   52.76    3.70
   3  -3   2   55.55    2.40
  -3  -3  -2   53.38    2.36
   3   3  -2   57.57    2.70
   3  -3   1  326.26    8.57
   3  -3   1  332.98    5.68
   3   3  -1  336.85    6.08
   3  -3   0  278.73    7.70
  -3  -3   0  277.89    7.05
   3  -3   0  266.32    5.02
   3  -3  -1  338.54    8.24
   3  -3  -1  352.28    6.00
   3   3   1  343.67    6.60
   3  -3  -1  346.19    5.72
  -3  -3   1  346.80    8.14
   3  -3  -2   58.31    2.55
   3  -3  -2   56.52    2.57
   3   3   2   54.80    2.94
   3  -3  -2   56.15    2.28
  -3  -3   2   56.37    3.54
   3  -3  -2   51.20    3.30
   3  -3  -3  132.52    3.81
   3   3   3  123.79    4.80
  -3  -3   3  132.64    5.78
  -3   3  -3  125.80    3.50
   3  -3  -3  130.74    4.07
   3  -3  -4    8.37    1.15
   3   3   4    6.93    1.47
   3  -3  -4    7.63    1.04
  -3   3  -4    8.06    0.97
  -3  -3   4    9.37    1.89
   3   3   4    7.14    1.09
   3  -3  -5   71.47    3.23
   3  -3  -5   79.24    2.99
   3   3   5   60.57    3.96
   3  -3  -5   73.47    3.41
  -3  -3   5   67.19    4.78
  -3   3  -5   71.98    3.19
   3   3   5   69.22    2.98
   3  -3  -6  109.66    4.24
   3  -3  -6  113.83    4.31
   3   3   6  111.27    5.49
  -3  -3   6  111.03    6.58
  -3   3  -6  113.87    4.29
   3  -3  -7   10.50    1.49
   3   3   7   10.56    1.92
   3  -3  -7    8.87    1.19
  -3   3  -7   10.46    1.48
   3  -3  -7   12.71    1.53
   3  -3  -8   12.10    1.63
   3  -3  -8   13.12    1.59
   3  -3  -8   13.03    1.45
   3   3   8   11.44    1.93
  -3   3  -8   15.46    1.78
   3  -3  -9    8.05    1.33
   3   3   9    7.46    1.48
  -3   3  -9    9.07    1.35
   3  -3 -10    2.57    0.70
  -3   3 -10    3.27    0.86
  -3  -4  -9   35.73    2.38
   3   4  -9   34.68    2.53
  -3  -4  -8   65.77    3.56
   3   4  -8   68.96    3.90
   3   4  -7   19.97    2.30
  -3  -4  -6   73.49    3.14
   3   4  -6   70.48    4.11
   3  -4   6   69.12    5.63
  -3  -4  -5  158.43    4.54
  -3   4   5  152.81    7.50
   3  -4   5  159.82    7.95
   3   4  -5  166.89    6.05
  -3  -4  -4   60.37    2.78
   3  -4   4   57.92    4.47
   3  -4   4   57.37    2.62
   3   4  -4   55.83    2.80
  -3   4   4   60.28    4.53
   3   4  -4   60.92    3.47
  -3  -4  -3  457.46    7.49
  -3   4   3  466.60   12.18
   3  -4   3  439.43   11.47
   3  -4   3  441.65    7.01
   3   4  -3  458.21    8.63
   3  -4   2  108.03    5.45
  -3  -4  -2  113.99    3.78
   3  -4   2  108.25    3.43
   3   4  -2  104.61    3.62
   3   4  -2  110.23    3.93
  -3  -4  -1   13.29    1.40
   3  -4   1   10.43    1.12
   3  -4   1   12.12    1.19
   3  -4   1   15.69    1.98
   3   4  -1   13.60    1.33
   3  -4   1   13.90    1.33
   3   4  -1   13.41    1.31
   3  -4   0  228.51    7.32
   3  -4   0  224.45    5.24
   3   4   0  234.09    5.34
  -3  -4   0  224.09    7.24
   3  -4   0  235.91    5.10
   3  -4   0  237.88    5.05
   3  -4  -1   11.77    1.69
   3  -4  -1   11.83    1.33
   3   4   1   12.58    1.41
   3  -4  -1   13.22    1.30
  -3  -4   1   15.11    2.02
   3  -4  -1   11.96    1.20
   3  -4  -2  112.63    3.95
   3   4   2  109.63    4.30
   3  -4  -2  107.28    3.49
  -3  -4   2  103.70    5.33
   3  -4  -2  106.04    4.83
   3  -4  -3  446.27    7.22
   3  -4  -3  459.36    8.28
  -3  -4   3  444.39   11.43
  -3   4  -3  450.13    6.94
   3  -4  -4   58.59    3.14
   3   4   4   48.60    3.49
   3  -4  -4   55.63    2.58
  -3  -4   4   60.25    4.52
  -3   4  -4   60.05    2.77
   3   4   4   56.89    2.79
   3  -4  -5  163.64    5.32
  -3  -4   5  150.77    7.49
  -3   4  -5  164.07    4.88
   3   4   5  156.56    4.63
   3  -4  -6   75.60    3.70
   3  -4  -6   71.28    3.59
   3   4   6   70.74    4.55
  -3   4  -6   74.23    3.46
   3   4   6   75.63    3.20
   3  -4  -7   13.65    1.66
   3  -4  -7   16.99    1.73
   3   4   7   15.47    2.08
  -3   4  -7   15.63    1.72
   3  -4  -8   63.71    3.33
   3  -4  -8   67.17    3.11
   3   4   8   63.81    4.07
  -3   4  -8   70.06    3.35
   3  -4  -9   34.61    2.27
   3   4   9   34.30    2.64
  -3   4  -9   37.52    2.31
  -3  -5  -9   13.75    1.39
   3  -5   9   14.69    1.32
  -3  -5  -8    8.60    1.31
   3   5  -8   10.32    1.55
  -3  -5  -7   48.96    2.56
   3   5  -7   46.81    3.22
   3   5  -6   12.77    1.85
  -3  -5  -6   12.17    1.47
  -3  -5  -5   75.36    3.34
   3   5  -5   82.95    3.64
   3   5  -5   76.80    4.05
  -3  -5  -4   68.66    3.24
   3  -5   4   74.43    5.16
  -3   5   4   62.05    4.96
   3   5  -4   69.01    3.36
   3   5  -4   72.41    3.71
  -3  -5  -3  114.69    4.12
   3   5  -3  112.22    4.23
   3  -5   3  121.98    4.39
   3   5  -3  112.96    4.37
  -3   5   3  114.18    6.41
   3  -5   3  110.61    5.90
   3  -5   2  526.22   12.28
  -3  -5  -2  566.45    9.12
   3  -5   2  561.46    8.01
   3   5  -2  535.80    9.14
   3  -5   2  571.58    9.09
  -3   5   2  558.89   13.76
   3   5  -2  561.45    8.97
   3  -5   1  213.42    7.50
  -3  -5  -1  227.76    5.80
   3  -5   1  235.14    5.27
   3   5  -1  220.67    5.75
   3  -5   1  230.39    5.63
   3  -5   0  114.42    5.29
  -3  -5   0  114.35    4.22
   3  -5   0  101.68    3.98
  -3  -5   0  112.26    5.83
   3   5   0  112.74    4.13
   3  -5   0  116.17    3.97
   3  -5  -1  226.80    6.07
  -3  -5   1  223.11    8.26
   3  -5  -1  234.68    5.61
   3  -5  -1  229.39    7.18
   3  -5  -2  552.38    8.50
   3  -5  -2  579.97    9.84
   3   5   2  553.99    9.94
   3  -5  -2  567.62    8.80
  -3  -5   2  545.68   13.21
   3  -5  -3  111.85    3.69
   3  -5  -3  120.57    4.62
   3   5   3  117.84    5.03
  -3  -5   3  122.15    6.55
  -3   5  -3  113.70    3.69
   3   5   4   61.72    3.97
  -3  -5   4   71.07    5.20
  -3   5  -4   67.37    3.05
   3  -5  -4   71.99    3.65
   3   5   4   68.68    3.20
   3  -5  -5   78.86    3.87
   3   5   5   79.20    4.69
  -3   5  -5   76.39    3.42
   3   5   5   74.51    3.28
   3  -5  -6   11.52    1.50
   3   5   6   11.09    2.03
  -3   5  -6   10.49    1.41
   3  -5  -6   11.77    1.63
   3   5   6   11.14    1.29
   3  -5  -7   51.02    3.04
   3   5   7   49.54    3.61
  -3   5  -7   50.18    2.88
   3  -5  -7   49.39    2.89
   3  -5  -8    9.08    1.26
   3   5   8   10.06    1.91
   3  -5  -8    6.90    1.02
  -3   5  -8    7.16    1.13
   3  -5  -9   15.37    1.41
   3   5   9   14.73    1.70
  -3   5  -9   14.47    1.33
  -3  -6  -8    7.56    1.17
   3  -6   8    9.38    1.14
   3   6  -8    7.43    1.11
  -3  -6  -7  186.06    4.71
   3  -6   7  198.91    5.36
   3   6  -7  194.90    5.67
  -3  -6  -6   71.46    3.16
   3  -6   6   70.82    3.48
   3   6  -6   71.43    3.65
  -3  -6  -5  137.08    4.57
   3   6  -5  124.12    4.51
   3  -6   5  135.66    4.89
   3   6  -5  135.75    5.03
  -3  -6  -4  303.53    6.94
   3   6  -4  312.86    7.27
   3  -6   4  294.40    7.17
   3   6  -4  310.64    7.32
  -3  -6  -3  165.64    5.21
   3   6  -3  165.47    5.34
   3  -6   3  168.35    5.38
  -3   6   3  162.33    8.06
  -3   6   2  510.55   13.97
  -3  -6  -2  519.44    9.27
   3   6  -2  504.60    9.38
   3  -6   2  511.45    9.15
  -3  -6  -1  369.03    7.98
   3   6  -1  356.47    7.90
   3  -6   1  365.68    7.67
  -3  -6   0    0.79    0.99
   3  -6   0    1.06    0.82
   3  -6   0   -0.17    0.82
  -3  -6   1  368.90    8.14
   3  -6  -1  359.39    8.20
  -3  -6   1  359.62   11.42
   3  -6  -1  358.77    7.55
   3  -6  -2  537.55   10.06
  -3  -6   2  505.49   13.79
   3  -6  -2  520.81    9.09
   3  -6  -3  174.03    5.80
   3   6   3  162.41    5.79
  -3  -6   3  167.76    8.17
   3  -6  -4  303.03    7.70
   3   6   4  298.91    8.25
  -3   6  -4  304.00    6.46
   3   6   4  299.76    6.49
   3  -6  -5  136.72    5.08
   3   6   5  122.96    5.48
  -3   6  -5  128.82    4.35
   3   6   5  121.10    3.96
   3  -6  -6   68.19    3.41
   3   6   6   69.37    4.12
   3  -6  -6   66.67    3.45
  -3   6  -6   72.34    3.25
   3  -6  -7  181.42    5.21
   3   6   7  197.05    6.47
  -3   6  -7  193.14    5.01
   3  -6  -7  184.28    5.07
   3  -6  -8    8.62    1.06
   3   6   8    9.73    1.44
   3  -6  -8    7.45    0.97
  -3   6  -8    9.15    1.12
  -3  -7  -7   10.08    1.08
   3  -7   7   11.95    1.30
  -3  -7  -6   19.42    1.56
   3  -7   6   18.33    1.72
   3   7  -6   18.25    1.61
  -3  -7  -5   21.69    1.83
   3   7  -5   18.36    1.75
   3  -7   5   23.34    2.00
   3   7  -4   11.90    1.48
   3  -7   4   10.68    1.55
  -3  -7  -4   14.35    1.63
  -3  -7  -3   52.53    3.02
   3   7  -3   48.08    2.98
   3  -7   3   51.88    3.05
  -3  -7  -2  114.38    4.49
   3   7  -2  112.71    4.55
   3  -7   2  112.01    4.43
  -3  -7  -1   15.29    1.87
   3  -7   1   14.60    1.72
   3  -7   1   17.42    1.92
   3  -7   0   89.26    4.11
   3  -7   0   88.83    3.97
  -3  -7   0   93.28    4.23
  -3  -7   1   15.19    1.89
   3  -7  -1   16.97    1.90
   3  -7  -1   13.88    1.70
  -3  -7   2  103.53    4.50
   3  -7  -2  111.41    4.73
  -3  -7   3   51.65    3.08
   3  -7  -3   51.33    3.21
  -3  -7   4   10.19    1.53
   3  -7  -4   12.74    1.61
   3   7   4   14.67    1.79
  -3   7  -4   12.08    1.27
   3   7   4   11.54    1.22
  -3  -7   5   21.34    1.94
   3  -7  -5   21.79    1.97
   3   7   5   20.33    2.04
  -3   7  -5   21.94    1.70
   3  -7  -6   15.56    1.52
   3  -7  -6   16.07    1.67
  -3  -7   6   16.09    1.54
   3   7   6   19.03    1.94
  -3   7  -6   13.35    1.28
   3  -7  -7   12.54    1.23
   3   7   7   13.18    1.48
   3  -7  -7   14.30    1.26
  -3   7  -7   12.93    1.18
  -3  -8  -5   20.66    1.57
   3  -8   5   23.27    1.70
  -3  -8  -4   32.03    2.10
   3   8  -4   29.25    2.04
   3  -8   4   32.25    2.20
   3   8  -3  175.23    5.19
   3  -8   3  193.52    5.38
  -3  -8  -3  182.46    5.16
  -3  -8  -2   50.18    2.85
   3  -8   2   49.85    2.90
  -3  -8  -1   23.25    2.04
   3  -8   1   24.48    2.10
   3  -8   1   24.42    2.02
  -3  -8   0  161.94    5.22
   3  -8   0  161.90    5.24
   3  -8   0  164.42    5.18
   3  -8  -1   24.53    2.11
  -3  -8   1   25.96    2.20
  -3  -8   2   47.12    2.82
   3  -8  -2   47.49    2.94
  -3  -8   3  180.88    5.23
   3  -8  -3  192.00    5.67
   3  -8  -4   31.15    2.23
  -3  -8   4   28.75    2.04
   3  -8  -5   19.79    1.58
  -3  -8   5   21.68    1.64
   3  -8  -5   21.66    1.75
   3  -9   3   30.98    1.89
  -3  -9  -3   28.13    1.76
  -3  -9  -2   23.50    1.72
   3  -9   2   24.57    1.81
  -3  -9  -1   14.87    1.40
   3  -9   1   16.45    1.59
  -3  -9   0   77.11    3.12
   3  -9   0   77.42    3.08
   3  -9  -1   13.92    1.48
  -3  -9   1   15.29    1.44
  -3  -9   2   22.69    1.70
   3  -9  -2   26.56    1.90
  -3  -9   3   30.53    1.80
   3  -9  -3   27.95    1.90
   4   0   0    8.13    1.38
   4   0   0    8.00    1.12
   4   0  -1  301.95    7.98
   4   0   1  304.32    8.41
   4   0  -1  302.97    5.17
   4   0  -1  310.44    5.50
   4   0   1  291.15    5.25
   4   0  -1  312.05    6.09
   4   0   1  301.76    6.19
   4   0  -1  296.18    5.26
   4   0   1  296.93    5.67
   4   0  -1  301.62    5.94
   4   0   1  310.03    5.11
   4   0   2 1442.08   19.19
   4   0  -2 1439.29   12.16
   4   0   2 1449.67   14.04
   4   0  -2 1451.90   12.08
   4   0  -2 1431.95   11.19
   4   0   2 1451.69   12.49
   4   0  -2 1436.44   13.58
   4   0   2 1456.24   11.66
  -4   0  -3 2934.89   17.70
   4   0  -3 2993.52   18.22
   4   0   3 2959.74   29.65
   4   0  -3 2976.53   18.54
   4   0   3 2921.66   20.98
   4   0   3 2975.69   18.44
   4   0  -3 2950.35   20.56
   4   0   3 2971.73   17.76
  -4   0  -4   19.33    1.61
   4   0  -4   23.37    1.82
   4   0  -4   20.62    1.61
   4   0  -4   22.81    1.79
   4   0   4   18.58    2.61
   4   0   4   21.68    1.75
   4   0  -4   19.61    1.95
  -4   0  -5  236.95    5.94
   4   0  -5  232.27    5.83
   4   0  -5  232.84    5.83
   4   0   5  216.80    9.62
   4   0  -5  238.67    6.52
   4   0  -6  367.77    7.58
   4   0  -6  367.96    7.85
   4   0  -6  366.68    8.37
  -4   0  -6  367.16    7.86
   4   0  -7   87.50    3.73
   4   0  -7   96.67    4.17
   4   0   7   90.36    4.11
   4   0  -7   86.13    4.12
  -4   0  -7   90.93    4.04
   4   0  -8   53.46    2.85
   4   0  -8   53.27    3.16
   4   0  -8   50.14    2.95
  -4   0  -8   54.31    3.09
   4   0  -9   41.89    2.56
  -4   0  -9   44.12    2.64
  -4   0 -10    3.67    0.78
  -4  -1 -10   14.37    1.33
  -4  -1  -9    4.30    0.99
   4   1  -9    5.82    1.01
   4   1  -8   16.09    1.90
   4   1  -8   18.59    2.07
  -4  -1  -8   17.89    1.92
  -4  -1  -7   79.12    3.90
   4   1  -7   88.64    4.04
   4   1  -7   82.95    3.61
   4   1  -7   83.65    4.42
  -4  -1  -6  216.58    6.26
   4   1  -6  210.81    5.62
   4   1  -6  210.40    6.02
   4  -1   6  190.97    9.97
   4  -1   6  202.35    5.70
   4   1  -6  204.68    6.78
  -4  -1  -5    5.26    1.07
   4  -1   5    3.06    0.97
   4   1  -5    3.15    0.93
   4   1  -5    3.05    0.82
  -4   1   5    3.67    1.13
   4  -1   5    4.44    1.83
   4   1  -5    4.24    1.34
  -4   1   4  106.49    5.12
   4  -1   4  104.78    6.39
   4  -1   4  108.49    4.03
   4   1  -4  113.07    3.86
   4   1  -4  116.12    4.65
   4   1  -3   17.04    1.48
   4  -1   3   18.04    2.47
   4  -1   3   17.53    1.66
   4  -1   3   18.43    1.57
  -4   1   3   19.70    2.20
   4   1  -3   15.91    1.73
   4   1  -2  137.00    3.71
   4  -1   2  134.56    6.21
   4   1  -2  142.80    3.75
   4  -1   2  136.29    4.21
   4  -1   2  139.43    3.94
   4   1  -2  133.94    4.41
   4   1  -1  273.34    4.92
   4  -1   1  262.44    8.24
   4   1  -1  277.64    4.98
   4   1  -1  275.68    5.69
   4  -1   1  274.56    5.79
   4  -1   1  275.89    5.36
   4   1  -1  266.30    5.82
   4  -1   1  273.04    4.58
   4   1  -1  274.25    7.23
   4   1   0  756.42   12.09
   4  -1   0  773.80   13.57
   4   1   0  740.20    7.85
   4  -1   0  764.96    9.55
   4   1   0  737.90    9.62
   4  -1   0  740.58    8.84
   4  -1   0  760.17    9.00
   4   1   0  743.43    9.28
   4  -1  -1  278.58    8.09
   4   1   1  272.21    7.55
   4  -1  -1  276.26    5.11
   4  -1  -1  275.23    5.49
   4   1   1  270.44    6.05
   4  -1  -1  268.05    5.19
   4   1   1  268.70    5.48
   4  -1  -1  269.10    5.47
   4   1   2  132.99    5.48
   4  -1  -2  136.53    3.84
   4  -1  -2  135.41    3.94
   4  -1  -2  132.77    3.64
   4  -1  -2  132.71    3.96
   4  -1  -2  140.40    5.73
   4   1   2  131.40    3.73
   4   1   3   17.23    2.15
   4  -1  -3   18.16    1.61
   4   1   3   17.30    1.50
   4  -1  -3   17.44    1.59
  -4  -1   3   17.37    2.01
   4   1   3   16.95    1.50
   4  -1  -3   15.83    1.54
   4  -1  -4  116.80    4.05
   4  -1  -4  122.10    3.96
   4   1   4  115.94    6.00
   4   1   4  113.74    4.88
   4   1   4  116.66    3.77
   4  -1  -4  107.11    3.87
  -4  -1   4  114.78    5.48
   4   1   4  112.87    3.79
  -4   1  -4  115.27    3.71
   4  -1  -5    3.83    0.78
   4   1   5    3.09    1.17
   4  -1  -5    1.94    0.89
   4   1   5    5.36    1.70
   4  -1  -5    3.65    0.92
  -4  -1   5    2.42    1.31
  -4   1  -5    3.07    0.80
   4  -1  -6  214.06    5.70
   4  -1  -6  197.15    5.65
   4  -1  -6  200.05    5.73
   4   1   6  195.01    9.07
   4   1   6  216.14    7.21
   4  -1  -6  196.79    5.64
  -4  -1   6  203.59    8.61
  -4   1  -6  213.43    5.78
   4  -1  -7   87.67    3.79
   4  -1  -7   82.78    3.71
   4  -1  -7   73.15    3.60
  -4   1  -7   82.59    3.78
   4  -1  -8   16.78    1.67
   4  -1  -8   16.81    1.82
  -4   1  -8   18.25    1.90
  -4   1  -9    6.31    1.09
   4  -1  -9    4.77    0.82
   4  -1  -9    5.42    1.05
  -4   1 -10   13.67    1.28
  -4  -2 -10   11.58    1.19
   4   2  -9   34.46    2.48
  -4  -2  -9   30.47    2.14
   4   2  -8   44.71    3.22
  -4  -2  -8   43.78    2.82
  -4  -2  -7   62.77    3.47
   4   2  -7   62.18    3.97
  -4  -2  -6   22.60    2.19
   4   2  -6   22.31    1.97
  -4   2   6   17.70    2.54
   4  -2   6   19.77    3.21
   4   2  -6   18.19    2.34
   4   2  -5   10.46    1.33
   4  -2   5   12.19    2.54
  -4   2   5   10.42    1.81
   4   2  -5   11.26    1.82
   4   2  -4  190.27    5.06
   4  -2   4  196.17    8.98
   4  -2   4  194.45    5.11
  -4   2   4  194.10    7.63
   4   2  -4  188.36    6.25
   4   2  -3   26.21    1.83
   4  -2   3   24.28    2.93
   4  -2   3   24.49    1.84
   4  -2   3   27.88    1.96
   4   2  -3   29.04    2.34
  -4   2   3   28.57    2.83
   4   2  -2  146.06    3.95
   4  -2   2  152.10    6.82
   4  -2   2  153.86    4.40
   4  -2   2  144.98    4.29
   4  -2   2  152.21    4.13
   4   2  -2  156.49    4.95
   4   2  -1  274.76    5.08
   4  -2   1  279.77    8.88
   4  -2   1  271.68    5.70
   4   2  -1  269.95    5.69
   4  -2   1  279.02    5.41
   4   2  -1  276.89    6.15
   4  -2   0   19.68    2.36
   4  -2   0   20.43    1.43
   4   2   0   18.42    1.60
   4  -2   0   16.18    1.42
   4  -2   0   18.35    1.43
   4   2   0   16.60    1.46
   4   2   0   18.39    1.74
   4  -2  -1  263.48    8.17
   4   2   1  270.35    6.84
   4  -2  -1  262.09    5.74
   4  -2  -1  291.30    5.70
   4   2   1  276.86    6.36
   4  -2  -1  274.39    5.52
   4  -2  -1  265.38    5.31
   4   2   1  275.30    5.68
   4   2   2  142.69    5.24
   4  -2  -2  158.67    4.47
   4  -2  -2  152.48    4.38
   4  -2  -2  153.27    4.14
  -4  -2   2  145.59    5.43
   4   2   2  146.48    4.02
   4  -2  -2  141.90    3.94
   4  -2  -2  151.14    6.26
   4  -2  -3   28.26    2.04
   4  -2  -3   26.52    1.92
   4   2   3   24.66    2.48
   4   2   3   26.54    1.78
  -4  -2   3   24.89    2.51
   4  -2  -3   22.89    1.60
   4   2   3   24.13    1.83
   4  -2  -4  199.89    5.52
   4   2   4  199.83    4.80
   4  -2  -4  193.53    5.04
  -4  -2   4  198.12    7.57
   4   2   4  193.70    6.78
  -4   2  -4  197.13    4.78
   4   2   4  191.40    5.08
   4  -2  -5   11.40    1.30
   4  -2  -5    9.98    1.46
   4  -2  -5   12.47    1.49
   4   2   5   10.78    2.09
  -4   2  -5    9.69    1.25
  -4  -2   5   12.05    2.13
   4   2   5   10.64    1.35
   4  -2  -6   17.89    1.74
   4  -2  -6   19.02    1.93
   4   2   6   21.39    2.55
  -4   2  -6   19.45    1.83
  -4  -2   6   21.71    3.07
   4  -2  -7   60.15    3.24
   4  -2  -7   63.12    3.24
   4   2   7   65.96    4.22
  -4   2  -7   63.15    3.30
   4  -2  -8   47.48    2.81
   4  -2  -8   45.36    2.68
  -4   2  -8   46.45    2.83
   4  -2  -9   34.81    1.99
   4   2   9   35.68    2.45
  -4   2  -9   33.85    2.20
  -4   2 -10   12.57    1.20
  -4  -3  -9    0.75    0.54
   4   3  -9   -0.07    0.57
  -4  -3  -8    4.20    1.09
   4   3  -8    3.76    1.17
  -4  -3  -7    4.19    1.24
   4   3  -7    6.07    1.55
   4  -3   6   11.94    1.49
   4   3  -6   10.98    1.93
  -4   3   5  100.00    6.04
   4  -3   5  106.84    4.04
   4   3  -5  101.21    5.09
   4  -3   4   74.76    5.60
   4  -3   4   71.46    3.29
  -4   3   4   71.70    5.00
   4   3  -4   74.02    4.08
  -4   3   3   28.10    3.05
   4  -3   3   24.60    3.16
   4  -3   3   24.50    1.97
   4   3  -3   26.67    2.40
   4  -3   2   29.94    3.19
  -4  -3  -2   29.98    1.89
   4  -3   2   32.16    2.13
   4   3  -2   31.31    2.36
   4  -3   1  159.19    6.91
  -4  -3  -1  160.73    4.32
   4   3  -1  152.38    4.34
   4  -3   1  163.04    4.53
   4  -3   1  161.34    4.19
   4  -3   1  165.91    4.21
   4   3  -1  160.32    4.88
   4   3   0    2.31    0.72
   4  -3   0    2.27    0.67
   4  -3   0    1.72    0.68
   4  -3   0    1.49    0.50
   4  -3   0    1.86    0.55
   4   3   0    3.01    0.83
   4  -3  -1  174.71    6.92
   4  -3  -1  164.40    4.65
   4  -3  -1  164.66    4.49
  -4  -3   1  160.08    5.87
   4  -3  -1  154.88    3.89
   4   3   1  158.74    4.37
   4  -3  -2   34.01    2.23
   4  -3  -2   30.75    2.18
   4   3   2   32.92    2.63
   4  -3  -2   29.48    2.00
  -4  -3   2   33.12    2.99
   4   3   2   30.39    1.89
   4  -3  -2   32.97    3.12
   4  -3  -3   25.96    2.11
   4  -3  -3   25.32    1.94
   4   3   3   22.76    2.38
  -4  -3   3   29.18    3.06
   4   3   3   22.60    1.85
   4  -3  -4   78.08    3.71
   4  -3  -4   79.14    3.31
   4   3   4   63.35    4.14
  -4  -3   4   74.34    5.04
  -4   3  -4   70.04    2.91
   4   3   4   70.79    3.27
   4  -3  -5  114.31    4.17
   4  -3  -5  118.83    4.60
   4  -3  -5  122.83    4.13
   4   3   5  104.99    5.57
  -4  -3   5  114.46    6.51
  -4   3  -5  113.91    3.97
   4   3   5  116.22    4.21
   4  -3  -6   12.42    1.50
   4  -3  -6   14.07    1.65
   4   3   6   10.91    2.22
  -4   3  -6   13.75    1.49
   4  -3  -7    7.25    1.14
  -4   3  -7    6.54    1.15
   4   3   7    6.31    1.62
   4  -3  -7    4.96    1.06
   4  -3  -8    3.49    0.94
  -4   3  -8    4.85    1.01
   4   3   8    3.60    1.14
   4  -3  -8    3.36    0.89
  -4   3  -9    0.19    0.47
   4  -3  -9   -0.16    0.28
   4   4  -9   12.63    1.43
  -4  -4  -9   11.03    1.34
  -4  -4  -8    8.61    1.34
   4   4  -8    8.37    1.54
  -4  -4  -7   90.00    4.17
   4   4  -7   84.63    4.53
   4   4  -6   79.47    4.55
   4  -4   5   11.72    1.39
   4   4  -5    9.17    1.61
   4  -4   4  204.56    9.25
   4  -4   4  207.81    5.45
  -4   4   4  214.73    9.20
   4   4  -4  217.75    7.02
  -4   4   3  100.03    6.06
  -4  -4  -3   94.40    3.50
   4  -4   3   87.38    3.57
   4   4  -3   87.96    4.15
   4  -4   2  259.87    9.51
  -4  -4  -2  271.96    6.07
   4  -4   2  271.51    6.14
   4  -4   2  276.23    6.22
   4   4  -2  278.04    6.93
   4  -4   1  171.23    7.43
  -4  -4  -1  171.12    4.94
   4  -4   1  172.96    4.84
   4  -4   1  170.29    4.71
   4   4  -1  161.42    4.96
   4  -4   0   69.64    4.64
   4  -4   0   73.39    3.28
   4   4   0   75.18    3.32
   4  -4   0   74.26    3.23
   4  -4   0   71.77    3.00
   4   4   0   84.68    3.40
   4  -4  -1  168.71    6.97
   4  -4  -1  172.59    5.28
   4  -4  -1  173.49    4.94
  -4  -4   1  172.34    6.91
   4  -4  -1  164.07    4.44
   4  -4  -2  266.01    6.29
   4   4   2  270.37    7.57
   4  -4  -2  269.08    5.71
  -4  -4   2  258.89    8.76
   4  -4  -3   91.56    4.09
   4  -4  -3   86.24    3.57
   4   4   3   85.12    4.62
  -4  -4   3   86.23    5.38
   4   4   3   90.78    3.77
   4  -4  -4  203.85    5.36
   4   4   4  185.52    7.17
  -4  -4   4  200.67    8.49
   4   4   4  206.10    5.69
   4  -4  -5   10.11    1.30
   4  -4  -5   11.69    1.66
   4  -4  -5   13.03    1.37
   4   4   5    7.83    1.81
  -4   4  -5    9.44    1.17
   4   4   5   10.74    1.40
   4  -4  -6   78.38    3.60
   4  -4  -6   80.10    3.86
   4   4   6   73.73    4.73
  -4   4  -6   80.27    3.43
   4  -4  -7   85.30    3.68
   4   4   7   83.78    4.90
   4  -4  -7   86.32    3.80
  -4   4  -7   85.15    3.47
   4  -4  -8    8.68    1.17
   4  -4  -8    8.73    1.12
   4   4   8    8.12    1.62
  -4   4  -8    9.46    1.11
  -4   4  -9   10.60    1.09
  -4  -5  -8    3.43    0.85
   4  -5   8    4.09    0.94
   4   5  -8    3.74    0.90
   4  -5   7   20.88    1.84
   4   5  -7   22.97    2.19
   4  -5   6   89.50    3.86
   4   5  -6   92.38    4.48
  -4  -5  -5   60.58    2.82
   4  -5   5   61.65    3.32
   4   5  -5   70.30    4.00
  -4  -5  -4   22.29    1.86
   4  -5   4   21.68    1.76
   4  -5   4   23.06    2.16
   4   5  -4   21.48    2.24
   4  -5   3   80.05    5.46
  -4  -5  -3   78.77    3.44
   4  -5   3   80.97    3.39
   4  -5   3   77.78    3.62
   4   5  -3   82.01    3.99
  -4   5   3   67.41    5.38
   4  -5   2   57.14    4.67
  -4  -5  -2   66.77    3.25
   4  -5   2   67.86    3.14
   4  -5   2   60.37    3.13
   4   5  -2   62.63    3.28
   4  -5   1   85.51    5.37
  -4  -5  -1   89.68    3.82
   4  -5   1   92.86    3.70
   4  -5   1   86.63    3.64
   4   5  -1   89.12    3.64
   4  -5   0  292.05    9.45
  -4  -5   0  342.01    7.53
   4  -5   0  275.58    7.00
   4  -5   0  323.88    6.85
   4  -5  -1   78.77    3.92
   4   5   1   89.95    3.88
  -4  -5   1   80.32    5.15
   4  -5  -1   89.06    3.61
   4  -5  -1   82.35    4.98
   4  -5  -2   60.05    3.51
   4  -5  -2   61.43    3.15
  -4  -5   2   55.89    4.52
   4  -5  -2   57.52    2.91
   4  -5  -3   85.66    4.26
   4  -5  -3   77.64    3.33
   4   5   3   72.91    4.23
  -4  -5   3   73.55    5.31
   4  -5  -4   25.05    2.41
   4  -5  -4   24.06    1.81
   4   5   4   22.82    2.68
   4   5   4   23.18    2.02
   4  -5  -5   63.21    3.22
   4  -5  -5   69.83    3.77
   4   5   5   58.52    4.07
   4   5   5   57.07    2.93
   4  -5  -6   89.27    3.76
   4  -5  -6   94.94    4.14
   4   5   6   88.97    4.90
  -4   5  -6   87.98    3.41
   4  -5  -7   21.75    1.77
   4  -5  -7   22.17    1.90
   4   5   7   18.13    2.30
  -4   5  -7   20.54    1.58
  -4   5  -8    3.52    0.74
   4  -5  -8    3.53    0.63
   4  -6   7   20.54    1.63
   4   6  -7   19.23    1.74
   4  -6   6    0.74    0.67
   4   6  -6   -0.01    0.58
  -4  -6  -5   21.90    1.70
   4  -6   5   24.25    2.06
   4   6  -5   24.79    2.15
  -4  -6  -4   31.52    2.22
   4  -6   4   32.56    2.40
   4   6  -4   33.72    2.51
  -4  -6  -3  277.24    6.57
   4  -6   3  279.32    6.84
   4   6  -3  269.71    6.63
  -4  -6  -2   41.08    2.70
   4  -6   2   39.94    2.69
  -4  -6  -1    6.37    1.31
   4  -6   1    6.04    1.15
  -4  -6   0  301.52    7.42
   4  -6   0  300.91    6.94
  -4  -6   1    5.57    1.41
   4  -6  -1    5.71    1.06
   4  -6  -1    5.54    1.19
   4  -6  -1    4.88    1.07
  -4  -6   2   40.10    2.92
   4  -6  -2   37.42    2.37
   4  -6  -2   37.91    2.90
   4  -6  -2   39.84    2.56
   4  -6  -3  287.77    7.74
   4   6   3  278.25    6.66
   4  -6  -4   32.55    2.67
   4   6   4   31.94    2.80
   4   6   4   33.19    2.28
   4  -6  -5   27.16    2.34
   4   6   5   23.49    2.44
   4   6   5   21.19    1.72
   4   6   6    1.21    0.79
   4  -6  -6    0.73    0.66
   4  -6  -7   19.01    1.56
   4  -7   6    6.38    1.00
  -4  -7  -5   19.39    1.54
   4  -7   5   23.28    1.81
  -4  -7  -4    0.74    0.72
   4  -7   4    1.97    0.86
  -4  -7  -3    6.02    1.18
   4  -7   3    6.32    1.18
  -4  -7  -2   45.10    2.74
   4  -7   2   44.28    2.74
  -4  -7  -1   18.77    1.92
   4  -7   1   20.81    1.89
  -4  -7   0   15.71    1.90
   4  -7   0   12.88    1.69
   4  -7   0   15.72    1.70
  -4  -7   1   18.85    2.02
   4  -7  -1   18.72    1.71
   4  -7  -1   22.67    2.14
   4  -7  -1   19.06    1.88
  -4  -7   2   44.22    2.92
   4  -7  -2   45.27    3.05
  -4  -7   3    6.89    1.38
   4  -7  -3    7.21    1.28
   4   7   3    5.98    1.09
  -4  -7   4    0.63    0.82
   4  -7  -4    2.01    0.94
   4   7   4    1.30    0.71
  -4  -7   5   20.31    1.79
   4  -7  -5   26.31    2.04
  -4  -7   6    6.61    1.02
   4  -7  -6    5.28    0.91
  -4  -8  -4   41.59    2.06
   4  -8   4   46.25    2.30
  -4  -8  -3   36.76    2.08
   4  -8   3   38.32    2.24
  -4  -8  -2   58.93    2.76
   4  -8   2   58.36    2.83
  -4  -8  -1   18.48    1.72
   4  -8   1   18.74    1.58
   4  -8   1   19.53    1.75
  -4  -8   0   41.88    2.52
   4  -8   0   42.12    2.47
  -4  -8   1   17.51    1.73
   4  -8  -1   17.20    1.69
  -4  -8   2   59.59    2.94
   4  -8  -2   58.83    3.02
   4   8   2   54.35    2.55
  -4  -8   3   33.06    2.20
   4  -8  -3   40.24    2.43
   4   8   3   34.88    1.89
  -4  -8   4   41.33    2.23
   4  -8  -4   47.90    2.53
  -4  -9   0    6.29    0.91
   5   0   0   -0.25    0.49
   5   0   0   -0.38    0.70
   5   0   0    0.77    0.59
   5   0   0   -1.17    0.91
   5   0   0    0.02    0.59
   5   0   1  231.55    8.35
   5   0  -1  230.71    5.08
   5   0  -1  233.43    5.44
   5   0   1  216.74    5.10
   5   0   1  237.09    6.39
   5   0  -1  234.04    5.33
   5   0   1  219.05    5.58
   5   0   1  232.44    5.69
   5   0  -1  236.04    6.06
   5   0   1  224.10    4.84
   5   0  -1  231.44    8.02
   5   0  -2    7.52    1.07
   5   0  -2    8.50    1.27
   5   0   2    6.98    1.00
   5   0   2    9.81    1.54
   5   0  -2    8.06    1.03
   5   0   2    3.76    1.16
   5   0   2    9.38    1.32
   5   0  -2    8.48    1.34
   5   0   2    6.90    1.01
   5   0  -3   16.48    1.62
   5   0  -3   17.97    1.67
   5   0   3   17.13    2.02
   5   0   3   16.35    2.45
   5   0   3   18.93    1.78
   5   0  -3   15.08    1.78
   5   0  -4  399.96    7.78
   5   0   4  406.92    9.03
   5   0  -4  393.23    8.70
   5   0  -5  384.23    7.89
   5   0   5  386.26    9.03
   5   0  -5  391.97    8.92
  -5   0  -5  385.91    7.54
   5   0  -6   45.28    2.82
   5   0   6   48.51    3.18
   5   0  -6   46.37    3.11
  -5   0  -6   47.67    2.75
   5   0  -7  130.48    4.47
   5   0   7  134.40    4.82
   5   0  -7  133.65    4.89
  -5   0  -7  130.80    4.49
  -5   0  -8    5.59    1.08
   5   0  -8    5.16    0.93
  -5   0  -9    0.56    0.51
  -5  -1  -9   17.64    1.48
   5   1  -8   13.28    1.58
  -5  -1  -8   11.94    1.31
   5   1  -7   12.33    1.53
   5   1  -7   10.01    1.64
  -5  -1  -7   12.14    1.46
   5   1  -6   13.52    1.66
   5  -1   6   15.85    1.72
   5   1  -6   14.76    2.06
  -5  -1  -6   15.37    1.66
  -5  -1  -5  174.84    5.33
   5   1  -5  185.29    5.41
   5  -1   5  177.58    5.65
   5   1  -5  183.92    6.63
  -5  -1  -4    5.37    1.05
   5  -1   4    4.80    1.22
   5   1  -4    3.74    0.98
   5  -1   4    3.59    1.57
   5   1  -4    4.02    1.18
   5   1  -3   47.65    2.59
   5  -1   3   55.81    4.84
   5  -1   3   50.78    3.09
   5  -1   3   53.50    2.89
   5   1  -3   51.21    3.31
   5   1  -2   71.53    3.03
   5  -1   2   70.90    5.20
   5   1  -2   75.72    3.10
   5  -1   2   80.57    3.75
   5  -1   2   69.50    3.37
   5  -1   2   75.08    3.29
   5   1  -2   74.40    3.73
   5  -1   1   89.79    5.52
   5   1  -1   97.38    3.27
   5   1  -1   96.28    3.31
   5  -1   1   97.76    3.76
   5  -1   1  102.99    4.20
   5   1  -1   95.49    3.30
   5  -1   1   93.04    3.75
   5  -1   1   97.72    3.68
   5   1  -1  103.23    4.16
   5   1  -1   94.96    4.93
   5   1   0    9.97    1.06
   5  -1   0    8.05    1.26
   5   1   0    7.62    1.22
   5  -1   0    7.03    1.21
   5   1   0    9.61    1.20
   5   1   0   10.47    1.62
   5  -1   0    8.87    1.68
   5  -1   0    8.00    1.19
   5   1   0    8.68    1.33
   5   1   0    7.61    1.03
   5   1   1   92.19    5.01
   5  -1  -1   94.50    3.36
   5  -1  -1   89.21    3.61
   5   1   1  103.20    4.30
   5  -1  -1   98.51    3.58
   5   1   1   99.27    3.81
   5  -1  -1   96.48    3.76
   5   1   1   93.11    3.40
   5  -1  -1   97.10    5.45
   5   1   2   61.12    4.31
   5  -1  -2   72.12    3.12
   5  -1  -2   72.00    3.23
   5   1   2   72.76    3.86
   5  -1  -2   72.22    3.00
   5   1   2   71.91    3.21
   5  -1  -2   68.25    3.26
   5   1   2   69.02    3.04
   5   1   3   42.46    3.66
   5  -1  -3   55.35    2.92
   5  -1  -3   53.89    2.83
   5   1   3   52.28    3.47
   5   1   3   52.78    2.76
   5  -1  -3   55.11    2.99
   5   1   3   51.00    2.70
   5  -1  -4    4.35    1.13
   5   1   4    3.01    1.43
   5  -1  -4    5.33    1.13
   5   1   4    5.98    1.20
   5  -1  -4    5.13    1.21
   5  -1  -5  198.53    5.80
   5   1   5  187.77    6.74
   5  -1  -5  169.45    5.39
  -5   1  -5  180.40    4.95
   5  -1  -6   14.11    1.73
   5   1   6   17.09    2.23
   5  -1  -6   15.22    1.61
  -5   1  -6   14.67    1.51
   5  -1  -7    8.09    1.32
  -5   1  -7   11.02    1.37
   5  -1  -8   11.79    1.34
   5   1   8   10.18    1.40
  -5   1  -8   10.89    1.24
  -5   1  -9   16.76    1.38
  -5  -2  -9    1.75    0.53
   5  -2   8   63.01    2.73
   5   2  -8   65.84    3.48
  -5  -2  -8   60.67    2.99
   5  -2   7   16.45    1.69
   5   2  -7   15.88    2.04
  -5  -2  -7   19.40    1.88
  -5  -2  -6   32.12    2.44
   5  -2   6   30.30    2.35
   5   2  -6   27.32    2.74
  -5  -2  -5   32.37    2.42
   5  -2   5   32.87    2.50
   5   2  -5   28.52    2.98
   5   2  -4   54.21    2.92
   5  -2   4   54.39    5.22
   5  -2   4   56.53    3.08
   5  -2   4   50.12    3.02
   5   2  -4   47.87    3.54
   5   2  -3   10.13    1.34
   5  -2   3    8.34    1.29
   5  -2   3    8.72    1.45
   5  -2   3    9.68    2.03
  -5   2   3    8.46    1.64
   5   2  -3    9.96    1.65
   5  -2   2  246.53    9.94
   5  -2   2  229.51    6.02
   5  -2   2  243.60    5.83
   5   2  -2  238.51    6.82
   5  -2   1   96.57    5.94
   5   2  -1  103.35    4.04
   5  -2   1  101.39    3.96
   5  -2   1  102.16    3.75
   5   2  -1  104.47    4.29
   5  -2   0  418.92   11.89
   5  -2   0  403.99    8.11
   5   2   0  424.02    8.46
   5  -2   0  422.59    7.78
   5  -2   0  416.40    7.36
   5   2   0  420.54    8.16
   5  -2  -1  107.50    3.79
   5  -2  -1  105.76    4.09
   5   2   1  102.09    4.44
   5  -2  -1  108.01    3.87
   5  -2  -1  100.30    3.68
   5   2   1  101.33    3.88
   5   2   1  101.72    3.85
   5  -2  -1  103.63    5.82
   5  -2  -2  239.73    6.00
   5  -2  -2  242.46    6.11
   5   2   2  234.47    7.05
   5  -2  -2  235.09    5.67
   5   2   2  218.82    5.59
   5  -2  -2  214.17    5.38
   5  -2  -2  232.36    8.73
   5   2   2  234.23    5.80
   5  -2  -3    8.51    1.31
   5  -2  -3    8.69    1.28
   5   2   3    8.69    1.70
   5  -2  -3    7.74    1.16
   5   2   3    8.02    1.21
   5   2   3    8.14    1.23
   5  -2  -4   51.68    3.04
   5  -2  -4   52.96    2.92
   5   2   4   49.80    3.72
   5   2   4   52.76    2.80
   5  -2  -4   44.05    2.52
   5   2   4   52.22    2.88
   5  -2  -5   33.85    2.53
   5   2   5   34.91    3.26
   5  -2  -6   33.51    2.49
   5   2   6   29.11    2.96
  -5   2  -6   33.33    2.11
   5  -2  -7   16.87    1.78
   5   2   7   18.39    2.33
  -5   2  -7   20.47    1.67
   5  -2  -8   65.30    2.88
   5   2   8   65.32    3.45
  -5   2  -8   60.82    2.74
  -5  -3  -8    0.43    0.52
   5   3  -8    1.95    0.86
  -5  -3  -7   12.22    1.52
   5  -3   7   13.43    1.39
   5   3  -7   12.01    1.79
  -5  -3  -6    5.25    1.18
   5  -3   6    5.12    1.18
   5   3  -6    5.03    1.40
   5  -3   5   26.29    2.17
   5   3  -5   28.04    2.93
   5  -3   4   19.27    1.94
   5   3  -4   21.24    2.55
   5  -3   3  130.70    7.73
   5  -3   3  124.66    4.56
   5  -3   3  124.11    4.27
   5   3  -3  132.46    5.49
  -5   3   3  110.99    6.31
   5  -3   2   37.07    4.06
   5  -3   2   40.11    2.59
  -5   3   2   35.35    3.43
   5  -3   2   37.81    2.24
   5   3  -2   38.30    2.87
   5  -3   1   21.48    2.90
   5   3  -1   26.62    2.08
   5  -3   1   25.55    2.09
   5  -3   1   29.82    2.06
   5   3  -1   26.38    2.28
   5  -3   0   28.45    3.39
   5  -3   0   24.70    2.25
   5   3   0   25.10    2.19
   5  -3   0   24.16    2.01
   5  -3   0   24.00    1.82
   5   3   0   23.79    2.06
   5  -3  -1   27.01    2.08
   5  -3  -1   26.46    2.25
   5   3   1   22.41    2.20
   5  -3  -1   24.27    2.03
   5  -3  -1   22.23    1.75
   5   3   1   23.58    1.95
   5  -3  -1   25.87    3.12
   5  -3  -2   40.47    2.67
   5  -3  -2   33.98    2.50
   5   3   2   33.40    2.91
   5   3   2   37.72    2.34
   5   3   2   38.40    2.57
   5  -3  -3  129.31    4.87
   5  -3  -3  127.76    4.55
   5   3   3  123.04    5.65
   5   3   3  126.28    4.05
   5   3   3  127.03    4.53
   5  -3  -4   23.66    2.20
   5  -3  -4   22.53    1.97
   5   3   4   22.42    2.04
   5  -3  -5   29.66    2.44
   5   3   5   30.09    2.33
   5  -3  -6    5.90    1.15
   5  -3  -7   12.80    1.48
   5   3   7   14.61    1.95
  -5   3  -8    1.17    0.44
   5   3   8    1.88    0.78
   5  -3  -8    1.44    0.60
   5  -4   8   38.36    2.03
   5   4  -8   38.43    2.41
  -5  -4  -7   11.72    1.40
   5  -4   7   12.18    1.32
   5   4  -7   10.60    1.66
  -5  -4  -6   76.98    3.71
   5  -4   6   79.67    3.51
   5   4  -6   83.60    4.43
   5  -4   5   77.22    3.35
   5  -4   5   77.89    3.58
   5   4  -5   77.05    4.38
   5  -4   4    6.20    1.23
   5  -4   4    5.10    1.12
   5   4  -4    6.64    1.61
   5  -4   3   12.50    1.56
   5  -4   3   13.09    1.47
   5   4  -3   11.93    1.78
   5  -4   2   75.35    3.50
   5  -4   2   74.74    3.32
   5   4  -2   75.34    3.95
  -5  -4  -1   17.56    1.69
   5  -4   1   19.98    1.87
   5  -4   1   16.22    1.56
   5  -4   1   16.87    2.83
   5   4  -1   17.45    1.81
  -5  -4   0  146.28    4.81
   5   4   0  140.98    4.85
   5  -4   0  155.01    4.98
   5   4   0  144.55    4.77
   5  -4  -1   15.68    1.77
   5  -4  -1   14.33    1.81
   5   4   1   15.45    1.82
   5  -4  -1   15.27    2.49
   5   4   1   13.73    1.54
   5  -4  -2   72.35    3.77
   5  -4  -2   71.67    3.54
   5   4   2   71.26    4.06
   5   4   2   70.34    3.57
   5  -4  -3   14.22    1.83
   5  -4  -3   12.37    1.59
   5   4   3   12.59    2.10
   5   4   3   15.65    1.80
   5  -4  -4    4.68    1.09
   5  -4  -4    6.19    1.35
   5   4   4    5.67    1.28
   5  -4  -5   87.25    4.11
   5   4   5   81.90    3.58
   5  -4  -6   86.23    3.87
   5  -4  -7   12.27    1.40
   5   4   7   10.94    1.60
   5  -4  -8   32.72    1.83
   5   4   8   35.45    2.42
  -5  -5  -7    5.19    0.95
   5  -5   7    6.80    1.03
   5   5  -7    7.25    1.08
   5  -5   6    9.71    1.30
   5   5  -6   10.59    1.62
   5  -5   5    0.96    0.82
   5   5  -5   -0.97    0.81
   5  -5   4  169.94    4.72
   5  -5   4  170.47    5.13
   5   5  -4  176.50    6.03
   5  -5   3   39.37    2.43
   5  -5   3   37.22    2.52
   5   5  -3   39.87    2.84
  -5  -5  -2   77.90    3.39
   5  -5   2   84.37    3.61
   5  -5   2   85.24    3.63
   5   5  -2   83.89    3.88
  -5  -5  -1   19.46    1.82
   5  -5   1   20.46    1.98
   5  -5   1   20.13    1.82
   5   5  -1   18.07    1.78
  -5  -5   0   14.59    1.72
   5  -5   0   16.53    2.01
   5  -5   0   17.03    1.69
  -5  -5   1   17.20    1.94
   5  -5  -1   16.73    1.90
   5  -5  -1   19.81    2.05
   5  -5  -2   74.51    3.94
   5  -5  -2   78.78    3.69
   5   5   2   81.58    4.07
   5   5   2   85.37    3.95
   5  -5  -3   37.17    2.84
   5  -5  -3   35.96    2.37
   5   5   3   38.85    3.04
   5   5   3   42.53    2.71
   5  -5  -4  181.72    5.97
   5  -5  -4  158.03    4.59
   5   5   4  170.31    6.30
   5   5   4  171.01    5.15
   5  -5  -5   -0.96    0.82
   5   5   5    0.16    0.65
   5  -5  -6   10.77    1.43
   5   5   6   10.34    1.65
   5  -5  -7    7.39    1.01
   5   5   7    6.96    1.23
  -5  -6  -6    5.82    0.90
   5  -6   6    5.44    0.92
   5  -6   5   43.89    2.40
   5   6  -5   41.82    2.46
   5  -6   4    8.68    1.15
   5   6  -4    7.22    1.12
  -5  -6  -3   11.89    1.28
   5  -6   3   13.76    1.54
  -5  -6  -2   67.26    3.09
   5  -6   2   70.42    3.27
  -5  -6  -1  374.66    7.54
   5  -6   1  379.81    7.44
  -5  -6   0   22.16    2.11
   5  -6   0   24.92    2.24
   5  -6   0   22.63    1.93
  -5  -6   1  373.85    7.92
   5  -6  -1  380.18    7.78
   5  -6  -1  376.14    7.14
  -5  -6   2   69.09    3.53
   5  -6  -2   69.08    3.73
   5  -6  -2   74.25    3.28
   5   6   2   72.56    3.52
  -5  -6   3   12.16    1.65
   5  -6  -3   13.12    1.64
   5  -6  -3   13.75    1.42
   5   6   3   10.35    1.46
   5   6   3   12.06    1.51
   5  -6  -4    9.84    1.49
   5   6   4    9.07    1.35
   5   6   4    8.16    1.14
   5  -6  -5   41.99    2.52
   5   6   5   40.30    2.62
   5   6   5   40.50    2.15
   5   6   6    6.41    1.13
   5  -6  -6    7.21    1.01
   5  -7   4   30.50    1.89
  -5  -7  -3   16.59    1.39
   5  -7   3   20.75    1.68
  -5  -7  -2    6.06    1.07
   5  -7   2    5.78    0.99
  -5  -7  -1   17.18    1.56
   5  -7   1   19.68    1.84
   5  -7   1   16.64    1.60
  -5  -7   0    3.46    1.02
   5  -7   0    2.70    0.77
   5  -7   0    4.02    0.90
  -5  -7   1   19.18    1.74
   5  -7  -1   18.26    1.64
  -5  -7   2    5.67    1.09
   5  -7  -2    5.17    0.99
   5   7   2    7.58    1.14
  -5  -7   3   21.11    1.77
   5  -7  -3   19.81    1.78
   5   7   3   19.25    1.56
   5  -7  -4   32.42    2.11
  -5  -7   4   30.43    1.99
   5   7   4   29.31    1.68
  -5  -8  -1   31.11    1.76
  -5  -8   0   10.82    1.14
  -5  -8   1   32.50    1.85
   5   8   1   32.21    1.83
  -5  -8   2   41.50    2.06
   6   0   0    1.14    0.66
   6   0   0    0.45    0.60
   6   0   0   -0.01    0.98
   6   0   0    1.25    0.72
   6   0  -1   16.62    1.49
   6   0  -1   16.85    1.68
   6   0   1   17.66    1.58
   6   0  -1   15.98    1.59
   6   0   1   18.05    1.87
   6   0   1   19.70    2.72
   6   0   1   19.20    1.94
   6   0  -1   17.49    1.97
   6   0  -2    0.95    0.78
   6   0   2    2.10    1.15
   6   0  -2    1.70    0.60
   6   0   2    1.30    0.99
   6   0  -2    1.52    1.04
   6   0  -3  548.75    9.08
   6   0   3  547.50   11.02
   6   0   3  553.92   10.43
   6   0   3  561.66    9.49
   6   0  -3  541.61   10.32
   6   0  -4   55.22    3.03
   6   0   4   54.40    3.57
   6   0  -4   57.28    3.45
   6   0  -5  518.95    9.02
   6   0   5  512.19   10.23
   6   0  -5  496.61    9.70
   6   0  -6   22.75    1.90
   6   0   6   19.21    2.03
   6   0  -6   21.32    1.94
   6   0   7    1.08    0.55
   6   0  -7    1.52    0.78
   6   0   7    1.37    0.91
   6   0   8   -0.05    0.63
   6  -1   7   30.13    2.16
   6   1  -7   29.68    2.19
   6  -1   6    2.10    0.89
   6   1  -6    2.70    1.03
   6   1  -5   35.44    2.43
   6  -1   5   30.32    2.45
   6  -1   5   36.99    2.81
   6   1  -5   34.12    2.86
   6   1  -4   13.54    1.60
   6  -1   4   14.92    1.89
   6  -1   4   13.51    1.92
   6   1  -4   11.91    1.90
   6   1  -3    9.84    1.45
   6  -1   3   10.93    1.41
   6  -1   3    9.86    1.64
   6  -1   3   11.50    1.60
   6   1  -3   13.59    1.91
   6   1  -2   49.38    2.63
   6  -1   2   40.63    2.56
   6  -1   2   42.24    2.90
   6  -1   2   46.83    2.83
   6   1  -2   50.31    3.31
   6   1  -1    4.10    0.94
   6  -1   1    3.73    0.95
   6  -1   1    3.51    1.18
   6  -1   1    4.19    1.30
   6  -1   1    2.45    0.95
   6   1  -1    3.11    1.13
   6   1   0  263.80    5.62
   6  -1   0  265.10    6.46
   6  -1   0  274.36    6.61
   6   1   0  264.43    6.14
   6  -1   0  279.57    6.68
   6   1   0  280.31    7.09
   6  -1   0  259.46    9.86
   6  -1  -1    3.81    1.05
   6   1   1    4.00    1.34
   6  -1  -1    4.84    0.99
   6   1   1    3.68    1.00
   6  -1  -1    3.37    1.22
   6   1   1    4.09    1.14
   6  -1  -1    1.87    0.96
   6   1   1    1.57    0.80
   6  -1  -2   41.62    2.55
   6  -1  -2   41.01    2.63
   6   1   2   47.23    3.50
   6  -1  -2   44.84    2.58
   6   1   2   44.06    2.90
   6   1   2   47.89    2.85
   6  -1  -2   42.29    2.77
   6   1   2   46.96    2.65
   6  -1  -3   13.69    1.60
   6   1   3   12.05    1.99
   6  -1  -3    8.69    1.34
   6   1   3   10.58    1.48
   6  -1  -3    8.77    1.40
   6  -1  -4   14.18    1.70
   6   1   4   15.17    2.16
   6  -1  -4   12.74    1.63
   6  -1  -5   33.84    2.48
   6  -1  -5   26.91    2.11
   6   1   6    1.82    1.02
   6  -1  -6    1.70    0.85
   6  -1  -7   32.23    2.09
   6   1   7   28.20    2.28
   6   1   8   29.95    1.93
   6  -2   7    1.38    0.64
   6   2  -7    2.02    0.90
   6  -2   6    5.57    1.16
   6   2  -6    4.53    1.12
   6  -2   5   41.43    2.73
   6   2  -5   35.19    2.98
   6  -2   4   20.53    2.03
   6  -2   4   19.68    2.04
   6   2  -4   24.43    2.69
   6  -2   3    2.58    0.88
   6  -2   3    3.88    1.30
   6   2  -3    3.84    1.23
   6  -2   2  107.60    4.42
   6  -2   2  121.86    4.73
   6  -2   2  124.27    4.48
   6   2  -2  120.57    5.18
   6  -2   1   13.47    1.73
   6  -2   1   14.91    1.79
   6  -2   1   12.91    1.59
   6   2  -1   15.73    1.93
   6  -2   0    6.13    1.31
   6   2   0    8.69    1.53
   6  -2   0    6.31    1.30
   6   2   0   10.19    1.45
   6  -2   0    6.15    1.15
   6   2   0    6.14    1.04
   6  -2  -1   14.22    1.74
   6   2   1   16.56    1.97
   6  -2  -1   15.52    1.73
   6   2   1   11.26    1.48
   6  -2  -1   13.88    1.56
   6   2   1   12.90    1.74
   6   2   1   13.32    1.52
   6  -2  -2  114.81    4.27
   6  -2  -2  117.41    4.53
   6   2   2  119.87    5.35
   6   2   2  111.45    4.30
   6  -2  -2  106.23    4.00
   6   2   2  114.47    4.27
   6  -2  -3    4.66    0.99
   6   2   3    5.47    1.54
   6  -2  -3    4.42    1.02
   6   2   3    2.57    0.94
   6  -2  -3    3.08    0.77
   6   2   3    3.68    1.06
   6  -2  -4   25.40    2.23
   6  -2  -4   24.57    2.12
   6   2   4   21.66    2.65
   6  -2  -5   41.39    2.72
   6   2   5   44.30    3.40
   6   2   6    6.55    1.45
   6  -2  -6    6.76    1.15
   6   2   7    0.54    0.76
   6  -2  -7    1.09    0.66
   6   3  -7    2.26    0.76
   6  -3   6    9.87    1.21
   6   3  -6    9.39    1.59
  -6  -3  -6   11.70    1.24
   6  -3   5   26.14    2.10
   6  -3   5   28.54    2.14
   6   3  -5   21.44    2.28
   6  -3   4    7.39    1.36
   6   3  -4    7.70    1.58
   6  -3   3    6.84    1.47
   6  -3   3    5.54    1.23
   6   3  -3    7.16    1.58
   6  -3   2    8.25    1.59
   6  -3   2    8.26    1.46
   6   3  -2   10.89    1.69
   6  -3   1   30.46    2.60
   6  -3   1   35.60    2.54
   6   3  -1   30.77    2.63
   6   3  -1   29.43    2.31
   6  -3   0    2.32    1.04
   6   3   0    2.27    0.90
   6  -3   0    3.70    1.05
   6  -3   0    1.21    0.78
   6   3   0    3.39    1.00
   6   3   0    2.84    0.96
   6  -3  -1   33.99    2.56
   6   3   1   28.26    2.61
   6  -3  -1   33.43    2.45
   6  -3  -1   29.97    2.06
   6   3   1   31.90    2.36
   6   3   1   32.47    2.48
   6  -3  -2    9.33    1.39
   6  -3  -2   10.15    1.52
   6   3   2    6.17    1.47
   6   3   2    7.88    1.24
   6   3   2    9.40    1.46
   6  -3  -3    6.75    1.30
   6   3   3    7.13    1.51
   6  -3  -3    5.32    1.19
   6   3   3    5.29    1.05
   6   3   3    7.27    1.28
   6  -3  -4    7.15    1.27
   6   3   4    7.95    1.64
   6  -3  -4    7.78    1.30
   6   3   4    8.18    1.28
   6  -3  -5   31.36    2.33
   6   3   5   23.71    2.58
   6  -3  -6   10.17    1.35
   6   3   6   11.19    1.76
   6   3   7    2.46    0.96
   6  -3  -7    1.80    0.59
   6   4  -6   34.52    2.47
  -6  -4  -5    3.60    0.90
   6  -4   5    5.94    1.03
   6   4  -5    6.29    1.23
   6  -4   4  149.65    4.51
   6   4  -4  149.12    5.50
   6  -4   3    9.05    1.31
   6   4  -3   11.24    1.76
   6  -4   2   60.23    3.61
   6  -4   2   54.63    2.97
   6   4  -2   57.71    3.42
   6  -4   1    8.35    1.57
   6  -4   1    9.48    1.41
   6   4  -1    7.69    1.24
   6  -4   0   15.64    1.90
   6  -4   0   17.36    1.86
   6   4   0   16.41    1.78
   6   4   0   15.21    1.76
  -6  -4   1    7.66    1.30
   6  -4  -1    7.72    1.40
   6   4   1    9.63    1.51
   6   4   1    7.87    1.17
   6   4   1    7.79    1.25
   6  -4  -2   54.52    3.17
   6  -4  -2   60.50    3.24
   6   4   2   51.75    3.40
   6   4   2   60.00    3.25
   6  -4  -3    9.36    1.34
   6  -4  -3    9.42    1.36
   6   4   3   10.58    1.84
   6   4   3    9.13    1.39
   6  -4  -4  149.11    5.06
   6  -4  -4  141.48    4.40
   6   4   4  150.17    4.70
   6   4   5    6.11    1.36
   6  -4  -5    6.90    1.21
   6  -4  -6   40.39    2.33
   6   4   6   34.83    2.55
   6  -5   5    5.54    0.98
   6   5  -5    6.35    1.07
   6  -5   4    5.37    0.93
   6   5  -4    2.94    0.91
   6  -5   3    0.56    0.93
   6  -5   3    0.07    0.47
   6   5  -3   -1.43    0.77
   6  -5   2   44.00    3.04
   6   5  -2   41.97    2.53
   6  -5   1   61.54    3.50
   6   5  -1   56.97    2.83
  -6  -5   0   10.11    1.32
   6  -5   0    9.90    1.57
   6   5   0   11.06    1.54
  -6  -5   1   58.15    2.96
   6  -5  -1   58.65    3.16
   6   5   1   62.69    3.34
   6  -5  -2   31.91    2.33
  -6  -5   2   39.64    2.51
   6  -5  -2   40.92    2.53
   6   5   2   39.19    2.62
   6   5   2   38.99    2.61
  -6  -5   3    0.69    0.57
   6  -5  -3    0.36    0.66
   6   5   3    0.07    0.54
   6  -5  -3    1.63    0.74
   6   5   3   -0.30    0.59
   6   5   4    5.98    1.14
   6  -5  -4    4.30    0.93
   6   5   4    4.10    0.92
   6   5   5    4.19    1.02
   6  -5  -5    6.20    1.05
   6  -6   4    6.98    1.16
   6  -6   3   78.29    3.42
   6  -6   2   -0.55    0.73
   6  -6   1   70.37    3.31
  -6  -6   0   38.21    2.14
   6  -6   0   45.18    2.59
   6   6   0   41.15    2.56
  -6  -6   1   61.74    2.79
   6  -6  -1   64.40    2.96
  -6  -6   2    0.09    0.40
   6  -6  -2    1.54    0.65
   6   6   2    1.27    0.68
  -6  -6   3   65.77    2.81
   6  -6  -3   65.64    2.50
   6   6   3   70.93    2.88
  -6  -6   4    7.73    0.98
   6   7   0   18.25    1.45
   6   7   1   15.66    1.32
   7   0   0   -0.27    0.62
   7   0   0    0.77    0.66
   7   0   0    0.66    0.80
   7   0   1   54.26    2.99
   7   0   1   52.61    3.04
   7   0  -1   52.95    3.11
   7   0   2    0.59    0.80
   7   0   2    1.02    0.93
   7   0  -2   -0.23    0.75
   7   0   3   45.19    2.99
   7   0  -3   38.11    2.65
   7   0   4    0.79    0.77
   7   0  -4    0.33    0.66
   7   0   5   81.96    3.65
   7   0  -5   73.47    3.16
   7   0   6   28.10    2.02
   7  -1   6    5.36    0.90
   7  -1   5   29.40    2.20
   7   1  -5   26.03    2.05
   7  -1   4    7.98    1.30
   7   1  -4    5.92    1.26
   7  -1   3   32.39    2.45
   7   1  -3   33.57    2.64
   7  -1   2   29.57    2.37
   7  -1   2   35.45    2.45
   7   1  -2   31.12    2.58
   7  -1   1    2.73    1.02
   7  -1   1    2.57    0.91
   7   1  -1    4.18    1.25
   7  -1   0    0.90    0.64
   7  -1   0    2.69    0.94
   7  -1   0    2.13    0.81
   7   1   0    2.33    1.02
   7  -1  -1    2.22    0.84
   7  -1  -1    3.42    0.84
   7   1   1    1.32    0.71
   7   1   1    1.75    0.91
   7  -1  -1    2.06    0.85
   7  -1  -2   29.95    2.18
   7   1   2   31.64    2.40
   7   1   2   27.98    2.17
   7  -1  -2   27.04    2.12
   7  -1  -3   34.02    2.21
   7   1   3   31.57    2.44
   7  -1  -3   31.51    2.22
   7  -1  -4    8.68    1.19
   7   1   4    5.49    1.19
   7  -1  -4    5.97    1.06
   7  -1  -5   29.94    1.99
   7   1   5   23.84    2.13
   7   1   6    3.57    0.82
   7  -2   5    0.85    0.67
   7   2  -5    1.87    0.60
   7  -2   4    7.77    1.26
   7   2  -4    4.51    1.13
   7  -2   3   10.09    1.48
   7   2  -3    6.87    1.37
   7  -2   2    9.54    1.27
   7  -2   2   12.82    1.53
   7   2  -2   11.04    1.60
   7  -2   1    2.75    0.89
   7  -2   1    3.23    0.94
   7  -2   1    5.42    1.05
   7   2  -1    1.78    0.97
   7  -2   0  190.76    5.46
   7  -2   0  204.20    5.55
   7  -2   0  191.47    5.25
   7   2   0  195.60    5.74
   7  -2  -1    4.23    1.04
   7  -2  -1    2.52    0.96
   7   2   1    3.83    1.02
   7  -2  -2   12.06    1.52
   7   2   2    9.13    1.42
   7  -2  -2    8.57    1.12
   7   2   3   10.05    1.69
   7  -2  -3    7.27    1.14
   7   2   3    9.08    1.39
   7  -2  -4    5.42    1.01
   7   2   4    4.98    1.08
   7   2   5    1.29    0.79
   7  -2  -5    1.31    0.52
   7   2   5    0.21    0.74
   7  -3   5    2.60    0.71
   7   3  -5    1.69    0.75
   7  -3   4    9.32    1.23
   7   3  -4    7.32    1.34
   7  -3   3   24.35    1.94
   7  -3   3   31.98    2.17
   7   3  -3   29.52    2.33
   7  -3   2    8.72    1.30
   7  -3   2   11.14    1.38
   7   3  -2   11.57    1.54
   7  -3   1    1.33    0.63
   7  -3   1   -0.24    0.63
   7   3  -1   -0.06    0.66
   7  -3   0    1.94    0.76
   7   3   0    2.35    0.68
   7  -3  -1   -0.15    0.63
   7   3   1    0.41    0.52
   7   3   1    0.44    0.67
   7  -3  -2   11.03    1.39
   7   3   2   12.38    1.35
   7   3   2   10.54    1.32
   7  -3  -3   30.55    2.14
   7   3   3   22.37    2.22
   7   3   4    6.41    1.25
   7  -3  -4    7.46    1.13
   7   3   5    1.47    0.77
   7  -4   4    0.20    0.45
   7   4  -4    0.90    0.67
   7  -4   3    0.50    0.68
   7  -4   3    0.75    0.61
   7   4  -3    0.19    0.50
   7  -4   2   14.88    1.63
   7   4  -2   17.17    1.64
   7  -4   1    4.14    1.00
   7   4  -1    4.50    0.91
   7   4   0   43.09    2.29
   7   4   0   40.74    2.42
   7  -4  -1    4.16    0.92
   7   4   1    3.34    0.90
   7  -4  -2   18.49    1.61
   7   4   2   16.75    1.56
   7  -4  -3    1.19    0.71
   7   4   3    0.17    0.67
   7   4   4   -1.24    0.81
   7  -5   2    8.97    1.20
   7  -5   1    7.55    1.09
   7  -5   0    1.33    0.66
   7   5   0    0.38    0.63
   7  -5  -1    6.79    1.04
   7   5   1    6.96    1.05
   7  -5  -2    8.53    1.04
   7   5   2    8.70    1.01
   8   0   0   10.49    1.30
   8   0  -1    8.64    1.20
   8   0  -2   14.71    1.42
   8  -1   2    3.38    0.79
   8   1  -2    3.70    0.77
   8  -1   1   10.01    1.18
   8   1  -1    8.61    1.21
   8   1   0   21.45    1.78
   8   1   1    9.52    1.16
   8  -1  -1    8.07    1.09
   8   2  -1    2.05    0.80
   8   2   0    1.55    0.60
   8   2   1    4.70    0.87
   0   0   0    0.00    0.00


TITL 1a in P2(1)2(1)2(1)
REM P2(1)2(1)2(1) (#19 in standard setting)
CELL 1.54184   7.053272   8.774187  10.055196  90.0000  90.0000  90.0000
ZERR    4.00   0.000201   0.000215   0.000234   0.0000   0.0000   0.0000
LATT -1
SYMM -x+1/2,-y, z+1/2
SYMM -x, y+1/2,-z+1/2
SYMM  x+1/2,-y+1/2,-z
SFAC C H N Cl
UNIT 16.00 8.00 20.00 4.00
TREF
HKLF 4
END
_computing_structure_solution     'SHELXT 2018/2 (Sheldrick, 2018)'
;
_shelx_hkl_checksum              38771
_olex2_submission_special_instructions 'No special instructions were received'
_oxdiff_exptl_absorpt_empirical_details
;
Empirical correction (ABSPACK) includes:
- Absorption correction using spherical harmonics
- Frame scaling
;
_oxdiff_exptl_absorpt_empirical_full_max 1.547
_oxdiff_exptl_absorpt_empirical_full_min 0.809
loop_
_space_group_symop_operation_xyz
'x, y, z'
'-x+1/2, -y, z+1/2'
'-x, y+1/2, -z+1/2'
'x+1/2, -y+1/2, -z'
loop_
_atom_site_label
_atom_site_type_symbol
_atom_site_fract_x
_atom_site_fract_y
_atom_site_fract_z
_atom_site_U_iso_or_equiv
_atom_site_adp_type
_atom_site_occupancy
_atom_site_site_symmetry_order
_atom_site_calc_flag
_atom_site_refinement_flags_posn
_atom_site_refinement_flags_adp
_atom_site_refinement_flags_occupancy
_atom_site_disorder_assembly
_atom_site_disorder_group
Cl1 Cl 0.29021(15) 0.33374(10) 0.32018(10) 0.0632(3) Uani 1 1 d . . . . .
N4 N 0.3572(4) 0.7481(3) 0.4117(3) 0.0409(6) Uani 1 1 d . . . . .
N5 N 0.3675(4) 0.5948(3) 0.4182(3) 0.0444(7) Uani 1 1 d . . . . .
N3 N 0.4304(5) 0.8389(4) 0.5062(3) 0.0576(8) Uani 1 1 d . . . . .
N2 N 0.3923(6) 0.9773(4) 0.4659(3) 0.0655(10) Uani 1 1 d . . . . .
N1 N 0.2981(5) 0.9807(3) 0.3492(3) 0.0570(8) Uani 1 1 d . . . . .
C9 C 0.2768(5) 0.8344(3) 0.3152(3) 0.0409(7) Uani 1 1 d . . . . .
C7 C 0.2005(6) 0.6046(4) 0.2083(3) 0.0484(8) Uani 1 1 d . . . . .
H7 H 0.147632 0.548551 0.139069 0.058 Uiso 1 1 calc R U . . .
C6 C 0.2867(5) 0.5299(4) 0.3171(3) 0.0427(7) Uani 1 1 d . . . . .
C8 C 0.1958(6) 0.7579(4) 0.2061(3) 0.0491(8) Uani 1 1 d . . . . .
H8 H 0.141421 0.810960 0.135661 0.059 Uiso 1 1 calc R U . . .
loop_
_atom_site_aniso_label
_atom_site_aniso_U_11
_atom_site_aniso_U_22
_atom_site_aniso_U_33
_atom_site_aniso_U_23
_atom_site_aniso_U_13
_atom_site_aniso_U_12
Cl1 0.0723(6) 0.0348(5) 0.0826(7) -0.0032(4) 0.0189(5) -0.0019(5)
N4 0.0512(15) 0.0377(14) 0.0337(13) -0.0019(12) -0.0009(13) -0.0028(12)
N5 0.0537(16) 0.0388(15) 0.0406(14) 0.0053(12) 0.0022(14) 0.0007(13)
N3 0.073(2) 0.0551(19) 0.0443(15) -0.0086(17) -0.0085(15) -0.0099(19)
N2 0.083(2) 0.0499(19) 0.063(2) -0.0164(16) 0.0037(19) -0.0113(18)
N1 0.071(2) 0.0391(15) 0.0605(18) -0.0029(14) 0.0066(18) -0.0010(16)
C9 0.0507(17) 0.0349(16) 0.0371(15) 0.0037(13) 0.0054(14) 0.0019(16)
C7 0.058(2) 0.0521(19) 0.0348(16) -0.0083(14) 0.0001(18) -0.0044(17)
C6 0.0488(18) 0.0352(16) 0.0442(17) -0.0022(13) 0.0102(17) -0.0006(15)
C8 0.057(2) 0.054(2) 0.0356(16) 0.0065(14) -0.0014(17) 0.0027(17)
loop_
_atom_type_symbol
_atom_type_description
_atom_type_scat_dispersion_real
_atom_type_scat_dispersion_imag
_atom_type_scat_source
C C 0.0181 0.0091 'International Tables Vol C Tables 4.2.6.8 and 6.1.1.4'
H H 0.0000 0.0000 'International Tables Vol C Tables 4.2.6.8 and 6.1.1.4'
Cl Cl 0.3639 0.7018 'International Tables Vol C Tables 4.2.6.8 and 6.1.1.4'
N N 0.0311 0.0180 'International Tables Vol C Tables 4.2.6.8 and 6.1.1.4'
loop_
_geom_angle_atom_site_label_1
_geom_angle_atom_site_label_2
_geom_angle_atom_site_label_3
_geom_angle
_geom_angle_site_symmetry_1
_geom_angle_site_symmetry_3
_geom_angle_publ_flag
N5 N4 C9 127.9(3) . . ?
N3 N4 N5 122.4(3) . . ?
N3 N4 C9 109.6(3) . . ?
C6 N5 N4 112.1(3) . . ?
N2 N3 N4 104.6(3) . . ?
N3 N2 N1 113.0(3) . . ?
C9 N1 N2 104.9(3) . . ?
N4 C9 C8 117.5(3) . . ?
N1 C9 N4 107.8(3) . . ?
N1 C9 C8 134.7(3) . . ?
C6 C7 H7 120.4 . . ?
C8 C7 H7 120.4 . . ?
C8 C7 C6 119.1(3) . . ?
N5 C6 Cl1 114.7(3) . . ?
N5 C6 C7 126.3(3) . . ?
C7 C6 Cl1 118.9(3) . . ?
C9 C8 H8 121.5 . . ?
C7 C8 C9 117.0(3) . . ?
C7 C8 H8 121.5 . . ?
loop_
_geom_bond_atom_site_label_1
_geom_bond_atom_site_label_2
_geom_bond_distance
_geom_bond_site_symmetry_2
_geom_bond_publ_flag
Cl1 C6 1.722(3) . ?
N4 N5 1.348(4) . ?
N4 N3 1.343(4) . ?
N4 C9 1.355(4) . ?
N5 C6 1.297(4) . ?
N3 N2 1.308(5) . ?
N2 N1 1.349(5) . ?
N1 C9 1.336(4) . ?
C9 C8 1.408(5) . ?
C7 H7 0.9300 . ?
C7 C6 1.413(5) . ?
C7 C8 1.346(5) . ?
C8 H8 0.9300 . ?
loop_
_geom_torsion_atom_site_label_1
_geom_torsion_atom_site_label_2
_geom_torsion_atom_site_label_3
_geom_torsion_atom_site_label_4
_geom_torsion
_geom_torsion_site_symmetry_1
_geom_torsion_site_symmetry_2
_geom_torsion_site_symmetry_3
_geom_torsion_site_symmetry_4
_geom_torsion_publ_flag
N4 N5 C6 Cl1 -178.8(2) . . . . ?
N4 N5 C6 C7 1.6(5) . . . . ?
N4 N3 N2 N1 -0.2(4) . . . . ?
N4 C9 C8 C7 1.7(6) . . . . ?
N5 N4 N3 N2 -179.7(3) . . . . ?
N5 N4 C9 N1 179.7(3) . . . . ?
N5 N4 C9 C8 -1.1(6) . . . . ?
N3 N4 N5 C6 179.6(3) . . . . ?
N3 N4 C9 N1 -0.4(4) . . . . ?
N3 N4 C9 C8 178.8(3) . . . . ?
N3 N2 N1 C9 -0.1(4) . . . . ?
N2 N1 C9 N4 0.3(4) . . . . ?
N2 N1 C9 C8 -178.7(4) . . . . ?
N1 C9 C8 C7 -179.4(4) . . . . ?
C9 N4 N5 C6 -0.5(5) . . . . ?
C9 N4 N3 N2 0.3(4) . . . . ?
C6 C7 C8 C9 -0.7(6) . . . . ?
C8 C7 C6 Cl1 179.4(3) . . . . ?
C8 C7 C6 N5 -1.1(6) . . . . ?
