#------------------------------------------------------------------------------
#$Date: 2022-03-06 06:37:54 +0200 (Sun, 06 Mar 2022) $
#$Revision: 273468 $
#$URL: file:///home/coder/svn-repositories/cod/cif/1/56/59/1565945.cif $
#------------------------------------------------------------------------------
#
# This file is available in the Crystallography Open Database (COD),
# http://www.crystallography.net/
#
# All data on this site have been placed in the public domain by the
# contributors.
#
data_1565945
loop_
_publ_author_name
'Wildner, Manfred'
'Zakharov, Boris A.'
'Bogdanov, Nikita E.'
'Talla, Dominik'
'Boldyreva, Elena V.'
'Miletich, Ronald'
_publ_section_title
;
 Crystallography relevant to Mars and Galilean icy moons: crystal behavior
 of kieserite-type monohydrate sulfates at extraterrestrial conditions
 down to 15 K
;
_journal_issue                   2
_journal_name_full               IUCrJ
_journal_page_first              194
_journal_page_last               203
_journal_paper_doi               10.1107/S2052252521012720
_journal_volume                  9
_journal_year                    2022
_chemical_formula_sum            'Fe H2 Mg0 O5 S'
_chemical_formula_weight         169.93
_space_group_crystal_system      monoclinic
_space_group_IT_number           15
_space_group_name_Hall           '-C 2yc'
_space_group_name_H-M_alt        'C 1 2/c 1'
_atom_sites_solution_hydrogens   difmap
_audit_creation_method           SHELXL-2017/1
_cell_angle_alpha                90
_cell_angle_beta                 118.368(10)
_cell_angle_gamma                90
_cell_formula_units_Z            4
_cell_length_a                   7.0404(10)
_cell_length_b                   7.5756(10)
_cell_length_c                   7.7450(10)
_cell_measurement_temperature    113(2)
_cell_volume                     363.48(9)
_computing_structure_refinement  'SHELXL-2017/1 (Sheldrick, 2017)'
_diffrn_ambient_temperature      113(2)
_diffrn_measured_fraction_theta_full 0.988
_diffrn_measured_fraction_theta_max 0.996
_diffrn_radiation_type           MoK\a
_diffrn_radiation_wavelength     0.71073
_diffrn_reflns_av_R_equivalents  0.0230
_diffrn_reflns_av_unetI/netI     0.0108
_diffrn_reflns_Laue_measured_fraction_full 0.988
_diffrn_reflns_Laue_measured_fraction_max 0.996
_diffrn_reflns_limit_h_max       12
_diffrn_reflns_limit_h_min       -12
_diffrn_reflns_limit_k_max       13
_diffrn_reflns_limit_k_min       -13
_diffrn_reflns_limit_l_max       14
_diffrn_reflns_limit_l_min       -14
_diffrn_reflns_number            10314
_diffrn_reflns_point_group_measured_fraction_full 0.988
_diffrn_reflns_point_group_measured_fraction_max 0.996
_diffrn_reflns_theta_full        25.242
_diffrn_reflns_theta_max         39.975
_diffrn_reflns_theta_min         4.202
_exptl_absorpt_coefficient_mu    4.606
_exptl_absorpt_correction_T_max  0.7479
_exptl_absorpt_correction_T_min  0.5814
_exptl_absorpt_correction_type   multi-scan
_exptl_absorpt_process_details
;
 SADABS 2016/2: Krause, L., Herbst-Irmer, R., Sheldrick G.M. & Stalke D.,
 J. Appl. Cryst. 48 (2015) 3-10
;
_exptl_crystal_density_diffrn    3.105
_exptl_crystal_F_000             336
_refine_diff_density_max         0.681
_refine_diff_density_min         -0.441
_refine_diff_density_rms         0.079
_refine_ls_extinction_coef       0.0419(14)
_refine_ls_extinction_expression Fc^*^=kFc[1+0.001xFc^2^\l^3^/sin(2\q)]^-1/4^
_refine_ls_extinction_method     'SHELXL-2017/1 (Sheldrick 2017)'
_refine_ls_goodness_of_fit_ref   1.193
_refine_ls_hydrogen_treatment    refall
_refine_ls_matrix_type           full
_refine_ls_number_parameters     40
_refine_ls_number_reflns         1128
_refine_ls_number_restraints     0
_refine_ls_restrained_S_all      1.193
_refine_ls_R_factor_all          0.0129
_refine_ls_R_factor_gt           0.0127
_refine_ls_shift/su_max          0.000
_refine_ls_shift/su_mean         0.000
_refine_ls_structure_factor_coef Fsqd
_refine_ls_weighting_details
'w=1/[\s^2^(Fo^2^)+(0.0130P)^2^+0.2400P] where P=(Fo^2^+2Fc^2^)/3'
_refine_ls_weighting_scheme      calc
_refine_ls_wR_factor_gt          0.0321
_refine_ls_wR_factor_ref         0.0322
_reflns_Friedel_coverage         0.000
_reflns_number_gt                1118
_reflns_number_total             1128
_reflns_threshold_expression     'I > 2\s(I)'
_cod_data_source_file            lt5044.cif
_cod_data_source_block           FeSO4H2O_N2_113K
_cod_depositor_comments
'Adding full bibliography for 1565934--1565967.cif.'
_cod_original_sg_symbol_H-M      'C 2/c'
_cod_database_code               1565945
_shelx_shelxl_version_number     2017/1
_shelx_space_group_comment
;
The symmetry employed for this shelxl refinement is uniquely defined
by the following loop, which should always be used as a source of
symmetry information in preference to the above space-group names.
They are only intended as comments.
;
_shelx_res_file
;
TITL 1991Fekiesx1 113K Apex in C2/c kieserite cell
    latt_corr_for_Nonius20C_1991Fekiesx1_113K_0m.res
    created by SHELXL-2017/1 at 15:54:05 on 08-Oct-2018

REM meas.  mon  7.0266(1)  7.5649(1)  7.7317(1) 90 118.3507(4) 90
REM trans. cryscomp
REM meas.trcl 7.0269(1) 7.5651(1) 7.7319(1) 90.0271(5) 118.3477(4) 89.9816(5)
REM trans. cryscomp
REM CELL 0.71073   7.0266  7.5649  7.7317 90 118.351 90
REM latt corr for Nonius20C  +.0138 +.0107 +.0133     +.017
CELL 0.71073   7.0404  7.5756  7.7450 90 118.368 90
ZERR    4.00   0.001   0.001   0.001   0.00   0.01   0.00
LATT  7
SYMM -X, Y, .5-Z
SFAC O H S MG FE
UNIT 20 8 4 0 4
SHEL 20 0.55285
OMIT -2 2 2
OMIT 1 3 1
OMIT -3 1 1
OMIT 3 3 3
REM DAMP 1000
L.S. 10
CONN 12 1.8 $O
EQIV $9 -x+1/2, y+1/2, -z+1/2
BOND $H
FMAP 2
PLAN 20
ACTA
HTAB O3 O2_$9
HTAB
REM EXYZ MG FE
REM EADP MG FE
REM SUMP 1.0 0 1.0 2 1.0 3
WGHT    0.013000    0.240000
EXTI    0.041904
FVAR       0.77423
FE    5    0.000000    0.500000    0.000000    10.50000    0.00364    0.00378 =
         0.00416    0.00046    0.00182    0.00003
S     3    0.000000    0.155123    0.250000    10.50000    0.00283    0.00326 =
         0.00436    0.00000    0.00162    0.00000
O1    1    0.168528    0.044974    0.400466    11.00000    0.00455    0.00773 =
         0.00792    0.00347    0.00231    0.00210
O2    1    0.099912    0.270149    0.159102    11.00000    0.00607    0.00564 =
         0.00832    0.00221    0.00450    0.00030
O3    1    0.000000    0.643809    0.250000    10.50000    0.00595    0.00637 =
         0.00643    0.00000    0.00316    0.00000
H     2    0.108819    0.711986    0.291897    11.00000    0.02081
HKLF 4




REM  1991Fekiesx1 113K Apex in C2/c kieserite cell
REM R1 =  0.0127 for    1118 Fo > 4sig(Fo)  and  0.0129 for all    1128 data
REM     40 parameters refined using      0 restraints

END

WGHT      0.0131      0.2477

REM Instructions for potential hydrogen bonds
EQIV $5 x+1/2, y+1/2, z
HTAB O3 S_$5
EQIV $3 x, y+1, z
HTAB O3 O1_$3
HTAB O3 O2_$9

REM Highest difference peak  0.681,  deepest hole -0.441,  1-sigma level  0.079
Q1    1  -0.0642  0.5083  0.0331  11.00000  0.05    0.68
Q2    1   0.0620  0.5424  0.0702  11.00000  0.05    0.42
Q3    1   0.0411  0.2050  0.1817  11.00000  0.05    0.38
Q4    1   0.0960  0.0993  0.3424  11.00000  0.05    0.33
Q5    1  -0.0156  0.5851 -0.1129  11.00000  0.05    0.23
Q6    1   0.0986  0.3633  0.1723  11.00000  0.05    0.23
Q7    1   0.0362  0.3357  0.2310  11.00000  0.05    0.21
Q8    1   0.0757  0.4114  0.2133  11.00000  0.05    0.21
Q9    1   0.2403  0.0356  0.3501  11.00000  0.05    0.20
Q10   1   0.0351  0.3259  0.0832  11.00000  0.05    0.20
Q11   1  -0.0178  0.6319  0.3192  11.00000  0.05    0.19
Q12   1   0.1158  0.0544  0.4410  11.00000  0.05    0.18
Q13   1   0.0996 -0.0335  0.1556  11.00000  0.05    0.17
Q14   1   0.0000  0.2525  0.2500  10.50000  0.05    0.17
Q15   1   0.1610  0.0062  0.3323  11.00000  0.05    0.17
Q16   1   0.0768  0.6845  0.1692  11.00000  0.05    0.17
Q17   1  -0.0385  0.3505  0.1226  11.00000  0.05    0.16
Q18   1   0.0000  0.4123  0.2500  10.50000  0.05    0.16
Q19   1   0.0190  0.8139  0.2102  11.00000  0.05    0.16
Q20   1   0.1796  0.1443  0.4103  11.00000  0.05    0.15
;
_shelx_res_checksum              54904
_shelx_hkl_file
;
   2   0   0 8229.43 198.017   4
   2   0   0 8344.86 198.886   7
  -2   0   0 9661.25 199.037   5
  -2   0   0 9999.99 198.487  12
   4   0   0 2871.37 65.4925  10
  -4   0   0 3087.71 71.9239  15
   4   0   0 2841.71 68.3998   8
   4   0   0 2940.26 65.4161   4
   4   0   0 2959.85 65.8418   7
  -4   0   0 3059.04 65.5363  12
  -4   0   0 3059.07 67.6147  11
  -4   0   0 3123.72 65.6574   5
  -6   0   0 4096.60 89.5938  11
   6   0   0 4118.99 91.2571   7
  -6   0   0 4317.83 91.1915   5
   6   0   0 3966.18 90.6373   8
   6   0   0 4071.33 90.5533   4
  -6   0   0 4221.95 90.9700  12
  -6   0   0 4091.58 92.0419  15
  -8   0   0 1964.22 46.5539  12
   8   0   0 1927.87 46.2241   3
  -8   0   0 1993.00 46.5941  16
  -8   0   0 2037.05 46.7550   5
   8   0   0 1931.12 46.4176   7
 -10   0   0 1593.90 40.0713   5
 -10   0   0 1589.77 39.7167   1
 -10   0   0 1576.14 40.0771  12
  10   0   0 1662.40 48.9776  14
 -10   0   0 1577.21 39.9199  16
  -1  -1   0 2065.76 44.6811  16
   1  -1   0 1881.38 47.5021  15
  -1   1   0 2000.27 49.1117  15
   3  -1   0 4829.07 112.918   7
  -3  -1   0 5277.14 114.400  16
   3  -1   0 4772.63 115.228   8
  -3  -1   0 5174.00 112.893   5
  -3  -1   0 5146.40 112.862  12
   3  -1   0 4844.93 112.014   4
  -3  -1   0 5267.06 111.338  11
   3  -1   0 4729.30 117.557  15
   3  -1   0 4976.61 113.000   3
  -3  -1   0 5320.39 116.532  15
   3   1   0 4769.55 113.844  10
  -3   1   0 5175.21 112.812  11
   3   1   0 5015.51 116.615  15
  -3   1   0 5206.79 114.757   5
  -3   1   0 5086.85 116.763  15
   3   1   0 4788.11 114.405   7
   3   1   0 4747.16 112.194   4
  -5  -1   0 468.170 12.2929  16
   5  -1   0 493.665 12.4350   4
  -5  -1   0 483.015 12.5022  12
  -5  -1   0 476.024 13.1305  15
   5  -1   0 471.011 12.4423   3
  -5  -1   0 475.160 12.5027   5
  -5  -1   0 473.947 11.5358  11
   5  -1   0 493.899 12.5929   7
   5  -1   0 473.314 12.9736   8
  -5   1   0 493.278 11.8426  11
   5   1   0 479.997 12.3468   4
   5   1   0 485.749 13.0148   7
   5   1   0 469.155 11.8869   8
  -5   1   0 502.098 13.7935  15
  -5   1   0 481.011 12.6624   5
  -5   1   0 473.926 12.4577  12
   5   1   0 467.861 12.0942  10
  -7  -1   0 289.580 9.51136  16
  -7  -1   0 299.765 9.79161   5
   7  -1   0 304.376 13.7991  14
  -7  -1   0 288.842 9.67275  12
   7  -1   0 327.204 9.88939   7
   7  -1   0 296.470 9.52985   3
  -7   1   0 298.718 9.73696  12
  -7   1   0 309.774 10.0246   5
   7   1   0 311.744 10.3411   7
   7   1   0 300.621 9.39652   4
  -7   1   0 311.611 10.9392  15
  -9  -1   0 666.790 19.1203   5
   9  -1   0 691.701 25.8240  14
  -9  -1   0 636.667 18.6513  16
  -9  -1   0 658.815 19.1624  12
  -9  -1   0 636.206 18.4479   1
   9   1   0 628.915 20.3774   3
  -9   1   0 656.298 19.0656  16
  -9   1   0 671.933 19.2467   5
   9   1   0 675.210 19.3093   7
  -9   1   0 665.678 19.1740  12
 -11  -1   0 114.261 6.96471   5
 -11  -1   0 115.864 7.07400  12
  11  -1   0 110.242 10.6043  14
 -11   1   0 115.234 6.74620   1
 -11   1   0 113.582 6.61040   5
  11   1   0 95.3048 7.10645   7
  11   1   0 108.148 10.8312  14
 -11   1   0 116.600 6.74846  12
   0  -2   0 1576.12 35.5596   9
   0  -2   0 1600.91 34.6133  12
   0  -2   0 1538.71 36.0456   6
   0  -2   0 1570.52 35.9522  16
   0   2   0 1537.82 34.3783  10
   2  -2   0 355.148 8.68245   4
   2  -2   0 367.799 8.90446   6
   2  -2   0 360.736 9.67678   8
   2  -2   0 343.509 10.3820  14
   2  -2   0 363.111 9.06583   3
  -2  -2   0 379.306 8.74004  16
   2  -2   0 360.704 10.0092  15
  -2  -2   0 374.548 8.68402   1
  -2  -2   0 385.965 8.92635  12
  -2  -2   0 367.193 8.89156   5
  -2   2   0 367.391 8.76975   2
   2   2   0 368.409 9.44160  10
  -2   2   0 368.722 8.96006  11
   2   2   0 390.696 8.74557   4
  -2   2   0 386.209 10.0764  15
   2   2   0 373.056 9.35666   7
   4  -2   0 1793.45 39.6617   4
   4  -2   0 1744.23 39.8811   3
   4  -2   0 1738.80 40.8153   8
  -4  -2   0 1799.00 39.0150  11
   4  -2   0 1768.88 39.5465   7
  -4  -2   0 1813.57 39.8026  12
  -4  -2   0 1780.37 39.7745   5
  -4  -2   0 1741.63 39.4200   1
  -4  -2   0 1774.80 39.5411  16
   4  -2   0 1711.95 43.2825  14
   4   2   0 1734.29 39.5537   4
   4   2   0 1769.74 40.0825  10
   4   2   0 1763.96 40.5045   7
  -4   2   0 1840.75 40.2202   5
  -4   2   0 1793.59 41.4554  15
  -4   2   0 1883.76 39.7578  11
  -6  -2   0 2042.68 46.3251  16
   6  -2   0 1974.27 46.4629   3
  -6  -2   0 2045.07 45.1981  11
  -6  -2   0 2014.85 46.5595   5
   6  -2   0 2043.58 47.7286   8
   6  -2   0 2038.78 46.2237   7
   6  -2   0 2071.73 52.2474  14
  -6  -2   0 2055.12 46.6432  12
  -6   2   0 2015.38 46.6112  12
  -6   2   0 2103.14 48.5745  15
  -6   2   0 2127.36 47.0490   5
   6   2   0 1958.89 46.1825  10
   6   2   0 2041.52 47.3789   7
  -6   2   0 2077.78 45.7835  11
   6   2   0 2025.71 46.2005   4
   8  -2   0 127.780 9.60664  14
  -8  -2   0 121.369 5.97344   5
  -8  -2   0 118.932 5.97916  12
  -8  -2   0 111.678 5.39853   1
  -8  -2   0 104.935 5.21482  16
   8   2   0 122.049 6.62658   7
  -8   2   0 125.096 6.20242   5
  -8   2   0 108.708 5.86407  12
 -10  -2   0 23.5881 3.56113   5
 -10  -2   0 38.5320 4.13644  12
  10  -2   0 34.4425 6.76807  14
 -10   2   0 33.4350 4.12336  12
  10   2   0 27.1704 5.55466  14
 -10   2   0 26.8312 3.84157   5
 -10   2   0 28.0606 3.51067  16
  10   2   0 31.5748 4.16143   7
  -1  -3   0 2691.59 62.0049   9
   1  -3   0 2738.83 62.1205   3
   1  -3   0 2703.15 64.3526   8
   1  -3   0 2621.21 61.2544  13
   1  -3   0 2813.03 61.8289   6
   1  -3   0 2665.25 64.3130  14
  -1  -3   0 2740.69 60.3766   1
  -1  -3   0 2732.17 61.8094  16
   1  -3   0 2673.83 63.9744   9
  -1  -3   0 2656.50 62.6581   5
  -1  -3   0 2722.10 60.8523  12
   1   3   0 2730.39 60.6680   7
   1   3   0 2628.43 61.9274  10
  -1   3   0 2770.98 67.0241  15
  -1   3   0 2824.56 61.1696  10
   3  -3   0 6023.34 142.388   8
  -3  -3   0 6429.48 134.872  16
   3  -3   0 5588.40 144.866  14
  -3  -3   0 6470.08 136.481   1
   3  -3   0 5903.44 135.328   6
   3  -3   0 6293.49 140.351   3
  -3  -3   0 6206.12 136.864   5
  -3  -3   0 6478.85 137.960  12
  -3   3   0 6189.97 133.458  11
   3   3   0 5676.18 138.010  10
   3   3   0 5514.94 135.964   7
  -3   3   0 6364.04 146.107  15
  -3   3   0 5974.49 136.105   2
   3   3   0 5768.99 134.642   4
  -5  -3   0 2741.75 60.6496  12
   5  -3   0 2713.23 62.2497   8
  -5  -3   0 2687.07 60.1322   1
  -5  -3   0 2677.01 60.6177   5
   5  -3   0 2663.36 65.3654  14
  -5  -3   0 2739.23 60.2623  16
   5  -3   0 2742.74 60.8154   3
  -5   3   0 2795.40 61.1518   5
   5   3   0 2808.54 61.7757   7
   5   3   0 2657.76 61.0059  10
  -5   3   0 2786.09 60.4519  11
   5   3   0 2684.41 60.2399   4
  -5   3   0 2733.04 62.7980  15
   7  -3   0 1538.80 42.1482  14
   7  -3   0 1556.40 37.5190   8
  -7  -3   0 1405.86 35.0344  16
  -7  -3   0 1501.39 35.7594  12
  -7  -3   0 1446.67 35.0072   1
  -7  -3   0 1520.69 35.8239   5
   7   3   0 1430.32 35.3131  10
   7   3   0 1485.17 36.6628   7
  -7   3   0 1511.86 37.8865  15
   7   3   0 1492.89 35.1360   4
  -7   3   0 1531.47 34.7136  11
  -7   3   0 1497.35 35.8004  12
  -7   3   0 1525.49 36.0993   5
  -9  -3   0 1240.93 32.0311   5
  -9  -3   0 1252.29 32.1231  12
   9  -3   0 1271.70 39.6603  14
   9   3   0 1189.50 32.2648   7
  -9   3   0 1259.64 32.1477   5
  -9   3   0 1259.84 31.9663  12
   0  -4   0 3059.87 67.9093  12
   0  -4   0 3119.44 69.2778   1
   0  -4   0 3138.35 67.3332  16
   0  -4   0 3091.26 69.1284   6
   0  -4   0 3011.99 69.9306   8
   0  -4   0 2711.03 69.0640  13
   0  -4   0 3074.05 69.9591   9
   0   4   0 3164.07 71.9996  10
   0   4   0 3183.66 68.6922   7
   2  -4   0 463.421 13.7413  14
  -2  -4   0 486.977 11.4849   1
   2  -4   0 481.034 11.7779   6
   2  -4   0 475.529 13.1980   8
  -2  -4   0 468.831 11.8216   5
   2  -4   0 485.995 12.2973   3
  -2  -4   0 492.904 11.5422  16
  -2  -4   0 459.017 11.2552   9
  -2  -4   0 477.815 11.8021  12
  -2   4   0 501.110 11.8401  10
   2   4   0 491.438 11.1139   4
  -2   4   0 492.674 13.4561  15
   2   4   0 488.852 12.9428  10
   2   4   0 492.513 12.3992   7
  -2   4   0 497.796 12.2069   2
  -4  -4   0 4.70335 1.10090   5
   4  -4   0 6.24848 1.71835  14
  -4  -4   0 8.22687 1.33300  12
   4  -4   0 7.09916 1.16020   6
  -4  -4   0 7.22261 1.05094  16
   4  -4   0 3.49960 1.38976   8
  -4  -4   0 8.19278 1.10515   1
   4   4   0 6.76508 0.96463   4
   4   4   0 6.64681 1.43310   7
   4   4   0 8.01392 1.67215  10
  -4   4   0 6.70694 1.11466   2
  -4   4   0 8.16608 1.33596  11
   6  -4   0 77.4839 3.95254   3
  -6  -4   0 74.6733 4.01323  12
  -6  -4   0 67.0482 3.37896   1
   6  -4   0 76.2673 6.20110  14
   6  -4   0 79.5925 5.03337   8
  -6  -4   0 73.1595 3.98098   5
  -6  -4   0 72.0695 3.54545  16
  -6   4   0 73.8947 4.14894   5
   6   4   0 74.0309 4.33270  10
  -6   4   0 75.0394 5.20544  15
  -6   4   0 77.9255 3.91339  11
   6   4   0 79.0519 4.94541   7
   6   4   0 77.9707 3.71423   4
  -8  -4   0 74.8465 4.96413  12
  -8  -4   0 90.7195 5.06167   5
   8  -4   0 88.1997 6.15004   8
   8  -4   0 87.0606 8.17653  14
  -8   4   0 85.3800 5.21947  12
   8   4   0 96.5665 6.22537   7
  -8   4   0 90.1380 5.42441   5
 -10  -4   0 129.710 7.33199  12
  10  -4   0 140.121 11.2080  14
 -10  -4   0 128.965 7.22869   5
 -10   4   0 133.079 7.01957  12
 -10   4   0 151.531 7.78241   5
  10   4   0 145.292 8.11573   7
   1  -5   0 2392.61 55.4427   8
   1  -5   0 2406.85 54.3159   9
  -1  -5   0 2459.38 53.8172   6
  -1  -5   0 2400.22 53.7336   9
   1  -5   0 2458.57 55.7192  14
  -1  -5   0 2443.19 53.4615  16
   1  -5   0 2440.70 53.7261   6
  -1  -5   0 2434.41 53.3803   1
  -1  -5   0 2446.96 53.7014  12
  -1  -5   0 2320.21 54.4264   8
  -1   5   0 2524.90 54.4870  10
   1   5   0 2496.81 54.0441   7
  -1   5   0 2528.80 54.6429   2
   1   5   0 2436.29 55.0814  10
  -1   5   0 2428.28 53.1076   7
  -1   5   0 2474.56 55.6944  15
  -3  -5   0 1179.81 26.4986   1
   3  -5   0 1179.89 26.9923   6
  -3  -5   0 1178.18 26.5570  16
   3  -5   0 1147.92 29.0777   8
   3  -5   0 1145.06 27.5208   3
   3  -5   0 1089.51 30.0472  14
  -3  -5   0 1179.67 27.0741  12
  -3  -5   0 1152.44 27.0647   5
  -3   5   0 1206.24 27.2472   2
  -3   5   0 1178.75 29.3472  15
  -3   5   0 1164.95 27.2601  11
  -3   5   0 1178.55 26.4564  10
   3   5   0 1198.77 28.6149  10
   3   5   0 1196.35 27.9925   7
   3   5   0 1126.79 25.9905   4
   5  -5   0 393.539 11.2340   3
   5  -5   0 401.543 12.9978   8
  -5  -5   0 379.791 10.2606   1
  -5  -5   0 375.424 10.9642  12
  -5  -5   0 381.264 11.0054   5
   5  -5   0 388.524 10.7950   6
   5  -5   0 381.260 14.7903  14
  -5  -5   0 368.855 10.3023  16
   5   5   0 393.505 12.0442  10
  -5   5   0 379.039 10.9858  11
   5   5   0 374.661 10.1474   4
   5   5   0 355.812 10.5103   2
  -5   5   0 393.167 11.4091   5
  -5   5   0 388.344 13.2158  15
   5   5   0 402.078 12.2364   7
  -7  -5   0 355.888 11.3880  12
   7  -5   0 370.373 16.2369  14
   7  -5   0 372.526 13.5374   8
  -7  -5   0 353.797 11.5119   5
   7   5   0 352.195 11.7983  10
  -7   5   0 362.990 10.8540  11
  -7   5   0 351.893 11.6728   5
   7   5   0 360.803 12.4065   7
  -7   5   0 346.677 13.1573  15
  -9  -5   0 498.221 15.9943   5
  -9  -5   0 517.827 16.2149  12
   9  -5   0 519.285 22.1890  14
   9  -5   0 513.121 17.8961   8
  -9   5   0 504.480 15.9610   5
   9   5   0 513.649 17.2281   7
  -9   5   0 500.460 15.8758  12
   0  -6   0 2717.73 63.1794   8
   0  -6   0 2833.72 61.6181   6
   0  -6   0 2772.29 61.2654   1
   0   6   0 2800.67 61.2812   7
   0   6   0 2831.78 62.7011   2
   0   6   0 2809.36 62.8246  10
  -2  -6   0 3769.16 81.2268  16
  -2  -6   0 3715.70 81.6801  12
   2  -6   0 3715.94 84.1036   8
  -2  -6   0 3389.36 81.9227   8
  -2  -6   0 3681.24 81.0867   1
   2  -6   0 3738.72 81.6309   6
   2  -6   0 3696.22 84.6503  14
   2   6   0 3827.46 83.5934  10
   2   6   0 3793.72 82.2948   7
  -2   6   0 3810.23 82.0242  10
   2   6   0 3686.43 82.7557   2
  -2   6   0 3842.83 84.4909  15
  -2   6   0 3826.33 82.5346   2
   4  -6   0 3814.87 86.2446   8
  -4  -6   0 3825.86 82.5532  16
   4  -6   0 3822.72 83.9599   3
  -4  -6   0 3748.21 82.4193   1
  -4  -6   0 3895.22 83.5072   5
   4  -6   0 3454.52 87.5237  14
  -4  -6   0 3834.31 83.3592  12
   4  -6   0 3847.09 83.1332   6
  -4   6   0 3863.06 86.5277  15
  -4   6   0 3823.60 83.5410  11
   4   6   0 3798.70 84.4171   7
  -4   6   0 3869.34 83.2458   2
   4   6   0 3825.62 85.2183  10
   4   6   0 3635.05 83.6975   2
   4   6   0 3553.94 81.7728   4
  -6  -6   0 2504.62 56.1109  12
   6  -6   0 2498.76 59.1003   8
   6  -6   0 2418.66 62.3069  14
  -6  -6   0 2430.59 56.0729   5
  -6   6   0 2432.37 56.4085   5
  -6   6   0 2394.66 59.1680  15
   6   6   0 2366.27 57.2614  10
   6   6   0 2438.50 57.4342   7
  -6   6   0 2506.08 55.9525  11
  -8  -6   0 1288.15 32.9983  12
   8  -6   0 1321.72 40.2435  14
   8  -6   0 1399.61 36.3515   8
  -8  -6   0 1329.15 33.2259   5
   8   6   0 1232.19 33.3808  10
  -8   6   0 1299.73 33.1771   5
   8   6   0 1279.39 34.1997   7
  10  -6   0 607.483 25.4098  14
 -10  -6   0 619.544 19.0485   5
 -10  -6   0 607.650 18.8881  12
  10   6   0 621.295 20.1134   7
 -10   6   0 605.534 18.7773  12
  -1  -7   0 346.057 9.52936  12
  -1  -7   0 344.839 9.70563   6
  -1  -7   0 330.918 9.06338   1
   1  -7   0 335.364 11.3615   8
  -1  -7   0 306.118 10.3024   8
   1  -7   0 342.756 9.54010   6
   1   7   0 355.480 11.1409  10
   1   7   0 344.095 10.6498   2
  -1   7   0 349.895 11.8223  15
  -1   7   0 345.257 10.4242  10
   1   7   0 338.303 9.58532   7
  -1   7   0 339.323 10.5179   2
  -3  -7   0 422.556 11.4816  12
  -3  -7   0 413.452 10.6747   1
  -3  -7   0 404.648 10.7110  16
   3  -7   0 414.172 11.2694   6
   3  -7   0 376.263 13.9936  14
   3  -7   0 417.765 13.9436   8
  -3   7   0 402.831 11.8240   2
   3   7   0 406.987 12.3090   2
   3   7   0 398.032 12.0605   7
  -3   7   0 403.590 13.8264  15
   3   7   0 409.658 13.0809  10
   5  -7   0 786.677 19.7536   6
   5  -7   0 794.267 23.0898   8
  -5  -7   0 762.933 20.1253   5
  -5  -7   0 781.393 20.0368  12
   5  -7   0 695.725 24.0129  14
  -5   7   0 786.163 20.3148  11
  -5   7   0 740.892 22.8410  15
   5   7   0 794.073 21.9782  10
   5   7   0 788.073 21.4680   7
  -7  -7   0 277.786 10.1879   5
   7  -7   0 296.263 12.7215   8
   7  -7   0 278.154 14.3553  14
  -7  -7   0 283.683 10.1594  12
  -7   7   0 281.824 9.84009  11
   7   7   0 291.471 11.5550   7
   7   7   0 268.251 10.9510  10
  -7   7   0 273.512 10.3812   5
  -9  -7   0 33.3260 4.05536  12
   9  -7   0 35.5331 5.27143   8
   9   7   0 37.7606 5.25858   7
  -9   7   0 35.6250 4.10816  12
  -9   7   0 43.4101 4.84939   5
   0  -8   0 1205.51 31.8258   8
   0  -8   0 1253.78 29.8649   6
   0   8   0 1261.97 32.7356  15
   0   8   0 1292.95 31.4363  10
   0   8   0 1310.33 31.4067   2
   2  -8   0 1666.75 38.0286   6
  -2  -8   0 1662.23 38.1516  12
  -2  -8   0 1662.66 38.3934   6
  -2  -8   0 1593.22 37.3729  16
   2  -8   0 1710.32 41.5435   8
   2  -8   0 1560.44 40.9968  14
  -2  -8   0 1603.35 37.2861   1
  -2   8   0 1649.40 39.1705   2
   2   8   0 1664.80 39.6594   2
   2   8   0 1658.09 38.5620   7
   2   8   0 1652.27 40.4136  10
  -2   8   0 1664.36 38.6288  10
  -2   8   0 1609.75 41.4262  15
   4  -8   0 872.375 21.4495   6
  -4  -8   0 861.288 21.6032  12
   4  -8   0 750.234 24.9743  14
   4  -8   0 889.415 25.1373   8
  -4   8   0 840.183 21.7765   2
  -4   8   0 846.430 21.9663  11
   4   8   0 848.488 22.6142   7
   4   8   0 861.249 23.8352  10
  -4   8   0 812.468 24.7318  15
   4   8   0 835.137 22.4015   2
  -6  -8   0 320.885 10.7536  12
   6  -8   0 335.379 14.0338   8
   6  -8   0 287.790 14.3578  14
  -6   8   0 315.110 11.2947   5
   6   8   0 327.932 12.4737  10
   6   8   0 317.451 12.0576   7
  -6   8   0 309.855 10.8937  11
   8  -8   0 702.910 23.0693   8
  -8  -8   0 660.603 19.3778  12
  -8  -8   0 704.879 19.9706   5
  -8   8   0 557.904 19.2819  11
   8   8   0 656.648 20.7345  10
  -8   8   0 676.549 19.7573   5
   8   8   0 679.893 21.2618   7
   1  -9   0 2664.18 60.4032   6
  -1  -9   0 2416.83 62.0024   8
  -1  -9   0 2621.90 59.7605   1
  -1  -9   0 2689.72 60.6300   6
   1  -9   0 2692.36 63.8513   8
   1   9   0 2735.66 62.7489  10
   1   9   0 2702.83 62.2393   2
  -1   9   0 2751.47 61.7186  10
  -1   9   0 2687.28 64.3008  15
  -1   9   0 2779.79 62.1195   2
   3  -9   0 818.114 24.2005   8
   3  -9   0 786.066 20.3241   6
  -3  -9   0 793.832 20.5513  12
  -3  -9   0 787.392 20.8655   6
   3   9   0 784.000 22.8242  10
   3   9   0 802.449 22.0687   2
  -3   9   0 763.572 23.9027  15
  -3   9   0 804.687 21.2998  11
  -3   9   0 803.947 21.3879   2
   3   9   0 773.972 21.0645   7
   5  -9   0 925.458 23.3408   6
  -5  -9   0 914.118 23.7126  12
   5  -9   0 902.918 27.3603   8
  -5   9   0 920.748 24.2012  11
   5   9   0 905.999 26.3317  10
   5   9   0 872.948 24.1781   2
   5   9   0 880.345 24.7255   7
   7  -9   0 870.579 27.2194   8
  -7  -9   0 831.089 23.1224  12
   7   9   0 808.817 25.1692  10
  -7   9   0 834.415 23.5573   5
  -7   9   0 825.875 22.7776  11
   7   9   0 856.015 24.8868   7
   0 -10   0 34.4045 3.84273   8
   0 -10   0 38.4082 3.23510   6
   0  10   0 34.8041 3.62377   2
   0  10   0 30.6396 5.01914  15
   0  10   0 33.5943 4.00796  10
  -2 -10   0 85.3248 4.88791   6
   2 -10   0 85.8224 6.58151   8
   2 -10   0 83.5786 4.63166   6
   2  10   0 83.3812 6.34731  10
  -2  10   0 90.9721 5.84099   2
   2  10   0 85.2867 5.85070   2
  -4 -10   0 107.421 5.64643  12
  -4 -10   0 113.603 6.09466   6
   4 -10   0 115.330 5.75005   6
   4 -10   0 108.187 7.52457   8
   4  10   0 108.624 7.81133  10
   4  10   0 98.4518 5.98478   7
  -4  10   0 112.385 6.46591  11
   4  10   0 107.235 6.54095   2
  -4  10   0 101.477 6.02418   2
   6 -10   0 6.18685 3.16760   8
   6 -10   0 3.74199 1.93479   6
  -6 -10   0 4.61614 1.68393  12
  -6  10   0 4.34635 2.59942   5
   6  10   0 9.24813 2.62995   7
  -6  10   0 2.67155 2.61238  11
   6  10   0 6.32670 3.44793  10
  -1 -11   0 401.522 12.8560   6
   1 -11   0 406.209 12.7196   6
   1 -11   0 404.644 15.5684   8
   1  11   0 418.398 14.4038   2
  -1  11   0 423.039 14.5478   2
   1  11   0 427.141 14.9282  10
   3 -11   0 290.332 10.3304   6
  -3 -11   0 307.249 10.8178   6
   3 -11   0 311.704 13.8612   8
   3  11   0 297.115 12.1454   2
  -3  11   0 297.805 11.5838   2
  -3  11   0 313.225 11.5395  11
   3  11   0 316.753 13.3232  10
  -5 -11   0 919.485 25.3196   6
   5 -11   0 960.057 29.6441   8
  -5 -11   0 889.518 24.5515  12
   5 -11   0 884.771 23.9115   6
   5  11   0 932.446 28.1741  10
   5  11   0 916.256 25.5855   7
  -5  11   0 929.977 25.4788  11
   5  11   0 909.954 25.9733   2
   0 -12   0 496.964 15.1536   6
   0  12   0 490.828 16.6967   2
   0  12   0 508.507 16.8291  10
   2 -12   0 951.883 29.4432   8
  -2 -12   0 963.920 25.8295   6
   2 -12   0 962.490 25.4103   6
   2  12   0 997.328 28.6335  10
   2  12   0 988.519 28.0032   2
  -2  12   0 991.151 26.7290  11
  -2  12   0 953.431 27.0417   2
   4 -12   0 820.098 22.3869   6
  -4 -12   0 825.139 23.3242   6
   4 -12   0 878.945 28.0884   8
  -4  12   0 850.745 23.9537  11
  -4  12   0 796.316 23.7159   2
   4  12   0 829.986 26.3248  10
   4  12   0 809.965 24.4801   2
   1 -13   0 297.114 10.8323   6
  -1 -13   0 303.052 11.1411   6
   1  13   0 305.334 12.7370  10
   1  13   0 317.700 13.1521   2
  -1  13   0 316.370 12.0313  11
  -1  13   0 292.644 12.5823   2
   3 -13   0 10.3397 3.76966   8
  -3 -13   0 9.00077 2.53320   6
   3 -13   0 10.6994 2.49435   6
  -3  13   0 6.59109 3.13421  11
  -3  13   0 8.15074 3.43557   2
   3  13   0 6.40422 2.95597  10
   3  13   0 12.0874 3.77436   2
 -10   0   1 -0.6799 1.52316  16
 -10   0   1 -0.7999 1.62570   1
  10   0  -1 0.93144 1.87157   7
 -10   0   1 2.80041 2.07664  12
 -10   0   1 0.52290 1.71416   5
  10   0  -1 3.83072 2.89264  14
   8   0  -1 2.45867 1.36528   3
   8   0  -1 6.16599 3.16924  14
  -8   0   1 1.29902 1.51819  12
  -8   0   1 4.98171 1.62059   5
  -8   0   1 1.92318 1.17306  16
   8   0  -1 0.74673 1.62819   7
   6   0  -1 1.64943 0.84095   8
   6   0  -1 2.46341 0.67068  10
   6   0  -1 2.65650 1.25838   7
  -6   0   1 1.07599 0.45576  11
  -6   0   1 0.86961 0.79586  15
  -6   0   1 0.75497 1.03927  12
  -6   0   1 0.24935 0.90784  16
  -6   0   1 0.33514 0.88103   5
  -4   0   1 0.83742 0.52472  15
   4   0  -1 0.19129 0.43976   8
  -4   0   1 1.71735 0.64110   5
   4   0  -1 -0.0377 0.71427   7
  -4   0   1 2.46476 0.40942  11
   4   0  -1 1.09530 0.49052  10
  -4   0   1 0.17382 0.59031  12
   4   0  -1 0.62101 0.59427  15
   2   0  -1 1.33694 0.56563   7
   0   0   1 0.81349 0.25984  15
   0   0  -1 0.90863 0.26669  15
   0   0   1 0.99405 0.13033  16
   2   0   1 1.33220 0.42125   8
  -2   0  -1 0.58601 0.56672  15
   2   0   1 -0.1443 0.43791   7
  -2   0  -1 3.06034 0.49506  12
   2   0   1 1.33411 0.55452  15
  -2   0  -1 1.22474 0.35510  11
  -2   0  -1 2.11306 0.49107   5
   2   0   1 1.62124 0.45128   4
  -4   0  -1 0.20804 0.74862   5
  -4   0  -1 3.68944 0.78776  11
   4   0   1 0.80116 0.88714   7
   4   0   1 1.65391 0.85924   4
  -4   0  -1 1.04613 0.88954  15
   4   0   1 0.27513 0.46552   8
  -4   0  -1 0.05427 0.66972  12
  -6   0  -1 3.25721 1.19549   5
  -6   0  -1 0.92847 1.14313  15
   6   0   1 -0.2356 0.87883   7
  -6   0  -1 -0.0037 0.74301  12
   6   0   1 4.33650 1.43433   4
  -6   0  -1 0.70282 0.69108  11
  -8   0  -1 -0.1838 1.51846   5
  -8   0  -1 4.03947 1.55914  16
   8   0   1 0.18316 1.64409   7
  -8   0  -1 2.22748 1.70654  12
  10   0   1 3.54329 3.63155  14
 -10   0  -1 0.63182 1.39475  12
 -10   0  -1 1.02764 2.05669   5
  11  -1  -1 96.5030 10.0964  14
 -11  -1   1 84.3266 5.86270   1
 -11  -1   1 89.5675 5.96654   5
 -11  -1   1 83.9714 6.04271  12
 -11   1   1 87.3967 6.22385  12
 -11   1   1 82.6926 5.96058   1
  11   1  -1 97.1407 10.2314  14
 -11   1   1 84.1539 5.89350   5
  -9  -1   1 276.425 9.84114   5
   9  -1  -1 255.558 9.71678   3
  -9  -1   1 262.018 9.78234   1
  -9  -1   1 255.965 9.77838  16
   9  -1  -1 277.081 14.7851  14
  -9  -1   1 260.787 9.95087  12
  -9   1   1 264.216 9.81811   5
  -9   1   1 268.868 10.0981  16
   9   1  -1 279.962 10.5068   7
  -9   1   1 269.516 9.94507  12
   9   1  -1 276.433 14.8852  14
   9   1  -1 282.178 10.2063   3
  -7  -1   1 328.516 10.1522  12
   7  -1  -1 330.445 10.3265   3
   7  -1  -1 331.004 14.4512  14
   7  -1  -1 327.849 10.6310   8
   7  -1  -1 324.892 10.1521   7
  -7  -1   1 319.208 10.0631  16
  -7  -1   1 335.296 9.99709   5
   7   1  -1 327.050 10.5563   7
  -7   1   1 327.774 10.6831  15
  -7   1   1 310.968 10.0684  12
  -7   1   1 332.149 10.1041   5
   5  -1  -1 15.4862 1.60671   8
   5  -1  -1 22.6583 3.23169  14
  -5  -1   1 15.6147 0.91846  11
  -5  -1   1 14.2493 1.54346  12
   5  -1  -1 15.4300 1.60678   3
  -5  -1   1 15.3060 1.47978  15
  -5  -1   1 14.5293 1.44089  16
  -5  -1   1 16.9694 1.51905   5
   5  -1  -1 24.8762 1.98239   7
  -5   1   1 15.2345 1.62303   5
   5   1  -1 16.3272 2.06066   7
  -5   1   1 17.0357 1.54078  12
  -5   1   1 15.8566 1.89099  15
   5   1  -1 16.1070 1.45986  10
   5   1  -1 15.8527 1.37712   8
  -5   1   1 15.8079 1.15472  11
  -3  -1   1 262.569 6.92415  16
   3  -1  -1 273.368 7.29500   3
   3  -1  -1 265.766 7.47371   8
   3  -1  -1 272.648 7.52472  15
   3  -1  -1 262.534 7.04904   7
   3  -1  -1 290.316 9.10574  14
   3  -1  -1 257.872 6.79791   9
  -3  -1   1 265.581 6.72832   5
  -3  -1   1 268.400 6.88385  12
  -3   1   1 276.401 6.96362   5
   3   1  -1 278.002 7.28571  10
   3   1  -1 270.941 6.83832  15
  -3   1   1 283.660 6.64877  11
  -3   1   1 285.670 7.59516  15
   3   1  -1 266.697 7.38937   7
  -1  -1   1 1663.45 38.0682  16
  -1  -1  -1 2218.48 50.6194   5
   1  -1   1 2249.01 55.6761  15
   1  -1   1 2160.23 50.0319  13
   1  -1   1 2223.47 49.2813   4
  -1  -1  -1 2229.99 49.7311  11
  -1  -1  -1 2185.26 49.6764  12
   1   1   1 2146.73 49.6375   7
  -1   1  -1 2221.95 50.8905   5
  -1   1  -1 2302.61 50.2552  11
   1   1   1 2279.75 53.3680  15
   1   1   1 2155.06 49.3283   4
  -1   1  -1 2349.85 57.0919  15
  -3  -1  -1 285.081 7.31016  11
  -3  -1  -1 290.337 8.51325  15
   3  -1   1 281.345 7.31179   3
  -3  -1  -1 269.281 7.43596  12
   3  -1   1 296.329 7.65811   4
  -3  -1  -1 285.958 7.70968   5
   3  -1   1 290.081 7.64652   7
   3  -1   1 291.393 8.10768   8
   3   1   1 292.389 8.06886   7
  -3   1  -1 287.408 6.89685   2
   3   1   1 298.676 7.65179  10
  -3   1  -1 307.644 7.66200  11
  -3   1  -1 302.289 9.02860  15
   3   1   1 291.650 7.62596   4
  -3   1  -1 284.894 7.85997   5
   5  -1   1 22.8263 1.94683   4
   5  -1   1 25.6173 2.21726   8
  -5  -1  -1 25.9951 2.55244  15
   5  -1   1 24.6154 1.79283   3
  -5  -1  -1 24.9549 2.14966  12
   5  -1   1 25.8109 2.17549   7
  -5  -1  -1 27.5058 2.33418   5
  -5  -1  -1 25.7212 1.60469  11
  -5   1  -1 29.1199 2.57337   5
  -5   1  -1 25.7731 1.90308  11
   5   1   1 27.4066 2.42138   4
  -5   1  -1 21.6069 2.18961  12
  -5   1  -1 27.4204 2.80494  15
   5   1   1 26.1801 1.82253  10
   7  -1   1 1.98104 1.39313   7
  -7  -1  -1 4.18456 1.41298  16
  -7  -1  -1 2.99972 1.53711  12
  -7  -1  -1 5.68696 1.83173   5
   7  -1   1 3.94952 1.55839   4
   7   1   1 2.90831 1.71923   7
  -7   1  -1 3.17961 1.71429   5
  -7   1  -1 3.94070 1.10767  11
  -7   1  -1 2.70186 1.33523  15
  -7   1  -1 0.39966 1.35290  12
   7   1   1 3.51776 1.57921   4
   9  -1   1 102.865 9.10902  14
  -9  -1  -1 109.210 6.36133  12
  -9  -1  -1 111.589 6.46243   5
   9   1   1 107.738 6.31498   7
  -9   1  -1 102.188 5.84046  16
  -9   1  -1 108.697 6.35684  12
  -9   1  -1 107.822 6.46413   5
  10  -2  -1 126.577 10.8415  14
 -10  -2   1 102.191 6.43699  12
 -10  -2   1 107.136 6.15497   1
 -10  -2   1 107.755 6.20045   5
  10   2  -1 107.778 9.59623  14
  10   2  -1 117.653 7.04793   7
 -10   2   1 112.246 6.35014  12
  10   2  -1 108.804 6.39598   3
 -10   2   1 106.558 6.32172   5
 -10   2   1 120.531 6.82097  16
  -8  -2   1 410.900 12.8168  12
   8  -2  -1 416.762 17.8197  14
  -8  -2   1 416.678 12.6114  16
  -8  -2   1 412.397 12.5204   1
  -8  -2   1 427.131 12.6482   5
   8  -2  -1 423.577 13.7275   8
   8  -2  -1 399.647 12.6975   3
   8   2  -1 401.659 13.0459   7
  -8   2   1 419.398 12.6517   5
  -8   2   1 430.861 12.9240  12
  -6  -2   1 1038.69 24.9483   5
  -6  -2   1 1032.12 24.9943   1
   6  -2  -1 1026.48 25.5102   3
   6  -2  -1 1100.63 30.6320  14
  -6  -2   1 1044.74 25.1501  16
  -6  -2   1 1055.24 25.2512  12
   6  -2  -1 1057.99 26.5021   8
   6   2  -1 1023.86 25.1116  10
  -6   2   1 1054.08 25.2440   5
  -6   2   1 1040.24 25.2465  12
  -6   2   1 1066.41 26.4325  15
  -6   2   1 1056.40 24.2071  11
   6   2  -1 1052.02 25.9971   7
   4  -2  -1 816.632 19.4452   3
   4  -2  -1 787.448 22.1890  14
   4  -2  -1 771.204 18.8151   9
  -4  -2   1 815.550 18.9116  12
  -4  -2   1 785.047 18.8101  16
  -4  -2   1 806.357 18.7070   5
   4  -2  -1 794.908 19.9912   8
  -4  -2   1 807.881 18.7880   1
   4   2  -1 826.517 19.6599   7
  -4   2   1 847.645 20.2153  15
   4   2  -1 809.798 19.4009  10
   4   2  -1 802.901 18.6215   4
   4   2  -1 771.360 18.1137   2
  -4   2   1 824.792 19.1026   5
  -4   2   1 823.955 18.6130  11
   2  -2  -1 3053.65 78.2701  14
  -2  -2   1 3235.35 69.6218   1
  -2  -2   1 3137.81 70.3623  16
  -2  -2   1 3143.37 69.7950  12
   2  -2  -1 3120.96 70.0565   6
  -2  -2   1 3082.81 69.7701   5
   2  -2  -1 3130.25 67.5896   9
   2  -2  -1 3049.09 72.1115   3
   2  -2  -1 3038.57 72.3026   8
  -2   2   1 3194.78 74.7911  15
   2   2  -1 2906.55 71.3378  10
   2   2  -1 3040.57 69.5407   7
   2   2  -1 2821.41 69.8033   2
   0  -2  -1 3147.72 69.1942   9
   0  -2  -1 3102.18 70.1340   5
   0  -2  -1 3015.44 68.2205  12
   0  -2   1 3127.64 70.1341  13
   0  -2   1 3075.89 69.9064   1
   0  -2   1 3117.18 73.8233  15
   0  -2   1 3155.38 70.8466  16
   0   2  -1 3211.82 75.8777  15
   0   2  -1 3224.36 69.5379  10
   0   2  -1 3020.57 71.5963   2
   0   2   1 2919.04 70.3198   7
   2  -2   1 454.554 10.4919   3
   2  -2   1 442.291 11.3423   8
  -2  -2  -1 430.282 10.2474  11
  -2  -2  -1 419.886 9.94532  16
   2  -2   1 441.381 10.3294   4
  -2  -2  -1 423.187 9.92484   1
  -2  -2  -1 435.058 10.5615   5
   2  -2   1 422.354 10.7240  13
  -2  -2  -1 436.493 10.3401  12
   2  -2   1 408.033 10.2345   6
  -2   2  -1 455.098 12.2012  15
   2   2   1 416.677 11.1532  15
   2   2   1 441.496 11.0600   7
  -2   2  -1 444.769 10.4857   2
   2   2   1 437.457 10.3294   4
   2   2   1 430.699 11.0249  10
  -2   2  -1 450.764 10.8009  11
  -4  -2  -1 1289.93 30.1388  16
   4  -2   1 1359.04 30.5848   4
  -4  -2  -1 1329.96 30.1134  11
   4  -2   1 1362.48 31.8439   8
  -4  -2  -1 1327.76 30.7988   5
   4  -2   1 1345.10 30.3320   7
  -4  -2  -1 1315.29 30.5557  12
   4  -2   1 1325.41 30.3518   3
  -4   2  -1 1351.47 31.1662   5
  -4   2  -1 1354.44 32.7909  15
   4   2   1 1340.31 30.5702   4
   4   2   1 1386.76 31.6165   7
  -4   2  -1 1310.32 29.5210   2
   4   2   1 1308.25 30.7796  10
  -4   2  -1 1418.02 30.8104  11
  -6  -2  -1 896.376 21.1583  11
  -6  -2  -1 868.400 21.6208  16
  -6  -2  -1 860.311 22.3030   5
   6  -2   1 904.590 21.9127   4
   6  -2   1 873.418 21.5519   7
   6  -2   1 897.620 23.1111   8
  -6  -2  -1 876.733 22.1035  12
  -6   2  -1 885.130 24.2538  15
  -6   2  -1 850.817 22.0248  12
  -6   2  -1 929.120 22.8314   5
   6   2   1 905.720 22.9717   7
  -6   2  -1 904.857 21.5834  11
   6   2   1 885.634 21.8349   4
   8  -2   1 208.922 12.4900  14
  -8  -2  -1 204.672 8.30948  12
  -8  -2  -1 206.778 8.56547   5
  -8  -2  -1 189.610 7.51041   1
  -8   2  -1 206.759 8.43758  12
  -8   2  -1 217.857 8.93797   5
   8   2   1 226.870 8.16696   4
   8   2   1 210.735 8.69638   7
 -10  -2  -1 227.710 9.73164  12
  10  -2   1 206.567 13.4851  14
 -10  -2  -1 220.360 9.93313   5
  10   2   1 225.205 14.5573  14
 -10   2  -1 208.077 9.45425  12
  10   2   1 231.202 10.0002   7
 -10   2  -1 248.064 10.3439   5
 -11  -3   1 6.45936 2.33544   5
 -11  -3   1 4.99763 2.43403  12
  11  -3  -1 6.17703 3.31598  14
 -11   3   1 8.11127 2.94520  12
 -11   3   1 9.34984 2.31699   5
  11   3  -1 8.84028 4.46524  14
  11   3  -1 8.34026 2.89195   7
  -9  -3   1 107.872 6.13694  12
  -9  -3   1 109.746 5.92168   5
  -9  -3   1 111.972 5.64340   1
  -9  -3   1 110.871 5.80736  16
   9  -3  -1 118.356 9.99148  14
   9   3  -1 113.642 6.41235   7
  -9   3   1 122.563 6.48786  12
  -9   3   1 113.056 6.11704   5
  -7  -3   1 53.9866 3.30246   1
   7  -3  -1 53.8200 5.59948  14
   7  -3  -1 60.5802 3.74538   3
  -7  -3   1 47.2249 3.25925   5
  -7  -3   1 52.1082 3.30614  16
  -7  -3   1 50.4039 3.32338  12
   7  -3  -1 56.7205 4.38371   8
   7   3  -1 47.2375 3.78434   7
  -7   3   1 52.4538 2.85034  11
   7   3  -1 51.8534 3.56882  10
  -7   3   1 55.9259 4.02130  15
  -7   3   1 53.7375 3.67852  12
  -7   3   1 57.7995 3.59547   5
  -5  -3   1 86.1644 3.57609   5
  -5  -3   1 85.5249 3.77239  12
  -5  -3   1 86.9232 3.66377  16
   5  -3  -1 86.6275 4.63371   8
   5  -3  -1 84.9886 5.98410  14
  -5  -3   1 81.7482 3.49012   1
   5  -3  -1 81.7884 3.92020   3
  -5   3   1 86.6046 3.55574  11
  -5   3   1 88.7839 4.01972   5
   5   3  -1 92.5639 4.55521   7
   5   3  -1 107.212 4.42900  10
   5   3  -1 79.9637 2.98557   2
  -5   3   1 94.1240 4.96773  15
  -3  -3   1 46.7136 2.07639   1
   3  -3  -1 46.5170 3.44969  14
  -3  -3   1 46.2196 2.05046  16
   3  -3  -1 47.4601 2.23348   6
  -3  -3   1 48.1805 2.19743  12
   3  -3  -1 52.3517 2.63194   3
   3  -3  -1 51.4591 2.45725   9
   3  -3  -1 49.1859 2.81018   8
   3   3  -1 49.5263 2.56762   7
   3   3  -1 54.5391 2.80928  10
   3   3  -1 46.2722 2.19878   2
  -3   3   1 50.2124 2.83165  15
   1  -3  -1 225.396 6.69116   8
   1  -3  -1 235.709 6.11291   6
   1  -3  -1 243.446 6.40618   9
  -1  -3   1 237.613 6.02504  12
   1  -3  -1 236.490 6.62594   3
  -1  -3   1 234.207 6.05911  16
   1  -3  -1 230.955 7.37219  14
  -1  -3   1 235.886 6.00863   1
  -1  -3   1 235.524 5.87881  13
   1   3  -1 245.075 6.72385  10
   1   3  -1 237.827 6.53528   2
   1   3  -1 250.104 6.11883   7
   1  -3   1 1430.45 31.0751   4
   1  -3   1 1443.02 31.7087   1
   1  -3   1 1344.77 32.4704  14
  -1  -3  -1 1409.42 31.0416  16
   1  -3   1 1448.42 31.7828  13
  -1  -3  -1 1437.42 31.4836  12
  -1  -3  -1 1450.43 31.4748   9
   1  -3   1 1424.06 31.3933   6
  -1  -3  -1 1424.88 31.6888   5
  -1  -3  -1 1430.21 31.8504   1
  -1   3  -1 1441.13 32.0416   2
  -1   3  -1 1433.13 31.9248  11
   1   3   1 1428.29 32.1999   7
  -1   3  -1 1443.07 33.1768  15
  -1   3  -1 1446.52 31.5030  10
   1   3   1 1422.97 32.5973  10
   1   3   1 1450.18 31.2117   4
  -3  -3  -1 186.175 5.06956   1
   3  -3   1 193.758 5.49759   3
   3  -3   1 183.476 6.65358   8
  -3  -3  -1 193.308 4.84563   9
  -3  -3  -1 182.618 5.09066  16
   3  -3   1 191.342 5.41986   4
  -3  -3  -1 183.478 5.70243   5
  -3  -3  -1 189.633 5.52861  12
   3  -3   1 171.443 7.30788  14
   3  -3   1 187.715 5.49300   6
   3   3   1 189.990 6.25724  10
  -3   3  -1 190.626 6.00474  11
   3   3   1 188.264 5.44232   4
  -3   3  -1 184.702 5.49565   2
   3   3   1 191.867 6.33895   7
  -3   3  -1 198.906 7.42674  15
  -5  -3  -1 441.214 12.3351   5
   5  -3   1 440.015 11.2748   7
  -5  -3  -1 439.966 11.5180  16
   5  -3   1 444.244 15.6122  14
   5  -3   1 445.117 11.8346   4
  -5  -3  -1 439.668 12.0237  12
   5  -3   1 448.702 11.7704   3
  -5  -3  -1 439.845 11.4703   1
   5  -3   1 463.518 13.5840   8
   5   3   1 422.198 12.2037  10
  -5   3  -1 447.583 12.6460   5
  -5   3  -1 457.337 12.1490  11
   5   3   1 465.413 13.1565   7
  -5   3  -1 447.096 14.2367  15
   5   3   1 451.842 11.9416   4
   7  -3   1 16.6222 3.92726  14
  -7  -3  -1 19.0343 2.15947   1
  -7  -3  -1 22.9122 2.69929   5
  -7  -3  -1 23.1747 2.85365  12
   7  -3   1 21.1500 3.04823   8
   7   3   1 18.2697 3.06765   7
  -7   3  -1 22.3911 2.40187  11
  -7   3  -1 18.9715 2.84275   5
  -7   3  -1 20.0239 3.22896  15
   7   3   1 19.1901 2.55362   4
  -7   3  -1 21.4733 2.84293  12
  -9  -3  -1 16.9833 2.96700  12
   9  -3   1 16.2581 4.66008  14
  -9  -3  -1 15.3695 2.79010   5
  -9   3  -1 16.0595 2.86113   5
  -9   3  -1 15.4463 2.68593  12
   9   3   1 16.0520 3.48729   7
 -10  -4   1 198.653 8.84411  12
 -10  -4   1 198.441 8.56448   5
  10  -4  -1 191.279 13.4754  14
  10   4  -1 192.479 9.54596   7
 -10   4   1 204.749 8.96412   5
 -10   4   1 202.367 9.03375  12
  -8  -4   1 51.1990 3.82468   5
  -8  -4   1 52.0090 3.64065  16
   8  -4  -1 58.3678 6.88731  14
  -8  -4   1 52.6304 3.60855   1
   8  -4  -1 62.4749 5.22758   8
  -8  -4   1 57.7691 4.22574  12
   8   4  -1 59.7575 5.11539   7
  -8   4   1 57.6760 4.11206   5
   8   4  -1 51.8241 4.12603  10
  -8   4   1 63.7384 4.40824  12
  -6  -4   1 127.362 5.23588  12
   6  -4  -1 142.127 6.77765   8
   6  -4  -1 126.259 5.51457   3
   6  -4  -1 131.436 8.43285  14
  -6  -4   1 130.278 5.11225  16
  -6  -4   1 129.227 5.01739   1
  -6  -4   1 128.296 5.08259   5
  -6   4   1 133.996 5.08391  11
  -6   4   1 136.802 6.76946  15
   6   4  -1 125.640 5.67372  10
   6   4  -1 133.560 6.23105   7
  -6   4   1 134.490 5.66126   5
   4  -4  -1 1846.77 41.2758   6
  -4  -4   1 1825.71 41.0758   5
   4  -4  -1 1813.53 43.1503   8
   4  -4  -1 1835.14 42.0683   3
   4  -4  -1 1707.25 45.2116  14
   4  -4  -1 1834.98 41.7632   9
  -4  -4   1 1917.15 41.1685  16
  -4  -4   1 1879.60 41.3620  12
  -4  -4   1 1890.62 41.0541   1
   4   4  -1 1859.93 42.1708   7
  -4   4   1 1845.84 43.1257  15
  -4   4   1 1835.92 40.8416   2
  -4   4   1 1851.50 41.1263  11
   4   4  -1 1843.92 42.4199  10
   4   4  -1 1749.98 41.1169   2
   2  -4  -1 340.132 10.1941   8
  -2  -4   1 356.991 8.35401  13
   2  -4  -1 357.538 9.09504   6
  -2  -4   1 357.126 8.90512   1
  -2  -4   1 360.052 8.97643  16
  -2  -4   1 352.694 9.02697  12
   2  -4  -1 359.389 11.1980  14
   2  -4  -1 361.299 9.83719   3
   2  -4  -1 365.156 9.63398   9
   2   4  -1 367.983 9.39272   7
  -2   4   1 347.816 10.2518  15
   2   4  -1 346.299 9.53694   2
   2   4  -1 355.017 9.98163  10
   0  -4   1 3.58368 0.73956  14
   0  -4  -1 7.84353 0.99574   9
   0  -4   1 2.47385 0.54919   1
   0  -4  -1 3.59229 0.64134  12
   0  -4   1 4.68524 0.65657  13
   0  -4  -1 3.63224 0.71808   6
   0  -4   1 4.63631 0.68222   6
   0  -4  -1 2.90060 0.77692   8
   0  -4   1 3.78576 0.73094  16
   0   4  -1 7.46751 1.39303  15
   0   4  -1 2.27224 0.76187   2
   0   4  -1 4.46271 0.87701  10
   0   4   1 5.94658 0.95922   7
   0   4   1 4.36742 0.93620  10
  -2  -4  -1 1144.58 26.2119   5
   2  -4   1 1148.51 26.4258  13
   2  -4   1 1166.53 25.9075   6
   2  -4   1 1059.61 27.8205  14
  -2  -4  -1 1170.31 25.6005   9
   2  -4   1 1115.20 25.3861   4
   2  -4   1 1144.28 27.7619   8
  -2  -4  -1 1160.06 25.3430   1
  -2  -4  -1 1145.10 25.3589  16
   2  -4   1 1159.84 26.1096   3
  -2  -4  -1 1167.53 26.0191  12
  -2   4  -1 1149.06 28.2230  15
   2   4   1 1147.03 26.9019   7
   2   4   1 1147.03 25.5315   4
  -2   4  -1 1137.19 26.4064  11
  -2   4  -1 1158.26 25.4964  10
   2   4   1 1106.46 27.2608  10
  -2   4  -1 1164.66 26.4318   2
  -4  -4  -1 211.079 6.04894  16
  -4  -4  -1 217.863 6.96447   5
   4  -4   1 214.751 8.15048   8
  -4  -4  -1 216.895 6.72422  12
  -4  -4  -1 212.650 6.01135   1
   4  -4   1 208.275 6.49380   3
   4  -4   1 201.537 8.98592  14
   4  -4   1 216.244 6.40611   4
   4   4   1 212.552 7.52140  10
  -4   4  -1 216.088 7.13873  11
   4   4   1 225.152 7.83754   7
  -4   4  -1 209.095 6.37461   2
  -4   4  -1 217.794 7.31415   5
  -4   4  -1 224.121 8.84662  15
   4   4   1 224.344 6.51065   4
   6  -4   1 222.541 11.0733  14
  -6  -4  -1 223.776 7.93120  12
   6  -4   1 240.680 9.48045   8
  -6  -4  -1 228.533 8.18966   5
  -6   4  -1 242.487 7.96353  11
   6   4   1 225.323 8.23399  10
   6   4   1 232.521 7.68700   4
  -6   4  -1 242.879 8.50948   5
  -6   4  -1 224.119 9.73163  15
   6   4   1 228.575 8.85285   7
  -8  -4  -1 400.986 13.4554   5
   8  -4   1 434.137 18.7802  14
  -8  -4  -1 417.163 13.4661  12
   8  -4   1 417.302 14.7283   8
   8   4   1 413.638 14.3790   7
  -8   4  -1 436.309 14.0226   5
  -8   4  -1 405.362 13.3401  12
  10  -4   1 10.0514 4.22980  14
 -10  -4  -1 9.13078 2.67911  12
 -10  -4  -1 12.2813 2.68052   5
  10   4   1 18.3276 3.81840   7
 -10   4  -1 11.1422 2.52812   5
 -10   4  -1 13.0061 2.69595  12
   9  -5  -1 91.7640 9.12651  14
   9  -5  -1 83.0702 6.61456   8
  -9  -5   1 75.2285 5.30239  12
  -9  -5   1 85.1412 5.35266   5
  -9   5   1 80.7901 5.43675   5
  -9   5   1 87.3341 5.63704  12
   9   5  -1 76.7493 6.02217   7
  -7  -5   1 0.71726 1.13974  12
  -7  -5   1 0.26860 0.94003   1
  -7  -5   1 0.20144 1.11607   5
   7  -5  -1 1.35684 2.12037  14
  -7  -5   1 0.87355 1.00492  16
   7  -5  -1 4.97132 1.51368   3
   7  -5  -1 2.17277 1.52734   8
  -7   5   1 3.18440 1.88214   5
  -7   5   1 1.69654 1.86693  15
   7   5  -1 1.32536 2.02869   7
  -7   5   1 0.88691 1.27300  11
   7   5  -1 0.31139 1.89287  10
   5  -5  -1 685.596 22.6115  14
   5  -5  -1 712.922 18.8164   3
   5  -5  -1 732.285 18.0936   6
  -5  -5   1 721.751 17.7034   1
  -5  -5   1 728.570 17.8241  16
   5  -5  -1 750.731 20.5275   8
  -5  -5   1 715.588 18.1605  12
  -5  -5   1 726.031 18.0074   5
  -5   5   1 735.327 20.3203  15
   5   5  -1 726.788 19.1502   7
  -5   5   1 731.411 18.0201  11
   5   5  -1 702.372 19.2834  10
   5   5  -1 697.120 17.7903   2
  -5   5   1 698.530 17.3061   2
   3  -5  -1 1303.15 30.7801   3
  -3  -5   1 1269.21 29.6780  12
   3  -5  -1 1306.88 30.5017   9
   3  -5  -1 1339.88 29.8595   6
   3  -5  -1 1277.93 31.7598   8
  -3  -5   1 1257.30 28.5190  13
  -3  -5   1 1294.35 29.4709   1
   3  -5  -1 1227.54 33.1286  14
  -3  -5   1 1330.61 29.5988  16
  -3   5   1 1310.22 31.7895  15
   3   5  -1 1328.40 31.1973  10
   3   5  -1 1246.11 30.2448   2
   3   5  -1 1327.30 30.4026   7
  -3   5   1 1314.96 30.0476   2
  -3   5   1 1331.40 29.8255  10
  -1  -5   1 132.818 4.26200  12
  -1  -5   1 127.409 4.13262   6
   1  -5  -1 127.893 5.15589   8
   1  -5  -1 128.183 4.29916   6
  -1  -5   1 131.779 3.65931  13
  -1  -5   1 127.603 4.17141  16
   1  -5  -1 135.790 4.74213   9
   1  -5  -1 124.493 5.67355  14
  -1  -5   1 129.230 4.12906   1
  -1   5   1 138.088 4.32324   7
   1   5  -1 125.794 4.09739   7
  -1   5   1 129.309 4.93419  10
   1   5  -1 122.267 4.82958   2
   1   5  -1 130.904 4.99024  10
  -1   5   1 120.646 3.34951   4
  -1  -5  -1 57.8658 2.15289  16
   1  -5   1 55.8650 2.37000   6
  -1  -5  -1 53.3971 2.07155   1
   1  -5   1 54.7333 2.56933   1
  -1  -5  -1 59.2362 2.46906  12
   1  -5   1 64.1605 3.31319  14
   1  -5   1 59.4845 3.53103   8
  -1  -5  -1 57.5524 2.56263   9
   1  -5   1 57.5141 2.54676  13
  -1  -5  -1 51.0792 2.51574   8
  -1   5  -1 59.2111 2.81192  10
  -1   5  -1 58.1056 3.62500  15
   1   5   1 51.2208 2.86031   7
  -1   5  -1 60.8434 3.03186   2
   1   5   1 55.9141 1.90038   4
   1   5   1 59.1740 3.47997  10
   3  -5   1 383.615 10.4413   3
  -3  -5  -1 389.902 10.4247  12
   3  -5   1 385.238 10.1740   6
  -3  -5  -1 385.927 9.56997   1
   3  -5   1 356.147 12.6040  14
   3  -5   1 395.397 12.3256   8
  -3  -5  -1 386.549 9.64048  16
  -3  -5  -1 382.680 10.6059   5
   3   5   1 390.168 9.83722   4
   3   5   1 397.587 11.9171  10
  -3   5  -1 384.880 10.5863   2
  -3   5  -1 397.726 10.9305  11
  -3   5  -1 394.510 12.6365  15
   3   5   1 402.787 11.5243   7
   5  -5   1 102.489 5.95919   8
   5  -5   1 93.9997 6.65843  14
  -5  -5  -1 97.2538 4.71208   5
  -5  -5  -1 104.674 4.66202  12
  -5   5  -1 102.377 6.14041  15
   5   5   1 99.6061 4.18280   4
  -5   5  -1 102.927 5.08628   5
   5   5   1 100.190 5.52814   7
  -5   5  -1 101.307 4.87991  11
   5   5   1 99.5643 5.28192  10
   7  -5   1 437.092 18.0045  14
  -7  -5  -1 422.632 13.3003  12
  -7  -5  -1 441.983 13.7506   5
   7  -5   1 453.439 15.3578   8
  -7   5  -1 421.876 17.4314  15
   7   5   1 426.263 12.4668   4
  -7   5  -1 456.440 13.9633   5
   7   5   1 418.775 13.5660  10
   7   5   1 442.339 14.6720   7
  -7   5  -1 434.284 12.8078  11
   9  -5   1 118.713 10.0168  14
  -9  -5  -1 112.914 6.68916   5
  -9  -5  -1 103.639 6.09900  12
  -9   5  -1 112.945 6.76306   5
   9   5   1 112.095 7.62038   7
  -9   5  -1 116.922 6.64209  12
  10  -6  -1 323.236 14.0919   8
 -10  -6   1 306.975 11.5280   5
  10  -6  -1 329.553 17.4994  14
 -10  -6   1 310.426 12.0759  12
 -10   6   1 307.682 11.8098   5
 -10   6   1 325.590 12.0640  12
  10   6  -1 320.552 13.1906   7
   8  -6  -1 131.714 9.83365  14
  -8  -6   1 118.513 6.09731   5
   8  -6  -1 128.021 8.10011   8
  -8  -6   1 121.698 6.17035  12
   8   6  -1 118.772 7.27102   7
  -8   6   1 127.506 6.52439   5
   8   6  -1 105.556 6.59939  10
   6  -6  -1 9.58747 1.91670   3
  -6  -6   1 9.18242 1.73500   5
   6  -6  -1 7.60641 2.74019  14
   6  -6  -1 8.66032 2.54160   8
  -6  -6   1 7.26068 1.71103  12
   6  -6  -1 7.28765 1.56224   6
  -6  -6   1 4.94014 1.29614   1
  -6  -6   1 7.85105 1.42975  16
   6   6  -1 8.11387 2.08568   7
  -6   6   1 8.92308 1.72949  11
   6   6  -1 9.67697 2.57893  10
  -6   6   1 11.1603 2.01897   5
  -6   6   1 7.01460 2.43832  15
   4  -6  -1 326.324 12.9843  14
   4  -6  -1 321.692 10.1560   3
  -4  -6   1 301.921 8.78573   1
  -4  -6   1 317.111 8.95555  16
   4  -6  -1 319.112 11.3456   8
  -4  -6   1 319.579 9.25069  12
   4  -6  -1 313.941 9.24564   6
   4   6  -1 327.196 10.7706  10
  -4   6   1 321.144 9.34525   2
  -4   6   1 317.222 11.1748  15
   4   6  -1 321.255 10.1349   7
   4   6  -1 296.487 9.54191   2
   2  -6  -1 41.0304 3.57866  14
  -2  -6   1 43.9965 2.49467  12
   2  -6  -1 40.6614 3.27809   8
  -2  -6   1 45.7538 2.40257  16
   2  -6  -1 50.9179 2.91234   9
   2  -6  -1 43.7587 2.43889   6
  -2  -6   1 41.8951 2.27591   1
  -2   6   1 46.3465 2.79331  10
   2   6  -1 44.1573 2.92780   2
   2   6  -1 44.6834 2.67199   7
  -2   6   1 47.6170 2.22146   7
  -2   6   1 42.1900 3.50117  15
   2   6  -1 45.9606 3.55464  10
   0  -6  -1 215.410 7.63024   8
   0  -6   1 239.973 8.34027   8
   0  -6   1 236.259 6.81842   6
   0  -6  -1 254.332 7.44531   9
   0  -6   1 250.019 6.98935   1
   0  -6  -1 227.406 6.46171   1
   0  -6   1 228.839 6.46851  13
   0  -6  -1 235.748 7.08771   6
   0   6   1 242.262 7.23569   7
   0   6  -1 237.306 8.66628  15
   0   6  -1 249.781 7.84919  10
   0   6   1 241.772 8.25596  10
   0   6  -1 231.602 6.19900   7
   0   6  -1 250.915 7.98291   2
   2  -6   1 1387.82 33.5988   8
  -2  -6  -1 1325.48 29.9758  16
  -2  -6  -1 1300.75 30.4305   9
   2  -6   1 1341.81 30.6416   6
  -2  -6  -1 1313.88 30.7171  12
  -2  -6  -1 1301.84 29.8843   1
  -2   6  -1 1349.45 30.6261  10
  -2   6  -1 1338.93 31.3270  11
  -2   6  -1 1348.77 33.5907  15
   2   6   1 1362.25 31.8576   7
   2   6   1 1315.02 32.7318  10
  -2   6  -1 1372.64 31.6409   2
   4  -6   1 19.3735 2.05360   6
  -4  -6  -1 22.0477 2.39353   5
   4  -6   1 19.0655 2.92332  14
   4  -6   1 19.2861 3.11693   8
  -4  -6  -1 22.7949 2.30076  12
  -4   6  -1 20.4830 2.39667   2
  -4   6  -1 24.5363 2.80159  11
   4   6   1 19.2814 1.69646   4
   4   6   1 17.3203 2.56128  10
   4   6   1 22.4428 2.81928   7
  -6  -6  -1 1.70359 1.08932  12
  -6  -6  -1 2.09440 1.53073   5
   6  -6   1 0.29747 1.68124  14
   6  -6   1 0.20094 1.85841   8
   6   6   1 3.89310 1.30705   4
  -6   6  -1 1.85472 1.83029   5
  -6   6  -1 6.02529 2.06689  11
  -6   6  -1 10.3391 2.66764  15
   6   6   1 3.18981 1.78007   7
  -8  -6  -1 204.081 8.62390  12
   8  -6   1 209.547 12.5883  14
  -8  -6  -1 205.531 8.76363   5
  -8   6  -1 167.313 8.06772  11
   8   6   1 221.459 9.87111   7
  -8   6  -1 209.034 8.92603   5
  -9  -7   1 13.4349 2.79243   5
   9  -7  -1 5.14111 2.48508   8
  -9  -7   1 4.43271 1.80553  12
   9  -7  -1 7.91068 3.77073  14
  -9   7   1 6.88416 2.63326   5
   9   7  -1 7.15831 3.01763   7
   9   7  -1 6.59816 2.62688  10
  -7  -7   1 215.148 8.07944   5
   7  -7  -1 205.055 10.3956   8
   7  -7  -1 198.401 12.0082  14
  -7  -7   1 207.067 8.25564  12
   7   7  -1 201.673 9.46268  10
   7   7  -1 204.100 8.90745   7
  -7   7   1 203.913 8.40214   5
  -7   7   1 197.206 7.85535  11
   5  -7  -1 132.832 7.54434   8
   5  -7  -1 132.329 6.20552   3
  -5  -7   1 129.649 5.13120  16
   5  -7  -1 132.191 5.43325   6
  -5  -7   1 136.433 5.16292   1
   5  -7  -1 130.677 8.55341  14
  -5  -7   1 129.150 5.53341  12
   5   7  -1 136.769 6.57102   7
   5   7  -1 125.408 6.65192  10
  -5   7   1 159.629 5.76822   2
   5   7  -1 130.015 5.87290   2
  -5   7   1 129.936 5.59357  11
  -5   7   1 128.219 7.44798  15
  -3  -7   1 96.3826 4.25827  12
   3  -7  -1 91.3182 5.60153   8
   3  -7  -1 96.5981 4.27769   6
  -3  -7   1 90.1560 3.77309  16
  -3  -7   1 94.0214 3.83441   1
   3  -7  -1 83.1769 5.83267  14
  -3   7   1 93.7336 4.25323  10
  -3   7   1 93.7634 4.57231   2
  -3   7   1 93.0218 5.71770  15
   3   7  -1 87.7559 5.06305  10
   3   7  -1 98.5282 4.66930   7
   3   7  -1 92.2604 4.82316   2
  -1  -7   1 388.029 10.4071  16
   1  -7  -1 358.925 11.9278   8
   1  -7  -1 395.090 10.6944   6
  -1  -7   1 372.667 11.8599   8
  -1  -7   1 387.729 10.3342   1
   1  -7  -1 382.306 11.1415   9
  -1  -7   1 385.783 10.4628   6
   1   7  -1 382.554 11.7943  10
  -1   7   1 388.008 11.6250  10
  -1   7   1 391.771 10.3215   7
   1   7  -1 378.231 10.1154   7
   1   7  -1 376.846 12.3306  15
   1   7  -1 394.692 11.6630   2
   1  -7   1 10.7389 2.11792   8
  -1  -7  -1 10.3367 1.52840  12
   1  -7   1 10.1558 1.35423   6
  -1  -7  -1 13.8000 1.48608   9
  -1  -7  -1 12.7557 1.31603   1
  -1  -7  -1 10.2438 1.50427   6
  -1  -7  -1 10.2217 1.53638   8
   1   7   1 9.74874 1.98669  10
   1   7   1 16.4704 2.11757   7
  -1   7  -1 11.4925 1.69685  10
  -1   7  -1 13.2287 2.45893  15
  -1   7  -1 13.3824 2.31018   2
  -3  -7  -1 5.47604 1.39900  12
   3  -7   1 7.15343 1.90128  14
   3  -7   1 4.67400 2.00923   8
   3  -7   1 4.85132 1.28927   6
  -3   7  -1 6.13204 1.52867  11
   3   7   1 5.00843 2.01610  10
   3   7   1 3.40131 1.70143   7
  -3   7  -1 5.36306 1.71124   2
  -5  -7  -1 499.755 13.9863  12
   5  -7   1 509.736 16.9591   8
   5  -7   1 453.551 17.4266  14
  -5  -7  -1 476.814 14.2433   5
   5   7   1 504.933 15.5876   7
  -5   7  -1 484.205 17.0709  15
  -5   7  -1 480.451 14.5233   5
  -5   7  -1 500.347 14.3506  11
   5   7   1 474.266 15.6074  10
  -7  -7  -1 59.6267 4.36341  12
   7  -7   1 44.7108 7.32240  14
  -7  -7  -1 57.1580 4.29207   5
   7  -7   1 61.8647 6.01568   8
   7   7   1 74.7109 5.32345  10
  -7   7  -1 56.1108 4.80881   5
  -7   7  -1 54.6790 4.28052  11
   7   7   1 61.6025 5.70678   7
  -9  -7  -1 1.21820 2.00894   5
  -9  -7  -1 1.11773 1.35470  12
   9  -7   1 2.26341 2.54749   8
  -9   7  -1 1.38232 2.27886   5
   9   7   1 -2.2113 2.76279   7
  -9   7  -1 -0.3213 1.96453  12
  -8  -8   1 513.435 15.8609  12
   8  -8  -1 547.903 19.5627   8
   8  -8  -1 484.946 21.4950  14
  -8   8   1 512.122 16.1280   5
   8   8  -1 483.022 17.0329  10
   8   8  -1 497.437 17.3364   7
   6  -8  -1 399.332 17.5881  14
   6  -8  -1 414.614 12.6515   6
   6  -8  -1 423.203 15.9822   8
  -6  -8   1 417.554 12.9408  12
  -6   8   1 412.802 12.9461  11
   6   8  -1 417.628 14.9069  10
   6   8  -1 413.244 13.9920   7
  -4  -8   1 56.4255 3.57127  12
   4  -8  -1 29.2776 4.09543  14
  -4  -8   1 49.5527 2.90079  16
  -4  -8   1 55.6071 3.04864   1
   4  -8  -1 38.1234 4.29428   8
   4  -8  -1 40.6880 2.97980   6
  -4   8   1 37.1152 3.31100   2
   4   8  -1 45.8822 4.23733  10
   4   8  -1 45.2749 3.81388   7
  -4   8   1 35.0534 4.30629  15
   4   8  -1 41.4278 3.46527   2
  -2  -8   1 581.758 17.2048   8
  -2  -8   1 593.031 15.4701   1
   2  -8  -1 613.990 18.4692   8
   2  -8  -1 606.969 15.9716   6
  -2  -8   1 614.244 15.6801  16
  -2  -8   1 630.690 16.0578  12
   2  -8  -1 564.640 18.8067  14
  -2  -8   1 613.750 15.9443   6
  -2   8   1 606.910 16.9366   2
  -2   8   1 643.294 19.0795  15
   2   8  -1 610.350 15.8140   7
   2   8  -1 608.869 17.6647  10
   2   8  -1 620.081 17.2480   2
  -2   8   1 621.194 16.8796  10
   0  -8   1 1428.71 33.3163   1
   0  -8  -1 1461.39 33.7677   6
   0  -8   1 1453.36 36.2551   8
   0  -8  -1 1471.73 34.0956   9
   0  -8  -1 1318.59 34.8665   8
   0  -8   1 1419.53 33.2337   6
   0   8  -1 1428.14 36.4977  15
   0   8  -1 1458.57 34.6912  10
   0   8   1 1452.67 35.4491  10
   0   8   1 1406.88 33.3684   7
   0   8  -1 1447.99 34.8535   2
   2  -8   1 503.612 13.3940   6
  -2  -8  -1 494.431 13.9724   6
   2  -8   1 506.419 16.4218   8
  -2  -8  -1 496.030 13.5476  12
  -2   8  -1 516.333 14.6051   2
  -2   8  -1 483.660 16.4772  15
   2   8   1 486.587 14.2302   7
   2   8   1 484.382 15.5482  10
  -2   8  -1 499.447 14.1644  11
   4  -8   1 430.737 15.4467   8
   4  -8   1 435.640 12.2452   6
  -4  -8  -1 418.477 12.5049  12
  -4   8  -1 429.722 13.1453  11
   4   8   1 435.443 14.8713  10
   4   8   1 426.073 13.6661   7
  -4   8  -1 428.992 12.9397   2
   4   8   1 415.954 13.4352   2
  -4   8  -1 415.568 15.7119  15
   6  -8   1 218.486 10.8963   8
  -6  -8  -1 212.448 8.36555  12
  -6  -8  -1 218.309 8.84916   5
  -6   8  -1 210.342 8.41823  11
  -6   8  -1 211.525 8.94391   5
   6   8   1 204.224 9.96467  10
   6   8   1 217.763 9.95476   7
   8  -8   1 59.4894 6.39232   8
  -8  -8  -1 53.1766 4.46096  12
  -8  -8  -1 56.5191 5.08748   5
  -8   8  -1 59.0353 5.21713   5
   8   8   1 55.7136 5.67877  10
   8   8   1 68.7218 6.49913   7
  -8   8  -1 58.4874 4.13630  11
   7  -9  -1 91.5025 7.25132   8
  -7  -9   1 86.5509 5.54842  12
   7   9  -1 90.5550 6.60895   7
   7   9  -1 90.7816 6.78695  10
  -7   9   1 79.4313 5.49574  11
  -7   9   1 93.8749 6.10188   5
   5  -9  -1 0.72065 2.21200   8
  -5  -9   1 1.29414 1.17118  12
   5  -9  -1 1.39607 1.81664  14
   5  -9  -1 0.43338 1.02772   6
   5   9  -1 0.83943 2.03122   7
   5   9  -1 1.48709 2.03681  10
   5   9  -1 2.56182 1.98713   2
  -5   9   1 1.16522 1.58878   2
  -5   9   1 -0.8924 1.27874  11
  -3  -9   1 2.11105 1.46449  12
   3  -9  -1 1.53660 1.53566  14
  -3  -9   1 3.00928 1.16251  16
   3  -9  -1 2.24085 1.43273   6
  -3  -9   1 -1.0894 1.10821   6
   3  -9  -1 0.38332 1.28310   8
  -3  -9   1 3.63356 1.19736   1
   3   9  -1 1.30696 2.11770  10
   3   9  -1 2.38356 1.95356   2
  -3   9   1 1.79400 2.12508  15
   3   9  -1 7.58115 1.92034   7
  -3   9   1 0.85602 1.20904   2
  -1  -9   1 167.757 6.19555   1
  -1  -9   1 168.958 7.79993   8
   1  -9  -1 167.069 6.45792   6
   1  -9  -1 167.093 7.88274   8
  -1  -9   1 170.129 6.38338   6
  -1   9   1 171.806 7.38009   2
   1   9  -1 177.571 7.86357  10
   1   9  -1 166.330 8.22698  15
  -1   9   1 172.829 8.63196  15
  -1   9   1 180.488 7.76155  10
   1   9  -1 169.927 7.74115   2
   1  -9   1 70.0290 5.45862   8
   1  -9   1 64.0509 3.70681   6
  -1  -9  -1 78.2127 4.37154   6
   1   9   1 70.1932 4.69693   2
  -1   9  -1 71.4476 5.80103  15
  -1   9  -1 75.2145 4.56238  10
   1   9   1 74.3598 5.49023  10
   1   9   1 66.8679 4.08089   7
  -3  -9  -1 13.3927 2.24736  12
   3  -9   1 9.43303 2.88388   8
   3  -9   1 14.5488 2.15714   6
  -3  -9  -1 13.8503 2.46291   6
   3   9   1 13.1645 2.70825   7
   3   9   1 13.8283 2.72812   2
  -3   9  -1 11.0237 2.20231   2
  -3   9  -1 11.8419 2.33560  11
   3   9   1 9.26678 2.54761  10
   5  -9   1 44.3989 4.94344   8
  -5  -9  -1 49.0639 3.85751  12
   5  -9   1 44.8862 3.63501   6
   5   9   1 39.4673 4.02997   2
  -5   9  -1 44.4519 4.52665  11
   5   9   1 47.6318 5.25357  10
   5   9   1 50.2661 5.22868   7
  -7  -9  -1 0.82775 1.60325  12
   7  -9   1 0.44981 2.52270   8
   7   9   1 8.19300 3.39231  10
  -7   9  -1 2.66290 1.66160  11
   7   9   1 2.25780 2.94324   7
  -7   9  -1 1.29183 2.30968   5
  -8 -10   1 29.8137 3.80530  12
   8 -10  -1 39.8051 6.17390   8
   8  10  -1 29.7211 4.02514   7
  -8  10   1 32.4046 4.22091   5
   8  10  -1 32.5649 5.11110  10
   6 -10  -1 -0.0701 2.58908   8
   6 -10  -1 1.99851 1.40477   6
  -6 -10   1 -0.0084 1.61145  12
   6  10  -1 3.00484 3.26209  10
  -6  10   1 1.15661 2.40612  11
   6  10  -1 0.08962 1.65605   7
   4 -10  -1 6.42533 1.98454   6
  -4 -10   1 4.59566 1.82690   6
  -4 -10   1 7.00634 2.01418  12
   4 -10  -1 5.19357 2.29147   8
  -4  10   1 6.75671 2.47056  11
  -4  10   1 9.92958 2.61328   2
   4  10  -1 6.73687 2.64091   2
   4  10  -1 9.94179 3.30301  10
   4  10  -1 5.28474 2.46336   7
   2 -10  -1 -0.2335 1.36324   6
  -2 -10   1 0.22771 0.98220   1
   2  10  -1 1.07868 1.73808  15
  -2  10   1 1.62823 1.51830   2
   2  10  -1 1.23790 1.86958  10
  -2  10   1 0.47476 1.59209  10
   2  10  -1 -0.3135 2.07947   2
   0 -10  -1 78.8486 4.69429   6
   0 -10   1 86.4984 4.54767   6
   0 -10   1 77.7347 5.94418   8
   0  10  -1 77.5775 5.05312  10
   0  10  -1 86.8607 7.45044  15
   0  10   1 78.0975 5.26016   2
   0  10  -1 92.8533 5.61091   2
   0  10   1 75.4315 5.67731  10
  -2 -10  -1 157.076 6.94875   6
   2 -10   1 144.596 6.15667   6
   2 -10   1 151.103 8.87362   8
   2  10   1 139.029 6.60022   7
   2  10   1 153.936 7.61127   2
  -2  10  -1 148.812 7.49792   2
   2  10   1 145.429 8.01321  10
  -2  10  -1 147.708 6.90645  11
  -4 -10  -1 6.21305 1.87556   6
   4 -10   1 0.65073 1.50381   6
   4 -10   1 -0.4044 2.14655   8
  -4 -10  -1 -0.7042 0.97053  12
  -4  10  -1 -1.3928 1.96595   2
   4  10   1 -1.0377 1.94267   2
   4  10   1 1.19746 2.29370   7
   4  10   1 -0.1943 1.86776  10
  -4  10  -1 0.29241 2.40213  11
   6 -10   1 32.3104 5.10478   8
  -6 -10  -1 35.3634 3.81313  12
  -6 -10  -1 39.2034 4.59143   6
   6  10   1 30.3831 4.61045   7
  -6  10  -1 34.2842 4.50753  11
  -6  10  -1 35.2736 4.07586   5
   6  10   1 34.5538 4.78644  10
  -7 -11   1 76.6661 5.25084  12
  -7 -11   1 74.2278 5.38263   6
   7 -11  -1 73.9686 7.68574   8
  -7  11   1 83.1307 6.32897   5
   7  11  -1 87.2883 8.14896  10
   7  11  -1 78.6779 6.22883   7
  -5 -11   1 101.825 5.95485  12
   5 -11  -1 86.3231 5.42358   6
   5 -11  -1 105.120 8.42875   8
  -5 -11   1 100.534 6.00422   6
  -5  11   1 109.694 6.81050  11
   5  11  -1 98.9678 6.83769   2
   5  11  -1 104.135 7.61053  10
  -3 -11   1 116.924 5.79829   6
   3 -11  -1 111.807 5.89212   6
   3 -11  -1 117.214 8.35532   8
   3  11  -1 104.239 7.10070   2
  -3  11   1 111.457 6.44392   2
   3  11  -1 113.076 7.36816  10
   1 -11  -1 142.629 8.25050   8
   1 -11  -1 152.725 6.69228   6
  -1 -11   1 155.269 6.67005   6
   1  11  -1 146.184 8.06527   2
  -1  11   1 154.840 7.94548   2
   1  11  -1 152.913 8.12210  10
  -1  11   1 153.612 7.86189  10
  -1 -11  -1 169.307 7.56040   6
   1 -11   1 177.934 9.75054   8
   1 -11   1 180.766 7.16319   6
   1  11   1 177.650 8.81585   2
   1  11   1 167.535 8.80712  10
  -1  11  -1 172.722 8.64367   2
  -1  11  -1 178.361 8.19681  11
   3 -11   1 144.714 6.56236   6
   3 -11   1 163.413 9.92867   8
  -3 -11  -1 151.023 7.46841   6
   3  11   1 158.906 8.45789   2
   3  11   1 149.163 8.70103  10
  -3  11  -1 157.587 8.01571  11
  -3  11  -1 146.748 8.05745   2
   5 -11   1 75.1037 7.43766   8
  -5 -11  -1 83.7734 5.34858  12
  -5 -11  -1 77.4715 5.39822   6
   5  11   1 64.0156 5.86856   7
   5  11   1 73.5278 6.58180  10
   5  11   1 64.7700 5.33494   2
  -5  11  -1 80.2776 6.18363  11
   4 -12  -1 308.861 11.1308   6
  -4 -12   1 302.704 11.1461   6
   4 -12  -1 330.225 15.1191   8
  -4  12   1 319.933 12.3263  11
   4  12  -1 319.833 12.7932   2
   4  12  -1 303.499 13.5129  10
   2 -12  -1 246.063 12.0592   8
   2 -12  -1 237.937 9.35138   6
  -2 -12   1 235.181 9.03243   6
   2  12  -1 237.967 11.2589  10
   2  12  -1 260.817 11.1004   2
  -2  12   1 241.704 10.7439   2
   0 -12   1 64.7301 5.75110   8
   0 -12   1 67.8929 4.51762   6
   0 -12  -1 62.5347 4.83939   6
   0  12  -1 73.8620 6.19753   2
   0  12  -1 60.7360 5.46172  10
   0  12   1 62.1361 5.66590   2
   0  12   1 60.7137 5.74495  10
  -2 -12  -1 38.4984 3.75112   6
   2 -12   1 36.8821 5.03736   8
   2 -12   1 30.7138 3.29244   6
  -2  12  -1 32.2090 4.30078   2
   2  12   1 39.0060 5.39928  10
  -2  12  -1 38.4013 4.24639  11
   2  12   1 32.4897 4.57079   2
  -4 -12  -1 244.070 10.0010   6
   4 -12   1 241.084 12.8398   8
   4  12   1 242.188 11.1391   2
   4  12   1 227.759 11.6655  10
  -4  12  -1 241.357 10.6220  11
  -4  12  -1 222.540 10.1797   2
   3 -13  -1 30.4114 5.02657   8
  -3 -13   1 32.3608 3.62979   6
   3 -13  -1 35.1168 4.00556   6
   3  13  -1 28.1270 4.93960  10
   3  13  -1 31.1311 4.95120   2
  -3  13   1 26.8382 4.47700   2
  -3  13   1 31.8307 4.49105  11
   1 -13  -1 1.38073 1.35721   6
  -1 -13   1 0.37414 1.58925   6
   1  13  -1 7.02412 2.74725  11
  -1  13   1 -0.5156 3.57408  10
   1  13  -1 -2.3333 2.59568   2
  -1  13   1 2.36606 2.18799   2
   1  13  -1 -1.1197 2.61463  10
  -1 -13  -1 22.9145 3.41113   6
   1 -13   1 21.7084 4.47869   8
  -1  13  -1 24.1283 3.91609  11
   1  13   1 21.0082 4.21833  10
   1  13   1 22.2045 4.32857   2
  -1  13  -1 27.2648 4.12193   2
   3 -13   1 19.2716 4.48498   8
  -3 -13  -1 19.6365 3.29968   6
   3  13   1 23.4668 4.76086  10
  -3  13  -1 21.0122 3.56962   2
  -3  13  -1 18.3957 3.87632  11
   3  13   1 24.8855 3.90815   2
 -12   0   2 94.5764 6.30495   1
  12   0  -2 95.6179 10.3925  14
 -12   0   2 108.041 6.81957  12
 -10   0   2 49.1528 4.77114  12
 -10   0   2 44.1110 4.30383  16
 -10   0   2 52.0871 4.16871   5
  10   0  -2 38.2703 4.00054   3
 -10   0   2 49.6165 4.15644   1
  10   0  -2 48.1458 7.21109  14
   8   0  -2 280.461 13.7503  14
  -8   0   2 273.842 8.93159   5
  -8   0   2 265.797 9.29298  12
   8   0  -2 278.350 9.81795   3
  -8   0   2 267.389 9.39753  16
   8   0  -2 270.229 9.59024   7
  -6   0   2 106.604 4.55648  16
   6   0  -2 98.5933 3.75210  10
   6   0  -2 121.319 7.15945  14
  -6   0   2 101.446 3.99364  15
  -6   0   2 105.399 4.28479  12
   6   0  -2 109.445 4.74975   3
   6   0  -2 102.446 4.59392   7
  -6   0   2 106.133 4.09025   5
   6   0  -2 110.134 4.64720   8
   4   0  -2 2741.77 63.0676   8
  -4   0   2 2789.48 62.6104  16
   4   0  -2 2561.46 58.4911   7
  -4   0   2 2716.54 62.3419  15
   4   0  -2 2581.40 59.9642   9
   4   0  -2 2635.36 59.6140  10
   4   0  -2 2455.39 62.2683  15
  -4   0   2 2796.86 59.0158   5
  -4   0   2 2681.82 59.8295  12
   4   0  -2 2572.29 61.0581  14
   2   0  -2 7.79990 0.96395  14
   2   0  -2 8.25348 0.65774   2
  -2   0   2 7.52658 0.58938  12
   2   0  -2 8.12193 0.62844   9
   2   0  -2 9.02430 0.89165   3
   0   0  -2 10.9406 0.94759  15
   0   0   2 10.0017 0.91968  15
   0   0  -2 10.6279 0.80123   2
   0   0   2 9.84420 0.72689   4
   0   0   2 11.6394 0.57995  16
   2   0   2 13.6384 1.23555   7
  -2   0  -2 14.1867 0.94595  12
  -2   0  -2 13.4568 0.94198   2
   2   0   2 13.7584 1.20655  13
  -2   0  -2 20.0751 1.29352   5
  -2   0  -2 13.5707 1.60507  15
   2   0   2 13.0875 1.06703   4
   4   0   2 108.685 4.39956   7
   4   0   2 112.822 4.26962   4
  -4   0  -2 103.039 3.86496  11
  -4   0  -2 111.154 4.51265   5
  -4   0  -2 108.402 4.03203  12
  -4   0  -2 110.541 5.31958  15
   4   0   2 104.587 3.97627   8
  -6   0  -2 356.749 10.2656  11
   6   0   2 357.914 10.7259   4
  -6   0  -2 373.716 11.4887   5
  -6   0  -2 355.246 12.7993  15
  -6   0  -2 348.479 10.7453  12
   6   0   2 362.757 11.0142   7
  -8   0  -2 210.439 8.48443  12
   8   0   2 219.054 8.34798   4
  -8   0  -2 200.719 8.00930  16
   8   0   2 216.721 8.45240   7
  -8   0  -2 211.963 8.96528   5
 -10   0  -2 33.6139 4.02873   5
 -10   0  -2 34.1130 4.27336  12
  10   0   2 35.8200 6.24414  14
  11  -1  -2 326.717 18.3508  14
 -11  -1   2 337.960 11.9756   5
 -11  -1   2 325.591 12.5935  12
 -11  -1   2 316.469 13.5909  16
 -11  -1   2 329.628 12.4340   1
 -11   1   2 314.169 12.3637   1
 -11   1   2 331.535 12.3553  12
 -11   1   2 314.687 11.7348   5
  11   1  -2 340.584 18.1132  14
  -9  -1   2 1000.71 26.4159   1
   9  -1  -2 1057.03 33.5886  14
  -9  -1   2 1016.20 26.6378  16
  -9  -1   2 1013.18 26.4624  12
  -9  -1   2 994.845 25.7473   5
   9  -1  -2 997.724 26.6945   3
   9   1  -2 1019.73 32.9081  14
  -9   1   2 1021.48 25.9203   5
  -9   1   2 1058.06 27.0788  16
  -9   1   2 1005.56 26.4544  12
   9   1  -2 1000.76 26.8898   3
   9   1  -2 1040.97 27.0265   7
   7  -1  -2 2191.93 52.1038   8
  -7  -1   2 2299.15 51.5708  16
  -7  -1   2 2234.90 51.2238   1
  -7  -1   2 2299.58 51.2982  12
   7  -1  -2 2288.15 57.6754  14
   7  -1  -2 2227.79 51.4705   7
   7  -1  -2 2200.43 51.8686   3
   7   1  -2 2140.83 50.3804  10
  -7   1   2 2292.62 51.3350  12
  -7   1   2 2253.41 51.6277  16
   7   1  -2 2276.97 52.0666   7
  -7   1   2 2230.21 50.7963   5
   7   1  -2 2284.93 56.8136  14
  -5  -1   2 1264.51 28.8418   1
   5  -1  -2 1219.53 29.6750   8
  -5  -1   2 1255.97 28.3308   5
   5  -1  -2 1223.71 29.4262   3
  -5  -1   2 1300.78 29.0796  16
  -5  -1   2 1249.98 28.7028  12
   5  -1  -2 1262.67 33.0264  14
   5  -1  -2 1189.48 28.1751   9
   5   1  -2 1233.90 28.4642  15
   5   1  -2 1234.18 29.4470   7
   5   1  -2 1233.27 28.8915  10
  -5   1   2 1286.68 27.6413  11
  -5   1   2 1263.28 28.5172   5
  -5   1   2 1323.05 29.0577  15
  -5   1   2 1272.32 28.7805  12
   3  -1  -2 5119.15 118.988   8
  -3  -1   2 5480.19 113.840   5
   3  -1  -2 4943.43 115.804   6
  -3  -1   2 5477.65 117.575  16
   3  -1  -2 5328.03 116.766   9
  -3  -1   2 5576.09 115.821  12
   3  -1  -2 4859.09 115.714   3
  -3  -1   2 5596.24 114.487   1
   3  -1  -2 4685.05 120.049  14
   3   1  -2 4588.16 116.252   7
   3   1  -2 4951.86 116.641  10
   3   1  -2 5077.26 114.582   2
  -3   1   2 5199.50 117.186  15
  -1  -1   2 7500.30 156.083  16
   1  -1  -2 6962.73 154.076  11
  -1  -1   2 7590.55 155.206   1
   1  -1  -2 7090.15 156.390   9
   1  -1  -2 6236.56 157.064   3
  -1  -1   2 7247.71 156.122  13
   1  -1  -2 7339.73 155.696   6
   1  -1  -2 7577.62 158.428   8
   1  -1  -2 7024.20 163.678  14
   1   1  -2 6537.08 156.345   2
   1   1  -2 6560.46 157.124  10
  -1  -1  -2 1043.96 23.1121   5
   1  -1   2 1022.62 22.8908   7
   1  -1   2 1027.03 23.2728  13
  -1  -1  -2 1029.67 23.0532  11
  -1  -1  -2 1043.66 24.0685  15
   1  -1   2 1007.00 24.2702  15
  -1  -1  -2 1038.31 22.6881  12
   1  -1   2 1030.84 22.9655   4
  -1   1  -2 1077.83 24.4632  15
   1   1   2 1030.58 23.5386   7
   1   1   2 1029.34 23.0566   4
  -1   1  -2 1041.13 23.2349   5
   1   1   2 1024.21 22.9345  13
   1   1   2 990.445 23.8307  15
  -1   1  -2 1043.63 23.1562   2
  -1   1  -2 1075.75 23.3499  11
   3  -1   2 3139.44 75.3337   3
   3  -1   2 3271.10 75.2931   8
   3  -1   2 3262.55 72.5490   7
  -3  -1  -2 3398.41 72.9436   5
  -3  -1  -2 3336.37 74.4098  11
  -3  -1  -2 3302.74 73.9678  12
   3  -1   2 3353.88 73.1205  13
  -3  -1  -2 3427.11 74.3957  15
   3  -1   2 3310.82 72.5806   4
   3   1   2 3326.13 72.6535   4
  -3   1  -2 3366.71 74.6273   2
  -3   1  -2 3411.77 75.1272  11
   3   1   2 3298.61 73.2000   7
  -3   1  -2 3387.06 73.1109   5
  -3   1  -2 3276.01 79.3359  15
   3   1   2 3152.31 74.0248  10
   3   1   2 3536.65 75.9367   8
  -5  -1  -2 2456.73 55.4311   5
   5  -1   2 2363.77 54.6595   7
   5  -1   2 2414.06 55.2425   8
  -5  -1  -2 2421.07 54.3291  11
   5  -1   2 2543.28 54.9583   4
  -5  -1  -2 2435.24 54.8032  12
  -5  -1  -2 2448.57 57.1293  15
   5   1   2 2422.77 55.4149   7
  -5   1  -2 2388.32 54.8030  12
   5   1   2 2402.38 54.7528   4
  -5   1  -2 2496.83 54.7100  11
  -5   1  -2 2483.87 55.5636   5
  -5   1  -2 2482.11 57.6593  15
  -7  -1  -2 530.615 15.4269  16
   7  -1   2 584.994 15.9340   4
   7  -1   2 551.245 15.5661   7
  -7  -1  -2 571.005 16.7762   5
  -7  -1  -2 566.825 15.1518  11
  -7  -1  -2 573.877 16.2942  12
  -7   1  -2 602.082 17.1082   5
  -7   1  -2 593.599 15.5223  11
   7   1   2 566.660 15.9066   4
   7   1   2 575.453 16.5474   7
  -7   1  -2 579.071 18.7369  15
  -7   1  -2 572.667 16.3088  12
  -9  -1  -2 826.879 23.5291   5
  -9  -1  -2 759.508 22.5874  12
   9  -1   2 816.800 29.7420  14
  -9   1  -2 809.841 22.7132  12
  -9   1  -2 805.625 23.3818   5
 -10  -2   2 1256.79 32.7797   1
 -10  -2   2 1268.87 33.0307  12
  10  -2  -2 1356.24 42.1233  14
 -10  -2   2 1310.05 32.4628   5
 -10  -2   2 1238.84 32.7698  16
  10   2  -2 1306.42 33.6586   7
 -10   2   2 1303.98 33.1678  12
 -10   2   2 1270.94 32.4454   5
  10   2  -2 1277.81 40.4318  14
 -10   2   2 1295.61 33.6098  16
  10   2  -2 1256.72 33.4223   3
   8  -2  -2 1343.79 33.1863   3
   8  -2  -2 1355.65 33.9277   8
  -8  -2   2 1328.23 31.9437   5
  -8  -2   2 1331.59 32.5720  16
  -8  -2   2 1348.91 32.6470  12
  -8  -2   2 1317.03 32.3696   1
   8  -2  -2 1377.11 39.7099  14
   8   2  -2 1134.91 32.5305  10
   8   2  -2 1400.94 33.5648   7
  -8   2   2 1401.08 32.4166   5
  -8   2   2 1354.27 32.6482  12
   6  -2  -2 2628.24 61.0886   8
   6  -2  -2 2623.98 60.3781   3
  -6  -2   2 2626.76 59.5852  16
  -6  -2   2 2677.33 59.0751   5
  -6  -2   2 2609.64 59.4678   1
  -6  -2   2 2779.33 59.7015  12
   6  -2  -2 2655.09 65.2285  14
   6   2  -2 2670.34 60.4599   7
  -6   2   2 2652.47 58.3246  11
  -6   2   2 2692.17 60.3136  15
  -6   2   2 2707.49 59.6269  12
   6   2  -2 2617.75 59.8793  10
  -6   2   2 2745.57 59.5156   5
   4  -2  -2 2702.45 62.6413   8
   4  -2  -2 2830.36 63.3065   9
   4  -2  -2 2716.60 63.4986   6
  -4  -2   2 2797.74 61.3564  12
  -4  -2   2 2909.32 63.2941   5
  -4  -2   2 3060.73 64.2400  16
   4  -2  -2 2720.48 62.2632   3
   4  -2  -2 2766.36 65.2342  14
  -4  -2   2 2936.68 61.5298   1
   4   2  -2 2785.61 64.2936  15
   4   2  -2 2788.53 62.1789  10
   4   2  -2 2769.94 62.1591   7
   4   2  -2 2677.55 61.7822   2
  -4   2   2 2913.88 69.3565  15
  -4   2   2 2713.25 61.7951  11
   2  -2  -2 641.261 14.6981   6
   2  -2  -2 631.377 16.5626  14
   2  -2  -2 630.485 15.4345   8
  -2  -2   2 661.825 14.7646   1
  -2  -2   2 647.369 14.5686  12
   2  -2  -2 640.431 14.9514   9
  -2  -2   2 653.207 14.8068  16
   2  -2  -2 651.822 15.4706   3
  -2  -2   2 644.160 14.6927  13
   2   2  -2 618.517 14.6987  15
   2   2  -2 619.374 14.8348   7
   2   2  -2 651.696 15.4796  10
   2   2  -2 637.244 15.0467   2
   0  -2   2 7880.27 172.692   1
   0  -2   2 8000.66 180.990  15
   0  -2   2 7898.92 172.740  16
   0  -2   2 7891.95 169.626   4
   0  -2  -2 7638.07 169.765  12
   0  -2   2 8045.67 173.707  13
   0  -2  -2 8454.39 173.580   9
   0  -2  -2 7878.97 172.352   5
   0   2  -2 7602.03 175.426   2
   0   2  -2 7683.76 172.722  10
   0   2   2 7475.77 171.197   4
   0   2   2 7054.99 174.738   7
   0   2  -2 7823.39 174.752  11
   0   2  -2 8005.80 181.740  15
   2  -2   2 8512.26 188.752   4
  -2  -2  -2 8905.39 190.066  11
   2  -2   2 8452.12 186.891   7
  -2  -2  -2 9085.57 186.089  16
   2  -2   2 8154.57 191.782  13
  -2  -2  -2 8959.98 191.407   5
  -2  -2  -2 9130.17 189.181  12
  -2   2  -2 8496.55 188.142   2
   2   2   2 8253.46 193.905   7
   2   2   2 7582.91 190.984  10
   2   2   2 7856.55 187.532  13
   2   2   2 8255.39 188.882   4
  -2   2  -2 8545.60 190.162  11
  -2   2  -2 8632.38 202.712  15
  -2   2  -2 8770.24 192.109   5
   4  -2   2 1437.01 33.0736   7
   4  -2   2 1479.14 34.6908   8
   4  -2   2 1434.93 33.4224   4
  -4  -2  -2 1441.28 33.4239  12
  -4  -2  -2 1482.65 33.9699   5
  -4  -2  -2 1504.02 33.3351  11
  -4  -2  -2 1425.97 32.8729  16
   4   2   2 1451.19 33.5602   4
  -4   2  -2 1499.38 34.2642   5
  -4   2  -2 1534.70 36.4809  15
   4   2   2 1410.28 33.6616  10
  -4   2  -2 1529.84 33.8510  11
  -4   2  -2 1464.29 32.6347   2
   4   2   2 1452.43 34.3893   7
   6  -2   2 1020.94 24.5796   4
   6  -2   2 1001.29 25.5214   8
  -6  -2  -2 978.534 24.6448  12
  -6  -2  -2 937.680 23.8701  16
  -6  -2  -2 1009.21 25.3586   5
  -6  -2  -2 1022.80 24.1152  11
  -6   2  -2 998.413 24.8632  12
  -6   2  -2 1029.91 24.5568  11
  -6   2  -2 995.955 25.5445   5
  -6   2  -2 975.599 27.4851  15
   6   2   2 994.997 24.5438   4
   6   2   2 1004.99 25.5674   7
   8  -2   2 731.802 26.7269  14
  -8  -2  -2 759.230 21.5553   5
  -8  -2  -2 718.698 20.5019  12
   8   2   2 750.380 21.0887   7
  -8   2  -2 737.961 20.7794  12
  -8   2  -2 773.870 21.5912   5
   8   2   2 755.855 20.2058   4
 -10  -2  -2 378.298 13.6844  12
 -10  -2  -2 386.972 14.3308   5
  10  -2   2 380.077 19.1770  14
 -10   2  -2 356.455 13.1493  12
  10   2   2 394.650 13.5836   7
 -10   2  -2 378.898 14.1094   5
 -11  -3   2 30.6856 3.65376   5
  11  -3  -2 34.2908 6.47970  14
 -11  -3   2 33.8832 4.37142  12
  11   3  -2 34.1360 6.92320  14
  11   3  -2 45.2596 5.11364   7
 -11   3   2 25.1075 3.57254  12
  11   3  -2 25.6098 3.88885   3
 -11   3   2 28.4490 3.72933   5
  -9  -3   2 282.811 9.84665   5
  -9  -3   2 280.538 10.4350  12
  -9  -3   2 280.172 10.1454   1
   9  -3  -2 292.157 15.5962  14
   9  -3  -2 277.913 10.4779   3
  -9  -3   2 277.894 10.2069  16
   9  -3  -2 294.799 11.6410   8
  -9   3   2 287.991 10.3223  12
  -9   3   2 291.429 10.2053   5
   9   3  -2 291.137 14.7337  14
   9   3  -2 290.708 11.2308   7
  -7  -3   2 634.090 16.6351   5
   7  -3  -2 657.683 18.9894   8
  -7  -3   2 642.655 17.1338  16
   7  -3  -2 659.103 22.9111  14
  -7  -3   2 664.510 17.2627  12
  -7  -3   2 640.454 17.0149   1
   7  -3  -2 644.514 17.8768   3
   7   3  -2 627.054 17.3738  10
  -7   3   2 641.009 17.1702  12
  -7   3   2 642.706 17.9639  15
  -7   3   2 663.970 17.0792   5
   7   3  -2 650.473 18.0778   7
   5  -3  -2 135.700 5.49699   3
   5  -3  -2 149.228 5.08249   6
  -5  -3   2 135.408 4.85136   1
  -5  -3   2 136.255 4.84521  12
   5  -3  -2 143.851 5.03467   9
   5  -3  -2 135.544 5.88594   8
  -5  -3   2 128.913 4.41987   5
  -5  -3   2 136.373 4.91078  16
   5  -3  -2 134.599 7.61196  14
   5   3  -2 145.830 5.63515   7
   5   3  -2 145.105 5.83123  10
  -5   3   2 144.116 5.75523  15
  -5   3   2 133.444 4.00996   2
  -5   3   2 140.505 4.49301  11
   5   3  -2 133.137 4.39406   2
  -5   3   2 146.347 4.99874   5
  -3  -3   2 953.730 21.5209   5
   3  -3  -2 944.904 24.9284  14
  -3  -3   2 967.483 21.8808  12
  -3  -3   2 959.304 21.9465   1
  -3  -3   2 979.192 22.0463  16
   3  -3  -2 951.452 21.9847   6
   3  -3  -2 983.213 22.3779   9
  -3  -3   2 949.986 21.6813  13
   3  -3  -2 961.395 22.9917   3
   3  -3  -2 918.487 23.1099   8
   3   3  -2 982.887 23.0190  10
   3   3  -2 960.171 22.3996   7
  -3   3   2 954.293 22.7891  15
   3   3  -2 942.957 22.1572   2
  -1  -3   2 2775.15 62.3016  12
  -1  -3   2 2774.97 63.8496  13
   1  -3  -2 2805.38 61.5196   6
   1  -3  -2 2693.09 64.2036   8
  -1  -3   2 2731.87 63.3511  16
  -1  -3   2 2758.32 62.4781   6
   1  -3  -2 2884.96 66.8458  14
   1  -3  -2 2783.45 63.4890   3
  -1  -3   2 2828.13 61.8814   1
   1  -3  -2 2892.53 62.5232   9
   1   3  -2 2755.33 63.1646   2
   1   3  -2 2731.52 62.3859   7
   1   3  -2 2749.07 68.2681  15
   1   3  -2 2740.35 64.9382  10
  -1  -3  -2 867.057 19.2326  12
  -1  -3  -2 830.843 19.5754   5
   1  -3   2 871.391 19.0698   4
  -1  -3  -2 864.461 19.4998   9
   1  -3   2 756.086 20.1199  14
   1  -3   2 856.479 19.0755   6
   1  -3   2 855.326 19.8075  13
   1  -3   2 881.687 19.6315   1
  -1  -3  -2 834.035 18.9838  16
   1   3   2 860.854 19.2778   4
  -1   3  -2 858.455 20.1027   2
  -1   3  -2 853.919 20.0115  11
  -1   3  -2 857.448 19.1960  10
   1   3   2 851.853 20.3390   7
  -1   3  -2 880.018 21.6670  15
  -3  -3  -2 1190.35 26.4079   1
  -3  -3  -2 1199.43 27.2357  11
  -3  -3  -2 1175.67 27.6656   5
   3  -3   2 1224.32 29.0255   8
  -3  -3  -2 1158.39 26.4258  16
   3  -3   2 1220.68 28.0976  13
   3  -3   2 1171.04 26.5119   3
   3  -3   2 1114.29 26.2303   7
  -3  -3  -2 1198.28 26.6812   9
  -3  -3  -2 1197.33 27.1983  12
   3  -3   2 1223.19 27.2228   4
   3   3   2 1194.98 27.2903   4
  -3   3  -2 1201.98 27.9072  11
   3   3   2 1210.99 28.4277   7
  -3   3  -2 1180.03 27.9425   5
   3   3   2 1186.86 28.3393  10
  -3   3  -2 1194.49 27.2270   2
  -3   3  -2 1208.51 30.0906  15
  -5  -3  -2 442.664 12.5818   5
  -5  -3  -2 430.453 11.9936  12
   5  -3   2 438.261 15.6152  14
   5  -3   2 445.774 13.4915   8
  -5  -3  -2 412.013 11.1439  16
  -5  -3  -2 430.079 11.7324   1
  -5  -3  -2 441.366 11.6615  11
  -5   3  -2 437.413 12.1128  11
   5   3   2 454.596 13.1973   7
  -5   3  -2 445.917 14.7562  15
   5   3   2 431.862 11.9582   4
   5   3   2 411.538 12.1258  10
  -5   3  -2 437.631 12.7792   5
   7  -3   2 24.8908 4.62039  14
   7  -3   2 20.8356 2.45316   4
  -7  -3  -2 18.5566 2.82205   5
  -7  -3  -2 16.8995 2.57644  12
   7   3   2 18.6849 3.23871   7
  -7   3  -2 24.2234 3.09450  12
  -7   3  -2 15.2329 2.83208   5
   7   3   2 17.2394 2.38255   4
  -7   3  -2 18.0506 2.46012  11
  -7   3  -2 18.1002 3.42903  15
   9  -3   2 138.900 10.7031  14
  -9  -3  -2 145.877 7.33282  12
  -9  -3  -2 141.422 7.75616   5
  -9   3  -2 149.530 7.91026   5
  -9   3  -2 131.506 7.17051  12
   9   3   2 144.604 7.65320   7
  10  -4  -2 1118.14 37.5798  14
 -10  -4   2 1063.82 28.5251  12
  10  -4  -2 1098.85 30.7411   8
 -10  -4   2 999.247 27.5987   1
  10   4  -2 1062.05 35.3987  14
 -10   4   2 1049.84 28.8391  16
 -10   4   2 1058.07 27.9308   5
 -10   4   2 1074.13 28.5068  12
  10   4  -2 1083.75 29.6046   7
  -8  -4   2 911.433 23.3834  12
   8  -4  -2 889.905 23.8148   3
  -8  -4   2 871.287 22.9815  16
  -8  -4   2 885.555 22.6902   5
  -8  -4   2 878.788 22.9715   1
   8  -4  -2 945.310 25.9475   8
   8  -4  -2 900.583 30.2028  14
  -8   4   2 884.790 23.2218  12
  -8   4   2 902.671 23.1138   5
   8   4  -2 885.250 24.0931   7
   8   4  -2 861.880 23.4945  10
  -6  -4   2 2729.64 61.3259   1
   6  -4  -2 2698.17 62.5056   3
   6  -4  -2 2748.88 68.3012  14
  -6  -4   2 2745.68 61.4396  16
  -6  -4   2 2726.57 61.0302   5
   6  -4  -2 2723.36 63.8817   8
  -6  -4   2 2818.30 61.6552  12
   6   4  -2 2740.13 62.6895   7
   6   4  -2 2668.17 62.5801  10
  -6   4   2 2800.48 63.3681  15
  -6   4   2 2794.35 61.6320   5
  -6   4   2 2729.46 60.7435  11
  -4  -4   2 6432.32 145.762   5
  -4  -4   2 6773.40 146.033  16
  -4  -4   2 6824.39 148.017   1
   4  -4  -2 6682.08 148.834   6
   4  -4  -2 6492.14 148.540   9
   4  -4  -2 6525.45 152.384  14
   4  -4  -2 6298.23 148.002   3
  -4  -4   2 6819.05 148.568  12
  -4  -4   2 6571.76 147.708  13
   4  -4  -2 6320.76 151.249   8
   4   4  -2 6169.15 148.760  10
   4   4  -2 6386.90 149.211   7
  -4   4   2 6901.34 157.533  15
   4   4  -2 5987.51 146.097   2
  -2  -4   2 6350.57 139.552  12
   2  -4  -2 6326.57 151.963  14
   2  -4  -2 6200.31 141.283   6
   2  -4  -2 6288.75 146.241   8
   2  -4  -2 6098.41 146.098   3
  -2  -4   2 6261.87 143.822  16
   2  -4  -2 6418.91 146.271   9
  -2  -4   2 6346.42 141.315  13
  -2  -4   2 6432.49 142.649   1
   2   4  -2 6465.18 143.280  10
   2   4  -2 6378.05 143.311   7
   2   4  -2 6128.11 144.671   2
   2   4  -2 6313.17 148.697  15
   0  -4   2 4980.84 112.201  13
   0  -4  -2 4736.92 109.326  12
   0  -4   2 4800.56 111.316  16
   0  -4  -2 4847.94 112.403   6
   0  -4  -2 4973.58 112.305   9
   0  -4   2 5138.49 110.275   6
   0  -4   2 4868.49 111.704   1
   0  -4  -2 4905.08 113.934   8
   0   4  -2 4953.29 118.448  15
   0   4  -2 5196.55 114.356  10
   0   4  -2 5031.59 112.420  11
   0   4   2 4725.13 113.204   7
   0   4  -2 4895.83 112.494   2
   0   4   2 4927.74 109.649   4
  -2  -4  -2 3266.28 72.8971  16
   2  -4   2 3328.59 72.4268   6
   2  -4   2 3316.40 71.9278  13
   2  -4   2 3039.98 73.1294  14
  -2  -4  -2 3413.62 72.3195   9
  -2  -4  -2 3344.12 71.7465   5
  -2  -4  -2 3104.47 71.1549  12
   2  -4   2 3325.63 70.8780   4
  -2   4  -2 3391.17 74.5012  15
   2   4   2 3215.14 72.6146   7
  -2   4  -2 3314.02 71.9680   2
  -2   4  -2 3299.51 72.1054  11
   2   4   2 3184.97 72.9456  10
   2   4   2 3193.38 71.0453   4
   4  -4   2 2216.33 51.7704   8
  -4  -4  -2 2221.07 50.1108   5
  -4  -4  -2 2234.09 49.5457  12
   4  -4   2 2119.57 53.2207  14
   4  -4   2 2241.17 49.2800   4
   4   4   2 2171.57 50.7841  10
  -4   4  -2 2216.79 49.1323   2
  -4   4  -2 2275.68 50.1981  11
   4   4   2 2251.19 51.1159   7
  -4   4  -2 2201.79 52.8495  15
   4   4   2 2104.01 49.2670   4
  -4   4  -2 2215.95 50.4213   5
   6  -4   2 2540.40 64.8444  14
  -6  -4  -2 2609.80 59.3496  12
  -6  -4  -2 2636.90 60.0038   5
   6  -4   2 2667.49 61.4855   8
   6  -4   2 2677.85 58.8575   4
  -6   4  -2 2570.40 62.8677  15
  -6   4  -2 2637.47 59.2552  11
   6   4   2 2591.44 60.7792   7
   6   4   2 2481.77 59.4376  10
  -6   4  -2 2645.03 60.1818   5
   6   4   2 2595.99 59.0058   4
   8  -4   2 1696.22 48.1534  14
  -8  -4  -2 1668.59 41.2588  12
  -8  -4  -2 1723.77 42.0858   5
  -8   4  -2 1674.60 41.7321   5
   8   4   2 1692.29 42.4235   7
  -8   4  -2 1697.88 41.2054  12
   8   4   2 1661.54 40.3680   4
  11  -5  -2 445.612 21.8761  14
 -11  -5   2 412.110 14.6362  12
  11   5  -2 404.676 15.2215   7
  11   5  -2 386.745 19.4751  14
 -11   5   2 386.649 13.8631  12
  -9  -5   2 459.722 14.1728   1
  -9  -5   2 464.676 14.8875  12
   9  -5  -2 509.084 17.6014   8
  -9  -5   2 439.907 14.0443  16
   9  -5  -2 471.880 21.1713  14
  -9  -5   2 474.319 14.3249   5
   9   5  -2 448.886 14.5936  10
  -9   5   2 474.137 14.7559   5
  -9   5   2 483.070 14.8446  12
   9   5  -2 468.404 15.8562   7
  -7  -5   2 751.406 19.9503  16
   7  -5  -2 810.013 23.1181   8
  -7  -5   2 762.440 19.7833   5
   7  -5  -2 771.478 21.0979   3
  -7  -5   2 766.248 19.8630   1
   7  -5  -2 742.585 26.4125  14
  -7  -5   2 791.909 20.4584  12
   7   5  -2 758.619 21.2561  10
  -7   5   2 773.844 22.1535  15
  -7   5   2 795.768 20.4377   5
   7   5  -2 808.724 21.6664   7
  -5  -5   2 1611.21 37.5987   5
  -5  -5   2 1698.78 38.0330  16
   5  -5  -2 1667.17 39.3665   3
   5  -5  -2 1693.08 38.0886   6
  -5  -5   2 1703.70 38.2020  12
  -5  -5   2 1678.29 37.8623   1
  -5  -5   2 1561.06 37.0011  13
   5  -5  -2 1680.11 40.6885   8
   5  -5  -2 1596.15 43.7408  14
   5  -5  -2 1660.56 38.6994   9
  -5   5   2 1689.67 40.1632  15
   5   5  -2 1699.37 39.1050   7
   5   5  -2 1650.78 39.5926  10
   5   5  -2 1582.29 37.8746   2
  -5   5   2 1664.64 37.5170   2
  -5   5   2 1644.32 37.6805  11
  -3  -5   2 3361.79 70.8199   1
   3  -5  -2 3162.68 74.9065  14
  -3  -5   2 3270.95 70.8636  16
   3  -5  -2 3297.49 71.6578   9
   3  -5  -2 3142.82 72.1576   3
   3  -5  -2 3263.47 70.9253   6
   3  -5  -2 3205.05 73.0290   8
  -3  -5   2 3153.69 69.9796  13
  -3  -5   2 3200.90 70.7588  12
   3   5  -2 3098.56 71.4584   2
  -3   5   2 3298.73 72.7771  15
   3   5  -2 3305.05 71.2520   7
   3   5  -2 3186.11 72.2828  10
  -1  -5   2 2884.16 63.2374  13
  -1  -5   2 2914.25 63.6341   1
  -1  -5   2 2885.17 63.5152  12
   1  -5  -2 2916.44 63.8140   6
  -1  -5   2 2782.39 63.1599   6
   1  -5  -2 2885.77 66.7469  14
  -1  -5   2 2934.63 63.7314  16
   1  -5  -2 2846.96 64.7930   8
   1  -5  -2 2989.54 64.2420   9
   1   5  -2 2916.07 65.4053  15
  -1   5   2 2885.72 62.6973   4
   1   5  -2 2961.81 64.7405   2
   1   5  -2 2828.76 63.8343   7
   1   5  -2 3013.93 64.7142  10
  -1   5   2 2892.52 64.1054   7
   1  -5   2 1285.19 31.1659  14
  -1  -5  -2 1283.77 30.0910   8
   1  -5   2 1364.10 30.7904  13
   1  -5   2 1337.07 30.0775   6
  -1  -5  -2 1282.99 29.3478   1
   1  -5   2 1291.11 29.3346   4
  -1  -5  -2 1401.64 30.6630   9
  -1  -5  -2 1368.37 30.8196   5
   1  -5   2 1365.81 30.7221   1
  -1  -5  -2 1345.37 30.2875  12
  -1   5  -2 1355.10 31.3790   2
  -1   5  -2 1368.78 33.1035  15
  -1   5  -2 1348.52 30.5309  10
   1   5   2 1341.70 29.8172   4
   1   5   2 1342.56 32.3239  10
   1   5   2 1387.79 31.6620   7
  -1   5  -2 1355.99 31.1142  11
   3  -5   2 1170.15 32.5217  14
   3  -5   2 1331.11 30.9969  13
   3  -5   2 1366.64 32.9734   8
  -3  -5  -2 1316.65 30.6655   5
   3  -5   2 1290.51 29.7512   6
  -3  -5  -2 1304.56 30.1272  12
   3  -5   2 1321.34 29.5290   4
   3   5   2 1278.77 31.9054  10
   3   5   2 1271.51 29.6808   4
   3   5   2 1320.75 31.6946   7
  -3   5  -2 1356.67 30.6520   2
  -3   5  -2 1305.98 33.4364  15
  -3   5  -2 1309.04 30.8822  11
   5  -5   2 1326.39 36.9912  14
  -5  -5  -2 1376.47 32.7431  12
   5  -5   2 1408.72 35.5350   8
  -5  -5  -2 1386.08 33.4108   5
   5  -5   2 1443.66 32.2390   4
   5   5   2 1362.96 34.4188   7
   5   5   2 1394.77 32.4221   4
  -5   5  -2 1358.61 36.0965  15
   5   5   2 1337.07 33.8632  10
  -5   5  -2 1347.56 33.4554   5
  -5   5  -2 1440.95 33.3017  11
   7  -5   2 935.605 25.7278   8
   7  -5   2 860.926 28.2217  14
  -7  -5  -2 856.997 23.6075   5
  -7  -5  -2 868.971 22.9064  12
  -7   5  -2 833.638 22.3037  11
  -7   5  -2 861.114 23.6348   5
   7   5   2 840.273 24.3263   7
   7   5   2 847.331 22.2347   4
  -9  -5  -2 449.011 15.4550   5
  -9  -5  -2 438.320 14.7084  12
   9   5   2 462.709 15.9134   7
  -9   5  -2 433.856 14.4928  12
  -9   5  -2 444.662 15.2608   5
 -10  -6   2 58.5155 4.36728   5
  10  -6  -2 53.3625 6.02398   8
  10  -6  -2 60.9783 7.75635  14
 -10  -6   2 58.3497 5.02568  12
 -10   6   2 63.5891 4.75789  12
 -10   6   2 60.0959 4.55502   5
  10   6  -2 54.5552 6.81079  14
  10   6  -2 53.9383 5.29627   7
  -8  -6   2 190.510 7.32306   1
   8  -6  -2 203.272 10.2188   8
   8  -6  -2 164.270 8.04646   3
   8  -6  -2 193.938 12.5344  14
  -8  -6   2 186.677 7.42043   5
  -8  -6   2 176.372 7.20641  16
  -8  -6   2 197.056 8.10672  12
  -8   6   2 194.590 7.80476   5
   8   6  -2 185.422 8.76674   7
   8   6  -2 182.993 8.70200  10
   6  -6  -2 112.007 6.77006   8
   6  -6  -2 117.490 5.78771   3
  -6  -6   2 108.855 4.75458  16
   6  -6  -2 103.251 7.99663  14
  -6  -6   2 103.063 4.60973   1
   6  -6  -2 110.942 4.98126   6
  -6  -6   2 110.131 5.00623  12
  -6  -6   2 107.541 4.72949   5
   6   6  -2 100.068 4.71241   2
   6   6  -2 108.403 5.83711   7
  -6   6   2 111.182 6.43431  15
   6   6  -2 112.604 6.43159  10
  -6   6   2 110.468 4.74598  11
  -4  -6   2 8.32758 1.43534  16
   4  -6  -2 9.39220 1.84245   3
  -4  -6   2 7.40187 1.35314   1
  -4  -6   2 7.03999 1.42474  12
   4  -6  -2 8.50370 2.10580   8
   4  -6  -2 9.87923 1.64258   6
   4  -6  -2 10.2230 2.57235  14
   4   6  -2 11.2574 1.91253   2
   4   6  -2 9.15996 1.90443   7
  -4   6   2 10.6658 2.31271  15
   4   6  -2 11.7100 2.46058  10
  -2  -6   2 58.8353 2.84724   1
  -2  -6   2 57.3915 2.90546  12
  -2  -6   2 57.0966 2.32888  13
   2  -6  -2 59.8952 3.55826   3
  -2  -6   2 59.2784 2.92005  16
   2  -6  -2 66.8111 3.46582   9
   2  -6  -2 53.3355 3.59170   8
   2  -6  -2 59.1556 2.93539   6
   2  -6  -2 60.4003 4.42066  14
  -2  -6   2 58.3677 2.69641   6
  -2   6   2 62.4503 3.60749  10
   2   6  -2 58.7137 2.83527   7
  -2   6   2 62.2278 2.98204   7
   2   6  -2 60.8772 3.97249  10
   2   6  -2 53.5690 3.47489  15
   2   6  -2 54.7030 3.60683   2
   0  -6  -2 342.219 9.47312   9
   0  -6   2 314.645 8.61180   6
   0  -6  -2 307.567 9.43225   8
   0  -6   2 328.620 8.89478  13
   0  -6   2 319.629 9.02319   1
   0  -6  -2 355.787 9.41504   6
   0   6   2 323.615 9.65898   7
   0   6   2 326.724 10.5332  10
   0   6  -2 324.701 11.0994  15
   0   6  -2 350.755 10.2537   2
   0   6   2 323.206 7.96618   4
   0   6  -2 330.424 9.70219  10
   2  -6   2 462.071 14.5165   8
  -2  -6  -2 467.895 12.0489   9
  -2  -6  -2 460.567 12.6052   5
   2  -6   2 518.868 12.9980  13
  -2  -6  -2 466.491 12.1517  12
   2  -6   2 466.046 11.8997   6
   2   6   2 467.287 13.4979   7
  -2   6  -2 463.177 14.9964  15
  -2   6  -2 456.326 12.9435  11
  -2   6  -2 448.022 13.0115   2
   2   6   2 450.981 11.4329   4
   2   6   2 465.948 14.2109  10
   4  -6   2 161.218 7.81534   8
  -4  -6  -2 162.048 5.80271  12
   4  -6   2 144.110 7.69588  14
  -4  -6  -2 141.166 6.03502   5
  -4   6  -2 145.498 6.19224  11
   4   6   2 154.815 7.05522   7
  -4   6  -2 153.150 6.28782   5
   4   6   2 138.275 6.73628  10
  -4   6  -2 151.641 8.20542  15
   4   6   2 145.359 5.23485   4
  -4   6  -2 143.448 5.77207   2
  -6  -6  -2 4.64129 1.68510  12
  -6  -6  -2 5.23692 1.93204   5
   6  -6   2 5.75226 2.46402   8
   6  -6   2 6.00394 2.52136  14
  -6   6  -2 5.56292 1.83115   5
   6   6   2 1.26217 2.38754   7
   6   6   2 6.75024 2.30849  10
   6   6   2 4.39562 1.31423   4
  -6   6  -2 4.89615 1.64229  11
   8  -6   2 11.7786 3.15676   8
  -8  -6  -2 10.9215 2.37018   5
  -8  -6  -2 13.5981 2.72101  12
  -8   6  -2 6.30856 2.30236  12
   8   6   2 8.75578 3.37305   7
  -8   6  -2 13.3171 2.63058   5
  -8   6  -2 9.57694 2.17954  11
  -9  -7   2 1007.65 27.6013  12
   9  -7  -2 1090.91 31.6556   8
   9  -7  -2 1037.94 35.8124  14
   9   7  -2 1000.34 28.6009  10
  -9   7   2 1056.68 27.6231   5
   9   7  -2 1023.72 29.0122   7
   7  -7  -2 1207.60 38.3329  14
   7  -7  -2 1271.90 34.5781   8
   7  -7  -2 1274.20 32.0463   3
  -7  -7   2 1237.83 30.9749  12
  -7   7   2 1232.34 30.2401  11
  -7   7   2 1284.10 31.2487   5
  -7   7   2 1172.40 33.1869  15
   7   7  -2 1262.22 33.0712  10
   7   7  -2 1244.82 32.4007   7
   5  -7  -2 1471.90 42.4098  14
  -5  -7   2 1563.99 35.8766   1
  -5  -7   2 1529.85 36.2036  12
   5  -7  -2 1593.68 39.7419   8
   5  -7  -2 1587.42 36.4301   6
   5  -7  -2 1585.59 37.8772   3
  -5  -7   2 1531.53 35.9126  16
   5   7  -2 1544.69 38.3804  10
  -5   7   2 1516.84 36.0609   2
   5   7  -2 1493.88 36.6434   2
   5   7  -2 1511.55 36.9332   7
  -5   7   2 1516.50 39.0528  15
   3  -7  -2 1092.59 29.3833   8
   3  -7  -2 1122.37 27.7371   9
  -3  -7   2 1137.17 26.5669   1
   3  -7  -2 1063.32 31.0657  14
  -3  -7   2 1128.34 26.7662  12
   3  -7  -2 1132.34 28.4960   3
   3  -7  -2 1134.43 26.9042   6
  -3  -7   2 1136.77 26.6713  16
  -3   7   2 1133.17 29.5021  15
   3   7  -2 1109.40 27.8556   2
   3   7  -2 1121.78 26.8843   7
  -3   7   2 1145.30 27.6285  10
   3   7  -2 1148.91 28.7223  10
   1  -7  -2 1757.38 40.2021   6
  -1  -7   2 1744.14 39.5539   6
  -1  -7   2 1764.88 40.0267  16
  -1  -7   2 1721.86 39.1423  13
   1  -7  -2 1797.33 40.8191   9
   1  -7  -2 1607.23 41.3374   8
  -1  -7   2 1726.39 39.8437   1
  -1   7   2 1786.26 41.8661  10
  -1   7   2 1794.23 40.4416   7
   1   7  -2 1808.95 41.4754   2
   1   7  -2 1779.69 41.2576  10
   1   7  -2 1746.40 42.3946  15
   1  -7   2 3334.05 74.3642   6
  -1  -7  -2 3325.02 75.3412   6
   1  -7   2 3442.37 78.0005   8
  -1  -7  -2 3355.50 74.6619  12
  -1  -7  -2 3402.08 75.1028   9
  -1   7  -2 3373.89 75.1280  10
  -1   7  -2 3490.33 76.3114   2
  -1   7  -2 3379.42 78.3361  15
   1   7   2 3395.07 77.5268  10
   1   7   2 3387.27 76.1217   7
  -1   7  -2 3406.99 75.6110  11
  -3  -7  -2 1912.33 43.3568  12
  -3  -7  -2 1879.31 43.9326   5
   3  -7   2 1931.92 46.9054   8
   3  -7   2 1864.37 42.7789   6
  -3   7  -2 1907.09 44.2364  11
  -3   7  -2 1911.66 44.1979   2
  -3   7  -2 1833.38 47.1688  15
   3   7   2 1830.96 45.9158  10
   3   7   2 1929.62 45.1893   7
  -5  -7  -2 866.430 22.2672  12
   5  -7   2 887.163 25.5944   8
  -5  -7  -2 877.891 23.0153   5
  -5   7  -2 872.503 22.8714  11
  -5   7  -2 838.892 22.9112   5
   5   7   2 867.864 24.0705   7
   5   7   2 835.499 24.1110  10
   7  -7   2 696.434 22.2319   8
  -7  -7  -2 666.897 19.5176   5
  -7  -7  -2 647.116 18.6542  12
  -7   7  -2 644.312 18.3088  11
   7   7   2 643.009 20.4670   7
  -7   7  -2 653.995 19.1893   5
   7   7   2 614.043 19.6119  10
   8  -8  -2 324.334 17.1686  14
  -8  -8   2 337.805 11.8548  12
   8  -8  -2 333.281 14.4617   8
   8   8  -2 326.685 12.4642   7
   8   8  -2 318.344 13.1273  10
  -8   8   2 333.011 11.6820   5
   6  -8  -2 362.571 11.4203   6
  -6  -8   2 343.621 10.5813   1
  -6  -8   2 353.219 10.7833  16
   6  -8  -2 372.928 14.4961   8
   6  -8  -2 355.055 12.3971   3
  -6  -8   2 353.298 11.3401  12
   6  -8  -2 341.983 16.1672  14
  -6   8   2 304.336 14.8384  15
  -6   8   2 367.322 11.4357  11
   6   8  -2 327.694 11.3257   2
   6   8  -2 346.424 13.2957  10
   6   8  -2 349.187 12.2424   7
   4  -8  -2 569.196 18.5193   8
  -4  -8   2 582.182 15.7831  12
   4  -8  -2 548.847 20.2957  14
   4  -8  -2 580.420 15.7499   6
  -4  -8   2 583.480 15.3286   1
  -4  -8   2 591.946 15.4337  16
   4   8  -2 580.148 15.9594   7
   4   8  -2 591.817 16.8996   2
  -4   8   2 578.307 16.1340   2
   4   8  -2 579.890 17.8068  10
  -4   8   2 591.518 18.7851  15
  -2  -8   2 1432.82 33.5251  16
   2  -8  -2 1429.54 34.5382   9
  -2  -8   2 1452.76 33.4141   1
  -2  -8   2 1410.00 33.2504   6
   2  -8  -2 1425.13 33.7784   6
   2  -8  -2 1378.50 36.1352   8
   2   8  -2 1385.55 35.9734  15
   2   8  -2 1452.78 35.4660  10
  -2   8   2 1444.79 36.8302  15
  -2   8   2 1464.28 35.2219  10
   2   8  -2 1453.66 35.2000   2
   0  -8   2 496.800 13.1438   6
   0  -8   2 494.953 13.5557   1
   0  -8   2 499.239 15.9841   8
   0  -8  -2 504.893 13.9408   6
   0  -8  -2 500.240 14.0341   9
   0  -8  -2 469.451 15.1304   8
   0   8  -2 490.543 16.2608  15
   0   8   2 506.974 14.2017   7
   0   8   2 531.208 15.6940  10
   0   8  -2 494.375 14.2931  10
   0   8  -2 517.805 14.9534   2
  -2  -8  -2 256.432 8.28976  12
  -2  -8  -2 264.392 9.03635   6
   2  -8   2 250.979 7.95096   6
   2  -8   2 265.439 10.9016   8
   2   8   2 274.212 10.5554  10
  -2   8  -2 258.962 9.05596  11
  -2   8  -2 248.218 11.0767  15
  -2   8  -2 253.779 9.46013   2
   2   8   2 255.995 9.46664   7
  -4  -8  -2 683.394 18.1825  12
   4  -8   2 687.950 21.7954   8
   4  -8   2 675.119 17.5703   6
   4   8   2 672.017 20.6948  10
  -4   8  -2 662.970 18.9441  11
   4   8   2 695.578 20.2826   7
  -4   8  -2 675.253 18.5828   2
  -6  -8  -2 349.915 12.6282   5
  -6  -8  -2 370.572 12.0775  12
   6  -8   2 370.334 15.0844   8
  -6   8  -2 359.811 12.5962   5
  -6   8  -2 363.565 12.2602  11
   6   8   2 388.341 14.1035   7
   6   8   2 380.038 14.1663  10
  -8  -8  -2 258.665 10.2688  12
  -8  -8  -2 278.276 11.3173   5
   8  -8   2 268.105 12.8520   8
   8   8   2 262.418 11.8106   7
  -8   8  -2 263.381 11.0287   5
   9  -9  -2 19.7762 4.64751   8
  -9  -9   2 21.0266 3.38669  12
  -9   9   2 14.2999 2.81588   5
   9   9  -2 24.4870 4.35330   7
   9   9  -2 25.0853 3.99712  10
   7  -9  -2 4.92005 3.06968   8
   7  -9  -2 6.74907 2.80823  14
   7  -9  -2 10.0641 2.47169   6
  -7  -9   2 11.2238 2.48432  12
   7   9  -2 10.1713 3.67150  10
  -7   9   2 5.61023 2.45734  11
   7   9  -2 4.43809 2.66424   7
  -7   9   2 5.98733 2.47115   5
  -5  -9   2 500.596 14.1966   1
   5  -9  -2 489.202 20.0174  14
  -5  -9   2 488.751 14.2667  16
   5  -9  -2 515.033 14.9126   6
   5  -9  -2 521.587 18.4118   8
  -5  -9   2 512.854 14.9814  12
  -5   9   2 523.708 15.2556  11
   5   9  -2 512.621 15.9445   2
   5   9  -2 525.221 17.5710  10
  -5   9   2 549.922 15.3579   2
  -3  -9   2 450.975 12.6614  16
  -3  -9   2 447.563 12.5862   1
   3  -9  -2 436.392 12.8708   6
   3  -9  -2 428.014 16.8370  14
  -3  -9   2 437.930 12.8912  12
  -3  -9   2 444.033 12.6988   6
   3  -9  -2 433.031 15.4642   8
  -3   9   2 445.029 13.8439   2
  -3   9   2 460.922 13.7861  10
   3   9  -2 454.178 14.4328   2
   3   9  -2 415.949 14.6795  15
   3   9  -2 443.980 14.9647  10
  -3   9   2 450.717 16.0155  15
  -1  -9   2 146.796 7.56876   8
   1  -9  -2 124.009 6.67467   8
   1  -9  -2 130.496 5.71295   6
   1  -9  -2 142.348 6.31263   9
  -1  -9   2 137.567 5.40058   6
  -1  -9   2 145.096 5.77018   1
   1   9  -2 132.612 7.54964  15
   1   9  -2 139.079 6.64906  10
  -1   9   2 147.924 7.21833  10
   1   9  -2 137.369 7.07208   2
  -1  -9  -2 205.787 7.97129   6
  -1  -9  -2 215.111 7.73668   9
   1  -9   2 213.968 7.18481   6
   1  -9   2 218.304 10.1614   8
  -1   9  -2 224.629 8.47321  11
  -1   9  -2 204.597 7.84931  10
  -1   9  -2 224.865 8.93907   2
   1   9   2 208.147 8.22634   7
  -1   9  -2 206.059 10.0365  15
   1   9   2 215.396 9.43507  10
  -3  -9  -2 30.4813 3.48612   6
  -3  -9  -2 24.9102 2.72551  12
   3  -9   2 24.2061 4.08809   8
   3  -9   2 28.0828 2.65416   6
   3   9   2 24.5512 3.59314   2
   3   9   2 25.7654 3.73100   7
   3   9   2 23.2678 4.06872  10
  -3   9  -2 31.2369 3.79535  11
  -3   9  -2 30.0265 3.52636   2
  -5  -9  -2 126.674 6.05340  12
   5  -9   2 130.183 8.45692   8
   5   9   2 148.943 8.20889   7
  -5   9  -2 121.340 6.64435   5
  -5   9  -2 127.559 7.04228  11
   5   9   2 140.359 8.40633  10
   7  -9   2 486.911 18.5260   8
  -7  -9  -2 460.716 14.7600  12
   7   9   2 463.009 16.9543   7
  -7   9  -2 452.843 15.4527   5
   7   9   2 441.379 16.2073  10
   8 -10  -2 1546.32 43.0606   8
   8  10  -2 1492.50 39.1141   7
   8  10  -2 1441.80 40.2392  10
  -8  10   2 1508.12 38.1385   5
   6 -10  -2 1298.37 36.7070   8
  -6 -10   2 1229.18 31.7702  12
   6 -10  -2 1248.68 31.5698   6
  -6 -10   2 1240.68 31.7577   6
   6  10  -2 1281.62 35.1478  10
  -6  10   2 1269.17 32.1076  11
   6  10  -2 1197.42 32.4960   2
  -4 -10   2 1091.13 27.4912  16
  -4 -10   2 1094.76 27.8255   6
   4 -10  -2 1005.82 33.0370  14
   4 -10  -2 1110.59 28.1287   6
  -4 -10   2 1133.37 28.2307  12
  -4 -10   2 1135.19 27.4548   1
   4 -10  -2 1147.08 32.3983   8
   4  10  -2 1121.98 29.7273   2
   4  10  -2 1121.19 30.8151  10
  -4  10   2 1142.17 29.0029   2
  -2 -10   2 2351.38 52.8599   6
   2 -10  -2 2338.75 53.3767   6
  -2 -10   2 2181.03 55.6211   8
  -2 -10   2 2369.02 52.9848   1
   2 -10  -2 2176.81 56.1658   8
   2  10  -2 2430.57 55.5914   2
  -2  10   2 2320.07 54.8910  10
   2  10  -2 2346.21 55.4173  10
  -2  10   2 2342.60 54.7887   2
   2  10  -2 2159.06 56.2771  15
   0 -10  -2 1724.04 41.5997   6
   0 -10   2 1697.31 40.5154   6
   0 -10   2 1756.55 44.9545   8
   0  10   2 1771.42 44.0698  10
   0  10  -2 1806.48 43.3382   2
   0  10  -2 1719.94 42.1901  10
   0  10   2 1723.07 43.1510   2
   0  10  -2 1755.42 41.9774  11
   2 -10   2 1539.52 36.8437   6
  -2 -10  -2 1569.88 38.3829   6
   2 -10   2 1590.66 42.0849   8
   2  10   2 1529.37 38.6249   7
  -2  10  -2 1575.54 39.2370   2
   2  10   2 1515.39 39.4967   2
  -2  10  -2 1545.21 38.6158  11
   2  10   2 1622.23 41.2242  10
  -4 -10  -2 1968.29 46.8703  12
   4 -10   2 1988.37 51.7826   8
  -4 -10  -2 2042.36 48.3283   6
   4  10   2 1969.30 48.8573   7
  -4  10  -2 1992.49 48.0797  11
  -4  10  -2 1982.52 47.6693   2
   4  10   2 1916.27 48.5780   2
   4  10   2 1953.86 50.4783  10
  -6 -10  -2 773.165 21.8174  12
  -6 -10  -2 806.432 23.2974   6
   6 -10   2 795.201 26.1553   8
  -6  10  -2 791.031 22.4517  11
   6  10   2 763.752 24.6527  10
  -6  10  -2 792.690 22.9718   5
   6  10   2 801.667 24.2959   7
   7 -11  -2 323.975 11.6095   6
  -7 -11   2 335.670 12.2914  12
   7 -11  -2 348.162 15.7647   8
  -7  11   2 336.363 12.3937  11
   7  11  -2 327.970 14.7524  10
  -7  11   2 346.211 12.9508   5
   5 -11  -2 533.942 16.3234   6
  -5 -11   2 545.299 16.4071  12
   5 -11  -2 563.226 20.6074   8
  -5 -11   2 529.943 16.2128   6
  -5  11   2 536.218 16.7346   2
  -5  11   2 565.185 17.1625  11
   5  11  -2 533.633 17.6739   2
   5  11  -2 514.123 18.7205  10
   3 -11  -2 137.174 6.72915   6
  -3 -11   2 144.855 6.47598   6
   3 -11  -2 134.997 8.67845   8
   3  11  -2 143.411 8.21236   2
   3  11  -2 147.740 8.71034  10
  -3  11   2 134.689 7.40780   2
  -1 -11   2 232.594 10.9951   8
  -1 -11   2 249.470 8.63418   6
   1 -11  -2 242.503 9.25683   6
  -1  11   2 232.843 10.1392  10
   1  11  -2 227.981 9.39659  11
  -1  11   2 249.021 10.2543   2
   1  11  -2 243.011 10.6331   2
   1  11  -2 228.830 10.1414  10
   1 -11   2 1302.59 36.0119   8
   1 -11   2 1201.71 30.6559   6
  -1 -11  -2 1280.55 32.1600   6
  -1  11  -2 1198.64 32.0939  11
   1  11   2 1304.36 34.8332  10
   1  11   2 1260.96 33.6418   2
  -1  11  -2 1269.56 33.4814   2
  -3 -11  -2 546.172 16.9450   6
   3 -11   2 559.249 20.2261   8
  -3  11  -2 531.811 17.0392  11
  -3  11  -2 513.086 16.9905   2
   3  11   2 536.567 17.8627   2
   3  11   2 516.478 18.9223  10
   3  11   2 529.349 17.0640   7
  -5 -11  -2 142.692 7.86120   6
   5 -11   2 141.249 9.75661   8
  -5 -11  -2 139.153 6.91351  12
  -5  11  -2 140.119 7.60016   5
  -5  11  -2 128.367 7.72184  11
   5  11   2 153.601 8.67460   7
   5  11   2 125.148 8.60011  10
   6 -12  -2 98.9748 5.74003   6
  -6 -12   2 102.100 6.21503   6
   6 -12  -2 104.863 9.00593   8
  -6  12   2 101.857 6.91963  11
   6  12  -2 91.8927 7.76756  10
  -4 -12   2 65.1708 4.77385   6
   4 -12  -2 73.4850 6.68233   8
   4 -12  -2 74.6291 4.88248   6
  -4  12   2 63.3793 5.53256   2
   4  12  -2 62.1306 6.16466  10
   4  12  -2 72.1283 6.73623   2
  -4  12   2 64.3550 5.16686  11
   2 -12  -2 366.631 12.3412   6
  -2 -12   2 345.585 11.5344   6
   2 -12  -2 336.445 14.3906   8
   2  12  -2 371.308 14.1785  10
   2  12  -2 376.805 14.3197   2
  -2  12   2 339.039 13.0092  10
  -2  12   2 368.637 13.6127   2
   2  12  -2 353.343 12.4892  11
   0 -12   2 119.880 8.29366   8
   0 -12  -2 116.293 6.50912   6
   0  12   2 129.481 8.18364  10
   0  12  -2 120.716 7.93832   2
   0  12  -2 118.871 6.59990  11
   0  12   2 126.487 7.76336   2
   2 -12   2 62.6925 6.75192   8
  -2 -12  -2 59.8885 5.02958   6
  -2  12  -2 69.2825 5.40418  11
  -2  12  -2 62.7986 5.52626   2
   2  12   2 71.5513 6.27381   2
   2  12   2 62.8517 6.05881  10
   4 -12   2 281.034 13.7882   8
  -4 -12  -2 278.726 11.1971   6
  -4  12  -2 278.654 11.7039  11
   4  12   2 273.220 11.7774   2
   4  12   2 280.451 13.6337  10
   3 -13  -2 976.536 26.5279   6
   3  13  -2 1026.20 29.2663   2
   3  13  -2 958.348 26.6518  11
  -3  13   2 1006.02 28.0800   2
   3  13  -2 1014.07 29.4995  10
   1 -13  -2 627.578 18.5826   6
   1  13  -2 582.421 20.5285  10
  -1  13   2 622.651 20.1930   2
   1  13  -2 652.457 19.1421  11
   1  13  -2 617.488 20.4578   2
  -1  13   2 629.193 20.1405  10
  -1 -13  -2 675.925 20.2468   6
   1 -13   2 695.901 23.9354   8
  -1  13  -2 684.666 20.6707  11
   1  13   2 698.253 21.9974   2
  -1  13  -2 667.895 21.6790   2
   1  13   2 672.696 22.1799  10
 -12   0   3 1.38698 1.66759  12
  12   0  -3 0.58315 3.70087  14
 -12   0   3 1.16019 2.31351   1
 -10   0   3 1.40646 1.45481   5
 -10   0   3 0.78742 1.27016  16
  10   0  -3 2.52619 2.58652  14
  10   0  -3 -0.2045 1.59154   3
 -10   0   3 1.77309 1.85912   1
 -10   0   3 2.59524 2.01542  12
  -8   0   3 4.51573 1.30790   5
   8   0  -3 -0.0837 1.46320  14
  -8   0   3 2.58272 1.51375  16
  -8   0   3 -1.3410 1.19216  12
   8   0  -3 2.57777 1.48408   3
  -6   0   3 8.32981 1.39003  16
   6   0  -3 7.80031 2.14382  14
  -4   0   3 0.20661 0.56677  16
   4   0  -3 2.40796 0.75765  10
   4   0  -3 1.53065 0.44976   9
  -4   0   3 1.22847 0.17459  15
   4   0  -3 0.31376 0.84397  14
  -4   0   3 0.62240 0.60884   1
   4   0  -3 3.53298 0.90602   3
   4   0  -3 0.63896 0.48240   8
  -4   0   3 2.94166 0.48411   5
  -4   0   3 0.05260 0.49076  12
   2   0  -3 3.05155 0.66439   3
   2   0  -3 0.93123 0.45989  14
  -2   0   3 1.31424 0.36742   1
  -2   0   3 2.20849 0.42848  15
  -2   0   3 0.85610 0.41479  16
   2   0  -3 1.05244 0.34962   2
   0   0   3 0.96755 0.36372   4
   0   0   3 0.54683 0.25410   1
   0   0   3 0.26920 0.22956  16
   0   0  -3 0.06697 0.37378  15
   0   0   3 1.24417 0.65388  15
   0   0   3 0.34483 0.42470  13
   0   0  -3 0.23628 0.30159   5
   0   0  -3 0.48784 0.33257   2
   2   0   3 0.43862 0.59493   7
  -2   0  -3 0.60163 0.47531  12
   2   0   3 1.09295 0.66214  13
  -2   0  -3 0.81376 0.49340   2
  -2   0  -3 1.93143 0.63334   5
  -2   0  -3 0.02789 0.78481  15
   2   0   3 0.53699 0.46233   4
  -4   0  -3 1.47727 0.89651  11
  -4   0  -3 -0.3325 1.12907  15
  -4   0  -3 0.59691 0.81237   5
   4   0   3 1.66509 1.13083   7
  -4   0  -3 0.58741 0.82292  12
   4   0   3 0.58128 1.09716   4
   6   0   3 2.67900 1.26999   4
   6   0   3 0.02282 1.43766   7
  -6   0  -3 0.57587 1.46920   5
  -6   0  -3 1.73802 1.26316  15
  -6   0  -3 0.32642 1.15701  12
  -6   0  -3 2.72031 1.26765  11
  -8   0  -3 1.73160 2.05665   5
  -8   0  -3 1.06492 1.59034  12
   8   0   3 1.34323 1.94827   4
 -11  -1   3 1.35661 1.37241  16
  11  -1  -3 0.39430 3.24826  14
 -11  -1   3 4.07502 2.30900  12
 -11  -1   3 0.26855 2.03996   1
  11  -1  -3 -0.0450 1.69709   3
  11   1  -3 2.03975 2.57338  14
 -11   1   3 3.10819 2.27574   1
 -11   1   3 3.16941 2.33359  12
 -11   1   3 -0.4676 1.88697  16
  11   1  -3 0.50623 1.39555   3
  -9  -1   3 273.392 10.0587   1
   9  -1  -3 273.772 10.4504   3
  -9  -1   3 278.505 10.3072  16
   9  -1  -3 294.703 15.3487  14
  -9  -1   3 294.162 9.40836   5
   9  -1  -3 279.198 10.7295   8
  -9  -1   3 288.741 10.1687  12
   9   1  -3 286.616 10.8268   3
   9   1  -3 304.746 15.1451  14
  -9   1   3 286.598 10.0031  12
  -9   1   3 282.875 9.40059   5
   9   1  -3 292.303 10.7242   7
  -9   1   3 286.083 10.3782  16
   7  -1  -3 571.282 16.8153   8
   7  -1  -3 593.673 16.6860   3
  -7  -1   3 591.522 15.0922   5
  -7  -1   3 613.789 15.9218  12
   7  -1  -3 630.531 21.1816  14
  -7  -1   3 607.842 16.1887  16
  -7  -1   3 598.375 16.0770   1
  -7   1   3 597.307 15.2530   5
  -7   1   3 607.658 15.8652  12
  -7   1   3 606.576 16.3330  16
   7   1  -3 622.290 16.8069   7
   7   1  -3 574.190 15.5211  10
   7   1  -3 607.227 20.4616  14
   5  -1  -3 149.329 7.32501  14
  -5  -1   3 142.925 4.70487  12
   5  -1  -3 138.872 4.46086   9
  -5  -1   3 146.951 4.99024  16
  -5  -1   3 140.493 4.90089   1
   5  -1  -3 140.859 5.49024   8
  -5  -1   3 135.984 4.12524   5
   5  -1  -3 138.818 5.41143   3
  -5   1   3 151.496 5.06481  16
   5   1  -3 148.007 5.19731  10
   5   1  -3 136.949 3.79364   2
  -5   1   3 139.512 4.64589  12
  -5   1   3 143.442 4.36820   5
   5   1  -3 145.953 6.90085  14
  -5   1   3 145.373 4.48835  15
   5   1  -3 135.845 3.85468   9
   5   1  -3 145.440 5.40433   7
   3  -1  -3 40.3460 2.21257   8
   3  -1  -3 39.6502 2.80415  14
   3  -1  -3 38.0645 2.22890   3
  -3  -1   3 37.6279 1.83316  16
   3  -1  -3 37.4482 1.68713   6
  -3  -1   3 36.3130 1.82420   1
   3  -1  -3 41.7804 1.87335   9
  -3  -1   3 39.2090 1.59380  12
   3   1  -3 38.9369 2.37452  14
  -3   1   3 38.4512 1.56445  12
  -3   1   3 39.2006 1.82055  16
   3   1  -3 38.1522 2.18150  10
   3   1  -3 38.2889 1.66424   2
   1  -1  -3 201.236 4.99386   5
  -1  -1   3 208.157 5.62473  13
  -1  -1   3 205.780 5.97837  15
  -1  -1   3 203.819 5.32395  16
   1  -1  -3 221.753 6.86820  14
  -1  -1   3 205.486 5.24601   4
   1  -1  -3 207.930 5.11258   6
   1  -1  -3 209.878 5.72406   3
  -1  -1   3 208.303 5.30091   1
   1  -1  -3 201.522 5.24279  11
  -1   1   3 209.603 5.38468   4
   1   1  -3 209.022 5.90908  15
  -1   1   3 197.705 5.82062  15
   1   1  -3 203.597 5.29291  11
   1   1  -3 206.248 5.70110   2
  -1   1   3 221.236 4.96344  16
  -1   1   3 208.973 5.46103  13
   1   1  -3 216.499 5.80500  10
   1   1  -3 203.135 5.49750   3
  -1  -1  -3 400.530 10.1474  11
   1  -1   3 404.366 10.0148   4
  -1  -1  -3 414.181 9.55350  12
  -1  -1  -3 431.864 10.2173   5
  -1  -1  -3 407.155 11.3049  15
   1  -1   3 401.277 10.0043   7
   1  -1   3 411.633 10.4043  13
   1   1   3 420.756 10.7178   7
  -1   1  -3 405.135 10.2078   5
  -1   1  -3 416.307 10.3892  11
  -1   1  -3 414.949 10.3088   2
  -1   1  -3 428.220 11.7868  15
   1   1   3 410.190 10.1250   4
   1   1   3 416.101 10.0835  13
  -3  -1  -3 1160.80 27.0104  11
   3  -1   3 1172.48 27.5578   8
  -3  -1  -3 1152.35 28.9719  15
   3  -1   3 1149.54 26.8695   7
   3  -1   3 1199.46 27.5238  13
  -3  -1  -3 1149.63 26.5918  12
  -3  -1  -3 1155.20 27.3174   5
   3  -1   3 1160.12 26.9614   4
  -3   1  -3 1184.27 27.5392   5
  -3   1  -3 1207.90 29.6409  15
   3   1   3 1131.35 26.9200  10
   3   1   3 1186.95 27.1422  13
  -3   1  -3 1163.36 26.5617   2
  -3   1  -3 1190.33 27.2656  11
   3   1   3 1147.39 27.5389   7
   3   1   3 1184.22 27.0586   4
   5  -1   3 155.551 5.76048   4
  -5  -1  -3 153.395 6.36142   5
  -5  -1  -3 150.265 7.37494  15
   5  -1   3 153.475 5.72043   7
  -5  -1  -3 146.809 5.56450  11
  -5  -1  -3 147.463 5.64548  12
  -5   1  -3 160.121 6.45270   5
  -5   1  -3 156.950 5.92834  11
   5   1   3 152.417 5.96569   4
  -5   1  -3 152.801 7.85302  15
  -5   1  -3 148.891 5.80130  12
   5   1   3 149.559 6.24493   7
  -7  -1  -3 1.52020 1.73718   5
   7  -1   3 -0.7148 1.60992   4
  -7  -1  -3 2.60592 1.32606  11
   7   1   3 4.44551 2.19381   7
  -7   1  -3 1.38583 1.29851  11
  -7   1  -3 2.53647 1.82976   5
   7   1   3 2.98522 1.84404   4
  -7   1  -3 1.20312 1.44978  12
  -9  -1  -3 17.9574 3.07638  12
  -9  -1  -3 32.2146 4.48336   5
   9  -1   3 24.1600 5.67328  14
  -9   1  -3 23.7805 3.56288   5
  -9   1  -3 21.5832 3.30922  12
 -12  -2   3 143.457 8.11699  12
  12  -2  -3 155.525 13.0645  14
 -12  -2   3 134.566 7.43318   1
 -12   2   3 136.721 8.10991   1
 -12   2   3 140.175 7.69088  12
  12   2  -3 141.405 12.1378  14
  10  -2  -3 352.531 18.2635  14
  10  -2  -3 325.604 12.1802   3
 -10  -2   3 326.563 11.8919   5
 -10  -2   3 325.491 11.6383   1
 -10  -2   3 329.605 11.8674  12
 -10  -2   3 319.974 11.7974  16
 -10   2   3 339.772 11.2763   5
 -10   2   3 350.705 12.0944  12
  10   2  -3 341.357 12.5041   7
  10   2  -3 325.706 12.4563   3
 -10   2   3 329.080 12.2459  16
  10   2  -3 328.879 16.9126  14
  -8  -2   3 607.396 16.7460  12
  -8  -2   3 594.080 16.8877  16
   8  -2  -3 589.199 18.0422   8
   8  -2  -3 605.962 17.6015   3
  -8  -2   3 608.272 16.9110   1
   8  -2  -3 620.578 22.9372  14
  -8  -2   3 612.437 15.9088   5
   8   2  -3 618.882 21.7553  14
   8   2  -3 618.471 17.6781   7
  -8   2   3 607.971 16.7178  12
  -8   2   3 619.929 16.2231   5
  -8   2   3 606.701 17.1286  16
   8   2  -3 576.534 16.2362  10
  -6  -2   3 323.940 9.39777   1
  -6  -2   3 308.471 9.37185  16
  -6  -2   3 303.099 8.47584   5
   6  -2  -3 320.628 8.96191   9
   6  -2  -3 319.213 13.3311  14
   6  -2  -3 315.531 10.5291   8
   6  -2  -3 328.412 10.2405   3
  -6  -2   3 324.063 9.25232  12
   6   2  -3 305.894 9.61942  10
  -6   2   3 331.837 8.96313   5
   6   2  -3 322.704 10.1877   7
   6   2  -3 330.363 12.4852  14
  -6   2   3 326.975 9.46250  15
  -6   2   3 321.041 9.19739  12
  -4  -2   3 1640.27 35.7252  16
   4  -2  -3 1575.69 36.6592   3
   4  -2  -3 1611.31 35.6476   9
   4  -2  -3 1567.25 36.7914   8
   4  -2  -3 1613.80 39.2053  14
  -4  -2   3 1617.99 35.6315   1
  -4  -2   3 1625.23 35.3459  12
  -4  -2   3 1603.15 34.6693   5
   4  -2  -3 1525.78 35.4005   6
   4   2  -3 1510.57 36.0353   7
  -4   2   3 1649.32 35.7867  15
   4   2  -3 1629.77 36.5189  10
   4   2  -3 1595.53 35.2098   2
   4   2  -3 1578.55 34.5592   9
   4   2  -3 1544.12 37.5043  14
   4   2  -3 1465.03 35.9311  15
  -2  -2   3 3452.12 81.9559  15
   2  -2  -3 3460.75 81.5632   9
  -2  -2   3 3645.14 78.5217   1
  -2  -2   3 3525.11 79.6485  13
  -2  -2   3 3571.05 80.7493  16
  -2  -2   3 3513.21 78.5208  12
   2  -2  -3 3473.67 77.8507   6
   2  -2  -3 3513.25 85.7072  14
   2  -2  -3 3394.12 80.6276   3
   2  -2  -3 3589.17 80.7527   8
   2   2  -3 3428.56 78.1558   2
   2   2  -3 3383.04 78.5489  10
   2   2  -3 3449.57 78.6664  11
   2   2  -3 3518.89 80.7469  15
   0  -2  -3 793.500 16.7538  12
   0  -2  -3 761.654 17.6087   9
   0  -2   3 748.876 17.0012   4
   0  -2   3 746.138 17.5782  13
   0  -2   3 747.138 17.2163   1
   0  -2   3 752.880 17.2833  16
   0  -2  -3 743.615 17.1923   5
   0  -2  -3 736.973 17.2860  11
   0   2  -3 760.063 18.8997  15
   0   2  -3 759.683 17.8839   2
   0   2   3 746.729 17.2171   4
   0   2   3 770.294 18.1288   7
   0   2  -3 751.935 17.3567  10
   0   2   3 739.166 16.9624  13
   0   2  -3 743.198 17.6445  11
  -2  -2  -3 928.189 21.9545  11
   2  -2   3 987.018 22.5612  13
  -2  -2  -3 922.492 21.4282  12
   2  -2   3 945.397 21.7871   4
  -2  -2  -3 903.783 20.8068  16
  -2  -2  -3 944.457 22.1556   5
   2  -2   3 929.363 21.3976   7
  -2   2  -3 961.242 22.0597   2
   2   2   3 980.757 21.9941   4
  -2   2  -3 941.051 22.3411   5
   2   2   3 930.797 22.7762   7
  -2   2  -3 977.041 24.4397  15
   2   2   3 933.962 21.6543  13
  -2   2  -3 979.021 22.5508  11
   4  -2   3 772.151 18.6905   7
  -4  -2  -3 792.625 19.1896  11
  -4  -2  -3 773.843 18.9620  12
   4  -2   3 802.701 19.2096   4
   4  -2   3 803.730 20.4333   8
   4  -2   3 813.807 20.0309  13
  -4  -2  -3 792.273 19.7768   5
  -4   2  -3 800.838 22.3282  15
   4   2   3 798.957 19.3177   4
   4   2   3 731.786 19.2045  10
   4   2   3 786.822 20.1594   7
  -4   2  -3 686.691 18.8589   2
  -4   2  -3 793.158 19.9944   5
  -4   2  -3 808.867 19.6663  11
   6  -2   3 276.747 9.07552   4
  -6  -2  -3 279.835 8.93088  11
  -6  -2  -3 279.766 9.30569  12
  -6  -2  -3 271.301 9.74972   5
   6   2   3 275.263 9.81849   7
  -6   2  -3 268.808 9.24190  12
  -6   2  -3 278.444 11.9382  15
  -6   2  -3 271.867 9.19937  11
   6   2   3 292.319 9.44811   4
  -6   2  -3 269.419 9.87269   5
  -8  -2  -3 368.945 13.4380   5
   8  -2   3 365.828 17.6595  14
  -8  -2  -3 349.477 12.3277  12
   8  -2   3 383.542 12.0108   4
   8   2   3 360.893 11.9595   4
  -8   2  -3 362.806 12.5316  12
  -8   2  -3 373.674 13.3694   5
   8   2   3 368.561 12.9070   7
 -11  -3   3 3.39478 2.29301  12
 -11  -3   3 3.28122 1.64124   1
 -11  -3   3 2.65074 2.09075  16
 -11   3   3 2.29540 1.87006   5
  11   3  -3 2.63284 2.16932   3
  11   3  -3 2.75894 2.69535  14
 -11   3   3 7.48943 2.34090  12
   9  -3  -3 15.2647 4.11350  14
  -9  -3   3 17.2643 2.79778  12
  -9  -3   3 9.72043 1.81026   5
   9  -3  -3 12.6244 2.52499   3
  -9  -3   3 16.7467 2.70931  16
   9  -3  -3 12.9087 2.63004   8
  -9  -3   3 18.1727 2.78990   1
  -9   3   3 13.4636 2.35172  16
  -9   3   3 16.2497 2.54193  12
  -9   3   3 15.6805 2.52829   5
   9   3  -3 27.7348 5.11102  14
   9   3  -3 16.3008 3.32089   7
   7  -3  -3 121.767 4.82446   9
  -7  -3   3 110.110 5.16660  16
   7  -3  -3 114.871 6.12528   8
  -7  -3   3 120.180 5.12766   1
   7  -3  -3 114.623 8.18466  14
   7  -3  -3 120.628 5.87102   3
  -7  -3   3 118.227 5.17023  12
  -7  -3   3 110.047 4.39253   5
  -7   3   3 110.236 4.89207  12
   7   3  -3 113.018 5.45314  10
  -7   3   3 121.643 4.99657   5
   7   3  -3 115.697 5.89535   7
  -5  -3   3 121.583 3.80608   5
   5  -3  -3 111.150 5.01268   3
   5  -3  -3 112.274 4.28765   6
  -5  -3   3 121.716 4.52682  16
   5  -3  -3 118.797 4.49450   9
   5  -3  -3 113.990 7.00756  14
  -5  -3   3 114.010 4.43845   1
   5  -3  -3 115.777 5.46199   8
  -5  -3   3 112.925 4.27865  12
   5   3  -3 116.353 4.04538   2
  -5   3   3 117.562 4.89015  15
   5   3  -3 116.863 5.02233   7
   5   3  -3 115.084 5.09210  10
  -3  -3   3 1488.44 32.2183  12
   3  -3  -3 1420.05 35.6079  14
   3  -3  -3 1434.73 33.6194   3
   3  -3  -3 1475.53 32.4509   6
   3  -3  -3 1421.82 32.7510   9
  -3  -3   3 1470.51 32.4863   1
   3  -3  -3 1437.42 33.6770   8
  -3  -3   3 1509.32 32.6418  16
  -3  -3   3 1452.37 32.3989  13
   3   3  -3 1462.01 32.9453   2
   3   3  -3 1390.37 32.4298  15
   3   3  -3 1473.26 33.5915  10
   3   3  -3 1411.16 32.8734  14
   3   3  -3 1433.43 32.6505   7
   3   3  -3 1379.05 31.7715  11
   1  -3  -3 249.510 7.27655   3
   1  -3  -3 241.015 6.49889   6
  -1  -3   3 245.072 6.56922   1
   1  -3  -3 251.157 8.65084  14
  -1  -3   3 244.997 5.95639   4
  -1  -3   3 246.037 6.68382  13
   1  -3  -3 250.617 6.89746   9
   1  -3  -3 232.850 6.82732   8
  -1  -3   3 244.184 6.62292  16
   1   3  -3 246.312 7.76997  15
  -1   3   3 248.775 6.31831   4
   1   3  -3 251.615 7.11659  10
   1   3  -3 244.107 7.29042   2
  -1   3   3 250.585 6.19970  13
   1   3  -3 237.334 6.72862  11
  -1  -3  -3 394.687 10.2644   5
   1  -3   3 414.822 9.85438   4
  -1  -3  -3 406.186 10.3010   9
  -1  -3  -3 401.285 9.68894  12
   1  -3   3 408.983 10.6348  13
   1  -3   3 402.067 10.2144   1
   1   3   3 391.167 9.49102  13
   1   3   3 414.767 11.2057   7
  -1   3  -3 392.186 9.69424  10
  -1   3  -3 410.802 12.5233  15
  -1   3  -3 414.514 10.8862  11
   1   3   3 394.872 10.0519   4
  -1   3  -3 404.760 10.7804   2
  -3  -3  -3 7.40695 1.23945   5
  -3  -3  -3 7.06524 1.21887  11
   3  -3   3 5.56195 1.53817   8
   3  -3   3 4.68282 1.09342   4
  -3  -3  -3 6.99856 1.02603   9
  -3  -3  -3 5.08553 0.97916  12
   3  -3   3 5.27804 1.37253  13
   3   3   3 5.79552 1.58287   7
   3   3   3 5.15283 1.22822   4
  -3   3  -3 4.83401 1.08788   2
  -3   3  -3 5.32312 1.75646  15
  -3   3  -3 6.36277 1.36683  11
  -3   3  -3 5.24263 1.48068   5
   3   3   3 12.9226 1.76012  10
   5  -3   3 8.52531 1.99407   8
  -5  -3  -3 10.7378 1.73673  12
   5  -3   3 8.30686 1.67507   4
  -5  -3  -3 9.01733 1.72725   5
  -5  -3  -3 8.26673 1.42799  11
   5   3   3 8.54133 1.67677  10
   5   3   3 7.13809 1.74233   4
   5   3   3 9.33015 2.26090   7
  -5   3  -3 11.4665 2.85610  15
  -5   3  -3 7.84750 1.57939  11
  -5   3  -3 7.31373 1.66378   5
   7  -3   3 11.8849 3.23836  14
  -7  -3  -3 19.2659 2.87110   5
   7  -3   3 18.5881 2.44897   4
  -7  -3  -3 18.7018 2.73868  12
  -7   3  -3 13.8342 2.95586   5
  -7   3  -3 14.8039 2.38399  11
   7   3   3 16.8785 2.78147   4
  -7   3  -3 14.4079 2.33962  12
   7   3   3 20.7954 3.63203   7
   9  -3   3 102.694 9.39233  14
  -9  -3  -3 104.916 6.82626   5
   9   3   3 109.022 7.11369   7
  -9   3  -3 110.305 6.43841  12
  -9   3  -3 101.140 6.72949   5
 -10  -4   3 124.256 6.82409  12
 -10  -4   3 111.408 6.08662   1
  10  -4  -3 134.776 8.31596   8
  10  -4  -3 123.216 6.97743   3
  10  -4  -3 127.174 11.2714  14
  10   4  -3 117.646 7.44864   7
 -10   4   3 116.013 6.17634   5
 -10   4   3 126.462 7.06273  16
 -10   4   3 124.283 6.87799  12
  10   4  -3 132.647 10.3863  14
  -8  -4   3 9.64488 2.17914  12
   8  -4  -3 8.81238 3.47842  14
  -8  -4   3 5.76979 1.72298  16
  -8  -4   3 8.86807 2.01921   1
   8  -4  -3 5.98631 1.99196   3
   8  -4  -3 5.13268 2.23324   8
  -8  -4   3 7.08525 1.50947   5
   8   4  -3 6.27802 2.16357  10
   8   4  -3 12.6289 2.73421   7
  -8   4   3 4.60287 1.84988  12
  -8   4   3 7.25581 1.91181   5
   6  -4  -3 513.354 15.7332   8
  -6  -4   3 490.760 13.5555   1
   6  -4  -3 509.660 14.8911   3
  -6  -4   3 507.005 12.9373   5
   6  -4  -3 473.834 18.3317  14
  -6  -4   3 519.099 13.6352  12
   6  -4  -3 530.801 14.0040   9
  -6  -4   3 511.888 13.7677  16
   6  -4  -3 515.841 13.6714   6
   6   4  -3 509.774 14.5834   7
  -6   4   3 523.408 13.6324   5
  -6   4   3 502.319 12.7836  11
  -6   4   3 507.240 14.5986  15
   6   4  -3 489.241 12.8926   2
   6   4  -3 518.945 14.9328  10
   4  -4  -3 466.490 11.9104   6
  -4  -4   3 450.822 11.6120  12
  -4  -4   3 443.852 11.4993  13
  -4  -4   3 446.884 11.7474   1
   4  -4  -3 438.960 12.9285   3
   4  -4  -3 452.222 13.4073   8
  -4  -4   3 464.630 11.9534  16
   4  -4  -3 449.621 12.2157   9
   4  -4  -3 452.445 15.4949  14
   4   4  -3 468.930 13.1762  10
  -4   4   3 454.603 12.7697  15
   4   4  -3 467.701 12.2940   7
   4   4  -3 457.957 11.7685  15
   4   4  -3 454.337 12.1740   2
   2  -4  -3 377.624 9.79075   6
  -2  -4   3 384.882 9.55035  12
  -2  -4   3 384.857 9.66170  13
  -2  -4   3 390.648 9.90790  16
  -2  -4   3 378.440 9.76787   1
   2  -4  -3 369.850 10.1268   9
   2  -4  -3 370.332 10.6396   8
   2  -4  -3 372.496 12.3358  14
   2  -4  -3 393.297 10.9052   3
   2   4  -3 376.145 9.44190   7
   2   4  -3 381.741 10.6225   2
   2   4  -3 394.078 10.8600  10
   2   4  -3 378.905 10.7232  15
   2   4  -3 361.211 9.65289  11
   0  -4   3 1789.71 39.7320  16
   0  -4   3 1773.25 38.7274   6
   0  -4  -3 1806.95 39.9060   9
   0  -4   3 1802.03 38.7019   4
   0  -4  -3 1768.94 38.9788  12
   0  -4  -3 1775.19 39.6219   5
   0  -4   3 1801.35 39.8171  13
   0  -4  -3 1780.70 39.7256   6
   0  -4  -3 1752.39 39.4891   8
   0  -4   3 1775.40 39.6125   1
   0   4  -3 1763.10 40.1300  11
   0   4  -3 1779.27 39.8238  10
   0   4  -3 1779.46 41.8814  15
   0   4   3 1779.98 39.1771   4
   0   4   3 1715.19 40.5132   7
   0   4  -3 1772.81 40.6166   2
  -2  -4  -3 86.9273 3.37442   9
   2  -4   3 77.4515 4.20812  14
  -2  -4  -3 85.3659 3.21563  12
  -2  -4  -3 84.0813 3.62590   5
   2  -4   3 83.0536 3.08686   4
  -2   4  -3 83.5991 3.89720   5
  -2   4  -3 84.9470 3.78607   2
   2   4   3 84.8865 3.40472   4
   2   4   3 86.6101 4.38752   7
   2   4   3 86.6573 4.36087  10
  -2   4  -3 88.0806 4.33004  11
  -2   4  -3 94.0978 5.70877  15
   4  -4   3 28.4592 3.22853   8
  -4  -4  -3 30.2984 2.27446  12
  -4  -4  -3 35.0813 2.66410   5
   4  -4   3 30.4211 2.96299  13
   4  -4   3 30.7143 2.18368   4
   4  -4   3 30.5392 3.50457  14
  -4   4  -3 30.0989 3.02554  11
  -4   4  -3 29.0366 2.13286   2
   4   4   3 32.5533 3.42145   7
   4   4   3 37.3178 3.07143  10
   4   4   3 27.3094 2.21527   4
  -4   4  -3 33.7797 3.18761   5
  -4   4  -3 28.8763 3.74981  15
  -6  -4  -3 542.834 15.2795  12
   6  -4   3 539.495 16.9481   8
   6  -4   3 542.152 19.7000  14
   6  -4   3 542.165 14.8558   4
  -6  -4  -3 551.338 16.1947   5
   6   4   3 542.605 16.6887   7
   6   4   3 546.364 15.3115   4
  -6   4  -3 520.984 16.0256   5
  -6   4  -3 537.809 15.4057  11
   8  -4   3 123.864 9.65012  14
  -8  -4  -3 114.133 6.28482  12
  -8  -4  -3 109.136 6.84564   5
   8   4   3 126.263 6.15052   4
  -8   4  -3 120.130 5.96627  11
  -8   4  -3 118.047 6.24398  12
   8   4   3 119.324 6.98531   7
  -8   4  -3 122.951 6.85208   5
  11  -5  -3 325.624 18.7011  14
 -11  -5   3 322.302 12.3308  12
  11   5  -3 310.459 12.8612   7
 -11   5   3 295.381 11.6839  12
  11   5  -3 315.853 16.6325  14
 -11   5   3 288.827 10.9186   5
  -9  -5   3 0.26358 1.25685  16
   9  -5  -3 -1.2488 1.28553   8
  -9  -5   3 -0.4317 1.63274  12
   9  -5  -3 0.61054 2.69554  14
  -9  -5   3 1.34352 1.01665   5
  -9  -5   3 0.53018 1.08652   1
   9  -5  -3 1.17096 1.57549   3
   9   5  -3 1.73357 2.66766  14
   9   5  -3 1.55992 1.88944  10
  -9   5   3 2.06572 1.99440  12
  -9   5   3 0.64056 1.21177   5
   9   5  -3 0.41069 2.20254   7
  -7  -5   3 37.1918 3.06545   1
   7  -5  -3 33.0991 4.12100   8
   7  -5  -3 35.4860 3.46174   3
  -7  -5   3 41.3244 3.13782  13
  -7  -5   3 33.9591 3.06672  12
   7  -5  -3 38.8240 5.53955  14
  -7  -5   3 36.9271 2.58233   5
  -7  -5   3 33.4680 2.71899  16
  -7   5   3 35.2663 2.41096  11
   7   5  -3 38.9470 3.93255   7
   7   5  -3 35.9559 3.54117  10
  -7   5   3 35.3185 3.18285   5
  -7   5   3 30.3573 3.52460  15
  -5  -5   3 476.940 12.7921  13
   5  -5  -3 525.339 13.6906   6
  -5  -5   3 510.118 13.4483  12
   5  -5  -3 492.513 18.1419  14
  -5  -5   3 512.588 13.5244  16
  -5  -5   3 506.127 13.4321   1
   5  -5  -3 515.580 15.7424   8
   5  -5  -3 507.797 14.8343   3
   5  -5  -3 503.634 14.0634   9
   5   5  -3 511.029 15.1584  10
  -5   5   3 517.648 15.0519  15
   5   5  -3 515.189 14.1700   7
   5   5  -3 496.493 13.6343   2
   3  -5  -3 121.321 5.57850   8
  -3  -5   3 137.448 4.73495   1
  -3  -5   3 132.004 4.75926  16
   3  -5  -3 132.863 5.66120   3
  -3  -5   3 126.656 4.46077  12
   3  -5  -3 126.824 5.03480   9
   3  -5  -3 130.716 4.64929   6
  -3  -5   3 124.845 4.23379  13
   3  -5  -3 125.062 6.83575  14
   3   5  -3 139.921 4.75340   7
   3   5  -3 139.274 5.56665   2
   3   5  -3 126.647 5.15271  15
   3   5  -3 131.168 5.65692  10
   1  -5  -3 787.125 19.7526   8
  -1  -5   3 802.230 18.9912  13
   1  -5  -3 795.291 19.2179   6
  -1  -5   3 790.352 19.1183   1
   1  -5  -3 797.036 19.5481   9
  -1  -5   3 811.800 19.2748  16
  -1  -5   3 816.977 18.3800   6
  -1   5   3 773.655 17.9136  13
   1   5  -3 815.018 20.3225   2
   1   5  -3 815.334 21.0559  15
   1   5  -3 839.767 20.1430  10
  -1   5   3 788.381 18.3800   4
  -1   5   3 820.427 19.9800   7
   1   5  -3 793.757 19.3956  11
   1  -5   3 380.445 10.6120  13
  -1  -5  -3 393.437 10.3870   9
  -1  -5  -3 373.354 10.4100   5
   1  -5   3 379.221 9.30117   4
   1  -5   3 382.291 10.3642   1
   1  -5   3 362.197 9.44102   6
  -1  -5  -3 375.335 9.78797  12
  -1   5  -3 383.100 10.9858  11
  -1   5  -3 402.509 9.97399  10
  -1   5  -3 370.983 12.5701  15
   1   5   3 389.332 9.81804   4
   1   5   3 398.573 12.1261  10
  -1   5  -3 382.093 11.2152   2
   1   5   3 403.936 11.5484   7
   3  -5   3 59.8976 4.47538   8
   3  -5   3 66.8230 3.70414  13
  -3  -5  -3 62.2050 3.42175   5
   3  -5   3 55.8838 4.07903  14
  -3  -5  -3 66.3614 3.16747  12
   3  -5   3 56.5080 2.77052   4
  -3   5  -3 63.2665 4.05227  11
  -3   5  -3 57.0732 3.49498   5
   3   5   3 58.4178 3.10672   4
   3   5   3 58.9825 4.18737  10
   3   5   3 70.8932 4.45362   7
  -3   5  -3 62.5852 3.32228   2
  -3   5  -3 59.3553 5.04332  15
   5  -5   3 181.941 9.49211  14
   5  -5   3 185.427 6.48617   4
  -5  -5  -3 193.107 7.01908  12
   5  -5   3 189.887 8.80121   8
  -5  -5  -3 187.080 7.62901   5
  -5   5  -3 186.302 9.24391  15
   5   5   3 192.305 6.96368   4
   5   5   3 194.957 8.62360   7
  -5   5  -3 193.876 7.59943  11
   5   5   3 187.915 7.92631  10
  -5   5  -3 187.441 7.79707   5
  -7  -5  -3 406.322 13.8624   5
  -7  -5  -3 394.683 12.7619  12
   7  -5   3 399.108 17.1676  14
   7  -5   3 413.822 14.7949   8
  -7   5  -3 394.911 13.5874   5
   7   5   3 399.689 12.5251   4
   7   5   3 425.982 14.7145   7
  -7   5  -3 388.249 12.7736  12
  -7   5  -3 384.015 12.5660  11
 -10  -6   3 39.8097 3.97653   1
  10  -6  -3 45.8885 6.06145   8
  10  -6  -3 44.1329 7.51904  14
 -10  -6   3 39.7411 4.41010  12
 -10   6   3 42.2299 3.71832   5
  10   6  -3 44.6325 5.33454  10
  10   6  -3 47.9197 5.51296   7
 -10   6   3 31.5431 3.90902  12
  10   6  -3 47.9209 6.67945  14
  -8  -6   3 68.0235 4.17029  16
   8  -6  -3 76.9283 6.46797   8
  -8  -6   3 69.0299 4.44488  12
  -8  -6   3 70.0046 4.40685   1
   8  -6  -3 86.0128 8.46787  14
   8  -6  -3 71.8013 5.15454   3
  -8  -6   3 71.4010 4.12390   5
  -8   6   3 75.0829 4.81828   5
   8   6  -3 71.2632 5.58972   7
   8   6  -3 71.1076 5.28796  10
   6  -6  -3 738.228 19.3996   9
  -6  -6   3 712.972 18.5877  16
   6  -6  -3 739.405 18.7989   6
   6  -6  -3 675.859 24.6471  14
   6  -6  -3 744.441 20.3779   3
  -6  -6   3 713.575 18.4493   1
   6  -6  -3 751.790 21.8132   8
  -6  -6   3 721.017 18.6933  12
  -6   6   3 706.320 18.0930  11
   6   6  -3 702.901 19.4046   7
   6   6  -3 686.674 18.4869   2
  -6   6   3 698.149 20.4109  15
   6   6  -3 718.185 20.4672  10
  -4  -6   3 63.4395 3.22220  12
  -4  -6   3 62.1930 2.71316  13
  -4  -6   3 65.0032 3.23116   1
   4  -6  -3 64.7052 3.48606   6
   4  -6  -3 66.9694 3.86835   9
  -4  -6   3 59.5695 3.31624  16
   4  -6  -3 60.7449 4.08702   3
   4  -6  -3 60.9311 5.47279  14
  -4   6   3 60.2942 4.29340  15
   4   6  -3 63.8991 3.55433   7
   4   6  -3 58.2525 3.56912  15
   2  -6  -3 34.0001 3.53969  14
  -2  -6   3 34.1851 1.98530  13
   2  -6  -3 33.6564 2.40278   6
  -2  -6   3 33.1164 1.89809   6
  -2  -6   3 35.2529 2.29005  16
  -2  -6   3 37.1446 2.33747  12
   2  -6  -3 35.5538 2.65878   9
  -2  -6   3 34.9447 2.22666   1
   2  -6  -3 30.2039 2.67038   8
   2  -6  -3 37.7640 3.09106   3
  -2   6   3 36.1181 2.55396   7
   2   6  -3 44.0257 3.45949  15
  -2   6   3 34.0525 1.71627   4
   2   6  -3 34.8902 3.35980   2
   2   6  -3 38.0478 3.44925  10
   2   6  -3 35.3349 2.01900   7
   0  -6   3 725.302 17.2221   6
   0  -6  -3 741.688 18.3849   9
   0  -6  -3 736.258 18.3258   6
   0  -6   3 736.731 18.1105   1
   0  -6   3 731.723 18.0207  13
   0  -6  -3 689.117 18.0564   8
   0   6   3 730.722 17.1021   4
   0   6  -3 734.686 18.6334  11
   0   6  -3 773.977 19.5325   2
   0   6   3 739.446 20.1981  10
   0   6  -3 729.286 20.6018  15
   0   6   3 759.118 19.2624   7
   0   6  -3 734.953 18.5074  10
  -2  -6  -3 345.434 9.40232   9
  -2  -6  -3 328.696 9.12798  12
  -2  -6  -3 336.220 9.94622   5
   2  -6   3 319.271 11.5799   8
   2  -6   3 312.354 8.72109   6
   2  -6   3 320.504 9.88366  13
   2   6   3 342.042 11.0235   7
   2   6   3 320.961 8.83602   4
  -2   6  -3 326.380 10.1931   2
   2   6   3 333.596 11.5305  10
  -2   6  -3 327.865 10.1792  11
  -2   6  -3 312.738 12.1302  15
   4  -6   3 79.1454 5.77187   8
   4  -6   3 71.6906 3.41323   4
  -4  -6  -3 74.4850 4.27908   5
  -4  -6  -3 75.2588 3.88896  12
  -4   6  -3 76.8100 4.08886   2
   4   6   3 83.0496 5.44759   7
  -4   6  -3 76.9965 4.79059  11
   4   6   3 86.3277 5.56338  10
   4   6   3 79.8968 3.93913   4
  -4   6  -3 79.8068 4.50316   5
  -4   6  -3 77.5397 6.12073  15
  -6  -6  -3 213.909 8.02862  12
   6  -6   3 213.095 10.1203   8
  -6  -6  -3 184.477 8.33541   5
   6   6   3 207.081 7.68941   4
  -6   6  -3 194.124 8.58280   5
   6   6   3 203.708 9.28295   7
   6   6   3 187.185 8.49304  10
  -6   6  -3 201.872 8.09436  11
  -8  -6  -3 1.79989 1.75655  12
  -8  -6  -3 3.93358 2.19249   5
   8   6   3 0.10343 2.67397   7
  -8   6  -3 7.30927 1.89358  11
  -8   6  -3 2.50668 1.60268  12
  -8   6  -3 -1.1705 2.03108   5
  -9  -7   3 120.061 6.62275  12
  -9  -7   3 93.5104 5.56700   1
   9  -7  -3 119.116 10.8104  14
   9  -7  -3 124.200 8.74016   8
  -9   7   3 117.510 6.33484   5
   9   7  -3 112.094 7.23968  10
   9   7  -3 113.775 7.47754   7
  -7  -7   3 1.76978 1.36976   1
  -7  -7   3 4.65890 1.75831  12
   7  -7  -3 2.24308 2.26495   8
  -7  -7   3 1.14863 1.21921  16
   7  -7  -3 1.82937 1.31097   6
   7  -7  -3 1.76070 2.31219  14
   7  -7  -3 3.46354 1.80970   3
   7   7  -3 3.85486 2.60025  10
  -7   7   3 2.63357 1.64844  11
   7   7  -3 0.10284 1.98860   7
  -7   7   3 1.91765 2.18537  15
   5  -7  -3 1.49700 1.08894   9
  -5  -7   3 0.45555 0.82173   1
   5  -7  -3 1.89755 1.36863   6
   5  -7  -3 0.94752 1.82817  14
   5  -7  -3 0.14384 1.61996   8
  -5  -7   3 0.23116 0.98515  16
   5  -7  -3 0.76869 1.28493   3
  -5  -7   3 1.91948 1.31353  12
  -5   7   3 4.67356 1.77903  15
   5   7  -3 -2.7739 1.93572  10
   5   7  -3 2.74819 1.84721   2
   5   7  -3 3.35458 1.69402   7
   3  -7  -3 728.602 19.3541   9
  -3  -7   3 734.032 18.4655  16
   3  -7  -3 756.961 18.7056   6
   3  -7  -3 753.810 20.4282   3
  -3  -7   3 749.501 18.4712  12
  -3  -7   3 741.345 18.4150   1
   3  -7  -3 708.871 22.9709  14
   3  -7  -3 710.706 20.5781   8
  -3  -7   3 715.827 17.8962   6
  -3   7   3 736.494 18.6482   7
   3   7  -3 751.528 20.2640  10
   3   7  -3 722.644 19.5954   2
   3   7  -3 709.046 19.9999  15
   3   7  -3 728.620 18.0849   7
   1  -7  -3 207.447 7.07010   6
   1  -7  -3 209.798 7.32605   9
  -1  -7   3 211.449 6.91872   1
  -1  -7   3 210.502 6.51071  13
  -1  -7   3 197.544 6.16297   6
  -1  -7   3 217.071 7.06400  16
   1  -7  -3 196.592 7.49753   8
   1   7  -3 206.752 7.62363  10
   1   7  -3 205.836 8.55332  15
   1   7  -3 206.905 7.23254  11
  -1   7   3 211.206 7.54191   7
   1   7  -3 210.132 8.22444   2
  -1   7   3 220.556 8.54910  10
   1  -7   3 0.34437 0.71944   6
   1  -7   3 -1.4674 1.31574   8
  -1  -7  -3 0.17553 1.07297   6
  -1  -7  -3 0.64228 0.79784  12
  -1  -7  -3 2.94160 1.06800   9
   1  -7   3 0.90811 0.74098  13
  -1   7  -3 0.33229 1.63867  11
   1   7   3 0.61164 1.52179  10
  -1   7  -3 2.82929 1.95004   2
  -1   7  -3 1.47022 1.11432  10
   1   7   3 0.73353 1.46424   7
  -1   7  -3 0.96393 1.44395  15
  -3  -7  -3 148.915 6.28785   5
  -3  -7  -3 142.068 5.51893  12
   3  -7   3 140.888 7.89585   8
   3  -7   3 126.791 4.90924   6
  -3   7  -3 143.280 6.16996   2
   3   7   3 157.010 7.42775   7
  -3   7  -3 133.306 8.10874  15
  -3   7  -3 135.131 6.56358  11
   3   7   3 142.057 7.29798  10
  -5  -7  -3 21.4005 2.83968   5
  -5  -7  -3 24.6655 2.80234  12
   5  -7   3 26.2502 4.21104   8
   5   7   3 26.6722 3.52306  10
  -5   7  -3 26.8800 3.24306   5
   5   7   3 23.4932 3.85465   7
  -5   7  -3 25.8936 3.42430  11
   7  -7   3 28.2404 4.60033   8
  -7  -7  -3 28.3210 3.86768   5
  -7  -7  -3 25.9342 3.28496  12
  -7   7  -3 29.2652 3.49690  11
  -7   7  -3 26.7838 3.91654   5
   7   7   3 19.2512 4.22137   7
  10  -8  -3 190.771 11.2629   8
 -10  -8   3 173.699 8.67045  12
  10  -8  -3 194.973 14.1062  14
 -10   8   3 174.388 8.15842  12
  10   8  -3 184.924 9.38185   7
  -8  -8   3 682.719 19.7983  12
   8  -8  -3 706.080 27.8197  14
   8  -8  -3 696.398 20.9078   3
  -8  -8   3 660.033 19.0651   1
   8  -8  -3 736.212 24.0667   8
  -8   8   3 702.334 19.9048   5
   8   8  -3 695.262 21.7301  10
   8   8  -3 727.441 21.3445   7
   6  -8  -3 328.623 12.3901   3
   6  -8  -3 352.583 14.0892   8
  -6  -8   3 331.948 10.7359  16
   6  -8  -3 309.009 15.8517  14
   6  -8  -3 362.640 11.2672   6
  -6  -8   3 334.580 11.0142  12
  -6  -8   3 353.556 10.7955   1
   6   8  -3 345.442 11.6729   7
  -6   8   3 333.614 13.3865  15
  -6   8   3 348.731 10.9265  11
   6   8  -3 377.714 13.8012  10
   6   8  -3 321.264 11.3953   2
   4  -8  -3 351.966 12.3095   3
   4  -8  -3 335.093 14.9800  14
  -4  -8   3 348.157 10.5131  16
   4  -8  -3 356.044 13.2370   8
   4  -8  -3 351.443 11.5834   9
  -4  -8   3 355.482 10.7092  12
   4  -8  -3 359.859 10.9330   6
  -4  -8   3 341.478 10.4360   1
  -4  -8   3 341.743 10.1988   6
   4   8  -3 357.379 11.9908   2
  -4   8   3 366.541 13.2645  15
  -4   8   3 353.559 11.3504  10
   4   8  -3 342.394 12.6002  10
   4   8  -3 328.843 11.8538  15
   4   8  -3 341.306 10.4895   7
  -2  -8   3 373.667 11.1883  16
   2  -8  -3 382.776 11.4287   6
   2  -8  -3 387.732 11.9989   9
   2  -8  -3 358.317 12.6317   8
  -2  -8   3 380.234 10.5652   6
  -2  -8   3 392.755 11.1492   1
  -2   8   3 385.308 12.7694  10
   2   8  -3 398.771 12.8043  10
   2   8  -3 381.323 13.3199  15
  -2   8   3 397.986 11.5982   7
   2   8  -3 394.167 12.7629   2
   0  -8   3 199.070 6.92796   1
   0  -8  -3 195.619 7.12959   6
   0  -8   3 189.623 6.17269   6
   0  -8   3 184.230 6.42705  13
   0  -8   3 194.879 8.88196   8
   0  -8  -3 187.731 7.02609   9
   0   8  -3 184.835 8.84369  15
   0   8   3 196.410 8.77322  10
   0   8   3 189.289 7.59420   7
   0   8  -3 189.217 7.41902  11
   0   8  -3 197.801 8.10002   2
   0   8  -3 198.302 7.52999  10
  -2  -8  -3 872.547 22.1431  12
   2  -8   3 896.509 23.0200  13
   2  -8   3 929.999 26.4436   8
   2  -8   3 915.669 22.3442   6
  -2  -8  -3 920.647 23.5087   6
   2   8   3 893.134 24.2394   7
  -2   8  -3 893.074 23.8293   2
  -2   8  -3 893.852 23.5877  11
   2   8   3 914.082 25.6543  10
  -2   8  -3 853.137 26.3130  15
   4  -8   3 801.907 24.5636   8
  -4  -8  -3 786.549 20.5867  12
  -4   8  -3 761.842 21.4418  11
   4   8   3 787.507 23.4026  10
  -4   8  -3 773.683 21.4785   5
   4   8   3 811.927 23.1481   7
  -6  -8  -3 56.3843 4.21300  12
  -6  -8  -3 49.0762 4.67542   5
   6  -8   3 53.7097 5.96226   8
   6   8   3 56.7296 6.08702   7
  -6   8  -3 54.5763 4.68832  11
  -6   8  -3 58.8976 5.08270   5
   6   8   3 52.0632 5.52649  10
   9  -9  -3 70.7617 8.65310  14
  -9  -9   3 75.4277 5.31231  12
   9  -9  -3 87.2393 8.07660   8
   9   9  -3 73.4346 6.14474  10
   9   9  -3 80.7863 6.60405   7
  -9   9   3 73.6559 5.57766   5
   7  -9  -3 52.5847 4.84257   3
   7  -9  -3 60.2051 6.50450   8
   7  -9  -3 44.4534 6.62407  14
   7  -9  -3 49.7874 3.96041   6
  -7  -9   3 49.9739 3.81775   1
  -7  -9   3 57.1684 4.48214  12
   7   9  -3 48.9483 4.37919   7
  -7   9   3 49.3075 4.32469  11
   7   9  -3 54.0655 5.97940  10
  -5  -9   3 11.4972 1.99867   1
   5  -9  -3 5.62311 2.73614   8
  -5  -9   3 10.0920 1.75911  16
  -5  -9   3 10.2504 1.98298   6
  -5  -9   3 11.0213 2.25057  12
   5  -9  -3 6.80068 2.03283   6
   5  -9  -3 8.30875 3.14092  14
  -5   9   3 11.3316 2.34367   2
   5   9  -3 10.6868 2.53303   2
   5   9  -3 6.48131 3.08663  10
  -3  -9   3 56.8628 3.70068  16
  -3  -9   3 52.6183 3.59234   1
   3  -9  -3 57.8921 4.00266   6
   3  -9  -3 51.8793 4.83701   8
  -3  -9   3 53.0782 3.29499   6
   3  -9  -3 55.8979 4.27234   9
   3   9  -3 59.4215 4.88107  15
  -3   9   3 57.4644 4.23791  10
  -3   9   3 56.5766 5.22696  15
   3   9  -3 56.3976 5.16629   2
   3   9  -3 58.0149 5.34202  10
  -1  -9   3 7.21798 1.42221   6
   1  -9  -3 6.59720 1.89558   9
  -1  -9   3 12.4935 2.83193   8
  -1  -9   3 8.75713 1.83748   1
   1  -9  -3 11.8058 1.97562   6
   1   9  -3 6.67422 1.74298  11
  -1   9   3 9.22892 2.30580  10
   1   9  -3 8.14374 2.49263  10
  -1   9   3 6.82009 1.82464   7
   1   9  -3 6.46752 2.71686   2
   1   9  -3 11.6179 2.66145  15
  -1  -9  -3 12.4636 2.30036   6
   1  -9   3 16.2829 3.52685   8
  -1  -9  -3 13.4353 2.12915   9
   1  -9   3 9.95057 1.87786  13
  -1   9  -3 9.26855 2.89523   2
  -1   9  -3 11.4349 3.45215  15
   1   9   3 25.9432 3.33322   7
   1   9   3 12.0971 3.06322  10
  -1   9  -3 9.76873 2.27925  11
   3  -9   3 166.568 9.58218   8
  -3  -9  -3 171.889 6.85267  12
  -3  -9  -3 166.519 7.52682   6
  -3   9  -3 173.999 7.74564  11
  -3   9  -3 167.013 7.61832   2
   3   9   3 167.745 8.89933  10
   3   9   3 165.040 8.11155   7
  -5  -9  -3 23.6080 2.88308  12
   5  -9   3 22.4928 3.98211   8
  -5   9  -3 21.0513 3.56428  11
  -5   9  -3 21.2046 3.43211   5
   5   9   3 26.7493 4.35587   7
   5   9   3 20.2531 3.54870  10
  -8 -10   3 54.0578 4.75822  12
   8 -10  -3 58.2337 7.02711   8
  -8  10   3 46.9307 4.75397   5
   8  10  -3 57.3529 6.42622  10
   8  10  -3 43.0738 4.86389   7
   6 -10  -3 91.8393 8.66894  14
   6 -10  -3 101.032 8.10768   8
  -6 -10   3 105.122 5.64293   6
   6 -10  -3 100.481 5.77195   6
  -6 -10   3 77.1209 5.75401   1
  -6 -10   3 110.325 6.03619  12
  -6  10   3 116.855 6.42249  11
   6  10  -3 94.5009 6.10419   2
   6  10  -3 110.772 8.32683  10
  -4 -10   3 0.90193 1.03546   1
  -4 -10   3 -0.4564 1.07946  16
   4 -10  -3 0.74729 1.98038   8
  -4 -10   3 1.94108 1.29235   6
   4 -10  -3 0.62859 1.17924   6
  -4 -10   3 2.13908 1.65927  12
   4  10  -3 2.13110 2.62523   2
   4  10  -3 2.23245 2.84257  10
  -4  10   3 0.45820 1.87023   2
  -2 -10   3 46.9873 4.77971   8
   2 -10  -3 48.3623 4.21168   9
   2 -10  -3 44.8536 4.48571   8
   2 -10  -3 44.8306 3.87157   6
  -2 -10   3 46.6440 3.37259   1
  -2 -10   3 40.9416 3.07563   6
  -2  10   3 47.8803 4.27155  10
   2  10  -3 44.5723 4.85791  15
   2  10  -3 50.4080 5.49621   2
   2  10  -3 47.5367 5.03111  10
   2  10  -3 46.2968 3.95920  11
   0 -10   3 25.6743 3.95865   8
   0 -10  -3 22.4340 2.79141   9
   0 -10  -3 23.7751 3.08689   6
   0  10  -3 21.4109 3.90799   2
   0  10  -3 29.6203 3.71283  11
   0  10   3 41.0020 4.72242  10
   0  10  -3 29.5585 3.62417  10
   0  10   3 36.9738 3.63079   7
  -2 -10  -3 113.509 6.09161   6
   2 -10   3 100.935 7.38118   8
  -2  10  -3 111.544 6.71521  11
   2  10   3 108.427 6.69683   7
  -2  10  -3 118.971 6.70921   2
   2  10   3 104.908 7.25883  10
  -4 -10  -3 28.2702 3.06669  12
   4 -10   3 30.4968 4.76161   8
  -4 -10  -3 29.9295 3.86869   6
  -4  10  -3 34.6720 4.42753  11
   4  10   3 34.4007 4.32979   2
  -4  10  -3 24.1601 3.78501   5
   4  10   3 24.6609 4.60493  10
   4  10   3 34.2275 4.70159   7
   6 -10   3 1.96157 2.67748   8
  -6 -10  -3 6.25657 2.33328   6
   6  10   3 2.32613 3.10377   7
  -6  10  -3 0.80366 2.35402   5
   6  10   3 1.57221 2.68409  10
  -6  10  -3 2.28317 1.75267  11
   7 -11  -3 114.499 6.54028   6
  -7 -11   3 104.538 6.41338  12
   7 -11  -3 121.699 9.40322   8
  -7 -11   3 104.796 5.92643   6
   7  11  -3 111.060 8.64630  10
   5 -11  -3 117.398 6.42398   6
  -5 -11   3 108.727 5.80322   6
   5 -11  -3 119.698 8.88165   8
  -5  11   3 119.314 6.77270   2
   5  11  -3 112.373 7.58671   2
   5  11  -3 114.128 7.90473  10
   3 -11  -3 89.2311 5.57443   6
   3 -11  -3 95.0628 7.21926   8
  -3 -11   3 110.911 5.40731   1
   3  11  -3 103.440 6.89918   2
  -3  11   3 99.5603 6.47718   2
   3  11  -3 95.8874 5.61984  11
   3  11  -3 106.352 7.00931  10
   1 -11  -3 89.7798 5.33071   6
  -1 -11   3 97.9805 7.20346   8
   1  11  -3 95.0133 7.01526   2
   1  11  -3 85.0163 5.76349  11
  -1  11   3 94.9866 6.97536  10
   1  11  -3 93.6585 5.96439  10
  -1  11   3 95.4424 6.48193   2
  -1 -11  -3 148.476 7.35789   6
   1 -11   3 144.997 9.26376   8
  -1  11  -3 137.713 8.28617   2
  -1  11  -3 144.276 7.39389  11
   1  11   3 130.222 7.95776   2
   1  11   3 152.117 9.17415  10
   3 -11   3 142.559 9.61063   8
  -3 -11  -3 130.265 7.32435   6
   3  11   3 130.240 9.03981  10
  -3  11  -3 129.657 7.67736  11
   3  11   3 130.865 7.87257   2
   3  11   3 124.975 7.70515   7
   5 -11   3 60.9208 6.94973   8
  -5 -11  -3 77.6196 5.68128   6
   5  11   3 67.3813 7.26228  10
   5  11   3 62.1661 6.38516   7
  -5  11  -3 64.2112 5.68099  11
  -5  11  -3 71.0127 5.87691   5
   6 -12  -3 36.0321 5.95189   8
   6 -12  -3 28.1354 3.75935   6
   6  12  -3 31.7041 4.84432  10
   6  12  -3 30.0941 4.65127   2
  -6  12   3 37.6247 4.68493  11
   4 -12  -3 255.263 10.1989   6
   4 -12  -3 268.256 13.2755   8
   4  12  -3 282.637 12.7146  10
   4  12  -3 255.963 11.9884   2
  -4  12   3 256.377 10.7092   2
   2 -12  -3 443.244 14.6406   6
   2  12  -3 452.456 16.3637   2
  -2  12   3 466.044 15.9722  10
   2  12  -3 459.219 16.1765  10
  -2  12   3 456.179 16.0361   2
   0 -12   3 147.503 9.51909   8
   0 -12  -3 159.494 7.56087   6
   0  12   3 155.598 8.80892   2
   0  12   3 149.476 9.27386  10
   0  12  -3 152.194 8.07146  11
   0  12  -3 164.442 9.35660   2
  -2 -12  -3 59.3926 5.22650   6
   2 -12   3 57.3504 6.66695   8
   2  12   3 53.1648 5.22581   2
   2  12   3 51.1365 6.22259  10
  -2  12  -3 63.9051 5.86830  11
  -2  12  -3 66.4260 6.22850   2
   3 -13  -3 4.86495 2.35646   6
   3  13  -3 5.13704 3.53610   2
   3  13  -3 4.24098 2.36305  11
  -3  13   3 5.13605 2.70321   2
   3  13  -3 2.24623 2.89991  10
   1 -13  -3 25.0572 3.60106   6
  -1  13   3 23.2287 4.48975  10
   1  13  -3 21.5536 3.28235  11
   1  13  -3 17.6499 4.23152   2
  -1  13   3 19.4920 3.55392   2
   1 -13   3 19.1272 4.16285   8
  -1 -13  -3 26.2398 3.96460   6
   1  13   3 21.1099 4.60542  10
  -1  13  -3 28.4272 4.61909   2
  -1  13  -3 23.8125 3.63660  11
   1  13   3 26.6099 4.48333   2
  12   0  -4 439.231 16.3122   3
 -12   0   4 459.800 15.8041  12
  12   0  -4 484.964 23.2351  14
 -12   0   4 448.910 16.0684   1
 -10   0   4 1987.03 47.3387  12
 -10   0   4 1972.06 48.0649  16
 -10   0   4 1969.80 47.9030   1
  10   0  -4 1906.50 48.4633   3
  10   0  -4 2017.70 56.2339  14
  -8   0   4 3558.02 78.6237  12
  -8   0   4 3500.53 79.1745   1
  -8   0   4 3453.79 79.2862  16
   8   0  -4 3578.18 86.2681  14
   8   0  -4 3505.70 80.2628   3
  -8   0   4 3507.29 77.5077   5
   6   0  -4 4325.52 104.223   9
  -6   0   4 4740.07 104.179   5
   6   0  -4 4806.68 104.836   3
  -6   0   4 4903.31 103.649   1
  -6   0   4 4813.62 107.120  16
   6   0  -4 4670.21 108.240  14
   6   0  -4 4679.09 103.504  10
  -6   0   4 4909.70 103.098  12
   4   0  -4 8854.09 196.921   9
   4   0  -4 8189.76 210.001  14
   4   0  -4 8864.70 196.079   2
   4   0  -4 7480.24 199.543   3
  -4   0   4 9368.35 194.882  12
   4   0  -4 8178.03 199.299  10
  -4   0   4 9698.17 197.821   1
  -4   0   4 9708.04 197.930  16
  -2   0   4 4143.58 97.3960  15
   2   0  -4 4303.83 99.1025   2
  -2   0   4 4461.89 97.3595  16
   2   0  -4 4119.57 96.2061   6
   2   0  -4 4409.11 104.486  14
  -2   0   4 4518.06 99.6777  13
   2   0  -4 4297.08 96.5990  11
   2   0  -4 4058.24 99.2767   3
  -2   0   4 4559.01 97.2600   1
   0   0   4 2855.79 64.4631  13
   0   0  -4 2855.09 64.5170  11
   0   0   4 2899.73 62.5068   4
   0   0  -4 2875.73 65.0618   2
   0   0  -4 2839.52 63.4101   5
   0   0   4 2883.09 63.7551   1
   0   0  -4 2864.23 67.7827  15
  -2   0  -4 8100.60 186.497   5
  -2   0  -4 8199.85 183.260  12
  -2   0  -4 8407.92 195.481  15
   2   0   4 8055.89 183.937   4
   2   0   4 8130.41 184.672   7
   2   0   4 8167.93 186.011  13
  -2   0  -4 8450.96 182.296  11
   4   0   4 4088.60 93.2046   7
  -4   0  -4 4324.88 93.4435  11
   4   0   4 4171.59 93.0738   4
   4   0   4 4247.93 93.5245  13
  -4   0  -4 4136.56 92.6734  12
  -4   0  -4 4242.02 93.8971   5
  -4   0  -4 4398.75 97.0905  15
  -6   0  -4 1434.91 35.4978  12
  -6   0  -4 1528.39 37.1838   5
   6   0   4 1460.22 35.7535   7
  -6   0  -4 1470.79 35.6703  11
   6   0   4 1528.57 35.8703   4
  -8   0  -4 1204.92 32.2716  12
  -8   0  -4 1318.19 34.1386   5
   8   0   4 1287.14 32.0684   4
 -11  -1   4 229.806 9.96233  16
  11  -1  -4 214.004 10.1716   3
 -11  -1   4 233.505 10.0514   1
  11  -1  -4 239.820 15.3867  14
 -11  -1   4 209.594 9.44584  12
  11   1  -4 214.898 10.2686   3
  11   1  -4 233.340 14.7255  14
 -11   1   4 220.248 10.0234   1
 -11   1   4 210.673 9.28971  12
 -11   1   4 216.434 9.91751  16
   9  -1  -4 136.014 10.0877  14
  -9  -1   4 136.356 6.64859   1
  -9  -1   4 140.588 6.48920  12
   9  -1  -4 134.405 7.10226   3
  -9  -1   4 145.568 6.86557  16
  -9   1   4 141.396 6.49057  12
   9   1  -4 152.777 10.3813  14
  -9   1   4 136.026 5.57638   5
  -9   1   4 145.166 6.97939  16
  -9   1   4 132.363 6.63655   1
   9   1  -4 138.536 7.28472   3
  -7  -1   4 1454.85 34.8486  16
  -7  -1   4 1480.82 34.3473  12
   7  -1  -4 1416.10 33.5291   9
   7  -1  -4 1497.10 35.9877   3
   7  -1  -4 1541.46 41.0752  14
  -7  -1   4 1434.92 34.6448   1
   7  -1  -4 1473.27 36.1518   8
  -7  -1   4 1435.92 33.2570   5
  -7   1   4 1488.94 35.0586  16
   7   1  -4 1514.00 36.0424   3
   7   1  -4 1518.86 39.6988  14
  -7   1   4 1491.94 34.3742  12
   7   1  -4 1465.03 34.7081  10
  -7   1   4 1435.73 33.4432   5
   5  -1  -4 1258.50 30.5039   8
  -5  -1   4 1323.59 29.5379  16
   5  -1  -4 1262.89 28.9722   9
  -5  -1   4 1267.69 28.8134  12
   5  -1  -4 1253.99 33.0263  14
   5  -1  -4 1231.97 30.3575   3
  -5  -1   4 1306.72 29.3944   1
  -5  -1   4 1252.35 27.8918   5
   5   1  -4 1281.98 32.2230  14
  -5   1   4 1270.26 28.1804   5
  -5   1   4 1326.15 29.6284  15
   5   1  -4 1228.25 28.3535   9
   5   1  -4 1241.53 29.8019  10
  -5   1   4 1276.97 29.3749  16
  -5   1   4 1282.93 28.7929  12
   5   1  -4 1251.67 28.3586   2
  -3  -1   4 492.243 12.3163  13
   3  -1  -4 475.101 11.5734   6
  -3  -1   4 498.094 12.0125  16
  -3  -1   4 486.064 11.3330  12
  -3  -1   4 494.946 11.9398   1
   3  -1  -4 479.452 12.1488   9
   3  -1  -4 498.079 12.8901   3
   3  -1  -4 489.992 14.0762  14
  -3  -1   4 511.170 11.4475  15
  -3   1   4 491.877 11.1929  12
   3   1  -4 484.768 11.0908  11
   3   1  -4 494.820 13.0195  14
   3   1  -4 482.306 11.9800   2
   3   1  -4 485.157 12.5236   3
   3   1  -4 485.906 12.6845  10
  -3   1   4 505.067 11.7476   1
  -3   1   4 500.523 11.8093  16
   1  -1  -4 3704.98 86.3255   3
  -1  -1   4 3982.86 88.3445  16
  -1  -1   4 3879.06 86.8741   1
   1  -1  -4 3825.40 86.6943   5
  -1  -1   4 3877.30 87.4078  13
   1  -1  -4 3848.56 86.6054   6
  -1  -1   4 3878.58 87.7096   4
   1  -1  -4 3891.72 86.9239  11
  -1  -1   4 3876.30 90.2095  15
  -1   1   4 3833.41 85.7660  16
  -1   1   4 3963.94 86.6963  13
   1   1  -4 3843.64 89.3189   2
   1   1  -4 3826.23 93.3094  15
  -1   1   4 3727.25 86.4068   4
   1   1  -4 4030.79 88.0109   3
  -1   1   4 3822.58 85.0391   1
   1   1  -4 3845.14 87.1286  11
   1   1  -4 3805.36 86.2444   5
  -1  -1  -4 1239.81 28.7668  12
  -1  -1  -4 1332.51 31.5992  15
   1  -1   4 1293.36 29.7153   7
  -1  -1  -4 1318.07 29.7527   5
   1  -1   4 1314.18 29.6561   4
   1  -1   4 1316.62 30.0868  13
  -1  -1  -4 1318.11 29.8917  11
  -1   1  -4 1354.97 30.1387   2
  -1   1  -4 1335.99 31.9086  15
   1   1   4 1302.61 29.6967  13
  -1   1  -4 1299.62 29.7942   5
   1   1   4 1334.09 29.7774   4
   1   1   4 1315.15 30.4452   7
  -1   1  -4 1319.10 30.0482  11
   3  -1   4 392.200 11.0378  13
  -3  -1  -4 381.198 12.7002  15
  -3  -1  -4 399.301 10.8707  11
  -3  -1  -4 392.523 11.0576   5
   3  -1   4 388.604 10.5776   7
  -3  -1  -4 381.956 10.0984  12
   3  -1   4 384.454 10.6327   4
  -3   1  -4 386.225 11.1523   5
   3   1   4 387.673 10.6707   4
   3   1   4 396.788 10.8082  13
  -3   1  -4 414.690 11.1580  11
   3   1   4 382.699 11.1854   7
  -3   1  -4 371.894 10.1896  12
  -3   1  -4 403.357 13.2549  15
   3   1   4 386.156 10.6831  10
  -3   1  -4 399.302 10.4698   2
  -5  -1  -4 969.188 24.8608   5
  -5  -1  -4 980.495 24.0251  11
  -5  -1  -4 919.497 23.4953  12
   5  -1   4 942.009 23.5813   7
   5  -1   4 982.138 23.9896   4
  -5   1  -4 970.908 24.9349   5
  -5   1  -4 977.515 24.3030  11
   5   1   4 962.074 23.9517   4
  -5   1  -4 914.222 23.5979  12
   5   1   4 962.805 24.5073   7
  -5   1  -4 954.039 27.5638  15
   7  -1   4 216.311 8.21071   4
  -7  -1  -4 201.922 8.25449  12
  -7  -1  -4 207.265 9.29448   5
  -7  -1  -4 208.177 8.01825  11
   7   1   4 205.963 8.69268   7
  -7   1  -4 212.432 8.18351  11
  -7   1  -4 213.120 9.39673   5
   7   1   4 212.950 8.27130   4
  -7   1  -4 206.218 8.32657  12
  -9  -1  -4 65.8256 5.79489   5
   9  -1   4 71.4869 8.61610  14
  -9   1  -4 64.5832 5.68789   5
   9   1   4 65.5960 5.10096   4
 -12  -2   4 215.555 10.0320   1
  12  -2  -4 236.311 15.7231  14
  12  -2  -4 178.264 9.91386   3
 -12  -2   4 233.407 10.2190  12
 -12   2   4 221.611 10.4054   1
 -12   2   4 210.687 9.60154  12
  12   2  -4 220.024 14.7679  14
  12   2  -4 210.796 10.5084   3
  10  -2  -4 816.156 30.0962  14
 -10  -2   4 792.298 21.7665  12
  10  -2  -4 761.641 23.2212   8
  10  -2  -4 766.003 22.7773   3
 -10  -2   4 786.701 22.3213  16
 -10  -2   4 776.851 22.0736   1
 -10   2   4 760.595 22.2073  16
 -10   2   4 776.690 21.5828  12
  10   2  -4 792.673 28.1054  14
  10   2  -4 774.462 22.9802   3
  -8  -2   4 238.932 8.79376  16
   8  -2  -4 252.389 13.2195  14
   8  -2  -4 279.289 10.0537   3
  -8  -2   4 235.814 8.29640  12
  -8  -2   4 235.551 8.56026   1
   8  -2  -4 241.931 9.86800   8
   8   2  -4 274.766 12.8381  14
  -8   2   4 246.563 7.89679   5
  -8   2   4 252.123 8.51730  12
   8   2  -4 245.476 9.42721   7
   8   2  -4 229.550 8.48119  10
  -8   2   4 255.061 9.19103  16
   6  -2  -4 23.2626 3.84867  14
   6  -2  -4 21.4178 1.71179   9
   6  -2  -4 21.0649 2.63752   3
   6  -2  -4 21.5759 2.62386   8
  -6  -2   4 22.5898 2.34746  16
  -6  -2   4 18.6875 2.13089   1
  -6  -2   4 21.7414 1.95140  12
  -6  -2   4 21.6785 1.35311   5
  -6   2   4 23.5867 1.76528   5
  -6   2   4 22.3271 2.22577  16
   6   2  -4 19.5961 1.27949   2
   6   2  -4 24.2030 3.19144  14
   6   2  -4 22.2030 2.47997  10
  -6   2   4 22.6273 1.99920  15
  -6   2   4 20.4472 2.03951  12
   6   2  -4 21.5992 2.54521   7
  -4  -2   4 2350.65 51.3841   1
   4  -2  -4 2296.04 51.4834   9
  -4  -2   4 2321.18 51.5968  13
   4  -2  -4 2348.59 52.7578   8
   4  -2  -4 2247.29 51.0908   6
  -4  -2   4 2390.54 51.5271  16
   4  -2  -4 2299.76 54.8860  14
  -4  -2   4 2341.44 50.8459  12
   4  -2  -4 2307.37 52.7244   3
   4   2  -4 2286.31 52.7665  14
   4   2  -4 2362.71 52.4990  10
  -4   2   4 2337.00 51.2051  16
   4   2  -4 2262.55 51.1573   2
  -2  -2   4 3149.69 71.1005  13
   2  -2  -4 3021.51 69.4639   3
   2  -2  -4 3112.41 80.1821  14
  -2  -2   4 3254.08 72.4395  16
   2  -2  -4 3212.26 72.0745   8
  -2  -2   4 3225.57 74.3107  15
  -2  -2   4 3228.19 70.4333   1
  -2  -2   4 3226.16 70.7327  12
   2  -2  -4 3128.04 72.9808   9
   2  -2  -4 3119.73 71.5850   6
  -2   2   4 3101.08 70.2823   1
   2   2  -4 3116.52 76.4398  15
  -2   2   4 3138.17 71.6554  16
   2   2  -4 3122.65 71.4963   2
   2   2  -4 3112.90 71.9794  10
   2   2  -4 3071.14 70.6146  11
  -2   2   4 3277.56 71.8132  13
   0  -2   4 1144.20 26.1358   1
   0  -2   4 1163.06 26.0949   4
   0  -2  -4 1170.13 26.2155   5
   0  -2  -4 1145.81 26.3889  11
   0  -2   4 1165.29 26.7475  13
   0  -2  -4 1168.39 26.7970   9
   0  -2   4 1177.88 26.2741  16
   0   2   4 1136.96 26.0710  13
   0   2   4 1145.66 26.2941   4
   0   2  -4 1182.04 26.7942  11
   0   2  -4 1168.32 28.2952  15
   0   2  -4 1183.77 27.0608   2
   0   2  -4 1160.59 26.3177   5
   0   2   4 1163.45 27.3016   7
  -2  -2  -4 1155.55 27.3792  11
   2  -2   4 1162.39 26.7247   7
  -2  -2  -4 1163.82 27.4784   5
   2  -2   4 1172.52 27.8565  13
  -2  -2  -4 1171.13 26.5232  12
   2  -2   4 1198.13 27.1705   4
   2   2   4 1196.66 28.3342   7
   2   2   4 1183.09 27.0650  13
   2   2   4 1163.50 27.3025   4
  -2   2  -4 1192.51 27.8497   5
  -2   2  -4 1177.46 27.4800   2
  -2   2  -4 1186.21 30.2362  15
  -2   2  -4 1200.77 27.8757  11
   4  -2   4 127.005 5.10354   4
  -4  -2  -4 126.038 5.03868  11
   4  -2   4 122.549 5.47011  13
   4  -2   4 122.307 5.66422   8
  -4  -2  -4 121.410 4.68255  12
  -4  -2  -4 117.452 5.24357   5
   4   2   4 116.979 4.86158  10
  -4   2  -4 112.315 4.75561  12
  -4   2  -4 118.110 5.46204   5
  -4   2  -4 124.224 7.14411  15
   4   2   4 124.283 5.71984   7
  -4   2  -4 129.211 5.41605  11
   4   2   4 120.768 5.03211   4
  -6  -2  -4 118.750 5.59108  11
   6  -2   4 126.847 5.62727   4
  -6  -2  -4 124.174 5.60160  12
  -6  -2  -4 117.349 6.17464   5
   6   2   4 112.120 6.26007   7
  -6   2  -4 123.450 5.92761  11
  -6   2  -4 116.586 6.26765   5
  -6   2  -4 116.213 5.66383  12
   6   2   4 116.703 5.78605   4
   8  -2   4 654.947 25.2500  14
   8  -2   4 653.659 18.3473   4
  -8  -2  -4 653.057 20.2070   5
   8   2   4 622.405 19.0624   7
   8   2   4 639.061 18.4899   4
  -8   2  -4 613.365 18.5392  12
  -8   2  -4 623.385 19.8161   5
 -11  -3   4 1021.64 27.8644  12
 -11  -3   4 982.555 27.8417  16
  11  -3  -4 1062.80 37.7089  14
  11   3  -4 1030.97 34.7902  14
  11   3  -4 1025.64 29.2112   3
 -11   3   4 1010.95 27.5598  12
   9  -3  -4 1029.60 34.5159  14
   9  -3  -4 1014.88 28.5766   8
  -9  -3   4 1017.96 26.2243  12
   9  -3  -4 997.559 27.5506   3
  -9  -3   4 998.134 26.4438  16
  -9  -3   4 1006.63 26.3944   1
   9   3  -4 1043.11 32.3218  14
   9   3  -4 998.273 27.0979   7
  -9   3   4 1020.21 25.3166   5
   9   3  -4 979.521 26.0591  10
  -9   3   4 1024.93 26.9107  16
  -9   3   4 1021.34 26.1783  12
  -7  -3   4 2198.66 50.4839   5
   7  -3  -4 2296.49 53.6562   3
  -7  -3   4 2324.56 52.1111   1
   7  -3  -4 2264.41 59.2981  14
   7  -3  -4 2236.27 54.1686   8
   7  -3  -4 2245.29 51.6030   9
  -7  -3   4 2283.12 52.2007  16
  -7  -3   4 2312.08 51.7258  12
   7   3  -4 2295.04 56.5502  14
   7   3  -4 2289.21 53.0716   7
   7   3  -4 2235.37 52.6996  10
  -7   3   4 2330.48 51.2112   5
  -7   3   4 2265.33 51.5958  12
   5  -3  -4 2438.98 56.1129   3
  -5  -3   4 2467.42 54.1199  12
   5  -3  -4 2467.70 54.6906   9
   5  -3  -4 2439.20 54.3411   6
   5  -3  -4 2422.19 56.3079   8
  -5  -3   4 2443.68 54.5546  13
  -5  -3   4 2474.80 54.6762  16
  -5  -3   4 2506.23 54.6226   1
   5  -3  -4 2527.83 59.9299  14
  -5  -3   4 2417.15 53.1843   5
   5   3  -4 2424.60 55.7036  10
   5   3  -4 2330.60 53.0274   9
   5   3  -4 2391.68 55.1169   7
  -5   3   4 2511.24 54.8754  15
   5   3  -4 2421.90 56.6705  14
   5   3  -4 2392.54 54.0987   2
   3  -3  -4 2899.85 65.8577  14
   3  -3  -4 2777.96 63.3770   3
   3  -3  -4 2832.06 62.4986   9
  -3  -3   4 2937.60 62.1510   1
   3  -3  -4 2818.24 63.2880   8
  -3  -3   4 2754.32 62.1141  13
  -3  -3   4 2864.12 63.1331  12
  -3  -3   4 2809.25 62.1634  16
   3  -3  -4 2827.49 61.9003   6
   3   3  -4 2744.21 69.1969  15
   3   3  -4 2793.14 64.6951  14
   3   3  -4 2827.37 61.5156  11
   3   3  -4 2828.13 62.6634   2
   3   3  -4 2849.85 63.2216  10
  -1  -3   4 5992.67 133.062  13
   1  -3  -4 5799.33 128.916   6
   1  -3  -4 5960.30 133.714   9
   1  -3  -4 5834.25 131.072   5
   1  -3  -4 5465.04 131.906   3
  -1  -3   4 5784.31 131.398   1
  -1  -3   4 5908.42 132.510  16
  -1  -3   4 5955.13 130.299   4
   1   3  -4 6068.23 141.325  15
   1   3  -4 5931.06 133.625  10
  -1   3   4 5552.99 129.639   4
   1   3  -4 5937.76 127.740  11
  -1   3   4 5819.71 130.172  13
   1   3  -4 5851.11 136.590   2
  -1   3   4 5658.32 125.885  16
  -1  -3  -4 3176.19 68.2716   9
  -1  -3  -4 3043.49 67.0453  12
  -1  -3  -4 3138.98 68.1116   5
   1  -3   4 3115.41 67.8956   1
   1  -3   4 3097.02 67.5284   4
   1  -3   4 3045.15 66.9088   7
   1  -3   4 3133.77 68.5343  13
  -1  -3  -4 3111.21 68.0645  11
   1   3   4 3079.50 67.8853   4
  -1   3  -4 3110.25 68.6041   2
  -1   3  -4 3045.74 68.2329   5
   1   3   4 3031.49 67.3065  13
  -1   3  -4 3135.19 68.6827  11
  -1   3  -4 3120.42 70.9220  15
   1   3   4 3069.22 69.2289   7
  -3  -3  -4 1390.87 31.9820   9
   3  -3   4 1362.42 32.8869  13
  -3  -3  -4 1383.60 32.3214  11
  -3  -3  -4 1403.65 32.7400   5
  -3  -3  -4 1358.37 31.5484  12
   3  -3   4 1384.89 31.9197   4
  -3   3  -4 1419.03 32.9668  11
  -3   3  -4 1367.95 32.8452   5
  -3   3  -4 1390.09 35.8405  15
  -3   3  -4 1379.51 32.1325   2
   3   3   4 1413.00 32.2606   4
   3   3   4 1321.86 33.0821  10
   3   3   4 1433.14 33.7171   7
  -5  -3  -4 1856.80 43.3441   5
   5  -3   4 1817.87 43.7884   8
  -5  -3  -4 1740.64 41.7378  12
  -5  -3  -4 1806.28 42.1916  11
   5  -3   4 1875.64 42.1776   4
  -5   3  -4 1740.44 46.3976  15
   5   3   4 1788.58 43.5699   7
  -5   3  -4 1822.76 43.4294   5
   5   3   4 1778.87 42.2296   4
  -5   3  -4 1863.17 42.9013  11
   7  -3   4 1037.60 25.8792   4
   7  -3   4 981.258 31.9387  14
  -7  -3  -4 956.844 25.9546  12
  -7  -3  -4 1025.17 27.7971   5
  -7   3  -4 1011.35 26.2368  12
  -7   3  -4 1024.25 26.3139  11
  -7   3  -4 1005.91 27.5687   5
   7   3   4 999.293 27.2575   7
   7   3   4 1021.74 26.1969   4
 -12  -4   4 3.41081 2.58317  12
 -12  -4   4 2.87284 2.18095   1
  12  -4  -4 8.91683 4.70877  14
 -12   4   4 3.76478 2.74390   1
  12   4  -4 2.47572 2.62540   3
 -12   4   4 2.15894 2.46394  12
  12   4  -4 5.45056 3.11550  14
  10  -4  -4 51.1246 7.69309  14
  10  -4  -4 45.1893 4.58018   3
  10  -4  -4 49.0835 5.06260   8
 -10  -4   4 52.2142 4.46467   1
 -10  -4   4 46.2931 3.90618  16
 -10  -4   4 51.2279 4.46655  12
  10   4  -4 48.9837 6.78182  14
  10   4  -4 53.5259 5.29101   7
 -10   4   4 46.5062 4.22969  16
 -10   4   4 51.2159 4.57141  12
  -8  -4   4 190.736 7.50305  16
  -8  -4   4 184.805 7.51910   1
   8  -4  -4 189.191 9.22780   8
   8  -4  -4 184.478 11.9831  14
   8  -4  -4 196.097 7.26975   9
  -8  -4   4 195.396 7.52351  12
   8  -4  -4 196.309 8.55473   3
  -8   4   4 191.892 7.44793  12
   8   4  -4 193.622 8.21996  10
  -8   4   4 198.932 7.17141   5
   8   4  -4 200.940 8.58854   7
   8   4  -4 212.415 10.9076  14
  -6  -4   4 352.874 10.4898   1
   6  -4  -4 390.528 15.7032  14
  -6  -4   4 360.809 10.2700  12
  -6  -4   4 340.888 9.33726   5
  -6  -4   4 341.868 10.2423  13
  -6  -4   4 353.328 10.5809  16
   6  -4  -4 368.731 10.5139   6
   6  -4  -4 349.607 12.2764   8
   6  -4  -4 350.154 10.6423   9
   6  -4  -4 357.791 11.8649   3
   6   4  -4 381.710 11.4902   7
   6   4  -4 374.997 11.8892  10
   6   4  -4 374.047 12.8261  14
   6   4  -4 343.459 9.85738   2
  -6   4   4 376.119 11.2772  15
  -4  -4   4 524.473 13.5719   1
   4  -4  -4 533.641 17.4568  14
  -4  -4   4 514.347 13.4216  13
   4  -4  -4 550.064 15.1269   3
   4  -4  -4 549.363 15.3035   8
  -4  -4   4 518.549 13.1884  12
   4  -4  -4 532.618 13.5531   6
  -4  -4   4 526.034 13.6630  16
   4  -4  -4 530.245 13.9901   9
   4   4  -4 509.439 13.5008  15
   4   4  -4 526.610 13.7659   7
   4   4  -4 532.633 13.8852  14
   4   4  -4 523.720 12.7454  11
   4   4  -4 567.782 15.2516  10
   4   4  -4 540.464 14.2345   2
  -2  -4   4 13.6641 1.11180  12
  -2  -4   4 11.8665 1.37173  16
  -2  -4   4 13.8979 0.88096   4
   2  -4  -4 12.8311 1.71869   8
  -2  -4   4 12.2938 1.46033   1
   2  -4  -4 14.8027 2.52990  14
  -2  -4   4 16.7393 0.92076   6
   2  -4  -4 13.8205 1.46232   6
   2  -4  -4 12.6544 1.57018   9
  -2  -4   4 16.8073 1.52069  13
   2  -4  -4 16.2069 1.74756   3
   2   4  -4 16.0543 2.16657  15
   2   4  -4 12.0223 2.11969   2
  -2   4   4 18.4063 1.31103  13
   2   4  -4 14.0476 1.83007  10
   2   4  -4 12.2995 1.44776  11
   0  -4  -4 8.52396 1.16948   6
   0  -4  -4 7.86511 1.18174   5
   0  -4   4 7.99140 0.87497   4
   0  -4  -4 10.5394 0.87043  12
   0  -4   4 8.85359 1.27838  13
   0  -4   4 9.08236 1.27866   1
   0  -4   4 7.98843 0.67730   6
   0  -4  -4 8.21079 1.31537   9
   0  -4   4 9.49944 1.31246  16
   0   4   4 9.38190 0.78237  13
   0   4  -4 9.06499 1.66087   2
   0   4  -4 10.3515 2.38168  15
   0   4  -4 10.3504 1.63309  11
   0   4   4 11.4119 1.81310   7
   0   4  -4 11.6493 1.41598  10
   0   4   4 9.88168 1.14521   4
  -2  -4  -4 639.311 16.6374   5
  -2  -4  -4 644.685 15.6505  12
  -2  -4  -4 654.681 16.2714   9
   2  -4   4 634.395 17.6889  14
   2  -4   4 656.909 16.9899  13
   2  -4   4 664.287 15.8904   4
   2   4   4 664.947 16.2511   4
  -2   4  -4 653.654 17.1637  11
  -2   4  -4 666.614 19.5546  15
   2   4   4 650.146 18.0205  10
  -2   4  -4 648.310 16.8384   5
  -2   4  -4 649.149 16.6772   2
   2   4   4 651.077 17.6824   7
   4  -4   4 361.707 11.7750  13
   4  -4   4 382.725 12.8733   8
  -4  -4  -4 377.201 11.5631   5
  -4  -4  -4 373.308 10.5751  12
   4  -4   4 375.578 10.6716   4
   4  -4   4 364.041 13.6041  14
  -4   4  -4 370.172 11.6934   5
   4   4   4 372.812 10.9090   4
   4   4   4 389.906 12.5334   7
   4   4   4 359.774 11.7153  10
  -4   4  -4 368.296 14.0708  15
  -4   4  -4 383.530 11.6639  11
  -6  -4  -4 49.8983 4.01587   5
   6  -4   4 46.5284 5.52868  14
  -6  -4  -4 39.0506 3.32747  12
   6  -4   4 47.5643 5.49630   8
   6  -4   4 44.9735 3.36553   4
   6   4   4 40.9395 4.53983   7
  -6   4  -4 40.0125 3.48404  11
   6   4   4 48.7179 4.05916   4
  -6   4  -4 49.4444 4.13218   5
  -6   4  -4 38.6167 3.52180  12
  -8  -4  -4 41.0524 5.00763   5
   8   4   4 27.9737 4.12631   7
   8   4   4 33.0778 3.84811   4
  -8   4  -4 28.5261 3.27958  12
  -8   4  -4 36.1463 3.11255  11
  -8   4  -4 31.9012 3.91144   5
 -11  -5   4 154.426 7.87008  12
  11  -5  -4 169.895 13.7379  14
 -11  -5   4 148.145 7.72053   1
  11  -5  -4 163.079 9.84533   8
  11   5  -4 161.360 14.2176  14
 -11   5   4 151.069 7.89136  12
  -9  -5   4 318.801 11.4120  16
   9  -5  -4 360.294 18.7408  14
   9  -5  -4 359.306 13.0499   3
  -9  -5   4 344.176 11.8387  12
   9  -5  -4 358.946 14.4337   8
  -9  -5   4 340.590 11.6930   1
   9   5  -4 334.881 12.1687  10
  -9   5   4 361.397 11.3139   5
   9   5  -4 361.158 15.8745  14
   9   5  -4 333.133 12.6866   7
  -9   5   4 352.869 11.7526  12
   7  -5  -4 1013.34 25.0433   9
   7  -5  -4 927.082 31.4508  14
  -7  -5   4 940.110 24.0053  13
   7  -5  -4 976.438 26.3476   3
   7  -5  -4 999.275 24.6241   6
  -7  -5   4 979.381 24.1820   5
  -7  -5   4 976.960 24.5280  12
  -7  -5   4 969.562 24.7514  16
  -7  -5   4 985.151 24.6505   1
   7  -5  -4 981.490 27.6188   8
  -7   5   4 1012.02 24.3183   5
   7   5  -4 984.236 26.2776  10
   7   5  -4 999.421 25.7799   7
   5  -5  -4 1209.07 28.1259   6
   5  -5  -4 1206.56 30.0183   3
  -5  -5   4 1173.50 28.0118   1
   5  -5  -4 1165.30 30.4996   8
  -5  -5   4 1144.40 27.5645  13
   5  -5  -4 1159.00 33.8624  14
  -5  -5   4 1184.01 28.1543  16
  -5  -5   4 1171.39 27.7495  12
   5  -5  -4 1174.05 28.5931   9
   5   5  -4 1182.22 28.5987   7
   5   5  -4 1203.55 29.8753  10
  -5   5   4 1208.15 29.4927  15
   5   5  -4 1158.16 28.4210   2
   3  -5  -4 732.566 19.7338   8
  -3  -5   4 736.010 17.9847  13
   3  -5  -4 744.114 18.7981   9
  -3  -5   4 765.958 18.4078  16
   3  -5  -4 742.962 22.2835  14
  -3  -5   4 754.518 18.2522   1
  -3  -5   4 742.027 17.8555  12
   3  -5  -4 744.901 18.1930   6
   3  -5  -4 746.931 19.8423   3
   3   5  -4 751.886 19.3481   2
   3   5  -4 743.855 19.3617  15
   3   5  -4 715.887 17.9247  11
   3   5  -4 752.034 19.6387  10
   1  -5  -4 777.795 19.5803   9
  -1  -5   4 814.880 19.4104  16
  -1  -5   4 785.237 17.9392   6
  -1  -5   4 780.060 17.8398   4
   1  -5  -4 782.765 19.2181   6
  -1  -5   4 822.031 19.3024   1
   1  -5  -4 780.419 19.5809   8
  -1  -5   4 803.440 19.3079  13
   1   5  -4 803.362 20.5201   2
  -1   5   4 806.839 20.3286   7
  -1   5   4 799.489 18.6411   4
   1   5  -4 771.180 19.5930  11
   1   5  -4 810.516 19.8598  10
   1   5  -4 796.792 21.5105  15
   1  -5   4 954.340 22.9249   1
   1  -5   4 961.446 23.3878  13
  -1  -5  -4 957.595 23.0369   9
  -1  -5  -4 970.758 23.1074   5
  -1  -5  -4 936.624 21.9936  12
   1  -5   4 959.382 21.8695   4
  -1   5  -4 934.206 24.2704  10
   1   5   4 970.570 24.4213   7
   1   5   4 940.827 22.4256   4
  -1   5  -4 963.358 23.6855  11
  -1   5  -4 940.888 23.7201   2
  -1   5  -4 969.349 26.2359  15
   3  -5   4 846.664 21.8412  13
  -3  -5  -4 848.613 20.4524  12
   3  -5   4 854.253 23.4521   8
  -3  -5  -4 839.334 21.5074   5
   3  -5   4 830.382 20.2349   4
  -3   5  -4 856.972 21.1741   2
  -3   5  -4 846.043 21.6929   5
   3   5   4 811.939 22.7291  10
  -3   5  -4 845.349 21.7463  11
   3   5   4 863.138 22.8606   7
  -3   5  -4 829.225 24.4266  15
   3   5   4 832.268 20.7197   4
  -5  -5  -4 625.835 17.8794   5
  -5  -5  -4 612.110 16.5828  12
   5  -5   4 617.993 19.2190   8
   5  -5   4 645.344 16.5037   4
   5   5   4 618.008 18.7881   7
   5   5   4 621.566 16.9604   4
  -5   5  -4 625.299 17.9216   5
  -5   5  -4 616.329 17.4628  11
   5   5   4 562.257 17.4847  10
  -7  -5  -4 241.807 10.3502   5
  -7   5  -4 229.656 9.01707  11
  -7   5  -4 250.822 9.27821  12
  -7   5  -4 230.049 9.71597   5
   7   5   4 239.378 10.8603   7
   7   5   4 251.871 9.39958   4
 -10  -6   4 1304.58 34.0149  12
  10  -6  -4 1375.01 38.0027   8
 -10  -6   4 1255.18 33.3176   1
  10  -6  -4 1361.20 44.5753  14
 -10   6   4 1250.64 33.3470   5
  10   6  -4 1333.49 35.3272   7
  10   6  -4 1304.28 34.7119  10
 -10   6   4 1372.15 33.8284  12
  -8  -6   4 1380.74 34.0713   1
   8  -6  -4 1368.35 43.5111  14
   8  -6  -4 1434.81 38.2905   8
  -8  -6   4 1381.04 34.2036  12
   8  -6  -4 1405.79 36.1011   3
  -8  -6   4 1360.25 34.0562  16
   8   6  -4 1431.20 35.7544   7
  -8   6   4 1412.95 33.8681   5
   8   6  -4 1352.06 35.6810  10
   6  -6  -4 1770.79 41.6896   9
  -6  -6   4 1760.83 40.6911  12
  -6  -6   4 1756.57 41.0029  16
   6  -6  -4 1753.64 40.8737   6
   6  -6  -4 1765.60 43.0650   3
   6  -6  -4 1678.67 48.4163  14
   6  -6  -4 1773.67 44.3149   8
  -6  -6   4 1802.82 40.9290   1
   6   6  -4 1731.85 42.8809  10
   6   6  -4 1663.58 40.8699   2
  -6   6   4 1725.82 42.6262  15
   6   6  -4 1797.41 41.8690   7
  -4  -6   4 2773.86 60.8043  12
   4  -6  -4 2754.25 63.7212   8
   4  -6  -4 2763.21 61.1720   6
  -4  -6   4 2741.79 61.0912   1
   4  -6  -4 2692.31 63.1939   3
  -4  -6   4 2778.13 61.2534  16
  -4  -6   4 2641.61 60.3332  13
   4  -6  -4 2720.89 61.8664   9
   4  -6  -4 2677.41 67.1134  14
   4   6  -4 2775.61 61.0535   7
   4   6  -4 2629.27 61.9477  15
   4   6  -4 2801.78 63.1852  10
   4   6  -4 2695.29 62.1180   2
   2  -6  -4 4513.95 98.5711   6
  -2  -6   4 4543.49 98.2825   6
   2  -6  -4 4419.24 99.8364   8
   2  -6  -4 4388.11 100.278   3
  -2  -6   4 4531.56 98.5949  16
  -2  -6   4 4562.74 98.4890   1
  -2  -6   4 4536.91 98.1945  13
   2  -6  -4 4531.18 99.1771   9
   2   6  -4 4525.66 100.046   2
   2   6  -4 4489.21 100.753  15
  -2   6   4 4530.57 97.5399   4
   2   6  -4 4600.20 99.9086  10
  -2   6   4 4391.02 99.3678   7
   2   6  -4 4395.26 98.6427  11
   0  -6  -4 3922.00 87.7196   6
   0  -6   4 4006.34 87.5956   1
   0  -6  -4 4112.25 88.0271   9
   0  -6   4 3987.14 87.7470  13
   0   6  -4 3954.10 88.2056  11
   0   6   4 3940.67 89.0482   7
   0   6  -4 3890.23 87.4105  10
   0   6  -4 3964.42 90.9040  15
   0   6   4 3868.47 86.5903   4
   0   6  -4 4145.23 89.1536   2
   2  -6   4 2086.73 47.8746  13
  -2  -6  -4 2087.29 47.0369   9
  -2  -6  -4 2072.83 46.4881  12
  -2  -6  -4 2060.09 47.6670   5
   2   6   4 2103.86 49.3182   7
  -2   6  -4 2044.56 47.6234   5
  -2   6  -4 2107.54 51.4120  15
  -2   6  -4 2067.45 47.9554   2
   2   6   4 2024.07 46.5681   4
   2   6   4 2021.98 49.8004  10
  -2   6  -4 2081.41 48.1620  11
  -4  -6  -4 1414.28 34.4638   5
  -4  -6  -4 1392.02 33.0106  12
   4  -6   4 1415.80 36.7748   8
   4   6   4 1418.75 33.2527   4
  -4   6  -4 1413.90 34.3425  11
  -4   6  -4 1393.49 34.3027   5
   4   6   4 1322.54 35.3303  10
   4   6   4 1401.29 35.7179   7
  -6  -6  -4 1172.89 31.1385   5
   6  -6   4 1211.57 33.0041   8
   6   6   4 1213.58 32.2770   7
  -6   6  -4 1141.58 30.6379   5
  -6   6  -4 1183.07 30.2719  11
   6   6   4 1203.12 29.7184   4
   9  -7  -4 252.919 12.6997   8
  -9  -7   4 243.075 9.80388  12
   9  -7  -4 251.935 10.8609   3
  -9  -7   4 247.537 9.57479  16
  -9  -7   4 257.738 9.63161   1
   9  -7  -4 243.573 15.7376  14
   9   7  -4 245.806 10.7726   7
  -9   7   4 256.512 9.41458   5
   9   7  -4 242.255 10.6241  10
   7  -7  -4 57.6222 6.98602  14
  -7  -7   4 37.9277 3.28451  16
   7  -7  -4 40.6888 3.65642   6
  -7  -7   4 39.9029 3.16369   1
   7  -7  -4 37.6947 3.41188   9
  -7  -7   4 35.6920 3.10547  12
   7  -7  -4 34.1299 3.63555   3
   7  -7  -4 39.9614 5.24799   8
   7   7  -4 33.9067 4.60071  10
  -7   7   4 36.3163 3.11429  11
   7   7  -4 37.3180 4.04156   7
   5  -7  -4 173.307 8.05734   3
   5  -7  -4 174.733 10.4680  14
  -5  -7   4 169.886 6.55911  16
   5  -7  -4 175.975 8.55066   8
   5  -7  -4 179.284 6.88694   6
   5  -7  -4 182.734 7.47674   9
  -5  -7   4 171.691 6.43134  12
  -5  -7   4 168.431 6.57780   1
   5   7  -4 177.474 6.92518   7
   5   7  -4 185.198 8.53865  10
   5   7  -4 166.145 7.37992   2
  -5   7   4 187.394 8.41487  15
  -3  -7   4 790.002 19.2339   6
   3  -7  -4 802.632 21.0516   9
  -3  -7   4 806.009 19.9914  12
   3  -7  -4 783.251 25.1915  14
  -3  -7   4 797.029 19.5260  13
   3  -7  -4 779.963 22.1856   8
  -3  -7   4 823.002 20.4169  16
  -3  -7   4 817.907 20.2910   1
   3  -7  -4 824.829 22.3953   3
   3  -7  -4 816.889 20.4038   6
   3   7  -4 796.080 20.1500  11
   3   7  -4 815.360 21.9218  10
   3   7  -4 790.800 21.9844  15
   3   7  -4 828.102 21.8747   2
  -3   7   4 833.430 21.0131   7
  -1  -7   4 626.954 16.2773  13
   1  -7  -4 595.657 16.9031   8
   1  -7  -4 624.869 16.5936   6
  -1  -7   4 626.458 16.4010   1
  -1  -7   4 640.747 16.5919  16
   1  -7  -4 639.808 17.0142   9
   1   7  -4 630.341 17.1417  10
   1   7  -4 623.805 18.9650  15
  -1   7   4 661.085 17.7234   7
   1   7  -4 676.855 18.1886   2
   1   7  -4 626.027 16.9810  11
  -1  -7  -4 453.417 12.9772   6
   1  -7   4 458.354 12.9509  13
  -1  -7  -4 454.085 12.7116   9
  -1  -7  -4 429.573 11.7003  12
  -1   7  -4 416.448 15.1912  15
   1   7   4 442.476 14.0158   7
   1   7   4 432.972 14.7007  10
  -1   7  -4 455.038 13.4840  11
  -1   7  -4 459.910 13.8059   2
  -3  -7  -4 144.127 5.68860  12
   3  -7   4 149.825 8.42292   8
   3  -7   4 142.964 6.69546  13
  -3  -7  -4 149.709 6.53060   5
   3   7   4 153.930 7.78080   7
   3   7   4 173.759 5.92356   4
   3   7   4 149.033 7.72673  10
  -3   7  -4 136.559 8.23402  15
  -3   7  -4 139.606 6.56541   5
  -3   7  -4 148.788 6.99512  11
  -3   7  -4 156.023 6.63066   2
  -5  -7  -4 57.9975 4.42586   5
   5  -7   4 52.8353 5.66946   8
  -5   7  -4 57.1563 4.68455  11
   5   7   4 61.4534 5.90572   7
  -5   7  -4 54.2127 4.75746   5
   5   7   4 59.6225 5.42320  10
   7  -7   4 254.467 11.8890   8
  -7  -7  -4 248.708 10.5919   5
  -7   7  -4 243.692 9.69331  11
   7   7   4 259.610 11.4657   7
  -7   7  -4 251.314 9.77359  12
  -7   7  -4 259.791 10.6764   5
 -10  -8   4 221.946 9.69680  12
  10  -8  -4 220.003 15.3198  14
  10  -8  -4 243.051 12.4957   8
  10   8  -4 221.407 10.2737  10
  10   8  -4 223.243 10.6164   7
 -10   8   4 210.182 9.03590  12
   8  -8  -4 687.431 19.0837   6
   8  -8  -4 628.899 26.6277  14
   8  -8  -4 686.947 23.2918   8
  -8  -8   4 647.719 18.7527  16
  -8  -8   4 658.200 18.7390   1
  -8  -8   4 681.000 19.2716  12
  -8   8   4 693.961 19.1878   5
   8   8  -4 652.448 21.0834  10
   8   8  -4 671.255 20.1830   7
   6  -8  -4 1373.46 35.3137   3
  -6  -8   4 1343.84 32.7889  16
   6  -8  -4 1392.21 33.1525   6
   6  -8  -4 1361.00 33.9318   9
  -6  -8   4 1335.19 32.5850   1
  -6  -8   4 1343.15 32.7733  12
   6  -8  -4 1361.33 37.0592   8
   6  -8  -4 1260.00 40.4918  14
  -6   8   4 1348.80 35.8290  15
  -6   8   4 1325.01 32.7306   2
   6   8  -4 1331.43 33.3252   7
   6   8  -4 1286.81 33.4629   2
   6   8  -4 1363.84 35.5159  10
   4  -8  -4 685.502 18.5077   6
  -4  -8   4 728.906 18.5038   1
  -4  -8   4 705.809 18.5143  16
   4  -8  -4 677.717 24.1352  14
  -4  -8   4 660.049 17.4348   6
   4  -8  -4 722.093 19.6292   9
  -4  -8   4 715.199 18.4058  12
   4  -8  -4 684.942 21.1762   8
   4  -8  -4 711.622 20.7751   3
   4   8  -4 689.733 18.0741  11
  -4   8   4 703.844 21.2561  15
   4   8  -4 691.186 20.4292  10
   4   8  -4 694.892 19.8970   2
   2  -8  -4 779.273 22.4562   8
   2  -8  -4 835.437 21.2815   6
   2  -8  -4 828.346 21.8487   9
  -2  -8   4 839.150 21.0850   1
  -2  -8   4 768.682 20.3718  13
  -2  -8   4 837.228 21.2223  16
  -2   8   4 859.974 21.9854   7
   2   8  -4 814.992 23.6406  15
   2   8  -4 846.082 22.5627  10
   2   8  -4 846.788 22.9429   2
  -2   8   4 853.407 23.4965  10
   2   8  -4 834.971 21.4235  11
   0  -8   4 1047.24 25.9580  13
   0  -8  -4 1042.51 26.4405   6
   0  -8  -4 1109.07 26.7010   9
   0  -8   4 1057.60 26.1659   1
   0   8  -4 1045.08 26.7615  11
   0   8   4 1079.58 28.9920  10
   0   8  -4 1073.51 27.7900   2
   0   8  -4 1016.84 29.3824  15
   0   8  -4 1019.85 26.0537  10
   0   8   4 1084.36 27.6962   7
   2  -8   4 661.876 21.2333   8
   2  -8   4 670.370 18.4888  13
  -2  -8  -4 687.901 18.7275   6
  -2  -8  -4 645.745 17.0887  12
  -2   8  -4 654.983 18.7249  11
  -2   8  -4 650.385 18.7184   2
   2   8   4 664.534 19.6225   7
   2   8   4 647.236 20.4224  10
   4  -8   4 973.233 28.4629   8
  -4   8  -4 916.951 25.1491  11
   4   8   4 961.558 27.4309  10
  -4   8  -4 893.376 24.9178   5
   4   8   4 978.210 27.1018   7
   6  -8   4 611.817 21.1883   8
  -6  -8  -4 610.908 19.0678   5
   6   8   4 595.776 19.5223  10
  -6   8  -4 607.038 18.3917   5
   6   8   4 626.132 20.3953   7
  -6   8  -4 600.732 18.0868  11
   9  -9  -4 995.991 30.9268   8
  -9  -9   4 963.330 26.0796  12
   9  -9  -4 891.889 34.4522  14
  -9   9   4 932.405 25.5391   5
   9   9  -4 963.901 27.1328   7
   9   9  -4 908.048 27.7163  10
   7  -9  -4 940.810 34.5167  14
   7  -9  -4 1064.88 31.5855   8
  -7  -9   4 980.572 26.1604  16
   7  -9  -4 1024.08 26.6213   6
   7  -9  -4 1033.35 28.7962   3
  -7  -9   4 1038.54 26.7147  12
  -7  -9   4 990.491 26.0633   1
   7   9  -4 987.809 26.9325   7
  -7   9   4 1038.05 26.2738  11
   7   9  -4 1049.60 29.6772  10
  -5  -9   4 1562.58 37.4654  12
   5  -9  -4 1543.60 41.5647   8
  -5  -9   4 1588.48 37.5042  16
   5  -9  -4 1532.91 38.5991   9
  -5  -9   4 1562.04 37.2609   1
   5  -9  -4 1471.75 45.1914  14
   5  -9  -4 1579.67 37.7750   6
   5   9  -4 1543.17 39.0023   2
   5   9  -4 1590.95 40.4506  10
   3  -9  -4 1445.67 34.9988   6
  -3  -9   4 1452.69 34.7094   1
   3  -9  -4 1432.71 35.8569   9
   3  -9  -4 1397.25 37.4494   8
  -3  -9   4 1441.25 34.7734  16
   3   9  -4 1423.90 34.7966  11
   3   9  -4 1385.71 37.3185  15
   3   9  -4 1446.23 36.7476  10
   3   9  -4 1490.09 37.0751   2
  -3   9   4 1511.62 37.0382  10
   1  -9  -4 530.795 15.3321   6
   1  -9  -4 521.778 15.6046   9
  -1  -9   4 545.028 15.0887   1
   1   9  -4 528.350 16.8361   2
  -1   9   4 521.542 15.8295   7
   1   9  -4 538.824 15.8778  10
   1   9  -4 497.671 17.6689  15
   1   9  -4 522.688 15.4818  11
  -1   9   4 540.001 17.5010  10
  -1  -9  -4 1372.85 33.9165   6
   1  -9   4 1373.20 37.2028   8
  -1   9  -4 1337.28 34.0678  11
   1   9   4 1324.11 36.2200  10
   1   9   4 1349.85 34.8543   7
  -1   9  -4 1401.66 35.0184   2
   3  -9   4 1884.63 48.0724   8
  -3  -9  -4 1842.23 44.5369   6
  -3   9  -4 1802.07 43.8130   2
  -3   9  -4 1815.05 44.3445  11
   3   9   4 1760.53 46.7362  10
   3   9   4 1807.15 45.6808   7
  -3   9  -4 1786.20 43.9155   5
   5  -9   4 696.508 23.4174   8
  -5  -9  -4 689.801 20.9634   6
   5   9   4 671.874 21.8284   7
  -5   9  -4 693.734 20.3145   5
  -5   9  -4 671.329 20.1045  11
   5   9   4 697.438 22.2433  10
  -8 -10   4 19.1182 2.93114  12
   8 -10  -4 20.5561 4.34572   8
   8 -10  -4 17.2012 4.88659  14
   8 -10  -4 19.0135 2.91181   6
  -8  10   4 18.2071 3.48811   5
   8  10  -4 13.7213 3.17254   7
   8  10  -4 17.7767 3.62269  10
   6 -10  -4 74.8311 4.87766   6
  -6 -10   4 63.4675 4.72762  12
   6 -10  -4 75.6203 6.72621   8
  -6 -10   4 70.5214 4.55097   1
  -6 -10   4 62.3570 4.33104  16
   6  10  -4 68.6269 5.80664   2
   6  10  -4 64.8149 6.76303  10
   4 -10  -4 17.3245 2.57129   6
  -4 -10   4 9.03518 2.05503  16
  -4 -10   4 11.2218 1.94356   1
   4 -10  -4 7.67632 2.66555   8
   4 -10  -4 12.7631 2.51329   9
   4  10  -4 19.7472 3.14171  11
  -4  10   4 8.28434 2.48052  10
   4  10  -4 8.68038 3.27792  10
   4  10  -4 14.6070 3.70063   2
   2 -10  -4 73.6307 4.86046   6
   2 -10  -4 73.3004 4.84255   9
  -2 -10   4 74.0005 4.43578   1
  -2 -10   4 73.5521 5.99006   8
  -2  10   4 81.8436 5.88441  10
   2  10  -4 71.2372 5.23339  10
   2  10  -4 74.5577 6.34798   2
   2  10  -4 77.2895 4.83413  11
   0 -10  -4 175.939 7.66800   6
   0 -10   4 191.670 10.2599   8
   0 -10  -4 193.992 7.93305   9
   0  10  -4 164.179 8.49689   2
   0  10   4 183.841 8.32332   7
   0  10   4 172.339 9.43346  10
   0  10  -4 178.264 7.95999  11
   2 -10   4 10.4223 3.12783   8
  -2 -10  -4 16.9777 3.14419   6
  -2  10  -4 9.83587 2.61543  11
   2  10   4 10.4363 3.12475   7
  -2  10  -4 9.88735 3.06206   2
   2  10   4 9.12789 2.94123  10
   4 -10   4 27.5222 4.92942   8
  -4 -10  -4 28.9557 4.03456   6
   4  10   4 22.7838 3.41129   2
   4  10   4 26.7530 4.53901   7
   4  10   4 20.2841 3.93167  10
  -4  10  -4 22.0865 3.75228  11
  -4  10  -4 22.5507 3.52422   5
   7 -11  -4 56.2169 4.45944   6
   7 -11  -4 67.6267 7.39392   8
  -7 -11   4 53.1498 4.69115  12
  -7  11   4 61.7836 5.24782  11
   7  11  -4 56.2425 6.08608  10
   5 -11  -4 260.339 10.0307   6
   5 -11  -4 266.441 13.2726   8
  -5 -11   4 264.489 9.51489   1
  -5 -11   4 270.743 9.84249  16
   5  11  -4 249.917 12.1447  10
  -5  11   4 268.441 10.7842   2
   5  11  -4 255.079 11.4963   2
   3 -11  -4 880.617 27.8338   8
   3 -11  -4 974.347 26.3825   9
   3 -11  -4 960.147 25.4154   6
  -3 -11   4 949.226 24.9398   1
  -3  11   4 986.258 27.2373  10
   3  11  -4 928.791 25.1632  11
   3  11  -4 954.177 27.2779   2
  -3  11   4 961.970 26.6491   2
   3  11  -4 953.841 27.2258  10
   1 -11  -4 540.870 16.3750   6
   1 -11  -4 512.842 16.2935   9
  -1 -11   4 522.734 19.1321   8
  -1  11   4 538.647 18.4072  10
   1  11  -4 513.989 16.2967  11
   1  11  -4 520.592 17.7830   2
   1 -11   4 513.088 19.2386   8
  -1 -11  -4 504.834 16.1572   6
  -1  11  -4 496.689 16.3380  11
  -1  11  -4 517.842 17.0790   2
   1  11   4 481.570 16.3598   7
   1  11   4 493.579 18.2598  10
  -3 -11  -4 338.325 12.6303   6
   3 -11   4 333.693 15.4564   8
  -3  11  -4 332.376 12.4709   5
   3  11   4 344.807 13.7277   7
   3  11   4 338.277 14.8747  10
  -3  11  -4 337.909 12.5000   2
  -3  11  -4 314.616 12.5191  11
   6 -12  -4 862.221 28.7891   8
   6 -12  -4 825.531 23.5627   6
   6  12  -4 833.843 25.2483   2
  -6  12   4 886.122 24.3160  11
   6  12  -4 840.404 26.6610  10
  -4 -12   4 438.402 14.1730   1
   4 -12  -4 433.039 14.7091   6
   4 -12  -4 460.954 18.1551   8
   4  12  -4 478.150 16.8199   2
  -4  12   4 494.495 16.2509   2
   4  12  -4 435.345 16.4492  10
   2 -12  -4 718.011 20.9707   6
  -2 -12   4 698.311 23.5721   8
  -2  12   4 756.958 22.7030   2
   2  12  -4 742.100 21.2882  11
   2  12  -4 719.721 22.9804   2
  -2  12   4 728.842 22.8605  10
   0 -12  -4 958.980 26.2026   6
   0 -12   4 934.636 29.4732   8
   0  12   4 952.179 27.7845   2
   0  12  -4 941.710 27.6044   2
   0  12   4 932.077 28.3918  10
   0  12  -4 948.019 26.3858  11
  -2 -12  -4 398.206 14.0548   6
   2 -12   4 377.166 16.4773   8
   2  12   4 356.083 14.4420   2
  -2  12  -4 377.460 13.9867   2
   2  12   4 374.212 16.0299  10
  -2  12  -4 378.962 14.0009  11
   3 -13  -4 112.487 6.44051   6
   3  13  -4 111.330 8.30548   2
   3  13  -4 102.663 7.58427  10
  -3  13   4 102.777 7.23395   2
   1 -13  -4 4.23364 2.27417   6
  -1 -13   4 6.97950 2.59290   8
  -1  13   4 11.3708 3.34370   2
  -1  13   4 4.02997 2.92480  10
   1  13  -4 2.88564 3.29546   2
   1  13  -4 2.21805 1.94514  11
  12   0  -5 1.36669 2.23900   3
  12   0  -5 2.27335 2.74786  14
 -12   0   5 0.97352 2.24293  12
 -12   0   5 1.63992 2.39176   1
  10   0  -5 0.68187 1.82922   3
 -10   0   5 0.19071 1.70371  16
 -10   0   5 5.75776 2.22353  12
  10   0  -5 -0.1113 2.60366  14
 -10   0   5 2.47631 1.97268   1
  -8   0   5 1.70920 1.45947   1
  -8   0   5 0.83421 1.30744  16
   8   0  -5 0.14798 1.97298  14
   8   0  -5 -0.5440 1.29096   3
  -8   0   5 2.19864 1.35608  12
  -6   0   5 0.41958 0.91958  16
   6   0  -5 0.32017 0.77987   3
   6   0  -5 1.84012 0.68320   9
  -6   0   5 0.75417 0.72532   1
  -6   0   5 1.44967 0.81656  12
   6   0  -5 1.48318 1.45088  14
  -4   0   5 1.03730 0.44361  15
  -4   0   5 2.32034 0.56752  12
  -4   0   5 0.50288 0.76001  13
   4   0  -5 1.26400 0.79829   3
   4   0  -5 1.50451 0.63991   9
   4   0  -5 1.26313 0.54205   2
  -4   0   5 -0.2074 0.43252   1
  -4   0   5 0.68623 0.70687  16
  -2   0   5 0.97021 0.47585   1
  -2   0   5 0.82083 0.71045  13
   2   0  -5 1.69408 0.74845   2
   2   0  -5 3.02506 0.75176   3
  -2   0   5 0.55141 0.43477  16
   2   0  -5 3.52384 0.63395  11
  -2   0   5 0.07677 0.37553   4
   0   0   5 1.35549 0.59428   4
   0   0  -5 3.07233 0.66439   5
   0   0   5 3.53032 0.83990  13
   0   0  -5 1.26159 0.82816  15
   0   0  -5 1.08210 0.70422  11
   2   0   5 1.39663 0.72329   7
   2   0   5 4.16518 1.05917  13
  -2   0  -5 1.52870 1.09522  15
  -2   0  -5 0.40973 0.65599  11
   2   0   5 2.37731 0.89302   4
  -2   0  -5 1.94165 0.65886  12
  -2   0  -5 0.73311 0.82774   5
  -4   0  -5 0.58350 0.83088  12
  -4   0  -5 1.23778 1.26870  15
   4   0   5 0.20108 0.90711   4
  -4   0  -5 1.51636 1.34106  11
   4   0   5 2.58700 1.45716   7
   4   0   5 -0.0094 1.18802  13
  -4   0  -5 1.00985 1.26711   5
   6   0   5 8.35372 1.91997   4
  -6   0  -5 6.37882 1.92843   5
  -6   0  -5 1.16926 1.20521  11
   8   0   5 2.96093 1.67708   4
  -8   0  -5 1.60463 2.22972   5
 -11  -1   5 7.29743 2.71065   1
  11  -1  -5 6.37149 2.62161   3
  11  -1  -5 8.33254 4.37539  14
 -11  -1   5 7.11356 2.46366  12
 -11  -1   5 4.68884 2.19599  16
 -11   1   5 8.32277 2.79049   1
  11   1  -5 4.88399 3.10465  14
 -11   1   5 8.64920 2.60118  12
 -11   1   5 7.53618 2.51096  16
  11   1  -5 9.26433 2.90727   3
   9  -1  -5 27.0581 3.68707   3
  -9  -1   5 25.0522 3.02970  12
  -9  -1   5 30.7638 3.48432  16
   9  -1  -5 21.1202 4.59819  14
  -9  -1   5 24.0246 3.06602   1
  -9   1   5 17.8749 2.92603   1
   9   1  -5 22.1877 3.45798   3
   9   1  -5 26.0088 2.71493  10
  -9   1   5 26.8955 3.18120  12
  -9   1   5 22.6387 3.19484  16
   9   1  -5 23.3176 4.85198  14
   7  -1  -5 275.278 9.97355   3
   7  -1  -5 260.581 7.90601   9
  -7  -1   5 271.783 8.30897  12
   7  -1  -5 276.680 12.7660  14
  -7  -1   5 269.745 8.86437   1
  -7  -1   5 261.316 8.85461  16
  -7   1   5 277.839 9.04631  16
   7   1  -5 264.594 9.02262  10
   7   1  -5 284.635 9.98903   3
  -7   1   5 270.072 8.83725   1
  -7   1   5 277.850 8.35398  12
   7   1  -5 279.214 12.1402  14
  -5  -1   5 1115.12 25.7338   1
  -5  -1   5 1123.26 25.8158  16
   5  -1  -5 1075.63 25.5018   9
   5  -1  -5 1078.81 27.0958   3
   5  -1  -5 1089.62 29.1949  14
  -5  -1   5 1095.77 24.8962  12
   5   1  -5 1081.17 28.0758  14
  -5   1   5 1094.03 25.5546   1
   5   1  -5 1105.72 26.8319   3
  -5   1   5 1102.82 24.8553  12
   5   1  -5 1090.91 26.5926  10
  -5   1   5 1074.74 24.2983  15
   5   1  -5 1068.91 25.0606   2
   5   1  -5 1074.60 25.0974   9
  -5   1   5 1107.24 25.6914  16
  -5   1   5 1115.77 24.4374  15
   3  -1  -5 155.156 6.54709  14
   3  -1  -5 145.829 4.26102  11
   3  -1  -5 147.057 5.07995   9
  -3  -1   5 157.567 4.79529   1
   3  -1  -5 148.123 4.31842   6
  -3  -1   5 155.273 4.04023  12
   3  -1  -5 157.167 5.59721   3
  -3  -1   5 155.830 4.86056  16
  -3  -1   5 158.257 5.25931  13
  -3  -1   5 151.979 4.84232  15
   3   1  -5 161.270 5.15564   2
   3   1  -5 151.516 4.21566  11
   3   1  -5 154.986 5.32338   3
   3   1  -5 160.035 5.58449  10
   3   1  -5 156.478 5.75819  14
   3   1  -5 153.230 4.59872  15
  -3   1   5 149.691 4.49746   1
  -3   1   5 148.229 4.88139  15
  -3   1   5 158.337 5.18358  13
  -3   1   5 151.383 4.55024  16
   1  -1  -5 177.489 5.05074  11
   1  -1  -5 159.810 4.36165   6
   1  -1  -5 160.424 4.48536   5
  -1  -1   5 156.910 4.82807   4
  -1  -1   5 165.762 5.35703  13
   1  -1  -5 163.545 5.05465   3
  -1  -1   5 161.994 4.64618   1
  -1  -1   5 160.219 4.68742  16
  -1   1   5 155.413 4.13993   1
   1   1  -5 170.547 6.06675  15
  -1   1   5 162.434 5.01770   4
  -1   1   5 167.717 5.16189  13
   1   1  -5 164.036 5.50237   2
   1   1  -5 158.536 4.93993  11
   1   1  -5 158.022 4.48742   3
  -1   1   5 155.039 4.16790  16
   1   1  -5 162.491 4.43314   5
   1  -1   5 55.0352 2.99855  13
  -1  -1  -5 49.9466 3.70082  15
   1  -1   5 54.3849 2.60096   4
  -1  -1  -5 48.1967 2.72944  11
  -1  -1  -5 50.6524 2.59711   5
   1  -1   5 51.2171 2.67565   7
  -1   1  -5 48.3791 2.83527  11
   1   1   5 57.8194 2.87556   4
  -1   1  -5 54.9425 2.96370   2
  -1   1  -5 56.5148 3.98368  15
  -1   1  -5 55.3629 2.67721   5
   1   1   5 50.2578 2.99646   7
   1   1   5 54.6688 2.76646  13
  -3  -1  -5 320.132 9.70981  11
   3  -1   5 323.208 9.98103  13
  -3  -1  -5 330.713 10.0584   5
   3  -1   5 309.606 9.33080   7
  -3  -1  -5 315.971 12.0077  15
   3  -1   5 319.856 9.47724   4
  -3  -1  -5 345.063 8.90833  12
  -3   1  -5 327.159 10.0928  11
  -3   1  -5 319.123 10.0531   5
  -3   1  -5 324.703 12.4021  15
  -3   1  -5 291.041 8.82283  12
   3   1   5 336.757 10.2620   7
   3   1   5 332.819 9.63403   4
   3   1   5 323.463 9.63042  13
  -5  -1  -5 261.304 9.22906  11
  -5  -1  -5 259.163 9.77378   5
  -5  -1  -5 299.235 10.3394  12
   5  -1   5 251.421 8.97540   4
  -5   1  -5 243.121 8.57025  12
   5   1   5 246.948 8.86814   4
   5   1   5 259.470 9.51947   7
  -5   1  -5 273.884 9.93742   5
  -5   1  -5 268.355 9.50366  11
  -7  -1  -5 101.444 5.67288  11
  -7  -1  -5 96.5869 6.25006   5
   7  -1   5 100.569 5.87612   4
  -7   1  -5 101.828 5.78456  11
  -7   1  -5 102.640 6.64677   5
   7   1   5 94.8234 5.81956   4
  12  -2  -5 219.530 15.7853  14
 -12  -2   5 222.954 9.73758  12
 -12  -2   5 209.797 9.83223   1
  12  -2  -5 225.999 10.9122   3
  12   2  -5 220.737 10.9739   3
  12   2  -5 237.565 15.2684  14
 -12   2   5 218.852 9.90126  12
 -12   2   5 214.579 10.3502   1
 -10  -2   5 600.699 18.2349  16
  10  -2  -5 596.370 25.1897  14
  10  -2  -5 595.454 19.1547   3
 -10  -2   5 589.265 18.0539   1
 -10  -2   5 585.024 17.3637  12
 -10   2   5 602.003 18.1360   1
 -10   2   5 592.177 17.3955  12
  10   2  -5 599.786 23.5545  14
  10   2  -5 582.529 19.1138   3
 -10   2   5 580.965 18.1728  16
  -8  -2   5 306.256 10.4170  16
   8  -2  -5 339.119 15.7440  14
  -8  -2   5 310.941 10.3460   1
   8  -2  -5 313.970 11.4618   3
  -8  -2   5 311.171 9.85931  12
   8  -2  -5 288.670 9.17070   9
   8  -2  -5 295.053 11.5749   8
  -8   2   5 327.981 9.92826  12
  -8   2   5 317.568 10.5530  16
   8   2  -5 305.697 10.4020  10
   8   2  -5 315.026 11.4446   3
   8   2  -5 324.010 14.0975  14
   6  -2  -5 513.594 15.3830   8
   6  -2  -5 516.779 13.6399   9
   6  -2  -5 546.335 18.5881  14
  -6  -2   5 517.434 13.8907   1
  -6  -2   5 517.446 13.3099  12
   6  -2  -5 523.510 15.3626   3
  -6  -2   5 517.624 14.0486  16
   6   2  -5 535.615 16.5780  14
   6   2  -5 514.296 12.9271   2
   6   2  -5 470.595 12.9143   9
   6   2  -5 517.509 14.7135  10
  -6   2   5 543.404 13.2326  15
  -6   2   5 540.286 14.0506  16
  -6   2   5 524.488 13.2388  12
  -6   2   5 524.946 12.6661   5
  -4  -2   5 1412.91 31.8716  13
   4  -2  -5 1367.75 32.7301   8
   4  -2  -5 1386.19 31.6772   9
   4  -2  -5 1364.95 30.9603   6
  -4  -2   5 1392.08 31.4566  16
  -4  -2   5 1363.69 31.3257   1
  -4  -2   5 1378.40 30.5883  12
   4  -2  -5 1332.23 32.7160   3
   4  -2  -5 1376.61 34.8543  14
  -4   2   5 1377.11 30.9554   1
   4   2  -5 1353.48 31.4308   2
   4   2  -5 1337.64 32.3864  10
  -4   2   5 1405.06 31.0920  16
  -4   2   5 1365.64 30.2961  12
   4   2  -5 1364.62 32.3671  14
   4   2  -5 1353.11 29.9448  11
  -2  -2   5 756.745 18.5333  13
   2  -2  -5 767.037 18.9386   3
   2  -2  -5 761.366 17.8489  11
   2  -2  -5 778.539 17.7116   6
  -2  -2   5 771.258 18.1027  16
  -2  -2   5 765.083 18.0015   1
   2  -2  -5 758.280 18.6781   9
  -2  -2   5 756.791 17.7818   4
  -2   2   5 772.482 17.2172   1
   2   2  -5 779.638 18.9603  15
   2   2  -5 756.868 17.8912  11
   2   2  -5 758.226 18.7971   2
   2   2  -5 753.721 18.9080  10
  -2   2   5 782.764 18.2783  13
  -2   2   5 775.362 17.2506  16
   2   2  -5 768.797 18.0633   3
  -2   2   5 768.123 18.1023   4
   0  -2   5 1211.19 27.6842   1
   0  -2   5 1265.77 28.6171  13
   0  -2  -5 1222.44 27.8394   5
   0  -2  -5 1191.16 28.0538  11
   0  -2   5 1204.88 27.7655   4
   0   2   5 1231.18 29.1261   7
   0   2   5 1218.65 27.8548  13
   0   2  -5 1202.71 27.8899   5
   0   2   5 1215.44 28.0604   4
   0   2  -5 1242.45 30.4255  15
   0   2  -5 1243.03 28.5085  11
   0   2  -5 1234.42 28.8146   2
  -2  -2  -5 952.866 23.3827  11
  -2  -2  -5 985.213 23.5211   5
   2  -2   5 978.434 23.8413  13
   2  -2   5 962.772 23.0426   4
   2  -2   5 931.189 22.5726   7
   2   2   5 975.848 23.2686   4
  -2   2  -5 950.227 23.5356   5
   2   2   5 963.954 24.2342   7
   2   2   5 965.566 22.9436  13
  -2   2  -5 950.638 26.3255  15
  -2   2  -5 997.602 23.5860   2
  -2   2  -5 982.644 23.8473  11
   4  -2   5 191.740 6.92530   4
   4  -2   5 195.233 7.81608   8
   4  -2   5 200.729 7.85211  13
  -4  -2  -5 187.375 7.18304  11
  -4  -2  -5 195.392 7.58681   5
  -4   2  -5 205.249 9.97741  15
   4   2   5 204.695 7.41599   4
  -4   2  -5 203.802 7.94148   5
  -4   2  -5 187.389 6.70869  12
  -4   2  -5 200.228 7.69127  11
   4   2   5 191.943 7.79718   7
  -6  -2  -5 275.529 10.9150   5
   6  -2   5 285.047 9.91030   4
  -6  -2  -5 293.061 10.1620  11
   6   2   5 262.747 9.77604   4
  -6   2  -5 285.569 10.9788   5
  -6   2  -5 275.435 10.1952  11
   6   2   5 266.342 10.3919   7
  -6   2  -5 273.165 9.56121  12
  -8  -2  -5 280.301 11.9825   5
   8  -2   5 270.205 15.0898  14
   8  -2   5 272.110 10.2450   4
   8   2   5 281.179 10.5662   4
  -8   2  -5 260.598 11.4781   5
  11  -3  -5 165.522 13.2146  14
  11  -3  -5 155.983 8.66975   3
 -11  -3   5 152.608 8.02738  16
 -11  -3   5 150.701 8.08913   1
 -11  -3   5 164.661 8.00910  12
  11   3  -5 150.997 8.89686   3
 -11   3   5 159.454 7.85391  12
 -11   3   5 133.551 8.90766  16
 -11   3   5 159.680 8.02473   1
  11   3  -5 155.868 11.6158  14
   9  -3  -5 57.0026 7.47266  14
  -9  -3   5 66.4490 4.44078  12
  -9  -3   5 65.0191 4.42667  16
   9  -3  -5 60.1578 5.47544   8
  -9  -3   5 65.1376 4.72155   1
   9  -3  -5 60.5785 5.06556   3
   9   3  -5 61.0438 4.49367  10
  -9   3   5 70.2263 4.57601  12
   9   3  -5 69.1217 6.86179  14
  -9   3   5 61.0755 4.65617  16
  -7  -3   5 139.902 5.84365   1
   7  -3  -5 159.227 10.0192  14
   7  -3  -5 144.368 7.27438   8
   7  -3  -5 155.950 7.12098   3
  -7  -3   5 146.250 5.64020  12
  -7  -3   5 145.965 6.00512  16
   7  -3  -5 143.127 5.65462   9
  -7   3   5 144.986 5.20928   5
   7   3  -5 150.041 8.06464  14
   7   3  -5 147.951 6.65857  10
  -7   3   5 137.323 5.89636  16
  -7   3   5 145.765 5.61551  12
   5  -3  -5 5.01326 1.55504   3
   5  -3  -5 5.83455 1.09434   6
   5  -3  -5 10.5553 2.03405   8
   5  -3  -5 8.91808 1.46002   9
   5  -3  -5 4.75340 2.01977  14
  -5  -3   5 7.58178 1.30713  16
  -5  -3   5 6.46341 1.22488  13
  -5  -3   5 7.57858 1.33128   1
  -5  -3   5 5.77567 1.09161  12
   5   3  -5 7.85820 1.35174   2
   5   3  -5 9.25585 1.69567  14
  -5   3   5 6.40700 1.16419  15
  -5   3   5 5.97539 1.11471  16
   5   3  -5 4.42177 1.62316  10
   3  -3  -5 2.72895 0.82642   9
  -3  -3   5 3.48737 0.84935   1
  -3  -3   5 5.54347 1.05382  13
  -3  -3   5 3.49620 0.86194  16
  -3  -3   5 2.69971 0.66233  12
   3  -3  -5 3.60964 1.15303   3
   3  -3  -5 5.24173 1.53117  14
   3  -3  -5 3.52866 1.15973   8
   3  -3  -5 2.91100 0.78373   6
   3   3  -5 4.04730 0.98308  15
   3   3  -5 2.14224 0.73166  11
  -3   3   5 1.79949 0.83324  13
   3   3  -5 1.61355 1.16530  10
   3   3  -5 3.08877 1.22468   2
  -1  -3   5 30.0906 1.84670   1
   1  -3  -5 35.3949 2.38428   9
  -1  -3   5 33.1800 1.69127   4
   1  -3  -5 33.8881 1.89755   6
  -1  -3   5 35.6002 2.02265  16
  -1  -3   5 35.1030 2.24592  13
   1  -3  -5 32.5864 2.32717   3
   1  -3  -5 35.6577 1.86866   5
   1   3  -5 32.1031 1.92834   5
   1   3  -5 33.0681 2.77328  15
   1   3  -5 35.1842 2.69495   2
  -1   3   5 31.5989 1.80154  13
   1   3  -5 32.3835 1.49552   3
   1   3  -5 33.8797 2.19346  10
  -1   3   5 29.8033 1.86478   4
   1  -3   5 350.684 10.1072  13
  -1  -3  -5 334.314 9.59298  11
  -1  -3  -5 344.090 9.55113   5
   1  -3   5 343.204 9.15716   4
  -1  -3  -5 335.699 9.77220   9
   1   3   5 342.704 9.48109   4
  -1   3  -5 321.776 9.55416   5
   1   3   5 334.582 8.98656  13
  -1   3  -5 339.957 10.0153  11
  -1   3  -5 337.866 11.9208  15
   1   3   5 346.924 10.7058   7
  -1   3  -5 344.421 10.1220   2
  -3  -3  -5 27.3507 2.54811  11
  -3  -3  -5 25.3631 2.68124   5
   3  -3   5 27.2646 2.55223  13
  -3  -3  -5 26.2368 2.32263   9
   3  -3   5 27.4667 2.25083   4
  -3   3  -5 29.9037 3.05112  11
   3   3   5 28.5075 3.27511   7
   3   3   5 27.8838 2.38448   4
   3   3   5 26.4252 2.67103  10
  -3   3  -5 28.4060 3.84196  15
  -3   3  -5 24.3535 2.74420   5
  -3   3  -5 27.5273 2.37761   2
   5  -3   5 131.857 5.79208   4
  -5  -3  -5 111.553 5.45748  11
  -5  -3  -5 114.644 6.25963   5
  -5   3  -5 126.019 5.98016  11
  -5   3  -5 112.523 5.34779  12
  -5   3  -5 119.651 6.18607   5
   5   3   5 114.736 6.18854   7
   5   3   5 107.727 5.65535   4
   7  -3   5 44.3900 5.66552  14
  -7  -3  -5 33.7201 4.15940   5
   7  -3   5 39.8072 3.93755   4
   7   3   5 32.7485 4.28757   7
  -7   3  -5 35.9285 3.46415  11
  -7   3  -5 46.5042 5.01001   5
   7   3   5 36.0402 3.93025   4
  12  -4  -5 155.055 13.1417  14
  12  -4  -5 145.397 8.60491   3
 -12  -4   5 137.467 7.57813   1
 -12  -4   5 136.761 7.78906  12
 -12   4   5 146.430 8.27539   1
  12   4  -5 129.797 8.70046   3
 -12   4   5 143.498 7.52538  12
  10  -4  -5 87.3444 9.85902  14
 -10  -4   5 73.3511 5.01493  16
 -10  -4   5 75.3156 5.24736  12
  10  -4  -5 77.9947 6.04370   3
 -10  -4   5 73.1023 5.39848   1
  10  -4  -5 84.5249 6.88467   8
  10   4  -5 79.8298 7.88121  14
 -10   4   5 80.5917 5.34706  12
 -10   4   5 77.6182 5.62947  16
  10   4  -5 86.9750 5.51557  10
   8  -4  -5 443.781 14.8297   3
  -8  -4   5 417.467 13.0867  13
   8  -4  -5 440.433 15.7532   8
  -8  -4   5 453.267 13.1447  12
  -8  -4   5 439.604 13.5134  16
   8  -4  -5 441.094 13.0890   9
  -8  -4   5 438.316 13.3796   1
   8  -4  -5 451.680 19.9263  14
  -8   4   5 464.036 13.0955  12
  -8   4   5 412.594 13.2525  16
   8   4  -5 443.265 14.3169  10
   8   4  -5 450.695 16.6928  14
  -8   4   5 460.275 13.1696   5
  -6  -4   5 108.884 4.81072   1
   6  -4  -5 117.073 6.33321   8
   6  -4  -5 106.381 7.71669  14
  -6  -4   5 116.937 5.01299  16
  -6  -4   5 109.320 4.75924  13
   6  -4  -5 113.351 4.73419   6
   6  -4  -5 115.089 6.11748   3
   6  -4  -5 112.788 4.98896   9
  -6  -4   5 114.034 4.61262  12
   6   4  -5 105.868 4.42138   2
  -6   4   5 114.878 5.15391  15
   6   4  -5 106.760 5.73906  14
   6   4  -5 113.024 5.94501  10
  -6   4   5 115.088 4.88661  16
  -4  -4   5 5.31443 1.30990   1
   4  -4  -5 3.11824 1.06064   6
   4  -4  -5 5.11139 1.50608   3
  -4  -4   5 5.15090 1.19057  13
   4  -4  -5 3.98905 1.84500  14
  -4  -4   5 5.07429 1.01423  12
   4  -4  -5 5.37371 1.56899   8
  -4  -4   5 4.91363 1.09645  16
   4  -4  -5 3.61548 1.00166   9
   4   4  -5 3.86916 1.66830  10
   4   4  -5 5.85843 1.60930   2
  -4   4   5 4.37398 0.91615  16
  -2  -4   5 1272.80 28.7275   4
   2  -4  -5 1288.12 29.5053   6
  -2  -4   5 1293.39 29.6615   1
  -2  -4   5 1301.09 29.7853  16
   2  -4  -5 1289.35 30.3255   9
   2  -4  -5 1301.08 31.0015   3
   2  -4  -5 1302.05 30.5778   8
  -2  -4   5 1293.07 29.9760  13
   2   4  -5 1279.21 30.5059  10
  -2   4   5 1277.02 28.1832  16
   2   4  -5 1253.69 29.7471  11
  -2   4   5 1276.54 29.3757   4
  -2   4   5 1261.12 29.1606  13
   2   4  -5 1348.79 30.9983   2
   2   4  -5 1261.63 31.3224  15
   0  -4  -5 552.339 14.8427   9
   0  -4   5 585.221 15.0129  13
   0  -4  -5 569.490 14.3967   6
   0  -4   5 568.800 13.7701   4
   0  -4   5 569.086 14.3638   1
   0  -4  -5 571.583 14.3939   5
   0   4  -5 544.953 14.4121   5
   0   4  -5 563.011 14.2564  10
   0   4   5 561.062 13.5358  13
   0   4  -5 584.723 15.2461  11
   0   4  -5 583.154 15.4651   2
   0   4   5 591.924 15.9536   7
   0   4   5 565.280 14.2770   4
   0   4  -5 573.244 17.0322  15
   2  -4   5 52.0832 2.85204   4
   2  -4   5 56.8758 3.49393  13
  -2  -4  -5 53.4543 3.31114   5
  -2  -4  -5 50.5200 3.03783   9
  -2   4  -5 53.4537 3.48403   5
  -2   4  -5 50.7942 3.46817  11
   2   4   5 50.0625 3.11267   4
  -2   4  -5 53.3733 3.38739   2
  -2   4  -5 52.3616 4.58529  15
   2   4   5 59.3964 4.18489   7
  -4  -4  -5 287.635 10.1055   5
   4  -4   5 287.523 10.2607  13
   4  -4   5 302.943 9.26747   4
   4  -4   5 298.233 11.1026   8
  -4   4  -5 268.508 12.4483  15
   4   4   5 294.615 10.9605   7
   4   4   5 291.580 9.59818   4
  -4   4  -5 288.365 10.1327   5
   4   4   5 272.671 10.0162  10
  -4   4  -5 297.504 10.1609  11
   6  -4   5 66.7355 4.50842   4
  -6  -4  -5 60.3075 4.76877   5
   6   4   5 67.5054 5.64840   7
  -6   4  -5 64.1094 4.76731  11
  -6   4  -5 76.4549 5.51516   5
  -6   4  -5 65.1234 4.12064  12
   6   4   5 66.8273 4.43663   4
 -11  -5   5 78.2209 5.79627  12
  11  -5  -5 81.6092 9.85679  14
 -11  -5   5 72.3664 5.21306   1
  11  -5  -5 74.2695 7.23567   8
  11  -5  -5 64.9836 5.80314   3
 -11   5   5 73.4111 5.53176  12
  11   5  -5 63.7112 6.20874   3
  -9  -5   5 203.673 8.43212  16
   9  -5  -5 206.370 14.0146  14
   9  -5  -5 209.455 10.7724   8
  -9  -5   5 201.874 8.30290  12
  -9  -5   5 189.746 8.32830   1
   9  -5  -5 207.814 9.67665   3
  -9   5   5 191.321 8.26560  16
  -9   5   5 208.972 8.28680  12
   9   5  -5 214.031 9.33205  10
  -7  -5   5 291.379 9.34839  12
  -7  -5   5 297.520 9.74132   1
  -7  -5   5 276.956 9.24880  13
   7  -5  -5 275.332 9.70872   9
  -7  -5   5 296.919 9.82699  16
   7  -5  -5 301.642 11.3056   3
   7  -5  -5 288.483 14.8811  14
   7  -5  -5 294.324 9.58589   6
   7  -5  -5 282.474 11.6906   8
   7   5  -5 288.999 10.3343   7
   7   5  -5 282.220 10.6663  10
  -7   5   5 299.824 9.08760   5
  -5  -5   5 29.1658 2.28678  12
   5  -5  -5 28.5026 4.04298  14
  -5  -5   5 29.9238 2.60068   1
  -5  -5   5 27.8469 2.30718  13
   5  -5  -5 30.9237 2.38465   6
   5  -5  -5 26.8064 2.92795   8
   5  -5  -5 30.1673 2.53327   9
   5  -5  -5 26.4031 3.25052   3
  -5  -5   5 30.1939 2.43264  16
   5   5  -5 40.8083 3.21095   2
  -5   5   5 30.6354 2.72152  15
   5   5  -5 31.3949 3.66365  10
   3  -5  -5 199.357 7.60837   8
  -3  -5   5 203.079 6.74130   1
   3  -5  -5 202.365 9.65742  14
   3  -5  -5 211.342 6.65441   6
   3  -5  -5 209.488 7.26145   9
  -3  -5   5 208.775 6.30929  12
   3  -5  -5 210.776 8.03458   3
  -3  -5   5 217.711 6.88945  16
  -3  -5   5 197.509 5.51691   4
  -3  -5   5 196.740 6.62527  13
   3   5  -5 200.520 7.70087  15
  -3   5   5 207.022 6.33289  13
   3   5  -5 196.450 6.56442  11
   3   5  -5 232.002 7.85204   2
  -3   5   5 199.532 5.73794  16
   3   5  -5 222.147 7.96305  10
  -1  -5   5 1329.12 30.7463   1
   1  -5  -5 1304.96 30.6960   6
  -1  -5   5 1325.67 30.8335  16
  -1  -5   5 1308.00 29.4547   4
  -1  -5   5 1338.38 31.0452  13
   1  -5  -5 1314.27 31.3536   9
   1   5  -5 1324.99 31.1044  10
   1   5  -5 1289.53 31.2503  11
  -1   5   5 1278.10 30.1982   4
  -1   5   5 1369.58 32.3598   7
   1   5  -5 1309.11 33.5170  15
   1   5  -5 1362.83 32.2167   2
   1  -5   5 95.1094 4.68600  13
  -1  -5  -5 91.1697 4.29095   5
  -1  -5  -5 95.8077 4.30179   9
  -1  -5  -5 95.0150 4.31714   6
   1  -5   5 88.8142 3.51420   4
  -1   5  -5 91.8438 6.19681  15
  -1   5  -5 96.9274 4.83903  11
   1   5   5 99.0007 5.39745   7
  -1   5  -5 94.0286 4.39191   5
  -1   5  -5 99.5973 4.88862   2
   1   5   5 100.702 4.08215   4
   3  -5   5 82.0596 3.80005   4
   3  -5   5 81.6591 5.65270   8
  -3  -5  -5 78.5317 4.55150   5
   3  -5   5 83.6425 4.94841  13
   3   5   5 83.6528 4.29785   4
  -3   5  -5 85.4130 4.65351   5
   3   5   5 87.2566 5.59355   7
  -3   5  -5 78.6150 4.31748   2
  -3   5  -5 77.5571 5.97775  15
   3   5   5 80.8508 5.34320  10
  -3   5  -5 83.9560 4.98135  11
  -5  -5  -5 126.136 6.68163   5
   5  -5   5 121.851 7.30558   8
   5  -5   5 128.665 5.62824   4
  -5   5  -5 112.297 6.43552   5
   5   5   5 129.044 6.20954   4
   5   5   5 112.310 6.76046   7
  -5   5  -5 126.693 6.18669  11
  -7  -5  -5 5.36742 2.53904   5
  -7   5  -5 2.50048 2.15175   5
   7   5   5 8.23806 2.05966   4
  -7   5  -5 5.98163 2.01467  12
  -7   5  -5 4.85149 2.04517  11
   7   5   5 1.98298 2.79646   7
  10  -6  -5 15.7570 4.19851   8
 -10  -6   5 9.59576 2.48214   1
 -10  -6   5 13.1875 2.85869  12
 -10  -6   5 12.4038 2.33411  16
  10  -6  -5 18.1419 5.69588  14
  10  -6  -5 10.2242 2.47824   3
 -10   6   5 8.72578 2.55331  12
  10   6  -5 12.3553 2.97880  10
 -10   6   5 12.0494 3.23294  16
   8  -6  -5 298.824 10.4213   9
  -8  -6   5 276.901 9.83334  12
   8  -6  -5 288.541 11.5155   3
   8  -6  -5 291.240 12.7520   8
  -8  -6   5 268.532 9.88830  16
  -8  -6   5 273.098 9.88598   1
   8  -6  -5 269.657 15.7264  14
   8   6  -5 278.250 11.1471  10
  -8   6   5 285.691 9.51520   5
   8   6  -5 294.080 10.9864   7
   6  -6  -5 373.413 11.8535   9
   6  -6  -5 377.662 11.3042   6
   6  -6  -5 378.605 13.7990   8
  -6  -6   5 363.730 11.2977   1
   6  -6  -5 381.420 13.2146   3
  -6  -6   5 370.106 10.9214  12
  -6  -6   5 360.256 11.3268  16
   6  -6  -5 360.134 16.7059  14
  -6  -6   5 342.765 10.4736  13
   6   6  -5 357.887 11.2628   2
  -6   6   5 379.656 12.6101  15
   6   6  -5 381.173 12.9886  10
   4  -6  -5 55.9477 4.14523   3
   4  -6  -5 54.6621 5.59020  14
  -4  -6   5 52.4477 2.88819  12
  -4  -6   5 52.5482 2.93109  13
   4  -6  -5 54.9965 3.32859   6
  -4  -6   5 53.4565 3.26333  16
   4  -6  -5 55.7868 4.27177   8
   4  -6  -5 57.5632 3.56770   9
  -4  -6   5 53.2321 3.34948   1
   4   6  -5 60.8921 4.47250   2
   4   6  -5 51.6855 3.63046  15
   4   6  -5 59.4128 4.67409  10
   4   6  -5 52.4270 2.98455  11
   2  -6  -5 278.555 9.63831   8
  -2  -6   5 293.756 9.17313  16
   2  -6  -5 295.872 9.62730   9
  -2  -6   5 290.685 8.99681  13
   2  -6  -5 329.573 9.33517   6
  -2  -6   5 301.969 9.09317   1
  -2   6   5 294.617 8.42270   4
   2   6  -5 354.360 10.3861  10
   2   6  -5 290.687 10.7965  15
   2   6  -5 287.117 9.31543  11
   2   6  -5 314.254 10.5672   2
  -2   6   5 308.681 10.1440   7
   0  -6   5 17.9864 2.20192   1
   0  -6  -5 16.1667 2.12254   9
   0  -6   5 20.5098 2.44320  13
   0  -6  -5 19.2879 2.13795   6
   0   6  -5 19.4935 3.01099   2
   0   6  -5 22.9883 2.04483  10
   0   6   5 21.4795 2.06290   4
   0   6  -5 19.7597 3.21011  15
   0   6  -5 19.5823 2.76664  11
   0   6   5 19.6873 2.84494   7
  -2  -6  -5 8.51490 1.85832   5
  -2  -6  -5 19.0016 2.23764   9
   2  -6   5 9.15156 2.06123  13
   2   6   5 11.0960 2.65025   7
  -2   6  -5 8.92916 1.84173   2
   2   6   5 8.87014 2.45126  10
   2   6   5 9.83588 1.60783   4
  -2   6  -5 9.68484 2.06803   5
  -2   6  -5 7.92517 2.78388  15
  -2   6  -5 15.2097 2.69208  11
  -4  -6  -5 475.976 14.7213   5
   4  -6   5 488.221 16.7737   8
  -4   6  -5 468.006 14.4534  11
  -4   6  -5 439.056 14.2483   5
   4   6   5 483.446 13.8527   4
   4   6   5 500.261 16.2083   7
   4   6   5 465.575 15.6213  10
  -6  -6  -5 92.4480 6.23510   5
   6  -6   5 90.1743 6.86355   8
  -6   6  -5 97.2558 6.27509   5
   6   6   5 94.8096 5.27105   4
  -6   6  -5 96.7483 5.87950  11
   6   6   5 97.4435 7.10178   7
  -9  -7   5 107.331 5.82400   1
   9  -7  -5 115.298 8.54799   8
  -9  -7   5 101.280 5.95971  12
  -9  -7   5 103.800 5.96378  16
   9  -7  -5 115.614 11.0843  14
   9  -7  -5 110.678 6.93844   3
  -9   7   5 115.689 6.20417  12
   9   7  -5 99.5790 6.67368  10
   7  -7  -5 8.18633 2.53306   8
  -7  -7   5 6.80873 1.61262  16
  -7  -7   5 5.58326 1.86811   1
   7  -7  -5 7.53428 2.15684   9
   7  -7  -5 6.28251 2.10305   3
   7  -7  -5 5.50612 3.34569  14
   7  -7  -5 1.96270 1.74361   6
  -7  -7   5 5.95569 1.82034  12
   7   7  -5 5.02731 2.18914  10
   7   7  -5 6.60668 1.98309   2
   7   7  -5 3.27165 1.92931   7
  -5  -7   5 84.4455 4.59549   1
   5  -7  -5 90.3550 5.15670   9
   5  -7  -5 91.6494 4.77447   6
   5  -7  -5 86.9887 5.77609   3
   5  -7  -5 94.6864 6.28144   8
  -5  -7   5 88.5222 4.26587  12
   5  -7  -5 89.4612 7.79729  14
  -5  -7   5 89.8568 4.60771  16
  -5   7   5 93.2212 5.83419  15
   5   7  -5 96.8236 6.46868  10
   5   7  -5 89.8965 5.61974   2
  -3  -7   5 66.5639 3.72838  16
   3  -7  -5 64.3461 4.15560   9
   3  -7  -5 70.2915 4.94528   3
  -3  -7   5 67.1817 3.42216  13
  -3  -7   5 64.5998 3.83356   1
   3  -7  -5 86.5198 4.11843   6
   3  -7  -5 64.5875 4.34838   8
   3   7  -5 62.9561 4.68476  15
  -3   7   5 64.9563 3.13100   4
  -3   7   5 70.0206 4.39917   7
   3   7  -5 71.5602 4.68752  10
   3   7  -5 65.0720 3.84013  11
   3   7  -5 70.9740 5.28438   2
  -1  -7   5 45.5678 3.14932  13
   1  -7  -5 42.0461 3.10054   9
  -1  -7   5 45.2273 2.98918   1
   1  -7  -5 43.5742 3.03913   6
   1   7  -5 42.3010 3.89182   2
   1   7  -5 38.3525 3.69862  11
  -1   7   5 39.1973 3.72497   7
  -1   7   5 41.4050 2.48803   4
   1   7  -5 43.8443 4.50665  15
   1   7  -5 48.6983 3.44658  10
  -1  -7  -5 404.972 12.0149   9
  -1  -7  -5 408.423 12.3439   6
   1  -7   5 403.352 12.3134  13
  -1   7  -5 404.425 15.0160  15
   1   7   5 402.421 11.1231   4
  -1   7  -5 407.595 12.9896   2
   1   7   5 396.758 14.1763  10
  -1   7  -5 391.878 12.7128  11
   1   7   5 389.125 13.4471   7
  -3  -7  -5 27.8606 3.15473   5
   3  -7   5 27.8208 3.25881  13
   3  -7   5 25.0527 4.24646   8
   3   7   5 33.1764 4.42059  10
   3   7   5 25.2714 2.66079   4
  -3   7  -5 29.3166 3.63780  11
  -3   7  -5 30.4164 3.29120   5
   3   7   5 25.6566 3.66475   7
  -3   7  -5 28.3809 3.22448   2
   5  -7   5 13.7480 3.65159   8
  -5  -7  -5 16.3370 3.08963   5
   5   7   5 11.4701 2.62431  10
  -5   7  -5 15.2314 3.09087   5
  -5   7  -5 18.7176 3.23428  11
   5   7   5 16.9521 3.41030   7
 -10  -8   5 154.934 7.42370   1
  10  -8  -5 155.308 13.3266  14
  10  -8  -5 164.159 8.98345   3
 -10  -8   5 155.370 7.92479  12
  10  -8  -5 163.340 10.7772   8
 -10   8   5 152.349 7.56560  12
  10   8  -5 161.412 9.12224  10
  -8  -8   5 137.206 6.65276  16
   8  -8  -5 144.129 7.09458   6
  -8  -8   5 144.290 7.01172  12
   8  -8  -5 152.873 9.74172   8
   8  -8  -5 153.188 8.48358   3
  -8  -8   5 138.432 6.78279   1
   8  -8  -5 138.889 11.7507  14
   8   8  -5 150.493 8.40180  10
  -8   8   5 154.995 7.05036   5
  -6  -8   5 657.974 18.4239  16
  -6  -8   5 660.239 18.3534   1
  -6  -8   5 652.744 18.0487  12
   6  -8  -5 663.906 20.7879   3
   6  -8  -5 668.233 26.0241  14
   6  -8  -5 660.501 19.2943   9
   6  -8  -5 678.336 22.1271   8
   6  -8  -5 681.875 18.5299   6
  -6   8   5 661.233 20.8830  15
   6   8  -5 693.303 21.1867  10
   6   8  -5 669.896 19.2867   2
  -4  -8   5 1026.87 25.8439  16
  -4  -8   5 1036.23 25.3692  12
   4  -8  -5 1038.83 25.8682   6
   4  -8  -5 1022.74 26.7039   9
   4  -8  -5 1004.92 32.3735  14
   4  -8  -5 1009.01 28.1698   3
  -4  -8   5 1034.08 25.7138   1
   4  -8  -5 1025.05 28.5863   8
   4   8  -5 994.987 25.3405  11
   4   8  -5 1038.66 27.5870   2
   4   8  -5 1049.71 28.1116  10
  -2  -8   5 117.292 5.28334   1
   2  -8  -5 110.339 5.41755   6
   2  -8  -5 115.268 5.94078   8
  -2  -8   5 119.726 5.54310  16
   2  -8  -5 116.614 5.84908   9
  -2  -8   5 113.915 4.98250  13
  -2   8   5 122.938 6.19131   7
   2   8  -5 121.289 6.24098  10
   2   8  -5 120.446 7.07192   2
   2   8  -5 114.480 7.06084  15
   2   8  -5 123.865 5.91320  11
   0  -8  -5 170.067 7.00480   9
   0  -8  -5 164.525 6.84758   6
   0  -8   5 166.998 6.78764  13
   0  -8   5 169.496 6.73113   1
   0   8  -5 161.449 7.84113   2
   0   8   5 172.746 8.09015   7
   0   8  -5 177.940 7.78841  11
   0   8  -5 151.624 8.64922  15
   0   8   5 178.663 8.74453  10
   2  -8   5 604.667 17.4556  13
  -2  -8  -5 613.880 17.6349   6
   2  -8   5 615.448 20.2168   8
  -2   8  -5 601.905 17.6232   2
  -2   8  -5 574.668 16.9338   5
  -2   8  -5 568.967 17.4932  11
   2   8   5 607.846 19.8708  10
   2   8   5 607.627 18.9885   7
   4  -8   5 297.961 13.2796   8
  -4  -8  -5 305.818 11.5512   6
  -4   8  -5 277.562 10.4898   5
   4   8   5 302.351 12.6131   7
   4   8   5 288.199 12.2156  10
  -4   8  -5 282.064 10.9499  11
   6  -8   5 232.006 11.7691   8
  -6  -8  -5 233.718 10.2424   5
  -6   8  -5 236.552 9.68944  11
   6   8   5 230.464 11.4202   7
  -6   8  -5 223.719 9.77015   5
  -9  -9   5 4.28894 2.09598   1
  -9  -9   5 3.43528 2.22079  12
   9  -9  -5 5.51400 3.55509  14
   9  -9  -5 5.73120 2.97943   8
   9  -9  -5 3.28760 2.33402   3
   9   9  -5 6.31196 3.06355  10
   7  -9  -5 6.64956 2.36617   6
   7  -9  -5 4.90180 2.44613   3
   7  -9  -5 6.01240 2.44728   9
  -7  -9   5 4.81187 2.02112  12
  -7  -9   5 6.57238 2.00690  16
   7  -9  -5 5.30149 2.42778   8
   7  -9  -5 2.80416 2.80953  14
  -7  -9   5 4.90827 1.63235   1
   7   9  -5 6.06743 3.35779  10
  -5  -9   5 135.780 6.34351   1
  -5  -9   5 136.474 6.34264  16
   5  -9  -5 136.130 6.58510   6
   5  -9  -5 128.573 10.0448  14
  -5  -9   5 134.245 6.04910  12
   5  -9  -5 136.319 6.92229   9
   5  -9  -5 143.859 8.67665   8
   5   9  -5 144.573 8.51292  10
  -5   9   5 146.407 7.38502  10
   5   9  -5 142.072 7.90941   2
  -3  -9   5 44.1999 3.60377  16
   3  -9  -5 39.8361 3.60320   9
   3  -9  -5 41.2336 3.66306   6
  -3  -9   5 38.5991 3.53042   1
   3  -9  -5 38.9598 4.06913   8
  -3   9   5 37.3050 3.61426   7
   3   9  -5 46.0104 4.84918  10
   3   9  -5 39.2261 4.54855   2
   3   9  -5 35.3883 3.50479  11
  -3   9   5 38.3249 3.96596  10
  -1  -9   5 7.70859 1.71646  13
  -1  -9   5 8.07073 2.03797   1
   1  -9  -5 8.40403 2.15081   9
   1  -9  -5 10.9783 2.26811   6
   1   9  -5 7.83201 2.09391  11
  -1   9   5 9.96335 2.51980   7
  -1   9   5 8.07871 2.37433  10
   1   9  -5 6.94888 2.99205   2
   1   9  -5 8.64980 2.60780  15
   1   9  -5 10.5626 2.30016  10
  -1  -9  -5 31.8359 3.59694   6
   1  -9   5 29.9282 4.74319   8
   1   9   5 30.6614 4.19542   7
  -1   9  -5 35.2388 4.02852   2
  -1   9  -5 32.7397 4.12112  11
   1   9   5 29.4374 4.38905  10
   3  -9   5 38.7582 5.20661   8
  -3  -9  -5 44.9573 4.45097   6
   3   9   5 32.8459 4.73976   7
  -3   9  -5 36.9346 3.93903   2
  -3   9  -5 43.4934 4.73163  11
   3   9   5 40.0271 5.25025  10
  -3   9  -5 38.7454 4.32363   5
  -5  -9  -5 6.70205 2.54700   6
   5  -9   5 5.50204 3.28611   8
   5   9   5 6.95900 2.95720  10
  -5   9  -5 7.77206 2.63945  11
  -5   9  -5 8.24423 2.69180   5
   5   9   5 7.17059 2.74478   7
  -8 -10   5 14.3111 2.56588  12
  -8 -10   5 14.9312 2.67817   1
   8 -10  -5 11.6369 4.02244  14
   8 -10  -5 12.8871 3.52170   8
   8 -10  -5 13.4648 2.52451   6
  -8  10   5 15.0057 3.09836   5
   8  10  -5 13.4855 3.27789  10
   6 -10  -5 76.5829 8.70282  14
   6 -10  -5 89.1026 5.83853   9
  -6 -10   5 90.6990 5.20330  12
  -6 -10   5 89.7923 5.34436  16
   6 -10  -5 90.1443 7.76264   8
   6 -10  -5 93.3453 5.48794   6
  -6 -10   5 95.9867 5.47802   1
   6  10  -5 87.2081 6.06608   2
  -6  10   5 92.3367 5.58991   2
   6  10  -5 80.7060 6.63445  10
   4 -10  -5 21.8372 3.23918   9
  -4 -10   5 28.9443 3.36776  16
   4 -10  -5 23.6536 3.75661   8
  -4 -10   5 24.4339 3.10927   1
   4 -10  -5 26.1018 3.27443   6
  -4  10   5 25.4612 3.84604  10
   4  10  -5 26.0276 4.62640   2
   4  10  -5 26.7768 4.55742  10
  -2 -10   5 1.16220 1.65826   1
   2 -10  -5 1.72895 1.32646   9
   2 -10  -5 1.85051 1.36246   6
  -2  10   5 1.61711 2.23292  10
   2  10  -5 0.90804 1.47907  10
  -2  10   5 4.00114 2.02802   7
   2  10  -5 2.12299 3.02298   2
   2  10  -5 -0.3288 1.34047  11
   0 -10   5 14.3689 3.77000   8
   0 -10  -5 14.8007 2.65084   9
   0 -10  -5 15.2678 2.84874   6
   0  10   5 13.5260 3.20930   7
   0  10  -5 12.9129 3.52970   2
   0  10   5 19.4035 4.04345  10
   0  10  -5 19.7975 3.56357  11
  -2 -10  -5 0.44842 1.30922   6
   2 -10   5 -0.1770 2.59670   8
  -2  10  -5 5.05719 2.16060  11
   2  10   5 0.78289 1.80152  10
   2  10   5 0.05331 1.80276   7
  -2  10  -5 0.08267 1.57517   2
  -2  10  -5 3.89611 2.24067   5
  -4 -10  -5 81.0278 6.06641   6
   4 -10   5 76.9043 7.03283   8
  -4  10  -5 81.8119 6.05329  11
   4  10   5 83.4548 7.17250   7
  -4  10  -5 79.2349 5.47617   5
   4  10   5 79.7803 7.30300  10
  -7 -11   5 87.1092 5.69360  12
   7 -11  -5 106.807 8.30489   8
   7 -11  -5 88.1501 9.49823  14
   7 -11  -5 91.8140 5.71767   6
  -7  11   5 104.460 6.33004  11
   7  11  -5 92.6230 7.81156  10
  -5 -11   5 129.336 6.41508   1
   5 -11  -5 138.214 7.20510   6
   5 -11  -5 146.862 7.88535   9
   5 -11  -5 137.448 9.28344   8
  -5 -11   5 121.227 7.16668  16
  -5  11   5 142.119 7.49999   2
   5  11  -5 145.380 8.59223  10
   5  11  -5 143.174 8.64595   2
  -3 -11   5 120.100 8.04720   8
  -3 -11   5 122.676 6.23823   1
   3 -11  -5 128.271 6.55242   6
   3 -11  -5 133.171 7.36928   9
   3  11  -5 131.157 7.87557  10
   3  11  -5 119.537 8.31812   2
  -3  11   5 127.179 7.98631  10
   3  11  -5 120.245 6.66799  11
   1 -11  -5 116.901 6.59064   9
  -1 -11   5 112.313 8.33425   8
   1 -11  -5 114.560 6.66939   6
   1  11  -5 119.537 7.08220  11
   1  11  -5 111.705 7.92823   2
  -1  11   5 111.086 7.98273  10
   1 -11   5 88.1830 7.76670   8
  -1 -11  -5 88.7069 5.77515   6
   1  11   5 85.0063 6.48794   7
  -1  11  -5 92.1061 6.83449   2
   1  11   5 88.0861 7.56544  10
  -1  11  -5 83.8849 6.37544  11
  -3 -11  -5 64.8406 5.62077   6
   3 -11   5 59.2136 7.06144   8
   3  11   5 61.2059 6.20529  10
   3  11   5 63.5961 6.61897   7
  -3  11  -5 58.4155 5.21207   5
  -3  11  -5 65.5712 5.72891  11
   4 -12  -5 69.2434 5.41756   6
  -4 -12   5 74.6365 5.09666   1
   4  12  -5 72.5241 6.62457  10
  -4  12   5 71.6193 6.10039   2
   4  12  -5 69.6208 6.95838   2
   2 -12  -5 199.116 8.95209   6
  -2 -12   5 190.027 10.8673   8
   2 -12  -5 186.966 8.89295   9
   2  12  -5 183.577 8.49424  11
  -2  12   5 186.611 9.69856   2
   2  12  -5 177.082 10.2795   2
  -2  12   5 193.225 10.4075  10
   0 -12   5 352.844 15.6677   8
   0 -12  -5 349.962 12.9803   6
   0  12  -5 346.647 13.7780   2
   0  12  -5 343.768 13.1332  11
   0  12   5 329.915 14.6067  10
   0  12   5 357.679 14.2784   2
  12   0  -6 14.1694 3.62824   3
  12   0  -6 2.86391 3.63737  14
 -12   0   6 3.79360 2.55688   1
 -12   0   6 5.61802 2.59377  12
  10   0  -6 124.538 7.60998   3
 -10   0   6 120.405 6.59196   1
  10   0  -6 138.444 10.8611  14
 -10   0   6 128.702 6.14220  12
 -10   0   6 123.161 6.87587  16
   8   0  -6 464.593 15.2511   3
  -8   0   6 458.963 14.0253  16
  -8   0   6 483.713 13.2484  12
  -8   0   6 470.162 14.0778   1
   8   0  -6 505.348 19.0502  14
   6   0  -6 127.527 6.01736   3
   6   0  -6 129.928 7.15960  14
  -6   0   6 119.091 4.15894  12
  -6   0   6 126.243 5.03238  16
  -6   0   6 122.288 4.98660   1
   6   0  -6 119.778 4.56503   9
   4   0  -6 89.6068 3.81183   9
  -4   0   6 88.3986 4.08993  13
   4   0  -6 84.1358 3.59819   2
  -4   0   6 80.0517 2.54064  12
   4   0  -6 87.0785 4.24844   3
   4   0  -6 85.9308 2.76182  11
   4   0  -6 90.3586 4.97524  14
  -4   0   6 84.8889 3.36087   1
  -4   0   6 84.2202 3.46038  16
  -2   0   6 664.360 15.4110  16
   2   0  -6 643.177 16.0133   3
  -2   0   6 656.743 15.9832   4
  -2   0   6 657.176 15.3442   1
  -2   0   6 655.768 16.3995  13
   2   0  -6 656.951 16.5581   2
   2   0  -6 650.282 15.7221  11
   0   0  -6 120.053 4.18787   5
   0   0   6 120.956 4.52531   4
   0   0   6 126.783 4.90849   7
   0   0  -6 122.660 4.94055   2
   0   0   6 120.051 4.70580  13
   0   0  -6 123.099 5.88542  15
   0   0  -6 118.660 4.64362  11
   2   0   6 154.554 6.04780   7
  -2   0  -6 155.892 5.98699   5
   2   0   6 151.330 5.80904   4
  -2   0  -6 154.568 7.89811  15
   2   0   6 166.458 6.22731  13
  -2   0  -6 164.096 6.22098  11
   4   0   6 59.3692 3.83516   4
  -4   0  -6 56.0978 3.90983  11
   4   0   6 63.3944 4.21614  13
  -4   0  -6 54.6714 4.20557   5
   4   0   6 59.3412 4.00649   7
   6   0   6 77.0401 4.86893   4
  -6   0  -6 70.7764 5.29368   5
  -6   0  -6 80.9672 5.30788  11
  11  -1  -6 1210.19 40.5224  14
  11  -1  -6 1170.92 33.1086   3
 -11  -1   6 1141.80 31.6671  16
 -11  -1   6 1146.60 31.5038   1
 -11  -1   6 1194.23 30.7444  12
 -11   1   6 1187.37 31.7927   1
  11   1  -6 1183.66 33.0716   3
 -11   1   6 1124.34 31.5174  16
 -11   1   6 1172.49 30.5881  12
  11   1  -6 1238.16 39.8013  14
   9  -1  -6 751.707 27.0472  14
  -9  -1   6 731.027 19.6147  12
  -9  -1   6 736.502 20.8223  16
  -9  -1   6 756.124 20.7638   1
   9  -1  -6 746.325 22.2748   3
  -9   1   6 735.480 20.5773   1
  -9   1   6 737.417 19.6977  12
  -9   1   6 716.821 20.5621  16
   9   1  -6 780.385 26.6037  14
   9   1  -6 749.602 22.2079   3
  -7  -1   6 1407.46 32.6174  12
   7  -1  -6 1462.30 39.4792  14
  -7  -1   6 1443.32 33.7592   1
   7  -1  -6 1313.23 32.6571   9
  -7  -1   6 1443.64 33.9489  16
   7  -1  -6 1407.00 35.5569   3
  -7   1   6 1374.32 32.4985  12
  -7   1   6 1397.90 33.4848   1
   7   1  -6 1444.44 38.0060  14
  -7   1   6 1396.99 33.5834  16
   7   1  -6 1450.34 35.4051   3
   7   1  -6 1400.06 34.3130  10
  -5  -1   6 3106.57 67.8582  12
  -5  -1   6 3278.43 69.8535  13
   5  -1  -6 3090.54 69.1537   9
  -5  -1   6 3206.38 68.9947   1
  -5  -1   6 3179.93 69.0895  16
   5  -1  -6 3005.22 70.6384   3
   5  -1  -6 3206.36 73.2184  14
   5   1  -6 3086.44 70.4497   3
   5   1  -6 3093.04 68.7458   2
   5   1  -6 3063.11 71.4847  14
  -5   1   6 3177.61 68.7362   1
   5   1  -6 3014.67 68.6883   9
  -5   1   6 3086.32 67.6832  12
  -5   1   6 3169.25 68.8627  16
   5   1  -6 3001.22 70.1271  10
   3  -1  -6 1212.75 27.9873  11
   3  -1  -6 1269.77 31.6222  14
   3  -1  -6 1234.40 29.3106   9
  -3  -1   6 1253.48 29.2591  13
  -3  -1   6 1252.54 28.4786  16
  -3  -1   6 1236.85 28.3562   1
   3  -1  -6 1199.70 29.4659   3
   3   1  -6 1245.32 28.7821  15
   3   1  -6 1216.16 27.9396  11
   3   1  -6 1220.55 29.1710   2
  -3   1   6 1281.35 29.2205  13
   3   1  -6 1335.36 30.4225  14
  -3   1   6 1228.89 27.9779   1
   3   1  -6 1225.85 29.0953   3
  -3   1   6 1254.31 28.0804  16
   1  -1  -6 2083.64 46.8706   6
  -1  -1   6 2150.00 47.3251   1
  -1  -1   6 2181.78 47.4634  16
  -1  -1   6 2115.99 47.8361   4
   1  -1  -6 2157.08 47.8781   3
  -1  -1   6 2163.30 48.4620  13
   1  -1  -6 2122.39 47.9390  11
   1  -1  -6 2162.00 47.2608   5
  -1   1   6 2160.17 48.2047  13
   1   1  -6 2217.01 48.9329   2
  -1   1   6 2143.40 46.7373  16
  -1   1   6 2098.54 46.6804   1
  -1   1   6 2189.01 48.0889   4
   1   1  -6 2173.11 49.8127  15
   1   1  -6 2190.68 48.1696  11
   1   1  -6 2110.09 47.1369   5
  -1  -1  -6 2850.88 63.7448  11
   1  -1   6 2858.05 63.9145  13
  -1  -1  -6 2863.72 63.4043   5
   1  -1   6 2815.66 63.3283   4
   1  -1   6 2777.89 63.4834   7
   1   1   6 2937.07 63.5982   4
  -1   1  -6 2867.86 66.7693  15
   1   1   6 2817.49 64.3067   7
  -1   1  -6 2831.28 63.4545   5
  -1   1  -6 2929.88 64.1199  11
  -1   1  -6 2894.62 64.1948   2
   1   1   6 2803.90 63.4623  13
  -3  -1  -6 722.162 18.8816   5
   3  -1   6 684.656 18.0958   4
  -3  -1  -6 724.075 18.8378  11
   3  -1   6 681.877 17.9544   7
   3  -1   6 686.296 18.6582  13
   3   1   6 698.896 18.3422  13
  -3   1  -6 713.629 19.0873  11
  -3   1  -6 696.186 22.1449  15
   3   1   6 699.012 18.2430   4
   3   1   6 689.061 18.8328   7
  -3   1  -6 715.645 18.9851   5
   5  -1   6 755.370 20.0875   4
  -5  -1  -6 722.930 20.4969  11
  -5  -1  -6 722.774 21.1416   5
   5   1   6 718.008 20.3710   7
  -5   1  -6 765.691 20.8933  11
  -5   1  -6 737.583 21.1595   5
   5   1   6 752.588 20.1361   4
  -7  -1  -6 827.355 22.4866  11
   7  -1   6 790.533 21.8609   4
  -7  -1  -6 793.547 23.6839   5
   7   1   6 757.694 21.8251   4
  -7   1  -6 794.581 22.3324  11
  -7   1  -6 770.496 23.4134   5
  12  -2  -6 407.874 21.8798  14
 -12  -2   6 391.281 13.9594  12
  12  -2  -6 402.667 15.5780   3
 -12  -2   6 385.562 14.5367   1
  12   2  -6 388.150 15.4320   3
 -12   2   6 380.807 13.7386  12
 -12   2   6 380.240 14.5181   1
  12   2  -6 411.633 20.4159  14
 -10  -2   6 414.027 13.2941  12
 -10  -2   6 405.898 13.9294   1
 -10  -2   6 399.718 13.8431  16
  10  -2  -6 410.029 15.2054   3
  10  -2  -6 415.680 20.0898  14
  10   2  -6 436.358 19.0223  14
 -10   2   6 408.556 13.8903   1
  10   2  -6 422.969 15.3549   3
 -10   2   6 417.923 13.1969  12
 -10   2   6 412.340 14.1251  16
  -8  -2   6 1473.13 35.6584  16
   8  -2  -6 1476.99 37.5292   3
  -8  -2   6 1456.69 34.4929  12
   8  -2  -6 1478.50 42.8576  14
  -8  -2   6 1467.07 35.4483   1
   8  -2  -6 1378.90 34.2410   9
   8   2  -6 1471.88 37.1026   3
   8   2  -6 1501.09 40.4285  14
  -8   2   6 1457.78 35.5624  16
   8   2  -6 1437.43 36.0402  10
  -8   2   6 1457.31 35.3873   1
  -8   2   6 1487.18 34.5017  12
  -6  -2   6 1717.39 39.1846  12
  -6  -2   6 1790.81 40.8562  13
  -6  -2   6 1742.17 40.3176  16
   6  -2  -6 1708.43 40.0641   9
  -6  -2   6 1759.10 40.2607   1
   6  -2  -6 1785.06 45.7657  14
   6  -2  -6 1716.70 42.2510   3
  -6   2   6 1723.79 39.0389  12
  -6   2   6 1767.09 40.1970  16
   6   2  -6 1731.12 39.5315   2
  -6   2   6 1797.75 40.1143   1
   6   2  -6 1755.17 41.6679   3
   6   2  -6 1756.64 42.8685  14
   6   2  -6 1726.91 41.5299  10
   6   2  -6 1658.70 39.1403   9
  -4  -2   6 3526.99 76.7125  12
   4  -2  -6 3631.70 82.1717  14
  -4  -2   6 3642.16 77.8837   1
   4  -2  -6 3383.09 77.1740   6
  -4  -2   6 3596.46 77.9240  16
   4  -2  -6 3355.29 79.3360   3
   4  -2  -6 3395.94 78.2567   9
  -4  -2   6 3619.55 78.4888  13
  -4   2   6 3837.38 78.6716  13
   4   2  -6 3664.23 79.0302  14
   4   2  -6 3473.26 79.8838  15
  -4   2   6 3614.90 77.3897  16
   4   2  -6 3504.92 79.2901  10
   4   2  -6 3421.53 78.1767   2
  -4   2   6 3549.75 77.2318   1
   4   2  -6 3565.15 78.8202   3
   4   2  -6 3450.17 77.3709  11
   2  -2  -6 3670.44 80.4897   5
   2  -2  -6 3832.75 82.4371   9
   2  -2  -6 3629.52 82.1675   3
  -2  -2   6 3772.10 82.1209  13
  -2  -2   6 3745.39 81.1774   4
   2  -2  -6 3583.07 81.9583   6
  -2  -2   6 3791.54 81.3693  16
  -2  -2   6 3757.41 81.2275   1
   2  -2  -6 3665.30 81.2053  11
   2   2  -6 3717.37 81.3406  11
   2   2  -6 3933.19 85.0012   5
   2   2  -6 3712.63 81.0876   3
  -2   2   6 3803.79 81.6972  13
   2   2  -6 3729.45 89.1139  15
  -2   2   6 3652.03 81.6593   1
  -2   2   6 3622.28 82.5988  16
  -2   2   6 3719.28 81.5385   4
   2   2  -6 3693.90 82.4244   2
   0  -2  -6 568.762 14.0571   6
   0  -2   6 591.690 14.2829   1
   0  -2   6 574.814 14.4717   4
   0  -2  -6 592.725 14.8631  11
   0  -2   6 578.398 15.2311  13
   0  -2   6 558.289 14.4354   7
   0  -2  -6 578.234 14.4356   5
   0   2  -6 589.342 15.6355   2
   0   2  -6 597.237 17.2923  15
   0   2  -6 572.274 14.4557   5
   0   2   6 578.828 15.7852   7
   0   2   6 579.865 14.7568   4
   0   2  -6 586.572 15.2295  11
   0   2   6 583.276 14.5878  13
  -2  -2  -6 1025.10 25.4017   5
   2  -2   6 1040.54 25.9037  13
   2  -2   6 1061.70 25.1146   4
  -2  -2  -6 1051.06 25.5833  11
  -2   2  -6 1061.72 26.0292  11
   2   2   6 1014.68 26.2115   7
  -2   2  -6 1071.34 25.8005   2
  -2   2  -6 1026.31 25.5558   5
   2   2   6 1042.61 25.0108  13
  -2   2  -6 1010.73 28.8551  15
   2   2   6 1024.12 25.1725   4
  -4  -2  -6 1883.70 44.0361  11
  -4  -2  -6 1821.23 44.3343   5
   4  -2   6 1859.12 43.2763   4
   4  -2   6 1864.45 44.5065  13
   4   2   6 1786.87 44.2759   7
  -4   2  -6 1835.72 44.5158   5
   4   2   6 1863.84 43.6500   4
  -4   2  -6 1901.16 44.5532  11
  -6  -2  -6 721.613 20.2924  11
  -6  -2  -6 707.903 21.2861   5
   6  -2   6 741.818 19.9386   4
   6   2   6 687.547 19.7720   4
  -6   2  -6 697.744 21.1299   5
  -6   2  -6 714.251 20.5226  11
   6   2   6 687.095 20.3785   7
 -11  -3   6 205.632 8.91325  12
 -11  -3   6 192.334 9.19107   1
  11  -3  -6 205.108 15.0454  14
  11  -3  -6 209.234 10.3931   3
 -11  -3   6 172.952 8.82140  16
 -11   3   6 186.464 8.98041  16
  11   3  -6 202.590 10.4387   3
 -11   3   6 202.466 8.73802  12
 -11   3   6 200.003 9.41466   1
  11   3  -6 199.542 12.6028  14
   9  -3  -6 42.7937 6.98944  14
   9  -3  -6 39.4811 4.69886   3
  -9  -3   6 42.6031 3.54718  12
  -9  -3   6 46.3928 4.05910  16
   9  -3  -6 43.0215 3.19767   9
   9  -3  -6 31.0471 4.49834   8
  -9  -3   6 42.0569 3.99492   1
   9   3  -6 42.4526 5.43301  14
  -9   3   6 39.5567 3.56232  16
   9   3  -6 39.1539 3.98007  10
  -9   3   6 39.2407 3.92061   1
   9   3  -6 40.5712 4.51376   3
  -9   3   6 39.6229 3.51366  12
   7  -3  -6 259.520 13.0361  14
   7  -3  -6 246.145 9.96200   3
  -7  -3   6 246.265 7.85502  12
  -7  -3   6 243.021 8.57936  16
  -7  -3   6 241.265 8.64092  13
   7  -3  -6 251.327 10.2632   8
  -7  -3   6 233.528 8.35445   1
   7  -3  -6 242.946 8.22717   9
  -7   3   6 252.646 7.79773  12
  -7   3   6 254.011 8.55649  16
   7   3  -6 255.398 9.50741  10
   7   3  -6 239.298 7.46555   2
   7   3  -6 260.740 10.6611  14
   5  -3  -6 1153.54 26.9631   6
   5  -3  -6 1148.01 29.1743   8
   5  -3  -6 1112.09 27.5978   9
   5  -3  -6 1159.01 29.4114   3
   5  -3  -6 1166.22 32.2671  14
  -5  -3   6 1139.33 26.3729  12
  -5  -3   6 1159.39 27.3610   1
  -5  -3   6 1160.61 27.7172  13
  -5  -3   6 1121.08 27.3711  16
   5   3  -6 1128.39 27.3779   2
  -5   3   6 1181.12 26.9713  16
   5   3  -6 1136.36 28.7005  10
  -5   3   6 1162.55 26.8083   1
  -3  -3   6 381.927 10.3293   1
   3  -3  -6 401.316 13.8575  14
  -3  -3   6 377.791 10.7655  13
   3  -3  -6 378.200 9.97960   6
   3  -3  -6 386.336 11.6073   3
  -3  -3   6 385.008 10.4298  16
  -3  -3   6 381.590 9.83707   4
  -3  -3   6 379.996 9.41824  12
   3  -3  -6 387.199 11.0811   9
   3   3  -6 382.687 10.4498   3
  -3   3   6 386.079 10.4688  13
   3   3  -6 377.323 10.7872  15
  -3   3   6 369.062 9.31538   1
  -3   3   6 374.016 9.37565  16
   3   3  -6 373.772 11.0675   2
   3   3  -6 375.630 11.3937  10
   3   3  -6 375.674 9.87303  11
  -1  -3   6 326.372 8.74222   4
   1  -3  -6 325.013 9.84175   9
  -1  -3   6 325.799 9.01327   1
   1  -3  -6 323.338 8.78412   6
  -1  -3   6 339.623 9.18396  16
   1  -3  -6 327.051 8.78282   5
  -1  -3   6 325.763 9.71650  13
   1  -3  -6 324.763 9.67427   3
  -1   3   6 331.143 8.94263  13
   1   3  -6 315.482 8.67096   5
   1   3  -6 334.570 10.2219   2
  -1   3   6 328.119 9.23133   4
   1   3  -6 330.049 11.1377  15
   1   3  -6 326.801 9.53293  11
  -1  -3  -6 478.761 13.3924   9
   1  -3   6 462.417 12.3897   4
  -1  -3  -6 468.993 12.8328   5
  -1  -3  -6 477.148 13.0198  11
   1  -3   6 502.168 13.6303  13
   1   3   6 468.442 12.2993  13
  -1   3  -6 424.178 12.5578   5
  -1   3  -6 481.855 13.5901   2
   1   3   6 470.627 14.0929   7
   1   3   6 487.118 12.9033   4
  -1   3  -6 478.333 15.8402  15
  -1   3  -6 485.773 13.5646  11
  -3  -3  -6 94.4446 4.75556   9
   3  -3   6 100.704 4.59373   4
   3  -3   6 100.750 5.14504  13
  -3  -3  -6 104.117 4.98640  11
  -3  -3  -6 98.6413 5.08454   5
   3   3   6 100.607 5.73631   7
  -3   3  -6 92.2570 5.14164   5
  -3   3  -6 102.985 5.50388  11
  -3   3  -6 96.2679 6.72904  15
   3   3   6 94.8504 5.16150  10
   3   3   6 100.507 4.78128   4
  -3   3  -6 100.707 4.85994   2
   5  -3   6 199.218 7.84219   4
  -5  -3  -6 194.653 8.16547  11
  -5  -3  -6 199.381 8.82458   5
  -5   3  -6 204.324 8.55485  11
  -5   3  -6 212.392 8.99242   5
   5   3   6 203.800 8.18398   4
   5   3   6 173.813 8.60353   7
   7  -3   6 248.100 9.56750   4
  -7  -3  -6 242.287 10.9921   5
   7   3   6 246.818 10.5198   7
  -7   3  -6 258.927 10.1309  11
  -7   3  -6 236.832 10.5330   5
  12  -4  -6 758.104 24.0141   3
  12  -4  -6 773.953 32.2551  14
 -12  -4   6 738.984 22.0509  12
 -12  -4   6 712.518 22.2741   1
 -12   4   6 748.675 22.6443   1
  12   4  -6 735.724 24.0952   3
  10  -4  -6 1741.15 44.3420   3
 -10  -4   6 1662.47 41.3130  12
  10  -4  -6 1740.28 53.0216  14
 -10  -4   6 1679.76 42.0931   1
 -10  -4   6 1624.66 41.8944  13
 -10  -4   6 1665.22 42.1770  16
  10  -4  -6 1774.75 45.8004   8
  10   4  -6 1729.93 44.2327   3
  10   4  -6 1667.88 42.3832  10
 -10   4   6 1750.82 41.3521  12
 -10   4   6 1675.39 42.3271  16
   8  -4  -6 2591.30 61.5459   3
   8  -4  -6 2557.95 58.7092   9
  -8  -4   6 2485.65 58.9441  13
  -8  -4   6 2600.90 58.3401  12
  -8  -4   6 2493.55 58.9522   1
  -8  -4   6 2558.85 59.1831  16
   8  -4  -6 2629.99 69.0360  14
   8  -4  -6 2541.81 62.0955   8
  -8   4   6 2554.74 59.1341  16
  -8   4   6 2596.96 58.0783  12
   8   4  -6 2514.29 60.2952  10
  -6  -4   6 1588.31 38.4846  13
  -6  -4   6 1656.96 38.5449   1
   6  -4  -6 1629.00 40.7876   8
   6  -4  -6 1671.83 38.1428   6
  -6  -4   6 1661.23 38.6686  16
   6  -4  -6 1654.07 45.0779  14
  -6  -4   6 1652.64 37.6662  12
   6  -4  -6 1618.56 38.7160   9
   6  -4  -6 1658.28 40.8817   3
   6   4  -6 1644.57 40.2121  10
  -6   4   6 1703.97 38.3185  16
   6   4  -6 1585.74 38.1433   2
   4  -4  -6 1874.55 44.6788   8
   4  -4  -6 1846.88 42.5756   6
   4  -4  -6 1880.06 44.9355   3
  -4  -4   6 1898.91 43.0654  16
   4  -4  -6 1834.23 43.5132   9
  -4  -4   6 1897.24 42.9391   1
  -4  -4   6 1879.83 41.9872  12
   4  -4  -6 1909.17 48.1594  14
  -4  -4   6 1899.90 43.2406  13
  -4   4   6 1881.18 41.9967  16
  -4   4   6 1860.24 41.8565   1
   4   4  -6 1864.82 43.6395   2
   4   4  -6 1808.62 41.7920  11
   4   4  -6 1945.84 44.6195  10
  -4   4   6 1934.89 43.0881  13
  -2  -4   6 3716.15 80.6678   1
  -2  -4   6 3630.81 79.7807   4
  -2  -4   6 3732.38 80.7968  16
   2  -4  -6 3736.37 81.7089   9
   2  -4  -6 3654.23 80.3996   6
   2  -4  -6 3533.75 82.0189   3
  -2  -4   6 3710.24 81.1827  13
  -2   4   6 3658.20 80.5007   4
  -2   4   6 3696.27 80.2233  13
   2   4  -6 3681.26 81.6120  10
   2   4  -6 3736.74 82.1019   2
   2   4  -6 3555.77 82.4989  15
   2   4  -6 3627.68 80.8529  11
   0  -4   6 3319.48 72.9554   1
   0  -4  -6 3188.96 72.8228   6
   0  -4   6 3250.77 72.3630   4
   0  -4  -6 3383.94 73.9927   9
   0  -4   6 3351.96 73.8543  13
   0  -4  -6 3282.13 72.9691   5
   0   4  -6 3330.46 73.9261  11
   0   4  -6 3132.14 72.8769   5
   0   4  -6 3291.47 76.6516  15
   0   4  -6 3430.21 74.4983   2
   0   4   6 3330.06 75.0486   7
   0   4   6 3320.06 73.0156   4
  -2  -4  -6 2422.20 54.6278   9
   2  -4   6 2431.66 53.6717   4
  -2  -4  -6 2467.73 54.8205   5
   2  -4   6 2344.88 55.0707  13
  -2   4  -6 2317.24 54.7305   5
   2   4   6 2373.62 56.0534   7
   2   4   6 2378.55 54.1983   4
  -2   4  -6 2414.63 55.2727  11
  -2   4  -6 2395.22 54.8562   2
  -2   4  -6 2308.72 58.5372  15
  -4  -4  -6 1396.65 34.6325   5
   4  -4   6 1339.25 34.6427  13
   4  -4   6 1394.11 33.1347   4
   4  -4   6 1387.99 35.7747   8
  -4   4  -6 1372.99 34.5299  11
   4   4   6 1394.65 33.7206   4
  -4   4  -6 1349.89 34.3778   5
   4   4   6 1371.69 35.2797   7
  -6  -4  -6 564.043 18.0650   5
   6  -4   6 564.305 16.0983   4
  -6   4  -6 570.516 17.2264  11
   6   4   6 564.742 18.0035   7
  -6   4  -6 536.150 17.5879   5
   6   4   6 546.116 16.5355   4
 -11  -5   6 628.928 19.8489   1
  11  -5  -6 702.464 30.3092  14
 -11  -5   6 670.246 19.7169  12
  11  -5  -6 653.136 21.5281   3
  11   5  -6 641.777 20.0988  10
 -11   5   6 652.563 20.0560   1
  11   5  -6 643.304 21.6382   3
 -11   5   6 670.025 19.3963  12
   9  -5  -6 902.960 25.9695   3
   9  -5  -6 849.125 26.5094   8
  -9  -5   6 839.582 23.2546  13
   9  -5  -6 872.790 23.3022   9
   9  -5  -6 889.172 32.9121  14
  -9  -5   6 889.530 23.2361  12
  -9  -5   6 875.982 23.6879   1
  -9  -5   6 848.734 23.7330  16
   9   5  -6 869.878 24.8712  10
  -9   5   6 881.016 23.9350  16
  -9   5   6 887.266 22.9067  12
  -7  -5   6 849.002 22.4851  16
   7  -5  -6 898.579 22.3175   6
  -7  -5   6 851.099 21.7678  12
  -7  -5   6 838.244 22.2161  13
   7  -5  -6 840.874 29.4394  14
   7  -5  -6 886.877 22.8440   9
   7  -5  -6 888.971 25.6103   8
  -7  -5   6 837.588 22.2999   1
   7  -5  -6 878.842 24.8051   3
   7   5  -6 890.974 24.4706  10
   7   5  -6 847.255 21.7778   2
  -7   5   6 899.028 22.4977  16
   5  -5  -6 886.010 24.3082   8
   5  -5  -6 882.629 21.9270   6
   5  -5  -6 887.248 24.3844   3
   5  -5  -6 876.901 27.9227  14
  -5  -5   6 883.612 22.2437  16
  -5  -5   6 870.524 22.0570  13
  -5  -5   6 892.506 22.2025   1
   5  -5  -6 869.782 22.6078   9
  -5  -5   6 851.524 21.2468  12
   5   5  -6 875.769 22.6367   2
  -5   5   6 891.278 21.4538  16
   5   5  -6 927.867 24.1928  10
   3  -5  -6 1003.16 23.8933   6
  -3  -5   6 1011.29 24.2617  16
   3  -5  -6 995.698 25.8515   3
   3  -5  -6 983.691 24.8304   9
  -3  -5   6 979.425 22.6992   4
  -3  -5   6 1025.75 24.1718   1
   3  -5  -6 980.206 25.3796   8
  -3  -5   6 1012.57 24.3551  13
   3   5  -6 940.170 23.7298  11
   3   5  -6 946.911 25.2258  15
   3   5  -6 1017.77 25.3429  10
  -3   5   6 973.262 23.4541  13
   3   5  -6 1036.47 25.5237   2
  -3   5   6 993.810 23.6643   4
   1  -5  -6 1540.38 35.8176   6
   1  -5  -6 1572.25 36.7898   9
  -1  -5   6 1548.38 35.9917  16
  -1  -5   6 1591.49 35.9369   1
  -1  -5   6 1543.68 34.7188   4
  -1  -5   6 1558.28 36.4305  13
  -1   5   6 1573.43 37.7767   7
   1   5  -6 1465.91 35.3865   5
  -1   5   6 1531.49 35.5823   4
   1   5  -6 1523.40 38.7958  15
   1   5  -6 1559.44 36.1685  10
   1   5  -6 1531.95 36.4532  11
   1   5  -6 1579.07 37.3481   2
   1  -5   6 1634.67 38.3724  13
  -1  -5  -6 1646.43 37.7570   5
  -1  -5  -6 1642.76 38.0814   9
  -1  -5  -6 1609.18 37.6348   6
   1  -5   6 1600.75 36.4573   4
  -1   5  -6 1583.74 38.3424   2
   1   5   6 1603.78 39.4625   7
   1   5   6 1624.19 37.3344   4
  -1   5  -6 1530.03 37.5064   5
  -1   5  -6 1615.93 38.4589  11
  -1   5  -6 1534.02 41.1571  15
   3  -5   6 728.015 21.5256   8
  -3  -5  -6 725.787 19.8087   5
   3  -5   6 719.751 20.1167  13
   3  -5   6 711.708 18.3114   4
  -3   5  -6 710.729 19.1957   2
  -3   5  -6 707.530 19.8228   5
   3   5   6 723.278 19.0662   4
  -3   5  -6 732.707 20.0474  11
   3   5   6 717.693 21.0884   7
   3   5   6 679.391 20.7373  10
  -5  -5  -6 353.564 12.7675   5
   5  -5   6 344.066 11.0933   4
  -5   5  -6 340.308 12.1656  11
   5   5   6 355.087 11.8719   4
   5   5   6 370.654 13.6776   7
  -5   5  -6 339.220 12.1664   5
 -10  -6   6 10.3142 2.72750   1
  10  -6  -6 8.65513 4.54869  14
 -10  -6   6 6.01841 2.29386  12
 -10  -6   6 7.72719 2.23832  16
  10  -6  -6 4.97714 3.14672   8
  10  -6  -6 4.64668 2.03329   3
 -10   6   6 6.90690 2.27405  12
 -10   6   6 7.24214 2.44572  16
  10   6  -6 8.20596 2.73156  10
  -8  -6   6 8.56571 1.82204  12
  -8  -6   6 9.61444 2.36481   1
   8  -6  -6 21.9248 3.75246   8
   8  -6  -6 6.12845 2.49815   3
   8  -6  -6 12.2111 2.48794   9
   8  -6  -6 9.95115 4.16264  14
   8  -6  -6 10.8678 2.06681   6
  -8  -6   6 10.4868 2.05781  16
   8   6  -6 15.3772 3.29918  10
  -8   6   6 9.86758 2.15009  16
  -6  -6   6 165.624 6.56049  13
  -6  -6   6 174.049 6.44495  12
   6  -6  -6 190.017 11.6876  14
   6  -6  -6 170.921 8.88065   8
  -6  -6   6 169.615 6.85103   1
   6  -6  -6 183.125 8.77396   3
   6  -6  -6 184.169 7.06575   6
  -6  -6   6 173.234 6.94917  16
   6  -6  -6 201.471 7.80804   9
   6   6  -6 176.960 8.24841  10
  -6   6   6 171.298 6.46353  16
   6   6  -6 174.265 7.10574   2
  -6   6   6 180.242 7.92464  15
   4  -6  -6 267.016 10.2913   8
  -4  -6   6 268.284 8.67166  13
   4  -6  -6 279.683 10.4895   3
   4  -6  -6 268.096 9.39629   9
   4  -6  -6 266.952 12.9661  14
   4  -6  -6 272.824 8.62796   6
  -4  -6   6 274.858 8.24326  12
  -4  -6   6 272.243 8.96143  16
  -4  -6   6 277.015 8.90956   1
   4   6  -6 282.574 10.3112  10
   4   6  -6 261.861 8.21962  11
  -4   6   6 264.895 8.28084  13
   4   6  -6 270.104 9.87603   2
  -2  -6   6 84.1173 4.26513   1
   2  -6  -6 85.9394 4.15412   6
  -2  -6   6 81.4804 4.13038  13
  -2  -6   6 85.1704 4.30974  16
   2  -6  -6 80.4128 4.53133   9
   2   6  -6 91.6757 5.51784   2
   2   6  -6 82.0770 4.27082  11
  -2   6   6 90.8319 5.22611   7
  -2   6   6 84.0716 3.83929   4
   2   6  -6 87.0817 4.68282  10
   2   6  -6 77.9974 5.39075  15
   0  -6  -6 21.3859 2.56950   9
   0  -6   6 17.2097 2.43980  13
   0  -6  -6 19.3285 2.21550   6
   0  -6   6 23.7291 2.25778   1
   0   6   6 19.7788 3.09004   7
   0   6  -6 32.9168 3.54759  11
   0   6  -6 19.9371 2.95433   2
   0   6  -6 29.4374 2.63692   5
   0   6  -6 20.3842 3.34862  15
   0   6   6 31.2199 2.55543   4
   2  -6   6 12.4847 2.46163  13
  -2  -6  -6 12.9106 2.26900   5
  -2  -6  -6 17.0642 2.44887   6
  -2   6  -6 11.2345 2.30252   2
   2   6   6 11.6988 2.88604   7
  -2   6  -6 9.06834 2.11022  11
  -2   6  -6 14.5282 2.18959   5
   2   6   6 14.8395 3.04200  10
   2   6   6 12.4875 1.90810   4
   4  -6   6 85.5128 6.69441   8
  -4  -6  -6 92.1916 5.76786   5
  -4   6  -6 85.2583 5.26029  11
  -4   6  -6 85.5214 5.16879   5
   4   6   6 88.8772 6.64823   7
   4   6   6 94.3743 6.16503  10
   4   6   6 89.4757 5.15288   4
  -6  -6  -6 141.175 7.90209   5
   6   6   6 137.714 8.45071   7
  -6   6  -6 144.768 7.08004  11
   6   6   6 140.548 6.95815   4
  -6   6  -6 124.824 6.98730   5
 -11  -7   6 330.573 12.4510  12
 -11  -7   6 306.532 12.1655   1
  11  -7  -6 340.395 20.2813  14
  11  -7  -6 353.794 16.1158   8
  11  -7  -6 330.986 13.8691   3
   9  -7  -6 623.276 20.3672   3
   9  -7  -6 636.264 22.3286   8
  -9  -7   6 588.555 18.0587  16
  -9  -7   6 598.825 18.1616   1
  -9  -7   6 607.424 17.7909  12
   9  -7  -6 618.879 27.4312  14
   9  -7  -6 616.279 18.3522   9
  -9   7   6 600.978 17.3403  12
   9   7  -6 605.206 19.8678  10
  -9   7   6 603.618 18.1153  16
  -7  -7   6 1072.47 27.8021  16
   7  -7  -6 1117.97 27.6220   6
   7  -7  -6 1138.13 30.7093   3
   7  -7  -6 1044.33 36.2491  14
  -7  -7   6 1101.63 27.2531  12
  -7  -7   6 1097.87 27.7551   1
   7  -7  -6 1074.78 31.3144   8
   7  -7  -6 1100.59 28.5261   9
   7   7  -6 1099.20 30.0270  10
  -7   7   6 1035.61 26.9944  16
   7   7  -6 1032.12 27.3354   2
   5  -7  -6 1568.43 40.3695   3
   5  -7  -6 1578.93 38.6194   9
   5  -7  -6 1594.54 40.7379   8
   5  -7  -6 1620.78 37.6765   6
   5  -7  -6 1568.08 45.4749  14
  -5  -7   6 1558.79 37.5930   1
  -5  -7   6 1549.30 37.0201  13
  -5  -7   6 1559.55 37.7408  16
  -5  -7   6 1596.68 37.0484  12
   5   7  -6 1547.17 38.7167   2
   5   7  -6 1613.43 39.8554  10
  -3  -7   6 2026.08 46.6868   1
   3  -7  -6 2014.61 49.1427   3
  -3  -7   6 2030.54 46.7957  16
   3  -7  -6 2033.61 47.6301   9
   3  -7  -6 1936.11 48.0562   8
   3  -7  -6 2019.88 46.6364   6
  -3  -7   6 2044.27 46.5083  13
   3   7  -6 2086.82 48.2520  10
   3   7  -6 1939.72 48.8963  15
   3   7  -6 1944.77 46.5128  11
   3   7  -6 2070.69 48.5862   2
  -3   7   6 2028.01 45.7282   4
  -3   7   6 2017.21 48.2109   7
  -1  -7   6 1025.22 25.2412  13
   1  -7  -6 1028.18 25.7558   9
   1  -7  -6 1004.72 25.0690   6
  -1  -7   6 989.596 24.8553   1
   1   7  -6 980.116 24.8466  10
   1   7  -6 958.151 28.0108  15
   1   7  -6 974.399 25.4319  11
  -1   7   6 1023.01 26.9265   7
  -1   7   6 975.322 23.9470   4
   1   7  -6 1014.86 26.6051   2
   1  -7   6 641.743 18.1308  13
  -1  -7  -6 646.222 17.9392   6
  -1  -7  -6 660.214 17.8062   9
  -1   7  -6 649.360 23.2107  15
  -1   7  -6 590.738 17.2546   5
  -1   7  -6 637.608 18.2575  11
   1   7   6 650.671 16.8745   4
   1   7   6 643.770 20.3634  10
   1   7   6 655.147 19.6622   7
  -1   7  -6 650.954 18.3641   2
  -3  -7  -6 1140.48 29.0228   5
  -3  -7  -6 1136.80 29.0545   6
   3  -7   6 1119.20 29.3222  13
   3  -7   6 1107.32 31.6100   8
  -3   7  -6 1052.52 28.2642   5
   3   7   6 1088.80 30.3384   7
  -3   7  -6 1078.69 28.5927  11
  -3   7  -6 1101.24 28.0605   2
   3   7   6 1101.78 27.5213   4
   3   7   6 1099.96 30.7387  10
   5  -7   6 825.404 25.7438   8
  -5  -7  -6 822.262 23.8560   5
   5   7   6 882.808 25.7351   7
  -5   7  -6 814.517 23.1380  11
  -5   7  -6 806.630 23.2468   5
  10  -8  -6 398.517 21.7557  14
  10  -8  -6 436.841 18.2093   8
  10  -8  -6 420.163 15.7461   3
 -10  -8   6 374.329 13.5538   1
 -10  -8   6 410.483 13.9956  12
 -10   8   6 395.608 13.2619  12
  10   8  -6 364.534 14.7094  10
  -8  -8   6 256.046 9.76664  12
   8  -8  -6 278.545 13.5218   8
   8  -8  -6 276.729 10.2904   6
  -8  -8   6 272.877 10.1843   1
   8  -8  -6 276.317 12.2166   3
  -8  -8   6 254.785 9.90117  16
   8  -8  -6 276.685 10.8123   9
   8  -8  -6 251.622 16.3673  14
   8   8  -6 268.113 11.7669  10
   6  -8  -6 455.406 15.0121   9
   6  -8  -6 464.849 17.2539   8
   6  -8  -6 457.519 20.9874  14
  -6  -8   6 467.785 14.2013   1
  -6  -8   6 469.141 14.3296  16
   6  -8  -6 479.353 16.7834   3
  -6  -8   6 463.756 13.7289  12
   6  -8  -6 469.946 14.2417   6
   6   8  -6 472.150 16.3871  10
   6   8  -6 451.317 14.6837   2
  -4  -8   6 281.215 9.64690   1
   4  -8  -6 296.224 11.6935   8
   4  -8  -6 288.910 9.61577   6
   4  -8  -6 293.784 11.8215   3
  -4  -8   6 288.666 9.81557  16
  -4  -8   6 229.156 10.2372  13
   4  -8  -6 283.327 10.4488   9
  -4   8   6 292.608 10.5872   7
   4   8  -6 293.276 11.1982   2
   4   8  -6 263.601 9.35346  11
   4   8  -6 276.988 11.0555  10
   2  -8  -6 273.703 9.47618   6
  -2  -8   6 273.067 9.51953  16
   2  -8  -6 279.117 10.0434   9
  -2  -8   6 275.250 9.18589  13
  -2  -8   6 289.343 9.62505   1
   2   8  -6 268.708 11.5768  15
   2   8  -6 275.601 9.76521  11
   2   8  -6 280.118 10.8444   2
   2   8  -6 310.999 10.5785  10
  -2   8   6 266.834 10.5658   7
   0  -8   6 873.482 23.0895  13
   0  -8  -6 874.385 23.2588   9
   0  -8  -6 881.948 23.2941   6
   0   8   6 886.717 25.0508   7
   0   8  -6 867.730 23.6374  11
   0   8   6 866.797 26.0048  10
   0   8  -6 893.667 24.3977   2
  -2  -8  -6 446.979 14.3358   6
   2  -8   6 437.438 14.3540  13
   2  -8   6 451.672 16.9675   8
  -2   8  -6 415.775 13.6190   5
   2   8   6 447.711 15.8891   7
  -2   8  -6 440.988 14.3231  11
  -2   8  -6 452.765 14.3317   2
   2   8   6 429.855 16.2240  10
  -4  -8  -6 149.453 7.80656   6
   4  -8   6 140.424 9.11330   8
  -4   8  -6 134.614 6.84432   5
   4   8   6 139.516 8.81401   7
   4   8   6 143.701 8.23736  10
  -4   8  -6 141.526 7.46240  11
   9  -9  -6 411.049 15.7985   3
   9  -9  -6 384.545 21.2410  14
   9  -9  -6 399.388 17.4715   8
  -9  -9   6 389.545 13.4662   1
  -9  -9   6 403.685 13.6441  12
   9   9  -6 419.768 16.0195  10
   7  -9  -6 145.107 7.41722   9
   7  -9  -6 143.474 8.60992   3
  -7  -9   6 136.787 6.70330  12
  -7  -9   6 133.311 6.55075  16
   7  -9  -6 130.780 11.4781  14
   7  -9  -6 139.957 9.39750   8
   7  -9  -6 135.600 6.90567   6
  -7  -9   6 131.804 6.65270   1
   7   9  -6 129.864 8.05115  10
   7   9  -6 124.878 6.65073   2
  -5  -9   6 7.70158 2.16072   1
   5  -9  -6 7.70141 1.86042   6
  -5  -9   6 3.76501 1.76611  16
   5  -9  -6 16.2243 3.36715   8
   5  -9  -6 6.65017 1.94781   9
   5   9  -6 5.07989 2.80628   2
   5   9  -6 3.99727 2.77174  10
  -3  -9   6 187.888 7.70667   1
  -3  -9   6 190.931 7.81863  16
   3  -9  -6 153.173 9.03892   8
   3  -9  -6 195.661 8.29467   9
   3  -9  -6 191.936 7.69303   6
   3   9  -6 190.150 8.68234  10
   3   9  -6 194.022 9.30172   2
  -3   9   6 187.265 8.43813   7
   3   9  -6 189.897 7.91710  11
  -3   9   6 197.406 9.80910  10
   1  -9  -6 297.690 10.5230   6
  -1  -9   6 285.272 10.1871   1
  -1  -9   6 304.801 10.2779  13
   1  -9  -6 297.998 10.9201   9
   1   9  -6 302.271 11.9662   2
   1   9  -6 293.941 11.0442  11
  -1   9   6 313.578 12.0442   7
  -1   9   6 315.755 12.9887  10
   1  -9   6 175.632 9.81046   8
   1  -9   6 171.663 7.55245  13
  -1  -9  -6 181.686 7.93268   6
   1   9   6 184.011 9.41574   7
  -1   9  -6 164.246 7.43447   5
  -1   9  -6 160.928 8.18130  11
   1   9   6 166.626 9.76697  10
  -1   9  -6 174.824 8.39762   2
  -3  -9  -6 260.984 10.4632   6
   3  -9   6 230.242 11.8332   8
   3   9   6 239.165 11.5120   7
  -3   9  -6 215.594 9.30785   5
   3   9   6 249.398 11.9537  10
  -3   9  -6 239.277 10.1114  11
   8 -10  -6 614.538 22.8594   8
  -8 -10   6 590.527 17.8618   1
   8 -10  -6 600.445 20.5518   3
  -8 -10   6 608.750 18.1177  12
   8 -10  -6 603.746 18.0979   6
   8 -10  -6 551.655 26.1066  14
   8  10  -6 617.488 20.6726  10
  -6 -10   6 1571.33 39.3123  16
   6 -10  -6 1609.41 40.6967   9
   6 -10  -6 1651.65 39.6947   6
   6 -10  -6 1572.48 43.9960   8
  -6 -10   6 1573.63 39.1641   1
   6  10  -6 1621.92 42.3010  10
   6  10  -6 1558.97 40.5613   2
   4 -10  -6 1529.30 41.6080   8
  -4 -10   6 1561.76 38.7025  16
  -4 -10   6 1600.68 38.6033   1
   4 -10  -6 1588.28 39.9874   9
   4 -10  -6 1560.72 38.7445   6
   4  10  -6 1563.62 40.5620  10
  -4  10   6 1631.42 41.3507  10
   4  10  -6 1556.47 40.5883   2
   2 -10  -6 1054.66 27.4353   6
  -2 -10   6 998.939 26.7951   1
   2 -10  -6 1025.56 27.8343   9
  -2  10   6 1056.44 30.4036  10
   2  10  -6 1051.21 29.8881  10
   2  10  -6 1015.06 28.9412   2
   2  10  -6 1052.85 27.6016  11
  -2  10   6 1049.04 28.5533   7
   0 -10  -6 1571.88 39.1750   6
   0 -10   6 1568.48 42.8633   8
   0  10  -6 1554.83 39.3187  11
   0  10  -6 1608.30 40.4160   2
   0  10   6 1524.98 40.4975   7
   0  10   6 1574.76 42.6539  10
  -2 -10  -6 991.371 27.1182   6
   2 -10   6 1031.39 31.0160   8
   2  10   6 944.068 28.3337   7
   2  10   6 946.739 29.5924  10
  -2  10  -6 971.343 26.8833  11
   7 -11  -6 346.442 12.3919   6
   7 -11  -6 357.323 16.5128   8
  -7 -11   6 359.978 12.4736   1
   7  11  -6 354.628 14.9212  10
   5 -11  -6 372.751 12.9186   6
  -5 -11   6 379.080 12.7990   1
   5 -11  -6 363.649 15.7031   8
   5 -11  -6 376.706 13.9177   9
   5  11  -6 378.228 14.5511  10
   5  11  -6 381.241 14.2481   2
   3 -11  -6 786.444 22.2349   6
  -3 -11   6 792.428 22.0342   1
   3 -11  -6 772.145 22.9794   9
  -3 -11   6 775.674 25.0902   8
   3  11  -6 776.811 22.9678  10
  -3  11   6 832.030 25.2194  10
   3  11  -6 801.504 24.1805   2
   3  11  -6 786.371 22.2169  11
   1 -11  -6 247.356 10.0531   9
   1 -11  -6 247.433 10.2508   6
  -1 -11   6 244.019 12.6058   8
  -1  11   6 235.370 10.7347   7
  -1  11   6 254.727 12.0900  10
   1  11  -6 237.632 9.95403  11
   1  11  -6 253.364 11.3356   2
   1 -11   6 55.0940 6.18712   8
  -1 -11  -6 52.0807 4.98265   6
  -1  11  -6 57.5526 5.46864   2
   1  11   6 50.3861 6.19701  10
  -1  11  -6 51.7303 5.19219  11
   1  11   6 58.9004 6.03264   7
  -1  11  -6 56.0871 4.76899   5
  -4 -12   6 141.812 7.21962   1
   4 -12  -6 135.953 7.62762   9
   4 -12  -6 133.485 7.13910   6
   4  12  -6 139.779 8.00320  10
  -4  12   6 156.668 8.82123  10
   4  12  -6 139.812 8.34302   2
  -4  12   6 145.854 8.46238   2
   2 -12  -6 41.4568 4.10020   9
   2 -12  -6 34.8209 4.22747   6
  -2 -12   6 30.3820 5.14586   8
   2  12  -6 53.0399 6.20457   2
  -2  12   6 44.1235 5.92708  10
   2  12  -6 45.0018 4.88227  11
   0 -12   6 255.601 13.3425   8
   0 -12  -6 261.992 10.9481   6
   0  12   6 247.478 12.7934  10
   0  12  -6 245.748 10.6500  11
   0  12  -6 254.215 11.4751   2
 -12   0   7 1.43093 2.14606  12
 -12   0   7 2.06248 2.70201   1
  12   0  -7 0.03342 1.76209   3
  12   0  -7 1.24751 3.25327  14
 -10   0   7 1.24385 1.87619  16
  10   0  -7 -0.2649 1.91618   3
 -10   0   7 -0.3424 1.49170  12
  10   0  -7 2.43394 2.98659  14
 -10   0   7 -0.6317 1.16312   1
  -8   0   7 -0.1064 1.34579   1
   8   0  -7 4.64980 1.76625   3
  -8   0   7 0.06841 0.92638  12
   8   0  -7 9.61130 2.98373  14
  -8   0   7 0.56677 1.37429  16
   6   0  -7 0.45407 1.20324   3
  -6   0   7 0.90353 1.01805  16
  -6   0   7 1.78248 0.78805  12
  -6   0   7 -0.2209 0.99286   1
  -6   0   7 11.6597 2.16749  13
   6   0  -7 2.47564 1.40704  14
  -4   0   7 0.79366 0.57643   1
  -4   0   7 0.23126 0.68508  16
   4   0  -7 0.19091 0.90822  14
   4   0  -7 0.42789 0.86059   2
  -4   0   7 2.29867 1.18019  13
   4   0  -7 -0.1130 0.42892  11
   4   0  -7 0.01438 0.76682   9
   4   0  -7 5.79800 1.46944   3
   2   0  -7 0.91199 0.61938   3
   2   0  -7 -0.4306 0.86484   2
  -2   0   7 -0.6225 0.86764  13
  -2   0   7 5.61738 1.13918   4
   2   0  -7 1.53639 0.75100  11
  -2   0   7 1.75279 0.60814   1
  -2   0   7 0.86414 0.55095  16
   0   0  -7 0.75631 1.23256  15
   0   0   7 0.80827 0.98785   7
   0   0  -7 0.73266 0.65520   5
   0   0   7 0.13461 0.98849  13
   0   0  -7 -0.2515 0.59765  11
   0   0   7 2.65166 0.99029   4
   2   0   7 0.40037 1.25304  13
  -2   0  -7 1.19038 1.55291  15
  -2   0  -7 3.00438 1.52991  11
   2   0   7 0.14923 0.89961   4
   2   0   7 -0.0441 1.11720   7
  -2   0  -7 1.29915 1.09515   5
  -4   0  -7 2.33675 1.30846  11
  -4   0  -7 3.99868 1.74165   5
   4   0   7 2.32976 1.73824  13
   4   0   7 2.34276 1.80268   4
  -6   0  -7 -0.4217 1.61481  11
  -6   0  -7 2.32229 1.70623   5
   6   0   7 -0.8405 1.28754   4
 -11  -1   7 65.8810 5.52696  16
 -11  -1   7 58.1499 4.36354  12
  11  -1  -7 59.9357 5.64197   3
  11  -1  -7 72.0661 9.00945  14
 -11  -1   7 67.7085 5.67848   1
 -11   1   7 71.3653 4.99275  12
  11   1  -7 68.2314 6.33478   3
 -11   1   7 64.3287 5.40488   1
  11   1  -7 66.8310 8.17794  14
 -11   1   7 56.6157 4.79766  16
  -9  -1   7 3.86872 1.53558  12
  -9  -1   7 4.69680 1.98159   1
   9  -1  -7 8.59704 3.40593  14
   9  -1  -7 7.03820 2.16105   3
  -9  -1   7 5.74743 2.09256  16
  -9   1   7 7.48875 1.95158  16
   9   1  -7 2.89056 1.96314   3
   9   1  -7 4.95382 2.71450  14
  -9   1   7 5.79026 1.80922   1
  -9   1   7 9.70246 1.96914  12
  -7  -1   7 61.1472 3.89627  16
   7  -1  -7 82.2613 5.36124   3
   7  -1  -7 84.9815 6.47136  14
  -7  -1   7 62.4886 3.78078   1
  -7  -1   7 65.2495 3.12736  12
   7  -1  -7 58.6896 3.31410   9
  -7  -1   7 58.2372 4.21873  13
   7   1  -7 72.0707 3.34561   2
  -7   1   7 61.6959 3.83640  16
   7   1  -7 60.4164 3.14039   9
   7   1  -7 64.6739 4.72244   3
  -7   1   7 61.6354 3.58364   1
  -7   1   7 59.5915 2.96919  12
   7   1  -7 68.8856 5.48566  14
  -5  -1   7 461.487 12.4496   1
   5  -1  -7 454.664 12.8604   9
  -5  -1   7 465.571 12.5710  16
   5  -1  -7 464.096 15.6203  14
  -5  -1   7 469.272 13.3147  13
   5  -1  -7 443.985 13.9627   3
   5   1  -7 469.698 12.7662   2
   5   1  -7 452.230 12.6428   9
   5   1  -7 463.785 13.7671   3
  -5   1   7 472.525 12.3725  16
   5   1  -7 460.253 14.5022  14
  -5   1   7 487.362 13.4298  13
  -5   1   7 473.415 12.3310   1
   3  -1  -7 434.082 11.2378  11
   3  -1  -7 427.965 12.2809   3
  -3  -1   7 451.067 12.4152  13
  -3  -1   7 444.024 11.3553   1
  -3  -1   7 448.699 11.6601   4
  -3  -1   7 448.466 11.4787  16
   3  -1  -7 445.552 12.5469   9
  -3   1   7 427.238 12.0654  13
  -3   1   7 440.273 10.9900  16
   3   1  -7 421.901 12.3093   2
   3   1  -7 439.166 11.9184   3
  -3   1   7 442.032 11.7951   4
  -3   1   7 440.362 10.9121   1
   3   1  -7 434.952 11.1988  11
  -1  -1   7 179.086 5.38880   1
  -1  -1   7 175.278 5.42932  16
   1  -1  -7 172.846 5.35213   5
  -1  -1   7 179.637 6.40606  13
   1  -1  -7 176.585 6.09460  11
  -1  -1   7 179.444 5.97974   4
   1   1  -7 177.450 6.20734  11
  -1   1   7 180.573 6.26281  13
  -1   1   7 176.537 6.03106   4
   1   1  -7 189.235 7.75570  15
   1   1  -7 185.367 6.93895   2
   1   1  -7 177.615 5.34028   5
  -1  -1  -7 3.54445 1.17177   5
   1  -1   7 3.24321 1.46388  13
  -1  -1  -7 2.32605 1.32724  11
   1  -1   7 3.22097 1.19111   7
   1  -1   7 2.83448 1.31475   4
  -1   1  -7 2.70203 1.10496  11
  -1   1  -7 3.13407 1.54497  15
   1   1   7 2.05118 1.31451   7
  -1   1  -7 1.82760 0.79958   5
   1   1   7 1.80965 1.18628  13
  -1   1  -7 3.58183 1.24800   2
   1   1   7 9.37992 1.78825   4
   3  -1   7 12.6913 2.35390  13
   3  -1   7 12.9096 2.25927   4
  -3  -1  -7 12.2029 2.45264  11
  -3  -1  -7 11.6488 2.05109   5
   3   1   7 11.2017 2.32843   4
  -3   1  -7 10.9905 2.10794  11
   3   1   7 11.8166 2.15086  13
  -3   1  -7 10.5110 1.97505   5
   3   1   7 12.9861 2.46082   7
  -5  -1  -7 179.419 8.73588   5
  -5  -1  -7 194.194 8.37328  11
   5  -1   7 201.418 8.29467   4
   5   1   7 185.186 8.09915   4
  -5   1  -7 185.175 8.77511   5
  -5   1  -7 198.405 8.47811  11
  12  -2  -7 290.068 18.2114  14
 -12  -2   7 277.847 11.1814  12
 -12  -2   7 283.254 12.0296   1
  12  -2  -7 299.204 13.4305   3
  12   2  -7 301.664 16.8910  14
  12   2  -7 292.652 13.1129   3
 -12   2   7 281.976 11.9098   1
 -12   2   7 289.524 11.2266  12
  10  -2  -7 268.220 11.8654   3
 -10  -2   7 266.971 10.6784   1
 -10  -2   7 268.470 9.66932  12
  10  -2  -7 266.898 15.6476  14
 -10  -2   7 266.584 10.6479  16
 -10   2   7 284.801 9.81062  12
 -10   2   7 234.683 10.0771   1
  10   2  -7 272.377 11.9782   3
  10   2  -7 279.865 14.4951  14
 -10   2   7 263.578 10.5301  16
  -8  -2   7 465.916 13.1964  12
  -8  -2   7 473.624 14.7610  13
  -8  -2   7 472.569 14.3021   1
  -8  -2   7 487.736 14.4913  16
   8  -2  -7 480.052 16.2438   3
   8  -2  -7 474.954 13.5470   9
   8  -2  -7 508.981 20.2225  14
   8   2  -7 473.105 15.1424  10
   8   2  -7 513.209 16.2814   3
  -8   2   7 492.611 13.1953  12
  -8   2   7 472.320 14.2320  16
  -8   2   7 463.828 13.9709   1
   8   2  -7 515.063 18.1056  14
  -6  -2   7 871.992 22.0355  13
   6  -2  -7 824.789 23.1896   3
   6  -2  -7 802.705 21.2185   9
  -6  -2   7 846.878 20.0047  12
  -6  -2   7 838.574 21.1692   1
   6  -2  -7 871.307 26.1121  14
  -6  -2   7 838.657 21.2673  16
   6   2  -7 858.596 22.7630   3
   6   2  -7 878.369 23.5278  14
   6   2  -7 837.252 20.9220   2
   6   2  -7 798.410 20.5184   9
  -6   2   7 848.994 20.9231   1
   6   2  -7 868.533 22.8535  10
  -6   2   7 847.537 21.0023  16
  -4  -2   7 289.413 8.50570   1
  -4  -2   7 291.562 9.15449  13
   4  -2  -7 289.382 9.24702   9
   4  -2  -7 305.175 11.8374  14
   4  -2  -7 302.927 9.97014   3
   4  -2  -7 280.312 7.87316   6
  -4  -2   7 286.568 8.58136  16
  -4   2   7 290.839 7.95128   1
  -4   2   7 287.722 7.99296  16
   4   2  -7 290.522 8.25618  15
  -4   2   7 304.985 9.22859  13
   4   2  -7 280.856 7.66067  11
   4   2  -7 284.968 9.15862   2
   4   2  -7 295.780 9.19783   3
  -2  -2   7 518.576 13.2396   1
  -2  -2   7 526.013 14.2967  13
   2  -2  -7 501.082 12.5920   5
  -2  -2   7 523.739 13.3502  16
   2  -2  -7 523.119 14.0965   3
   2  -2  -7 557.665 14.8951   9
   2  -2  -7 532.347 13.5615  11
  -2  -2   7 516.471 13.4220   4
  -2   2   7 527.628 13.8521  13
  -2   2   7 531.588 13.8189   4
   2   2  -7 528.543 13.6542  11
   2   2  -7 516.324 14.6420   2
   2   2  -7 538.108 15.2481  15
   0  -2   7 950.536 23.5734  13
   0  -2  -7 927.637 23.1249  11
   0  -2   7 957.209 22.7281   4
   0  -2  -7 939.458 22.5793   5
   0  -2  -7 943.235 23.9774   9
   0  -2   7 889.249 22.5654   7
   0  -2   7 942.228 22.2227   1
   0   2  -7 917.321 22.5139   5
   0   2   7 944.724 22.9761   4
   0   2  -7 985.902 24.1854   2
   0   2   7 942.605 24.2396   7
   0   2  -7 957.896 26.2316  15
   0   2   7 930.454 22.7606  13
   0   2  -7 951.837 23.5454  11
   2  -2   7 328.173 9.97591   4
   2  -2   7 316.526 10.7057  13
  -2  -2  -7 321.255 10.4331  11
  -2  -2  -7 341.887 10.5648   5
   2   2   7 324.800 9.95299  13
  -2   2  -7 321.874 10.4600   5
  -2   2  -7 323.079 10.7936  11
   2   2   7 313.399 10.9187   7
   2   2   7 328.762 10.2807   4
  -2   2  -7 318.772 13.1784  15
  -2   2  -7 333.021 10.6597   2
   4  -2   7 270.400 10.1974  13
  -4  -2  -7 272.949 10.3709   5
   4  -2   7 264.591 9.24282   4
  -4  -2  -7 270.711 10.1346  11
   4   2   7 258.064 9.44149   4
  -4   2  -7 250.863 10.0360   5
  -4   2  -7 264.660 10.1499  11
   4   2   7 262.704 10.1377   7
   6  -2   7 237.179 9.26823   4
  -6  -2  -7 222.934 10.2916   5
  -6  -2  -7 229.505 9.64540  11
  -6   2  -7 232.217 10.3642   5
   6   2   7 226.653 9.32980   4
  -6   2  -7 220.226 9.39748  11
  11  -3  -7 11.0298 4.24904  14
  11  -3  -7 20.0171 3.95000   3
 -11  -3   7 10.2795 2.45747  13
 -11  -3   7 14.8359 2.62533  12
 -11  -3   7 10.0310 2.47925   1
 -11   3   7 15.8919 3.10842  16
 -11   3   7 16.8566 3.35832   1
  11   3  -7 13.9611 3.68562   3
 -11   3   7 11.1172 2.55576  12
   9  -3  -7 12.9380 4.50857  14
  -9  -3   7 10.9741 2.17794  12
  -9  -3   7 13.8162 2.66875  16
  -9  -3   7 15.7450 2.90564   1
   9  -3  -7 15.1153 3.35471   3
   9  -3  -7 11.6793 2.08194   9
  -9  -3   7 15.7224 2.56513  13
   9   3  -7 9.80075 2.54912  10
  -9   3   7 22.9960 3.16489   1
  -9   3   7 21.7525 3.07778  16
   9   3  -7 16.5775 3.32785   3
  -9   3   7 13.0349 2.13539  12
  -7  -3   7 148.520 5.57771  12
   7  -3  -7 162.927 10.2569  14
  -7  -3   7 160.814 6.60189   1
  -7  -3   7 162.168 6.69280  16
  -7  -3   7 151.375 6.64426  13
   7  -3  -7 155.429 6.41343   9
   7  -3  -7 154.964 7.87129   3
   7   3  -7 159.823 5.91300   2
  -7   3   7 163.003 6.37162   1
   7   3  -7 165.915 7.55608  10
  -7   3   7 163.701 6.38859  16
   7   3  -7 161.045 7.41645   3
  -5  -3   7 9.62032 1.25619  12
   5  -3  -7 7.62974 1.52044   9
   5  -3  -7 9.20326 2.11791   3
  -5  -3   7 7.31528 1.55873  16
  -5  -3   7 7.21302 1.74056  13
   5  -3  -7 8.05274 2.37073  14
   5  -3  -7 8.88486 1.48375   6
  -5  -3   7 8.92019 1.70293   1
  -5   3   7 9.35648 1.39790   1
  -5   3   7 7.61760 1.29968  16
   5   3  -7 7.91706 1.61916   3
   5   3  -7 7.83483 2.08009  10
   5   3  -7 11.6420 1.95421   2
  -5   3   7 17.2520 2.25570  13
  -3  -3   7 281.507 8.15040   4
   3  -3  -7 284.654 9.37374   9
  -3  -3   7 287.707 8.46988   1
   3  -3  -7 273.669 7.98030   6
  -3  -3   7 294.184 8.59720  16
  -3  -3   7 297.538 9.27134  13
   3  -3  -7 283.962 9.58654   3
   3   3  -7 283.212 9.53460  10
   3   3  -7 287.995 8.41065   3
   3   3  -7 291.945 9.28798  15
   3   3  -7 282.408 8.20661  11
   3   3  -7 296.309 9.53109   2
  -3   3   7 296.649 8.72605   4
  -3   3   7 291.189 8.74181  13
   1  -3  -7 94.0421 3.73499   6
  -1  -3   7 98.2877 4.03083  16
  -1  -3   7 91.8255 3.88841   4
  -1  -3   7 105.188 4.88304  13
   1  -3  -7 100.843 4.93253   9
   1  -3  -7 97.0951 4.35133  11
   1  -3  -7 97.4970 3.83447   5
  -1  -3   7 97.3526 4.01775   1
   1   3  -7 102.921 4.61834  11
  -1   3   7 102.191 4.44213   4
  -1   3   7 102.858 5.33797   7
   1   3  -7 94.9916 5.53685  15
  -1   3   7 96.4192 4.00046  13
   1   3  -7 100.456 5.17144   2
  -1  -3  -7 138.960 5.94531   9
  -1  -3  -7 128.239 4.90909   6
  -1  -3  -7 133.404 5.44761   5
   1  -3   7 129.327 5.80554  13
   1  -3   7 126.382 5.12409   4
  -1  -3  -7 124.978 5.58903  11
  -1   3  -7 127.850 5.88294  11
   1   3   7 126.923 6.37205   7
   1   3   7 135.520 5.62042   4
  -1   3  -7 130.694 6.00458   2
   1   3   7 122.692 4.85595  13
  -1   3  -7 122.039 7.36941  15
  -1   3  -7 119.434 5.24427   5
   3  -3   7 0.72072 1.69166  13
   3  -3   7 0.01636 1.52208   8
   3  -3   7 0.31509 1.04132   4
  -3  -3  -7 0.64894 1.42074   5
  -3  -3  -7 0.59399 1.41823  11
   3   3   7 0.31739 1.27845   7
  -3   3  -7 1.80262 1.34390   2
   3   3   7 1.79387 1.64838   4
  -3   3  -7 0.59893 1.19554  11
  -3   3  -7 2.73422 1.59909   5
  -5  -3  -7 4.07102 2.11245   5
   5  -3   7 3.04254 1.97630   4
  -5  -3  -7 2.51011 1.94518  11
   5   3   7 6.37554 2.35039   4
  -5   3  -7 5.76676 2.31895  11
   5   3   7 1.95718 2.34223   7
  -5   3  -7 3.43348 2.10894   5
  12  -4  -7 3.01650 4.02264  14
 -12  -4   7 2.21077 2.47231   1
 -12  -4   7 2.63501 2.20305  12
  12  -4  -7 8.24557 3.20192   3
 -12   4   7 8.13683 2.90119   1
 -12   4   7 6.08049 2.42030  12
  12   4  -7 5.36874 3.12218   3
 -10  -4   7 324.237 12.3486  16
  10  -4  -7 357.840 14.4459   3
 -10  -4   7 324.446 12.3037  13
 -10  -4   7 340.600 12.4783   1
 -10  -4   7 341.394 11.6650  12
  10  -4  -7 357.555 19.4598  14
 -10   4   7 347.936 12.4394   1
 -10   4   7 328.146 12.3073  16
 -10   4   7 353.457 11.5734  12
  10   4  -7 359.593 14.1745   3
  10   4  -7 351.439 13.1198  10
   8  -4  -7 397.455 14.5942   3
  -8  -4   7 373.785 12.3586   1
  -8  -4   7 367.203 11.3688  12
   8  -4  -7 382.690 14.5649   8
  -8  -4   7 375.298 12.4560  13
   8  -4  -7 385.406 12.2186   9
   8  -4  -7 402.476 18.8274  14
  -8  -4   7 381.998 12.4117  16
  -8   4   7 377.841 11.2055  12
   8   4  -7 400.116 13.9529   3
  -8   4   7 394.031 12.1953   1
   8   4  -7 398.819 13.7379  10
  -8   4   7 387.977 12.3183  16
   6  -4  -7 34.4164 4.08838   3
   6  -4  -7 26.2824 2.25897   6
   6  -4  -7 30.2670 4.34821  14
  -6  -4   7 28.3645 2.16104  12
  -6  -4   7 26.7647 2.58617  13
   6  -4  -7 26.9090 3.61241   8
  -6  -4   7 29.8658 2.87793  16
  -6  -4   7 25.6173 2.78999   1
   6  -4  -7 38.8291 2.94695   9
  -6   4   7 30.9411 2.33332   1
   6   4  -7 30.7004 3.26161  10
  -6   4   7 34.8447 2.66719  16
   6   4  -7 26.5279 2.43837   2
  -4  -4   7 344.016 10.1763  16
   4  -4  -7 334.782 9.73677   6
  -4  -4   7 333.243 10.4700  13
   4  -4  -7 333.471 10.8087   9
  -4  -4   7 346.753 9.10597  12
  -4  -4   7 349.934 10.1896   1
  -4  -4   7 339.204 9.27551   4
   4  -4  -7 351.888 14.1895  14
   4  -4  -7 338.393 11.6904   3
   4   4  -7 342.840 10.9752   2
   4   4  -7 351.165 11.5386  10
  -4   4   7 344.251 10.2450  13
   4   4  -7 331.927 9.17170  11
   4   4  -7 349.672 10.4560   3
  -2  -4   7 255.871 7.48606   4
   2  -4  -7 255.187 7.75638   6
  -2  -4   7 267.972 8.15958   1
  -2  -4   7 265.436 8.22866  16
   2  -4  -7 248.680 8.90014   3
   2  -4  -7 268.810 9.07007   9
  -2  -4   7 259.624 8.68691  13
  -2   4   7 258.181 7.77794  13
  -2   4   7 262.402 8.17004   4
   2   4  -7 262.664 8.34471  11
   2   4  -7 259.266 9.75777  15
   2   4  -7 263.302 9.25715   2
   0  -4  -7 105.812 4.44323   6
   0  -4   7 100.302 4.15529   4
   0  -4  -7 106.305 5.26507   9
   0  -4  -7 116.099 4.74266   5
   0  -4   7 109.479 5.21193  13
   0  -4   7 105.018 4.56298   1
   0   4   7 117.456 6.11710   7
   0   4  -7 105.076 5.27220  11
   0   4   7 111.351 4.74832   4
   0   4  -7 97.9696 4.52598   5
   0   4  -7 106.301 6.65383  15
   0   4  -7 110.516 5.61688   2
   2  -4   7 520.033 15.6965  13
  -2  -4  -7 529.377 15.3531   9
   2  -4   7 532.616 14.3658   4
  -2  -4  -7 524.101 15.1270   5
  -2   4  -7 529.154 15.4564   2
   2   4   7 541.277 16.6798   7
  -2   4  -7 501.497 15.0610   5
   2   4   7 530.957 14.9715   4
  -2   4  -7 531.850 15.8477  11
   4  -4   7 122.578 5.67878   4
  -4  -4  -7 119.541 6.61138   5
   4  -4   7 111.893 6.71442  13
  -4   4  -7 121.254 6.47678  11
   4   4   7 122.993 6.23700   4
   4   4   7 113.238 6.62870   7
  -4   4  -7 115.107 6.42814   5
   6  -4   7 3.15643 2.00164   4
  -6  -4  -7 7.45015 2.59954   5
  -6   4  -7 1.04713 1.95389   5
   6   4   7 3.29114 2.24149   4
   6   4   7 -1.9886 2.22979   7
  -6   4  -7 1.41109 1.87071  11
 -11  -5   7 47.0985 4.57937  12
  11  -5  -7 49.0612 8.99448  14
 -11  -5   7 45.1655 4.60044   1
  11  -5  -7 50.8598 5.58145   3
  11   5  -7 46.5792 5.62887   3
 -11   5   7 46.6290 4.99575   1
  11   5  -7 44.4486 4.41049  10
 -11   5   7 39.6962 4.22200  12
  -9  -5   7 560.149 16.9970  16
  -9  -5   7 523.885 16.5205  13
   9  -5  -7 577.962 20.2897   8
   9  -5  -7 579.245 16.7939   9
  -9  -5   7 568.930 16.2245  12
   9  -5  -7 568.913 25.0806  14
  -9  -5   7 569.825 17.0801   1
   9  -5  -7 610.258 19.6672   3
  -9   5   7 557.585 16.9208  16
  -9   5   7 571.141 16.7640   1
  -9   5   7 493.783 16.8595  12
   9   5  -7 564.215 18.0550  10
   7  -5  -7 91.1531 5.16361   9
   7  -5  -7 80.4132 5.84555   3
  -7  -5   7 92.0717 4.93170   1
   7  -5  -7 93.8499 4.67709   6
   7  -5  -7 98.3274 8.51108  14
  -7  -5   7 87.8524 4.91732  13
  -7  -5   7 90.7495 5.12634  16
  -7  -5   7 87.8907 4.37244  12
   7  -5  -7 99.7965 6.85560   8
   7   5  -7 98.1637 6.40235  10
  -7   5   7 102.726 4.97283  16
  -7   5   7 93.1882 4.65304   1
   7   5  -7 90.6110 4.71377   2
   5  -5  -7 34.3293 4.93431  14
  -5  -5   7 21.9561 2.47902  13
   5  -5  -7 25.7395 2.60076   9
  -5  -5   7 23.7000 2.63167   1
  -5  -5   7 24.2295 2.39065  16
   5  -5  -7 23.9383 3.34062   8
   5  -5  -7 24.1132 3.48001   3
  -5  -5   7 25.2599 2.07243  12
   5  -5  -7 23.7100 2.48424   6
   5   5  -7 26.0026 3.51386  10
   5   5  -7 23.8459 2.98290   2
  -5   5   7 23.6869 2.58083  13
  -3  -5   7 203.793 7.08702  16
   3  -5  -7 198.932 6.78253   6
  -3  -5   7 208.725 7.14670   1
  -3  -5   7 189.450 5.97354   4
   3  -5  -7 196.807 7.72368   9
   3  -5  -7 227.189 8.68249   3
  -3  -5   7 197.912 7.24829  13
   3   5  -7 193.531 7.98288  15
   3   5  -7 205.374 7.87588  10
   3   5  -7 205.461 8.27074   2
   3   5  -7 186.145 6.68107  11
  -3   5   7 208.647 6.89555   4
  -1  -5   7 27.1681 1.84139   4
  -1  -5   7 22.5903 2.71930  13
   1  -5  -7 26.7758 2.33770   6
   1  -5  -7 28.0183 2.89610   9
  -1  -5   7 27.3533 2.58381   1
   1   5  -7 27.3593 3.61238  15
  -1   5   7 27.7580 2.65994   4
   1   5  -7 22.4707 2.67192  11
  -1   5   7 26.2106 3.43025   7
   1   5  -7 23.6600 2.98698   2
  -1  -5  -7 269.229 9.10071   6
   1  -5   7 290.546 10.0632  13
   1  -5   7 272.507 8.38778   4
  -1  -5  -7 288.221 9.49438   5
  -1  -5  -7 295.563 9.99390   9
  -1   5  -7 270.895 9.84446  11
  -1   5  -7 286.831 10.1130   2
   1   5   7 289.666 11.0751   7
  -1   5  -7 265.258 11.9301  15
  -1   5  -7 272.950 9.26380   5
   1   5   7 286.809 9.27551   4
  -3  -5  -7 404.099 13.1029   5
   3  -5   7 407.496 13.4277  13
   3  -5   7 399.950 11.6869   4
   3  -5   7 397.629 14.5731   8
   3   5   7 404.105 14.2885   7
  -3   5  -7 380.357 12.8294   5
   3   5   7 391.656 12.3306   4
  -3   5  -7 385.942 13.2172  11
  -5  -5  -7 3.61935 2.15624   5
  -5   5  -7 0.00938 1.73177   5
   5   5   7 -0.3645 1.96516   4
   5   5   7 0.34769 2.44848   7
  -5   5  -7 2.10966 2.09872  11
  10  -6  -7 84.1374 7.74268   8
 -10  -6   7 82.0789 5.79557   1
 -10  -6   7 73.8887 4.83401  12
  10  -6  -7 82.8531 6.84495   3
  10  -6  -7 79.8637 10.0120  14
  10  -6  -7 72.6175 5.17996   9
 -10   6   7 83.9911 5.55813   1
  10   6  -7 82.2888 5.95222  10
 -10   6   7 76.7232 5.53479  16
  -8  -6   7 36.1271 3.14226  13
   8  -6  -7 44.6110 4.64187   3
   8  -6  -7 42.5555 3.98577   9
  -8  -6   7 39.5368 3.39808  12
   8  -6  -7 46.0239 4.00799   6
   8  -6  -7 43.0569 5.36279   8
   8  -6  -7 39.2826 6.73899  14
  -8  -6   7 40.9139 3.61668   1
  -8  -6   7 44.2685 4.04666  16
  -8   6   7 42.4657 3.63965  16
   8   6  -7 38.5849 4.66090  10
   6  -6  -7 14.2199 2.35067   9
   6  -6  -7 14.5898 2.13191   6
   6  -6  -7 15.2533 3.09050   3
  -6  -6   7 14.6961 2.19520  16
   6  -6  -7 16.8478 4.00932  14
  -6  -6   7 17.1090 2.03471  12
  -6  -6   7 11.4138 2.29478   1
  -6  -6   7 19.7559 2.46272  13
   6  -6  -7 17.0043 3.29777   8
   6   6  -7 16.3474 2.71695   2
   6   6  -7 16.4048 2.98753  10
  -4  -6   7 644.585 17.2434   1
   4  -6  -7 649.475 17.0581   6
   4  -6  -7 641.691 19.0152   8
  -4  -6   7 658.529 17.4804  16
   4  -6  -7 622.801 19.3066   3
   4  -6  -7 628.153 18.0018   9
  -4  -6   7 650.619 17.3851  13
   4   6  -7 594.014 16.3569  11
  -4   6   7 662.793 16.8978   4
   4   6  -7 652.901 18.5644   2
   4   6  -7 670.868 18.8735  10
  -2  -6   7 276.496 9.30605  13
   2  -6  -7 281.927 8.99673   6
  -2  -6   7 289.391 9.17789   1
   2  -6  -7 282.438 9.82493   9
  -2  -6   7 286.510 9.24382  16
   2   6  -7 277.803 9.45008  10
  -2   6   7 282.582 8.74041   4
  -2   6   7 268.138 10.4857   7
   2   6  -7 275.569 10.3173   2
   2   6  -7 253.346 10.6368  15
   2   6  -7 270.059 9.22316  11
   0  -6   7 3.51778 1.39384  13
   0  -6   7 4.29692 1.62982   1
   0  -6  -7 3.91855 1.61796   9
   0  -6  -7 3.94944 1.39300   6
   0   6  -7 2.03720 1.43067   2
   0   6   7 5.62885 1.63249   4
   0   6  -7 4.31969 1.65456  11
   0   6   7 8.31785 2.57095   7
   0   6  -7 3.69492 1.82594  15
   0   6  -7 4.10134 1.50286   5
   2  -6   7 110.753 6.18492  13
  -2  -6  -7 111.449 5.70242   6
  -2  -6  -7 113.676 5.76856   5
   2   6   7 112.976 5.60896   4
   2   6   7 113.698 7.17682  10
   2   6   7 116.182 7.29772   7
  -2   6  -7 113.645 6.03512   2
  -2   6  -7 106.454 5.92006  11
  -4  -6  -7 90.0093 5.50424   6
   4  -6   7 89.9048 6.94453   8
  -4  -6  -7 91.0755 5.97288   5
  -4   6  -7 90.4937 5.70061  11
   4   6   7 91.0711 5.52647   4
  -4   6  -7 87.8956 5.70034   5
   4   6   7 94.2609 6.98739   7
   9  -7  -7 26.8287 3.58291   9
  -9  -7   7 27.9456 3.49385  12
   9  -7  -7 29.6848 6.72709  14
  -9  -7   7 23.4082 3.15239   1
  -9  -7   7 21.8926 3.01475  16
   9  -7  -7 27.4148 4.92505   8
   9  -7  -7 22.8972 4.16988   3
   9   7  -7 25.1052 3.91642  10
  -9   7   7 20.1881 3.02297  16
  -7  -7   7 246.491 8.66287  12
  -7  -7   7 242.056 9.35077   1
   7  -7  -7 245.647 15.0781  14
   7  -7  -7 255.498 9.05218   6
   7  -7  -7 248.737 11.2098   3
   7  -7  -7 242.423 9.83587   9
  -7  -7   7 244.497 9.38378  16
   7  -7  -7 239.872 11.4223   8
   7   7  -7 225.965 8.94338   2
   7   7  -7 256.127 11.2034  10
   5  -7  -7 51.9424 6.60901  14
  -5  -7   7 53.7653 4.02105  16
   5  -7  -7 55.8543 5.09565   3
   5  -7  -7 52.1243 4.01179   9
  -5  -7   7 57.5832 3.50307  12
  -5  -7   7 51.9125 3.62453  13
   5  -7  -7 59.9514 4.00998   6
   5  -7  -7 49.9208 4.87578   8
  -5  -7   7 52.7936 4.00158   1
  -5   7   7 49.6992 3.17883   4
   5   7  -7 54.1468 5.10436  10
   5   7  -7 55.7281 4.72898   2
   3  -7  -7 18.9454 2.48216   6
  -3  -7   7 23.8957 2.86521   1
  -3  -7   7 20.5357 2.63799  13
  -3  -7   7 21.8350 2.71799  16
   3  -7  -7 21.5916 2.99041   9
  -3   7   7 26.7794 2.26026   4
   3   7  -7 19.9803 3.48184   2
  -3   7   7 23.4747 3.23854   7
   3   7  -7 27.5585 3.50071  10
   3   7  -7 18.5190 2.60761  11
  -1  -7   7 197.857 7.57767   1
  -1  -7   7 194.072 7.87080  13
   1  -7  -7 194.981 8.04236   9
   1  -7  -7 191.631 7.48334   6
   1   7  -7 196.653 8.66121   2
  -1   7   7 196.092 6.89093   4
  -1   7   7 205.955 9.09027   7
   1   7  -7 177.189 9.37520  15
   1   7  -7 188.466 8.00397  11
   1  -7   7 214.513 8.51667  13
  -1  -7  -7 193.100 8.01858   9
  -1  -7  -7 199.597 8.06990   6
  -1   7  -7 203.966 8.56886  11
   1   7   7 194.529 9.48421   7
  -1   7  -7 186.342 8.36723   2
   1   7   7 190.115 7.31173   4
   1   7   7 195.195 9.88045  10
  -1   7  -7 176.451 7.41588   5
  -3  -7  -7 8.50386 2.42686   5
   3  -7   7 11.5800 2.66630  13
   3  -7   7 9.75242 3.43003   8
  -3  -7  -7 10.5526 2.44237   6
   3   7   7 7.59291 3.31511   7
  -3   7  -7 9.22988 2.29613  11
   3   7   7 10.4457 2.38911   4
   3   7   7 7.65997 2.83297  10
  -3   7  -7 3.79956 2.07910   5
 -10  -8   7 41.2937 4.30118  12
  10  -8  -7 46.3285 6.77603   8
  10  -8  -7 43.4148 5.22416   3
 -10  -8   7 37.9131 4.04936   1
  10  -8  -7 27.0700 6.77100  14
  10   8  -7 43.4446 5.38784  10
  -8  -8   7 65.2353 4.94858   1
  -8  -8   7 66.0685 4.67559  12
   8  -8  -7 72.7246 6.99967   8
   8  -8  -7 72.7172 5.15887   6
   8  -8  -7 59.1326 7.87859  14
   8  -8  -7 64.6241 6.23553   3
   8  -8  -7 64.5299 5.28773   9
  -8  -8   7 61.3717 4.54650  16
   8   8  -7 76.3493 6.60386  10
  -6  -8   7 549.614 15.6368  12
   6  -8  -7 562.605 19.3709   3
   6  -8  -7 537.830 19.2243   8
   6  -8  -7 564.727 16.3180   6
  -6  -8   7 545.033 16.3618  16
  -6  -8   7 569.731 16.5157   1
   6  -8  -7 562.697 24.0448  14
   6  -8  -7 560.609 17.3724   9
   6   8  -7 570.444 18.8222  10
   6   8  -7 545.682 17.1281   2
  -4  -8   7 421.065 13.0044  13
   4  -8  -7 433.152 13.2870   6
  -4  -8   7 446.699 13.6097   1
  -4  -8   7 429.612 13.5744  16
   4  -8  -7 420.251 15.0844   8
   4  -8  -7 441.762 14.3266   9
   4   8  -7 475.224 15.2564  10
   4   8  -7 456.974 15.2189   2
  -4   8   7 452.998 14.9296   7
   2  -8  -7 382.369 12.7266   9
   2  -8  -7 387.573 12.0815   6
  -2  -8   7 365.395 11.8221  13
  -2  -8   7 370.488 11.8559   1
  -2   8   7 365.384 13.4651   7
   2   8  -7 367.785 12.0313  10
   2   8  -7 356.813 12.1523  11
   2   8  -7 360.698 13.3036   2
   0  -8   7 333.359 11.4148  13
   0  -8  -7 334.389 11.2721   6
   0  -8  -7 316.163 11.3447   9
   0   8  -7 336.944 12.3017   2
   0   8   7 332.326 12.9181   7
   0   8   7 319.883 13.5012  10
   0   8  -7 329.918 11.6395  11
  -2  -8  -7 48.5971 4.08521   6
   2  -8   7 38.1305 4.20523  13
   2  -8   7 46.9588 5.80569   8
   2   8   7 46.6201 5.00253  10
  -2   8  -7 40.6481 3.88791  11
  -2   8  -7 44.2481 4.02189   5
   2   8   7 38.7122 5.11631   7
  -2   8  -7 43.7542 3.84961   2
   4  -8   7 141.126 9.19456   8
  -4  -8  -7 147.691 7.75630   6
  -4   8  -7 132.569 7.15213   5
  -4   8  -7 123.830 6.86127  11
   4   8   7 145.885 9.09530   7
  -9  -9   7 6.38248 2.28800  12
   9  -9  -7 6.82252 4.06651  14
  -9  -9   7 6.38966 2.44474   1
   9  -9  -7 3.35246 2.52112   3
   9  -9  -7 4.83623 3.14711   8
   9   9  -7 6.48347 2.47778  10
   7  -9  -7 23.1378 4.58702   8
   7  -9  -7 18.4573 3.05054   6
  -7  -9   7 26.8244 3.45753   1
   7  -9  -7 23.7227 5.88540  14
   7  -9  -7 27.0520 3.59865   9
   7  -9  -7 25.0919 4.44241   3
  -7  -9   7 29.9631 3.52545  12
  -7  -9   7 20.9453 2.85462  16
   7   9  -7 29.0096 3.80043   2
   7   9  -7 31.2018 4.93118  10
   5  -9  -7 62.8145 5.81197   8
   5  -9  -7 66.3473 4.81699   6
   5  -9  -7 66.3576 5.00494   9
  -5  -9   7 68.9840 4.90381   1
  -5  -9   7 69.2099 4.83560  16
  -5   9   7 75.8832 5.39838   7
   5   9  -7 68.2715 6.11431  10
   5   9  -7 64.2910 5.76347   2
   3  -9  -7 24.4593 3.15116   6
   3  -9  -7 20.9195 3.35164   9
  -3  -9   7 21.7812 3.04303  16
  -3  -9   7 27.3433 3.33592   1
   3   9  -7 20.9489 3.07531  11
   3   9  -7 25.5188 4.31062   2
  -3   9   7 25.7011 3.86120   7
   3   9  -7 21.1262 3.29353  10
  -1  -9   7 63.5541 4.66183   1
  -1  -9   7 60.2867 4.48596  13
   1  -9  -7 67.2336 4.91665   9
   1  -9  -7 62.0464 4.68974   6
  -1   9   7 60.9488 6.20093  10
   1   9  -7 65.3025 5.21775   2
  -1   9   7 61.4831 5.69925   7
   1   9  -7 63.6867 5.16855  11
  -1  -9  -7 12.3873 2.70329   6
   1  -9   7 12.0451 3.22834   8
   1  -9   7 14.8825 2.53883  13
   1   9   7 11.1175 3.51306   7
  -1   9  -7 14.3340 3.13641   2
   1   9   7 14.9323 3.87654  10
  -1   9  -7 13.2322 2.66197  11
  -1   9  -7 13.1511 2.81508   5
  -3  -9  -7 4.40595 2.24435   6
   3  -9   7 0.19356 2.56090   8
  -3   9  -7 1.61372 2.18367  11
   3   9   7 1.89685 2.13359   7
  -3   9  -7 1.26958 1.36833   5
   3   9   7 6.13352 2.83400  10
   8 -10  -7 6.00807 2.52231   6
   8 -10  -7 7.04504 2.30943   9
   8 -10  -7 10.1506 3.36072   3
  -8 -10   7 10.5490 2.33117   1
   8 -10  -7 5.67213 4.04588  14
  -8 -10   7 7.90233 2.39686  12
   8 -10  -7 5.82970 2.62948   8
   8  10  -7 6.61827 2.58978  10
   6 -10  -7 3.72306 2.27050   6
   6 -10  -7 9.48765 2.52371   9
  -6 -10   7 7.61561 1.99746   1
   6 -10  -7 9.54553 3.13811   8
   6  10  -7 1.33967 2.60888  10
   6  10  -7 6.08348 2.23232   2
  -6  10   7 3.50940 1.50194  10
   4 -10  -7 127.922 6.50820   6
  -4 -10   7 119.840 6.21740   1
  -4 -10   7 119.046 6.22352  16
   4 -10  -7 125.128 7.23902   9
   4  10  -7 114.926 7.30605   2
   4  10  -7 125.743 7.50714  10
  -4  10   7 129.743 7.88243  10
   2 -10  -7 56.1783 4.93953   9
  -2 -10   7 58.6496 4.35444   1
   2 -10  -7 63.5752 4.97604   6
   2  10  -7 65.9460 4.72326  11
  -2  10   7 59.5732 6.20453  10
  -2  10   7 58.3955 5.52061   7
   2  10  -7 69.4689 6.16887   2
   0 -10   7 12.1484 3.36789   8
   0 -10   7 13.5318 2.63561  13
   0 -10  -7 16.4651 2.97272   6
   0  10   7 10.7394 3.30429   7
   0  10  -7 11.2722 3.04345  11
   0  10  -7 12.2085 2.83590   2
   0  10   7 15.9615 4.11032  10
  -2 -10  -7 2.57557 2.08443   6
   2 -10   7 5.23285 3.23862   8
  -2  10  -7 13.3420 2.58524   2
   2  10   7 6.87076 3.17926  10
  -2  10  -7 7.33729 2.47970  11
   2  10   7 4.92414 3.23099   7
   5 -11  -7 68.9884 5.36503   6
   5 -11  -7 68.9270 5.43458   9
  -5 -11   7 68.6913 4.82741   1
   5  11  -7 73.7324 5.91040  10
  -5  11   7 72.3472 6.29758  10
   5  11  -7 68.8374 6.31969   2
   3 -11  -7 108.783 6.55799   6
  -3 -11   7 109.139 6.40176   1
   3 -11  -7 119.650 7.22825   9
  -3  11   7 112.100 8.26739  10
   3  11  -7 124.275 8.18362   2
   1 -11  -7 105.623 6.57413   6
  -1 -11   7 107.232 8.64255   8
   1  11  -7 110.065 6.77276  11
  -1  11   7 114.296 8.56537  10
   1  11  -7 95.3188 6.60056   2
  -1  11   7 98.5160 6.81906   7
 -12   0   8 1819.24 46.7391   1
  12   0  -8 1900.98 56.3548  14
  12   0  -8 1900.34 49.4708   3
 -12   0   8 1792.70 45.1175  12
  10   0  -8 1062.69 34.5116  14
 -10   0   8 965.384 25.7685  12
  10   0  -8 1041.17 30.0181   3
 -10   0   8 1039.09 27.5971   1
 -10   0   8 990.304 27.4093  16
  -8   0   8 1891.37 45.5951  16
  -8   0   8 1946.84 45.5951   1
  -8   0   8 1917.67 46.6916  13
   8   0  -8 1901.85 48.1184   3
   8   0  -8 1982.73 51.4685  14
   6   0  -8 2547.98 61.3835   9
  -6   0   8 2783.54 62.7229  13
  -6   0   8 2783.71 61.2738   1
   6   0  -8 2725.52 63.6600   3
  -6   0   8 2720.84 61.2960  16
   6   0  -8 2765.71 65.5448  14
  -4   0   8 3042.55 66.1040   4
  -4   0   8 3016.49 66.9118  13
   4   0  -8 2888.14 66.8011   3
   4   0  -8 2874.17 64.9558  11
  -4   0   8 2968.86 65.3224   1
   4   0  -8 2937.59 66.9828   9
  -4   0   8 2970.71 65.4307  16
   4   0  -8 2959.98 66.8052   2
  -2   0   8 5301.48 113.885   4
  -2   0   8 5276.49 114.449  13
   2   0  -8 5166.70 113.653  11
   2   0  -8 5353.10 115.166   2
  -2   0   8 4913.44 112.434  16
   0   0   8 2617.08 59.9562  13
   0   0  -8 2699.85 60.2109  11
   0   0   8 2588.18 60.2608   7
   0   0   8 2648.08 59.5998   4
  -2   0  -8 759.259 20.6813   5
  -2   0  -8 791.402 21.4470  11
   2   0   8 761.793 20.8150  13
   2   0   8 809.223 20.7240   4
   2   0   8 778.935 20.9250   7
  -4   0  -8 1561.97 38.3471  11
   4   0   8 1523.64 36.8623   4
  -4   0  -8 1426.03 37.7396   5
   4   0   8 1489.22 37.3598  13
 -11  -1   8 402.203 15.1501  13
 -11  -1   8 417.662 14.9140   1
 -11  -1   8 413.171 14.8292  16
  11  -1  -8 416.964 16.7070   3
  11  -1  -8 454.705 21.7302  14
 -11  -1   8 416.234 13.2509  12
 -11   1   8 402.023 14.6390  16
  11   1  -8 438.673 16.8097   3
 -11   1   8 409.209 14.7428   1
  11   1  -8 421.084 19.8848  14
  -9  -1   8 418.702 13.8056  16
  -9  -1   8 422.317 13.8299   1
  -9  -1   8 428.770 14.5654  13
   9  -1  -8 449.646 16.2388   3
   9  -1  -8 443.495 19.2593  14
  -9  -1   8 416.066 12.4076  12
  -9   1   8 442.466 14.0336   1
  -9   1   8 452.013 14.2502  16
   9   1  -8 456.755 18.3584  14
   9   1  -8 448.572 16.0098   3
  -7  -1   8 122.576 6.09400  13
   7  -1  -8 124.578 5.45376   9
   7  -1  -8 127.001 7.05786   3
   7  -1  -8 125.091 8.24105  14
  -7  -1   8 118.440 5.55346  16
  -7  -1   8 120.057 5.55024   1
   7   1  -8 123.764 7.36471  14
  -7   1   8 125.178 6.36526  13
   7   1  -8 121.027 5.08388   2
   7   1  -8 121.125 5.09434   9
   7   1  -8 133.221 6.85950   3
  -7   1   8 116.818 5.31030  16
  -7   1   8 118.419 5.39333   1
   5  -1  -8 969.527 24.4278   9
  -5  -1   8 965.002 23.4985  16
   5  -1  -8 992.161 27.6708  14
  -5  -1   8 986.008 24.6471  13
  -5  -1   8 928.909 23.2814   1
   5  -1  -8 944.732 25.2654   3
  -5   1   8 1005.64 24.7509  13
  -5   1   8 958.991 23.1139   1
   5   1  -8 929.492 24.0904   9
   5   1  -8 997.154 26.1049  14
   5   1  -8 963.449 24.1612   2
   5   1  -8 977.050 25.0767   3
  -5   1   8 952.789 23.1715  16
   3  -1  -8 885.288 22.9876   9
  -3  -1   8 909.641 21.8425   4
  -3  -1   8 907.449 22.6840  13
  -3  -1   8 887.246 21.2948  16
  -3  -1   8 877.372 21.1625   1
   3  -1  -8 883.466 22.2728   3
   3  -1  -8 873.828 21.3935  11
  -3   1   8 901.751 22.4533  13
  -3   1   8 871.776 20.6801  16
   3   1  -8 904.195 22.9413   2
   3   1  -8 880.857 21.3991  11
  -3   1   8 901.003 22.0017   4
  -1  -1   8 191.688 7.13050  13
  -1  -1   8 192.733 6.66101   4
   1  -1  -8 194.803 6.93624  11
  -1  -1   8 177.458 5.79999   1
  -1   1   8 190.657 6.88879  13
   1   1  -8 201.769 7.10405  11
  -1   1   8 203.795 7.84885   7
  -1   1   8 197.886 6.83159   4
   1   1  -8 192.798 7.67301   2
  -1  -1  -8 638.287 17.5217  11
   1  -1   8 620.449 17.3315  13
  -1  -1  -8 639.908 16.8166   5
   1  -1   8 621.986 16.7827   4
   1  -1   8 600.582 16.8062   7
   1   1   8 633.874 17.0252  13
  -1   1  -8 635.306 17.6628  11
   1   1   8 628.177 17.7986   7
  -1   1  -8 631.119 16.8000   5
   1   1   8 630.513 16.9845   4
  -1   1  -8 598.499 20.2021  15
   3  -1   8 320.562 10.8189   4
  -3  -1  -8 319.788 11.2746   5
  -3  -1  -8 333.236 11.6648  11
   3  -1   8 337.819 11.4140  13
   3   1   8 340.795 11.1887   4
  -3   1  -8 333.559 11.8515  11
   3   1   8 323.805 11.3010   7
   3   1   8 319.887 10.9260  13
  -3   1  -8 305.074 11.2100   5
   5  -1   8 85.0393 5.25777   4
  -5  -1  -8 78.5274 5.76964  11
  -5  -1  -8 74.5236 5.71296   5
   5   1   8 78.3319 5.16725   4
  -5   1  -8 78.1896 5.41081  11
  -5   1  -8 81.5997 5.82843   5
 -12  -2   8 113.886 7.48509   1
 -12  -2   8 106.057 7.33756  13
  12  -2  -8 121.493 12.0728  14
  12  -2  -8 112.695 8.32684   3
 -12   2   8 105.879 7.26656   1
  12   2  -8 111.081 8.02427   3
 -10  -2   8 109.729 6.62048   1
 -10  -2   8 112.802 5.61712  12
 -10  -2   8 126.653 6.89908  16
  10  -2  -8 120.733 8.09322   3
 -10  -2   8 120.260 7.08794  13
  10  -2  -8 137.432 11.0418  14
 -10   2   8 109.440 6.43911   1
  10   2  -8 127.881 7.82546   3
 -10   2   8 115.668 6.38922  16
   8  -2  -8 1078.34 33.6563  14
  -8  -2   8 1035.89 27.0781  16
  -8  -2   8 1013.62 25.3157  12
  -8  -2   8 1073.36 27.9749  13
  -8  -2   8 1050.72 26.9791   1
   8  -2  -8 1022.96 26.4192   9
   8  -2  -8 1089.33 29.8694   3
  -8   2   8 1062.80 26.9613  16
   8   2  -8 1095.90 29.3292   3
  -8   2   8 1066.62 26.7971   1
   6  -2  -8 922.914 27.6439  14
  -6  -2   8 873.999 23.2413  13
  -6  -2   8 906.267 22.6163  16
   6  -2  -8 857.595 22.7360   9
  -6  -2   8 877.833 22.3384   1
   6  -2  -8 887.609 24.7245   3
   6   2  -8 854.828 22.2693   9
  -6   2   8 891.246 22.0731  16
  -6   2   8 875.676 21.8679   1
  -6   2   8 940.713 23.5986  13
   6   2  -8 901.828 22.6489   2
   6   2  -8 910.703 24.0876   3
   4  -2  -8 44.1477 3.42981   3
  -4  -2   8 41.0574 2.81581  16
   4  -2  -8 43.6304 3.35756   9
  -4  -2   8 37.3317 2.65605   1
  -4  -2   8 42.6580 2.80236   4
  -4  -2   8 37.3383 3.25030  13
   4   2  -8 42.9574 2.27945  11
  -4   2   8 41.8917 2.24976  16
   4   2  -8 35.1408 3.08840   2
   4   2  -8 40.8416 2.89276   3
  -4   2   8 41.5963 2.79699   4
  -4   2   8 37.7944 3.06264  13
   2  -2  -8 350.526 10.4112   3
   2  -2  -8 358.441 11.4963   9
  -2  -2   8 340.059 9.66402   1
  -2  -2   8 349.147 9.84251  16
  -2  -2   8 350.243 10.9470  13
   2  -2  -8 344.154 10.1584  11
  -2  -2   8 351.593 10.0783   4
   2   2  -8 347.396 11.3922   2
  -2   2   8 362.927 10.5457  13
  -2   2   8 367.473 10.5597   4
   2   2  -8 337.851 10.2431  11
   2   2  -8 352.193 11.9063  15
   0  -2  -8 581.452 15.1386   5
   0  -2  -8 581.104 15.9267  11
   0  -2   8 599.697 15.4283   4
   0  -2   8 567.798 16.0864  13
   0  -2  -8 568.247 16.7364   9
   0   2   8 578.575 16.9081   7
   0   2  -8 555.299 16.1049  11
   0   2   8 574.802 15.6424   4
   0   2   8 564.993 15.3515  13
   0   2  -8 570.729 18.6814  15
   0   2  -8 578.408 16.6647   2
  -2  -2  -8 325.701 10.8371   5
  -2  -2  -8 341.837 11.7359   9
   2  -2   8 325.830 10.4566   4
   2  -2   8 311.904 11.1433  13
  -2  -2  -8 317.324 11.0755  11
   2   2   8 325.592 10.3727  13
   2   2   8 332.645 11.7110   7
  -2   2  -8 303.055 10.6545   5
   2   2   8 346.756 10.9708   4
  -2   2  -8 334.383 11.6622  11
   4  -2   8 454.462 14.2432   4
  -4  -2  -8 468.279 15.2828   5
  -4  -2  -8 482.404 15.4643  11
   4  -2   8 472.175 15.2816  13
   4   2   8 460.013 14.5100   4
  -4   2  -8 459.261 15.2694   5
  -4   2  -8 475.016 15.5063  11
   4   2   8 445.449 15.0220   7
 -11  -3   8 945.737 26.4547   1
  11  -3  -8 970.476 36.1729  14
  11  -3  -8 959.898 28.6969   3
 -11  -3   8 901.638 26.5394  13
 -11  -3   8 898.387 24.6265  12
  11   3  -8 922.494 28.1931   3
 -11   3   8 918.372 26.1870   1
   9  -3  -8 1432.48 36.3025   9
   9  -3  -8 1552.62 46.6543  14
   9  -3  -8 1449.18 39.8591   3
  -9  -3   8 1484.08 37.3246   1
  -9  -3   8 1488.71 37.9825  13
  -9  -3   8 1454.89 35.7181  12
  -9  -3   8 1479.60 37.4274  16
   9   3  -8 1546.79 38.8916  10
  -9   3   8 1507.34 37.2439   1
   9   3  -8 1628.68 40.2691   3
  -9   3   8 1520.91 37.3750  16
  -7  -3   8 1324.52 33.1871  13
   7  -3  -8 1294.77 35.2993   3
   7  -3  -8 1276.78 32.5785   9
  -7  -3   8 1311.21 32.6142  16
  -7  -3   8 1378.90 31.7882  12
   7  -3  -8 1375.08 39.5383  14
  -7  -3   8 1325.93 32.4667   1
  -7   3   8 1295.86 31.9450  16
  -7   3   8 1355.64 33.5588  13
   7   3  -8 1350.11 34.5738  10
  -7   3   8 1326.07 31.9144   1
   7   3  -8 1304.31 32.0158   2
   7   3  -8 1402.20 34.6351   3
   5  -3  -8 2022.00 48.8850   3
  -5  -3   8 2056.05 46.6515   1
  -5  -3   8 2002.00 47.4100  13
   5  -3  -8 2032.37 52.2824  14
   5  -3  -8 2034.54 47.5883   9
   5  -3  -8 1934.44 45.6563   6
  -5  -3   8 2048.99 46.7239  16
   5   3  -8 2055.02 48.6559  10
   5   3  -8 2048.41 47.5953   3
  -5   3   8 2002.34 45.6108  16
  -5   3   8 2058.35 47.3267  13
   5   3  -8 2036.86 47.5228   2
   3  -3  -8 1653.52 40.0737   3
  -3  -3   8 1693.56 38.7835  16
   3  -3  -8 1688.18 40.2773   9
  -3  -3   8 1669.15 39.7989  13
  -3  -3   8 1673.93 38.4246   4
  -3  -3   8 1655.56 38.5995   1
   3   3  -8 1727.60 40.6140   2
  -3   3   8 1687.24 39.1127  13
  -3   3   8 1730.44 39.1581   4
   3   3  -8 1631.00 38.5561  11
   3   3  -8 1676.29 40.1866  15
   1  -3  -8 1123.52 26.7231  11
  -1  -3   8 1091.75 27.1923  13
   1  -3  -8 1088.33 27.7110   9
  -1  -3   8 1109.25 25.9899   4
  -1  -3   8 1090.81 25.8470   1
   1  -3  -8 1064.48 25.6200   5
  -1   3   8 1106.23 28.2726   7
   1   3  -8 1041.31 29.3496  15
   1   3  -8 1086.25 27.9820   2
  -1   3   8 1087.54 26.5235   4
   1   3  -8 1052.68 26.8106  11
  -1   3   8 1070.01 26.0629  13
   1  -3   8 1816.91 41.6268   4
  -1  -3  -8 1803.09 42.5809  11
   1  -3   8 1779.33 42.8584  13
  -1  -3  -8 1810.82 43.2928   9
  -1   3  -8 1695.64 46.4807  15
   1   3   8 1776.02 43.7250   7
  -1   3  -8 1856.12 43.4447   2
  -1   3  -8 1833.86 43.3228  11
  -1   3  -8 1693.99 41.8067   5
   1   3   8 1818.95 42.1311   4
   3  -3   8 1181.39 31.2372  13
  -3  -3  -8 1235.83 31.3134  11
  -3  -3  -8 1262.00 31.3457   5
   3  -3   8 1235.74 30.0055   4
  -3   3  -8 1111.82 30.6303   5
   3   3   8 1170.01 31.5386   7
  -3   3  -8 1243.03 31.7982  11
   3   3   8 1223.27 30.5169   4
  -5  -3  -8 451.279 15.5869   5
   5  -3   8 459.037 14.1906   4
   5   3   8 456.637 14.4530   4
  -5   3  -8 417.954 15.0202   5
  -5   3  -8 456.801 15.3076  11
  12  -4  -8 185.266 14.9510  14
 -12  -4   8 194.095 8.82211  12
 -12  -4   8 213.959 9.77234   1
  12  -4  -8 203.717 11.0811   3
  12   4  -8 181.069 10.2789   3
 -12   4   8 205.477 9.79950   1
  10  -4  -8 27.1318 6.27748  14
 -10  -4   8 22.2464 2.75368  12
 -10  -4   8 20.6688 3.13032  13
 -10  -4   8 23.8500 3.28513   1
 -10  -4   8 24.8980 3.49004  16
  10  -4  -8 27.0225 4.66791   3
 -10   4   8 18.5142 3.13077  16
  10   4  -8 20.9040 4.06535   3
  10   4  -8 34.9840 4.52054  10
 -10   4   8 20.0054 2.99713   1
  -8  -4   8 12.8913 1.89518  12
  -8  -4   8 12.8201 2.28819   1
  -8  -4   8 17.4123 2.78353  13
   8  -4  -8 12.0643 2.99105   3
  -8  -4   8 12.3386 2.14229  16
   8  -4  -8 17.0538 4.75809  14
   8  -4  -8 14.2016 2.39792   9
   8   4  -8 20.2102 3.28825   3
  -8   4   8 23.0475 2.84936   1
  -8   4   8 18.4924 2.66481  16
   8   4  -8 16.3093 3.00145  10
  -6  -4   8 58.0833 3.89314  13
  -6  -4   8 56.7470 3.67784  16
   6  -4  -8 56.8191 6.24200  14
   6  -4  -8 54.1820 3.20215   6
   6  -4  -8 58.7222 3.91265   9
  -6  -4   8 58.3932 3.72212   1
   6  -4  -8 56.9554 4.94016   3
   6   4  -8 56.5494 3.93321   2
   6   4  -8 56.7055 4.29361   3
  -6   4   8 61.1195 4.18689  13
   6   4  -8 58.9175 4.64943  10
   4  -4  -8 158.225 5.79820   6
  -4  -4   8 171.950 6.40467   1
   4  -4  -8 170.415 7.51165   3
  -4  -4   8 170.596 5.72420   4
  -4  -4   8 163.982 6.70488  13
   4  -4  -8 167.868 7.01601   9
  -4  -4   8 162.677 6.39180  16
  -4   4   8 165.852 6.39503  13
   4   4  -8 156.882 5.54401  11
   4   4  -8 171.344 7.38805  10
   4   4  -8 171.610 7.30927   2
  -4   4   8 165.174 6.38166   4
  -2  -4   8 458.241 13.5318  13
  -2  -4   8 426.812 12.3350   1
  -2  -4   8 436.461 11.9669   4
  -2  -4   8 452.074 12.5980  16
   2  -4  -8 489.147 14.1281   9
   2  -4  -8 420.677 11.9805   6
  -2   4   8 440.195 12.2768  13
   2   4  -8 461.896 14.2800   2
  -2   4   8 482.888 14.8963   7
  -2   4   8 461.086 12.8089   4
   2   4  -8 436.356 12.8022  11
   0  -4  -8 124.155 6.14913   9
   0  -4   8 125.427 5.92605  13
   0  -4   8 117.753 4.86028   4
   0  -4  -8 117.913 5.15845   5
   0   4   8 109.315 5.39178   4
   0   4  -8 120.895 5.86189  11
   0   4   8 105.903 6.36394   7
   0   4  -8 115.319 7.17061  15
   0   4  -8 126.525 6.21997   2
  -2  -4  -8 7.99336 1.99441   5
  -2  -4  -8 4.38905 1.73374   9
   2  -4   8 7.14867 1.59160   4
   2  -4   8 4.45219 2.11624  13
   2   4   8 6.71694 2.20394   4
   2   4   8 6.66780 2.00825  10
  -2   4  -8 7.17545 1.89759   5
  -2   4  -8 4.26474 1.78047   2
   2   4   8 6.01227 2.53619   7
  -2   4  -8 6.50390 1.98757  11
  -4  -4  -8 46.6613 4.39618   5
   4  -4   8 38.9526 3.70884   4
   4  -4   8 52.5054 4.56537  13
  -4   4  -8 40.7173 4.61022  11
   4   4   8 42.5961 4.25902   4
   4   4   8 43.6592 4.77415   7
  -4   4  -8 45.2658 4.24221   5
  11  -5  -8 379.342 21.5054  14
  11  -5  -8 348.654 15.0182   3
 -11  -5   8 333.980 11.8845  12
 -11  -5   8 342.300 13.0698   1
  11   5  -8 353.751 13.7851  10
  11   5  -8 355.192 15.0342   3
   9  -5  -8 243.497 9.49572   9
  -9  -5   8 237.636 9.59087   1
  -9  -5   8 243.849 9.70988  13
  -9  -5   8 238.330 8.74013  12
  -9  -5   8 254.505 10.0367  16
   9  -5  -8 269.148 16.5504  14
   9  -5  -8 257.710 12.0159   3
   9   5  -8 256.130 11.2859   3
   9   5  -8 253.908 11.0525  10
  -9   5   8 232.319 9.31348  16
  -9   5   8 241.247 9.44158   1
   7  -5  -8 225.197 8.08082   6
  -7  -5   8 224.036 7.50263  12
   7  -5  -8 226.160 8.99211   9
  -7  -5   8 230.327 8.68922   1
   7  -5  -8 229.010 10.7172   3
  -7  -5   8 218.030 8.65106  16
  -7  -5   8 221.749 8.63356  13
   7  -5  -8 251.770 14.0421  14
   7   5  -8 249.997 10.4523  10
  -7   5   8 220.318 8.97263  13
   7   5  -8 223.320 8.50397   2
   7   5  -8 251.371 10.1176   3
  -5  -5   8 604.053 16.6386   1
   5  -5  -8 621.012 22.5656  14
   5  -5  -8 616.374 17.5826   9
  -5  -5   8 602.672 16.7699  16
  -5  -5   8 600.652 17.0788  13
  -5  -5   8 583.065 15.3438   4
   5  -5  -8 628.479 19.1802   3
   5   5  -8 609.076 17.7084   2
  -5   5   8 601.560 16.6220  13
  -5   5   8 613.176 16.4798   4
   5   5  -8 624.887 17.2298   3
   5   5  -8 620.609 18.5529  10
   3  -5  -8 907.320 22.5752   6
  -3  -5   8 941.638 23.1248   1
   3  -5  -8 917.847 24.3661   9
  -3  -5   8 916.730 23.1306  16
  -3  -5   8 923.538 23.7063  13
   3  -5  -8 896.613 24.6252   3
  -3  -5   8 889.305 21.8270   4
   3   5  -8 931.800 24.8426   2
   3   5  -8 896.375 22.8141  11
   3   5  -8 929.274 24.2307  10
  -3   5   8 945.339 23.0603   4
   1  -5  -8 495.027 13.9479   6
  -1  -5   8 516.956 13.5152   4
  -1  -5   8 531.856 14.4221   1
   1  -5  -8 528.303 15.6658   9
  -1  -5   8 512.190 15.1435  13
   1   5  -8 512.291 15.8652   2
  -1   5   8 518.628 14.4402   4
   1   5  -8 494.218 14.8396  11
  -1   5   8 543.103 16.8098   7
   1   5  -8 484.005 17.1154  15
  -1  -5  -8 268.754 9.38516   6
  -1  -5  -8 298.452 10.6062   9
   1  -5   8 282.969 10.5094  13
  -1  -5  -8 287.354 9.88548   5
   1  -5   8 278.224 8.91840   4
   1   5   8 289.361 9.85597   4
   1   5   8 296.521 11.7188   7
  -1   5  -8 275.908 10.3171  11
  -1   5  -8 285.777 10.4599   2
  -3  -5  -8 247.426 9.78575   5
   3  -5   8 239.706 10.1421  13
   3  -5   8 230.722 10.6007   8
   3   5   8 248.931 10.8863   7
  -3   5  -8 238.568 9.73174  11
  -3   5  -8 212.277 9.06476   5
   3   5   8 226.373 9.08388   4
 -10  -6   8 1146.13 30.1070   1
 -10  -6   8 1083.05 28.5391  12
  10  -6  -8 1128.80 41.1722  14
  10  -6  -8 1166.21 33.1000   3
  10  -6  -8 1091.47 29.3916   9
 -10   6   8 1123.80 29.5943   1
  10   6  -8 1111.79 31.5667  10
  10   6  -8 1099.37 31.7962   3
  -8  -6   8 1648.08 41.1106  13
   8  -6  -8 1681.39 41.7985   9
   8  -6  -8 1693.37 44.7495   3
   8  -6  -8 1673.80 45.3115   8
  -8  -6   8 1672.35 41.4655  16
  -8  -6   8 1697.47 40.0273  12
   8  -6  -8 1720.68 40.8172   6
  -8  -6   8 1699.65 41.4297   1
   8  -6  -8 1753.92 52.4560  14
   8   6  -8 1717.23 43.7182  10
   6  -6  -8 1940.77 44.4325   6
  -6  -6   8 1910.65 45.0036  16
   6  -6  -8 1850.14 47.8556   3
  -6  -6   8 1859.27 44.8196  13
   6  -6  -8 1877.99 53.1517  14
  -6  -6   8 1925.78 44.8664   1
   6  -6  -8 1860.14 45.5948   9
   6   6  -8 1847.40 45.4334   2
   6   6  -8 1951.91 47.1634  10
  -6   6   8 1861.12 44.6473  13
  -4  -6   8 1554.61 37.7998  13
   4  -6  -8 1552.72 40.0205   3
   4  -6  -8 1580.02 38.7593   9
   4  -6  -8 1540.75 36.9897   6
  -4  -6   8 1557.01 37.5599  16
  -4  -6   8 1559.17 37.3917   1
   4   6  -8 1600.01 39.2607   2
   4   6  -8 1587.69 39.1426  10
  -4   6   8 1566.50 37.0987   4
  -2  -6   8 1229.25 30.2505  13
   2  -6  -8 1207.71 30.7304   9
  -2  -6   8 1202.03 29.4124   1
  -2  -6   8 1190.79 29.4932  16
   2  -6  -8 1189.34 29.1702   6
   2   6  -8 1136.51 32.0996  15
  -2   6   8 1225.51 32.0504   7
   2   6  -8 1229.50 31.4371   2
  -2   6   8 1209.10 29.2382   4
   2   6  -8 1165.72 29.7097  11
   0  -6  -8 1530.53 37.5339   6
   0  -6  -8 1594.73 38.8808   9
   0  -6   8 1584.17 38.7469  13
   0   6   8 1565.91 37.5804   4
   0   6   8 1582.90 40.6353   7
   0   6  -8 1581.05 38.7409  11
   0   6  -8 1571.56 39.1953   2
  -2  -6  -8 1600.12 38.4992   5
   2  -6   8 1552.80 38.9462  13
   2   6   8 1553.27 37.5640   4
   2   6   8 1594.26 40.6634   7
   2   6   8 1481.96 40.3022  10
  -2   6  -8 1423.90 37.5294   5
  -2   6  -8 1610.80 38.6252   2
  -2   6  -8 1546.40 38.7588  11
  -4  -6  -8 964.717 26.1873   5
  -4   6  -8 852.879 24.8702   5
  -4   6  -8 913.839 25.6679  11
   4   6   8 921.806 24.5856   4
   4   6   8 915.612 26.9475   7
   9  -7  -8 274.608 12.6096   3
   9  -7  -8 254.767 16.8985  14
  -9  -7   8 262.372 10.5557   1
  -9  -7   8 253.680 9.53820  12
   9  -7  -8 251.946 10.5387   9
   9  -7  -8 266.729 13.2611   8
   9   7  -8 267.580 11.7602  10
   7  -7  -8 480.921 14.5270   6
  -7  -7   8 490.287 14.9132   1
  -7  -7   8 478.437 13.8948  12
  -7  -7   8 481.800 14.9787  16
   7  -7  -8 478.075 15.5123   9
  -7  -7   8 454.106 14.3014  13
   7  -7  -8 489.000 22.5586  14
   7  -7  -8 469.327 17.4876   3
   7  -7  -8 480.948 17.8542   8
   7   7  -8 515.966 17.1916  10
   7   7  -8 467.858 15.0137   2
   5  -7  -8 119.015 6.53643   9
   5  -7  -8 119.038 7.54647   3
   5  -7  -8 118.279 5.56144   6
  -5  -7   8 122.956 5.95702  13
  -5  -7   8 113.478 5.89246  16
  -5  -7   8 115.181 5.92306   1
   5   7  -8 120.300 7.13855  10
   5   7  -8 127.203 7.02305   2
  -5   7   8 116.325 5.52442   4
   3  -7  -8 72.6343 4.10814   6
   3  -7  -8 70.1899 5.02900   9
  -3  -7   8 72.5802 4.29370   1
  -3  -7   8 68.6315 4.55492  13
  -3  -7   8 68.5725 4.45320  16
  -3   7   8 66.6423 4.02731   4
   3   7  -8 66.7840 4.24306  11
   3   7  -8 64.6763 4.79589  10
   3   7  -8 69.9389 5.60860   2
  -3   7   8 64.4039 5.03751   7
  -1  -7   8 219.658 8.88877  13
   1  -7  -8 219.847 9.07438   9
   1  -7  -8 209.742 8.11520   6
  -1  -7   8 217.153 8.17736   1
   1   7  -8 210.041 8.49264  11
   1   7  -8 221.263 9.61591   2
  -1   7   8 211.559 7.90218   4
  -1   7   8 226.574 10.3272   7
   1  -7   8 224.170 9.51646  13
  -1  -7  -8 235.546 8.89280   6
   1   7   8 223.816 8.41249   4
  -1   7  -8 217.175 9.33587  11
   1   7   8 218.523 10.5371   7
   1   7   8 220.040 10.9610  10
  -1   7  -8 233.582 9.45322   2
   3  -7   8 278.425 12.7805   8
   3  -7   8 284.684 11.5027  13
   3   7   8 266.257 11.7163  10
   3   7   8 263.954 9.79322   4
  -3   7  -8 279.366 11.1380  11
   3   7   8 275.127 12.4835   7
  10  -8  -8 559.128 21.6695   8
 -10  -8   8 539.374 16.5256  12
 -10  -8   8 534.064 17.1882   1
  10  -8  -8 535.368 17.3841   9
  10  -8  -8 558.970 27.1135  14
  -8  -8   8 246.441 9.33870  12
   8  -8  -8 254.402 16.9622  14
   8  -8  -8 249.372 13.0416   8
   8  -8  -8 256.623 12.4014   3
   8  -8  -8 260.486 9.97373   6
  -8  -8   8 258.408 10.0530   1
   8  -8  -8 254.559 10.8190   9
   8   8  -8 261.206 12.0403  10
   6  -8  -8 414.307 14.1913   9
   6  -8  -8 409.659 15.8783   8
  -6  -8   8 396.865 13.2083   1
   6  -8  -8 407.164 13.0373   6
  -6  -8   8 391.360 13.2284  16
   6  -8  -8 409.257 15.9955   3
   6   8  -8 426.399 15.4614  10
   6   8  -8 410.170 14.2333   2
  -4  -8   8 976.456 25.7857  13
  -4  -8   8 984.215 26.1140  16
   4  -8  -8 1005.12 27.2685   9
   4  -8  -8 1015.90 25.9143   6
  -4  -8   8 1013.61 26.1151   1
   4   8  -8 1020.41 27.3825  10
   4   8  -8 998.074 27.7923   2
  -4   8   8 989.792 27.9565   7
  -2  -8   8 621.739 17.7935   1
   2  -8  -8 637.103 18.9101   9
  -2  -8   8 630.380 18.1751  13
   2  -8  -8 643.317 17.9595   6
   2   8  -8 595.429 17.9656  11
  -2   8   8 618.779 19.9901   7
   2   8  -8 631.541 19.6517   2
   0  -8   8 533.631 16.5643  13
   0  -8  -8 517.586 16.2815   9
   0  -8  -8 529.622 16.0595   6
   0   8   8 530.811 18.3008   7
   0   8  -8 519.120 16.4260  11
   0   8   8 513.424 18.9304  10
   0   8  -8 545.213 17.2221   2
   2  -8   8 455.510 17.9821   8
   2  -8   8 493.597 15.8970  13
  -2  -8  -8 468.148 15.1973   6
  -2   8  -8 438.281 15.1347  11
  -2   8  -8 452.796 14.9783   2
   2   8   8 472.091 17.3115   7
   2   8   8 463.931 17.4782  10
  -9  -9   8 339.485 12.7090   1
   9  -9  -8 345.834 13.3461   9
   9  -9  -8 377.939 12.8072   6
  -9  -9   8 345.353 12.1956  12
   9  -9  -8 356.200 16.6297   8
   9  -9  -8 383.663 15.8244   3
   9  -9  -8 344.768 20.5849  14
   9   9  -8 358.831 14.6600  10
   7  -9  -8 739.845 20.7677   6
   7  -9  -8 741.034 24.2457   3
   7  -9  -8 721.173 24.8070   8
   7  -9  -8 715.785 22.0037   9
  -7  -9   8 702.611 20.7239   1
   7   9  -8 699.464 21.3275   2
   7   9  -8 762.993 23.4383  10
  -5  -9   8 675.828 19.9181  16
   5  -9  -8 669.258 20.8414   9
   5  -9  -8 698.076 19.7820   6
  -5  -9   8 713.362 20.1327   1
   5   9  -8 741.202 22.0911  10
   5   9  -8 686.326 21.3152   2
  -5   9   8 733.553 21.6693   7
   3  -9  -8 1218.76 30.8582   6
  -3  -9   8 1221.56 30.9102   1
  -3  -9   8 1194.83 30.7014  13
   3  -9  -8 1203.41 32.0600   9
   3   9  -8 1176.64 30.6145  11
  -3   9   8 1208.22 33.0914   7
   3   9  -8 1235.17 32.9476   2
   1  -9  -8 1294.74 33.2755   6
   1  -9  -8 1322.31 34.0293   9
  -1  -9   8 1332.88 33.4441  13
   1   9  -8 1328.54 34.9588   2
  -1   9   8 1271.45 35.6421   7
  -1   9   8 1292.82 37.0416  10
  -1  -9  -8 329.925 12.2554   6
   1  -9   8 343.666 12.6134  13
   1  -9   8 349.542 15.3866   8
  -1   9  -8 345.044 12.6731   2
   1   9   8 341.152 13.9792   7
   1   9   8 316.099 14.6028  10
  -1   9  -8 332.051 12.3111  11
   6 -10  -8 21.8464 4.15707   8
   6 -10  -8 24.2163 3.85221   9
   6 -10  -8 27.4414 3.64553   6
  -6 -10   8 21.4865 3.15773   1
  -6  10   8 23.7633 3.59791  10
   6  10  -8 26.3433 4.36210  10
   6  10  -8 23.7564 3.92085   2
  -4 -10   8 95.0038 5.64687   1
   4 -10  -8 101.224 6.42603   9
   4 -10  -8 98.7135 6.02745   6
  -4  10   8 100.454 6.89764   7
   4  10  -8 97.6108 6.66191   2
  -4  10   8 108.971 7.94654  10
   4  10  -8 95.3843 6.43628  10
   2 -10  -8 6.56050 2.20743   6
  -2 -10   8 3.69975 1.64930   1
   2 -10  -8 4.29398 2.12430   9
  -2  10   8 7.23345 2.97191   7
   2  10  -8 10.0337 3.29569   2
  -2  10   8 7.35377 3.39016  10
   2  10  -8 4.55567 2.12023  11
   0 -10   8 14.7053 3.67866   8
   0 -10  -8 17.0828 2.82063   6
   0 -10   8 14.2002 2.55757  13
   0  10   8 11.5741 3.67440   7
   0  10  -8 13.0353 3.05037  11
   0  10   8 11.6633 3.57810  10
   0  10  -8 16.2522 3.47132   2
   5 -11  -8 166.956 8.91621   9
   5 -11  -8 172.125 8.06678   6
  -5 -11   8 167.817 7.88472   1
   5  11  -8 173.790 8.98824  10
   5  11  -8 173.170 8.97086   2
  -5  11   8 178.190 9.59469  10
   3 -11  -8 110.418 6.82400   9
   3 -11  -8 111.482 6.62561   6
  -3 -11   8 101.851 6.37753   1
   3  11  -8 111.237 7.68900   2
  -3  11   8 114.981 8.10994  10
  12   0  -9 1.49804 3.09941  14
 -12   0   9 2.16278 2.33192   1
  12   0  -9 -0.3434 1.61105   3
 -12   0   9 1.62845 1.76941  13
 -10   0   9 5.31207 2.23865   1
  10   0  -9 1.92046 2.63223  14
 -10   0   9 2.04064 2.22542  13
 -10   0   9 4.23016 1.77187  16
  10   0  -9 3.37883 2.06795   3
  -8   0   9 0.77912 1.45922   1
   8   0  -9 3.55727 2.06477   3
  -8   0   9 1.96034 1.55506  16
   8   0  -9 -0.4067 1.69873  14
  -8   0   9 1.09639 1.46446  13
   8   0  -9 3.53377 1.39383   9
  -6   0   9 0.76204 1.03211  16
  -6   0   9 0.35864 1.15136  13
  -6   0   9 -0.8823 0.94657   1
   6   0  -9 0.83901 1.22526   3
   6   0  -9 8.64314 1.87131   9
   6   0  -9 -0.2396 1.24318  14
  -4   0   9 4.60027 1.28633   4
  -4   0   9 -0.0404 0.78757   1
   4   0  -9 0.56303 0.94156   3
  -4   0   9 1.21549 0.85328  16
   4   0  -9 0.93714 1.28848   9
  -4   0   9 0.18119 1.32583  13
   4   0  -9 0.12102 0.73679  11
   2   0  -9 0.77612 1.01813  11
  -2   0   9 1.88141 1.11785  13
  -2   0   9 2.76149 1.46145   4
   0   0   9 0.20395 1.03290  13
   0   0   9 1.40986 1.48193   4
   0   0   9 1.02748 1.30919   7
   0   0  -9 0.29024 1.25073  11
  -2   0  -9 -0.2520 1.27202   5
  -2   0  -9 1.71781 1.36509  11
   2   0   9 0.52835 1.57487  13
   2   0   9 -0.4602 1.20393   4
  -4   0  -9 2.61980 1.96616   5
   4   0   9 1.46523 1.57722   4
  -4   0  -9 -2.8299 1.47896  11
  11  -1  -9 159.575 12.5499  14
  11  -1  -9 151.530 9.60856   3
 -11  -1   9 130.553 8.15594  13
 -11  -1   9 139.733 7.87825   1
 -11   1   9 143.161 8.27683  13
  11   1  -9 153.640 9.65909   3
 -11   1   9 148.025 7.67962   1
   9  -1  -9 73.7970 7.64386  14
   9  -1  -9 84.7282 6.63782   3
  -9  -1   9 72.2415 5.02950  16
  -9  -1   9 79.2940 5.22607   1
  -9  -1   9 72.0573 5.32741  13
  -9   1   9 68.5653 4.95774   1
   9   1  -9 76.2239 7.05460  14
  -9   1   9 73.2747 5.03447  16
   9   1  -9 74.3022 6.25608   3
  -9   1   9 77.0616 5.82258  13
  -7  -1   9 3.86528 1.99234  13
   7  -1  -9 3.68265 2.23167  14
  -7  -1   9 1.79977 1.47551   1
  -7  -1   9 4.23876 1.59399  16
   7  -1  -9 5.61359 2.13723   3
   7  -1  -9 2.76346 1.39412   9
   7   1  -9 2.75562 1.53031   3
  -7   1   9 6.14622 1.70142   1
  -7   1   9 5.81559 1.40213  16
  -7   1   9 3.22202 1.57890  13
   7   1  -9 2.74431 1.20612   9
  -5  -1   9 13.2416 2.09068   4
   5  -1  -9 12.7186 2.39402   3
  -5  -1   9 11.7304 1.63204   1
  -5  -1   9 10.6038 2.06238  13
  -5  -1   9 10.8498 1.77112  16
   5  -1  -9 12.5294 2.10564   9
   5   1  -9 9.32181 1.89430   9
  -5   1   9 11.9848 1.55067  16
   5   1  -9 10.5266 2.06359   2
   5   1  -9 13.0745 2.22563   3
  -5   1   9 13.0272 2.17505  13
  -5   1   9 10.7114 1.57053   1
  -5   1   9 10.4275 1.79008   4
   3  -1  -9 367.555 10.5969  11
  -3  -1   9 351.438 10.0611  16
  -3  -1   9 375.402 10.9598   4
  -3  -1   9 372.220 11.7202  13
   3  -1  -9 365.472 12.1821   9
  -3  -1   9 365.925 10.0668   1
   3   1  -9 352.015 11.8270   2
  -3   1   9 359.709 10.9404   4
  -3   1   9 377.232 11.4530  13
   3   1  -9 359.032 10.4976  11
  -1  -1   9 322.978 10.7417   7
   1  -1  -9 334.815 10.6493  11
  -1  -1   9 336.554 10.9281  13
  -1  -1   9 338.939 10.3301   4
  -1   1   9 333.517 10.4567   4
   1   1  -9 349.371 11.8905   2
   1   1  -9 333.922 10.8306  11
   1   1  -9 342.053 12.9348  15
  -1   1   9 337.382 10.7101  13
  -1   1   9 312.020 11.1775   7
  -1  -1  -9 24.9409 3.26959  11
   1  -1   9 28.9632 3.39758  13
   1  -1   9 27.2126 2.91672   4
   1   1   9 32.0400 3.21122   4
  -1   1  -9 27.9550 3.29884  11
   1   1   9 27.8109 3.13111  13
   1   1   9 45.5751 4.01284   7
  -3  -1  -9 8.03238 2.49201   9
   3  -1   9 7.61803 2.38928   4
  -3  -1  -9 9.88292 2.32053   5
  -3  -1  -9 6.55264 2.38380  11
   3  -1   9 12.0760 2.78778  13
  -3   1  -9 8.56806 2.32571  11
   3   1   9 12.3563 2.77639   4
  -3   1  -9 8.95940 2.36858   5
 -12  -2   9 105.609 7.14748   1
 -12  -2   9 98.7093 7.36023  13
  12  -2  -9 108.584 8.46554   3
  12  -2  -9 99.2742 10.4975  14
 -12   2   9 103.795 7.02492   1
  12   2  -9 106.026 8.31863   3
 -10  -2   9 194.475 9.49971  13
 -10  -2   9 173.241 8.48688   1
  10  -2  -9 205.797 10.7418   3
 -10  -2   9 179.583 8.60660  16
  10  -2  -9 211.856 13.9286  14
  10   2  -9 192.755 10.1880   3
 -10   2   9 195.324 8.75351  16
 -10   2   9 192.209 9.37833  13
 -10   2   9 191.077 8.69579   1
   8  -2  -9 598.211 17.5128   9
   8  -2  -9 641.013 23.6806  14
  -8  -2   9 622.128 18.5990  13
   8  -2  -9 642.625 20.5958   3
  -8  -2   9 608.767 17.7479  16
  -8  -2   9 632.945 17.8418   1
  -8   2   9 643.017 17.7116  16
   8   2  -9 686.510 20.5223   3
   8   2  -9 595.746 16.8574   2
  -8   2   9 616.057 17.3561   1
  -8   2   9 626.006 18.9698  13
   6  -2  -9 395.521 12.6746   9
   6  -2  -9 395.051 13.8098   3
  -6  -2   9 394.980 11.9699  16
  -6  -2   9 394.549 12.8352  13
  -6  -2   9 398.257 11.8843   1
   6  -2  -9 411.112 16.2484  14
   6   2  -9 398.855 12.3436   2
  -6   2   9 389.164 11.2601   1
  -6   2   9 398.087 11.4186  16
  -6   2   9 419.401 12.9362  13
   6   2  -9 397.749 13.2155   3
   6   2  -9 380.484 12.1197   9
   4  -2  -9 355.293 11.7509   3
  -4  -2   9 367.312 10.8392   4
  -4  -2   9 370.134 11.8006  13
  -4  -2   9 359.080 10.6425  16
  -4  -2   9 364.829 10.5279   1
   4  -2  -9 379.694 12.3064   9
   4   2  -9 362.777 12.0673   2
  -4   2   9 378.465 11.6475  13
  -4   2   9 362.396 11.0993   4
   4   2  -9 354.109 10.1587  11
  -2  -2   9 542.951 14.0325   1
   2  -2  -9 534.713 14.7925  11
  -2  -2   9 537.969 14.1073  16
  -2  -2   9 537.013 14.5922   4
  -2  -2   9 538.395 15.6918  13
   2  -2  -9 558.808 16.4055   9
   2   2  -9 526.903 14.9153  11
  -2   2   9 520.111 14.9533  13
  -2   2   9 550.402 15.0135   4
   2   2  -9 543.912 16.4294   2
   0  -2  -9 229.021 9.50882   9
   0  -2   9 226.240 7.97516   4
   0  -2  -9 221.947 8.49915  11
   0  -2   9 224.412 8.78284  13
   0   2   9 231.065 9.35485   7
   0   2  -9 223.696 10.7531  15
   0   2   9 229.894 8.31173   4
   0   2   9 218.119 8.03062  13
   0   2  -9 222.222 9.25766   2
   0   2  -9 236.403 8.86738  11
   2  -2   9 264.017 9.51012   4
  -2  -2  -9 263.851 10.3959  11
  -2  -2  -9 264.794 9.83574   5
   2  -2   9 263.842 10.3196  13
  -2  -2  -9 283.278 11.0881   9
   2   2   9 264.122 10.5825   7
  -2   2  -9 275.286 10.7595  11
   2   2   9 258.648 9.80297   4
   4  -2   9 305.373 10.8634   4
  -4  -2  -9 306.512 11.7848  11
  -4  -2  -9 294.531 11.6989   5
  -4   2  -9 306.258 11.8876  11
  -4   2  -9 272.602 11.2373   5
   4   2   9 301.259 11.0987   4
  11  -3  -9 102.532 10.8401  14
  11  -3  -9 107.280 8.29373   3
 -11  -3   9 90.5599 6.68850  13
 -11  -3   9 104.357 6.80604   1
 -11   3   9 106.975 6.73418   1
  11   3  -9 98.9393 7.78074   3
   9  -3  -9 37.3885 5.19904   3
  -9  -3   9 33.1279 3.79635  16
   9  -3  -9 34.5717 6.36809  14
  -9  -3   9 35.3699 4.03894   1
  -9  -3   9 32.4916 4.09072  13
   9   3  -9 33.1334 4.56581   3
  -9   3   9 31.8457 4.21816  13
  -9   3   9 29.9822 3.48400  16
  -9   3   9 39.1759 4.10156   1
   7  -3  -9 163.372 8.62878   3
  -7  -3   9 159.319 6.66837   1
  -7  -3   9 150.904 7.13910  13
  -7  -3   9 148.735 6.61699  16
   7  -3  -9 156.090 10.0878  14
   7  -3  -9 157.351 7.10333   9
  -7   3   9 153.932 6.23737   1
  -7   3   9 157.998 6.35800  16
   7   3  -9 164.238 7.97278   3
   7   3  -9 161.685 6.83817   2
  -7   3   9 159.590 7.43070  13
  -5  -3   9 5.12028 1.48371   4
   5  -3  -9 2.00807 1.57796   9
  -5  -3   9 2.93423 1.62869  13
  -5  -3   9 4.69579 1.50475  16
   5  -3  -9 6.27186 1.95230   3
  -5  -3   9 3.09879 1.43833   1
   5   3  -9 2.98923 1.69487   2
  -5   3   9 2.64369 1.25557  13
  -5   3   9 2.57562 1.19496   4
  -3  -3   9 1.90105 0.94508   4
   3  -3  -9 -0.2835 1.03471   3
  -3  -3   9 1.82641 0.90193   1
  -3  -3   9 2.49765 1.21553  16
  -3  -3   9 -0.3441 0.96753  13
   3  -3  -9 1.43072 1.44361   9
   3   3  -9 13.8982 2.54486   2
  -3   3   9 0.15144 1.26118   4
  -3   3   9 1.58527 0.99542  13
   3   3  -9 2.90937 0.99920  11
  -1  -3   9 14.0782 1.86833   1
  -1  -3   9 13.0331 2.51575  13
  -1  -3   9 18.0353 2.35064   4
   1  -3  -9 14.4444 2.52032   9
  -1   3   9 13.8698 2.80888   7
  -1   3   9 11.5572 1.97643  13
   1   3  -9 14.8750 2.41882  11
   1   3  -9 15.5816 2.94327   2
   1   3  -9 12.3491 2.54404  15
  -1   3   9 18.0377 2.59782   4
  -1  -3  -9 12.3973 2.14794   5
  -1  -3  -9 13.1494 2.73625   9
   1  -3   9 7.47513 2.04982   4
  -1  -3  -9 12.8039 2.28596  11
   1  -3   9 12.6518 2.45996  13
  -1   3  -9 10.1357 2.55785  11
  -1   3  -9 10.4487 2.51757   2
   1   3   9 12.6540 2.89579   7
   1   3   9 10.6306 2.41003   4
   3  -3   9 105.527 6.61664  13
   3  -3   9 112.853 5.82338   4
  -3  -3  -9 103.614 6.15424   5
   3   3   9 100.712 5.97924   4
  -3   3  -9 97.5838 6.13551  11
   3   3   9 106.033 6.80880   7
 -10  -4   9 125.739 6.90379   1
 -10  -4   9 144.673 7.75782  13
  10  -4  -9 143.928 9.24136   3
 -10  -4   9 132.136 8.14315  16
  10  -4  -9 161.499 13.1573  14
 -10   4   9 128.797 6.98325  16
  10   4  -9 152.710 9.14066   3
 -10   4   9 137.302 6.84794   1
   8  -4  -9 61.8768 7.76334  14
  -8  -4   9 61.4376 4.58425  13
   8  -4  -9 69.1908 4.76188   9
  -8  -4   9 62.8392 4.37598   1
  -8  -4   9 66.7464 4.77067  16
   8  -4  -9 71.7735 5.86240   3
   8   4  -9 73.3821 4.37085   2
   8   4  -9 74.2816 6.05049  10
  -8   4   9 74.4784 5.47146  13
  -8   4   9 66.0720 4.31840   1
   6  -4  -9 409.116 11.9515   6
  -6  -4   9 415.857 12.8925  16
  -6  -4   9 426.041 13.5475  13
  -6  -4   9 418.070 11.9702   4
   6  -4  -9 415.271 15.0666   3
   6  -4  -9 416.539 17.9844  14
  -6  -4   9 424.728 12.9156   1
   6  -4  -9 423.592 13.7190   9
  -6   4   9 422.391 13.3513  13
   6   4  -9 420.151 13.5094   2
   6   4  -9 456.128 13.9967   3
   4  -4  -9 206.057 8.67456   9
  -4  -4   9 212.621 7.53771   1
  -4  -4   9 208.668 7.67293  16
  -4  -4   9 229.562 8.65911  13
  -4  -4   9 209.314 7.09949   4
   4  -4  -9 210.994 8.85202   3
  -4   4   9 217.024 7.91441   4
   4   4  -9 203.338 6.99483  11
  -4   4   9 221.850 7.91947  13
   4   4  -9 215.159 8.85858   2
  -2  -4   9 1.29267 1.58841  13
  -2  -4   9 2.68304 1.03813   4
  -2  -4   9 1.43319 1.26840   1
   2  -4  -9 6.04754 1.99600   9
  -2   4   9 1.20226 1.17679   4
   2   4  -9 1.01186 1.31275   2
   2   4  -9 1.80802 1.03125  11
  -2   4   9 -2.2397 1.43427   7
   0  -4   9 229.763 7.88771   4
   0  -4   9 233.509 9.36653  13
   0  -4  -9 234.320 9.39075   9
   0   4  -9 221.700 9.09626  11
   0   4  -9 223.017 9.29376   2
   0   4   9 210.841 8.19451   4
   0   4   9 224.342 9.96874   7
   2  -4   9 222.160 9.50986  13
   2  -4   9 205.533 8.07934   4
  -2  -4  -9 216.160 8.77648   5
   2   4   9 230.474 8.93691   4
  -2   4  -9 216.592 9.04877   2
   2   4   9 210.333 10.0098   7
  -2   4  -9 214.402 9.48341  11
   4  -4   9 28.5923 3.38764   4
  -4  -4  -9 28.8532 3.61608   5
   4   4   9 29.2041 3.75529   4
   4   4   9 32.2067 4.05541   7
  -4   4  -9 27.7421 3.60864  11
  11  -5  -9 84.0130 7.48698   3
  11  -5  -9 93.7976 10.5676  14
 -11  -5   9 75.3818 5.85305  13
 -11  -5   9 75.4240 6.12117   1
  11   5  -9 95.6832 7.65470   3
 -11   5   9 79.2233 5.75258   1
   9  -5  -9 47.3084 3.99998   9
  -9  -5   9 46.1538 4.42131  16
  -9  -5   9 40.8708 3.82736  13
   9  -5  -9 50.3307 8.22565  14
  -9  -5   9 40.9554 3.89740   1
   9  -5  -9 51.7825 5.68471   3
   9   5  -9 44.4631 5.25292  10
   9   5  -9 48.1529 5.55674   3
  -9   5   9 48.5869 4.50053  13
  -7  -5   9 211.694 8.41654  16
  -7  -5   9 196.135 8.39303  13
   7  -5  -9 191.710 9.85587   3
   7  -5  -9 208.759 8.78788   9
   7  -5  -9 195.925 7.53559   6
  -7  -5   9 193.280 8.15250   1
   7  -5  -9 205.966 12.8676  14
   7   5  -9 196.761 8.32420   2
   7   5  -9 202.156 9.16359   3
  -7   5   9 206.093 8.68001  13
   7   5  -9 202.276 9.61563  10
  -5  -5   9 509.556 15.6452  13
   5  -5  -9 520.442 17.3827   3
   5  -5  -9 528.298 16.2549   9
   5  -5  -9 503.505 14.4347   6
  -5  -5   9 534.810 15.1974   1
  -5  -5   9 525.235 15.2770  16
   5   5  -9 526.350 16.9197  10
  -5   5   9 512.107 15.0071  13
  -5   5   9 548.338 15.1924   4
   5   5  -9 546.995 16.5859   2
  -3  -5   9 4.57396 1.65839   1
   3  -5  -9 3.60620 1.97370   9
  -3  -5   9 4.28031 1.62146  16
  -3  -5   9 5.33451 2.05836  13
   3   5  -9 9.10316 2.56196   2
   3   5  -9 6.26486 1.44835  11
  -3   5   9 2.91196 2.22066   7
  -3   5   9 5.79215 1.92284   4
  -1  -5   9 7.06995 1.83389   1
   1  -5  -9 6.47396 2.11556   9
  -1  -5   9 9.48466 2.47818  13
  -1  -5   9 3.05162 1.57066   4
   1   5  -9 6.67724 2.38608   2
   1   5  -9 6.46975 2.06913  11
  -1   5   9 7.82867 2.58691   7
  -1   5   9 4.62995 1.49439   4
   1  -5   9 287.304 10.9328  13
  -1  -5  -9 295.947 11.1124   9
  -1  -5  -9 284.656 10.1770   5
  -1   5  -9 280.780 10.9088   2
   1   5   9 280.722 10.1512   4
   1   5   9 298.774 12.1292   7
  -1   5  -9 265.487 10.5957  11
  -3  -5  -9 72.2510 5.31712   5
   3  -5   9 73.2132 6.03194  13
   3   5   9 67.6874 6.20870   7
  -3   5  -9 75.4769 5.71834  11
   3   5   9 74.8453 5.30221   4
  10  -6  -9 139.948 7.25400   9
  10  -6  -9 150.845 13.6408  14
 -10  -6   9 148.184 7.95562   1
  10  -6  -9 149.506 9.57288   3
  10   6  -9 149.355 9.22025   3
  10   6  -9 140.099 8.41302  10
   8  -6  -9 7.25230 3.98130  14
  -8  -6   9 9.43198 2.11939  16
  -8  -6   9 9.10380 2.32674  13
   8  -6  -9 11.1909 3.31181   3
   8  -6  -9 11.3211 2.40577   6
  -8  -6   9 7.90410 2.42881   1
   8  -6  -9 7.05990 2.29552   9
   8   6  -9 15.0062 3.47857  10
   8   6  -9 14.4689 3.14046   3
  -8   6   9 9.23702 2.15400  13
   8   6  -9 9.06488 2.22600   2
  -6  -6   9 62.8280 4.56347  13
  -6  -6   9 68.7094 4.46346  16
   6  -6  -9 68.2032 5.14849   9
   6  -6  -9 64.4742 5.79637   3
  -6  -6   9 67.1775 4.65449   1
   6  -6  -9 74.3860 4.46471   6
  -6   6   9 70.1338 4.50093   4
   6   6  -9 69.9196 5.55066  10
   6   6  -9 67.7126 4.77992   2
   4  -6  -9 182.898 8.22934   9
   4  -6  -9 186.034 7.12452   6
  -4  -6   9 180.771 7.56110  16
   4  -6  -9 182.820 8.95181   3
  -4  -6   9 192.869 8.05197  13
  -4  -6   9 185.409 7.55529   1
  -4   6   9 189.668 7.31212   4
   4   6  -9 188.434 8.54344  10
   4   6  -9 194.159 8.90797   2
  -2  -6   9 43.1480 4.10920  13
   2  -6  -9 43.2547 3.25710   6
  -2  -6   9 48.0006 3.77169   1
   2  -6  -9 38.0899 4.26868   9
  -2   6   9 48.5489 5.24123   7
   2   6  -9 42.2989 3.69075  11
   2   6  -9 41.4155 4.65648   2
  -2   6   9 43.5864 3.70025   4
   0  -6  -9 190.138 8.60272   9
   0  -6   9 186.051 8.43592  13
   0   6   9 202.977 9.95489   7
   0   6  -9 195.836 9.00601   2
   0   6   9 190.474 7.65147   4
   0   6  -9 182.080 8.39427  11
   2  -6   9 31.9882 4.88208   8
   2  -6   9 42.2928 4.27303  13
  -2  -6  -9 45.2485 3.90197   5
  -2   6  -9 38.5909 4.10339  11
  -2   6  -9 43.2301 3.90573   2
   2   6   9 34.9762 4.55408   7
   2   6   9 41.6963 3.70160   4
   2   6   9 33.0620 4.16216  10
   9  -7  -9 82.5312 5.91322   9
   9  -7  -9 82.0373 10.0800  14
  -9  -7   9 79.6817 5.76212   1
   9  -7  -9 76.3085 6.69023   3
   9   7  -9 86.2388 6.68952   3
   9   7  -9 81.2663 6.99275  10
   7  -7  -9 185.526 8.83580   9
  -7  -7   9 173.278 7.70732  13
   7  -7  -9 179.874 7.50930   6
   7  -7  -9 184.033 10.2138   3
  -7  -7   9 181.391 8.05490  16
   7  -7  -9 185.059 13.0736  14
  -7  -7   9 191.246 8.29416   1
   7   7  -9 194.476 9.75810  10
   7   7  -9 189.172 8.49284   2
  -7   7   9 191.941 7.81374   4
  -5  -7   9 8.56248 2.19519  13
   5  -7  -9 5.62393 2.54680   3
  -5  -7   9 5.47182 1.74568   1
   5  -7  -9 6.91609 1.97166   6
   5  -7  -9 5.72564 2.21433   9
  -5  -7   9 5.16875 1.94887  16
   5   7  -9 4.08795 2.47338   2
  -5   7   9 7.60951 2.00864   4
   5   7  -9 5.92966 2.05811  10
  -3  -7   9 44.8378 3.83185  16
   3  -7  -9 38.4757 4.21598   9
  -3  -7   9 42.7006 4.08342  13
   3  -7  -9 44.3648 3.30213   6
  -3  -7   9 42.5994 3.46456   1
  -3   7   9 44.8132 3.66872   4
  -3   7   9 43.0230 5.13742   7
   3   7  -9 38.9460 4.75292   2
   3   7  -9 41.2968 3.53949  11
   1  -7  -9 19.5256 2.72072   6
   1  -7  -9 23.4943 3.48741   9
  -1  -7   9 25.8963 3.46337  13
   1   7  -9 26.1652 3.48124  11
   1   7  -9 23.1347 3.77420   2
  -1   7   9 20.8436 2.59559   4
  -1   7   9 20.8627 3.85359   7
   1  -7   9 0.32468 2.00422  13
  -1   7  -9 1.94595 1.98480   2
   1   7   9 2.24420 2.74523   7
  -1   7  -9 2.52164 1.95704  11
   1   7   9 -0.3768 1.12349   4
   1   7   9 4.80600 2.61362  10
   8  -8  -9 218.150 11.7400   3
   8  -8  -9 200.576 15.2089  14
  -8  -8   9 206.040 9.19671   1
   8  -8  -9 214.534 9.85453   9
   8  -8  -9 219.662 9.00808   6
   8   8  -9 219.629 11.2257  10
  -6  -8   9 67.5018 4.53685  13
   6  -8  -9 71.6149 6.48963   3
   6  -8  -9 71.9831 5.69769   9
  -6  -8   9 74.5669 4.85566  16
  -6  -8   9 68.6892 4.67772   1
  -6   8   9 75.0552 6.07099   7
   6   8  -9 66.8258 5.20783   2
   6   8  -9 75.5410 6.39531  10
  -4  -8   9 231.560 9.14376  16
   4  -8  -9 235.127 10.2081   9
  -4  -8   9 231.525 9.21741  13
  -4  -8   9 235.952 9.25399   1
   4  -8  -9 238.489 9.03790   6
  -4   8   9 236.789 10.7991   7
   4   8  -9 237.992 10.6646   2
   4   8  -9 225.930 9.72307  10
  -2  -8   9 714.109 20.4390  13
   2  -8  -9 720.907 21.0451   9
  -2  -8   9 700.654 19.7670   1
   2   8  -9 715.605 21.7332   2
   2   8  -9 657.233 19.6807  11
  -2   8   9 699.166 22.3548   7
   0  -8   9 202.214 9.23169  13
   0   8  -9 193.404 8.86199  11
   0   8  -9 205.094 9.52383   2
   0   8   9 176.556 10.4572  10
   0   8   9 206.939 10.6538   7
  -7  -9   9 6.27818 2.48775   1
   7  -9  -9 7.72173 2.38842   6
   7  -9  -9 6.10293 2.93913   3
   7  -9  -9 7.56545 2.69655   9
   7   9  -9 7.32772 2.49779   2
   7   9  -9 5.44185 2.34067  10
  -5  -9   9 4.86459 1.80121   1
   5  -9  -9 3.90046 2.47414   9
   5  -9  -9 6.17833 2.14138   6
   5   9  -9 6.25424 2.17532  10
  -5   9   9 3.23427 2.28274   7
   5   9  -9 5.21068 2.16454   2
  -3  -9   9 40.1029 4.04967  13
   3  -9  -9 42.7553 3.65750   6
   3  -9  -9 43.7465 4.94913   9
  -3  -9   9 44.8954 4.26933   1
  -3   9   9 40.4907 5.30024   7
   3   9  -9 41.2523 5.18979   2
   1  -9  -9 58.2123 5.05201   9
   1  -9  -9 61.3682 4.78627   6
  -1  -9   9 63.5134 5.18250  13
  -1   9   9 63.0023 6.41451   7
   1   9  -9 63.7357 4.72741  11
  -1   9   9 62.5038 6.53590  10
   1   9  -9 67.1315 5.87978   2
  -6 -10   9 12.6688 2.82349   1
   6 -10  -9 8.42979 2.50635   6
   6 -10  -9 12.0607 3.26134   9
   6  10  -9 10.9848 2.68066   2
   6  10  -9 11.0870 3.22032  10
   4 -10  -9 22.9365 3.52497   9
   4 -10  -9 26.7463 3.51354   6
  -4 -10   9 25.3171 3.54282   1
  -4  10   9 25.5208 4.41588  10
   4  10  -9 19.9494 3.97221   2
  -4  10   9 24.9847 3.89793   7
   2 -10  -9 34.3919 4.14112   9
   2  10  -9 41.8545 4.75157   2
  -2  10   9 39.7305 5.75569  10
  -2  10   9 35.6804 5.28486   7
  12   0 -10 38.9439 5.82228   3
 -12   0  10 30.1688 4.02587   1
 -12   0  10 33.8540 4.93127  13
  10   0 -10 34.2193 7.32698  14
 -10   0  10 32.1262 4.14038   1
 -10   0  10 32.7769 3.89261  16
  10   0 -10 38.1881 5.19978   3
 -10   0  10 53.1739 5.66621  13
  -8   0  10 10.2302 2.27360  16
   8   0 -10 9.12069 2.78706   3
  -8   0  10 10.2014 2.68632  13
   8   0 -10 8.47718 1.87733   9
  -8   0  10 12.0406 2.17521   1
   8   0 -10 11.6464 3.42805  14
   6   0 -10 466.217 15.2217   3
  -6   0  10 475.851 14.0528   4
  -6   0  10 481.371 13.4441   1
  -6   0  10 484.724 13.5876  16
   6   0 -10 486.117 14.9710   9
  -6   0  10 474.936 14.9585  13
  -4   0  10 16.9444 2.76804  13
  -4   0  10 25.0740 2.75849   4
   4   0 -10 21.9777 2.32032  11
   4   0 -10 18.4165 2.94552   9
  -2   0  10 43.6884 3.74534   7
  -2   0  10 43.1735 3.64261   4
  -2   0  10 48.4751 4.01056  13
   2   0 -10 45.3870 3.30035  11
   0   0  10 38.7164 3.51458  13
   0   0  10 40.0080 3.74262   7
   0   0  10 35.6042 3.72988   4
   0   0 -10 36.6853 3.46939  11
  -2   0 -10 12.1424 2.58889  11
   2   0  10 14.6905 2.86054   4
   2   0  10 10.9637 2.23717  13
  11  -1 -10 393.282 19.9078  14
 -11  -1  10 366.356 14.5690  13
  11  -1 -10 390.724 16.4654   3
 -11  -1  10 371.109 13.7428   1
 -11   1  10 373.933 14.7446  13
 -11   1  10 381.763 13.7446   1
  11   1 -10 401.744 16.5770   3
  -9  -1  10 1143.50 30.0983  16
  -9  -1  10 1133.84 31.1763  13
  -9  -1  10 1154.73 29.9741   1
   9  -1 -10 1166.82 33.3635   3
   9  -1 -10 1179.06 36.6364  14
  -9   1  10 1143.82 29.7433   1
  -9   1  10 1118.22 29.6389  16
  -9   1  10 1193.21 31.8983  13
   9   1 -10 1216.63 33.4558   3
  -7  -1  10 772.307 21.6896  13
  -7  -1  10 736.460 20.0044  16
   7  -1 -10 783.269 22.8830   3
   7  -1 -10 730.808 20.7076   9
   7  -1 -10 774.938 24.9870  14
  -7  -1  10 737.528 19.8343   1
  -7   1  10 743.240 19.7113  16
   7   1 -10 755.680 22.3128   3
   7   1 -10 712.726 20.2503   9
  -7   1  10 723.492 19.5311   1
  -7   1  10 780.320 21.6737  13
   5  -1 -10 792.274 22.2066   9
  -5  -1  10 781.422 20.0931   1
  -5  -1  10 826.218 22.2183  13
   5  -1 -10 772.747 21.7637   3
  -5  -1  10 790.542 20.2866  16
  -5  -1  10 825.359 21.0061   4
   5   1 -10 781.684 21.9216   2
   5   1 -10 806.423 22.0950   9
  -5   1  10 807.232 21.1748   4
  -5   1  10 799.966 21.8946  13
  -3  -1  10 1474.08 36.1311  13
   3  -1 -10 1443.97 34.8047  11
  -3  -1  10 1455.98 35.0765   4
   3  -1 -10 1488.54 37.2576   9
   3   1 -10 1453.44 36.9213   2
  -3   1  10 1526.74 35.5130   4
  -3   1  10 1449.16 35.6756  13
   3   1 -10 1415.87 34.7219  11
   1  -1 -10 593.568 18.2574   9
  -1  -1  10 571.590 16.8194  13
  -1  -1  10 547.786 16.4258   7
   1  -1 -10 600.938 16.8221  11
  -1  -1  10 579.749 16.1521   4
  -1   1  10 568.481 17.3572   7
  -1   1  10 573.218 16.2946   4
   1   1 -10 568.354 16.7084  11
  -1   1  10 555.384 16.3939  13
  -1  -1 -10 493.637 15.9816  11
   1  -1  10 520.416 15.9202  13
  -1  -1 -10 516.200 17.1580   9
   1  -1  10 514.304 15.2453   4
   1   1  10 501.430 15.3365  13
   1   1  10 472.467 15.6387   7
   1   1  10 508.511 15.3590   4
  -1   1 -10 508.354 16.2146  11
   3  -1  10 814.190 22.5888   4
   3  -1  10 812.957 23.3993  13
  -3  -1 -10 823.235 24.1839  11
   3   1  10 837.540 22.9579   4
  -3   1 -10 809.694 24.0154  11
 -12  -2  10 1072.62 29.6364   1
 -12  -2  10 982.420 29.7835  13
  12  -2 -10 1089.76 32.7873   3
  12  -2 -10 1084.58 38.9238  14
 -12   2  10 985.232 30.1872  13
 -12   2  10 1044.76 29.2939   1
  12   2 -10 1080.86 32.5108   3
  10  -2 -10 928.462 28.2790   3
  10  -2 -10 904.640 32.4291  14
 -10  -2  10 873.095 24.4659   1
 -10  -2  10 819.564 24.3742  16
 -10  -2  10 850.794 25.4567  13
  10   2 -10 958.508 28.0147   3
 -10   2  10 855.840 25.7953  13
 -10   2  10 904.210 24.5127   1
 -10   2  10 837.984 24.2204  16
  -8  -2  10 539.040 16.0577   1
  -8  -2  10 534.186 17.0692  13
  -8  -2  10 528.591 16.0044  16
   8  -2 -10 540.977 21.5320  14
   8  -2 -10 527.969 16.2744   9
   8  -2 -10 561.950 19.2116   3
   8   2 -10 578.920 18.6649   3
  -8   2  10 537.654 15.7140  16
  -8   2  10 544.247 15.6290   1
  -8   2  10 574.448 17.7221  13
  -6  -2  10 864.411 22.3673  16
  -6  -2  10 884.791 23.8620  13
  -6  -2  10 854.157 22.2590   1
   6  -2 -10 859.188 24.5838   3
  -6  -2  10 862.290 22.2803   4
   6  -2 -10 853.685 23.6386   9
   6   2 -10 865.292 23.3109   9
   6   2 -10 865.551 23.6976   3
  -6   2  10 877.085 23.7196  13
   6   2 -10 861.293 23.3832   2
  -6   2  10 875.315 22.8172   4
   4  -2 -10 654.120 19.2752   9
  -4  -2  10 653.120 16.9354   1
   4  -2 -10 608.467 18.0138   3
  -4  -2  10 680.110 18.8856  13
  -4  -2  10 643.435 16.9974  16
  -4  -2  10 656.111 17.4741   4
  -4   2  10 643.781 18.1285  13
   4   2 -10 650.575 19.0838   2
   4   2 -10 631.293 16.7558  11
  -4   2  10 656.853 17.9011   4
  -2  -2  10 1109.86 28.3545  13
   2  -2 -10 1082.71 27.4345  11
  -2  -2  10 1089.89 27.0289   4
   2  -2 -10 1088.14 29.2796   9
  -2   2  10 1044.69 27.3723  13
  -2   2  10 1114.67 27.6480   4
  -2   2  10 1080.32 29.1223   7
   2   2 -10 1099.49 29.2394   2
   2   2 -10 1116.00 27.7707  11
   0  -2  10 1568.37 37.6334   4
   0  -2 -10 1606.77 40.3264   9
   0  -2 -10 1600.39 38.7980  11
   0  -2  10 1575.16 38.9914  13
   0   2 -10 1552.42 39.0506  11
   0   2  10 1502.20 37.6607  13
   0   2  10 1574.07 38.1162   4
   0   2  10 1522.28 39.4059   7
  -2  -2 -10 408.677 14.1295  11
   2  -2  10 412.214 13.9918  13
  -2  -2 -10 422.504 14.9213   9
   2  -2  10 396.379 12.8059   4
   2   2  10 404.908 13.2094   4
  -2   2 -10 384.350 13.9378  11
   2   2  10 386.692 13.9494   7
  11  -3 -10 128.569 12.1014  14
  11  -3 -10 127.493 9.26321   3
 -11  -3  10 124.019 7.40776   1
 -11  -3  10 127.813 7.61338  13
 -11   3  10 125.262 8.09649  13
  11   3 -10 130.476 9.10969   3
 -11   3  10 120.868 6.77577   1
   9  -3 -10 309.892 13.7127   3
  -9  -3  10 275.906 10.7980  16
   9  -3 -10 276.980 10.5256   9
  -9  -3  10 283.305 10.6656   1
  -9  -3  10 283.082 11.3555  13
   9  -3 -10 308.263 16.5513  14
  -9   3  10 286.033 10.4896   1
  -9   3  10 300.342 12.1687  13
   9   3 -10 318.879 13.2403   3
   7  -3 -10 67.3949 5.48971   3
  -7  -3  10 75.5547 4.75178   1
   7  -3 -10 61.8870 4.51001   9
  -7  -3  10 68.6147 5.19063  13
   7  -3 -10 74.4173 7.56040  14
  -7  -3  10 69.3297 4.36353  16
   7   3 -10 72.0285 5.05537   3
  -7   3  10 71.7786 5.26313  13
   7   3 -10 59.5204 4.08716   9
   7   3 -10 62.7489 4.56408   2
  -5  -3  10 63.2770 3.88635   4
   5  -3 -10 59.7237 4.71641   3
   5  -3 -10 61.3658 4.56557   9
  -5  -3  10 55.1832 3.79348   1
  -5  -3  10 64.5915 4.54552  13
  -5  -3  10 61.7504 3.81651  16
  -5   3  10 62.5586 4.20521  13
  -5   3  10 64.9227 4.13668   4
   5   3 -10 61.9714 4.86913   2
  -3  -3  10 383.852 11.5201   4
   3  -3 -10 388.398 13.4227   9
  -3  -3  10 390.643 12.8986  13
  -3  -3  10 379.575 11.3744  16
  -3  -3  10 376.964 11.2398   1
   3   3 -10 403.570 13.7657   2
   3   3 -10 365.500 11.6042  11
  -3   3  10 374.075 11.8656  13
  -3   3  10 391.420 12.0759   4
  -1  -3  10 169.786 6.87087   4
   1  -3 -10 177.159 8.58907   9
  -1  -3  10 170.711 7.94051  13
   1   3 -10 167.006 8.17005   2
  -1   3  10 174.636 8.63816   7
  -1   3  10 179.179 7.48790   4
   1   3 -10 165.853 7.44665  11
   1  -3  10 92.5439 6.26180  13
   1  -3  10 90.6811 5.27038   4
  -1  -3 -10 92.4839 6.40232   9
   1   3  10 97.2812 6.49074   7
  -1   3 -10 102.986 6.13105  11
   1   3  10 101.979 5.83644   4
   3  -3  10 164.740 7.52562   4
   3  -3  10 172.089 8.65234  13
  -3   3 -10 166.999 8.56425  11
   3   3  10 158.784 7.86145   4
   3   3  10 149.759 8.35577   7
  10  -4 -10 618.776 21.9145   3
 -10  -4  10 602.526 19.3868  13
 -10  -4  10 600.590 18.7803   1
  10  -4 -10 680.342 28.2861  14
  10  -4 -10 585.625 18.1458   9
  10   4 -10 641.953 21.3536   3
 -10   4  10 618.854 20.1437  13
   8  -4 -10 1169.86 38.1722  14
  -8  -4  10 1175.10 30.9559  13
  -8  -4  10 1123.57 29.9021   1
   8  -4 -10 1165.34 33.4567   3
  -8  -4  10 1123.41 29.9480  16
   8  -4 -10 1197.32 30.7749   9
   8   4 -10 1103.67 29.5086   2
   8   4 -10 1229.19 32.3588   3
  -8   4  10 1210.66 31.3876  13
  -6  -4  10 2213.85 51.2663  16
  -6  -4  10 2197.33 52.2189  13
  -6  -4  10 2142.96 50.1652   4
   6  -4 -10 2193.55 52.6007   9
  -6  -4  10 2214.50 51.0845   1
   6  -4 -10 2159.68 54.0668   3
   6   4 -10 2150.04 52.2893   2
  -6   4  10 2156.10 51.1411   4
  -6   4  10 2216.59 51.8325  13
  -4  -4  10 1508.88 36.5376  16
  -4  -4  10 1538.10 36.4969   1
   4  -4 -10 1487.12 38.1430   3
   4  -4 -10 1553.32 38.7188   9
  -4  -4  10 1558.09 38.0549  13
  -4  -4  10 1512.97 35.9322   4
  -4   4  10 1520.21 36.8348  13
  -4   4  10 1546.90 37.0536   4
   4   4 -10 1514.76 38.7554   2
  -2  -4  10 825.889 21.4319   4
  -2  -4  10 835.840 21.6061   1
  -2  -4  10 845.439 23.2421  13
   2  -4 -10 854.569 24.0769   9
   2   4 -10 828.304 22.6069  11
  -2   4  10 840.219 24.5458   7
  -2   4  10 872.047 22.5782   4
   2   4 -10 850.448 24.2799   2
   0  -4  10 943.951 25.8469  13
   0  -4 -10 965.641 26.5602   9
   0  -4  10 947.471 24.1494   4
   0   4 -10 916.688 25.8325  11
   0   4 -10 959.459 26.4755   2
   0   4  10 944.117 26.9442   7
   0   4  10 933.716 24.9296   4
   2  -4  10 814.443 22.2744   4
   2  -4  10 847.253 24.2931  13
   2   4  10 863.410 23.3957   4
   2   4  10 831.349 24.7657   7
  -2   4 -10 872.504 24.6313  11
 -11  -5  10 248.963 10.8947   1
  11  -5 -10 251.986 13.1490   3
  11  -5 -10 253.926 17.7108  14
  11   5 -10 262.244 12.7471   3
 -11   5  10 248.401 11.5714  13
  -9  -5  10 479.607 16.2431  13
  -9  -5  10 486.528 15.8266   1
   9  -5 -10 490.738 16.1178   9
   9  -5 -10 505.228 23.9118  14
   9  -5 -10 502.401 19.1613   3
   9   5 -10 545.255 18.3329   3
  -9   5  10 510.924 17.0479  13
   7  -5 -10 789.107 22.6572   9
   7  -5 -10 767.053 24.5413   3
   7  -5 -10 809.448 29.3478  14
  -7  -5  10 771.804 22.2154  13
  -7  -5  10 781.728 21.5817   1
  -7  -5  10 784.184 21.7423  16
  -7   5  10 798.249 22.1926  13
   7   5 -10 780.219 22.2547   2
  -7   5  10 793.226 21.5621   4
   5  -5 -10 759.226 22.9637   3
  -5  -5  10 781.242 20.6065   1
   5  -5 -10 772.058 22.2776   9
  -5  -5  10 757.016 21.3897  13
  -5  -5  10 757.121 20.6038  16
   5   5 -10 753.053 22.2897   2
  -5   5  10 759.097 20.6118   4
  -3  -5  10 595.568 17.8326  13
   3  -5 -10 600.288 18.5136   9
  -3  -5  10 584.045 16.5790  16
  -3  -5  10 597.141 16.5238   1
  -3   5  10 602.673 19.3224   7
  -3   5  10 594.822 17.0117   4
   3   5 -10 578.389 16.7423  11
   3   5 -10 584.224 18.7336   2
  -1  -5  10 393.270 13.6487  13
   1  -5 -10 388.586 13.8339   9
  -1   5  10 404.060 15.0056   7
   1   5 -10 356.134 12.9517  11
   1   5 -10 405.580 14.2835   2
  -1   5  10 388.078 12.5921   4
   1  -5  10 381.070 13.6850  13
   1   5  10 372.533 12.7177   4
  -1   5 -10 386.213 13.8231  11
   1   5  10 393.260 14.9429  10
  -1   5 -10 380.446 13.5494   2
   1   5  10 378.292 14.6391   7
 -10  -6  10 122.174 7.11727  13
 -10  -6  10 132.609 7.46339   1
  10  -6 -10 125.048 11.9903  14
  10  -6 -10 123.862 7.03065   9
  10  -6 -10 133.690 8.99485   3
  10   6 -10 132.564 8.60926   3
   8  -6 -10 28.4287 3.83714   9
   8  -6 -10 30.5799 6.52683  14
   8  -6 -10 31.5630 3.34695   6
  -8  -6  10 41.6421 4.27537  13
  -8  -6  10 32.3389 3.79813   1
   8  -6 -10 44.6522 5.65546   3
   8   6 -10 40.9075 3.84397   2
  -8   6  10 30.4843 3.54331  13
   8   6 -10 44.1874 5.41733  10
  -8   6  10 34.8360 3.86327   4
   6  -6 -10 5.68317 2.28918   9
  -6  -6  10 4.86446 1.60242   1
   6  -6 -10 6.89581 2.64859   3
  -6  -6  10 3.70459 1.97673  13
  -6  -6  10 4.01626 1.50171  16
   6   6 -10 9.33998 2.66331   2
  -6   6  10 7.74635 2.21847   4
   4  -6 -10 28.7342 3.94164   9
  -4  -6  10 26.3759 3.15900  16
  -4  -6  10 31.0868 3.72993  13
  -4  -6  10 39.5356 3.90583   1
  -4   6  10 32.6167 4.31601   7
   4   6 -10 36.1528 4.55765   2
  -4   6  10 40.6331 3.85879   4
  -2  -6  10 96.6095 5.89793  13
  -2  -6  10 100.690 5.50189   1
   2  -6 -10 109.949 6.70800   9
   2   6 -10 101.050 6.80085   2
  -2   6  10 106.377 5.74405   4
  -2   6  10 106.007 7.39704   7
   2   6 -10 94.8053 5.59029  11
   0  -6  10 99.8275 6.25567  13
   0  -6 -10 95.7164 6.34320   9
   0   6 -10 102.153 6.61958   2
   0   6  10 95.8216 5.73159   4
   0   6 -10 103.099 6.41087  11
   0   6  10 100.627 7.38616   7
   9  -7 -10 542.577 17.6502   9
   9  -7 -10 541.054 20.4732   3
   9  -7 -10 535.830 25.7964  14
  -9  -7  10 538.176 17.2053   1
   9   7 -10 542.984 19.4587  10
   7  -7 -10 522.998 15.7960   6
  -7  -7  10 554.817 16.6668   1
   7  -7 -10 531.442 19.7132   3
   7  -7 -10 528.907 17.4004   9
  -7  -7  10 527.399 16.5119  13
  -7   7  10 544.575 16.2478   4
   7   7 -10 506.994 17.0448   2
   7   7 -10 561.647 19.0607  10
   5  -7 -10 554.224 17.9816   9
  -5  -7  10 547.264 16.7662  13
  -5  -7  10 534.884 16.3820   1
  -5  -7  10 548.314 16.6457  16
  -5   7  10 549.603 19.0155   7
  -5   7  10 549.862 16.1614   4
   5   7 -10 555.225 18.0857   2
  -3  -7  10 677.203 19.8448  13
   3  -7 -10 701.773 20.9932   9
  -3  -7  10 669.161 19.1099   1
  -3   7  10 731.644 22.6161   7
   3   7 -10 567.272 20.4277  11
   3   7 -10 705.919 21.4874   2
  -3   7  10 686.688 19.0205   4
  -1  -7  10 1046.56 28.5406  13
   1  -7 -10 1056.86 28.8924   9
  -1   7  10 1033.20 30.3215   7
  -1   7  10 1072.63 27.3443   4
   1   7 -10 1023.93 29.1430   2
   1  -7  10 621.342 19.2415  13
   1  -7  10 609.821 21.3181   8
   1   7  10 595.789 17.6946   4
   1   7  10 592.250 20.4272   7
   1   7  10 602.000 20.7326  10
  -1   7 -10 587.724 18.7680  11
   8  -8 -10 300.867 14.3461   3
  -8  -8  10 286.073 11.1793   1
   8  -8 -10 300.275 12.3399   9
   8  -8 -10 316.683 11.2522   6
   8   8 -10 313.261 13.4543  10
   6  -8 -10 244.777 9.52565   6
  -6  -8  10 236.317 9.76461  13
  -6  -8  10 259.410 10.1153   1
   6  -8 -10 245.357 10.9225   9
   6   8 -10 254.733 11.0538   2
   6   8 -10 289.230 12.1279  10
  -6   8  10 244.644 11.3763   7
   4  -8 -10 425.360 15.1652   9
  -4  -8  10 430.402 14.2280  13
  -4  -8  10 441.594 14.1381   1
  -4   8  10 435.363 16.5721   7
   4   8 -10 434.825 15.8060   2
  -2  -8  10 239.666 9.82922  13
  -2  -8  10 244.146 9.56555   1
   2  -8 -10 229.462 10.3585   9
   2   8 -10 224.838 9.26452  11
   2   8 -10 229.962 10.7697   2
  -2   8  10 222.039 11.1469   7
   0  -8  10 85.5733 6.12112  13
   0   8  10 96.9349 7.53905  10
   0   8 -10 91.8673 5.98579  11
   0   8  10 77.4771 7.19291   7
  -7  -9  10 280.890 11.0998   1
   7  -9 -10 287.028 10.5144   6
   7  -9 -10 288.565 12.2335   9
   7   9 -10 304.481 12.9201  10
   7   9 -10 280.911 11.6528   2
  -7   9  10 279.192 12.2884   7
   5  -9 -10 298.212 12.4125   9
  -5  -9  10 285.549 11.0639   1
   5   9 -10 292.676 12.5474   2
  -5   9  10 309.129 13.2940   7
   5   9 -10 308.211 12.3757  10
  -3  -9  10 19.6425 3.11612  13
   3  -9 -10 18.6942 3.12969   9
  -3  -9  10 17.0690 2.73301   1
  -3   9  10 18.4745 4.04048   7
   3   9 -10 18.0705 3.80860   2
  10   0 -11 2.26785 2.40662   3
 -10   0  11 -0.0427 1.76646   1
 -10   0  11 3.20451 2.48177  13
 -10   0  11 -0.8348 1.81376  16
  -8   0  11 0.25392 2.10874  13
  -8   0  11 -0.5130 0.92527  16
   8   0 -11 2.85929 2.07885   3
  -8   0  11 -0.0981 1.40862   1
   8   0 -11 1.73636 1.53938   9
  -6   0  11 0.20246 1.83586  13
   6   0 -11 0.61452 1.62645   9
  -6   0  11 0.08116 1.54910   4
   4   0 -11 3.92438 1.26962  11
  -4   0  11 0.29535 1.21151   4
  -4   0  11 1.04849 1.82479  13
   4   0 -11 2.39706 1.58012   9
   2   0 -11 -0.7232 1.77868   9
   2   0 -11 1.55337 1.41294  11
  -2   0  11 0.12119 1.20105   4
  -2   0  11 1.92067 1.72282   7
  -2   0  11 3.78341 1.64169  13
   0   0  11 0.93021 1.42274   4
   0   0 -11 5.91716 1.79043  11
   0   0  11 3.89804 1.66411  13
  -2   0 -11 1.18979 1.49960  11
   2   0  11 0.55764 1.54056   4
   2   0  11 1.01222 1.86087  13
  -2   0 -11 0.50846 2.12353   9
 -11  -1  11 149.954 8.99977  13
  11  -1 -11 171.155 10.3034   3
 -11  -1  11 158.196 8.02017   1
 -11   1  11 155.335 8.04775   1
 -11   1  11 164.268 9.39409  13
  11   1 -11 180.686 10.7326   3
  -9  -1  11 210.593 9.82543  13
   9  -1 -11 212.809 8.62757   9
  -9  -1  11 221.020 8.99908  16
  -9  -1  11 211.064 8.81491   1
   9  -1 -11 233.110 11.3740   3
  -9   1  11 221.958 8.85383   1
   9   1 -11 219.286 10.8284   3
  -9   1  11 230.424 10.2810  13
  -9   1  11 191.940 9.37862  16
  -7  -1  11 21.0376 2.59720  16
   7  -1 -11 19.1030 3.38696   3
  -7  -1  11 19.5850 3.44928  13
  -7  -1  11 19.5973 2.61419   1
   7  -1 -11 19.6803 2.88859   9
  -7  -1  11 13.2588 2.25788   4
  -7   1  11 17.7168 2.93785   4
   7   1 -11 13.8306 2.75114   3
   7   1 -11 17.3035 2.74320   9
  -7   1  11 14.8068 2.67419  13
  -5  -1  11 4.24070 1.57499   4
  -5  -1  11 5.36920 2.21545  13
   5  -1 -11 4.73792 1.81042   9
   5   1 -11 6.87234 2.32540   9
  -5   1  11 5.99147 2.26603  13
  -5   1  11 3.50966 1.89294   4
   3  -1 -11 47.4048 4.41651   9
  -3  -1  11 52.9686 4.26750  13
  -3  -1  11 55.1760 3.86996   4
   3  -1 -11 51.6077 3.73629  11
  -3   1  11 57.3056 4.09235   4
   3   1 -11 57.8285 3.74813  11
  -3   1  11 49.7346 3.95502  13
   1  -1 -11 132.577 7.96035   9
  -1  -1  11 126.020 6.13752   4
  -1  -1  11 126.603 6.90422  13
   1  -1 -11 143.587 6.99185  11
  -1   1  11 129.750 6.66652   4
  -1   1  11 130.169 6.61039  13
  -1   1  11 117.682 6.87662   7
   1   1 -11 129.425 6.75820  11
   1  -1  11 154.401 7.09197   4
  -1  -1 -11 155.038 8.05780  11
   1  -1  11 151.720 7.78541  13
  -1  -1 -11 146.207 8.74837   9
  -1   1 -11 152.009 8.06196  11
   1   1  11 152.274 7.30867   4
 -10  -2  11 248.583 10.2677   1
  10  -2 -11 261.081 15.5324  14
  10  -2 -11 273.736 13.4976   3
 -10  -2  11 244.096 10.9765  13
 -10   2  11 237.425 11.0856  13
 -10   2  11 252.001 10.0369   1
  10   2 -11 269.076 12.8248   3
  -8  -2  11 185.836 8.08667   1
   8  -2 -11 186.351 10.0520   3
   8  -2 -11 186.842 8.48587   9
  -8  -2  11 197.003 9.10016  13
   8  -2 -11 203.408 12.3870  14
  -8  -2  11 189.319 8.00688  16
  -8   2  11 188.529 8.88060  13
   8   2 -11 212.381 9.92288   3
  -6  -2  11 262.522 9.26760  16
   6  -2 -11 271.420 10.8764   3
  -6  -2  11 266.513 9.55091   4
  -6  -2  11 266.663 9.21675   1
  -6  -2  11 275.447 10.8250  13
   6  -2 -11 262.423 10.7569   9
  -6   2  11 263.338 10.4690  13
   6   2 -11 254.245 10.4198   2
   6   2 -11 265.191 10.4695   9
  -6   2  11 271.314 9.96760   4
  -4  -2  11 502.085 15.7488  13
   4  -2 -11 495.752 16.3823   9
  -4  -2  11 498.831 14.4837   4
  -4   2  11 473.586 14.7036   4
  -4   2  11 488.308 15.0618  13
   4   2 -11 480.675 16.2164   2
  -2  -2  11 172.360 7.94423  13
   2  -2 -11 174.736 8.92230   9
  -2  -2  11 177.859 7.40390   4
   2   2 -11 164.974 7.45888  11
   2   2 -11 180.111 8.93290   2
  -2   2  11 172.681 7.50572  13
  -2   2  11 174.083 7.67581   4
  -2   2  11 180.152 8.75140   7
   0  -2 -11 129.508 7.01592  11
   0  -2 -11 125.793 7.53088   9
   0  -2  11 129.863 6.42596   4
   0  -2  11 131.928 7.27954  13
   0   2 -11 122.625 6.94536  11
   0   2  11 123.474 7.34323   7
   0   2  11 118.990 6.61105   4
   2  -2  11 215.633 9.81889  13
  -2  -2 -11 232.033 10.3638  11
   2  -2  11 226.047 9.15158   4
  -2   2 -11 226.559 10.0664  11
   2   2  11 216.307 9.39516   4
  11  -3 -11 7.98729 3.32881   3
 -11  -3  11 6.10363 2.66650   1
 -11  -3  11 5.38119 2.64024  13
  11  -3 -11 10.3173 4.61278  14
 -11   3  11 4.62380 2.75813  13
  11   3 -11 5.36571 2.51010   3
   9  -3 -11 1.06149 1.67980   9
  -9  -3  11 5.74092 2.60800  13
  -9  -3  11 1.77492 1.37545  16
   9  -3 -11 0.83117 2.70819  14
  -9  -3  11 0.42091 2.01409   1
   9  -3 -11 7.33535 2.96305   3
  -9   3  11 2.02347 1.64426  13
   9   3 -11 1.18065 1.95675   3
  -7  -3  11 8.38352 2.02395   4
  -7  -3  11 9.86863 2.23444   1
   7  -3 -11 2.79923 1.98918   9
   7  -3 -11 15.0431 3.30825   3
  -7  -3  11 8.36133 1.82151  16
  -7   3  11 4.78780 2.18442  13
  -7   3  11 2.41963 1.85246   4
   7   3 -11 3.78990 1.64244   2
   5  -3 -11 126.928 7.07443   9
   5  -3 -11 124.479 6.71777   3
  -5  -3  11 124.700 6.97822  13
  -5  -3  11 129.868 5.81281   4
  -5  -3  11 123.351 5.72771   1
  -5  -3  11 125.017 5.86805  16
  -5   3  11 131.326 6.32840   4
  -5   3  11 128.281 6.56306  13
   5   3 -11 122.328 6.92040   2
  -3  -3  11 36.9366 4.24913  13
  -3  -3  11 40.8238 3.24385   4
   3  -3 -11 44.9288 4.35351   9
  -3   3  11 48.7459 3.88204  13
   3   3 -11 52.4684 5.61707   2
  -3   3  11 49.6995 4.99205   7
   3   3 -11 46.1266 3.43024  11
  -3   3  11 47.8304 4.22787   4
  -1  -3  11 76.6370 5.69485  13
  -1  -3  11 76.0342 4.78298   4
   1  -3 -11 72.6172 5.92156   9
   1   3 -11 72.1497 5.24139  11
  -1   3  11 76.8405 5.29255   4
   1   3 -11 78.0232 6.03543   2
  -1   3  11 86.4455 6.33131   7
   1  -3  11 9.40925 2.42010  13
  -1  -3 -11 3.95980 2.39628   9
   1  -3  11 1.36624 1.82502   4
   1   3  11 1.90378 2.35631   7
  -1   3 -11 4.98293 2.30007  11
   1   3  11 3.68352 2.31312   4
  10  -4 -11 -0.3843 1.54887   9
 -10  -4  11 0.39846 1.95379   1
  10  -4 -11 2.00385 3.42916  14
  10  -4 -11 -0.0638 2.34090   3
 -10  -4  11 0.43661 2.06988  13
  10   4 -11 0.12744 2.25891   3
 -10   4  11 1.62254 2.47678  13
   8  -4 -11 137.724 8.64970   3
   8  -4 -11 153.071 11.6550  14
  -8  -4  11 141.944 7.78320  13
  -8  -4  11 146.076 6.54028   4
   8  -4 -11 138.420 7.44749   9
  -8  -4  11 144.557 7.18216  16
  -8  -4  11 145.101 7.13932   1
  -8   4  11 146.467 7.75672  13
   8   4 -11 143.165 7.12343   2
  -8   4  11 127.404 6.69091   4
   6  -4 -11 324.429 13.0674   3
  -6  -4  11 333.640 12.3093  13
  -6  -4  11 331.488 10.5745   4
   6  -4 -11 338.747 12.7197   9
  -6  -4  11 315.527 10.8604   1
  -6  -4  11 323.220 11.1683  16
   6   4 -11 332.910 12.6362   2
  -6   4  11 325.933 11.3467   4
  -6   4  11 324.669 11.6441  13
  -4  -4  11 61.9450 3.88251   1
   4  -4 -11 64.9979 5.10064   9
  -4  -4  11 55.5558 3.76705  16
  -4  -4  11 66.9924 4.92018  13
  -4  -4  11 56.6226 3.62417   4
  -4   4  11 61.3619 4.30486   4
   4   4 -11 67.1442 5.37092   2
   2  -4 -11 133.981 7.69129   9
  -2  -4  11 144.517 6.28481   4
  -2  -4  11 150.670 7.48173  13
   2   4 -11 137.358 7.96657   2
  -2   4  11 137.423 8.27498   7
  -2   4  11 141.482 6.93538   4
   2   4 -11 140.076 6.88380  11
   0  -4  11 87.7818 5.11867   4
   0  -4  11 86.5006 6.29000  13
   0  -4 -11 93.2565 6.64040   9
   0   4  11 87.0556 5.76021   4
   0   4 -11 85.0866 5.66549  11
   0   4  11 90.3099 6.82811   7
   0   4 -11 87.6741 6.27097   2
   9  -5 -11 2.28758 1.55802   9
   9  -5 -11 2.73583 3.40292  14
  -9  -5  11 0.36999 1.87607  13
  -9  -5  11 2.83007 2.07549   1
   9  -5 -11 1.80707 1.98408   3
  -9   5  11 4.51054 1.90866  13
  -7  -5  11 249.725 10.2335  13
  -7  -5  11 252.000 9.84570  16
  -7  -5  11 246.246 9.50278   1
   7  -5 -11 243.251 10.4504   9
   7  -5 -11 247.801 11.8243   3
   7   5 -11 243.449 10.3870   2
  -7   5  11 265.135 10.0114   4
  -7   5  11 244.296 9.91586  13
  -5  -5  11 145.892 6.79579  16
   5  -5 -11 144.947 7.73971   9
  -5  -5  11 140.429 6.62503   1
  -5  -5  11 136.153 7.34303  13
   5  -5 -11 129.128 7.58293   3
   5   5 -11 126.002 7.64097   2
  -5   5  11 146.943 7.01367   4
  -3  -5  11 42.3094 4.50046  13
  -3  -5  11 42.7394 3.69036   1
   3  -5 -11 43.9020 4.76128   9
  -3   5  11 38.0076 3.77834   4
  -3   5  11 47.5004 5.51140   7
   3   5 -11 50.6986 4.73907   2
   3   5 -11 50.9707 3.70619  11
   1  -5 -11 99.5778 6.72302   9
  -1  -5  11 96.8097 6.49767  13
   1   5 -11 97.2395 6.68564   2
   1   5 -11 85.6404 5.50667  11
  -1   5  11 92.7851 6.74283   7
  -1   5  11 95.1608 5.56596   4
   1  -5  11 -1.2090 1.86825  13
  -8  -6  11 111.434 6.73481  13
  -8  -6  11 111.809 6.22076   1
   8  -6 -11 105.602 8.21738   3
   8  -6 -11 113.414 7.09673   9
  -8   6  11 111.140 6.36838   4
   8   6 -11 111.025 6.26824   2
   6  -6 -11 64.1407 5.15970   9
  -6  -6  11 54.6825 4.53965   1
  -6  -6  11 63.3829 5.19251  13
   6  -6 -11 66.9364 6.14894   3
   6   6 -11 64.7091 5.24582   2
  -6   6  11 67.6159 4.64912   4
   4  -6 -11 2.59384 2.20561   9
  -4  -6  11 3.65691 1.49783   1
  -4  -6  11 1.85979 2.15150  13
  -4  -6  11 3.09284 1.75084  16
   4   6 -11 3.07066 2.03869   2
  -4   6  11 -0.6590 2.27932   7
  -4   6  11 1.68339 1.45158   4
   2  -6 -11 130.734 7.84650   9
  -2  -6  11 147.081 7.89346  13
  -2   6  11 139.668 7.00509   4
   2   6 -11 140.632 6.91041  11
  -2   6  11 137.690 8.79752   7
   2   6 -11 141.228 8.25121   2
   0  -6  11 199.988 9.60579  13
   0  -6 -11 217.159 11.8592   9
   0   6 -11 188.286 9.26512   2
   0   6 -11 199.075 9.18436  11
   0   6  11 200.645 10.5958   7
   0   6  11 180.550 8.42106   4
   0   6  11 206.122 10.5327  10
   7  -7 -11 3.13489 2.25475   9
  -7  -7  11 0.01057 1.84969   1
   7  -7 -11 4.05632 2.53729   3
  -7  -7  11 1.52255 1.88495  13
  -7   7  11 1.23793 1.84018   4
   5  -7 -11 137.409 7.91708   9
  -5  -7  11 144.027 7.61339  13
  -5  -7  11 142.440 7.16243   1
  -5   7  11 152.236 7.16519   4
   5   7 -11 155.879 8.73802   2
  -5   7  11 148.161 9.14417   7
   3  -7 -11 127.434 7.79244   9
  -3  -7  11 133.204 6.69746   1
  -3  -7  11 125.170 7.19945  13
   3   7 -11 126.096 8.01929   2
  -3   7  11 132.550 6.67671   4
  -3   7  11 121.816 8.07466   7
  -1  -7  11 7.46707 2.35646  13
   1  -7 -11 7.97039 2.60659   9
   1   7 -11 9.31414 2.23166  11
  -1   7  11 10.7557 3.65293   7
  -1   7  11 6.00375 2.16439   4
   1   7 -11 8.21455 2.77640   2
  -6  -8  11 21.9471 3.07595  13
   6  -8 -11 22.3253 3.54720   9
  -6  -8  11 18.4639 3.04033   1
   6   8 -11 22.1361 3.67484   2
  -6   8  11 26.1101 4.71169   7
  -4  -8  11 164.655 8.21917  13
  -4  -8  11 173.150 8.03829   1
  -4   8  11 167.184 9.88145   7
   4   8 -11 154.469 8.84471   2
 -10   0  12 1741.13 43.5979   1
 -10   0  12 1823.25 46.3322  13
   8   0 -12 1168.18 31.7443   9
  -8   0  12 1234.81 33.1980  13
   8   0 -12 1228.51 33.7703   3
  -8   0  12 1248.72 31.6473   4
   6   0 -12 1269.34 34.4300   9
  -6   0  12 1349.58 34.6342  13
  -6   0  12 1322.92 33.2987   4
   4   0 -12 1142.29 32.0357   9
  -4   0  12 1181.06 30.0673   4
  -4   0  12 1180.47 30.9334  13
   2   0 -12 733.499 20.9530  11
  -2   0  12 711.018 21.4092   7
   2   0 -12 749.633 23.4799   9
  -2   0  12 735.749 20.6918   4
  -2   0  12 722.344 21.1210  13
   0   0 -12 1514.67 40.1000   9
   0   0  12 1425.68 36.8855  13
   0   0 -12 1415.06 37.5861  11
   0   0  12 1447.43 36.3974   4
  11  -1 -12 99.5525 8.42645   3
 -11  -1  12 80.4388 5.54655   1
  11   1 -12 94.4504 7.87730   3
 -11   1  12 74.7790 5.61856   1
  -9  -1  12 286.672 10.8108   1
  -9  -1  12 277.184 12.1669  13
   9  -1 -12 286.272 10.9801   9
   9  -1 -12 308.873 13.6032   3
  -9   1  12 304.986 11.4813   4
   9   1 -12 302.393 13.0928   3
  -9   1  12 290.575 12.2356  13
  -7  -1  12 412.302 13.5419   4
  -7  -1  12 403.210 14.6445  13
   7  -1 -12 399.641 14.2940   9
  -7   1  12 435.012 13.8175   4
   7   1 -12 407.075 14.1596   9
  -7   1  12 403.985 14.4984  13
  -5  -1  12 80.7796 5.54610  13
  -5  -1  12 87.5061 5.13067   4
   5  -1 -12 84.0384 6.21536   9
  -5   1  12 84.4043 5.50232   4
   5   1 -12 93.1586 6.42524   9
  -5   1  12 81.3829 5.45931  13
  -3  -1  12 298.611 10.4643   4
  -3  -1  12 283.042 11.1857  13
   3  -1 -12 283.254 12.0395   9
  -3   1  12 287.085 10.5769   4
  -3   1  12 272.337 11.2708   7
   3   1 -12 261.177 11.7740   9
  -3   1  12 284.479 10.6725  13
   3   1 -12 280.413 10.1588  11
  -1  -1  12 366.484 12.3674   4
   1  -1 -12 354.804 12.7422  11
  -1  -1  12 375.502 13.3451  13
   1  -1 -12 362.847 14.6447   9
  -1   1  12 350.823 12.5512  13
  -1   1  12 363.051 12.6350   4
   1   1 -12 333.575 12.6400  11
  10  -2 -12 154.770 9.92316   3
 -10  -2  12 162.454 8.92962  13
 -10  -2  12 146.130 7.68008   1
 -10   2  12 124.869 7.82784  13
  10   2 -12 154.653 9.48790   3
  -8  -2  12 27.3203 3.62464   4
  -8  -2  12 27.1632 4.07183  13
  -8  -2  12 19.3891 2.73251   1
   8  -2 -12 28.4909 4.51743   3
  -8  -2  12 19.8712 3.07186  16
   8  -2 -12 19.1151 3.17493   9
  -8   2  12 18.7903 3.24057   4
  -8   2  12 24.0577 4.00279  13
  -6  -2  12 347.756 11.8491   4
   6  -2 -12 354.763 13.5550   9
  -6  -2  12 363.887 13.3458  13
   6   2 -12 341.571 12.8751   9
  -6   2  12 358.041 12.9497  13
  -6   2  12 360.667 12.4374   4
  -4  -2  12 646.463 19.5949  13
   4  -2 -12 641.027 20.5622   9
  -4  -2  12 630.795 18.0772   4
  -4   2  12 663.830 18.8930   4
  -4   2  12 630.156 18.8972  13
  -2  -2  12 120.010 6.22953   4
   2  -2 -12 127.906 8.07956   9
  -2  -2  12 124.460 7.18617  13
  -2   2  12 108.931 7.25098   7
   2   2 -12 116.803 6.29037  11
  -2   2  12 110.904 6.11115  13
  -2   2  12 124.081 6.43573   4
   0  -2 -12 107.465 7.67510   9
   0  -2  12 98.1152 6.36850  13
   0  -2  12 115.929 6.36347   4
   0   2  12 107.841 6.98013   7
   0   2 -12 110.827 6.62783  11
   0   2  12 110.372 6.60533   4
  -9  -3  12 602.248 18.3958   1
  -9  -3  12 614.272 19.8252  13
   9  -3 -12 586.026 18.7626   9
  -9  -3  12 632.810 18.1225   4
   9  -3 -12 622.417 21.8480   3
  -9   3  12 610.477 18.5948   4
  -9   3  12 624.629 19.9750  13
  -7  -3  12 940.659 26.5467  13
  -7  -3  12 924.494 24.9280  16
   7  -3 -12 919.083 26.5498   9
   7  -3 -12 963.399 27.7132   3
  -7  -3  12 937.753 24.6976   1
  -7  -3  12 933.458 24.6223   4
   7   3 -12 938.511 26.5389   2
  -7   3  12 952.513 25.6613   4
   7   3 -12 930.048 25.8973   9
  -7   3  12 953.861 26.2955  13
  -5  -3  12 735.947 21.6983  13
  -5  -3  12 723.132 19.7650   4
   5  -3 -12 740.991 22.5770   9
  -5   3  12 737.233 20.7102   4
  -5   3  12 691.031 20.5279  13
   5   3 -12 734.020 22.4680   2
  -3  -3  12 912.596 23.7571   4
  -3  -3  12 925.813 25.5434  13
   3  -3 -12 888.802 26.3470   9
  -3   3  12 912.321 26.6448   7
  -3   3  12 908.416 24.4403   4
   3   3 -12 875.732 23.9910  11
   3   3 -12 879.967 26.5748   2
   1  -3 -12 754.264 23.3559   9
  -1  -3  12 778.216 22.3796  13
  -1  -3  12 737.648 20.3664   4
  -1   3  12 739.597 21.2308   4
   1   3 -12 706.122 21.4650  11
  -1   3  12 714.149 22.7593   7
 -10  -4  12 199.926 9.90058  13
 -10  -4  12 200.628 9.23199   1
  10  -4 -12 210.124 14.6868  14
  10  -4 -12 214.101 11.9453   3
 -10   4  12 187.590 9.04871   4
 -10   4  12 204.207 10.0048  13
  -8  -4  12 95.4628 5.78451   4
   8  -4 -12 104.176 6.70650   9
  -8  -4  12 109.695 6.97850  13
  -8  -4  12 104.180 5.84757   1
   8  -4 -12 98.2116 7.60362   3
  -8   4  12 90.2001 5.74870   4
   8   4 -12 109.917 6.29011   2
  -8   4  12 105.042 6.72541  13
  -6  -4  12 40.0563 3.69887   1
  -6  -4  12 39.0785 3.72564  16
  -6  -4  12 39.9281 4.28891  13
  -6  -4  12 34.2629 3.46817   4
   6  -4 -12 41.2696 4.28119   3
   6  -4 -12 42.4324 4.83545   9
  -6   4  12 41.4594 3.78853  13
   6   4 -12 40.1094 3.97533   9
  -6   4  12 37.7448 4.03155   4
   6   4 -12 47.3653 5.34299   2
   4  -4 -12 22.2954 3.96050   9
  -4  -4  12 19.5041 2.70345   4
  -4  -4  12 20.1145 3.27759  13
  -4   4  12 22.1440 3.48178   4
   4   4 -12 27.7561 4.48950   2
  -4   4  12 20.6489 3.89488   7
   2  -4 -12 18.2309 3.39582   9
  -2  -4  12 15.0576 2.74276   4
  -2  -4  12 21.4761 3.31465  13
   2   4 -12 20.5342 3.61899   2
  -2   4  12 16.6847 3.10230   4
   2   4 -12 20.3877 2.86261  11
   9  -5 -12 360.619 15.5967   3
  -9  -5  12 344.815 12.6081   1
   9  -5 -12 356.936 13.2920   9
  -9  -5  12 344.949 13.2284  13
  -9   5  12 346.293 12.5627   4
  -9   5  12 349.827 13.3857  13
  -7  -5  12 310.907 12.1983  13
   7  -5 -12 313.343 13.5568   3
  -7  -5  12 305.572 11.2042   1
   7  -5 -12 332.950 12.9692   9
  -7   5  12 290.849 11.1292   4
   7   5 -12 305.574 12.3116   2
   5  -5 -12 147.633 8.27411   9
  -5  -5  12 160.256 8.01871  13
  -5  -5  12 151.214 7.06488   1
   5   5 -12 154.731 8.77585   2
  -5   5  12 152.856 7.52937   4
  -5   5  12 153.225 9.38106   7
  -3  -5  12 180.608 9.01923  13
   3  -5 -12 188.650 9.53044   9
   3   5 -12 178.940 9.54502   2
  -3   5  12 183.198 10.0920   7
  -3   5  12 177.094 8.20430   4
   1  -5 -12 339.926 13.5236   9
  -1  -5  12 318.743 12.5327  13
  -1   5  12 336.895 13.8824   7
   1   5 -12 295.287 11.7460  11
   1   5 -12 307.950 12.7209   2
  -8  -6  12 650.733 19.2552   1
   8  -6 -12 667.009 22.9527   3
  -8  -6  12 637.790 19.8714  13
  -8   6  12 622.544 19.0406   4
   8   6 -12 642.081 19.8538   2
  -6  -6  12 905.289 25.7535  13
  -6  -6  12 920.544 24.7291   1
   6  -6 -12 892.880 26.3509   9
  -6   6  12 894.113 24.7375   4
   6   6 -12 890.560 26.7308   2
  -6   6  12 939.350 28.4299   7
   4  -6 -12 1167.11 32.1147   9
  -4  -6  12 1123.03 30.7048  13
  -4   6  12 1135.40 33.1352   7
  -4   6  12 1146.31 29.8630   4
   4   6 -12 1124.51 32.3760   2
   2  -6 -12 940.074 27.1412   9
  -2  -6  12 929.394 26.2213  13
   2   6 -12 890.152 26.8128   2
  -2   6  12 886.546 24.8234   4
   2   6 -12 896.788 25.0424  11
  -2   6  12 916.956 27.9252   7
  -5  -7  12 330.922 12.5810  13
   5  -7 -12 330.587 13.3900   9
  -5  -7  12 341.269 11.7587   1
   5   7 -12 324.539 13.6181   2
  -5   7  12 311.892 14.0366   7
  -5   7  12 328.286 11.6832   4
  -8   0  13 -0.4438 2.03604   4
   8   0 -13 -0.5355 1.25311   9
  -8   0  13 2.99359 2.56446  13
  -6   0  13 1.98415 2.12929   4
  -6   0  13 4.30108 2.46628  13
   6   0 -13 3.26198 2.24073   9
   4   0 -13 -1.8288 1.84334   9
  -4   0  13 0.45925 2.07375  13
  -4   0  13 1.22903 2.08262   4
  -4   0  13 0.20366 1.88121   7
   2   0 -13 3.36327 1.31177  11
  -2   0  13 1.05020 1.47525  13
  -2   0  13 1.56974 2.14699   4
   2   0 -13 0.58464 1.54802   9
   9  -1 -13 99.4329 6.36378   9
  -9  -1  13 98.8935 5.99829   4
  -9  -1  13 108.948 7.47368  13
  -9   1  13 98.1397 6.82219  13
  -9   1  13 97.1167 6.39372   4
   7  -1 -13 141.257 8.11436   9
  -7  -1  13 139.108 8.06150  13
  -7  -1  13 144.352 7.34649   4
  -7   1  13 142.019 7.20450   4
   7   1 -13 125.909 7.53953   9
  -7   1  13 135.561 8.01285  13
  -5  -1  13 20.5255 3.62332  13
   5  -1 -13 30.2047 4.48759   9
  -5  -1  13 23.1717 3.05167   4
  -5   1  13 21.0750 3.01364   4
  -5   1  13 28.3216 3.70541  13
   5   1 -13 29.3349 4.05444   9
  -3  -1  13 0.70635 1.52894  13
   3  -1 -13 2.17428 2.30627   9
  -3  -1  13 3.86520 1.66856   4
  -3   1  13 -0.0139 1.46935   4
   3   1 -13 4.57212 2.74704   9
  -3   1  13 1.38778 1.99314  13
  -3   1  13 3.84663 2.19096   7
  -8  -2  13 98.0022 5.90689   4
  -8  -2  13 84.6167 6.70493  13
   8  -2 -13 89.2228 6.32163   9
  -8   2  13 90.2925 6.12966   4
  -8   2  13 84.3990 6.62753  13
  -6  -2  13 282.504 10.5074   4
  -6  -2  13 270.932 11.3665  13
   6  -2 -13 287.406 12.3557   9
  -6   2  13 271.936 10.8986   4
  -6   2  13 286.132 11.2482  13
   6   2 -13 276.913 11.6618   9
  -4  -2  13 210.350 9.76610  13
   4  -2 -13 197.627 10.2892   9
  -4  -2  13 196.504 8.38971   4
   4   2 -13 192.414 10.0006   9
  -4   2  13 198.691 8.68956   4
  -4   2  13 194.042 8.84425  13
  -4   2  13 195.515 9.75481   7
   2  -2 -13 132.190 8.52169   9
  -2  -2  13 130.844 7.74772  13
   2   2 -13 126.233 8.64280   9
  -2   2  13 124.804 7.76329   7
   2   2 -13 134.084 6.75347  11
  -2   2  13 125.289 7.15275   4
  -9  -3  13 68.8387 5.10678   1
   9  -3 -13 74.6008 6.84243   3
  -9  -3  13 70.3600 5.75124  13
   9  -3 -13 73.4692 5.38066   9
  -9  -3  13 76.4704 5.30948   4
  -9   3  13 69.2750 6.05242  13
  -9   3  13 62.3648 4.95174   4
   7  -3 -13 11.9062 2.96867   9
  -7  -3  13 11.1711 3.11107  13
  -7  -3  13 8.48071 2.03721   4
   7   3 -13 8.45086 2.20044   9
  -7   3  13 9.64611 2.67464   4
  -7   3  13 11.1207 2.50480  13
   5  -3 -13 39.4713 4.91667   9
  -5  -3  13 39.1252 3.88323   4
  -5  -3  13 46.6891 5.20286  13
  -5   3  13 43.2520 4.55194   4
  -5   3  13 42.4486 5.09601   7
   5   3 -13 37.1683 4.62997   9
   3  -3 -13 4.28228 2.23938   9
  -3  -3  13 4.09930 2.11320  13
  -3  -3  13 3.60563 1.58489   4
  -3   3  13 6.09386 2.53238   4
  -3   3  13 3.98935 2.10240   7
  -8  -4  13 81.8062 6.00490  13
  -8  -4  13 74.9649 4.94549   1
   8  -4 -13 76.8666 6.13254   9
   8  -4 -13 73.8313 6.14725   3
  -8   4  13 82.6873 5.77927  13
  -8   4  13 76.7672 5.27964   4
  -6  -4  13 13.0254 3.30418  13
   6  -4 -13 18.8351 3.73929   9
  -6   4  13 16.1977 3.17100   4
   6   4 -13 10.0117 3.11658   2
   6   4 -13 10.9997 2.99262   9
  -4  -4  13 146.594 8.24233  13
   4  -4 -13 143.275 8.41896   9
   4   4 -13 137.045 8.35421   2
  -4   4  13 139.339 7.15040   4
  -4   4  13 150.590 8.78694   7
  -7  -5  13 6.15357 2.02780   1
  -5  -5  13 26.6784 3.68706  13
   5  -5 -13 26.2290 4.36150   9
  -5   5  13 21.8485 4.18465   7
   5   5 -13 26.3893 3.95365   2
  -5   5  13 24.6529 3.25409   4
   6   0 -14 17.6570 3.62412   9
  -6   0  14 20.3623 3.81240  13
  -6   0  14 22.6793 3.60414   4
   0   0   0    0.00    0.00   0

 _exptl_absorpt_process_details
)
 SADABS 2016/2: Krause, L., Herbst-Irmer, R., Sheldrick G.M. & Stalke D.,
 J. Appl. Cryst. 48 (2015) 3-10
)
 _exptl_absorpt_correction_type   multi-scan
 _exptl_absorpt_correction_T_max  0.7479
 _exptl_absorpt_correction_T_min  0.5814
 _exptl_special_details
)
 The following wavelength and cell were deduced by SADABS from the
 direction cosines etc. They are given here for emergency use only:
 CELL 0.71066    7.033    7.572    7.740   89.966  118.355   90.049
)

;
_shelx_hkl_checksum              23897
loop_
_space_group_symop_operation_xyz
'x, y, z'
'-x, y, -z+1/2'
'x+1/2, y+1/2, z'
'-x+1/2, y+1/2, -z+1/2'
'-x, -y, -z'
'x, -y, z-1/2'
'-x+1/2, -y+1/2, -z'
'x+1/2, -y+1/2, z-1/2'
loop_
_atom_site_label
_atom_site_type_symbol
_atom_site_fract_x
_atom_site_fract_y
_atom_site_fract_z
_atom_site_U_iso_or_equiv
_atom_site_adp_type
_atom_site_occupancy
_atom_site_site_symmetry_order
_atom_site_calc_flag
_atom_site_refinement_flags_posn
_atom_site_refinement_flags_adp
_atom_site_refinement_flags_occupancy
_atom_site_disorder_assembly
_atom_site_disorder_group
Fe Fe 0.000000 0.500000 0.000000 0.00387(4) Uani 1 2 d S . P . .
S S 0.000000 0.15512(2) 0.250000 0.00351(4) Uani 1 2 d S T P . .
O1 O 0.16853(7) 0.04497(6) 0.40047(7) 0.00700(7) Uani 1 1 d . . . . .
O2 O 0.09991(7) 0.27015(6) 0.15910(6) 0.00624(7) Uani 1 1 d . . . . .
O3 O 0.000000 0.64381(8) 0.250000 0.00616(9) Uani 1 2 d S T P . .
H H 0.109(2) 0.712(2) 0.292(2) 0.021(3) Uiso 1 1 d . . . . .
loop_
_atom_site_aniso_label
_atom_site_aniso_U_11
_atom_site_aniso_U_22
_atom_site_aniso_U_33
_atom_site_aniso_U_23
_atom_site_aniso_U_13
_atom_site_aniso_U_12
Fe 0.00364(5) 0.00378(5) 0.00416(5) 0.00046(3) 0.00182(4) 0.00003(3)
S 0.00283(7) 0.00326(7) 0.00436(7) 0.000 0.00162(5) 0.000
O1 0.00455(14) 0.00773(16) 0.00792(15) 0.00347(12) 0.00231(12) 0.00210(12)
O2 0.00607(15) 0.00564(15) 0.00832(15) 0.00221(12) 0.00450(13) 0.00030(11)
O3 0.0060(2) 0.0064(2) 0.0064(2) 0.000 0.00316(17) 0.000
loop_
_atom_type_symbol
_atom_type_description
_atom_type_scat_dispersion_real
_atom_type_scat_dispersion_imag
_atom_type_scat_source
O O 0.0106 0.0060 'International Tables Vol C Tables 4.2.6.8 and 6.1.1.4'
H H 0.0000 0.0000 'International Tables Vol C Tables 4.2.6.8 and 6.1.1.4'
S S 0.1246 0.1234 'International Tables Vol C Tables 4.2.6.8 and 6.1.1.4'
Mg Mg 0.0486 0.0363 'International Tables Vol C Tables 4.2.6.8 and 6.1.1.4'
Fe Fe 0.3463 0.8444 'International Tables Vol C Tables 4.2.6.8 and 6.1.1.4'
loop_
_geom_angle_atom_site_label_1
_geom_angle_atom_site_label_2
_geom_angle_atom_site_label_3
_geom_angle
_geom_angle_site_symmetry_1
_geom_angle_site_symmetry_3
_geom_angle_publ_flag
O2 Fe O2 180.0 . 5_565 ?
O2 Fe O1 94.955(19) . 8_455 ?
O2 Fe O1 85.045(19) 5_565 8_455 ?
O2 Fe O1 85.045(19) . 4 ?
O2 Fe O1 94.955(19) 5_565 4 ?
O1 Fe O1 180.0 8_455 4 ?
O2 Fe O3 88.01(2) . 5_565 ?
O2 Fe O3 91.99(2) 5_565 5_565 ?
O1 Fe O3 93.465(16) 8_455 5_565 ?
O1 Fe O3 86.535(16) 4 5_565 ?
O2 Fe O3 91.99(2) . . ?
O2 Fe O3 88.01(2) 5_565 . ?
O1 Fe O3 86.535(16) 8_455 . ?
O1 Fe O3 93.465(16) 4 . ?
O3 Fe O3 180.0 5_565 . ?
O2 Fe O2 83.065(13) . 8_455 ?
O2 Fe O2 96.935(13) 5_565 8_455 ?
O1 Fe O2 43.018(15) 8_455 8_455 ?
O1 Fe O2 136.982(15) 4 8_455 ?
O3 Fe O2 51.934(12) 5_565 8_455 ?
O3 Fe O2 128.066(12) . 8_455 ?
O2 Fe O2 96.935(13) . 4 ?
O2 Fe O2 83.065(13) 5_565 4 ?
O1 Fe O2 136.982(15) 8_455 4 ?
O1 Fe O2 43.018(15) 4 4 ?
O3 Fe O2 128.066(12) 5_565 4 ?
O3 Fe O2 51.934(12) . 4 ?
O2 Fe O2 180.000(15) 8_455 4 ?
O2 Fe O2 137.682(17) . 6_565 ?
O2 Fe O2 42.319(17) 5_565 6_565 ?
O1 Fe O2 112.866(18) 8_455 6_565 ?
O1 Fe O2 67.134(18) 4 6_565 ?
O3 Fe O2 60.234(18) 5_565 6_565 ?
O3 Fe O2 119.765(18) . 6_565 ?
O2 Fe O2 95.790(15) 8_455 6_565 ?
O2 Fe O2 84.210(15) 4 6_565 ?
O2 Fe O2 42.318(17) . 2 ?
O2 Fe O2 137.681(17) 5_565 2 ?
O1 Fe O2 67.134(18) 8_455 2 ?
O1 Fe O2 112.866(18) 4 2 ?
O3 Fe O2 119.766(18) 5_565 2 ?
O3 Fe O2 60.235(18) . 2 ?
O2 Fe O2 84.210(15) 8_455 2 ?
O2 Fe O2 95.790(15) 4 2 ?
O2 Fe O2 180.000(12) 6_565 2 ?
O1 S O1 110.59(4) 2 . ?
O1 S O2 110.05(3) 2 . ?
O1 S O2 108.85(3) . . ?
O1 S O2 108.85(3) 2 2 ?
O1 S O2 110.05(3) . 2 ?
O2 S O2 108.42(4) . 2 ?
S O1 Fe 136.04(3) . 4_545 ?
S O1 O2 35.914(16) . . ?
Fe O1 O2 100.22(2) 4_545 . ?
S O1 O1 34.70(2) . 2 ?
Fe O1 O1 139.79(3) 4_545 2 ?
O2 O1 O1 60.412(19) . 2 ?
S O1 O2 35.306(17) . 2 ?
Fe O1 O2 144.22(3) 4_545 2 ?
O2 O1 O2 60.12(2) . 2 ?
O1 O1 O2 59.675(19) 2 2 ?
S O1 O2 127.16(3) . 4_545 ?
Fe O1 O2 46.666(13) 4_545 4_545 ?
O2 O1 O2 108.390(19) . 4_545 ?
O1 O1 O2 102.85(2) 2 4_545 ?
O2 O1 O2 161.84(3) 2 4_545 ?
S O1 O3 171.03(3) . 7_556 ?
Fe O1 O3 48.319(12) 4_545 7_556 ?
O2 O1 O3 146.22(2) . 7_556 ?
O1 O1 O3 150.223(16) 2 7_556 ?
O2 O1 O3 135.81(2) 2 7_556 ?
O2 O1 O3 61.808(17) 4_545 7_556 ?
S O1 O2 115.81(3) . 8_556 ?
Fe O1 O2 41.839(14) 4_545 8_556 ?
O2 O1 O2 87.400(19) . 8_556 ?
O1 O1 O2 147.744(19) 2 8_556 ?
O2 O1 O2 104.10(2) 2 8_556 ?
O2 O1 O2 88.50(2) 4_545 8_556 ?
O3 O1 O2 61.270(19) 7_556 8_556 ?
S O1 O3 91.87(2) . 3_545 ?
Fe O1 O3 44.674(13) 4_545 3_545 ?
O2 O1 O3 56.968(17) . 3_545 ?
O1 O1 O3 101.78(3) 2 3_545 ?
O2 O1 O3 114.19(2) 2 3_545 ?
O2 O1 O3 61.779(18) 4_545 3_545 ?
O3 O1 O3 92.993(18) 7_556 3_545 ?
O2 O1 O3 57.065(16) 8_556 3_545 ?
S O1 O3 103.08(3) . 1_545 ?
Fe O1 O3 97.544(17) 4_545 1_545 ?
O2 O1 O3 118.53(2) . 1_545 ?
O1 O1 O3 68.373(10) 2 1_545 ?
O2 O1 O3 117.95(2) 2 1_545 ?
O2 O1 O3 52.717(15) 4_545 1_545 ?
O3 O1 O3 82.656(16) 7_556 1_545 ?
O2 O1 O3 137.388(17) 8_556 1_545 ?
O3 O1 O3 107.210(18) 3_545 1_545 ?
S O1 O2 126.76(3) . 6_556 ?
Fe O1 O2 96.725(18) 4_545 6_556 ?
O2 O1 O2 162.39(3) . 6_556 ?
O1 O1 O2 103.09(2) 2 6_556 ?
O2 O1 O2 107.42(2) 2 6_556 ?
O2 O1 O2 80.062(19) 4_545 6_556 ?
O3 O1 O2 51.372(14) 7_556 6_556 ?
O2 O1 O2 108.62(2) 8_556 6_556 ?
O3 O1 O2 138.094(19) 3_545 6_556 ?
O3 O1 O2 53.857(13) 1_545 6_556 ?
S O1 O2 113.23(3) . 7_556 ?
Fe O1 O2 76.947(19) 4_545 7_556 ?
O2 O1 O2 108.63(2) . 7_556 ?
O1 O1 O2 140.60(2) 2 7_556 ?
O2 O1 O2 81.724(19) 2 7_556 ?
O2 O1 O2 116.21(2) 4_545 7_556 ?
O3 O1 O2 58.376(18) 7_556 7_556 ?
O2 O1 O2 44.321(17) 8_556 7_556 ?
O3 O1 O2 101.046(18) 3_545 7_556 ?
O3 O1 O2 132.677(16) 1_545 7_556 ?
O2 O1 O2 79.800(15) 6_556 7_556 ?
S O2 Fe 132.45(3) . . ?
S O2 O1 35.238(16) . . ?
Fe O2 O1 162.31(3) . . ?
S O2 O2 35.789(19) . 2 ?
Fe O2 O2 102.777(17) . 2 ?
O1 O2 O2 60.307(18) . 2 ?
S O2 O1 34.645(16) . 2 ?
Fe O2 O1 117.96(2) . 2 ?
O1 O2 O1 59.91(3) . 2 ?
O2 O2 O1 59.573(18) 2 2 ?
S O2 O3 109.50(3) . 3_545 ?
Fe O2 O3 117.96(2) . 3_545 ?
O1 O2 O3 75.48(2) . 3_545 ?
O2 O2 O3 131.61(3) 2 3_545 ?
O1 O2 O3 114.71(3) 2 3_545 ?
S O2 O1 161.87(3) . 4 ?
Fe O2 O1 48.290(15) . 4 ?
O1 O2 O1 137.25(2) . 4 ?
O2 O2 O1 129.661(16) 2 4 ?
O1 O2 O1 161.84(3) 2 4 ?
O3 O2 O1 72.23(2) 3_545 4 ?
S O2 O3 134.90(3) . 5_565 ?
Fe O2 O3 48.309(15) . 5_565 ?
O1 O2 O3 147.41(3) . 5_565 ?
O2 O2 O3 135.41(3) 2 5_565 ?
O1 O2 O3 100.56(2) 2 5_565 ?
O3 O2 O3 92.541(17) 3_545 5_565 ?
O1 O2 O3 61.660(16) 4 5_565 ?
S O2 O1 91.85(2) . 8_455 ?
Fe O2 O1 43.206(12) . 8_455 ?
O1 O2 O1 127.04(2) . 8_455 ?
O2 O2 O1 73.19(2) 2 8_455 ?
O1 O2 O1 75.90(2) 2 8_455 ?
O3 O2 O1 155.19(2) 3_545 8_455 ?
O1 O2 O1 91.50(2) 4 8_455 ?
O3 O2 O1 62.915(16) 5_565 8_455 ?
S O2 O3 102.67(2) . . ?
Fe O2 O3 46.168(12) . . ?
O1 O2 O3 117.26(2) . . ?
O2 O2 O3 66.877(10) 2 . ?
O1 O2 O3 116.67(2) 2 . ?
O3 O2 O3 125.66(2) 3_545 . ?
O1 O2 O3 64.550(16) 4 . ?
O3 O2 O3 94.477(15) 5_565 . ?
O1 O2 O3 57.772(13) 8_455 . ?
S O2 O1 95.85(2) . 6 ?
Fe O2 O1 110.89(2) . 6 ?
O1 O2 O1 85.717(17) . 6 ?
O2 O2 O1 130.379(14) 2 6 ?
O1 O2 O1 72.57(2) 2 6 ?
O3 O2 O1 58.124(16) 3_545 6 ?
O1 O2 O1 99.938(19) 4 6 ?
O3 O2 O1 62.610(18) 5_565 6 ?
O1 O2 O1 108.62(2) 8_455 6 ?
O3 O2 O1 156.998(18) . 6 ?
S O2 O1 82.68(2) . 7_556 ?
Fe O2 O1 96.89(2) . 7_556 ?
O1 O2 O1 71.37(2) . 7_556 ?
O2 O2 O1 62.49(2) 2 7_556 ?
O1 O2 O1 116.85(2) 2 7_556 ?
O3 O2 O1 86.562(18) 3_545 7_556 ?
O1 O2 O1 79.398(16) 4 7_556 ?
O3 O2 O1 139.13(2) 5_565 7_556 ?
O1 O2 O1 109.24(2) 8_455 7_556 ?
O3 O2 O1 55.230(12) . 7_556 ?
O1 O2 O1 142.146(17) 6 7_556 ?
Fe O3 Fe 121.27(3) . 2 ?
Fe O3 O2 111.975(14) . 3_455 ?
Fe O3 O2 88.248(13) 2 3_455 ?
Fe O3 O2 88.248(13) . 4 ?
Fe O3 O2 111.975(14) 2 4 ?
O2 O3 O2 138.98(3) 3_455 4 ?
Fe O3 O1 45.146(13) . 8_455 ?
Fe O3 O1 103.47(2) 2 8_455 ?
O2 O3 O1 70.504(17) 3_455 8_455 ?
O2 O3 O1 132.165(15) 4 8_455 ?
Fe O3 O1 103.47(2) . 7_556 ?
Fe O3 O1 45.146(13) 2 7_556 ?
O2 O3 O1 132.164(15) 3_455 7_556 ?
O2 O3 O1 70.504(16) 4 7_556 ?
O1 O3 O1 122.41(3) 8_455 7_556 ?
Fe O3 O2 159.76(2) . 6_566 ?
Fe O3 O2 43.677(11) 2 6_566 ?
O2 O3 O2 83.726(16) 3_455 6_566 ?
O2 O3 O2 87.459(18) 4 6_566 ?
O1 O3 O2 139.698(16) 8_455 6_566 ?
O1 O3 O2 56.532(15) 7_556 6_566 ?
Fe O3 O2 43.677(11) . 5_565 ?
Fe O3 O2 159.76(2) 2 5_565 ?
O2 O3 O2 87.459(18) 3_455 5_565 ?
O2 O3 O2 83.726(16) 4 5_565 ?
O1 O3 O2 56.532(15) 8_455 5_565 ?
O1 O3 O2 139.698(16) 7_556 5_565 ?
O2 O3 O2 154.67(3) 6_566 5_565 ?
Fe O3 O2 41.846(13) . . ?
Fe O3 O2 80.97(2) 2 . ?
O2 O3 O2 125.66(2) 3_455 . ?
O2 O3 O2 93.523(13) 4 . ?
O1 O3 O2 60.958(17) 8_455 . ?
O1 O3 O2 66.393(18) 7_556 . ?
O2 O3 O2 118.768(19) 6_566 . ?
O2 O3 O2 85.523(16) 5_565 . ?
Fe O3 O2 80.97(2) . 2 ?
Fe O3 O2 41.846(13) 2 2 ?
O2 O3 O2 93.522(13) 3_455 2 ?
O2 O3 O2 125.66(2) 4 2 ?
O1 O3 O2 66.393(19) 8_455 2 ?
O1 O3 O2 60.958(17) 7_556 2 ?
O2 O3 O2 85.523(15) 6_566 2 ?
O2 O3 O2 118.768(19) 5_565 2 ?
O2 O3 O2 46.25(2) . 2 ?
Fe O3 O1 120.79(2) . 3_455 ?
Fe O3 O1 41.862(10) 2 3_455 ?
O2 O3 O1 47.548(14) 3_455 3_455 ?
O2 O3 O1 147.279(15) 4 3_455 ?
O1 O3 O1 79.837(16) 8_455 3_455 ?
O1 O3 O1 87.008(18) 7_556 3_455 ?
O2 O3 O1 60.020(15) 6_566 3_455 ?
O2 O3 O1 127.141(14) 5_565 3_455 ?
O2 O3 O1 98.96(2) . 3_455 ?
O2 O3 O1 53.671(13) 2 3_455 ?
Fe O3 O1 41.862(10) . 4 ?
Fe O3 O1 120.79(2) 2 4 ?
O2 O3 O1 147.279(15) 3_455 4 ?
O2 O3 O1 47.548(14) 4 4 ?
O1 O3 O1 87.008(18) 8_455 4 ?
O1 O3 O1 79.837(16) 7_556 4 ?
O2 O3 O1 127.141(14) 6_566 4 ?
O2 O3 O1 60.020(15) 5_565 4 ?
O2 O3 O1 53.672(13) . 4 ?
O2 O3 O1 98.96(2) 2 4 ?
O1 O3 O1 152.54(3) 3_455 4 ?
Fe O3 H 104.9(10) . . ?
Fe O3 H 109.8(10) 2 . ?
O2 O3 H 121.2(10) 3_455 . ?
O2 O3 H 19.4(10) 4 . ?
O1 O3 H 144.7(10) 8_455 . ?
O1 O3 H 76.7(10) 7_556 . ?
O2 O3 H 75.3(10) 6_566 . ?
O2 O3 H 89.3(10) 5_565 . ?
O2 O3 H 112.6(10) . . ?
O2 O3 H 137.2(10) 2 . ?
O1 O3 H 133.9(10) 3_455 . ?
O1 O3 H 66.1(10) 4 . ?
Fe O3 H 109.8(10) . 2 ?
Fe O3 H 104.9(10) 2 2 ?
O2 O3 H 19.4(10) 3_455 2 ?
O2 O3 H 121.2(10) 4 2 ?
O1 O3 H 76.7(10) 8_455 2 ?
O1 O3 H 144.7(10) 7_556 2 ?
O2 O3 H 89.3(10) 6_566 2 ?
O2 O3 H 75.3(10) 5_565 2 ?
O2 O3 H 137.2(10) . 2 ?
O2 O3 H 112.6(10) 2 2 ?
O1 O3 H 66.1(10) 3_455 2 ?
O1 O3 H 133.9(10) 4 2 ?
H O3 H 105(2) . 2 ?
loop_
_geom_bond_atom_site_label_1
_geom_bond_atom_site_label_2
_geom_bond_distance
_geom_bond_site_symmetry_2
_geom_bond_publ_flag
Fe O2 2.0546(5) . ?
Fe O2 2.0546(5) 5_565 ?
Fe O1 2.1088(5) 8_455 ?
Fe O1 2.1088(5) 4 ?
Fe O3 2.2217(4) 5_565 ?
Fe O3 2.2217(4) . ?
Fe O2 3.4679(6) 8_455 ?
Fe O2 3.4679(6) 4 ?
Fe O2 3.5018(6) 6_565 ?
Fe O2 3.5018(6) 2 ?
S O1 1.4657(5) 2 ?
S O1 1.4657(5) . ?
S O2 1.4901(5) . ?
S O2 1.4901(4) 2 ?
O1 O2 2.4041(7) . ?
O1 O1 2.4099(10) 2 ?
O1 O2 2.4220(7) 2 ?
O1 O2 2.8142(7) 4_545 ?
O1 O3 2.9693(7) 7_556 ?
O1 O2 3.0687(8) 8_556 ?
O1 O3 3.1542(6) 3_545 ?
O1 O3 3.2692(8) 1_545 ?
O1 O2 3.2961(7) 6_556 ?
O1 O2 3.3122(8) 7_556 ?
O2 O2 2.4174(9) 2 ?
O2 O3 2.7316(6) 3_545 ?
O2 O3 2.9734(6) 5_565 ?
O2 O3 3.0780(8) . ?
O3 H 0.850(15) . ?
O3 H 0.850(15) 2 ?
loop_
_geom_hbond_atom_site_label_D
_geom_hbond_atom_site_label_H
_geom_hbond_atom_site_label_A
_geom_hbond_distance_DH
_geom_hbond_distance_HA
_geom_hbond_distance_DA
_geom_hbond_angle_DHA
_geom_hbond_site_symmetry_A
_geom_hbond_publ_flag
O3 H O2 0.850(15) 1.950(15) 2.7316(6) 152.3(14) 4 yes
