#------------------------------------------------------------------------------
#$Date: 2021-11-16 11:37:53 +0200 (Tue, 16 Nov 2021) $
#$Revision: 270680 $
#$URL: file:///home/coder/svn-repositories/cod/cif/1/56/52/1565243.cif $
#------------------------------------------------------------------------------
#
# This file is available in the Crystallography Open Database (COD),
# http://www.crystallography.net/
#
# All data on this site have been placed in the public domain by the
# contributors.
#
data_1565243
loop_
_publ_author_name
'Ajibade, Peter A.'
'Fatokun, Amos A.'
'Andrew, Fartisincha P.'
_publ_section_title
;
 Synthesis, characterization and anti-cancer studies of Mn(II), Cu(II),
 Zn(II) and Pt(II) dithiocarbamate complexes - crystal structures of the
 Cu(II) and Pt(II) complexes
;
_journal_name_full               'Inorganica Chimica Acta'
_journal_page_first              119431
_journal_paper_doi               10.1016/j.ica.2020.119431
_journal_volume                  504
_journal_year                    2020
_chemical_formula_moiety         'C30 H28 Cu N2 O2 S4'
_chemical_formula_sum            'C30 H28 Cu N2 O2 S4'
_chemical_formula_weight         640.32
_space_group_crystal_system      triclinic
_space_group_IT_number           2
_space_group_name_Hall           '-P 1'
_space_group_name_H-M_alt        'P -1'
_atom_sites_solution_hydrogens   mixed
_cell_angle_alpha                69.535(4)
_cell_angle_beta                 89.651(4)
_cell_angle_gamma                71.724(4)
_cell_formula_units_Z            1
_cell_length_a                   7.1091(6)
_cell_length_b                   9.6797(7)
_cell_length_c                   13.6943(10)
_cell_measurement_reflns_used    5389
_cell_measurement_temperature    100(2)
_cell_measurement_theta_max      28.10
_cell_measurement_theta_min      3.04
_cell_volume                     832.65(12)
_computing_cell_refinement       'COSMO (Bruker, V1.61, 2009)'
_computing_data_collection       'COSMO (Bruker, V1.61, 2009)'
_computing_data_reduction        'SAINT (Bruker)'
_computing_molecular_graphics    'Olex2 (Dolomanov et al., 2009)'
_computing_publication_material  'Olex2 (Dolomanov et al., 2009)'
_computing_structure_refinement  'ShelXL (Sheldrick, 2015)'
_computing_structure_solution    'ShelXS-2013 (Sheldrick, 2008)'
_diffrn_ambient_temperature      100.01
_diffrn_detector                 'Bruker APEX2 area detector'
_diffrn_detector_area_resol_mean 7.9
_diffrn_detector_type            'CCD area detector'
_diffrn_measured_fraction_theta_full 0.997
_diffrn_measured_fraction_theta_max 0.989
_diffrn_measurement_device       'three-circle diffractometer'
_diffrn_measurement_device_type  'Bruker SMART APEX2 area detector'
_diffrn_measurement_method       '\w and \f scans'
_diffrn_radiation_monochromator  graphite
_diffrn_radiation_probe          x-ray
_diffrn_radiation_type           MoK\a
_diffrn_radiation_wavelength     0.71073
_diffrn_reflns_av_R_equivalents  0.0313
_diffrn_reflns_av_unetI/netI     0.0422
_diffrn_reflns_Laue_measured_fraction_full 0.997
_diffrn_reflns_Laue_measured_fraction_max 0.989
_diffrn_reflns_limit_h_max       9
_diffrn_reflns_limit_h_min       -9
_diffrn_reflns_limit_k_max       12
_diffrn_reflns_limit_k_min       -12
_diffrn_reflns_limit_l_max       18
_diffrn_reflns_limit_l_min       -16
_diffrn_reflns_number            15481
_diffrn_reflns_point_group_measured_fraction_full 0.997
_diffrn_reflns_point_group_measured_fraction_max 0.989
_diffrn_reflns_theta_full        25.242
_diffrn_reflns_theta_max         28.347
_diffrn_reflns_theta_min         1.598
_diffrn_source                   'sealed X-ray tube'
_diffrn_source_type              'sealed X-ray tube'
_diffrn_standards_number         0
_exptl_absorpt_coefficient_mu    0.934
_exptl_absorpt_correction_T_max  0.7457
_exptl_absorpt_correction_T_min  0.6958
_exptl_absorpt_correction_type   multi-scan
_exptl_absorpt_process_details
'SADABS-2012/1 (Bruker,2012) was used for absorption correction. wR2(int) was 0.1670 before and 0.0405 after correction. The Ratio of minimum to maximum transmission is 0.9331. The \l/2 correction factor is 0.0015.'
_exptl_crystal_colour            red
_exptl_crystal_colour_primary    red
_exptl_crystal_density_diffrn    1.277
_exptl_crystal_density_meas      .
_exptl_crystal_description       Plate-like
_exptl_crystal_F_000             331
_exptl_crystal_recrystallization_method
'The material was recrystallised from DCM by slow evaporation'
_exptl_crystal_size_max          0.33
_exptl_crystal_size_mid          0.26
_exptl_crystal_size_min          0.14
_refine_diff_density_max         0.394
_refine_diff_density_min         -0.316
_refine_diff_density_rms         0.071
_refine_ls_extinction_coef       .
_refine_ls_extinction_method     none
_refine_ls_goodness_of_fit_ref   0.996
_refine_ls_hydrogen_treatment    mixed
_refine_ls_matrix_type           full
_refine_ls_number_parameters     183
_refine_ls_number_reflns         4126
_refine_ls_number_restraints     0
_refine_ls_restrained_S_all      0.996
_refine_ls_R_factor_all          0.0510
_refine_ls_R_factor_gt           0.0362
_refine_ls_shift/su_max          0.000
_refine_ls_shift/su_mean         0.000
_refine_ls_structure_factor_coef Fsqd
_refine_ls_weighting_details
'w=1/[\s^2^(Fo^2^)+(0.0421P)^2^+0.5277P] where P=(Fo^2^+2Fc^2^)/3'
_refine_ls_weighting_scheme      calc
_refine_ls_wR_factor_gt          0.0862
_refine_ls_wR_factor_ref         0.0915
_reflns_Friedel_coverage         0.000
_reflns_Friedel_fraction_full    .
_reflns_Friedel_fraction_max     .
_reflns_number_gt                3267
_reflns_number_total             4126
_reflns_threshold_expression     'I > 2\s(I)'
_cod_data_source_file            ICA-2020-504-119431.cif
_cod_data_source_block           1
_cod_original_cell_volume        832.65(11)
_cod_database_code               1565243
_shelx_space_group_comment
;
The symmetry employed for this shelxl refinement is uniquely defined
by the following loop, which should always be used as a source of
symmetry information in preference to the above space-group names.
They are only intended as comments.
;
_shelx_estimated_absorpt_t_max   0.880
_shelx_estimated_absorpt_t_min   0.748
_olex2_refinement_description
;
1. Fixed Uiso
 At 1.2 times of:
  All C(H) groups, All C(H,H) groups
 At 1.5 times of:
  All C(H,H,H) groups
2.a Secondary CH2 refined with riding coordinates:
 C9(H9A,H9B)
2.b Aromatic/amide H refined with riding coordinates:
 C3(H3), C4(H4), C7(H7), C8(H8), C11(H11), C12(H12), C13(H13), C14(H14)
2.c Idealised Me refined as rotating group:
 C6(H6A,H6B,H6C)
;
_shelx_res_file
;
TITL mo_PA_FA_CuL5_0m in P-1
    mo_pa_fa_cul5_0m.res
    created by SHELXL-2016/6 at 14:03:29 on 29-Nov-2018
CELL 0.71073 7.1091 9.6797 13.6943 69.535 89.651 71.724
ZERR 1 0.0006 0.0007 0.001 0.004 0.004 0.004
LATT 1
SFAC C H Cu N O S
UNIT 30 28 1 2 2 4
EQIV $1 -X,1-Y,-Z
EQIV $2 1-X,-Y,-Z
EQIV $3 +X,-1+Y,+Z

L.S. 12
PLAN  14
SIZE 0.14 0.26 0.33
TEMP -173.14
HTAB C3 S1_$1
HTAB C9 S1
HTAB C14 S1_$2
HTAB C14 S2_$3
HTAB O1 S1_$2
ABIN
HTAB 2.00000
BOND $H
CONF
fmap 2
acta
MERG 2
OMIT 0 1 0
OMIT 1 4 4
REM <olex2.extras>
REM <HklSrc "%.\\mo_PA_FA_CuL5_0m.hkl">
REM </olex2.extras>

WGHT    0.042100    0.527700
FVAR       0.19987
CU1   3    0.500000    0.500000    0.000000    10.50000    0.02537    0.01184 =
         0.01783   -0.00483    0.00956   -0.00730
S1    6    0.297062    0.378458   -0.041301    11.00000    0.02938    0.01671 =
         0.01532   -0.00469    0.00801   -0.00994
S2    6    0.444073    0.353369    0.162647    11.00000    0.02854    0.01665 =
         0.01787   -0.00669    0.00826   -0.01161
O1    5    0.380846   -0.046458    0.085067    11.00000    0.02085    0.02004 =
         0.02864   -0.01073    0.01316   -0.00662
N1    4    0.170465    0.227824    0.138273    11.00000    0.02077    0.01388 =
         0.01278   -0.00470    0.00500   -0.00520
C1    1    0.288345    0.306876    0.092813    11.00000    0.02225    0.01066 =
         0.01849   -0.00581    0.00672   -0.00317
C2    1    0.165990    0.181931    0.250120    11.00000    0.02208    0.01954 =
         0.01533   -0.00577    0.00647   -0.01211
C3    1    0.029239    0.279369    0.289989    11.00000    0.02775    0.03872 =
         0.02504   -0.01416    0.00777   -0.00612
AFIX  43
H3    2   -0.066288    0.373298    0.243946    11.00000   -1.20000
AFIX   0
C4    1    0.032755    0.238798    0.397718    11.00000    0.03436    0.06773 =
         0.03055   -0.02918    0.01545   -0.01678
AFIX  43
H4    2   -0.061131    0.306070    0.424933    11.00000   -1.20000
AFIX   0
C5    1    0.170170    0.102278    0.466648    11.00000    0.03936    0.06065 =
         0.01888   -0.01249    0.00910   -0.03879
C6    1    0.174847    0.064483    0.583715    11.00000    0.06068    0.10332 =
         0.01949   -0.02154    0.01377   -0.06188
AFIX 137
H6A   2    0.225111    0.136483    0.602363    11.00000   -1.50000
H6B   2    0.262664   -0.043201    0.620966    11.00000   -1.50000
H6C   2    0.039794    0.075680    0.603662    11.00000   -1.50000
AFIX   0
C7    1    0.301416    0.004446    0.424807    11.00000    0.04640    0.03067 =
         0.01969   -0.00168   -0.00472   -0.02371
AFIX  43
H7    2    0.393500   -0.091531    0.470771    11.00000   -1.20000
AFIX   0
C8    1    0.301517    0.043477    0.317020    11.00000    0.03175    0.01921 =
         0.02222   -0.00664   -0.00109   -0.01131
AFIX  43
H8    2    0.393917   -0.024434    0.289654    11.00000   -1.20000
AFIX   0
C9    1    0.031901    0.192269    0.077560    11.00000    0.01953    0.01895 =
         0.01742   -0.00618    0.00262   -0.00617
AFIX  23
H9A   2    0.061967    0.219485    0.003875    11.00000   -1.20000
H9B   2   -0.106643    0.257631    0.077657    11.00000   -1.20000
AFIX   0
C10   1    0.047921    0.022842    0.122133    11.00000    0.02124    0.01793 =
         0.01511   -0.00792    0.00455   -0.00686
C11   1   -0.115930   -0.019981    0.158326    11.00000    0.02176    0.02640 =
         0.01962   -0.01329    0.00789   -0.00957
AFIX  43
H11   2   -0.237693    0.058658    0.156416    11.00000   -1.20000
AFIX   0
C12   1   -0.105047   -0.175655    0.197261    11.00000    0.03523    0.03291 =
         0.02782   -0.01887    0.01660   -0.02325
AFIX  43
H12   2   -0.218413   -0.203498    0.221460    11.00000   -1.20000
AFIX   0
C13   1    0.073216   -0.289947    0.200396    11.00000    0.04666    0.02240 =
         0.02634   -0.01278    0.01369   -0.01963
AFIX  43
H13   2    0.082406   -0.396867    0.227737    11.00000   -1.20000
AFIX   0
C14   1    0.237895   -0.249725    0.164066    11.00000    0.03080    0.01861 =
         0.02312   -0.01163    0.00664   -0.00608
AFIX  43
H14   2    0.360048   -0.328699    0.167032    11.00000   -1.20000
AFIX   0
C15   1    0.223790   -0.093593    0.123307    11.00000    0.02021    0.01996 =
         0.01475   -0.00793    0.00553   -0.00778
H1    2    0.462006   -0.109345    0.074139    11.00000    0.04571
HKLF 4




REM  mo_PA_FA_CuL5_0m in P-1
REM R1 =  0.0362 for    3267 Fo > 4sig(Fo)  and  0.0510 for all    4126 data
REM    183 parameters refined using      0 restraints

END

WGHT      0.0427      0.3832

REM Instructions for potential hydrogen bonds
HTAB C3 S1_$1
HTAB C9 S1
HTAB C14 S1_$2
HTAB C14 S2_$3
HTAB O1 S1_$2

REM Highest difference peak  0.394,  deepest hole -0.316,  1-sigma level  0.071
Q1    1   0.0484  0.1025  0.1058  11.00000  0.05    0.39
Q2    1  -0.0797 -0.1060  0.1911  11.00000  0.05    0.37
Q3    1   0.1087  0.2211  0.2798  11.00000  0.05    0.34
Q4    1   0.2491  0.0625  0.4463  11.00000  0.05    0.33
Q5    1   0.1147  0.2146  0.1040  11.00000  0.05    0.33
Q6    1   0.3661  0.3176  0.1349  11.00000  0.05    0.31
Q7    1   0.2312  0.1323  0.2803  11.00000  0.05    0.31
Q8    1   0.1720  0.2149  0.1948  11.00000  0.05    0.30
Q9    1   0.4128  0.2968  0.2382  11.00000  0.05    0.30
Q10   1   0.4313  0.4638  0.1578  11.00000  0.05    0.29
Q11   1   0.2187 -0.1712  0.1591  11.00000  0.05    0.28
Q12   1   0.1134  0.1822  0.4246  11.00000  0.05    0.27
Q13   1   0.3878  0.4550 -0.0259  11.00000  0.05    0.27
Q14   1  -0.0020 -0.0064  0.1526  11.00000  0.05    0.26
;
_shelx_res_checksum              33504
_shelx_hkl_file
;
  -1   0   0   31.36    0.88
  -1   0   0   31.02    0.76
  -1   0   0   31.73    0.80
  -1   0   0   30.90    0.83
   1   0   0   31.38    0.83
   1   0   0   30.06    0.86
   1   0   0   32.45    0.76
   1   0   0   30.77    0.80
  -2   0   0   13.40    0.57
  -2   0   0   13.09    0.65
  -2   0   0   12.66    0.56
  -2   0   0   12.93    0.53
  -2   0   0   12.72    0.58
   2   0   0   12.62    0.54
   2   0   0   12.49    0.61
   2   0   0   13.02    0.69
   2   0   0   13.57    0.63
  -3   0   0    1.15    0.29
  -3   0   0    1.50    0.36
  -3   0   0    1.33    0.27
  -3   0   0    1.01    0.26
  -3   0   0    1.68    0.32
   3   0   0    0.93    0.26
   3   0   0    1.50    0.30
   3   0   0    1.77    0.42
   3   0   0    0.99    0.33
   3   0   0    0.67    0.25
  -4   0   0   14.14    0.99
  -4   0   0   13.17    0.80
  -4   0   0   14.02    0.76
  -4   0   0   14.46    0.85
  -4   0   0   14.40    0.79
   4   0   0   13.21    0.73
   4   0   0   15.45    0.89
   4   0   0   13.55    0.78
   4   0   0   13.06    0.99
   4   0   0   13.45    0.89
  -5   0   0   12.67    1.20
  -5   0   0   13.11    0.89
  -5   0   0   14.79    0.98
  -5   0   0   13.39    0.96
  -5   0   0   14.11    0.87
   5   0   0   14.59    0.85
   5   0   0   13.50    1.19
   5   0   0   13.18    1.15
   5   0   0   15.40    1.03
   5   0   0   12.95    0.89
  -6   0   0    8.25    0.86
  -6   0   0    6.79    0.79
   6   0   0    6.27    0.96
   6   0   0    8.19    1.09
  -7   0   0    0.28    0.40
   7   0   0   -0.10    0.61
  -8   0   0    0.64    0.49
   8   0   0   -0.26    0.62
   8  -1   0    4.19    1.10
  -8   1   0    2.38    0.63
   7  -1   0   11.54    1.40
  -7   1   0   13.72    1.18
   6  -1   0   15.70    1.49
   6  -1   0   16.97    1.46
  -6   1   0   16.38    1.06
   5  -1   0   25.72    1.27
   5  -1   0   26.90    1.50
  -5   1   0   24.56    1.17
  -5   1   0   25.42    1.25
  -5   1   0   27.70    1.57
  -5   1   0   25.76    1.36
  -5   1   0   25.24    1.28
   4  -1   0   20.21    1.18
   4  -1   0   17.54    0.93
   4  -1   0   18.03    0.95
   4  -1   0   16.84    0.86
  -4   1   0   18.01    1.01
  -4   1   0   20.37    1.15
  -4   1   0   16.93    0.92
  -4   1   0   18.71    0.90
  -4   1   0   19.60    0.95
   3  -1   0   26.76    0.98
   3  -1   0   27.47    1.02
   3  -1   0   26.72    1.20
   3  -1   0   28.06    1.04
   3  -1   0   24.09    1.07
   3  -1   0   25.08    0.96
  -3   1   0   24.69    0.96
  -3   1   0   25.49    0.97
  -3   1   0   25.81    1.06
  -3   1   0   26.77    0.96
  -3   1   0   24.93    1.11
   2  -1   0   89.29    2.16
   2  -1   0   89.59    2.16
   2  -1   0   87.96    2.15
   2  -1   0   89.50    2.07
   2  -1   0   87.89    2.08
  -2   1   0   89.12    2.20
  -2   1   0   87.27    2.03
  -2   1   0   84.43    2.07
  -2   1   0   91.71    2.21
  -2   1   0   88.78    2.05
  -2   1   0   89.91    2.06
   1  -1   0  971.20   19.12
   1  -1   0  986.11   19.44
   1  -1   0  982.25   19.18
   1  -1   0  983.12   20.03
  -1   1   0  964.67   20.00
  -1   1   0 1000.00   18.75
  -1   1   0  960.04   18.57
  -1   1   0  934.61   19.49
  -1   1   0  963.26   18.81
  -1   1   0  965.91   18.50
   0  -1   0    9.62    0.31
   0  -1   0    9.24    0.30
   0  -1   0    9.11    0.32
   0  -1   0   10.05    0.28
   0  -1   0    9.77    0.33
   0   1   0    9.49    0.31
   0   1   0   10.05    0.34
   0   1   0    9.13    0.33
   0   1   0    9.99    0.26
  -1  -1   0   45.55    1.03
  -1  -1   0   45.88    1.18
  -1  -1   0   45.30    1.06
  -1  -1   0   45.22    1.17
   1   1   0   46.44    1.06
   1   1   0   45.84    1.03
   1   1   0   47.07    1.02
   1   1   0   45.78    1.16
   1   1   0   47.13    1.18
   1   1   0   48.62    1.06
  -2  -1   0  105.02    2.56
  -2  -1   0  101.89    2.52
  -2  -1   0  102.31    2.39
  -2  -1   0  105.35    2.28
  -2  -1   0  105.72    2.37
  -2  -1   0  106.66    2.34
   2   1   0  106.99    2.28
   2   1   0  109.38    2.36
   2   1   0  101.75    2.50
   2   1   0  105.44    2.27
   2   1   0  104.89    2.51
   2   1   0  104.57    2.36
  -3  -1   0    4.00    0.43
  -3  -1   0    2.99    0.37
  -3  -1   0    2.91    0.34
  -3  -1   0    3.11    0.41
  -3  -1   0    3.37    0.56
  -3  -1   0    2.77    0.44
   3   1   0    2.45    0.39
   3   1   0    3.26    0.37
   3   1   0    2.74    0.35
   3   1   0    3.21    0.44
   3   1   0    3.19    0.50
  -4  -1   0   32.93    1.17
  -4  -1   0   36.69    1.36
  -4  -1   0   33.63    1.48
  -4  -1   0   34.91    1.31
  -4  -1   0   33.74    1.23
   4   1   0   36.89    1.28
   4   1   0   35.07    1.39
   4   1   0   34.83    1.49
   4   1   0   33.47    1.31
   4   1   0   33.60    1.18
  -5  -1   0   20.04    1.31
  -5  -1   0   22.66    1.17
  -5  -1   0   18.99    0.98
  -5  -1   0   18.93    1.04
  -5  -1   0   18.72    1.08
   5   1   0   21.47    1.00
   5   1   0   20.06    1.31
   5   1   0   18.84    1.03
   5   1   0   18.85    1.15
   5   1   0   20.53    1.16
  -6  -1   0    0.18    0.34
  -6  -1   0    0.20    0.39
   6   1   0    0.41    0.63
   6   1   0    0.06    0.31
   6   1   0    0.55    0.42
   6   1   0   -0.13    0.47
  -7  -1   0   10.47    1.03
   7   1   0   12.39    1.29
  -8  -1   0    6.04    0.87
   8   1   0    7.16    1.14
  -9  -1   0    0.02    0.47
   9   1   0    0.97    0.73
   8  -2   0    3.86    1.05
  -8   2   0    3.80    0.72
   7  -2   0    5.97    1.08
  -7   2   0    7.03    0.86
   6  -2   0   14.41    1.42
   6  -2   0   14.73    1.46
  -6   2   0   16.78    1.31
  -6   2   0   14.17    0.97
   5  -2   0   28.56    1.64
   5  -2   0   28.41    1.60
  -5   2   0   27.81    1.64
  -5   2   0   29.42    1.27
  -5   2   0   27.13    1.37
   4  -2   0    0.61    0.28
   4  -2   0    0.87    0.44
   4  -2   0    0.62    0.46
  -4   2   0   -0.16    0.27
  -4   2   0    0.62    0.30
  -4   2   0    0.43    0.40
  -4   2   0    0.57    0.35
  -4   2   0    0.18    0.28
   3  -2   0    2.49    0.40
   3  -2   0    1.74    0.43
   3  -2   0    2.28    0.37
   3  -2   0    1.72    0.35
   3  -2   0    2.45    0.39
   3  -2   0    1.68    0.44
  -3   2   0    2.03    0.42
  -3   2   0    2.22    0.37
  -3   2   0    1.59    0.36
  -3   2   0    1.76    0.32
  -3   2   0    1.87    0.33
  -3   2   0    1.91    0.38
   2  -2   0  262.45    5.37
   2  -2   0  264.16    5.45
   2  -2   0  256.75    5.44
   2  -2   0  262.58    5.51
   2  -2   0  256.31    5.55
  -2   2   0  250.81    5.52
  -2   2   0  253.64    5.25
  -2   2   0  245.23    5.57
  -2   2   0  251.62    5.20
  -2   2   0  254.30    5.38
   1  -2   0  417.79    8.43
   1  -2   0  416.90    8.24
   1  -2   0  418.63    8.35
   1  -2   0  413.55    8.31
  -1   2   0  414.96    8.48
  -1   2   0  413.55    8.02
  -1   2   0  414.57    8.38
  -1   2   0  414.50    8.25
  -1   2   0  411.62    8.05
   0  -2   0   43.16    1.14
   0  -2   0   43.67    1.05
   0  -2   0   46.72    1.16
   0  -2   0   42.60    1.09
   0   2   0   44.58    1.07
   0   2   0   46.09    1.19
   0   2   0   46.56    1.01
   0   2   0   46.22    1.16
   0   2   0   44.08    1.14
   0   2   0   45.99    1.00
  -1  -2   0  111.96    2.32
  -1  -2   0  110.46    2.53
  -1  -2   0  109.18    2.49
  -1  -2   0  110.87    2.35
   1   2   0  111.97    2.36
   1   2   0  115.40    2.57
   1   2   0  113.85    2.27
   1   2   0  112.67    2.48
   1   2   0  108.45    2.27
  -2  -2   0  248.41    5.13
  -2  -2   0  246.66    4.99
  -2  -2   0  246.73    5.37
   2   2   0  247.20    5.36
   2   2   0  244.96    4.95
   2   2   0  248.08    5.25
   2   2   0  249.92    4.99
   2   2   0  252.55    5.13
  -3  -2   0   10.16    0.73
  -3  -2   0   10.28    0.85
  -3  -2   0   10.19    0.62
  -3  -2   0   10.03    0.55
  -3  -2   0    8.54    0.49
  -3  -2   0    9.62    0.67
   3   2   0   10.22    0.56
   3   2   0    9.94    0.70
   3   2   0   10.02    0.75
   3   2   0    8.82    0.60
   3   2   0    9.82    0.52
  -4  -2   0    0.42    0.23
  -4  -2   0    1.27    0.38
  -4  -2   0    0.04    0.36
  -4  -2   0    0.91    0.27
  -4  -2   0    0.88    0.49
  -4  -2   0    0.97    0.33
   4   2   0    1.13    0.39
   4   2   0    0.88    0.27
   4   2   0    0.96    0.30
   4   2   0    0.17    0.28
   4   2   0    1.32    0.47
  -5  -2   0    3.40    0.60
  -5  -2   0    2.50    0.42
  -5  -2   0    4.05    0.60
  -5  -2   0    3.30    0.70
   5   2   0    3.28    0.52
   5   2   0    2.90    0.58
   5   2   0    2.58    0.65
   5   2   0    3.79    0.52
   5   2   0    3.34    0.60
  -6  -2   0    0.16    0.33
   6   2   0   -0.08    0.31
   6   2   0    0.12    0.30
   6   2   0   -0.39    0.46
  -7  -2   0    6.84    0.86
  -7  -2   0    7.68    0.98
   7   2   0    6.56    1.00
  -8  -2   0    3.24    0.69
   8   2   0    2.36    0.78
  -9  -2   0    2.34    0.73
   9   2   0    1.59    0.81
  -7   3   0    6.42    0.83
   6  -3   0   27.30    1.85
   6  -3   0   28.74    1.95
  -6   3   0   28.14    1.35
  -6   3   0   30.36    1.69
   5  -3   0    0.82    0.57
   5  -3   0    0.67    0.67
  -5   3   0   -0.15    0.29
  -5   3   0    0.51    0.60
  -5   3   0    0.15    0.30
   4  -3   0    0.64    0.55
   4  -3   0    0.25    0.42
  -4   3   0    0.13    0.29
  -4   3   0    0.32    0.42
  -4   3   0    0.38    0.29
  -4   3   0   -0.14    0.31
   3  -3   0   59.48    1.97
   3  -3   0   54.63    1.77
   3  -3   0   56.85    1.77
   3  -3   0   56.62    1.75
  -3   3   0   56.82    1.71
  -3   3   0   53.51    1.69
  -3   3   0   56.87    1.80
  -3   3   0   60.46    1.93
  -3   3   0   56.73    1.60
   2  -3   0   63.18    1.94
   2  -3   0   66.65    1.82
   2  -3   0   66.95    1.94
   2  -3   0   62.83    1.76
   2  -3   0   66.58    1.85
  -2   3   0   65.01    1.84
  -2   3   0   65.84    1.97
  -2   3   0   65.46    1.70
  -2   3   0   64.53    1.64
  -2   3   0   65.47    1.86
   1  -3   0   19.27    0.83
   1  -3   0   19.65    0.79
   1  -3   0   20.53    0.79
   1  -3   0   20.70    0.72
  -1   3   0   20.64    0.76
  -1   3   0   18.56    0.85
  -1   3   0   20.26    0.83
  -1   3   0   19.63    0.67
  -1   3   0   19.74    0.79
  -1   3   0   21.08    0.67
   0  -3   0   34.78    1.07
   0  -3   0   36.58    0.96
   0  -3   0   38.57    1.06
   0  -3   0   37.45    1.12
   0   3   0   37.31    1.18
   0   3   0   37.02    1.00
   0   3   0   38.09    0.90
   0   3   0   39.27    0.94
   0   3   0   34.23    1.04
   0   3   0   35.31    0.92
   0   3   0   37.34    1.12
  -1  -3   0   59.13    1.60
  -1  -3   0   59.25    1.59
  -1  -3   0   59.38    1.39
  -1  -3   0   58.81    1.40
   1   3   0   59.16    1.65
   1   3   0   60.60    1.33
   1   3   0   56.86    1.40
   1   3   0   58.21    1.57
   1   3   0   59.98    1.30
   1   3   0   59.20    1.35
  -2  -3   0    1.04    0.19
  -2  -3   0    0.73    0.29
  -2  -3   0    0.97    0.34
  -2  -3   0    1.23    0.20
   2   3   0    0.94    0.22
   2   3   0    1.30    0.22
   2   3   0    0.64    0.30
   2   3   0    1.31    0.21
   2   3   0    1.01    0.33
  -3  -3   0  135.12    3.37
  -3  -3   0  132.38    3.39
  -3  -3   0  133.63    3.09
  -3  -3   0  127.07    2.90
  -3  -3   0  132.89    3.02
   3   3   0  127.41    2.90
   3   3   0  127.79    3.25
   3   3   0  131.04    3.33
   3   3   0  129.42    2.93
   3   3   0  130.13    3.01
  -4  -3   0   26.45    1.13
  -4  -3   0   24.28    1.26
  -4  -3   0   25.22    1.38
  -4  -3   0   26.64    1.03
  -4  -3   0   25.14    0.96
   4   3   0   26.89    1.29
   4   3   0   23.18    1.03
   4   3   0   25.18    1.01
   4   3   0   25.45    1.22
   4   3   0   23.11    0.94
  -5  -3   0    1.03    0.32
  -5  -3   0    1.51    0.45
  -5  -3   0    0.83    0.49
   5   3   0    0.89    0.50
   5   3   0    0.94    0.33
   5   3   0    0.70    0.46
   5   3   0    1.54    0.39
   5   3   0    0.43    0.39
  -6  -3   0    3.06    0.62
  -6  -3   0    2.57    0.50
   6   3   0    2.07    0.61
   6   3   0    2.50    0.47
   6   3   0    1.65    0.44
  -7  -3   0   13.53    1.06
   7   3   0   13.81    0.99
   7   3   0   14.69    1.27
   7   3   0   10.87    1.04
  -8  -3   0    8.54    1.09
   8   3   0    9.54    1.18
  -9  -3   0    6.55    1.03
   9   3   0    3.92    0.96
  -7   4   0    2.33    0.59
   6  -4   0    0.27    0.75
  -6   4   0    0.26    0.37
   5  -4   0    0.72    0.63
  -5   4   0    0.57    0.61
  -5   4   0    1.31    0.50
  -5   4   0    0.91    0.38
   4  -4   0    4.17    0.98
   4  -4   0    4.63    0.76
  -4   4   0    5.51    0.65
  -4   4   0    4.59    0.76
  -4   4   0    5.19    0.66
  -4   4   0    4.95    0.54
   3  -4   0   14.71    1.05
   3  -4   0   16.66    1.17
  -3   4   0   15.48    0.77
  -3   4   0   15.10    1.06
  -3   4   0   16.24    0.87
  -3   4   0   15.54    1.02
   2  -4   0   19.90    1.09
   2  -4   0   22.36    1.09
   2  -4   0   20.34    0.95
   2  -4   0   22.51    1.01
  -2   4   0   22.42    1.00
  -2   4   0   22.66    1.12
  -2   4   0   20.66    0.79
  -2   4   0   21.16    0.86
  -2   4   0   21.45    1.03
   1  -4   0    0.15    0.17
   1  -4   0    0.24    0.31
   1  -4   0    0.46    0.26
   1  -4   0    0.10    0.22
   1  -4   0    0.39    0.18
   1  -4   0    0.12    0.25
  -1   4   0    0.30    0.24
  -1   4   0    0.29    0.23
  -1   4   0    0.16    0.15
  -1   4   0    0.02    0.17
  -1   4   0   -0.17    0.27
  -1   4   0   -0.03    0.22
  -1   4   0    0.13    0.18
   0  -4   0   10.12    0.60
   0  -4   0   10.19    0.57
   0  -4   0    9.52    0.56
   0  -4   0   10.91    0.66
   0  -4   0   10.45    0.48
   0   4   0   10.45    0.70
   0   4   0    9.82    0.55
   0   4   0   10.74    0.67
   0   4   0   10.52    0.46
   0   4   0   10.42    0.42
   0   4   0    9.88    0.51
   0   4   0   10.43    0.46
  -1  -4   0   58.11    1.73
  -1  -4   0   60.86    1.48
  -1  -4   0   60.42    1.68
  -1  -4   0   55.32    1.50
  -1  -4   0   61.64    1.68
   1   4   0   61.47    1.70
   1   4   0   60.97    1.31
   1   4   0   59.24    1.44
   1   4   0   58.71    1.50
   1   4   0   59.99    1.81
   1   4   0   64.57    1.34
  -2  -4   0   37.04    1.08
  -2  -4   0   37.54    1.08
  -2  -4   0   35.56    1.35
  -2  -4   0   37.23    1.33
   2   4   0   37.00    1.03
   2   4   0   38.06    1.32
   2   4   0   37.64    1.09
   2   4   0   37.55    0.98
   2   4   0   38.46    1.02
   2   4   0   37.92    1.41
  -3  -4   0    0.36    0.19
  -3  -4   0    0.77    0.42
  -3  -4   0    0.26    0.29
  -3  -4   0    0.28    0.19
  -3  -4   0    0.08    0.31
   3   4   0    0.60    0.24
   3   4   0    0.33    0.18
   3   4   0    0.41    0.33
   3   4   0    0.34    0.20
   3   4   0    0.28    0.28
   3   4   0    0.65    0.38
  -4  -4   0   25.10    0.99
  -4  -4   0   26.77    1.33
  -4  -4   0   29.27    1.23
  -4  -4   0   27.12    1.47
   4   4   0   27.37    1.34
   4   4   0   26.24    1.05
   4   4   0   25.44    1.03
   4   4   0   27.47    1.01
   4   4   0   28.74    1.37
  -5  -4   0   22.68    1.36
  -5  -4   0   23.22    1.01
  -5  -4   0   26.46    1.27
   5   4   0   21.73    1.09
   5   4   0   22.95    1.36
   5   4   0   21.12    1.05
   5   4   0   23.63    1.34
   5   4   0   20.03    0.98
  -6  -4   0   40.48    1.73
  -6  -4   0   39.67    1.54
   6   4   0   39.90    1.64
   6   4   0   40.59    1.64
   6   4   0   40.88    1.55
  -7  -4   0   31.55    1.52
   7   4   0   27.29    1.52
   7   4   0   33.40    1.62
   7   4   0   30.53    1.45
   8   4   0    7.28    1.02
   9   4   0    1.30    0.73
  -6   5   0    2.06    0.55
   5  -5   0    0.56    0.73
  -5   5   0    1.70    0.45
  -5   5   0    1.97    0.66
   4  -5   0    2.61    0.73
  -4   5   0    2.10    0.67
  -4   5   0    1.24    0.39
  -4   5   0    2.64    0.60
  -4   5   0    2.32    0.55
   3  -5   0   12.23    1.13
  -3   5   0   13.10    0.84
  -3   5   0   14.05    1.05
  -3   5   0   13.54    0.92
  -3   5   0   12.41    0.74
   2  -5   0   -0.23    0.29
   2  -5   0    0.51    0.37
  -2   5   0    0.14    0.26
  -2   5   0    0.08    0.28
  -2   5   0    0.49    0.36
  -2   5   0    0.03    0.22
  -2   5   0    0.22    0.22
   1  -5   0   -0.07    0.23
   1  -5   0    0.08    0.26
   1  -5   0    0.13    0.19
   1  -5   0    0.14    0.35
   1  -5   0    0.23    0.29
  -1   5   0    0.04    0.35
  -1   5   0    0.06    0.16
  -1   5   0    0.10    0.20
  -1   5   0   -0.06    0.29
  -1   5   0    0.15    0.19
  -1   5   0    0.30    0.24
  -1   5   0    0.02    0.24
   0  -5   0   10.48    0.63
   0  -5   0    9.66    0.62
   0  -5   0   10.78    0.70
   0   5   0   11.38    0.45
   0   5   0    9.57    0.74
   0   5   0   10.47    0.58
   0   5   0   10.06    0.51
   0   5   0   11.56    0.82
   0   5   0   11.05    0.42
  -1  -5   0   29.01    0.98
  -1  -5   0   29.77    1.09
  -1  -5   0   28.37    0.90
  -1  -5   0   30.19    1.22
   1   5   0   27.50    0.60
   1   5   0   29.92    1.17
   1   5   0   28.57    1.26
   1   5   0   28.54    0.88
   1   5   0   28.14    0.95
  -2  -5   0   74.96    2.13
  -2  -5   0   72.09    1.85
  -2  -5   0   73.04    2.21
  -2  -5   0   72.87    1.83
   2   5   0   75.76    1.57
   2   5   0   74.35    1.88
   2   5   0   69.39    2.25
   2   5   0   72.45    1.79
   2   5   0   72.70    2.11
  -3  -5   0   73.11    2.33
  -3  -5   0   68.41    1.85
  -3  -5   0   69.13    2.21
   3   5   0   70.29    1.89
   3   5   0   71.80    1.68
   3   5   0   71.03    1.73
   3   5   0   71.81    2.18
   3   5   0   74.62    2.36
   3   5   0   70.44    1.82
  -4  -5   0   67.21    2.32
  -4  -5   0   68.54    2.44
  -4  -5   0   66.44    2.13
  -4  -5   0   67.16    1.90
   4   5   0   70.60    1.95
   4   5   0   64.71    1.83
   4   5   0   70.22    1.91
   4   5   0   66.65    2.35
   4   5   0   71.78    2.30
   4   5   0   67.42    1.79
  -5  -5   0   16.12    0.87
   5   5   0   16.38    0.92
   5   5   0   14.94    0.84
   5   5   0   17.46    0.95
  -6  -5   0   17.74    1.02
   6   5   0   16.47    0.96
   6   5   0   16.65    1.07
   6   5   0   16.18    1.05
  -7  -5   0    5.95    0.80
   7   5   0    5.97    0.76
   7   5   0    7.40    0.91
   7   5   0    5.05    0.80
  -8  -5   0    5.12    0.84
   8   5   0    5.34    0.87
   8   5   0    6.35    0.96
   9   5   0    0.45    0.72
  -6   6   0    2.87    0.59
   5  -6   0    1.19    0.75
   5  -6   0    2.73    0.88
  -5   6   0    1.49    0.46
  -5   6   0    1.21    0.61
   4  -6   0    6.22    1.00
   4  -6   0    5.63    1.01
  -4   6   0    6.10    0.62
  -4   6   0    6.64    0.86
  -4   6   0    5.32    0.81
   3  -6   0    6.41    0.85
   3  -6   0    9.29    1.03
  -3   6   0    8.51    0.93
  -3   6   0    8.78    0.97
  -3   6   0    8.35    0.86
  -3   6   0    7.49    0.77
  -3   6   0    9.72    0.63
   2  -6   0   27.41    1.38
   2  -6   0   25.93    1.35
  -2   6   0   24.52    1.24
  -2   6   0   24.51    1.09
  -2   6   0   26.63    1.22
  -2   6   0   24.98    0.88
   1  -6   0    2.18    0.47
  -1   6   0    2.37    0.38
  -1   6   0    1.98    0.26
  -1   6   0    2.47    0.43
  -1   6   0    1.74    0.29
  -1   6   0    1.62    0.38
   0  -6   0    6.57    0.62
   0  -6   0    5.14    0.64
   0  -6   0    7.52    0.66
   0   6   0    7.04    0.57
   0   6   0    6.87    0.74
   0   6   0    7.36    0.81
   0   6   0    7.30    0.49
  -1  -6   0   71.74    2.07
  -1  -6   0   72.12    1.96
  -1  -6   0   72.71    2.24
   1   6   0   74.98    1.96
   1   6   0   74.84    2.40
   1   6   0   69.01    1.80
   1   6   0   72.07    2.17
  -2  -6   0   29.50    1.24
  -2  -6   0   31.96    1.12
  -2  -6   0   32.73    1.45
   2   6   0   34.20    1.40
   2   6   0   30.98    1.02
   2   6   0   32.55    1.50
   2   6   0   32.76    1.11
  -3  -6   0   27.33    1.28
  -3  -6   0   27.87    1.45
  -3  -6   0   28.55    1.06
   3   6   0   29.67    1.35
   3   6   0   28.45    1.00
   3   6   0   28.19    1.06
   3   6   0   24.36    1.38
  -4  -6   0    4.32    0.50
   4   6   0    4.59    0.75
   4   6   0    4.84    0.42
   4   6   0    3.30    0.43
   4   6   0    3.50    0.47
   4   6   0    3.95    0.42
  -5  -6   0   62.06    1.93
   5   6   0   64.16    1.98
   5   6   0   62.11    1.88
   5   6   0   58.50    1.74
  -6  -6   0   17.60    1.03
   6   6   0   16.38    0.99
   6   6   0   16.16    1.07
   6   6   0   14.50    0.95
  -7  -6   0    4.97    0.76
   7   6   0    4.69    0.72
   7   6   0    4.02    0.69
  -8  -6   0    0.74    0.54
   8   6   0    0.45    0.46
   8   6   0    1.13    0.60
   9   6   0    1.15    0.73
   5  -7   0    2.89    0.95
   5  -7   0    3.19    1.04
  -5   7   0    3.48    0.52
  -5   7   0    3.52    0.88
   4  -7   0    8.18    1.20
   4  -7   0    5.87    1.01
  -4   7   0    6.19    0.91
  -4   7   0    5.98    0.90
  -4   7   0    6.49    0.58
   3  -7   0    9.30    1.08
   3  -7   0    8.02    1.06
  -3   7   0   10.03    0.58
  -3   7   0    9.44    0.95
   2  -7   0    0.37    0.43
  -2   7   0    0.40    0.21
  -2   7   0   -0.15    0.31
  -2   7   0   -0.14    0.38
  -2   7   0    0.28    0.38
   1  -7   0   20.52    1.17
  -1   7   0   21.03    1.07
  -1   7   0   20.27    0.96
  -1   7   0   19.45    1.07
   0  -7   0   26.74    1.18
   0   7   0   24.30    1.09
   0   7   0   23.14    0.96
  -1  -7   0   28.05    1.13
   1   7   0   24.85    0.95
   1   7   0   26.01    1.08
  -2  -7   0   37.00    1.30
   2   7   0   35.19    1.26
   2   7   0   34.51    1.16
  -3  -7   0   31.27    1.19
   3   7   0   30.75    1.18
   3   7   0   30.20    1.10
  -4  -7   0   12.28    0.78
   4   7   0   12.59    0.80
   4   7   0   14.03    0.76
  -5  -7   0    2.12    0.46
   5   7   0    1.73    0.29
   5   7   0    1.26    0.40
   5   7   0    2.14    0.35
   5   7   0    1.89    0.42
  -6  -7   0    2.94    0.56
   6   7   0    1.78    0.42
   6   7   0    2.08    0.53
   6   7   0    1.34    0.45
  -7  -7   0    1.37    0.50
   7   7   0    1.60    0.48
   7   7   0    1.27    0.49
  -8  -7   0    4.69    0.87
   8   7   0    4.45    0.73
   8   7   0    3.35    0.70
   9   7   0    0.12    0.59
   4  -8   0   14.18    1.48
  -4   8   0   18.28    1.53
  -4   8   0   19.55    1.51
   3  -8   0    8.79    1.17
  -3   8   0    9.75    1.07
   2  -8   0    0.68    0.53
  -2   8   0    1.00    0.47
   1  -8   0    5.86    0.83
  -1   8   0    5.77    0.68
   0  -8   0   12.74    0.91
   0   8   0   13.41    0.93
   0   8   0   13.11    0.81
  -1  -8   0   17.26    0.99
   1   8   0   17.21    0.87
   1   8   0   19.86    1.02
  -2  -8   0    1.39    0.40
   2   8   0    1.25    0.33
   2   8   0    1.55    0.38
  -3  -8   0    0.17    0.31
   3   8   0    0.19    0.28
   3   8   0    0.04    0.25
  -4  -8   0    0.25    0.30
   4   8   0    1.12    0.36
   4   8   0    1.00    0.36
  -5  -8   0    5.81    0.70
   5   8   0    6.09    0.69
  -6  -8   0   -0.37    0.34
   6   8   0   -0.17    0.33
  -7  -8   0    3.08    0.67
   7   8   0    3.99    0.68
  -8  -8   0    0.23    0.51
   8   8   0    0.25    0.48
  -3   9   0   -0.41    0.55
   2  -9   0    0.54    0.56
  -2   9   0    1.24    0.56
   1  -9   0    5.00    0.83
  -1   9   0    4.61    0.67
   0  -9   0    7.71    0.87
   0   9   0   10.16    0.87
  -1  -9   0    1.33    0.48
   1   9   0    1.12    0.40
  -2  -9   0   -0.19    0.31
   2   9   0    0.03    0.28
  -3  -9   0    3.03    0.54
   3   9   0    1.74    0.41
  -4  -9   0    1.50    0.43
   4   9   0    1.71    0.44
  -5  -9   0    0.13    0.36
   5   9   0   -0.13    0.35
  -6  -9   0    1.58    0.53
   6   9   0    1.18    0.47
  -7  -9   0   -0.13    0.45
   7   9   0    0.59    0.45
   8   9   0    1.37    0.58
  -2  10   0    1.67    0.66
   1 -10   0    0.03    0.49
  -1  10   0   -0.08    0.44
   0 -10   0    2.53    0.64
   0  10   0    2.57    0.57
  -1 -10   0    1.68    0.53
   1  10   0    1.46    0.47
  -2 -10   0    0.49    0.42
   2  10   0    0.28    0.35
  -3 -10   0    1.87    0.51
   3  10   0    2.24    0.49
  -4 -10   0    5.17    0.71
   4  10   0    4.11    0.62
  -5 -10   0    4.15    0.69
   5  10   0    5.19    0.70
  -6 -10   0    0.41    0.46
   6  10   0    0.61    0.45
   7  10   0    2.45    0.66
   0  11   0   -0.26    0.46
   1  11   0   -0.13    0.42
  -2 -11   0    1.33    0.55
   2  11   0    2.60    0.60
  -3 -11   0    7.70    0.90
   3  11   0    9.52    0.92
  -4 -11   0    7.70    0.92
   4  11   0    8.05    0.87
   5  11   0    0.70    0.48
   6  11   0    3.52    0.67
   3  12   0   36.42    1.71
   4  12   0    3.85    0.75
   6  11  -1    0.48    0.53
   5  11  -1    7.42    0.92
   4  11  -1   18.43    1.22
   3  11  -1   21.97    1.29
   2  11  -1    2.25    0.61
   1  11  -1    0.80    0.49
   0  11  -1    0.19    0.55
   7  10  -1    2.82    0.69
   6  10  -1    2.65    0.62
  -6 -10   1    2.91    0.69
   5  10  -1   26.81    1.38
  -5 -10   1   27.15    1.46
   4  10  -1   41.75    1.69
  -4 -10   1   46.46    1.85
   3  10  -1    5.25    0.70
  -3 -10   1    4.25    0.70
   2  10  -1   -0.16    0.33
  -2 -10   1    0.19    0.44
   1  10  -1    0.41    0.41
  -1 -10   1    0.84    0.53
   0  10  -1    4.86    0.74
   0 -10   1    3.60    0.76
  -1  10  -1    0.36    0.52
   1 -10   1    0.14    0.64
  -2  10  -1   -0.08    0.59
   8   9  -1    3.96    0.79
   7   9  -1   -0.03    0.43
  -7  -9   1    0.20    0.53
   6   9  -1   11.67    1.08
  -6  -9   1   12.42    1.11
   5   9  -1   22.56    1.20
  -5  -9   1   22.88    1.28
   4   9  -1    5.56    0.69
  -4  -9   1    6.57    0.78
   3   9  -1    2.39    0.50
  -3  -9   1    2.15    0.53
   2   9  -1    2.48    0.47
  -2  -9   1    3.27    0.59
   1   9  -1    0.95    0.41
  -1  -9   1    1.10    0.46
   0   9  -1    4.87    0.67
   0  -9   1    7.25    0.88
  -1   9  -1    3.81    0.69
   1  -9   1    3.22    0.72
  -2   9  -1    0.25    0.50
   2  -9   1   -0.05    0.53
  -3   9  -1   -0.23    0.57
   8   8  -1   -0.04    0.44
   8   8  -1    0.62    0.50
  -8  -8   1    0.22    0.56
   7   8  -1    2.31    0.49
   7   8  -1    0.83    0.50
  -7  -8   1    2.57    0.65
   6   8  -1   12.99    1.08
   6   8  -1   11.31    0.63
  -6  -8   1   12.14    1.05
   5   8  -1    5.32    0.68
  -5  -8   1    7.34    0.78
   4   8  -1    2.72    0.48
   4   8  -1    3.32    0.54
  -4  -8   1    3.23    0.55
   3   8  -1    3.82    0.58
   3   8  -1    3.77    0.51
  -3  -8   1    3.41    0.54
   2   8  -1    7.91    0.70
   2   8  -1    8.56    0.79
  -2  -8   1    7.53    0.75
   1   8  -1    7.38    0.68
   1   8  -1    6.74    0.72
  -1  -8   1    7.36    0.78
   0   8  -1    7.71    0.84
   0   8  -1    7.83    0.74
   0  -8   1    8.14    0.86
  -1   8  -1    3.47    0.57
   1  -8   1    3.17    0.64
  -2   8  -1    0.11    0.44
   2  -8   1    0.22    0.52
  -3   8  -1    4.66    0.40
  -3   8  -1    4.12    0.80
   3  -8   1    4.24    0.89
  -4   8  -1   17.07    1.55
   4  -8   1   18.02    1.73
   9   7  -1    2.43    0.80
   8   7  -1   -0.39    0.55
   8   7  -1    0.70    0.54
  -8  -7   1    0.30    0.54
   7   7  -1    1.29    0.55
   7   7  -1    1.63    0.54
  -7  -7   1    1.36    0.50
   6   7  -1    9.08    0.81
   6   7  -1    6.73    0.79
   6   7  -1    9.87    0.93
  -6  -7   1    7.54    0.83
   5   7  -1    0.53    0.34
   5   7  -1    0.74    0.39
   5   7  -1    0.55    0.35
  -5  -7   1    1.24    0.44
   4   7  -1   21.69    0.82
   4   7  -1   20.25    1.03
   4   7  -1   22.96    1.01
  -4  -7   1   20.53    1.05
   3   7  -1    2.42    0.30
   3   7  -1    2.42    0.43
   3   7  -1    1.97    0.36
   3   7  -1    2.79    0.29
  -3  -7   1    2.25    0.44
   2   7  -1   29.06    1.18
   2   7  -1   26.50    1.05
  -2  -7   1   30.18    1.21
   1   7  -1   25.28    0.61
   1   7  -1   25.85    0.62
   1   7  -1   27.01    1.15
   1   7  -1   26.33    1.03
  -1  -7   1   26.25    1.17
   0   7  -1   29.84    1.13
   0   7  -1   27.78    1.25
   0   7  -1   28.50    0.83
   0   7  -1   30.64    0.88
   0  -7   1   29.17    1.32
  -1   7  -1   17.31    1.06
  -1   7  -1   17.99    0.73
  -1   7  -1   17.17    0.95
  -1   7  -1   17.72    1.05
   1  -7   1   17.74    1.12
  -2   7  -1    4.58    0.48
  -2   7  -1    4.60    0.65
  -2   7  -1    4.49    0.72
   2  -7   1    5.92    0.85
  -3   7  -1   15.75    1.17
  -3   7  -1   15.09    0.82
   3  -7   1   13.01    1.35
  -4   7  -1   11.00    1.21
  -4   7  -1   11.33    0.84
   4  -7   1   10.55    1.33
  -5   7  -1    5.02    0.64
  -5   7  -1    3.34    0.91
   9   6  -1    0.07    0.65
   8   6  -1    0.47    0.50
   8   6  -1    0.64    0.61
  -8  -6   1    0.53    0.55
   7   6  -1    2.95    0.70
   7   6  -1    2.21    0.65
   7   6  -1    2.28    0.57
  -7  -6   1    1.41    0.51
   6   6  -1   11.60    0.95
   6   6  -1   10.05    0.92
   6   6  -1   11.28    0.86
  -6  -6   1   11.06    0.96
   5   6  -1    3.41    0.56
   5   6  -1    3.52    0.49
   5   6  -1    3.64    0.54
  -5  -6   1    3.26    0.54
   4   6  -1    0.64    0.33
   4   6  -1    0.29    0.23
   4   6  -1    0.32    0.28
  -4  -6   1    0.43    0.30
   3   6  -1    8.02    0.55
   3   6  -1    6.94    0.54
   3   6  -1    9.30    1.06
   3   6  -1    8.43    0.61
   3   6  -1    8.81    0.64
  -3  -6   1    6.63    0.80
  -3  -6   1    7.82    0.61
   2   6  -1   20.37    0.76
   2   6  -1   18.50    0.86
   2   6  -1   19.55    1.25
   2   6  -1   17.88    1.16
   2   6  -1   17.43    0.76
   2   6  -1   18.44    0.69
  -2  -6   1   17.57    0.86
  -2  -6   1   18.22    1.03
  -2  -6   1   18.69    1.20
   1   6  -1   53.53    1.35
   1   6  -1   50.52    1.50
   1   6  -1   56.42    1.41
   1   6  -1   55.15    1.94
   1   6  -1   51.63    1.62
   1   6  -1   51.18    2.05
  -1  -6   1   55.04    1.80
  -1  -6   1   57.19    2.13
  -1  -6   1   51.75    1.64
   0   6  -1   60.91    1.70
   0   6  -1   58.77    1.83
   0   6  -1   61.16    1.59
   0   6  -1   60.33    2.26
   0   6  -1   61.83    1.54
   0  -6   1   58.74    1.86
  -1   6  -1    0.97    0.29
  -1   6  -1    0.87    0.38
  -1   6  -1    0.70    0.33
  -1   6  -1    1.29    0.31
   1  -6   1    0.79    0.38
  -2   6  -1   67.96    2.27
  -2   6  -1   69.04    1.85
  -2   6  -1   65.39    2.02
  -2   6  -1   64.71    2.22
   2  -6   1   68.95    2.34
  -3   6  -1   18.91    1.31
  -3   6  -1   18.33    1.14
  -3   6  -1   16.64    1.14
  -3   6  -1   18.21    0.92
   3  -6   1   17.11    1.28
   3  -6   1   19.07    1.32
  -4   6  -1    9.72    1.04
  -4   6  -1    9.88    1.07
  -4   6  -1    9.21    0.78
   4  -6   1    8.98    1.20
   4  -6   1    7.82    1.13
  -5   6  -1    0.48    0.43
  -5   6  -1    0.14    0.58
   5  -6   1   -0.34    0.68
   5  -6   1   -0.37    0.58
  -6   6  -1    0.59    0.47
   9   5  -1    0.03    0.66
   8   5  -1    0.50    0.55
   7   5  -1   30.17    1.46
   7   5  -1   29.00    1.53
   7   5  -1   32.63    1.61
  -7  -5   1   31.42    1.52
   6   5  -1   -0.33    0.30
   6   5  -1   -0.09    0.25
   6   5  -1   -0.10    0.37
  -6  -5   1    0.28    0.34
   5   5  -1   -0.08    0.26
   5   5  -1    0.03    0.34
   5   5  -1   -0.07    0.24
  -5  -5   1    0.00    0.26
  -5  -5   1   -0.33    0.41
   4   5  -1    5.83    0.79
   4   5  -1    6.52    0.61
   4   5  -1    6.38    0.58
   4   5  -1    6.27    0.82
   4   5  -1    6.20    0.61
  -4  -5   1    4.69    0.73
  -4  -5   1    5.27    0.53
  -4  -5   1    5.55    0.72
   3   5  -1   28.57    1.08
   3   5  -1   26.38    0.97
   3   5  -1   29.60    1.07
   3   5  -1   28.46    1.01
   3   5  -1   28.18    1.37
   3   5  -1   26.40    1.40
  -3  -5   1   28.30    1.04
  -3  -5   1   29.31    1.45
  -3  -5   1   28.01    1.30
  -3  -5   1   27.38    1.35
   2   5  -1   89.42    2.14
   2   5  -1   85.38    2.11
   2   5  -1   86.76    2.06
   2   5  -1   89.42    2.72
   2   5  -1   88.99    2.55
   2   5  -1   87.62    2.23
  -2  -5   1   88.60    2.22
  -2  -5   1   93.60    2.50
  -2  -5   1   84.45    2.58
  -2  -5   1   86.71    2.55
   1   5  -1  216.70    4.72
   1   5  -1  207.03    4.50
   1   5  -1  215.84    5.21
   1   5  -1  217.88    4.42
   1   5  -1  220.02    4.50
   1   5  -1  211.24    4.96
  -1  -5   1  214.96    4.68
  -1  -5   1  212.94    4.95
  -1  -5   1  213.66    4.76
  -1  -5   1  217.60    4.89
  -1  -5   1  220.10    5.01
   0   5  -1   12.52    0.73
   0   5  -1   13.58    0.96
   0   5  -1   14.78    0.93
   0   5  -1   12.80    0.61
   0   5  -1   13.31    0.70
   0   5  -1   13.04    0.60
   0  -5   1   13.32    0.85
   0  -5   1   12.24    0.90
   0  -5   1   13.03    0.74
   0  -5   1   14.48    0.80
  -1   5  -1   25.82    0.93
  -1   5  -1   27.11    1.37
  -1   5  -1   24.29    1.07
  -1   5  -1   26.48    1.05
  -1   5  -1   28.23    1.31
  -1   5  -1   27.40    1.14
  -1   5  -1   26.74    0.98
   1  -5   1   25.54    1.14
   1  -5   1   28.40    1.22
   1  -5   1   26.01    1.30
   1  -5   1   25.76    1.15
  -2   5  -1    0.20    0.24
  -2   5  -1    0.41    0.34
  -2   5  -1    0.61    0.29
  -2   5  -1    0.86    0.35
   2  -5   1    0.49    0.56
   2  -5   1    0.07    0.30
   2  -5   1    0.08    0.36
  -3   5  -1   14.32    0.82
  -3   5  -1   16.95    0.95
  -3   5  -1   15.79    1.03
  -3   5  -1   16.39    1.11
   3  -5   1   14.94    1.12
   3  -5   1   14.67    1.13
  -4   5  -1    0.91    0.50
  -4   5  -1    0.94    0.47
  -4   5  -1   -0.18    0.52
  -4   5  -1    0.43    0.35
   4  -5   1    0.96    0.60
   4  -5   1    0.93    0.53
  -5   5  -1    0.27    0.50
  -5   5  -1   -0.02    0.38
   5  -5   1   -0.29    0.54
   5  -5   1   -0.06    0.67
  -6   5  -1    0.72    0.50
   9   4  -1    0.26    0.65
   8   4  -1   23.39    1.55
  -8  -4   1   26.58    1.69
   7   4  -1    6.01    0.87
   7   4  -1    7.33    0.82
   7   4  -1    8.63    0.96
  -7  -4   1    7.64    0.88
  -7  -4   1    6.66    0.96
   6   4  -1   18.55    1.02
   6   4  -1   20.12    1.20
   6   4  -1   19.97    1.13
  -6  -4   1   19.40    1.28
  -6  -4   1   19.10    1.06
   5   4  -1    4.25    0.53
   5   4  -1    3.31    0.57
   5   4  -1    4.20    0.82
   5   4  -1    3.04    0.47
   5   4  -1    3.97    0.78
  -5  -4   1    4.23    0.54
  -5  -4   1    4.56    0.69
  -5  -4   1    4.73    0.80
   4   4  -1   14.29    0.78
   4   4  -1   14.24    0.83
   4   4  -1   14.44    1.07
   4   4  -1   14.62    1.06
   4   4  -1   13.78    0.71
  -4  -4   1   15.29    0.98
  -4  -4   1   14.00    1.05
  -4  -4   1   15.30    1.26
  -4  -4   1   12.30    0.70
   3   4  -1   45.99    1.39
   3   4  -1   50.13    1.83
   3   4  -1   46.57    1.41
   3   4  -1   47.79    1.73
   3   4  -1   46.08    1.34
  -3  -4   1   46.70    1.61
  -3  -4   1   46.62    1.41
  -3  -4   1   49.93    1.82
  -3  -4   1   46.33    1.38
  -3  -4   1   47.26    1.75
   2   4  -1  120.68    3.08
   2   4  -1  121.69    2.67
   2   4  -1  116.42    2.65
   2   4  -1  121.90    3.22
   2   4  -1  115.72    2.76
  -2  -4   1  118.36    3.12
  -2  -4   1  120.24    2.74
  -2  -4   1  119.61    2.95
  -2  -4   1  119.68    3.12
  -2  -4   1  121.95    2.77
   1   4  -1    3.18    0.53
   1   4  -1    1.74    0.25
   1   4  -1    1.54    0.42
   1   4  -1    2.03    0.29
   1   4  -1    1.42    0.25
  -1  -4   1    1.96    0.27
  -1  -4   1    1.74    0.28
  -1  -4   1    2.72    0.42
  -1  -4   1    2.10    0.37
  -1  -4   1    2.34    0.43
   0   4  -1    3.76    0.51
   0   4  -1    3.84    0.36
   0   4  -1    4.48    0.38
   0   4  -1    3.52    0.51
   0   4  -1    4.14    0.42
   0   4  -1    3.18    0.40
   0  -4   1    4.57    0.54
   0  -4   1    3.22    0.43
   0  -4   1    4.49    0.51
   0  -4   1    3.70    0.42
   0  -4   1    4.31    0.38
   0  -4   1    3.36    0.46
  -1   4  -1   33.61    1.32
  -1   4  -1   33.98    1.39
  -1   4  -1   33.38    1.23
  -1   4  -1   34.02    1.05
  -1   4  -1   33.49    1.06
  -1   4  -1   33.96    1.18
   1  -4   1   33.73    1.34
   1  -4   1   32.77    1.10
   1  -4   1   33.91    1.26
   1  -4   1   33.30    1.24
   1  -4   1   36.68    1.29
  -2   4  -1    8.85    0.89
  -2   4  -1    5.63    0.60
  -2   4  -1    4.09    0.44
  -2   4  -1    5.82    0.67
  -2   4  -1    5.02    0.59
  -2   4  -1    4.85    0.48
   2  -4   1    4.89    0.61
   2  -4   1    5.99    0.66
   2  -4   1    4.34    0.60
   2  -4   1    5.65    0.75
   2  -4   1    4.06    0.51
  -3   4  -1    2.50    0.42
  -3   4  -1    2.64    0.44
  -3   4  -1    3.20    0.57
  -3   4  -1    2.13    0.50
  -3   4  -1    2.29    0.59
   3  -4   1    2.66    0.65
   3  -4   1    2.47    0.59
  -4   4  -1    4.33    0.64
  -4   4  -1    3.01    0.67
  -4   4  -1    3.70    0.59
  -4   4  -1    3.59    0.52
   4  -4   1    3.95    0.73
   4  -4   1    2.94    0.79
  -5   4  -1   -0.23    0.30
  -5   4  -1   -0.06    0.36
  -5   4  -1    0.30    0.66
   5  -4   1    0.05    0.63
  -6   4  -1    1.63    0.52
  -7   4  -1    2.36    0.62
   9   3  -1    3.72    0.93
  -9  -3   1    5.07    0.90
   8   3  -1   14.00    1.41
  -8  -3   1   14.18    1.31
   7   3  -1    9.64    0.96
   7   3  -1   10.26    1.14
  -7  -3   1    8.51    0.94
  -7  -3   1    9.51    1.03
   6   3  -1    5.96    0.84
   6   3  -1    5.85    0.70
   6   3  -1    6.84    0.72
  -6  -3   1    6.13    0.70
  -6  -3   1    9.08    0.94
   5   3  -1    2.44    0.51
   5   3  -1    1.70    0.61
   5   3  -1    2.70    0.43
   5   3  -1    1.64    0.39
   5   3  -1    2.34    0.56
  -5  -3   1    1.63    0.63
  -5  -3   1    1.97    0.42
  -5  -3   1    2.10    0.50
   4   3  -1   17.41    1.09
   4   3  -1   18.05    0.93
   4   3  -1   16.46    1.11
   4   3  -1   17.86    0.85
   4   3  -1   17.69    0.79
  -4  -3   1   17.06    0.84
  -4  -3   1   16.54    1.09
  -4  -3   1   18.83    1.28
  -4  -3   1   17.10    0.80
  -4  -3   1   18.06    1.04
  -4  -3   1   17.11    0.94
   3   3  -1   69.84    1.84
   3   3  -1   65.79    2.13
   3   3  -1   68.82    1.85
   3   3  -1   70.21    1.76
   3   3  -1   70.56    2.19
  -3  -3   1   68.58    2.19
  -3  -3   1   71.61    1.99
  -3  -3   1   69.33    2.21
  -3  -3   1   70.63    1.80
  -3  -3   1   71.58    1.85
   2   3  -1   59.53    1.83
   2   3  -1   55.66    1.47
   2   3  -1   55.69    1.46
   2   3  -1   56.21    1.76
   2   3  -1   57.42    1.42
  -2  -3   1   56.06    1.77
  -2  -3   1   59.33    1.49
  -2  -3   1   57.60    1.65
  -2  -3   1   55.54    1.77
  -2  -3   1   55.90    1.45
   1   3  -1    9.96    0.48
   1   3  -1   10.02    0.47
   1   3  -1    9.37    0.69
   1   3  -1    9.97    0.67
   1   3  -1    9.81    0.43
  -1  -3   1    9.97    0.48
  -1  -3   1   10.55    0.68
  -1  -3   1    9.88    0.65
  -1  -3   1    9.90    0.46
  -1  -3   1   10.18    0.57
   0   3  -1    1.25    0.32
   0   3  -1    1.24    0.20
   0   3  -1    1.49    0.24
   0   3  -1    1.28    0.33
   0   3  -1    1.28    0.28
   0   3  -1    1.21    0.23
   0  -3   1    1.68    0.30
   0  -3   1    1.03    0.26
   0  -3   1    1.13    0.31
   0  -3   1    1.46    0.33
   0  -3   1    1.28    0.21
  -1   3  -1   40.06    1.11
  -1   3  -1   37.50    1.09
  -1   3  -1   38.84    1.38
  -1   3  -1   38.54    1.20
  -1   3  -1   37.93    1.28
  -1   3  -1   40.50    1.32
   1  -3   1   39.37    1.29
   1  -3   1   39.13    1.28
   1  -3   1   41.92    1.37
   1  -3   1   40.37    1.17
   1  -3   1   40.48    1.28
   1  -3   1   37.47    1.28
  -2   3  -1    1.32    0.35
  -2   3  -1   -0.10    0.24
  -2   3  -1    0.71    0.23
  -2   3  -1    0.85    0.26
  -2   3  -1    0.84    0.29
   2  -3   1    1.00    0.30
   2  -3   1    0.65    0.36
   2  -3   1    1.03    0.30
   2  -3   1    0.86    0.24
   2  -3   1    0.67    0.32
   2  -3   1    1.31    0.35
  -3   3  -1    1.04    0.39
  -3   3  -1    0.02    0.30
  -3   3  -1    0.86    0.30
  -3   3  -1    0.56    0.35
  -3   3  -1    0.56    0.27
   3  -3   1    0.48    0.44
   3  -3   1    0.50    0.36
   3  -3   1    0.66    0.33
   3  -3   1    0.68    0.32
  -4   3  -1    0.52    0.35
  -4   3  -1    0.28    0.41
  -4   3  -1    0.24    0.31
  -4   3  -1    0.60    0.34
   4  -3   1    0.39    0.47
   4  -3   1    0.14    0.52
  -5   3  -1    0.85    0.37
  -5   3  -1    1.18    0.47
  -5   3  -1    0.93    0.64
   5  -3   1    1.20    0.70
   5  -3   1    0.62    0.57
  -6   3  -1   13.59    1.00
   6  -3   1   14.86    1.45
  -7   3  -1    3.33    0.68
   7  -3   1    3.41    0.96
   9   2  -1   19.80    1.89
  -9  -2   1   19.59    1.48
   8   2  -1    6.58    1.08
  -8  -2   1    6.60    0.90
   7   2  -1    5.96    0.93
  -7  -2   1    5.70    0.82
   6   2  -1    1.25    0.45
   6   2  -1    1.07    0.36
   6   2  -1    1.05    0.56
  -6  -2   1    1.12    0.41
  -6  -2   1    0.15    0.39
   5   2  -1    0.99    0.46
   5   2  -1    0.97    0.36
   5   2  -1    0.87    0.29
   5   2  -1    0.41    0.51
   5   2  -1    0.56    0.42
  -5  -2   1    0.74    0.33
  -5  -2   1    0.55    0.29
  -5  -2   1    0.59    0.52
  -5  -2   1    0.71    0.39
  -5  -2   1    0.47    0.37
   4   2  -1    4.07    0.47
   4   2  -1    4.97    0.51
   4   2  -1    3.97    0.66
   4   2  -1    4.76    0.59
   4   2  -1    4.31    0.61
  -4  -2   1    4.31    0.52
  -4  -2   1    4.42    0.45
  -4  -2   1    5.78    0.79
  -4  -2   1    3.67    0.57
  -4  -2   1    4.51    0.52
   3   2  -1   15.72    0.79
   3   2  -1   16.15    0.96
   3   2  -1   15.33    0.70
   3   2  -1   15.90    0.68
   3   2  -1   17.35    0.95
  -3  -2   1   16.53    0.95
  -3  -2   1   18.61    0.83
  -3  -2   1   16.18    0.67
  -3  -2   1   17.02    0.73
  -3  -2   1   16.50    0.88
  -3  -2   1   15.41    1.01
   2   2  -1    9.20    0.68
   2   2  -1   10.49    0.55
   2   2  -1   10.62    0.46
   2   2  -1    9.15    0.67
   2   2  -1    8.92    0.46
  -2  -2   1    9.95    0.46
  -2  -2   1    9.79    0.47
  -2  -2   1    9.83    0.68
  -2  -2   1   10.92    0.61
  -2  -2   1    9.57    0.71
   1   2  -1   53.82    1.27
   1   2  -1   51.02    1.46
   1   2  -1   52.64    1.27
   1   2  -1   52.77    1.26
   1   2  -1   54.04    1.22
   1   2  -1   50.98    1.51
  -1  -2   1   51.16    1.49
  -1  -2   1   51.97    1.47
  -1  -2   1   53.13    1.27
  -1  -2   1   50.69    1.25
   0   2  -1   40.75    1.07
   0   2  -1   42.02    1.21
   0   2  -1   41.94    1.11
   0   2  -1   41.30    1.03
   0   2  -1   44.11    1.28
   0   2  -1   41.54    1.17
   0   2  -1   42.05    1.01
   0   2  -1   42.69    1.12
   0  -2   1   42.35    1.11
   0  -2   1   42.67    1.19
   0  -2   1   41.48    1.21
   0  -2   1   41.48    1.06
   0  -2   1   41.34    1.18
  -1   2  -1    2.78    0.27
  -1   2  -1    2.72    0.39
  -1   2  -1    2.88    0.33
  -1   2  -1    2.90    0.37
  -1   2  -1    3.21    0.29
   1  -2   1    2.38    0.32
   1  -2   1    2.78    0.35
   1  -2   1    2.34    0.33
   1  -2   1    2.32    0.37
   1  -2   1    2.56    0.27
  -2   2  -1   92.40    2.33
  -2   2  -1   88.69    2.29
  -2   2  -1   88.07    2.13
  -2   2  -1   94.22    2.46
  -2   2  -1   87.08    2.15
   2  -2   1   95.82    2.42
   2  -2   1   89.48    2.27
   2  -2   1   94.49    2.29
   2  -2   1   91.30    2.26
   2  -2   1   87.90    2.34
   2  -2   1   90.52    2.40
  -3   2  -1   12.91    0.85
  -3   2  -1   13.66    0.88
  -3   2  -1   15.20    0.84
  -3   2  -1   14.82    0.74
  -3   2  -1   14.02    0.73
  -3   2  -1   14.47    0.75
   3  -2   1   15.42    0.96
   3  -2   1   14.34    0.82
   3  -2   1   14.95    0.80
   3  -2   1   15.30    0.80
  -4   2  -1    0.06    0.28
  -4   2  -1    0.43    0.38
  -4   2  -1    0.25    0.29
  -4   2  -1    0.19    0.37
  -4   2  -1    0.17    0.34
   4  -2   1    0.58    0.46
   4  -2   1   -0.24    0.20
   4  -2   1   -0.03    0.30
   4  -2   1    0.15    0.39
  -5   2  -1    6.79    0.83
  -5   2  -1    5.23    0.67
  -5   2  -1    6.34    0.93
   5  -2   1    7.06    1.01
   5  -2   1    7.80    1.04
  -6   2  -1   24.54    1.27
   6  -2   1   24.59    1.70
  -7   2  -1    4.85    0.76
   7  -2   1    6.96    1.18
  -8   2  -1    2.71    0.66
   8  -2   1    1.58    0.84
   9   1  -1    2.33    0.88
  -9  -1   1    3.05    0.70
   8   1  -1    1.02    0.64
  -8  -1   1    0.45    0.49
   7   1  -1    0.77    0.59
  -7  -1   1    0.29    0.41
   6   1  -1   21.81    1.40
   6   1  -1   21.66    1.57
   6   1  -1   23.35    1.16
   6   1  -1   22.01    1.24
  -6  -1   1   19.52    1.19
  -6  -1   1   22.24    1.18
   5   1  -1   16.49    0.87
   5   1  -1   16.49    1.09
   5   1  -1   15.29    1.28
   5   1  -1   16.42    1.07
   5   1  -1   16.29    0.94
  -5  -1   1   15.81    0.98
  -5  -1   1   16.07    0.89
  -5  -1   1   14.43    1.00
  -5  -1   1   16.63    1.24
   4   1  -1   10.25    0.78
   4   1  -1   12.39    1.07
   4   1  -1   10.27    0.62
   4   1  -1    9.00    0.63
   4   1  -1   10.95    0.81
  -4  -1   1    9.56    0.89
  -4  -1   1   11.86    0.80
  -4  -1   1    8.69    0.60
  -4  -1   1   10.27    0.68
  -4  -1   1    9.68    0.67
   3   1  -1    0.92    0.41
   3   1  -1    0.63    0.22
   3   1  -1    0.49    0.29
   3   1  -1    0.49    0.21
   3   1  -1    0.32    0.26
  -3  -1   1    0.58    0.21
  -3  -1   1    0.90    0.24
  -3  -1   1    0.51    0.34
  -3  -1   1    0.76    0.33
  -3  -1   1    0.92    0.28
  -3  -1   1    0.17    0.37
   2   1  -1   45.53    1.21
   2   1  -1   44.31    1.12
   2   1  -1   41.34    1.15
   2   1  -1   43.46    1.35
   2   1  -1   43.09    1.38
   2   1  -1   45.31    1.12
  -2  -1   1   43.52    1.29
  -2  -1   1   43.28    1.37
  -2  -1   1   41.36    1.16
  -2  -1   1   42.03    1.11
  -2  -1   1   42.28    1.20
   1   1  -1   22.19    0.60
   1   1  -1   22.10    0.59
   1   1  -1   23.06    0.66
   1   1  -1   21.58    0.62
   1   1  -1   22.16    0.80
   1   1  -1   21.90    0.78
  -1  -1   1   20.85    0.61
  -1  -1   1   20.75    0.78
  -1  -1   1   23.23    0.72
  -1  -1   1   22.27    0.78
  -1  -1   1   22.05    0.61
   0   1  -1    1.36    0.16
   0   1  -1    0.99    0.15
   0   1  -1    1.88    0.24
   0   1  -1    1.15    0.13
   0   1  -1    1.43    0.20
   0   1  -1    1.15    0.22
   0   1  -1    1.46    0.17
   0  -1   1    1.48    0.15
   0  -1   1    1.13    0.20
   0  -1   1    1.32    0.20
   0  -1   1    0.88    0.20
   0  -1   1    1.32    0.17
  -1   1  -1    4.25    0.33
  -1   1  -1    3.53    0.32
  -1   1  -1    4.96    0.30
  -1   1  -1    4.39    0.33
  -1   1  -1    5.40    0.43
   1  -1   1    3.33    0.32
   1  -1   1    5.72    0.45
   1  -1   1    4.54    0.32
   1  -1   1    3.64    0.34
   1  -1   1    4.60    0.35
   1  -1   1    4.88    0.42
  -2   1  -1   56.81    1.58
  -2   1  -1   55.91    1.44
  -2   1  -1   54.85    1.49
  -2   1  -1   55.79    1.44
  -2   1  -1   54.78    1.43
  -2   1  -1   54.58    1.61
   2  -1   1   55.89    1.52
   2  -1   1   55.51    1.47
   2  -1   1   55.15    1.56
   2  -1   1   53.97    1.61
  -3   1  -1   19.09    0.87
  -3   1  -1   20.64    0.86
  -3   1  -1   21.54    0.88
  -3   1  -1   20.71    1.00
  -3   1  -1   20.51    0.99
   3  -1   1   20.51    0.90
   3  -1   1   20.22    1.04
   3  -1   1   20.44    0.91
   3  -1   1   19.22    1.02
  -4   1  -1   22.60    1.05
  -4   1  -1   24.40    1.09
  -4   1  -1   22.49    1.18
  -4   1  -1   21.53    1.22
  -4   1  -1   20.40    1.00
   4  -1   1   23.25    1.25
   4  -1   1   24.16    1.11
   4  -1   1   23.37    1.11
   4  -1   1   20.72    1.22
   4  -1   1   23.14    1.04
  -5   1  -1   73.13    2.30
  -5   1  -1   72.03    2.31
  -5   1  -1   69.19    2.57
  -5   1  -1   71.22    2.49
  -5   1  -1   70.14    2.19
   5  -1   1   66.79    2.45
   5  -1   1   73.94    2.58
  -6   1  -1   27.29    1.35
   6  -1   1   27.49    1.72
  -7   1  -1    3.24    0.65
   7  -1   1    3.44    0.89
  -8   1  -1    0.58    0.49
   8  -1   1   -0.80    0.64
   8   0  -1    0.79    0.70
  -8   0   1    0.81    0.51
   7   0  -1    9.49    1.25
  -7   0   1   10.90    1.06
   6   0  -1    0.62    0.55
   6   0  -1    0.24    0.58
  -6   0   1   -0.05    0.57
  -6   0   1    0.02    0.37
  -6   0   1    0.49    0.42
   5   0  -1   -0.14    0.45
   5   0  -1    0.05    0.24
   5   0  -1    0.51    0.44
   5   0  -1    0.32    0.34
   5   0  -1    0.07    0.31
  -5   0   1    0.23    0.30
  -5   0   1    0.19    0.31
  -5   0   1    0.46    0.34
  -5   0   1    0.09    0.44
  -5   0   1    0.25    0.32
   4   0  -1    8.73    0.80
   4   0  -1    7.57    0.70
   4   0  -1    7.98    0.63
   4   0  -1    7.81    0.57
   4   0  -1    6.61    0.76
  -4   0   1    7.19    0.68
  -4   0   1    8.15    0.72
  -4   0   1    8.44    0.60
  -4   0   1    6.76    0.62
  -4   0   1    9.33    0.88
   3   0  -1   -0.01    0.28
   3   0  -1    0.00    0.17
   3   0  -1   -0.08    0.22
   3   0  -1   -0.11    0.15
   3   0  -1   -0.01    0.31
   3   0  -1   -0.12    0.15
  -3   0   1   -0.07    0.18
  -3   0   1   -0.14    0.29
  -3   0   1   -0.19    0.20
  -3   0   1    0.12    0.22
  -3   0   1    0.04    0.18
   2   0  -1   -0.04    0.12
   2   0  -1    0.06    0.13
   2   0  -1   -0.07    0.14
   2   0  -1    0.00    0.26
   2   0  -1    0.30    0.21
   2   0  -1    0.38    0.23
  -2   0   1    0.23    0.18
  -2   0   1    0.15    0.24
  -2   0   1    0.22    0.17
  -2   0   1    0.01    0.17
  -2   0   1    0.15    0.15
  -2   0   1    0.13    0.30
   1   0  -1   58.39    1.43
   1   0  -1   57.86    1.29
   1   0  -1   55.55    1.38
   1   0  -1   58.35    1.26
  -1   0   1   56.11    1.25
  -1   0   1   58.42    1.27
  -1   0   1   59.23    1.30
  -1   0   1   56.14    1.40
  -1   0   1   58.56    1.32
   0   0  -1  139.90    2.81
   0   0  -1  138.03    2.71
   0   0  -1  136.88    2.67
   0   0  -1  139.11    2.87
   0   0  -1  134.80    2.73
   0   0   1  136.06    2.67
   0   0   1  134.70    2.72
   0   0   1  135.65    2.87
  -1   0  -1  155.34    3.17
  -1   0  -1  160.79    3.14
  -1   0  -1  158.22    3.26
  -1   0  -1  161.72    3.31
  -1   0  -1  150.86    3.27
   1   0   1  157.36    3.26
   1   0   1  160.36    3.21
   1   0   1  153.32    3.19
   1   0   1  156.51    3.16
   1   0   1  152.80    3.28
   1   0   1  154.43    3.24
  -2   0  -1   16.14    0.80
  -2   0  -1   17.19    0.66
  -2   0  -1   18.26    0.68
  -2   0  -1   18.88    0.68
  -2   0  -1   18.07    0.73
  -2   0  -1   17.39    0.74
   2   0   1   17.42    0.79
   2   0   1   17.40    0.64
   2   0   1   18.89    0.74
   2   0   1   19.43    0.72
   2   0   1   18.06    0.77
  -3   0  -1   22.50    0.95
  -3   0  -1   22.18    1.01
  -3   0  -1   20.99    0.87
  -3   0  -1   22.57    0.89
  -3   0  -1   20.67    0.84
   3   0   1   20.02    1.01
   3   0   1   23.19    0.92
   3   0   1   20.68    0.87
   3   0   1   20.96    0.99
   3   0   1   20.82    0.93
  -4   0  -1   48.96    1.78
  -4   0  -1   44.68    1.49
  -4   0  -1   46.07    1.64
  -4   0  -1   46.12    1.55
  -4   0  -1   44.91    1.52
   4   0   1   46.02    1.51
   4   0   1   44.40    1.66
   4   0   1   47.37    1.58
   4   0   1   43.37    1.60
   4   0   1   44.63    1.74
  -5   0  -1   60.64    2.34
  -5   0  -1   62.06    2.10
  -5   0  -1   60.26    2.00
  -5   0  -1   61.47    2.17
  -5   0  -1   62.99    1.99
   5   0   1   64.71    2.01
   5   0   1   62.14    2.14
   5   0   1   63.58    2.14
   5   0   1   64.13    2.34
   5   0   1   61.23    2.20
  -6   0  -1   -0.26    0.35
  -6   0  -1    0.05    0.38
   6   0   1    0.81    0.62
  -7   0  -1    7.11    0.87
   7   0   1    7.26    1.05
  -8   0  -1    1.44    0.61
   8   0   1   -0.37    0.57
   8  -1  -1   14.50    1.60
  -8   1   1   15.60    1.20
   7  -1  -1    2.55    0.84
  -7   1   1    2.11    0.55
   6  -1  -1   25.36    1.68
   6  -1  -1   21.86    1.57
  -6   1   1   21.97    1.40
  -6   1   1   24.25    1.76
  -6   1   1   24.07    1.21
   5  -1  -1   12.73    0.90
   5  -1  -1   15.48    1.26
   5  -1  -1   16.16    1.23
  -5   1   1   15.79    1.35
  -5   1   1   13.29    0.87
  -5   1   1   12.64    0.88
  -5   1   1   14.26    1.02
  -5   1   1   12.82    0.96
   4  -1  -1   11.15    0.99
   4  -1  -1   11.96    0.89
   4  -1  -1   14.53    0.75
   4  -1  -1   13.52    0.86
   4  -1  -1   12.76    0.78
  -4   1   1   14.50    0.83
  -4   1   1   13.24    0.79
  -4   1   1   12.93    0.99
  -4   1   1   12.66    0.74
  -4   1   1   14.40    0.87
   3  -1  -1    5.45    0.59
   3  -1  -1    4.84    0.52
   3  -1  -1    4.83    0.45
   3  -1  -1    3.23    0.52
   3  -1  -1    3.84    0.42
   3  -1  -1    4.44    0.43
  -3   1   1    5.28    0.48
  -3   1   1    5.09    0.61
  -3   1   1    4.24    0.43
  -3   1   1    5.76    0.56
  -3   1   1    5.81    0.55
   2  -1  -1   44.87    1.24
   2  -1  -1   46.85    1.21
   2  -1  -1   45.29    1.42
   2  -1  -1   46.42    1.30
   2  -1  -1   46.43    1.31
  -2   1   1   44.98    1.22
  -2   1   1   45.59    1.18
  -2   1   1   43.82    1.28
  -2   1   1   43.51    1.20
  -2   1   1   44.91    1.36
   1  -1  -1   70.21    1.64
   1  -1  -1   72.37    1.62
   1  -1  -1   72.52    1.58
   1  -1  -1   73.74    1.73
  -1   1   1   72.51    1.72
  -1   1   1   72.75    1.67
  -1   1   1   73.61    1.57
  -1   1   1   76.44    1.54
  -1   1   1   70.21    1.63
  -1   1   1   71.63    1.58
  -1   1   1   71.90    1.56
  -1  -1  -1    0.98    0.13
  -1  -1  -1    0.95    0.16
  -1  -1  -1    0.91    0.17
  -1  -1  -1    1.24    0.12
   1   1   1    1.08    0.13
   1   1   1    1.53    0.16
   1   1   1    1.15    0.17
   1   1   1    1.14    0.17
  -2  -1  -1    7.62    0.44
  -2  -1  -1    8.17    0.52
  -2  -1  -1    8.78    0.42
  -2  -1  -1    7.99    0.57
  -2  -1  -1    8.74    0.46
   2   1   1    8.01    0.54
   2   1   1    9.06    0.53
   2   1   1    8.65    0.45
   2   1   1    8.58    0.44
   2   1   1    8.74    0.39
   2   1   1    8.42    0.51
  -3  -1  -1   78.73    2.12
  -3  -1  -1   79.32    2.00
  -3  -1  -1   83.10    2.13
  -3  -1  -1   85.00    2.39
  -3  -1  -1   81.61    2.27
  -3  -1  -1   83.36    2.04
   3   1   1   79.86    2.04
   3   1   1   83.44    2.22
   3   1   1   85.31    2.29
   3   1   1   86.24    2.12
   3   1   1   83.04    2.14
  -4  -1  -1  121.19    2.97
  -4  -1  -1  125.42    3.12
  -4  -1  -1  120.31    3.00
  -4  -1  -1  125.30    3.35
   4   1   1  119.70    3.10
   4   1   1  125.98    3.22
   4   1   1  123.79    3.09
   4   1   1  121.40    2.98
   4   1   1  127.19    3.33
  -5  -1  -1   11.88    0.79
  -5  -1  -1   12.85    0.94
  -5  -1  -1   11.30    0.86
  -5  -1  -1   12.35    1.13
  -5  -1  -1   12.25    0.86
   5   1   1   11.82    0.79
   5   1   1   13.06    0.95
   5   1   1   13.88    1.12
   5   1   1   14.69    1.25
   5   1   1   12.58    0.86
  -6  -1  -1   11.33    0.98
  -6  -1  -1   10.38    1.01
   6   1   1   10.25    0.90
   6   1   1   10.55    1.13
   6   1   1   11.88    1.07
  -7  -1  -1   19.27    1.23
   7   1   1   19.66    1.46
  -8  -1  -1   -0.08    0.40
   8   1   1    0.41    0.64
  -9  -1  -1    4.08    0.85
   9   1   1    1.72    0.82
   8  -2  -1   -0.38    0.70
  -8   2   1   -0.41    0.42
   7  -2  -1    7.22    1.15
  -7   2   1    7.55    0.85
   6  -2  -1    6.82    1.07
   6  -2  -1    5.77    1.08
  -6   2   1    5.95    1.07
  -6   2   1    5.36    0.86
  -6   2   1    5.60    0.68
   5  -2  -1   10.05    1.14
   5  -2  -1    9.27    1.05
  -5   2   1    9.57    0.82
  -5   2   1   10.38    1.11
  -5   2   1   11.99    0.93
   4  -2  -1   22.72    1.22
   4  -2  -1   23.28    1.08
  -4   2   1   22.48    1.05
  -4   2   1   23.40    1.16
  -4   2   1   21.22    0.95
  -4   2   1   21.40    1.05
  -4   2   1   22.60    1.26
   3  -2  -1    6.73    0.50
   3  -2  -1    6.99    0.55
   3  -2  -1    7.44    0.54
   3  -2  -1    9.00    0.76
   3  -2  -1    5.72    0.67
   3  -2  -1    6.48    0.51
  -3   2   1    7.81    0.52
  -3   2   1    7.50    0.67
  -3   2   1    7.24    0.56
  -3   2   1    7.05    0.68
  -3   2   1    8.00    0.56
   2  -2  -1   71.75    1.77
   2  -2  -1   72.73    1.81
   2  -2  -1   68.79    1.97
   2  -2  -1   71.67    1.84
   2  -2  -1   70.21    1.79
  -2   2   1   69.19    1.77
  -2   2   1   68.89    1.72
  -2   2   1   67.16    1.65
  -2   2   1   70.48    1.88
  -2   2   1   69.81    1.87
  -2   2   1   72.29    1.74
   1  -2  -1  242.46    5.12
   1  -2  -1  250.49    5.06
   1  -2  -1  246.12    5.09
   1  -2  -1  246.77    4.99
  -1   2   1  246.82    4.88
  -1   2   1  244.31    4.99
  -1   2   1  248.26    5.14
  -1   2   1  251.40    5.11
  -1   2   1  251.98    4.81
   0  -2  -1    0.21    0.11
   0  -2  -1    0.28    0.08
   0  -2  -1    0.46    0.10
   0  -2  -1    0.21    0.12
   0  -2  -1    0.29    0.14
   0   2   1    0.35    0.08
   0   2   1    0.36    0.13
   0   2   1    0.43    0.13
   0   2   1    0.25    0.12
   0   2   1    0.07    0.05
  -1  -2  -1   51.27    1.11
  -1  -2  -1   51.87    1.24
  -1  -2  -1   52.00    1.24
  -1  -2  -1   53.04    1.14
   1   2   1   52.09    1.28
   1   2   1   50.86    1.09
   1   2   1   51.18    1.16
  -2  -2  -1  257.93    5.20
  -2  -2  -1  261.10    5.48
  -2  -2  -1  257.86    5.35
  -2  -2  -1  256.03    5.52
   2   2   1  267.03    5.17
   2   2   1  262.18    5.38
   2   2   1  264.05    5.19
   2   2   1  256.21    5.35
   2   2   1  263.48    5.52
  -3  -2  -1   69.74    1.78
  -3  -2  -1   64.01    1.65
  -3  -2  -1   68.47    1.96
  -3  -2  -1   67.39    1.76
  -3  -2  -1   66.94    2.03
   3   2   1   64.84    1.68
   3   2   1   64.60    1.74
   3   2   1   67.06    1.91
   3   2   1   66.53    1.75
   3   2   1   61.91    1.86
  -4  -2  -1    0.68    0.33
  -4  -2  -1    0.39    0.30
  -4  -2  -1    0.40    0.26
  -4  -2  -1    0.32    0.24
  -4  -2  -1    0.73    0.47
  -4  -2  -1    0.40    0.33
   4   2   1    0.39    0.29
   4   2   1    0.38    0.25
   4   2   1    0.10    0.31
   4   2   1    0.58    0.36
   4   2   1    0.13    0.19
  -5  -2  -1    1.65    0.38
  -5  -2  -1    2.05    0.58
  -5  -2  -1    1.68    0.44
   5   2   1    2.17    0.41
   5   2   1    1.04    0.33
   5   2   1    1.74    0.46
   5   2   1    1.91    0.52
   5   2   1    1.89    0.57
  -6  -2  -1   12.66    0.91
  -6  -2  -1   13.36    1.05
   6   2   1   14.05    0.93
   6   2   1   13.56    1.18
   6   2   1   13.65    1.01
  -7  -2  -1   -0.20    0.39
  -7  -2  -1    0.45    0.50
   7   2   1   -0.36    0.32
   7   2   1   -0.01    0.50
  -8  -2  -1   10.80    1.18
   8   2   1    8.54    1.19
  -9  -2  -1    0.07    0.46
   9   2   1    0.52    0.65
  -7   3   1   10.12    0.98
   6  -3  -1   17.80    1.65
  -6   3   1   13.44    1.25
  -6   3   1   13.21    0.95
   5  -3  -1   44.17    2.08
   5  -3  -1   43.44    2.08
  -5   3   1   44.70    1.57
  -5   3   1   47.00    2.15
  -5   3   1   43.05    1.79
   4  -3  -1    2.01    0.61
   4  -3  -1    2.44    0.61
  -4   3   1    3.14    0.61
  -4   3   1    3.62    0.52
  -4   3   1    2.52    0.58
  -4   3   1    2.43    0.42
   3  -3  -1   47.93    1.54
   3  -3  -1   46.91    1.76
   3  -3  -1   48.40    1.54
   3  -3  -1   50.13    1.71
  -3   3   1   47.13    1.50
  -3   3   1   49.03    1.70
  -3   3   1   48.89    1.39
  -3   3   1   48.26    1.51
  -3   3   1   49.80    1.70
  -3   3   1   45.50    1.53
   2  -3  -1   53.36    1.53
   2  -3  -1   52.55    1.60
   2  -3  -1   51.96    1.68
   2  -3  -1   54.78    1.50
   2  -3  -1   53.63    1.52
  -2   3   1   55.20    1.65
  -2   3   1   51.95    1.58
  -2   3   1   53.41    1.53
  -2   3   1   52.76    1.34
  -2   3   1   52.96    1.44
   1  -3  -1    0.48    0.20
   1  -3  -1    0.73    0.18
   1  -3  -1    0.49    0.22
   1  -3  -1    0.63    0.17
  -1   3   1    0.57    0.17
  -1   3   1    0.75    0.20
  -1   3   1    0.50    0.20
  -1   3   1    0.61    0.22
  -1   3   1    0.53    0.14
  -1   3   1    0.47    0.15
  -1   3   1    0.60    0.22
   0  -3  -1   28.24    0.83
   0  -3  -1   29.50    0.81
   0  -3  -1   29.23    0.74
   0  -3  -1   28.69    0.87
   0   3   1   29.84    0.85
   0   3   1   29.24    0.88
  -1  -3  -1   26.46    0.88
  -1  -3  -1   28.40    0.72
  -1  -3  -1   28.30    0.83
  -1  -3  -1   28.35    0.74
   1   3   1   28.14    0.85
   1   3   1   29.95    0.81
   1   3   1   27.26    0.90
  -2  -3  -1    0.16    0.26
  -2  -3  -1    0.05    0.14
  -2  -3  -1    0.14    0.12
  -2  -3  -1   -0.03    0.21
   2   3   1    0.37    0.24
   2   3   1    0.11    0.13
   2   3   1    0.43    0.14
   2   3   1    0.19    0.14
   2   3   1    0.13    0.24
   2   3   1    0.23    0.13
  -3  -3  -1    4.94    0.63
  -3  -3  -1    4.85    0.55
  -3  -3  -1    5.44    0.41
  -3  -3  -1    4.85    0.38
   3   3   1    5.44    0.45
   3   3   1    5.55    0.45
   3   3   1    5.93    0.44
   3   3   1    5.31    0.57
   3   3   1    6.01    0.61
  -4  -3  -1   79.87    2.10
  -4  -3  -1   83.13    2.25
  -4  -3  -1   89.86    2.69
  -4  -3  -1   81.43    2.22
  -4  -3  -1   85.92    2.53
   4   3   1   84.39    2.22
   4   3   1   78.30    2.11
   4   3   1   80.67    2.17
   4   3   1   80.82    2.43
   4   3   1   84.47    2.42
  -5  -3  -1   14.90    0.82
  -5  -3  -1   14.95    0.93
  -5  -3  -1   16.27    1.12
   5   3   1   13.24    1.05
   5   3   1   16.44    1.08
   5   3   1   15.25    0.90
   5   3   1   15.07    0.96
   5   3   1   16.05    0.85
  -6  -3  -1    6.65    0.79
  -6  -3  -1    7.05    0.74
   6   3   1    5.95    0.72
   6   3   1    6.58    0.72
   6   3   1    5.86    0.79
  -7  -3  -1    6.75    0.84
   7   3   1    6.42    0.89
   7   3   1    6.53    0.78
   7   3   1    6.22    0.85
  -8  -3  -1    1.67    0.59
   8   3   1    2.61    0.77
   9   3   1    1.01    0.68
  -7   4   1    8.21    0.90
   6  -4  -1    7.45    1.21
  -6   4   1    7.84    0.80
  -6   4   1    7.78    1.07
   5  -4  -1   -0.09    0.53
  -5   4   1    0.21    0.37
  -5   4   1   -0.04    0.32
  -5   4   1    0.27    0.61
   4  -4  -1    8.32    1.01
  -4   4   1    7.00    0.92
  -4   4   1    6.14    0.69
  -4   4   1    5.92    0.56
   3  -4  -1   54.59    1.77
   3  -4  -1   59.55    2.06
   3  -4  -1   56.85    2.02
  -3   4   1   58.09    1.97
  -3   4   1   58.82    2.02
  -3   4   1   54.75    1.54
  -3   4   1   56.09    1.75
  -3   4   1   57.11    1.88
   2  -4  -1    6.50    0.51
   2  -4  -1    7.91    0.76
   2  -4  -1    6.96    0.62
   2  -4  -1    5.29    0.61
  -2   4   1    6.18    0.49
  -2   4   1    6.71    0.42
  -2   4   1    6.34    0.60
  -2   4   1    4.74    0.56
  -2   4   1    7.60    0.65
  -2   4   1    6.08    0.46
   1  -4  -1   10.17    0.62
   1  -4  -1    8.65    0.51
   1  -4  -1    8.22    0.56
   1  -4  -1    9.21    0.47
  -1   4   1    9.04    0.52
  -1   4   1    9.46    0.39
  -1   4   1    9.10    0.45
  -1   4   1    9.27    0.63
  -1   4   1    8.72    0.52
  -1   4   1    8.78    0.59
  -1   4   1    8.79    0.34
   0  -4  -1    2.68    0.32
   0  -4  -1    2.85    0.32
   0  -4  -1    2.62    0.24
   0  -4  -1    2.95    0.32
   0  -4  -1    3.14    0.37
   0   4   1    2.43    0.36
   0   4   1    3.46    0.30
   0   4   1    2.74    0.36
  -1  -4  -1    0.44    0.27
  -1  -4  -1    0.22    0.15
  -1  -4  -1    0.15    0.16
  -1  -4  -1   -0.01    0.10
   1   4   1    0.28    0.25
   1   4   1    0.34    0.22
   1   4   1    0.23    0.23
  -2  -4  -1   51.71    1.54
  -2  -4  -1   54.29    1.34
  -2  -4  -1   53.63    1.62
  -2  -4  -1   52.04    1.32
   2   4   1   53.23    1.47
   2   4   1   54.56    1.36
   2   4   1   52.91    1.64
  -3  -4  -1   60.21    1.64
  -3  -4  -1   66.18    2.06
  -3  -4  -1   63.65    1.95
  -3  -4  -1   64.08    1.63
   3   4   1   62.93    1.50
   3   4   1   66.98    1.55
   3   4   1   63.93    1.68
   3   4   1   63.07    1.85
   3   4   1   64.65    1.62
   3   4   1   61.83    1.97
  -4  -4  -1   67.45    2.23
  -4  -4  -1   74.09    2.41
  -4  -4  -1   69.72    1.86
  -4  -4  -1   70.09    2.03
   4   4   1   67.57    1.82
   4   4   1   66.66    1.91
   4   4   1   67.61    1.84
   4   4   1   70.87    1.92
   4   4   1   69.87    2.15
   4   4   1   70.05    2.23
  -5  -4  -1    7.21    0.63
  -5  -4  -1    6.15    0.80
  -5  -4  -1    5.80    0.69
   5   4   1    8.35    0.91
   5   4   1    6.28    0.67
   5   4   1    7.30    0.70
   5   4   1    6.24    0.61
   5   4   1    5.73    0.81
  -6  -4  -1   11.65    0.86
   6   4   1   11.27    0.98
   6   4   1   10.51    0.94
   6   4   1   11.12    0.83
  -7  -4  -1   29.44    1.47
   7   4   1   29.55    1.42
   7   4   1   26.67    1.45
   7   4   1   27.83    1.51
  -8  -4  -1   11.93    1.21
   8   4   1    8.54    1.09
   8   4   1   12.03    1.15
   9   4   1    8.67    1.16
   6  -5  -1    0.26    0.79
  -6   5   1    0.72    0.45
  -6   5   1    0.78    0.65
   5  -5  -1    0.66    0.64
  -5   5   1    0.86    0.52
  -5   5   1    0.36    0.37
   4  -5  -1   15.72    1.37
  -4   5   1   16.34    1.10
  -4   5   1   18.44    1.33
  -4   5   1   18.62    0.87
  -4   5   1   17.85    1.11
   3  -5  -1    0.28    0.44
  -3   5   1    0.32    0.28
  -3   5   1    0.43    0.27
  -3   5   1    0.40    0.40
   2  -5  -1    5.02    0.51
   2  -5  -1    5.88    0.70
  -2   5   1    5.73    0.45
  -2   5   1    5.60    0.39
  -2   5   1    6.52    0.65
  -2   5   1    5.14    0.49
  -2   5   1    6.08    0.60
  -2   5   1    5.67    0.66
  -2   5   1    4.07    0.58
   1  -5  -1    8.02    0.54
   1  -5  -1    9.51    0.66
   1  -5  -1    7.72    0.69
  -1   5   1    9.51    0.51
  -1   5   1    9.02    0.58
  -1   5   1    9.55    0.58
  -1   5   1    9.82    0.72
  -1   5   1    8.74    0.72
   0  -5  -1    0.07    0.11
   0  -5  -1    0.12    0.15
   0  -5  -1    0.00    0.24
   0  -5  -1    0.16    0.20
   0   5   1   -0.03    0.10
   0   5   1    0.51    0.30
   0   5   1    0.18    0.25
   0   5   1    0.09    0.17
  -1  -5  -1  122.32    2.70
  -1  -5  -1  120.16    2.98
  -1  -5  -1  124.57    2.78
  -1  -5  -1  121.01    2.84
   1   5   1  123.73    2.98
   1   5   1  127.11    3.12
   1   5   1  123.18    2.84
   1   5   1  125.20    2.77
  -2  -5  -1   43.56    1.23
  -2  -5  -1   47.26    1.42
  -2  -5  -1   46.53    1.56
  -2  -5  -1   44.12    1.20
   2   5   1   46.35    1.38
   2   5   1   43.59    1.57
   2   5   1   44.34    1.25
  -3  -5  -1    0.17    0.26
  -3  -5  -1    0.22    0.37
  -3  -5  -1    0.40    0.19
   3   5   1    0.34    0.17
   3   5   1    0.25    0.18
   3   5   1    0.16    0.32
   3   5   1   -0.14    0.27
  -4  -5  -1    0.15    0.32
  -4  -5  -1   -0.01    0.39
  -4  -5  -1    0.27    0.46
  -4  -5  -1    0.17    0.21
   4   5   1    0.39    0.23
   4   5   1   -0.09    0.24
   4   5   1    0.17    0.35
   4   5   1    0.28    0.21
   4   5   1    0.56    0.39
   4   5   1    0.14    0.23
  -5  -5  -1   31.80    1.24
   5   5   1   32.40    1.30
   5   5   1   32.51    1.20
   5   5   1   33.63    1.26
  -6  -5  -1   18.15    1.02
   6   5   1   17.94    1.01
   6   5   1   19.88    1.08
   6   5   1   17.67    1.09
  -7  -5  -1   12.82    1.10
   7   5   1   10.66    1.08
   7   5   1    9.74    0.95
   7   5   1    9.73    0.96
  -8  -5  -1   13.24    1.24
   8   5   1   11.71    1.16
   8   5   1   11.33    1.11
   9   5   1    0.91    0.70
  -6   6   1   -0.91    0.58
  -6   6   1   -0.07    0.38
   5  -6  -1    0.89    0.75
  -5   6   1    1.10    0.62
  -5   6   1    0.82    0.37
   4  -6  -1    1.67    0.70
  -4   6   1    2.41    0.63
  -4   6   1    1.50    0.36
  -4   6   1    1.43    0.52
   3  -6  -1    0.31    0.48
  -3   6   1    0.54    0.47
  -3   6   1    0.37    0.25
  -3   6   1    0.85    0.39
  -3   6   1    0.56    0.37
   2  -6  -1    7.18    0.84
  -2   6   1    4.88    0.55
  -2   6   1    5.57    0.63
  -2   6   1    5.26    0.33
  -2   6   1    4.66    0.59
  -2   6   1    5.23    0.30
   1  -6  -1    2.16    0.36
   1  -6  -1    1.61    0.39
   1  -6  -1    1.89    0.43
  -1   6   1    1.92    0.38
  -1   6   1    2.30    0.35
  -1   6   1    1.77    0.45
  -1   6   1    1.79    0.37
   0  -6  -1   24.92    1.04
   0  -6  -1   27.12    1.15
   0  -6  -1   27.32    0.99
   0   6   1   25.56    0.89
   0   6   1   27.27    1.00
   0   6   1   27.67    1.27
  -1  -6  -1   52.06    1.72
  -1  -6  -1   51.89    1.49
  -1  -6  -1   51.23    1.48
   1   6   1   51.93    1.78
   1   6   1   51.44    1.81
   1   6   1   50.17    1.44
   1   6   1   50.04    1.43
  -2  -6  -1   54.79    1.54
  -2  -6  -1   54.54    1.87
  -2  -6  -1   58.02    1.67
   2   6   1   56.99    1.54
   2   6   1   55.51    1.48
   2   6   1   56.16    1.94
  -3  -6  -1    5.48    0.50
  -3  -6  -1    5.36    0.60
  -3  -6  -1    5.94    0.76
   3   6   1    5.79    0.73
   3   6   1    5.21    0.48
   3   6   1    5.42    0.42
  -4  -6  -1    0.22    0.24
  -4  -6  -1   -0.03    0.32
   4   6   1    0.27    0.22
   4   6   1   -0.09    0.22
   4   6   1    0.08    0.36
  -5  -6  -1   22.23    1.03
   5   6   1   23.78    1.10
   5   6   1   21.44    0.81
   5   6   1   22.75    1.02
   5   6   1   22.28    0.85
  -6  -6  -1   40.80    1.57
   6   6   1   40.95    1.64
   6   6   1   40.23    1.39
   6   6   1   40.99    1.57
  -7  -6  -1   32.87    1.55
   7   6   1   30.84    1.48
   7   6   1   29.42    1.36
  -8  -6  -1    2.43    0.68
   8   6   1    2.20    0.65
   8   6   1    2.12    0.63
   9   6   1    1.27    0.75
   5  -7  -1    4.81    1.09
   5  -7  -1    3.75    0.97
  -5   7   1    1.98    0.74
  -5   7   1    4.69    0.41
   4  -7  -1    1.13    0.71
   4  -7  -1    1.81    0.73
  -4   7   1    0.64    0.49
  -4   7   1    2.50    0.67
  -4   7   1    2.61    0.27
   3  -7  -1    0.25    0.48
   3  -7  -1   -0.16    0.47
  -3   7   1    0.36    0.41
   2  -7  -1    3.94    0.70
   2  -7  -1    3.20    0.66
  -2   7   1    3.89    0.65
  -2   7   1    4.61    0.61
  -2   7   1    4.95    0.61
   1  -7  -1   23.79    1.21
  -1   7   1   23.94    1.00
  -1   7   1   24.71    1.15
   0  -7  -1  102.24    2.71
   0   7   1  101.77    2.63
   0   7   1   98.78    2.45
  -1  -7  -1   79.68    2.15
  -1  -7  -1   78.20    2.16
   1   7   1   80.57    2.60
   1   7   1   84.56    2.17
   1   7   1   79.53    2.01
  -2  -7  -1   18.81    0.87
  -2  -7  -1   18.32    0.83
   2   7   1   18.20    1.18
   2   7   1   17.37    0.80
   2   7   1   18.08    0.75
  -3  -7  -1    0.27    0.24
   3   7   1    0.77    0.46
   3   7   1    0.37    0.22
   3   7   1   -0.09    0.20
  -4  -7  -1   62.06    1.85
   4   7   1   61.68    1.86
   4   7   1   62.66    1.78
  -5  -7  -1    5.87    0.65
   5   7   1    5.48    0.59
   5   7   1    5.49    0.62
  -6  -7  -1   29.75    1.38
   6   7   1   30.57    1.43
   6   7   1   33.07    1.39
  -7  -7  -1   -0.02    0.39
   7   7   1   -0.19    0.36
   7   7   1    0.34    0.36
  -8  -7  -1    0.10    0.49
   8   7   1    0.16    0.44
   8   7   1   -0.40    0.41
  -9  -7  -1    0.12    0.62
   9   7   1    0.24    0.59
   9   7   1    0.25    0.53
   4  -8  -1    1.45    0.72
   4  -8  -1    0.36    0.71
  -4   8   1    0.66    0.64
  -4   8   1    0.68    0.57
   3  -8  -1   14.42    1.40
  -3   8   1   12.10    1.10
   2  -8  -1   14.15    1.23
  -2   8   1   13.09    0.96
   1  -8  -1   37.53    1.64
  -1   8   1   37.14    1.40
   0  -8  -1   51.30    1.79
   0   8   1   49.76    1.74
   0   8   1   51.49    1.60
  -1  -8  -1   20.58    1.01
   1   8   1   21.87    0.92
   1   8   1   20.61    1.00
  -2  -8  -1    0.32    0.27
   2   8   1    0.24    0.25
   2   8   1    0.10    0.26
  -3  -8  -1    8.51    0.66
   3   8   1    7.42    0.62
   3   8   1    8.19    0.66
  -4  -8  -1    3.46    0.51
   4   8   1    2.99    0.45
   4   8   1    4.09    0.53
  -5  -8  -1   26.24    1.22
   5   8   1   26.83    1.18
  -6  -8  -1    1.48    0.48
   6   8   1    1.95    0.49
  -7  -8  -1    0.45    0.45
   7   8   1   -0.03    0.35
  -8  -8  -1    0.00    0.48
   8   8   1    0.72    0.52
   3  -9  -1    1.19    0.69
  -3   9   1    1.17    0.65
   2  -9  -1    8.82    1.04
  -2   9   1   10.11    0.98
   1  -9  -1   29.37    1.53
  -1   9   1   29.56    1.33
   0  -9  -1   24.18    1.27
   0   9   1   24.12    1.12
  -1  -9  -1    3.39    0.56
   1   9   1    3.36    0.50
  -2  -9  -1    1.75    0.43
   2   9   1    1.68    0.38
  -3  -9  -1    0.08    0.30
   3   9   1    0.19    0.27
  -4  -9  -1    1.11    0.39
   4   9   1    0.65    0.35
  -5  -9  -1   10.33    0.90
   5   9   1   10.66    0.83
  -6  -9  -1    1.20    0.46
   6   9   1    0.58    0.39
  -7  -9  -1    0.85    0.50
   7   9   1    0.37    0.45
   8   9   1    2.09    0.66
  -2  10   1   18.36    1.34
   1 -10  -1    6.15    0.91
  -1  10   1    6.05    0.80
   0 -10  -1    0.55    0.48
   0  10   1    0.33    0.38
  -1 -10  -1    3.20    0.63
   1  10   1    2.95    0.52
  -2 -10  -1    4.87    0.67
   2  10   1    4.24    0.58
  -3 -10  -1    1.44    0.46
   3  10   1    1.82    0.44
  -4 -10  -1    7.81    0.81
   4  10   1    9.17    0.82
  -5 -10  -1    0.87    0.43
   5  10   1    1.01    0.41
  -6 -10  -1    0.41    0.44
   6  10   1    0.86    0.44
   7  10   1    0.88    0.50
  -1  11   1    1.87    0.64
   0  11   1    0.23    0.46
  -1 -11  -1    2.11    0.60
   1  11   1    1.82    0.56
  -2 -11  -1   -0.57    0.35
   2  11   1    0.09    0.39
  -3 -11  -1    3.62    0.68
   3  11   1    4.82    0.68
  -4 -11  -1    6.55    0.81
   4  11   1    6.01    0.73
   5  11   1    0.09    0.40
   6  11   1    4.58    0.76
   2  12   1    1.14    0.54
   3  12   1   18.38    1.20
   4  12   1    6.53    0.83
   5  12   1    5.96    0.83
   5  11  -2    6.17    0.88
   4  11  -2    6.72    0.88
   3  11  -2   16.64    1.23
   2  11  -2    8.43    0.99
   1  11  -2    1.05    0.60
   7  10  -2   -0.09    0.47
   6  10  -2    3.56    0.77
  -6 -10   2    3.06    0.74
   5  10  -2    9.18    0.95
  -5 -10   2    8.09    0.96
   4  10  -2   51.50    1.94
  -4 -10   2   51.85    2.07
   3  10  -2   14.93    1.08
  -3 -10   2   15.00    1.14
   2  10  -2    0.72    0.49
  -2 -10   2    0.43    0.49
   1  10  -2    1.63    0.56
  -1 -10   2    2.08    0.64
   0  10  -2   14.02    1.22
   0 -10   2   16.01    1.43
  -1  10  -2    5.77    0.88
   7   9  -2    3.13    0.72
  -7  -9   2    3.12    0.72
   6   9  -2   11.32    1.07
  -6  -9   2   13.46    1.22
   5   9  -2   25.98    1.36
  -5  -9   2   27.73    1.46
   4   9  -2   14.52    1.00
  -4  -9   2   14.37    1.06
   3   9  -2   -0.26    0.35
  -3  -9   2    0.41    0.40
   2   9  -2   -0.12    0.34
  -2  -9   2    0.18    0.38
   1   9  -2   10.55    0.97
  -1  -9   2    8.62    0.94
   0   9  -2    3.86    0.64
   0  -9   2    5.16    0.80
  -1   9  -2    1.48    0.56
   1  -9   2    0.44    0.56
  -2   9  -2    1.03    0.59
   2  -9   2    0.49    0.60
   8   8  -2    0.54    0.58
   8   8  -2    0.34    0.56
  -8  -8   2    0.27    0.58
   7   8  -2    7.10    0.79
   7   8  -2    6.65    0.89
  -7  -8   2    8.72    1.05
   6   8  -2   12.79    1.08
   6   8  -2   12.64    0.86
  -6  -8   2   13.72    1.19
   5   8  -2   16.92    0.84
   5   8  -2   15.10    1.01
  -5  -8   2   16.83    1.11
   4   8  -2    1.16    0.47
   4   8  -2    0.76    0.36
   4   8  -2    1.58    0.35
  -4  -8   2    0.49    0.38
   3   8  -2    0.19    0.31
   3   8  -2   -0.07    0.24
   3   8  -2   -0.05    0.35
  -3  -8   2    0.09    0.34
   2   8  -2    0.08    0.29
   2   8  -2    0.27    0.24
   2   8  -2    0.28    0.36
  -2  -8   2    0.01    0.36
   1   8  -2    2.16    0.30
   1   8  -2    2.19    0.52
   1   8  -2    2.34    0.49
  -1  -8   2    2.75    0.56
   0   8  -2    0.69    0.27
   0   8  -2    0.07    0.33
   0  -8   2   -0.23    0.38
  -1   8  -2    0.52    0.31
  -1   8  -2    0.15    0.40
   1  -8   2    0.02    0.43
  -2   8  -2    2.71    0.68
  -2   8  -2    2.81    0.45
   2  -8   2    1.78    0.70
  -3   8  -2    0.04    0.36
  -3   8  -2    0.12    0.55
   3  -8   2    0.96    0.71
  -4   8  -2    8.83    0.72
  -4   8  -2    9.92    1.29
   8   7  -2    2.92    0.76
   8   7  -2    2.57    0.66
  -8  -7   2    2.81    0.77
   7   7  -2    2.51    0.63
   7   7  -2    2.14    0.64
  -7  -7   2    2.93    0.66
   6   7  -2   10.30    1.01
   6   7  -2    9.24    0.87
   6   7  -2   10.62    1.01
  -6  -7   2    7.80    0.88
   5   7  -2    2.19    0.48
   5   7  -2    1.31    0.47
   5   7  -2    1.06    0.45
  -5  -7   2    1.78    0.48
   4   7  -2   26.07    1.08
   4   7  -2   25.73    1.13
   4   7  -2   26.98    1.24
  -4  -7   2   25.72    1.22
   3   7  -2    0.51    0.33
   3   7  -2    0.64    0.28
   3   7  -2    0.27    0.32
  -3  -7   2    0.42    0.34
   2   7  -2    4.90    0.52
   2   7  -2    4.92    0.50
   2   7  -2    6.66    0.70
  -2  -7   2    5.88    0.67
   1   7  -2    7.77    0.74
   1   7  -2    9.50    0.63
   1   7  -2    9.18    0.65
  -1  -7   2    9.65    0.85
   0   7  -2    1.45    0.36
   0   7  -2    2.16    0.40
   0   7  -2    1.57    0.47
   0  -7   2    1.73    0.48
  -1   7  -2    0.39    0.32
  -1   7  -2    0.15    0.37
  -1   7  -2    0.12    0.36
  -1   7  -2    0.79    0.37
   1  -7   2   -0.07    0.34
  -2   7  -2    4.41    0.69
  -2   7  -2    4.70    0.89
  -2   7  -2    3.84    0.52
   2  -7   2    3.21    0.71
  -3   7  -2   12.07    1.18
  -3   7  -2   10.78    0.84
   3  -7   2   11.80    1.28
  -4   7  -2    4.04    0.62
  -4   7  -2    2.60    0.79
   4  -7   2    2.56    0.86
  -5   7  -2    3.73    0.64
   9   6  -2    0.42    0.72
   8   6  -2   -0.11    0.61
   7   6  -2    1.47    0.60
   7   6  -2    2.15    0.63
   7   6  -2    3.21    0.68
  -7  -6   2    1.71    0.56
   6   6  -2    1.14    0.51
   6   6  -2    1.76    0.52
   6   6  -2    2.02    0.51
  -6  -6   2    1.18    0.46
   5   6  -2    3.39    0.58
   5   6  -2    3.16    0.53
   5   6  -2    3.13    0.48
  -5  -6   2    3.55    0.55
   4   6  -2    8.33    0.75
   4   6  -2    7.49    0.68
   4   6  -2    8.00    0.72
  -4  -6   2    8.26    0.74
   3   6  -2    0.11    0.25
   3   6  -2    0.44    0.31
   3   6  -2   -0.07    0.41
   3   6  -2    0.42    0.22
  -3  -6   2    0.65    0.30
   2   6  -2   29.66    1.16
   2   6  -2   28.17    1.05
   2   6  -2   29.06    1.06
   2   6  -2   29.26    1.60
  -2  -6   2   28.38    1.15
  -2  -6   2   27.55    1.41
   1   6  -2    6.02    0.54
   1   6  -2    6.87    0.64
   1   6  -2    7.40    0.97
   1   6  -2    7.44    0.52
  -1  -6   2    7.52    0.71
   0   6  -2    2.36    0.39
   0   6  -2    1.85    0.41
   0   6  -2    2.14    0.47
   0   6  -2    2.20    0.37
   0  -6   2    3.03    0.54
  -1   6  -2    0.10    0.33
  -1   6  -2   -0.21    0.30
  -1   6  -2    0.30    0.29
  -1   6  -2    0.29    0.24
   1  -6   2    0.45    0.38
  -2   6  -2   31.26    1.31
  -2   6  -2   30.81    1.47
  -2   6  -2   32.56    1.52
  -2   6  -2   30.22    1.19
   2  -6   2   29.20    1.50
  -3   6  -2   29.42    1.69
  -3   6  -2   30.75    1.50
  -3   6  -2   35.42    1.35
   3  -6   2   34.69    1.76
  -4   6  -2   21.02    1.44
  -4   6  -2   18.24    1.07
   4  -6   2   16.41    1.48
  -5   6  -2    0.66    0.49
   9   5  -2    0.64    0.65
   8   5  -2   -0.82    0.46
   7   5  -2    4.84    0.73
   7   5  -2    2.87    0.67
   7   5  -2    4.87    0.80
  -7  -5   2    4.90    0.74
   6   5  -2    2.73    0.55
   6   5  -2    2.35    0.57
   6   5  -2    2.32    0.48
  -6  -5   2    2.62    0.53
  -6  -5   2    1.71    0.66
   5   5  -2    0.93    0.31
   5   5  -2    0.88    0.38
   5   5  -2    0.24    0.43
  -5  -5   2    0.43    0.48
  -5  -5   2    0.74    0.36
   4   5  -2    1.70    0.61
   4   5  -2    1.96    0.58
   4   5  -2    3.94    0.52
   4   5  -2    2.79    0.50
   4   5  -2    2.94    0.42
  -4  -5   2    4.02    0.74
  -4  -5   2    3.28    0.46
  -4  -5   2    2.95    0.60
   3   5  -2   78.32    2.11
   3   5  -2   77.22    2.56
   3   5  -2   76.91    2.02
   3   5  -2   75.15    2.04
   3   5  -2   75.60    2.63
  -3  -5   2   76.09    2.58
  -3  -5   2   74.89    2.06
  -3  -5   2   73.87    2.37
  -3  -5   2   78.00    2.56
   2   5  -2   46.86    1.42
   2   5  -2   47.99    1.49
   2   5  -2   49.09    1.85
   2   5  -2   46.77    1.92
   2   5  -2   46.65    1.38
  -2  -5   2   50.41    1.84
  -2  -5   2   49.53    1.87
  -2  -5   2   48.47    1.77
  -2  -5   2   48.10    1.49
   1   5  -2   18.68    0.77
   1   5  -2   18.66    0.85
   1   5  -2   16.64    1.15
   1   5  -2   18.24    1.12
   1   5  -2   17.83    0.79
  -1  -5   2   19.50    1.12
  -1  -5   2   19.37    0.87
  -1  -5   2   19.09    1.02
  -1  -5   2   22.26    1.18
   0   5  -2   34.67    1.13
   0   5  -2   34.03    1.33
   0   5  -2   34.61    1.62
   0   5  -2   32.84    1.23
   0   5  -2   34.21    1.49
   0   5  -2   32.47    1.11
   0  -5   2   34.46    1.43
   0  -5   2   34.70    1.50
   0  -5   2   35.06    1.40
   0  -5   2   36.20    1.31
  -1   5  -2   54.34    1.83
  -1   5  -2   51.18    1.74
  -1   5  -2   53.93    1.61
  -1   5  -2   56.27    1.59
  -1   5  -2   56.50    2.15
  -1   5  -2   53.29    1.98
   1  -5   2   52.54    1.82
   1  -5   2   54.31    1.88
   1  -5   2   54.63    2.02
  -2   5  -2   21.15    0.97
  -2   5  -2   21.75    1.16
  -2   5  -2   21.00    1.14
  -2   5  -2   19.24    0.96
   2  -5   2   20.67    1.40
   2  -5   2   20.89    1.18
  -3   5  -2   21.28    1.02
  -3   5  -2   21.04    1.31
  -3   5  -2   20.28    1.23
  -3   5  -2   18.89    1.08
   3  -5   2   17.98    1.26
   3  -5   2   19.10    1.28
  -4   5  -2    3.94    0.57
  -4   5  -2    3.55    0.81
  -4   5  -2    3.00    0.68
  -4   5  -2    3.79    0.66
  -4   5  -2    4.21    0.78
   4  -5   2    3.61    0.82
   4  -5   2    4.50    0.87
  -5   5  -2    1.14    0.44
   5  -5   2    0.73    0.79
  -6   5  -2    3.63    0.69
   9   4  -2    0.86    0.70
   8   4  -2    2.60    0.77
  -8  -4   2    1.76    0.62
   7   4  -2    2.29    0.65
   7   4  -2    1.43    0.45
  -7  -4   2    2.00    0.66
  -7  -4   2    3.06    0.62
   6   4  -2    5.75    0.79
   6   4  -2    8.43    0.88
   6   4  -2    6.10    0.69
  -6  -4   2    5.41    0.85
  -6  -4   2    7.31    0.78
   5   4  -2   19.02    1.36
   5   4  -2   17.83    0.90
   5   4  -2   15.66    1.05
   5   4  -2   18.24    1.00
   5   4  -2   15.73    1.37
  -5  -4   2   17.89    1.15
  -5  -4   2   16.74    0.93
   4   4  -2   69.30    2.04
   4   4  -2   73.23    2.11
   4   4  -2   70.36    2.52
   4   4  -2   74.07    2.54
   4   4  -2   73.03    1.99
  -4  -4   2   73.30    2.29
  -4  -4   2   71.25    2.52
  -4  -4   2   76.11    2.91
  -4  -4   2   76.32    2.70
  -4  -4   2   70.00    2.01
   3   4  -2   98.85    3.02
   3   4  -2   97.79    2.42
   3   4  -2  105.00    2.56
   3   4  -2  100.89    2.52
   3   4  -2   98.73    2.96
  -3  -4   2  101.22    2.50
  -3  -4   2   99.59    2.76
  -3  -4   2  103.34    3.01
  -3  -4   2  103.62    3.01
  -3  -4   2  100.72    2.55
   2   4  -2   52.97    1.82
   2   4  -2   48.56    1.43
   2   4  -2   49.37    1.36
   2   4  -2   47.86    1.43
   2   4  -2   48.43    1.85
  -2  -4   2   50.04    1.70
  -2  -4   2   51.49    1.68
  -2  -4   2   48.64    1.42
  -2  -4   2   47.40    1.43
  -2  -4   2   48.33    1.77
  -2  -4   2   51.61    1.81
   1   4  -2   46.69    1.65
   1   4  -2   44.54    1.34
   1   4  -2   45.49    1.26
   1   4  -2   45.60    1.30
   1   4  -2   46.15    1.74
  -1  -4   2   45.03    1.52
  -1  -4   2   44.87    1.61
  -1  -4   2   45.17    1.32
  -1  -4   2   46.97    1.64
  -1  -4   2   44.94    1.36
  -1  -4   2   44.60    1.58
   0   4  -2   -0.02    0.34
   0   4  -2   -0.05    0.23
   0   4  -2    0.44    0.32
   0   4  -2   -0.04    0.18
   0   4  -2    0.05    0.21
   0   4  -2    0.14    0.15
   0  -4   2   -0.26    0.21
   0  -4   2    0.50    0.28
   0  -4   2   -0.16    0.35
   0  -4   2   -0.17    0.27
   0  -4   2   -0.03    0.29
   0  -4   2   -0.20    0.14
  -1   4  -2   48.25    1.72
  -1   4  -2   46.68    1.60
  -1   4  -2   47.99    1.51
  -1   4  -2   49.87    1.84
  -1   4  -2   46.34    1.37
  -1   4  -2   44.78    1.36
   1  -4   2   46.44    1.61
   1  -4   2   48.15    1.73
   1  -4   2   45.70    1.62
   1  -4   2   47.31    1.44
   1  -4   2   47.91    1.58
  -2   4  -2   66.84    2.19
  -2   4  -2   67.12    2.16
  -2   4  -2   69.30    1.88
  -2   4  -2   66.39    1.90
  -2   4  -2   67.44    2.35
  -2   4  -2   68.49    2.10
   2  -4   2   66.92    2.15
   2  -4   2   68.24    2.15
   2  -4   2   70.33    2.31
  -3   4  -2   14.28    0.86
  -3   4  -2   14.82    0.85
  -3   4  -2   12.91    0.98
   3  -4   2   13.40    1.04
   3  -4   2   15.40    1.08
   3  -4   2   15.78    1.35
  -4   4  -2   -0.11    0.25
  -4   4  -2    0.00    0.32
  -4   4  -2    0.77    0.39
  -4   4  -2   -0.49    0.42
   4  -4   2    0.92    0.52
   4  -4   2   -0.53    0.60
   4  -4   2   -0.17    0.46
  -5   4  -2    1.01    0.50
  -5   4  -2    2.64    0.52
   5  -4   2    1.47    0.66
   5  -4   2    2.88    0.78
   5  -4   2    3.41    1.01
  -6   4  -2    0.13    0.39
  -7   4  -2    1.39    0.56
   9   3  -2   -0.05    0.63
  -9  -3   2    1.30    0.61
   8   3  -2    8.80    1.13
   7   3  -2    0.26    0.49
  -7  -3   2    0.25    0.51
  -7  -3   2    0.43    0.44
   6   3  -2    6.02    0.69
   6   3  -2    4.58    0.77
   6   3  -2    5.39    0.70
  -6  -3   2    6.18    0.74
  -6  -3   2    5.88    0.81
   5   3  -2   66.51    2.15
   5   3  -2   67.90    2.06
   5   3  -2   66.36    1.95
   5   3  -2   71.99    2.49
   5   3  -2   67.37    2.55
  -5  -3   2   61.82    2.52
  -5  -3   2   63.80    2.14
  -5  -3   2   63.46    1.95
   4   3  -2   71.24    2.07
   4   3  -2   68.97    1.98
   4   3  -2   71.40    2.40
   4   3  -2   71.10    1.90
   4   3  -2   67.65    2.40
  -4  -3   2   71.08    2.14
  -4  -3   2   65.87    2.00
  -4  -3   2   69.88    1.94
  -4  -3   2   69.08    2.45
  -4  -3   2   72.43    2.33
   3   3  -2  177.64    4.41
   3   3  -2  184.02    4.04
   3   3  -2  175.08    4.47
   3   3  -2  176.78    3.98
   3   3  -2  179.30    3.88
  -3  -3   2  181.95    4.05
  -3  -3   2  175.93    3.92
  -3  -3   2  178.68    4.50
  -3  -3   2  176.34    4.43
  -3  -3   2  184.58    4.17
  -3  -3   2  180.37    4.32
   2   3  -2   79.75    2.31
   2   3  -2   81.52    2.00
   2   3  -2   77.72    1.90
   2   3  -2   79.62    2.40
   2   3  -2   79.70    1.99
  -2  -3   2   78.60    2.35
  -2  -3   2   81.45    2.28
  -2  -3   2   80.55    1.97
  -2  -3   2   82.93    2.20
  -2  -3   2   81.83    2.34
  -2  -3   2   78.87    1.99
   1   3  -2   11.67    0.79
   1   3  -2   12.13    0.58
   1   3  -2   12.58    0.57
   1   3  -2   11.88    0.83
   1   3  -2   12.78    0.52
  -1  -3   2   13.07    0.61
  -1  -3   2   13.22    0.80
  -1  -3   2   13.05    0.57
  -1  -3   2   12.07    0.77
  -1  -3   2   12.90    0.78
   0   3  -2   36.85    1.25
   0   3  -2   37.91    1.42
   0   3  -2   36.24    1.33
   0   3  -2   37.66    1.14
   0   3  -2   36.63    1.09
   0   3  -2   38.12    1.06
   0  -3   2   40.51    1.35
   0  -3   2   38.14    1.18
   0  -3   2   39.07    1.33
   0  -3   2   37.72    1.11
   0  -3   2   39.18    1.31
  -1   3  -2   68.49    1.97
  -1   3  -2   66.58    1.73
  -1   3  -2   68.27    1.72
  -1   3  -2   69.65    2.00
  -1   3  -2   66.71    1.84
  -1   3  -2   67.66    2.10
   1  -3   2   68.83    1.91
   1  -3   2   69.44    2.03
   1  -3   2   67.97    1.92
   1  -3   2   68.27    1.92
   1  -3   2   70.27    1.82
   1  -3   2   68.64    1.99
  -2   3  -2    3.07    0.50
  -2   3  -2    3.46    0.42
  -2   3  -2    4.73    0.57
  -2   3  -2    3.12    0.52
  -2   3  -2    4.54    0.46
   2  -3   2    4.52    0.63
   2  -3   2    3.84    0.51
   2  -3   2    5.33    0.63
   2  -3   2    3.26    0.49
   2  -3   2    5.15    0.59
   2  -3   2    3.78    0.44
  -3   3  -2    0.82    0.39
  -3   3  -2    1.52    0.50
  -3   3  -2    1.41    0.33
  -3   3  -2    0.79    0.38
  -3   3  -2    1.05    0.32
  -3   3  -2    1.06    0.38
   3  -3   2    0.48    0.34
   3  -3   2    0.32    0.39
   3  -3   2    0.68    0.48
  -4   3  -2    0.66    0.48
  -4   3  -2    0.19    0.32
  -4   3  -2    0.16    0.30
  -4   3  -2    0.31    0.32
   4  -3   2   -0.40    0.33
   4  -3   2    0.76    0.60
  -5   3  -2   -0.05    0.38
  -5   3  -2   -0.04    0.32
   5  -3   2   -0.25    0.70
   5  -3   2    0.63    0.55
  -6   3  -2    6.43    0.81
   6  -3   2    5.89    1.06
  -7   3  -2    2.72    0.65
   7  -3   2    2.27    0.90
   9   2  -2    8.34    1.31
  -9  -2   2   10.35    1.22
   8   2  -2    1.26    0.72
  -8  -2   2    2.27    0.63
   7   2  -2   15.19    1.38
   6   2  -2   52.05    1.90
   6   2  -2   51.35    2.02
   6   2  -2   50.50    1.78
   6   2  -2   53.79    2.21
   6   2  -2   48.08    2.30
  -6  -2   2   49.07    1.87
  -6  -2   2   51.56    1.81
   5   2  -2   41.83    1.79
   5   2  -2   38.92    1.91
   5   2  -2   40.21    1.49
   5   2  -2   38.89    1.61
   5   2  -2   40.98    1.41
  -5  -2   2   36.67    1.38
  -5  -2   2   37.12    1.49
  -5  -2   2   38.73    1.52
  -5  -2   2   42.83    1.77
  -5  -2   2   39.34    1.90
   4   2  -2  117.54    3.37
   4   2  -2  115.06    2.99
   4   2  -2  117.47    2.82
   4   2  -2  117.53    3.29
   4   2  -2  117.30    2.93
  -4  -2   2  119.28    3.19
  -4  -2   2  119.62    2.99
  -4  -2   2  116.35    2.83
  -4  -2   2  120.81    3.44
  -4  -2   2  116.92    2.99
   3   2  -2   10.12    0.54
   3   2  -2   10.44    0.69
   3   2  -2   10.48    0.83
   3   2  -2   11.64    0.89
   3   2  -2   10.36    0.58
  -3  -2   2   10.13    0.59
  -3  -2   2   10.47    0.77
  -3  -2   2   10.94    0.57
  -3  -2   2   11.03    0.71
  -3  -2   2   10.28    0.88
  -3  -2   2   10.71    0.91
   2   2  -2    3.01    0.50
   2   2  -2    2.23    0.28
   2   2  -2    2.46    0.28
   2   2  -2    2.83    0.49
   2   2  -2    2.21    0.33
  -2  -2   2    1.97    0.43
  -2  -2   2    1.53    0.24
  -2  -2   2    2.55    0.39
  -2  -2   2    1.92    0.44
  -2  -2   2    2.27    0.47
  -2  -2   2    2.11    0.26
   1   2  -2    2.80    0.27
   1   2  -2    3.49    0.35
   1   2  -2    3.58    0.28
   1   2  -2    3.53    0.49
   1   2  -2    3.88    0.35
   1   2  -2    3.04    0.46
  -1  -2   2    3.69    0.45
  -1  -2   2    3.20    0.43
  -1  -2   2    3.59    0.31
  -1  -2   2    2.42    0.41
  -1  -2   2    3.71    0.43
  -1  -2   2    2.83    0.29
  -1  -2   2    2.87    0.36
   0   2  -2   69.89    1.64
   0   2  -2   68.00    1.82
   0   2  -2   71.47    1.70
   0   2  -2   69.14    1.85
   0   2  -2   69.22    1.59
   0   2  -2   70.27    1.96
   0   2  -2   69.97    1.74
   0  -2   2   70.50    1.83
   0  -2   2   69.49    1.71
   0  -2   2   69.20    1.67
   0  -2   2   70.21    1.85
   0  -2   2   67.37    1.88
   0  -2   2   70.70    1.85
   0  -2   2   71.40    1.83
  -1   2  -2    1.53    0.27
  -1   2  -2    1.76    0.26
  -1   2  -2    1.28    0.26
  -1   2  -2    1.81    0.38
  -1   2  -2    0.93    0.31
   1  -2   2    1.83    0.32
   1  -2   2    1.64    0.39
   1  -2   2    1.84    0.34
   1  -2   2    1.87    0.28
   1  -2   2    1.09    0.28
   1  -2   2    1.87    0.33
  -2   2  -2   22.93    0.87
  -2   2  -2   22.70    0.98
  -2   2  -2   22.85    0.96
  -2   2  -2   24.22    0.87
  -2   2  -2   21.09    1.06
   2  -2   2   23.96    0.93
   2  -2   2   23.58    0.99
   2  -2   2   24.20    1.11
   2  -2   2   22.99    1.03
   2  -2   2   22.26    0.98
   2  -2   2   21.01    0.98
  -3   2  -2    7.26    0.62
  -3   2  -2    6.60    0.75
  -3   2  -2    7.12    0.62
  -3   2  -2    6.71    0.61
  -3   2  -2    6.03    0.65
  -3   2  -2    6.40    0.70
   3  -2   2    4.38    0.55
   3  -2   2    8.16    0.74
   3  -2   2    5.95    0.58
   3  -2   2    5.23    0.68
   3  -2   2    5.83    0.71
  -4   2  -2    0.70    0.40
  -4   2  -2    0.39    0.34
  -4   2  -2    0.36    0.39
  -4   2  -2    0.78    0.32
  -4   2  -2    0.44    0.41
   4  -2   2    0.73    0.35
   4  -2   2    0.46    0.49
   4  -2   2    0.05    0.38
   4  -2   2    0.10    0.29
  -5   2  -2    3.27    0.80
  -5   2  -2    2.61    0.54
  -5   2  -2    2.57    0.54
   5  -2   2    2.36    0.77
   5  -2   2    3.59    0.80
  -6   2  -2    4.89    0.70
   6  -2   2    4.46    0.93
  -7   2  -2    1.84    0.56
   7  -2   2    2.97    0.91
  -8   2  -2    0.06    0.50
   8  -2   2   -0.80    0.60
   9   1  -2    3.83    1.02
  -9  -1   2    2.71    0.74
   8   1  -2    6.84    1.15
  -8  -1   2    4.70    0.81
   7   1  -2    7.16    1.00
  -7  -1   2    7.93    0.89
   6   1  -2   -0.06    0.51
   6   1  -2    0.24    0.56
  -6  -1   2   -0.18    0.61
  -6  -1   2    0.42    0.44
  -6  -1   2   -0.12    0.31
   5   1  -2   67.66    2.03
   5   1  -2   64.19    1.90
   5   1  -2   61.65    2.39
   5   1  -2   60.57    2.20
   5   1  -2   62.61    2.13
  -5  -1   2   61.54    2.03
  -5  -1   2   55.01    2.32
  -5  -1   2   62.20    2.19
  -5  -1   2   61.71    1.95
  -5  -1   2   61.86    1.90
   4   1  -2   86.91    2.25
   4   1  -2   88.28    2.76
   4   1  -2   86.04    2.41
   4   1  -2   86.12    2.60
   4   1  -2   87.35    2.34
  -4  -1   2   88.81    2.38
  -4  -1   2   86.46    2.25
  -4  -1   2   91.40    2.77
  -4  -1   2   87.29    2.33
  -4  -1   2   86.34    2.52
   3   1  -2    0.69    0.41
   3   1  -2    1.02    0.34
   3   1  -2    0.66    0.20
   3   1  -2    0.82    0.32
   3   1  -2    1.22    0.24
  -3  -1   2    0.62    0.22
  -3  -1   2    1.19    0.40
  -3  -1   2    0.74    0.29
  -3  -1   2    0.82    0.33
  -3  -1   2    0.82    0.23
   2   1  -2    9.35    0.66
   2   1  -2    7.91    0.54
   2   1  -2    8.72    0.72
   2   1  -2    8.87    0.46
   2   1  -2    9.03    0.44
  -2  -1   2    8.93    0.69
  -2  -1   2    8.65    0.43
  -2  -1   2   10.11    0.73
  -2  -1   2    8.25    0.45
  -2  -1   2    8.20    0.61
  -2  -1   2    8.96    0.55
   1   1  -2    0.47    0.28
   1   1  -2    0.57    0.16
   1   1  -2    0.39    0.25
   1   1  -2    0.41    0.15
   1   1  -2    0.52    0.16
   1   1  -2    0.71    0.21
  -1  -1   2    0.38    0.16
  -1  -1   2    0.71    0.28
  -1  -1   2    0.58    0.26
  -1  -1   2    0.69    0.17
  -1  -1   2    0.55    0.29
  -1  -1   2    0.40    0.28
   0   1  -2   87.93    2.04
   0   1  -2   89.83    2.15
   0   1  -2   84.54    1.92
   0   1  -2   85.21    1.93
   0   1  -2   88.53    1.88
   0   1  -2   86.13    1.84
   0   1  -2   86.45    2.08
   0  -1   2   89.52    2.02
   0  -1   2   85.29    1.91
   0  -1   2   85.05    2.02
   0  -1   2   88.31    2.13
   0  -1   2   82.97    2.07
   0  -1   2   85.53    1.92
   0  -1   2   87.77    2.08
  -1   1  -2   28.01    0.87
  -1   1  -2   28.02    0.84
  -1   1  -2   27.72    0.93
  -1   1  -2   28.31    0.80
  -1   1  -2   28.53    1.00
   1  -1   2   29.41    0.93
   1  -1   2   27.57    0.96
   1  -1   2   27.63    0.86
   1  -1   2   28.91    0.97
   1  -1   2   28.77    0.92
   1  -1   2   28.26    0.99
   1  -1   2   28.22    0.90
  -2   1  -2    2.21    0.35
  -2   1  -2    2.67    0.33
  -2   1  -2    2.81    0.35
  -2   1  -2    2.20    0.35
  -2   1  -2    2.57    0.41
   2  -1   2    2.30    0.31
   2  -1   2    2.50    0.35
   2  -1   2    1.74    0.40
   2  -1   2    2.63    0.42
   2  -1   2    2.43    0.36
   2  -1   2    2.04    0.33
  -3   1  -2    3.36    0.48
  -3   1  -2    3.66    0.44
  -3   1  -2    4.23    0.48
  -3   1  -2    3.28    0.50
  -3   1  -2    3.39    0.39
  -3   1  -2    3.80    0.49
   3  -1   2    3.10    0.49
   3  -1   2    2.86    0.42
   3  -1   2    3.02    0.41
   3  -1   2    3.84    0.49
   3  -1   2    3.11    0.51
  -4   1  -2    4.16    0.55
  -4   1  -2    3.87    0.52
  -4   1  -2    3.94    0.62
  -4   1  -2    3.09    0.54
  -4   1  -2    3.51    0.50
   4  -1   2    3.67    0.53
   4  -1   2    4.87    0.61
   4  -1   2    5.38    0.77
   4  -1   2    4.13    0.65
   4  -1   2    3.92    0.57
  -5   1  -2   37.15    1.58
  -5   1  -2   38.00    1.61
  -5   1  -2   36.25    1.50
  -5   1  -2   38.91    1.85
   5  -1   2   41.00    1.77
   5  -1   2   37.90    1.64
   5  -1   2   39.96    1.82
   5  -1   2   37.92    1.81
  -6   1  -2   19.56    1.15
   6  -1   2   18.40    1.42
  -7   1  -2    2.51    0.62
   7  -1   2    2.20    0.74
  -8   1  -2    2.44    0.64
   8  -1   2    2.38    0.87
   9   0  -2    1.67    0.84
  -9   0   2    0.60    0.58
   8   0  -2    1.20    0.72
  -8   0   2    1.72    0.55
   7   0  -2    0.59    0.61
  -7   0   2    0.43    0.41
   6   0  -2   48.12    2.24
   6   0  -2   42.84    1.97
  -6   0   2   43.96    1.74
  -6   0   2   45.09    2.28
  -6   0   2   46.48    2.00
   5   0  -2    5.85    0.63
   5   0  -2    4.89    0.59
   5   0  -2    4.48    0.78
   5   0  -2    5.26    0.73
  -5   0   2    5.62    0.91
  -5   0   2    4.73    0.59
  -5   0   2    4.38    0.56
  -5   0   2    5.68    0.74
  -5   0   2    6.25    0.75
   4   0  -2    1.94    0.57
   4   0  -2    2.62    0.46
   4   0  -2    3.87    0.45
   4   0  -2    2.18    0.35
   4   0  -2    3.07    0.51
  -4   0   2    3.65    0.61
  -4   0   2    3.18    0.41
  -4   0   2    3.45    0.51
  -4   0   2    3.49    0.47
  -4   0   2    2.94    0.46
   3   0  -2   19.36    0.76
   3   0  -2   19.84    0.75
   3   0  -2   18.85    0.92
   3   0  -2   18.09    1.06
   3   0  -2   18.97    0.79
   3   0  -2   19.83    0.91
  -3   0   2   18.58    0.79
  -3   0   2   16.37    0.84
  -3   0   2   19.43    0.81
  -3   0   2   19.27    1.02
  -3   0   2   18.50    0.75
   2   0  -2    2.55    0.36
   2   0  -2    2.39    0.27
   2   0  -2    2.60    0.28
   2   0  -2    2.78    0.27
   2   0  -2    2.79    0.46
   2   0  -2    3.84    0.40
  -2   0   2    2.22    0.33
  -2   0   2    1.92    0.41
  -2   0   2    2.70    0.28
  -2   0   2    2.66    0.30
  -2   0   2    2.74    0.31
  -2   0   2    2.21    0.37
   1   0  -2   43.93    1.01
   1   0  -2   39.37    1.19
   1   0  -2   43.75    1.20
   1   0  -2   42.35    1.03
  -1   0   2   44.27    1.20
  -1   0   2   43.07    1.04
  -1   0   2   43.23    1.05
  -1   0   2   41.51    1.00
  -1   0   2   41.85    1.21
  -1   0   2   43.42    1.14
   0   0  -2   97.25    2.23
   0   0  -2  101.21    2.26
   0   0  -2   98.67    2.07
   0   0  -2  101.45    2.15
   0   0  -2  101.06    2.10
   0   0   2  103.80    2.13
   0   0   2  102.82    2.19
   0   0   2  103.18    2.26
   0   0   2  100.14    2.11
   0   0   2  101.61    2.10
   0   0   2   98.39    2.06
  -1   0  -2  302.01    6.00
  -1   0  -2  303.86    6.04
  -1   0  -2  294.65    6.10
  -1   0  -2  307.99    5.90
  -1   0  -2  292.11    6.19
   1   0   2  308.81    5.97
   1   0   2  300.78    6.01
   1   0   2  299.99    6.09
   1   0   2  305.44    5.99
   1   0   2  296.88    6.01
  -2   0  -2    2.42    0.29
  -2   0  -2    2.20    0.30
  -2   0  -2    1.77    0.27
  -2   0  -2    2.54    0.42
  -2   0  -2    2.37    0.30
  -2   0  -2    1.40    0.26
   2   0   2    2.01    0.35
   2   0   2    2.45    0.35
   2   0   2    1.58    0.31
   2   0   2    2.20    0.32
   2   0   2    2.37    0.31
  -3   0  -2    6.16    0.52
  -3   0  -2    7.74    0.56
  -3   0  -2    6.91    0.53
  -3   0  -2    6.46    0.60
   3   0   2    6.43    0.57
   3   0   2    5.44    0.51
   3   0   2    6.75    0.63
   3   0   2    7.25    0.56
   3   0   2    7.90    0.71
  -4   0  -2   93.57    2.49
  -4   0  -2   91.36    2.43
  -4   0  -2   90.43    2.71
  -4   0  -2   90.54    2.68
  -4   0  -2   95.19    2.51
   4   0   2   94.10    2.52
   4   0   2   92.18    2.58
   4   0   2   95.09    2.60
   4   0   2   91.06    2.64
   4   0   2   88.02    2.67
  -5   0  -2   39.03    1.79
  -5   0  -2   38.85    1.54
  -5   0  -2   36.04    1.45
  -5   0  -2   35.62    1.52
   5   0   2   36.78    1.49
   5   0   2   36.25    1.71
   5   0   2   37.87    1.60
   5   0   2   42.94    1.63
   5   0   2   37.81    1.75
  -6   0  -2    0.33    0.45
  -6   0  -2    0.66    0.42
   6   0   2    0.08    0.53
  -7   0  -2    1.18    0.51
   7   0   2    0.83    0.64
  -8   0  -2   -0.03    0.46
   8   0   2    0.76    0.64
   8  -1  -2    0.42    0.74
  -8   1   2    1.16    0.51
   7  -1  -2   -0.36    0.55
  -7   1   2    0.15    0.39
   6  -1  -2    0.91    0.65
   6  -1  -2    0.63    0.65
  -6   1   2    1.16    0.54
  -6   1   2    0.66    0.39
  -6   1   2    1.20    0.77
   5  -1  -2   24.37    1.48
   5  -1  -2   23.09    1.16
   5  -1  -2   20.86    1.30
  -5   1   2   19.84    1.03
  -5   1   2   21.64    1.43
  -5   1   2   22.22    1.23
  -5   1   2   22.26    1.11
  -5   1   2   22.34    1.23
   4  -1  -2    2.68    0.56
   4  -1  -2    3.69    0.57
   4  -1  -2    4.74    0.59
   4  -1  -2    3.60    0.44
   4  -1  -2    5.37    0.58
  -4   1   2    4.40    0.70
  -4   1   2    3.26    0.45
  -4   1   2    3.66    0.54
  -4   1   2    4.14    0.50
  -4   1   2    3.95    0.53
   3  -1  -2   -0.04    0.16
   3  -1  -2   -0.15    0.28
   3  -1  -2    0.14    0.17
   3  -1  -2    0.23    0.34
   3  -1  -2    0.63    0.27
   3  -1  -2    0.21    0.18
  -3   1   2    0.15    0.20
  -3   1   2    0.04    0.19
  -3   1   2   -0.16    0.26
  -3   1   2    0.29    0.21
  -3   1   2    0.05    0.20
   2  -1  -2   12.73    0.54
   2  -1  -2   12.80    0.63
   2  -1  -2   12.59    0.77
   2  -1  -2   12.62    0.63
  -2   1   2   13.14    0.57
  -2   1   2   12.88    0.54
  -2   1   2   13.44    0.59
  -2   1   2   12.90    0.54
  -2   1   2   11.68    0.67
   1  -1  -2  277.69    5.71
   1  -1  -2  281.81    5.71
   1  -1  -2  279.47    5.63
   1  -1  -2  282.92    5.51
  -1   1   2  284.27    5.76
  -1   1   2  287.45    5.66
  -1   1   2  284.87    5.40
  -1   1   2  273.61    5.50
  -1   1   2  278.93    5.50
   0  -1  -2   71.26    1.46
   0  -1  -2   72.01    1.42
   0  -1  -2   71.16    1.40
   0  -1  -2   71.81    1.44
   0   1   2   71.80    1.45
   0   1   2   73.17    1.51
  -1  -1  -2   83.16    1.84
  -1  -1  -2   82.93    1.76
  -1  -1  -2   83.56    1.82
  -1  -1  -2   85.02    1.86
   1   1   2   86.78    1.87
   1   1   2   83.44    1.84
   1   1   2   84.46    1.78
   1   1   2   86.93    1.73
  -2  -1  -2   12.26    0.53
  -2  -1  -2   13.89    0.61
  -2  -1  -2   13.30    0.55
  -2  -1  -2   14.85    0.72
  -2  -1  -2   13.97    0.63
   2   1   2   11.96    0.57
   2   1   2   12.58    0.60
   2   1   2   14.29    0.64
   2   1   2   13.74    0.59
   2   1   2   13.39    0.62
  -3  -1  -2   99.07    2.54
  -3  -1  -2  100.65    2.36
  -3  -1  -2   98.21    2.62
  -3  -1  -2   95.42    2.31
  -3  -1  -2   96.36    2.36
  -3  -1  -2   97.16    2.46
   3   1   2   94.99    2.42
   3   1   2   97.54    2.43
   3   1   2   91.47    2.34
   3   1   2   92.97    2.48
   3   1   2   95.09    2.47
  -4  -1  -2   52.00    1.67
  -4  -1  -2   49.87    1.58
  -4  -1  -2   50.61    1.60
  -4  -1  -2   51.67    1.72
  -4  -1  -2   53.87    1.87
   4   1   2   52.21    1.62
   4   1   2   53.52    1.68
   4   1   2   50.92    1.72
   4   1   2   51.41    1.73
   4   1   2   49.63    1.78
  -5  -1  -2   15.54    1.18
  -5  -1  -2   15.33    0.95
  -5  -1  -2   16.28    0.92
   5   1   2   16.25    1.05
   5   1   2   12.27    1.06
   5   1   2   14.76    0.94
   5   1   2   15.24    1.12
   5   1   2   14.27    0.88
  -6  -1  -2   25.14    1.32
  -6  -1  -2   24.17    1.32
   6   1   2   25.95    1.29
   6   1   2   24.60    1.48
   6   1   2   24.83    1.36
  -7  -1  -2    0.81    0.46
   7   1   2    1.07    0.58
  -8  -1  -2    0.32    0.49
   8   1   2    0.47    0.62
  -9  -1  -2    0.91    0.58
   9   1   2    0.65    0.73
  -8   2   2    0.83    0.50
   7  -2  -2    2.27    0.86
  -7   2   2    3.43    0.60
   6  -2  -2   18.07    1.66
   6  -2  -2   16.81    1.49
  -6   2   2   18.76    1.30
  -6   2   2   17.80    1.63
  -6   2   2   17.47    1.03
   5  -2  -2    2.05    0.69
   5  -2  -2    1.83    0.65
  -5   2   2    2.18    0.66
  -5   2   2    2.64    0.54
  -5   2   2    2.52    0.49
   4  -2  -2    6.92    0.66
   4  -2  -2    8.36    0.84
   4  -2  -2    6.44    0.83
  -4   2   2    7.20    0.63
  -4   2   2    4.61    0.57
  -4   2   2    7.51    0.84
  -4   2   2    7.51    0.76
  -4   2   2    6.85    0.64
   3  -2  -2    3.79    0.45
   3  -2  -2    4.31    0.45
   3  -2  -2    2.29    0.48
   3  -2  -2    3.87    0.51
   3  -2  -2    3.76    0.43
  -3   2   2    4.14    0.48
  -3   2   2    4.01    0.46
  -3   2   2    3.68    0.39
  -3   2   2    3.51    0.41
  -3   2   2    3.46    0.51
   2  -2  -2   56.03    1.42
   2  -2  -2   51.92    1.42
   2  -2  -2   53.53    1.46
   2  -2  -2   55.07    1.66
  -2   2   2   53.07    1.41
  -2   2   2   52.57    1.55
  -2   2   2   54.57    1.31
  -2   2   2   55.98    1.51
  -2   2   2   53.61    1.40
   1  -2  -2  557.96   11.23
   1  -2  -2  591.60   11.01
   1  -2  -2  552.23   11.18
   1  -2  -2  560.04   11.22
  -1   2   2  576.08   10.69
  -1   2   2  578.00   10.99
  -1   2   2  585.02   10.68
  -1   2   2  565.60   11.27
  -1   2   2  550.16   11.29
   0   2   2  389.15    7.51
   0   2   2  380.86    7.50
  -1  -2  -2    0.27    0.12
  -1  -2  -2    0.07    0.08
  -1  -2  -2    0.14    0.12
  -1  -2  -2    0.14    0.09
   1   2   2    0.06    0.09
   1   2   2    0.09    0.15
   1   2   2    0.23    0.11
   1   2   2    0.07    0.13
  -2  -2  -2   12.91    0.60
  -2  -2  -2   12.65    0.62
  -2  -2  -2   12.53    0.51
  -2  -2  -2   12.09    0.46
   2   2   2   12.60    0.46
   2   2   2   11.60    0.50
   2   2   2   11.74    0.50
   2   2   2   11.77    0.58
   2   2   2   12.06    0.55
   2   2   2   12.42    0.47
  -3  -2  -2  163.32    3.60
  -3  -2  -2  171.65    3.79
  -3  -2  -2  171.47    3.98
  -3  -2  -2  167.51    3.92
  -3  -2  -2  174.26    3.66
   3   2   2  168.33    3.65
   3   2   2  166.71    3.88
   3   2   2  164.34    3.81
   3   2   2  165.40    3.74
   3   2   2  162.15    3.64
  -4  -2  -2   33.02    1.15
  -4  -2  -2   34.53    1.21
  -4  -2  -2   32.06    1.29
  -4  -2  -2   31.43    1.52
  -4  -2  -2   33.50    1.40
  -4  -2  -2   31.59    1.23
   4   2   2   32.88    1.32
   4   2   2   32.41    1.20
   4   2   2   32.84    1.18
   4   2   2   32.16    1.36
   4   2   2   30.96    1.23
  -5  -2  -2    2.21    0.43
  -5  -2  -2    2.06    0.55
   5   2   2    2.22    0.50
   5   2   2    2.64    0.60
   5   2   2    2.07    0.51
   5   2   2    1.81    0.41
   5   2   2    1.65    0.43
  -6  -2  -2   20.73    1.22
  -6  -2  -2   21.57    1.17
   6   2   2   18.60    1.27
   6   2   2   22.33    1.25
   6   2   2   22.31    1.14
  -7  -2  -2    0.95    0.58
  -7  -2  -2    1.52    0.51
   7   2   2    2.02    0.53
   7   2   2    2.08    0.67
  -8  -2  -2    1.63    0.62
   8   2   2    1.88    0.71
  -9  -2  -2    1.83    0.69
   9   2   2    0.82    0.71
  -8   3   2    0.78    0.52
  -7   3   2    8.71    0.90
   6  -3  -2    1.46    0.78
  -6   3   2    0.87    0.37
  -6   3   2    1.01    0.64
  -6   3   2   -0.30    0.69
   5  -3  -2    0.45    0.57
  -5   3   2    0.14    0.51
  -5   3   2   -0.05    0.34
  -5   3   2    0.33    0.29
   4  -3  -2   19.80    1.21
   4  -3  -2   20.71    1.30
  -4   3   2   19.53    1.03
  -4   3   2   19.01    1.24
  -4   3   2   19.66    0.89
  -4   3   2   20.38    1.14
   3  -3  -2   36.20    1.53
   3  -3  -2   38.27    1.29
   3  -3  -2   38.37    1.43
   3  -3  -2   40.43    1.32
  -3   3   2   36.92    1.13
  -3   3   2   38.71    1.30
  -3   3   2   38.17    1.48
  -3   3   2   38.22    1.31
  -3   3   2   40.54    1.44
   2  -3  -2  254.34    5.35
   2  -3  -2  243.60    5.53
   2  -3  -2  248.04    5.33
   2  -3  -2  260.43    5.29
  -2   3   2  248.47    5.20
  -2   3   2  253.65    4.99
  -2   3   2  248.96    5.47
  -2   3   2  245.41    5.26
  -2   3   2  263.14    5.07
  -2   3   2  250.59    5.48
   1  -3  -2   43.27    1.07
   1  -3  -2   42.66    1.26
   1  -3  -2   42.12    1.09
   1  -3  -2   42.06    1.13
  -1   3   2   44.58    1.12
  -1   3   2   40.81    1.14
  -1   3   2   40.76    1.17
   0  -3  -2    6.95    0.22
   0  -3  -2    6.87    0.31
   0  -3  -2    6.74    0.33
   0  -3  -2    6.68    0.23
   0  -3  -2    7.03    0.34
   0   3   2    6.64    0.33
   0   3   2    7.21    0.27
   0   3   2    7.03    0.23
   0   3   2    6.59    0.27
  -1  -3  -2    2.97    0.13
  -1  -3  -2    3.50    0.12
  -1  -3  -2    2.65    0.24
  -1  -3  -2    3.14    0.18
   1   3   2    2.88    0.15
   1   3   2    2.96    0.18
   1   3   2    3.09    0.27
   1   3   2    2.69    0.21
  -2  -3  -2  251.37    5.42
  -2  -3  -2  253.49    5.13
  -2  -3  -2  261.89    5.39
  -2  -3  -2  256.45    5.27
   2   3   2  264.11    5.20
   2   3   2  263.20    5.47
  -3  -3  -2    1.38    0.39
  -3  -3  -2    1.79    0.26
  -3  -3  -2    1.72    0.27
  -3  -3  -2    1.75    0.36
   3   3   2    1.23    0.32
   3   3   2    1.38    0.25
   3   3   2    1.63    0.27
   3   3   2    1.48    0.35
   3   3   2    1.72    0.29
   3   3   2    1.57    0.29
  -4  -3  -2    7.12    0.64
  -4  -3  -2    7.29    0.53
  -4  -3  -2    6.76    0.59
  -4  -3  -2    5.71    0.65
  -4  -3  -2    6.64    0.79
   4   3   2    7.24    0.53
   4   3   2    7.48    0.57
   4   3   2    7.74    0.64
   4   3   2    6.35    0.65
   4   3   2    6.89    0.71
  -5  -3  -2    1.99    0.40
  -5  -3  -2    1.63    0.44
  -5  -3  -2    1.97    0.53
   5   3   2    2.48    0.58
   5   3   2    2.22    0.49
   5   3   2    2.76    0.55
   5   3   2    1.53    0.40
   5   3   2    1.80    0.38
  -6  -3  -2    0.95    0.38
  -6  -3  -2    0.98    0.47
   6   3   2    1.21    0.37
   6   3   2    0.85    0.40
   6   3   2    0.97    0.49
  -7  -3  -2    1.25    0.50
   7   3   2    0.87    0.47
   7   3   2    1.62    0.59
   7   3   2    0.45    0.47
   8   3   2    2.49    0.73
   9   3   2    0.04    0.62
  -7   4   2    7.20    0.84
   6  -4  -2    3.14    0.96
  -6   4   2    2.36    0.73
  -6   4   2    1.83    0.47
   5  -4  -2    0.84    0.66
  -5   4   2    0.91    0.63
  -5   4   2    0.60    0.46
  -5   4   2    0.40    0.31
   4  -4  -2    1.63    0.58
  -4   4   2    1.59    0.42
  -4   4   2    1.01    0.33
  -4   4   2    1.68    0.59
   3  -4  -2   47.49    1.56
   3  -4  -2   49.48    1.87
  -3   4   2   47.66    1.56
  -3   4   2   52.58    1.60
  -3   4   2   51.17    1.79
  -3   4   2   49.62    1.34
  -3   4   2   51.90    1.80
  -3   4   2   48.67    1.63
   2  -4  -2  132.77    3.13
   2  -4  -2  130.37    3.34
   2  -4  -2  129.00    3.11
  -2   4   2  138.74    3.15
  -2   4   2  132.02    3.02
  -2   4   2  131.64    3.31
  -2   4   2  139.03    2.79
  -2   4   2  134.66    2.74
  -2   4   2  134.60    3.26
   1  -4  -2    7.51    0.49
   1  -4  -2    7.31    0.40
   1  -4  -2    6.82    0.37
   1  -4  -2    6.48    0.51
  -1   4   2    7.55    0.46
  -1   4   2    7.50    0.50
  -1   4   2    6.80    0.50
  -1   4   2    7.29    0.43
   0  -4  -2    2.53    0.19
   0  -4  -2    2.28    0.29
   0  -4  -2    2.15    0.27
   0  -4  -2    2.99    0.30
   0  -4  -2    2.68    0.22
   0   4   2    2.28    0.22
   0   4   2    3.38    0.32
   0   4   2    2.79    0.20
   0   4   2    2.84    0.31
  -1  -4  -2   28.09    0.71
  -1  -4  -2   28.76    0.91
  -1  -4  -2   28.82    0.68
  -1  -4  -2   28.16    0.76
   1   4   2   29.04    0.93
   1   4   2   29.10    0.70
   1   4   2   28.46    0.75
   1   4   2   29.94    0.84
  -2  -4  -2    0.63    0.15
  -2  -4  -2    0.76    0.14
  -2  -4  -2    0.74    0.31
  -2  -4  -2    0.55    0.22
   2   4   2    0.27    0.25
   2   4   2    0.49    0.26
   2   4   2    0.78    0.19
   2   4   2    0.22    0.13
  -3  -4  -2    0.78    0.19
  -3  -4  -2    0.80    0.31
  -3  -4  -2    1.05    0.38
  -3  -4  -2    0.85    0.21
   3   4   2    0.73    0.28
   3   4   2    0.42    0.28
   3   4   2    0.44    0.19
   3   4   2    0.81    0.21
  -4  -4  -2    0.18    0.31
  -4  -4  -2    0.18    0.43
  -4  -4  -2    0.25    0.20
  -4  -4  -2    0.11    0.29
   4   4   2    0.23    0.22
   4   4   2    0.37    0.24
   4   4   2   -0.14    0.26
   4   4   2    0.21    0.34
   4   4   2    0.27    0.20
   4   4   2    0.18    0.26
  -5  -4  -2   17.26    1.28
  -5  -4  -2   18.84    1.07
  -5  -4  -2   16.40    0.86
   5   4   2   17.48    0.92
   5   4   2   16.38    0.92
   5   4   2   17.35    1.10
   5   4   2   16.81    0.88
  -6  -4  -2    0.17    0.32
   6   4   2   -0.07    0.27
   6   4   2    0.17    0.35
   6   4   2   -0.29    0.36
  -7  -4  -2    8.06    0.91
   7   4   2    7.27    0.90
   7   4   2    9.68    0.99
   7   4   2    6.73    0.83
  -8  -4  -2    1.76    0.63
   8   4   2    2.66    0.68
   8   4   2    2.23    0.74
   9   4   2    0.30    0.70
  -7   5   2    5.34    0.71
   6  -5  -2    0.82    0.81
  -6   5   2    0.47    0.37
  -6   5   2    0.14    0.57
   5  -5  -2    3.63    0.89
  -5   5   2    3.13    0.72
  -5   5   2    2.85    0.47
   4  -5  -2   17.20    1.45
  -4   5   2   15.96    1.34
  -4   5   2   12.78    1.10
  -4   5   2   15.25    0.73
   3  -5  -2   84.21    2.74
  -3   5   2   90.92    2.70
  -3   5   2   86.92    2.43
  -3   5   2   92.48    2.04
   2  -5  -2    0.41    0.19
   2  -5  -2    0.55    0.31
   2  -5  -2    0.21    0.30
  -2   5   2    0.18    0.25
  -2   5   2    0.55    0.23
  -2   5   2    0.49    0.27
  -2   5   2    0.20    0.27
  -2   5   2    0.15    0.33
   1  -5  -2   15.43    0.81
   1  -5  -2   18.15    0.81
   1  -5  -2   16.88    0.69
  -1   5   2   17.01    0.66
  -1   5   2   18.42    0.83
  -1   5   2   16.83    0.75
  -1   5   2   15.30    0.83
  -1   5   2   18.37    0.70
   0  -5  -2   10.69    0.56
   0  -5  -2   11.06    0.61
   0  -5  -2    9.75    0.40
   0  -5  -2   10.86    0.55
   0  -5  -2   10.18    0.46
   0   5   2   10.15    0.45
   0   5   2   10.78    0.64
   0   5   2   10.46    0.59
  -1  -5  -2    6.04    0.38
  -1  -5  -2    6.67    0.30
  -1  -5  -2    6.63    0.46
  -1  -5  -2    6.39    0.54
  -1  -5  -2    6.67    0.34
   1   5   2    6.62    0.49
   1   5   2    6.94    0.58
   1   5   2    6.21    0.35
   1   5   2    6.86    0.33
  -2  -5  -2    7.42    0.35
  -2  -5  -2    7.42    0.64
  -2  -5  -2    6.97    0.40
  -2  -5  -2    7.26    0.45
   2   5   2    7.75    0.58
   2   5   2    7.15    0.37
   2   5   2    7.15    0.62
  -3  -5  -2   26.46    0.90
  -3  -5  -2   30.22    1.30
  -3  -5  -2   29.86    1.14
   3   5   2   28.81    1.22
   3   5   2   31.34    1.14
   3   5   2   27.94    0.94
  -4  -5  -2   32.89    1.57
  -4  -5  -2   32.25    1.40
  -4  -5  -2   34.44    1.14
   4   5   2   34.21    1.46
   4   5   2   33.85    1.30
   4   5   2   35.29    1.15
   4   5   2   31.95    1.16
  -5  -5  -2    0.83    0.31
   5   5   2    0.94    0.31
   5   5   2    1.10    0.33
   5   5   2    1.38    0.38
   5   5   2    1.19    0.37
  -6  -5  -2   49.83    1.76
   6   5   2   49.67    1.63
   6   5   2   50.32    1.83
   6   5   2   49.13    1.74
  -7  -5  -2    2.71    0.58
   7   5   2    1.45    0.50
   7   5   2    1.79    0.58
   7   5   2    1.91    0.56
  -8  -5  -2    0.85    0.56
   8   5   2    0.32    0.58
   8   5   2    1.53    0.55
   9   5   2    0.82    0.74
   6  -6  -2   -0.38    0.83
  -6   6   2   -0.17    0.63
  -6   6   2   -0.19    0.35
   5  -6  -2    1.30    0.73
  -5   6   2    0.24    0.51
  -5   6   2    0.93    0.33
   4  -6  -2   19.30    1.48
  -4   6   2   19.07    1.19
  -4   6   2   17.91    1.18
  -4   6   2   17.78    0.68
   3  -6  -2    0.91    0.52
  -3   6   2    0.73    0.36
  -3   6   2    0.85    0.47
  -3   6   2    0.96    0.41
   2  -6  -2    9.65    0.89
  -2   6   2    9.97    0.79
  -2   6   2   10.53    0.66
  -2   6   2    9.83    0.68
   1  -6  -2   17.36    0.76
   1  -6  -2   17.27    0.91
  -1   6   2   17.29    0.73
  -1   6   2   16.54    0.82
  -1   6   2   19.70    1.03
  -1   6   2   18.09    0.75
   0  -6  -2    1.30    0.35
   0  -6  -2    1.19    0.23
   0  -6  -2    1.21    0.29
   0   6   2    1.93    0.41
   0   6   2    0.44    0.20
   0   6   2    0.78    0.33
  -1  -6  -2    2.06    0.30
  -1  -6  -2    1.76    0.24
  -1  -6  -2    3.04    0.47
   1   6   2    1.87    0.24
   1   6   2    2.53    0.43
   1   6   2    2.16    0.44
  -2  -6  -2    2.74    0.48
  -2  -6  -2    3.26    0.34
  -2  -6  -2    2.43    0.30
   2   6   2    3.00    0.29
   2   6   2    2.28    0.44
   2   6   2    2.79    0.49
  -3  -6  -2    3.17    0.58
  -3  -6  -2    4.34    0.49
  -3  -6  -2    4.50    0.42
   3   6   2    4.47    0.42
   3   6   2    3.85    0.57
   3   6   2    3.26    0.54
  -4  -6  -2    1.19    0.30
  -4  -6  -2    1.87    0.43
   4   6   2    1.63    0.30
   4   6   2    1.65    0.50
   4   6   2    1.62    0.33
  -5  -6  -2   84.65    2.31
   5   6   2   82.70    2.35
   5   6   2   83.47    2.30
  -6  -6  -2    8.19    0.81
   6   6   2    7.64    0.57
   6   6   2    7.20    0.78
   6   6   2    8.40    0.79
  -7  -6  -2   18.64    1.19
   7   6   2   17.68    1.15
   7   6   2   17.42    0.99
  -8  -6  -2    2.06    0.65
   8   6   2    2.04    0.61
   8   6   2    2.32    0.61
   9   6   2    1.24    0.63
   9   6   2    1.89    0.68
   5  -7  -2    2.72    0.98
  -5   7   2    2.17    0.79
   4  -7  -2    7.99    1.15
  -4   7   2    4.53    0.75
  -4   7   2    6.10    0.88
   3  -7  -2    2.15    0.67
  -3   7   2    1.60    0.49
   2  -7  -2   -0.12    0.38
   2  -7  -2    0.32    0.40
  -2   7   2    0.27    0.30
  -2   7   2   -0.14    0.36
  -2   7   2    0.00    0.30
   1  -7  -2   21.16    1.12
   1  -7  -2   23.17    1.15
  -1   7   2   24.61    1.08
  -1   7   2   21.64    0.91
   0  -7  -2   20.39    0.79
   0  -7  -2   20.21    0.94
   0   7   2   20.73    0.90
   0   7   2   16.98    0.73
   0   7   2   19.71    1.15
  -1  -7  -2   21.82    0.90
  -1  -7  -2   23.23    0.80
  -1  -7  -2   22.26    1.12
   1   7   2   21.65    1.20
  -2  -7  -2    9.48    0.52
  -2  -7  -2    9.16    0.56
  -2  -7  -2   10.13    0.89
   2   7   2   10.14    0.93
  -3  -7  -2    8.10    0.59
  -3  -7  -2    8.12    0.54
   3   7   2    7.11    0.52
   3   7   2    6.89    0.79
  -4  -7  -2  108.44    2.69
   4   7   2  108.03    2.74
   4   7   2  107.98    2.64
  -5  -7  -2    5.09    0.59
   5   7   2    5.44    0.59
   5   7   2    6.29    0.64
  -6  -7  -2   21.50    1.12
   6   7   2   19.72    1.09
  -7  -7  -2    8.61    0.91
   7   7   2    7.08    0.83
  -8  -7  -2    0.47    0.53
   8   7   2    0.22    0.48
  -9  -7  -2    3.62    0.99
   9   7   2    3.50    0.81
   4  -8  -2    1.75    0.78
   4  -8  -2    1.62    0.84
  -4   8   2    1.69    0.68
  -4   8   2    2.31    0.68
   3  -8  -2    1.07    0.61
   3  -8  -2    1.55    0.68
  -3   8   2    1.57    0.55
   2  -8  -2    1.04    0.54
   2  -8  -2    0.84    0.52
  -2   8   2    0.99    0.40
   1  -8  -2   14.99    1.01
  -1   8   2   13.06    0.81
   0  -8  -2   40.83    1.53
   0   8   2   41.87    1.34
   0   8   2   42.00    1.48
  -1  -8  -2    6.10    0.61
   1   8   2    7.90    0.51
   1   8   2    6.75    0.59
  -2  -8  -2    6.64    0.59
   2   8   2    7.48    0.56
   2   8   2    6.87    0.47
  -3  -8  -2   19.11    0.89
   3   8   2   19.14    0.84
   3   8   2   21.56    0.91
  -4  -8  -2   21.61    1.00
   4   8   2   23.30    1.03
   4   8   2   23.29    0.98
  -5  -8  -2   55.17    1.81
   5   8   2   54.30    1.75
  -6  -8  -2    7.46    0.81
   6   8   2    7.58    0.76
  -7  -8  -2    3.62    0.67
   7   8   2    2.44    0.59
  -8  -8  -2    2.18    0.65
   8   8   2    2.09    0.63
  -4   9   2    1.06    0.73
  -4   9   2    1.56    0.69
   3  -9  -2   -0.80    0.47
  -3   9   2    0.46    0.54
   2  -9  -2    4.86    0.83
  -2   9   2    5.95    0.77
   1  -9  -2   30.38    1.51
  -1   9   2   28.08    1.26
   0  -9  -2    6.51    0.73
   0   9   2    5.67    0.60
  -1  -9  -2   11.50    0.82
   1   9   2   11.96    0.72
  -2  -9  -2   22.29    1.05
   2   9   2   21.35    0.93
  -3  -9  -2   44.63    1.51
   3   9   2   40.02    1.38
  -4  -9  -2    9.57    0.74
   4   9   2    9.77    0.71
  -5  -9  -2    0.06    0.32
   5   9   2    0.19    0.32
  -6  -9  -2    1.32    0.46
   6   9   2    2.00    0.49
  -7  -9  -2    0.26    0.43
   7   9   2    0.09    0.39
   8   9   2    0.22    0.48
  -2  10   2   14.08    1.23
   1 -10  -2   21.48    1.34
  -1  10   2   22.22    1.22
   0 -10  -2    4.25    0.71
   0  10   2    3.01    0.53
  -1 -10  -2    6.65    0.75
   1  10   2    6.89    0.68
  -2 -10  -2    0.14    0.34
   2  10   2    0.31    0.30
  -3 -10  -2    3.86    0.58
   3  10   2    4.28    0.55
  -4 -10  -2    1.94    0.45
   4  10   2    1.45    0.41
  -5 -10  -2    0.34    0.35
   5  10   2    0.15    0.33
  -6 -10  -2    0.91    0.45
   6  10   2    1.12    0.46
   7  10   2    0.24    0.45
  -1  11   2    0.92    0.54
   0  11   2    1.76    0.55
  -1 -11  -2    0.54    0.45
   1  11   2    0.09    0.37
  -2 -11  -2    3.32    0.61
   2  11   2    4.21    0.62
  -3 -11  -2    1.91    0.51
   3  11   2    1.00    0.40
  -4 -11  -2    0.28    0.38
   4  11   2    0.35    0.37
  -5 -11  -2   11.51    1.03
   5  11   2   10.77    0.95
   6  11   2    0.46    0.46
   7  11   2    2.52    0.66
   1  12   2   -0.07    0.43
   2  12   2    0.28    0.44
   3  12   2    0.09    0.39
   4  12   2   -0.12    0.41
   5  12   2    1.50    0.54
   4  11  -3    1.37    0.62
   3  11  -3    2.02    0.67
   2  11  -3   -0.12    0.53
   6  10  -3    0.99    0.57
   5  10  -3    2.55    0.62
  -5 -10   3    1.52    0.62
   4  10  -3   22.90    1.35
  -4 -10   3   22.16    1.39
   3  10  -3   10.67    1.04
  -3 -10   3   10.81    1.12
   2  10  -3    3.49    0.71
  -2 -10   3    4.52    0.83
   1  10  -3    3.67    0.73
  -1 -10   3    3.55    0.79
   0  10  -3   23.99    1.51
   0 -10   3   22.31    1.55
  -1  10  -3   19.29    1.48
   7   9  -3    1.83    0.54
   7   9  -3    3.97    0.79
  -7  -9   3    3.22    0.81
   6   9  -3   15.94    1.32
  -6  -9   3   14.37    1.29
   5   9  -3   32.95    1.52
  -5  -9   3   29.82    1.59
   4   9  -3   15.88    0.62
   4   9  -3   16.69    1.09
  -4  -9   3   16.51    1.17
   3   9  -3    3.26    0.24
   3   9  -3    3.09    0.58
  -3  -9   3    2.61    0.62
   2   9  -3   -0.06    0.36
  -2  -9   3    1.46    0.53
   1   9  -3   29.90    1.44
  -1  -9   3   30.11    1.58
   0   9  -3   33.07    1.57
   0  -9   3   33.50    1.74
  -1   9  -3    2.02    0.63
   1  -9   3    1.68    0.64
  -2   9  -3   -0.42    0.53
   2  -9   3    0.32    0.68
   8   8  -3   -0.15    0.60
   7   8  -3   11.31    1.04
   7   8  -3   14.32    1.26
  -7  -8   3   15.49    1.38
   6   8  -3   15.68    1.05
   6   8  -3   13.95    1.18
  -6  -8   3   15.67    1.17
   5   8  -3   42.21    1.69
   5   8  -3   44.99    1.59
  -5  -8   3   42.00    1.79
   4   8  -3    5.55    0.62
   4   8  -3    5.26    0.69
  -4  -8   3    5.27    0.73
   3   8  -3    1.66    0.41
   3   8  -3    1.93    0.52
   3   8  -3    1.85    0.47
  -3  -8   3    2.41    0.55
   2   8  -3   25.06    1.01
   2   8  -3   23.18    1.15
   2   8  -3   22.88    1.28
  -2  -8   3   24.67    1.31
   1   8  -3   21.10    0.94
   1   8  -3   21.46    1.36
   1   8  -3   20.09    1.12
  -1  -8   3   22.83    1.28
   0   8  -3    2.03    0.44
   0   8  -3    2.12    0.56
   0  -8   3    3.04    0.67
  -1   8  -3    0.67    0.40
  -1   8  -3    1.63    0.54
   1  -8   3    1.46    0.57
  -2   8  -3    4.75    0.61
  -2   8  -3    4.89    0.83
   2  -8   3    7.29    1.04
  -3   8  -3    0.69    0.45
  -3   8  -3   -0.48    0.55
   3  -8   3    0.77    0.66
   8   7  -3    5.18    0.90
   7   7  -3    8.09    0.98
   7   7  -3    8.69    1.02
  -7  -7   3    9.62    1.08
   6   7  -3   38.58    1.69
   6   7  -3   41.36    1.71
  -6  -7   3   44.70    1.82
   5   7  -3   13.12    1.00
   5   7  -3   13.08    0.97
   5   7  -3   10.71    0.92
  -5  -7   3   13.20    0.96
   4   7  -3    8.49    0.79
   4   7  -3    8.98    0.87
   4   7  -3    9.25    0.83
  -4  -7   3    8.39    0.81
   3   7  -3    0.26    0.35
   3   7  -3    0.03    0.23
   3   7  -3    0.12    0.32
  -3  -7   3   -0.20    0.30
   2   7  -3   11.13    0.85
   2   7  -3   11.42    0.78
   2   7  -3   12.06    0.76
  -2  -7   3   10.72    0.93
   1   7  -3   16.28    0.87
   1   7  -3   17.53    1.06
   1   7  -3   15.13    0.87
  -1  -7   3   16.86    1.04
   0   7  -3   -0.40    0.30
   0   7  -3   -0.19    0.26
   0   7  -3   -0.27    0.34
   0  -7   3    0.15    0.38
  -1   7  -3    6.82    0.88
  -1   7  -3    5.15    0.79
  -1   7  -3    5.99    0.72
  -1   7  -3    6.14    0.63
   1  -7   3    7.36    0.91
  -2   7  -3    0.12    0.36
  -2   7  -3    0.44    0.45
   2  -7   3    0.63    0.53
  -3   7  -3    6.28    0.90
  -3   7  -3    6.86    0.78
   3  -7   3    6.65    1.05
  -4   7  -3    1.61    0.53
   9   6  -3    0.18    0.74
   8   6  -3    1.59    0.69
   7   6  -3   17.20    1.17
   7   6  -3   15.36    1.29
  -7  -6   3   15.02    1.14
   6   6  -3    5.33    0.80
   6   6  -3    6.94    0.76
   6   6  -3    7.07    0.88
  -6  -6   3    6.19    0.77
   5   6  -3   13.72    0.87
   5   6  -3   13.72    1.01
   5   6  -3   16.71    1.03
  -5  -6   3   14.86    0.98
   4   6  -3   12.29    0.78
   4   6  -3   12.86    0.91
   4   6  -3   13.11    0.89
  -4  -6   3   12.96    0.87
   3   6  -3    0.81    0.38
   3   6  -3    0.74    0.28
   3   6  -3    0.89    0.35
  -3  -6   3    0.32    0.29
   2   6  -3   18.70    0.94
   2   6  -3   19.90    0.90
   2   6  -3   20.17    1.02
  -2  -6   3   18.98    0.99
  -2  -6   3   20.95    1.38
   1   6  -3    0.18    0.31
   1   6  -3    0.28    0.31
   1   6  -3    0.15    0.20
  -1  -6   3   -0.35    0.26
   0   6  -3    4.82    0.63
   0   6  -3    4.20    0.53
   0   6  -3    5.01    0.70
   0   6  -3    4.73    0.53
   0  -6   3    4.14    0.59
  -1   6  -3    2.62    0.45
  -1   6  -3    2.85    0.57
  -1   6  -3    2.66    0.45
  -1   6  -3    1.77    0.49
   1  -6   3    2.73    0.56
  -2   6  -3    1.53    0.50
  -2   6  -3    1.06    0.39
  -2   6  -3    1.25    0.51
  -2   6  -3    1.51    0.43
   2  -6   3    2.24    0.59
  -3   6  -3   32.57    1.39
  -3   6  -3   33.97    1.85
  -3   6  -3   34.42    1.61
   3  -6   3   36.00    1.85
  -4   6  -3    8.72    1.10
  -4   6  -3    7.80    0.84
   4  -6   3   11.47    1.33
  -5   6  -3    0.64    0.51
   9   5  -3    0.45    0.66
   8   5  -3    4.20    0.86
   7   5  -3    6.11    0.88
   7   5  -3    7.22    0.84
  -7  -5   3    5.22    0.97
  -7  -5   3    4.93    0.79
   6   5  -3    3.94    0.72
   6   5  -3    2.83    0.58
   6   5  -3    2.71    0.50
  -6  -5   3    2.84    0.56
  -6  -5   3    3.62    0.81
   5   5  -3    5.49    0.65
   5   5  -3    5.61    0.63
   5   5  -3    4.93    0.72
  -5  -5   3    4.50    0.77
  -5  -5   3    6.10    0.67
   4   5  -3   15.24    0.81
   4   5  -3   14.32    0.92
   4   5  -3   15.24    0.88
   4   5  -3   12.14    1.29
  -4  -5   3   15.26    1.26
  -4  -5   3   12.40    0.81
   3   5  -3   34.01    1.73
   3   5  -3   30.37    1.64
   3   5  -3   30.82    1.22
   3   5  -3   32.21    1.25
   3   5  -3   31.29    1.14
  -3  -5   3   32.25    1.22
  -3  -5   3   32.28    1.52
  -3  -5   3   33.08    1.63
   2   5  -3   11.35    0.72
   2   5  -3    9.90    1.05
   2   5  -3   11.55    0.71
   2   5  -3   11.01    0.62
   2   5  -3   10.27    1.00
  -2  -5   3   13.52    1.18
  -2  -5   3   12.79    1.10
  -2  -5   3   10.27    0.96
  -2  -5   3   10.62    0.70
   1   5  -3   -0.04    0.15
   1   5  -3    0.16    0.44
   1   5  -3    0.12    0.24
   1   5  -3   -0.18    0.39
   1   5  -3    0.01    0.25
  -1  -5   3    0.05    0.42
  -1  -5   3   -0.05    0.27
  -1  -5   3    0.13    0.42
  -1  -5   3    0.19    0.26
   0   5  -3    0.57    0.29
   0   5  -3    0.42    0.46
   0   5  -3    0.44    0.30
   0   5  -3    0.29    0.42
   0   5  -3    0.41    0.22
   0   5  -3    0.57    0.28
   0  -5   3    0.24    0.30
   0  -5   3    0.97    0.36
   0  -5   3    0.76    0.54
  -1   5  -3   17.07    1.29
  -1   5  -3   18.90    1.02
  -1   5  -3   17.96    0.87
  -1   5  -3   17.25    1.01
  -1   5  -3   17.95    0.89
   1  -5   3   17.30    1.03
   1  -5   3   19.63    1.34
  -2   5  -3   54.77    1.76
  -2   5  -3   57.65    2.10
  -2   5  -3   58.49    1.84
  -2   5  -3   55.96    2.01
   2  -5   3   56.80    2.34
   2  -5   3   58.13    2.10
  -3   5  -3    9.94    0.92
  -3   5  -3    6.83    0.70
  -3   5  -3    7.70    0.96
  -3   5  -3    8.88    0.97
   3  -5   3    9.65    1.30
   3  -5   3    7.78    0.93
  -4   5  -3    7.33    0.95
  -4   5  -3    6.10    0.71
   4  -5   3    7.11    1.01
  -5   5  -3    1.66    0.52
  -6   5  -3    4.38    0.74
   9   4  -3    0.32    0.64
   8   4  -3    1.22    0.66
  -8  -4   3    1.96    0.65
   7   4  -3    1.03    0.56
  -7  -4   3    1.79    0.67
  -7  -4   3    0.63    0.48
   6   4  -3    0.42    0.46
   6   4  -3    0.63    0.32
   6   4  -3    0.37    0.39
  -6  -4   3    0.12    0.33
  -6  -4   3    0.75    0.56
   5   4  -3    0.15    0.24
   5   4  -3    0.15    0.47
   5   4  -3    0.00    0.42
   5   4  -3    0.66    0.34
  -5  -4   3    0.37    0.46
  -5  -4   3    0.34    0.31
   4   4  -3   15.09    1.21
   4   4  -3   15.09    0.95
   4   4  -3   16.37    0.81
   4   4  -3   17.34    1.30
   4   4  -3   16.75    0.88
  -4  -4   3   16.65    1.29
  -4  -4   3   16.33    0.85
  -4  -4   3   16.12    1.08
   3   4  -3   33.33    1.61
   3   4  -3   33.07    1.25
   3   4  -3   31.59    1.18
   3   4  -3   31.08    1.11
   3   4  -3   32.63    1.61
  -3  -4   3   33.19    1.19
  -3  -4   3   34.06    1.19
  -3  -4   3   31.71    1.42
  -3  -4   3   33.21    1.57
  -3  -4   3   32.07    1.62
  -3  -4   3   33.14    1.50
   2   4  -3    6.59    0.84
   2   4  -3    5.04    0.73
   2   4  -3    6.83    0.52
   2   4  -3    5.54    0.43
   2   4  -3    5.81    0.55
  -2  -4   3    7.54    0.73
  -2  -4   3    8.01    0.82
  -2  -4   3    6.88    0.83
  -2  -4   3    5.67    0.69
  -2  -4   3    5.32    0.52
  -2  -4   3    5.52    0.51
  -2  -4   3    5.42    0.73
   1   4  -3   13.94    0.65
   1   4  -3   14.96    0.74
   1   4  -3   14.04    0.73
   1   4  -3   14.16    1.03
   1   4  -3   17.28    1.08
  -1  -4   3   16.35    0.73
  -1  -4   3   14.41    0.97
  -1  -4   3   14.62    0.92
  -1  -4   3   14.73    0.89
  -1  -4   3   14.66    0.99
  -1  -4   3   16.21    0.78
  -1  -4   3   14.85    0.96
   0   4  -3   -0.22    0.13
   0   4  -3   -0.46    0.20
   0   4  -3    0.60    0.26
   0   4  -3    0.49    0.41
   0   4  -3    0.59    0.39
   0   4  -3    0.15    0.27
   0  -4   3    0.21    0.34
   0  -4   3   -0.01    0.38
   0  -4   3   -0.15    0.23
   0  -4   3    0.07    0.26
   0  -4   3    0.08    0.18
   0  -4   3   -0.25    0.22
  -1   4  -3   54.04    1.85
  -1   4  -3   51.58    2.06
  -1   4  -3   56.14    1.97
  -1   4  -3   54.28    1.58
  -1   4  -3   53.54    1.60
  -1   4  -3   56.41    1.75
   1  -4   3   57.72    2.02
   1  -4   3   54.53    1.82
   1  -4   3   53.71    1.89
   1  -4   3   56.29    1.80
  -2   4  -3   63.57    2.23
  -2   4  -3   69.43    2.14
  -2   4  -3   61.36    1.86
  -2   4  -3   63.47    2.39
  -2   4  -3   63.04    2.15
  -2   4  -3   66.59    1.91
   2  -4   3   65.28    2.14
   2  -4   3   69.02    2.25
   2  -4   3   64.41    2.32
  -3   4  -3   23.68    1.12
  -3   4  -3   23.31    1.14
  -3   4  -3   23.34    1.33
   3  -4   3   27.38    1.64
   3  -4   3   24.66    1.36
  -4   4  -3    2.66    0.59
  -4   4  -3    2.18    0.47
  -4   4  -3    2.33    0.51
  -4   4  -3    2.72    0.71
   4  -4   3    1.40    0.60
   4  -4   3    3.00    0.94
   4  -4   3    3.36    0.75
  -5   4  -3    1.73    0.49
   5  -4   3    3.00    0.88
  -6   4  -3    1.58    0.52
   6  -4   3    2.31    0.97
   9   3  -3    1.77    0.82
  -9  -3   3    2.34    0.73
   8   3  -3    1.33    0.66
   7   3  -3    0.39    0.54
  -7  -3   3    0.97    0.51
   6   3  -3    2.69    0.57
   6   3  -3    2.07    0.49
   6   3  -3    2.06    0.64
  -6  -3   3    1.98    0.50
  -6  -3   3    1.25    0.51
   5   3  -3    3.26    0.67
   5   3  -3    4.35    0.79
   5   3  -3    3.87    0.52
   5   3  -3    4.12    0.87
   5   3  -3    3.18    0.49
  -5  -3   3    3.15    0.73
  -5  -3   3    3.75    0.51
  -5  -3   3    3.64    0.65
   4   3  -3   23.31    0.96
   4   3  -3   22.50    1.35
   4   3  -3   24.67    1.04
   4   3  -3   24.38    1.14
   4   3  -3   24.59    1.45
  -4  -3   3   22.69    1.16
  -4  -3   3   25.44    1.34
  -4  -3   3   23.70    1.00
  -4  -3   3   24.23    1.46
  -4  -3   3   23.24    1.05
   3   3  -3   37.24    1.25
   3   3  -3   38.74    1.33
   3   3  -3   38.29    1.66
   3   3  -3   38.31    1.19
   3   3  -3   35.23    1.64
  -3  -3   3   39.39    1.28
  -3  -3   3   39.09    1.24
  -3  -3   3   36.45    1.54
  -3  -3   3   39.10    1.46
  -3  -3   3   35.15    1.62
   2   3  -3   41.22    1.31
   2   3  -3   41.20    1.68
   2   3  -3   40.79    1.28
   2   3  -3   44.86    1.23
   2   3  -3   40.56    1.61
  -2  -3   3   43.19    1.61
  -2  -3   3   41.75    1.27
  -2  -3   3   41.46    1.28
  -2  -3   3   44.78    1.69
  -2  -3   3   46.19    1.67
  -2  -3   3   42.72    1.52
   1   3  -3   10.52    0.82
   1   3  -3    7.75    0.77
   1   3  -3    9.41    0.49
   1   3  -3    9.25    0.55
   1   3  -3    8.47    0.55
  -1  -3   3    9.89    0.77
  -1  -3   3    8.50    0.75
  -1  -3   3    9.61    0.78
  -1  -3   3    8.26    0.54
  -1  -3   3    9.78    0.54
  -1  -3   3   10.09    0.76
   0   3  -3  131.53    3.32
   0   3  -3  137.26    3.11
   0   3  -3  135.97    3.37
   0   3  -3  126.08    2.95
   0   3  -3  129.19    2.93
   0   3  -3  133.21    3.50
   0  -3   3  131.18    3.28
   0  -3   3  130.12    3.24
   0  -3   3  131.74    3.05
   0  -3   3  128.63    3.36
   0  -3   3  141.59    3.34
   0  -3   3  134.68    3.10
  -1   3  -3   46.45    1.48
  -1   3  -3   48.38    1.68
  -1   3  -3   48.69    1.37
  -1   3  -3   45.62    1.58
  -1   3  -3   47.33    1.40
  -1   3  -3   48.54    1.80
   1  -3   3   47.39    1.66
   1  -3   3   49.22    1.46
   1  -3   3   47.39    1.55
   1  -3   3   47.36    1.70
   1  -3   3   46.47    1.73
   1  -3   3   50.50    1.63
  -2   3  -3   37.46    1.38
  -2   3  -3   35.47    1.46
  -2   3  -3   36.59    1.59
  -2   3  -3   36.09    1.22
  -2   3  -3   34.04    1.22
   2  -3   3   36.00    1.55
   2  -3   3   34.81    1.27
   2  -3   3   39.57    1.53
   2  -3   3   34.93    1.40
   2  -3   3   37.58    1.42
  -3   3  -3    0.03    0.27
  -3   3  -3    0.37    0.42
  -3   3  -3    0.59    0.38
  -3   3  -3    0.39    0.42
  -3   3  -3    0.38    0.26
   3  -3   3    0.72    0.37
   3  -3   3    0.91    0.55
   3  -3   3    0.72    0.43
   3  -3   3    1.11    0.42
  -4   3  -3   -0.15    0.28
  -4   3  -3   -0.08    0.45
  -4   3  -3    0.41    0.38
  -4   3  -3   -0.33    0.27
   4  -3   3   -0.12    0.43
   4  -3   3    0.05    0.61
   4  -3   3   -0.14    0.43
  -5   3  -3    0.02    0.32
   5  -3   3    0.17    0.65
   5  -3   3    0.19    0.59
  -6   3  -3    0.72    0.44
   6  -3   3    1.40    0.74
  -7   3  -3    0.25    0.45
   7  -3   3   -0.49    0.66
   9   2  -3    1.30    0.79
  -9  -2   3    4.81    0.89
   8   2  -3    1.45    0.69
  -8  -2   3    1.61    0.59
   7   2  -3    1.74    0.66
   6   2  -3    7.18    0.94
   6   2  -3    7.91    0.86
   6   2  -3    8.38    0.88
   6   2  -3    7.77    1.20
  -6  -2   3    7.23    0.86
  -6  -2   3    9.09    0.83
   5   2  -3   59.23    2.26
   5   2  -3   58.79    1.90
   5   2  -3   56.57    2.40
   5   2  -3   60.25    1.80
   5   2  -3   55.51    2.01
  -5  -2   3   56.50    1.93
  -5  -2   3   59.60    1.96
  -5  -2   3   59.94    2.22
  -5  -2   3   58.05    2.43
  -5  -2   3   57.72    1.81
   4   2  -3   70.33    2.41
   4   2  -3   70.27    2.51
   4   2  -3   74.49    2.06
   4   2  -3   71.19    2.13
   4   2  -3   74.78    1.96
  -4  -2   3   70.67    2.12
  -4  -2   3   71.54    1.98
  -4  -2   3   70.05    2.33
  -4  -2   3   77.36    2.59
   3   2  -3    2.63    0.54
   3   2  -3    1.45    0.26
   3   2  -3    2.29    0.55
   3   2  -3    1.57    0.29
   3   2  -3    1.39    0.38
  -3  -2   3    1.73    0.38
  -3  -2   3    1.29    0.26
  -3  -2   3    1.69    0.44
  -3  -2   3    1.69    0.29
  -3  -2   3    2.00    0.53
   2   2  -3    5.50    0.39
   2   2  -3    4.65    0.58
   2   2  -3    5.28    0.48
   2   2  -3    5.47    0.67
   2   2  -3    5.68    0.43
  -2  -2   3    5.75    0.66
  -2  -2   3    5.64    0.41
  -2  -2   3    5.68    0.59
  -2  -2   3    6.70    0.69
  -2  -2   3    4.99    0.43
  -2  -2   3    4.09    0.57
   1   2  -3    2.94    0.30
   1   2  -3    3.23    0.35
   1   2  -3    2.14    0.43
   1   2  -3    3.11    0.29
   1   2  -3    2.50    0.46
  -1  -2   3    3.12    0.46
  -1  -2   3    3.82    0.44
  -1  -2   3    3.76    0.52
  -1  -2   3    3.70    0.37
  -1  -2   3    3.03    0.47
  -1  -2   3    2.66    0.29
  -1  -2   3    2.85    0.48
   0   2  -3   43.95    1.51
   0   2  -3   42.07    1.12
   0   2  -3   39.18    1.30
   0   2  -3   40.95    1.39
   0   2  -3   42.24    1.20
   0   2  -3   42.50    1.18
   0  -2   3   42.21    1.19
   0  -2   3   42.93    1.45
   0  -2   3   42.43    1.40
   0  -2   3   41.52    1.40
   0  -2   3   40.33    1.33
   0  -2   3   40.94    1.33
  -1   2  -3   64.02    1.67
  -1   2  -3   66.08    1.76
  -1   2  -3   65.36    1.63
  -1   2  -3   63.23    1.88
  -1   2  -3   67.27    1.89
  -1   2  -3   63.28    2.00
   1  -2   3   64.26    1.79
   1  -2   3   66.00    1.89
   1  -2   3   64.25    1.72
   1  -2   3   64.00    1.92
   1  -2   3   68.21    1.95
   1  -2   3   64.07    1.81
  -2   2  -3    0.47    0.31
  -2   2  -3    0.77    0.33
  -2   2  -3    0.31    0.26
  -2   2  -3    0.52    0.24
  -2   2  -3    0.80    0.23
   2  -2   3    0.35    0.24
   2  -2   3    0.87    0.30
   2  -2   3    0.39    0.30
   2  -2   3    0.71    0.33
   2  -2   3    0.61    0.29
   2  -2   3    0.39    0.36
  -3   2  -3    2.27    0.45
  -3   2  -3    3.05    0.46
  -3   2  -3    3.45    0.47
  -3   2  -3    2.99    0.51
  -3   2  -3    2.71    0.57
  -3   2  -3    2.33    0.48
   3  -2   3    2.63    0.45
   3  -2   3    3.07    0.58
   3  -2   3    2.53    0.46
   3  -2   3    2.57    0.45
   3  -2   3    2.67    0.50
   3  -2   3    4.29    0.69
  -4   2  -3    0.74    0.34
  -4   2  -3    0.15    0.27
  -4   2  -3   -0.03    0.31
  -4   2  -3    0.04    0.41
  -4   2  -3    0.03    0.43
  -4   2  -3    0.52    0.45
   4  -2   3    0.37    0.32
   4  -2   3    0.32    0.52
   4  -2   3    0.04    0.39
   4  -2   3    0.48    0.41
  -5   2  -3    0.35    0.36
   5  -2   3   -0.24    0.43
   5  -2   3    0.76    0.69
  -6   2  -3   -0.89    0.30
   6  -2   3    0.40    0.64
  -7   2  -3    0.85    0.52
   7  -2   3    0.40    0.67
   9   1  -3    2.69    0.93
  -9  -1   3    3.41    0.77
   8   1  -3    5.34    1.00
  -8  -1   3    5.08    0.86
   7   1  -3    4.96    0.91
  -7  -1   3    4.79    0.75
   6   1  -3   12.66    1.17
   6   1  -3   12.93    1.36
  -6  -1   3   13.84    1.03
  -6  -1   3   15.26    1.39
  -6  -1   3   14.18    1.47
  -6  -1   3   13.88    0.97
   5   1  -3    7.31    0.74
   5   1  -3    8.76    0.94
   5   1  -3    8.88    0.75
   5   1  -3    6.03    0.97
   5   1  -3    6.72    0.85
  -5  -1   3    7.36    0.76
  -5  -1   3    7.48    0.99
  -5  -1   3    6.99    0.73
  -5  -1   3    5.41    0.79
  -5  -1   3    8.81    0.75
   4   1  -3   16.58    0.77
   4   1  -3   15.21    0.94
   4   1  -3   17.23    1.07
   4   1  -3   16.73    0.83
   4   1  -3   17.27    1.20
  -4  -1   3   16.51    1.03
  -4  -1   3   15.66    0.84
  -4  -1   3   16.90    0.88
  -4  -1   3   16.28    1.15
  -4  -1   3   17.54    0.81
   3   1  -3   71.39    1.93
   3   1  -3   69.61    1.77
   3   1  -3   68.30    2.24
   3   1  -3   67.55    2.15
   3   1  -3   71.66    1.86
  -3  -1   3   69.81    2.09
  -3  -1   3   71.05    1.91
  -3  -1   3   70.26    1.92
  -3  -1   3   71.64    2.27
  -3  -1   3   68.87    1.79
   2   1  -3    3.43    0.55
   2   1  -3    3.17    0.33
   2   1  -3    3.80    0.34
   2   1  -3    2.86    0.47
   2   1  -3    3.65    0.40
   2   1  -3    3.40    0.35
  -2  -1   3    2.51    0.44
  -2  -1   3    2.40    0.41
  -2  -1   3    3.06    0.38
  -2  -1   3    2.75    0.29
  -2  -1   3    3.73    0.60
  -2  -1   3    2.42    0.28
   1   1  -3   34.93    0.94
   1   1  -3   32.95    1.21
   1   1  -3   30.74    0.93
   1   1  -3   29.83    1.13
   1   1  -3   33.06    0.87
   1   1  -3   33.20    0.92
  -1  -1   3   32.19    0.93
  -1  -1   3   32.56    1.05
  -1  -1   3   31.60    1.15
  -1  -1   3   30.35    0.90
  -1  -1   3   31.33    1.12
  -1  -1   3   31.97    1.21
  -1  -1   3   32.25    1.06
   0   1  -3   43.56    1.17
   0   1  -3   43.24    1.13
   0   1  -3   42.31    1.27
   0   1  -3   42.99    1.30
   0   1  -3   45.09    1.08
   0   1  -3   43.26    1.14
   0   1  -3   42.81    1.40
   0  -1   3   42.53    1.29
   0  -1   3   44.69    1.28
   0  -1   3   44.20    1.27
   0  -1   3   42.44    1.35
   0  -1   3   42.11    1.15
   0  -1   3   43.35    1.14
   0  -1   3   43.61    1.38
  -1   1  -3    0.93    0.20
  -1   1  -3    1.41    0.22
  -1   1  -3    0.89    0.29
  -1   1  -3    1.20    0.25
  -1   1  -3    1.34    0.31
  -1   1  -3    1.21    0.30
  -1   1  -3    1.05    0.28
   1  -1   3    0.92    0.29
   1  -1   3    0.94    0.25
   1  -1   3    1.57    0.26
   1  -1   3    1.14    0.35
   1  -1   3    1.16    0.29
   1  -1   3    1.30    0.34
  -2   1  -3    8.82    0.50
  -2   1  -3    9.15    0.63
  -2   1  -3    9.37    0.72
  -2   1  -3    9.82    0.57
  -2   1  -3    9.24    0.60
   2  -1   3   10.50    0.76
   2  -1   3    9.61    0.66
   2  -1   3    9.00    0.67
   2  -1   3    8.80    0.64
   2  -1   3    8.47    0.55
   2  -1   3    9.50    0.63
  -3   1  -3    0.02    0.28
  -3   1  -3    0.20    0.22
  -3   1  -3    0.43    0.31
  -3   1  -3    0.44    0.26
  -3   1  -3    0.19    0.21
  -3   1  -3    0.28    0.28
   3  -1   3    0.53    0.26
   3  -1   3   -0.15    0.36
   3  -1   3    0.30    0.27
   3  -1   3    0.38    0.32
   3  -1   3    0.44    0.28
  -4   1  -3    0.53    0.40
  -4   1  -3    0.59    0.38
  -4   1  -3    0.24    0.35
  -4   1  -3    0.32    0.25
  -4   1  -3    0.50    0.32
   4  -1   3    0.43    0.31
   4  -1   3    0.29    0.32
   4  -1   3    0.34    0.39
   4  -1   3    0.31    0.30
   4  -1   3    0.78    0.48
  -5   1  -3    4.66    0.66
  -5   1  -3    5.04    0.75
   5  -1   3    4.45    0.67
   5  -1   3    2.91    0.69
   5  -1   3    6.05    0.83
   5  -1   3    4.28    0.81
  -6   1  -3    2.16    0.52
   6  -1   3    1.68    0.66
  -7   1  -3    0.57    0.45
   7  -1   3    0.90    0.69
  -8   1  -3    3.75    0.76
   8  -1   3    2.59    0.92
   8   0  -3    3.46    0.99
  -8   0   3    4.11    0.74
   7   0  -3    2.65    0.78
  -7   0   3    1.42    0.48
   6   0  -3   36.28    1.80
   6   0  -3   33.68    1.96
  -6   0   3   40.08    2.17
  -6   0   3   32.34    1.46
  -6   0   3   37.17    1.83
   5   0  -3    8.52    1.02
   5   0  -3    7.20    0.69
   5   0  -3    6.81    0.83
  -5   0   3    8.13    0.78
  -5   0   3    8.46    1.09
  -5   0   3    8.30    0.91
  -5   0   3    7.34    0.72
  -5   0   3    6.95    0.68
   4   0  -3   20.96    0.93
   4   0  -3   20.98    1.09
   4   0  -3   20.12    0.86
   4   0  -3   20.59    1.30
   4   0  -3   19.19    1.08
  -4   0   3   20.36    0.97
  -4   0   3   19.65    1.06
  -4   0   3   20.34    0.89
  -4   0   3   20.33    1.23
   3   0  -3   59.10    1.86
   3   0  -3   60.80    1.65
   3   0  -3   61.57    2.03
   3   0  -3   62.66    1.75
   3   0  -3   59.62    1.56
   3   0  -3   58.81    1.60
  -3   0   3   57.51    1.96
  -3   0   3   58.31    1.58
  -3   0   3   59.81    1.81
  -3   0   3   57.92    1.62
  -3   0   3   60.43    1.69
   2   0  -3    0.49    0.37
   2   0  -3    0.65    0.18
   2   0  -3    0.51    0.17
   2   0  -3    0.69    0.19
   2   0  -3    1.00    0.29
   2   0  -3    0.40    0.24
  -2   0   3    1.06    0.22
  -2   0   3    0.52    0.26
  -2   0   3    0.72    0.32
  -2   0   3    0.73    0.18
  -2   0   3    0.58    0.21
   1   0  -3   16.03    0.54
   1   0  -3   16.33    0.54
   1   0  -3   15.43    0.75
   1   0  -3   15.66    0.73
  -1   0   3   15.81    0.70
  -1   0   3   15.30    0.76
  -1   0   3   15.20    0.63
  -1   0   3   15.21    0.69
  -1   0   3   15.79    0.59
  -1   0   3   15.72    0.52
  -1   0   3   16.47    0.55
   0   0  -3   48.61    1.25
   0   0  -3   47.75    1.35
   0   0  -3   47.91    1.25
   0   0  -3   47.44    1.13
   0   0  -3   46.12    1.14
   0   0   3   47.60    1.14
   0   0   3   47.61    1.20
   0   0   3   45.53    1.30
   0   0   3   45.19    1.33
   0   0   3   47.86    1.21
   0   0   3   46.34    1.12
  -1   0  -3   68.33    1.71
  -1   0  -3   70.33    1.72
  -1   0  -3   70.57    1.62
  -1   0  -3   69.48    1.84
  -1   0  -3   68.52    1.67
  -1   0  -3   69.89    1.70
   1   0   3   70.55    1.68
   1   0   3   72.38    1.76
   1   0   3   70.20    1.66
   1   0   3   72.17    1.69
   1   0   3   71.05    1.80
   1   0   3   70.70    1.82
  -2   0  -3   16.54    0.68
  -2   0  -3   16.06    0.65
  -2   0  -3   14.62    0.69
  -2   0  -3   15.44    0.79
  -2   0  -3   16.57    0.65
  -2   0  -3   17.17    0.81
  -2   0  -3   16.05    0.72
   2   0   3   17.11    0.79
   2   0   3   15.19    0.73
   2   0   3   15.05    0.79
   2   0   3   15.98    0.69
   2   0   3   15.14    0.75
  -3   0  -3    5.21    0.57
  -3   0  -3    5.66    0.49
  -3   0  -3    5.36    0.51
  -3   0  -3    4.80    0.49
  -3   0  -3    5.35    0.56
   3   0   3    5.72    0.54
   3   0   3    5.03    0.56
   3   0   3    4.02    0.48
   3   0   3    7.01    0.70
   3   0   3    7.05    0.65
  -4   0  -3   17.06    0.92
  -4   0  -3   20.68    0.98
  -4   0  -3   20.10    1.15
  -4   0  -3   18.00    0.98
   4   0   3   20.71    1.05
   4   0   3   19.86    1.12
   4   0   3   18.45    1.03
   4   0   3   19.03    1.14
   4   0   3   20.77    1.04
  -5   0  -3   28.93    1.31
  -5   0  -3   27.40    1.33
  -5   0  -3   28.08    1.55
   5   0   3   28.72    1.37
   5   0   3   27.32    1.52
   5   0   3   27.98    1.33
   5   0   3   28.74    1.51
  -6   0  -3    4.52    0.73
  -6   0  -3    4.06    0.70
   6   0   3    4.02    0.86
  -7   0  -3    1.77    0.59
   7   0   3    1.80    0.72
  -8   0  -3    2.94    0.73
   8   0   3    3.67    0.95
   8  -1  -3    0.40    0.72
  -8   1   3   -0.48    0.39
   7  -1  -3    2.38    0.79
  -7   1   3    1.59    0.50
   6  -1  -3    0.27    0.63
   6  -1  -3    0.51    0.59
  -6   1   3    0.41    0.33
  -6   1   3    0.79    0.52
  -6   1   3    0.29    0.64
   5  -1  -3   18.63    1.38
   5  -1  -3   20.65    1.29
  -5   1   3   23.21    1.21
  -5   1   3   20.95    1.07
  -5   1   3   20.43    1.20
  -5   1   3   19.13    1.01
  -5   1   3   20.14    1.42
   4  -1  -3   21.79    0.91
   4  -1  -3   19.30    1.24
   4  -1  -3   22.38    1.13
   4  -1  -3   21.56    1.08
   4  -1  -3   22.19    0.97
  -4   1   3   20.25    1.23
  -4   1   3   19.28    1.04
  -4   1   3   21.59    0.93
  -4   1   3   19.91    0.92
  -4   1   3   21.67    1.02
   3  -1  -3    1.06    0.35
   3  -1  -3    0.76    0.22
   3  -1  -3    1.13    0.32
   3  -1  -3    0.42    0.41
   3  -1  -3    1.27    0.28
  -3   1   3    0.81    0.25
  -3   1   3    0.74    0.23
  -3   1   3    0.90    0.26
  -3   1   3    1.20    0.34
  -3   1   3    0.82    0.38
   2  -1  -3   74.02    1.73
   2  -1  -3   71.98    1.90
   2  -1  -3   74.49    1.81
   2  -1  -3   73.14    2.06
   2  -1  -3   71.49    1.75
  -2   1   3   71.13    1.84
  -2   1   3   70.18    1.70
  -2   1   3   75.03    1.81
  -2   1   3   73.94    2.01
  -2   1   3   71.97    1.69
   1  -1  -3    0.88    0.28
   1  -1  -3    0.91    0.22
   1  -1  -3    0.70    0.14
   1  -1  -3    0.60    0.14
  -1   1   3    0.57    0.13
  -1   1   3    0.55    0.13
  -1   1   3    0.70    0.24
  -1   1   3    0.69    0.19
  -1   1   3    0.73    0.15
   0  -1  -3  114.88    2.45
   0  -1  -3  117.34    2.39
   0  -1  -3  121.69    2.56
   0  -1  -3  121.51    2.44
   0  -1  -3  118.62    2.58
   0   1   3  120.43    2.45
   0   1   3  119.23    2.36
   0   1   3  121.53    2.40
  -1  -1  -3  139.80    2.98
  -1  -1  -3  138.86    2.91
  -1  -1  -3  143.13    2.94
  -1  -1  -3  145.42    3.08
   1   1   3  137.96    2.97
   1   1   3  145.09    2.85
   1   1   3  142.22    2.89
   1   1   3  139.43    3.06
  -2  -1  -3    3.93    0.38
  -2  -1  -3    3.71    0.41
  -2  -1  -3    3.25    0.35
  -2  -1  -3    4.30    0.40
  -2  -1  -3    3.15    0.31
   2   1   3    3.46    0.34
   2   1   3    3.93    0.40
   2   1   3    4.06    0.39
   2   1   3    4.31    0.43
   2   1   3    3.96    0.41
  -3  -1  -3   41.20    1.31
  -3  -1  -3   43.79    1.33
  -3  -1  -3   43.26    1.37
  -3  -1  -3   40.51    1.42
  -3  -1  -3   44.26    1.57
  -3  -1  -3   41.81    1.43
   3   1   3   43.18    1.38
   3   1   3   43.28    1.37
   3   1   3   42.06    1.40
   3   1   3   43.36    1.43
   3   1   3   44.70    1.40
   3   1   3   43.04    1.40
  -4  -1  -3  116.82    3.14
  -4  -1  -3  114.72    2.93
  -4  -1  -3  119.77    2.94
  -4  -1  -3  116.88    3.19
  -4  -1  -3  121.08    2.98
   4   1   3  116.47    3.05
   4   1   3  117.52    3.06
   4   1   3  116.54    3.11
   4   1   3  110.73    3.01
   4   1   3  115.32    2.97
  -5  -1  -3    6.80    0.90
  -5  -1  -3    7.87    0.83
  -5  -1  -3    6.10    0.71
   5   1   3    6.98    0.89
   5   1   3    9.61    0.87
   5   1   3    6.48    0.70
   5   1   3    6.97    0.81
   5   1   3    4.42    0.59
  -6  -1  -3   24.00    1.31
  -6  -1  -3   23.04    1.29
   6   1   3   23.74    1.43
   6   1   3   23.46    1.35
   6   1   3   22.63    1.25
  -7  -1  -3   12.18    1.12
   7   1   3   11.04    1.25
  -8  -1  -3   10.00    1.14
   8   1   3    8.76    1.25
  -8   2   3   -0.11    0.39
  -7   2   3    3.98    0.64
   6  -2  -3    2.24    0.83
   6  -2  -3    2.89    0.83
  -6   2   3    3.52    0.93
  -6   2   3    2.84    0.53
  -6   2   3    3.61    0.73
   5  -2  -3    0.20    0.52
   5  -2  -3    0.39    0.51
  -5   2   3    0.39    0.51
  -5   2   3    0.86    0.43
  -5   2   3    0.81    0.37
   4  -2  -3    1.87    0.38
   4  -2  -3    2.55    0.42
   4  -2  -3    2.81    0.62
   4  -2  -3    2.01    0.52
  -4   2   3    2.43    0.45
  -4   2   3    2.46    0.40
  -4   2   3    2.26    0.56
  -4   2   3    2.31    0.45
  -4   2   3    3.24    0.49
   3  -2  -3   31.19    1.15
   3  -2  -3   29.50    1.35
   3  -2  -3   29.49    1.04
   3  -2  -3   30.28    1.05
   3  -2  -3   31.32    1.20
  -3   2   3   30.51    0.98
  -3   2   3   28.37    1.26
  -3   2   3   29.41    1.04
  -3   2   3   27.58    1.08
  -3   2   3   31.92    1.15
   2  -2  -3   20.85    0.99
   2  -2  -3   21.13    0.73
   2  -2  -3   21.36    0.79
   2  -2  -3   21.49    0.73
  -2   2   3   19.09    0.61
  -2   2   3   20.76    0.72
  -2   2   3   21.95    0.68
  -2   2   3   19.59    0.75
  -2   2   3   19.96    0.88
  -2   2   3   20.09    0.75
   1  -2  -3  146.05    3.09
   1  -2  -3  150.36    3.27
   1  -2  -3  151.62    3.06
   1  -2  -3  148.47    3.14
  -1   2   3  151.71    3.02
  -1   2   3  150.47    3.14
   0   2   3   66.09    1.41
   0   2   3   70.47    1.38
  -1  -2  -3   82.65    1.67
  -1  -2  -3   80.32    1.71
  -1  -2  -3   79.29    1.70
  -1  -2  -3   81.55    1.64
   1   2   3   80.93    1.65
   1   2   3   84.23    1.69
   1   2   3   81.73    1.76
   1   2   3   80.58    1.74
  -2  -2  -3   51.95    1.40
  -2  -2  -3   50.88    1.37
  -2  -2  -3   50.39    1.24
  -2  -2  -3   49.35    1.33
   2   2   3   49.76    1.35
   2   2   3   50.05    1.33
   2   2   3   50.59    1.28
   2   2   3   50.72    1.13
   2   2   3   52.09    1.13
   2   2   3   50.09    1.33
  -3  -2  -3  147.12    3.60
  -3  -2  -3  148.18    3.54
  -3  -2  -3  154.24    3.38
  -3  -2  -3  156.81    3.68
  -3  -2  -3  157.04    3.38
   3   2   3  156.11    3.51
   3   2   3  155.30    3.57
   3   2   3  150.41    3.42
   3   2   3  151.40    3.51
   3   2   3  152.29    3.36
  -4  -2  -3   42.92    1.60
  -4  -2  -3   43.89    1.74
  -4  -2  -3   42.95    1.39
  -4  -2  -3   42.47    1.51
   4   2   3   44.00    1.54
   4   2   3   42.33    1.44
   4   2   3   44.42    1.57
   4   2   3   42.05    1.46
   4   2   3   42.41    1.46
  -5  -2  -3   18.90    1.05
  -5  -2  -3   20.18    1.20
  -5  -2  -3   21.44    1.02
   5   2   3   20.35    1.14
   5   2   3   19.35    1.02
   5   2   3   19.18    1.17
   5   2   3   20.10    1.06
   5   2   3   18.80    1.12
  -6  -2  -3    2.03    0.57
  -6  -2  -3    3.76    0.63
   6   2   3    4.20    0.72
   6   2   3    3.50    0.61
   6   2   3    2.59    0.58
  -7  -2  -3    7.22    0.97
  -7  -2  -3    8.29    0.95
   7   2   3    7.79    1.02
   7   2   3    9.30    1.00
  -8  -2  -3   10.03    1.14
   8   2   3    8.99    1.23
   9   2   3    2.87    0.89
  -8   3   3    0.02    0.50
  -7   3   3    2.56    0.59
   6  -3  -3    0.87    0.71
  -6   3   3    2.39    0.51
  -6   3   3    2.09    0.70
  -6   3   3    1.79    0.85
   5  -3  -3    1.46    0.67
  -5   3   3    0.85    0.33
  -5   3   3    0.70    0.39
  -5   3   3    0.27    0.57
   4  -3  -3   11.97    1.13
   4  -3  -3   15.31    1.07
  -4   3   3   15.02    0.90
  -4   3   3   13.11    0.92
  -4   3   3   12.90    0.70
  -4   3   3   14.78    1.23
   3  -3  -3   24.46    0.96
   3  -3  -3   25.97    1.13
   3  -3  -3   23.36    1.20
   3  -3  -3   22.95    0.95
  -3   3   3   23.75    1.05
  -3   3   3   23.35    0.79
  -3   3   3   23.34    1.14
  -3   3   3   24.68    0.88
  -3   3   3   23.80    0.97
  -3   3   3   24.46    0.99
   2  -3  -3  250.73    5.40
   2  -3  -3  263.45    5.34
   2  -3  -3  261.02    5.41
   2  -3  -3  240.12    5.60
  -2   3   3  257.67    5.31
  -2   3   3  260.04    5.53
  -2   3   3  260.82    5.60
  -2   3   3  256.17    4.97
  -2   3   3  263.14    5.00
  -2   3   3  256.22    5.27
  -2   3   3  254.86    5.27
   1  -3  -3   71.54    1.85
   1  -3  -3   73.09    1.64
   1  -3  -3   76.85    1.69
   1  -3  -3   73.91    1.64
  -1   3   3   73.39    1.73
  -1   3   3   73.80    1.62
  -1   3   3   72.04    1.63
   0  -3  -3    5.78    0.23
   0  -3  -3    6.54    0.22
   0   3   3    6.11    0.22
   0   3   3    5.93    0.22
   1   3   3   31.62    0.75
   1   3   3   30.43    0.69
  -2  -3  -3   78.57    1.89
  -2  -3  -3   79.52    1.74
  -2  -3  -3   81.33    1.91
  -2  -3  -3   78.74    1.81
   2   3   3   82.29    1.71
   2   3   3   78.54    1.93
   2   3   3   78.37    1.83
   2   3   3   81.62    1.70
  -3  -3  -3  164.28    3.84
  -3  -3  -3  163.60    3.65
  -3  -3  -3  161.45    3.50
  -3  -3  -3  162.07    3.80
   3   3   3  166.32    3.33
   3   3   3  163.36    3.65
   3   3   3  163.83    3.61
   3   3   3  160.87    3.31
   3   3   3  167.49    3.80
   3   3   3  162.69    3.55
  -4  -3  -3   12.56    0.67
  -4  -3  -3   14.09    0.77
  -4  -3  -3   14.12    0.87
  -4  -3  -3   14.24    1.03
   4   3   3   13.48    0.74
   4   3   3   11.87    0.69
   4   3   3   12.48    0.71
   4   3   3   12.88    0.83
   4   3   3   13.91    0.74
   4   3   3   13.58    0.83
  -5  -3  -3   23.33    1.13
  -5  -3  -3   22.93    1.28
  -5  -3  -3   24.89    1.09
   5   3   3   23.19    1.13
   5   3   3   24.49    1.09
   5   3   3   24.51    1.14
   5   3   3   22.09    1.18
   5   3   3   23.29    1.26
  -6  -3  -3    0.45    0.37
   6   3   3   -0.14    0.38
   6   3   3    0.22    0.37
   6   3   3    0.49    0.37
  -7  -3  -3    7.53    0.90
   7   3   3    9.37    1.04
   7   3   3    8.58    1.02
   7   3   3    9.51    1.01
   8   3   3    3.08    0.79
   9   3   3    1.06    0.70
  -7   4   3    1.21    0.49
   6  -4  -3    2.74    0.87
  -6   4   3    2.57    0.50
  -6   4   3    1.93    0.69
   5  -4  -3    0.30    0.62
  -5   4   3    0.90    0.67
  -5   4   3    0.76    0.34
  -5   4   3   -0.03    0.42
   4  -4  -3   40.74    1.90
  -4   4   3   44.64    1.30
  -4   4   3   43.52    1.62
  -4   4   3   43.29    1.88
   3  -4  -3   45.79    1.79
   3  -4  -3   46.48    1.46
  -3   4   3   46.03    1.50
  -3   4   3   43.86    1.61
  -3   4   3   48.20    1.72
  -3   4   3   46.95    1.23
  -3   4   3   44.23    1.16
  -3   4   3   43.20    1.47
   2  -4  -3   86.28    2.17
   2  -4  -3   86.11    2.42
   2  -4  -3   85.76    2.12
  -2   4   3   84.74    2.10
  -2   4   3   88.30    2.15
  -2   4   3   89.03    2.31
  -2   4   3   84.23    2.28
   1  -4  -3    4.42    0.45
   1  -4  -3    5.00    0.40
   1  -4  -3    3.89    0.27
   1  -4  -3    4.36    0.27
  -1   4   3    4.86    0.36
  -1   4   3    4.47    0.27
  -1   4   3    4.50    0.39
   0  -4  -3   43.93    1.08
   0  -4  -3   41.44    1.09
   0  -4  -3   44.17    1.09
   0   4   3   43.48    1.10
   0   4   3   43.31    0.99
   0   4   3   43.51    1.03
   0   4   3   43.09    0.94
  -1  -4  -3  179.62    3.61
  -1  -4  -3  177.69    3.53
   1   4   3  180.75    3.74
   1   4   3  178.61    3.43
   1   4   3  184.86    3.62
  -2  -4  -3  151.36    3.23
  -2  -4  -3  156.39    3.15
  -2  -4  -3  157.38    3.17
  -2  -4  -3  157.28    3.38
   2   4   3  154.80    3.30
   2   4   3  151.28    3.13
   2   4   3  153.63    3.43
   2   4   3  152.59    3.25
  -3  -4  -3    3.10    0.32
  -3  -4  -3    3.73    0.51
  -3  -4  -3    3.57    0.33
  -3  -4  -3    3.99    0.45
   3   4   3    3.05    0.41
   3   4   3    4.21    0.39
   3   4   3    3.71    0.36
  -4  -4  -3    3.11    0.59
  -4  -4  -3    5.16    0.60
  -4  -4  -3    4.46    0.44
   4   4   3    4.25    0.52
   4   4   3    4.95    0.50
   4   4   3    4.85    0.37
   4   4   3    4.58    0.46
   4   4   3    3.82    0.52
   4   4   3    4.46    0.37
  -5  -4  -3    4.29    0.53
   5   4   3    5.39    0.60
   5   4   3    4.82    0.54
   5   4   3    4.55    0.58
   5   4   3    4.32    0.64
  -6  -4  -3    6.48    0.73
   6   4   3    5.65    0.70
   6   4   3    5.81    0.67
   6   4   3    8.58    0.89
  -7  -4  -3    9.22    0.95
   7   4   3    8.93    0.96
   7   4   3    8.77    0.92
   7   4   3    9.03    1.00
  -8  -4  -3    0.23    0.51
   8   4   3   -0.10    0.44
   8   4   3   -0.44    0.53
   9   4   3    0.60    0.68
  -7   5   3    1.55    0.49
   6  -5  -3    0.53    0.82
  -6   5   3    3.17    0.50
  -6   5   3    2.55    0.81
   5  -5  -3   31.82    1.91
  -5   5   3   33.70    1.14
  -5   5   3   32.06    1.67
   4  -5  -3   24.08    1.49
  -4   5   3   23.08    1.45
  -4   5   3   20.52    1.17
  -4   5   3   21.42    0.77
   3  -5  -3   83.75    2.63
  -3   5   3   80.00    2.23
  -3   5   3   86.62    2.29
  -3   5   3   74.94    1.57
  -3   5   3   77.16    1.57
  -3   5   3   83.27    2.51
   2  -5  -3   24.38    0.89
   2  -5  -3   23.70    0.98
   2  -5  -3   22.45    1.11
  -2   5   3   23.76    1.08
  -2   5   3   22.77    1.04
  -2   5   3   22.22    0.88
  -2   5   3   23.89    0.90
   1  -5  -3    0.07    0.11
   1  -5  -3    0.03    0.19
   1  -5  -3    0.03    0.21
  -1   5   3    0.04    0.15
  -1   5   3    0.18    0.14
  -1   5   3   -0.04    0.19
  -1   5   3   -0.24    0.17
   0  -5  -3   13.70    0.37
   0  -5  -3   12.89    0.37
   0  -5  -3   12.85    0.57
   0  -5  -3   14.06    0.60
   0   5   3   13.54    0.45
   0   5   3   13.32    0.51
   0   5   3   12.37    0.54
   0   5   3   12.58    0.62
  -1  -5  -3    5.87    0.45
  -1  -5  -3    6.50    0.34
   1   5   3    5.14    0.25
   1   5   3    5.42    0.30
   1   5   3    6.28    0.45
   1   5   3    5.87    0.36
  -2  -5  -3   42.00    1.29
  -2  -5  -3   41.61    0.91
  -2  -5  -3   38.74    0.91
  -2  -5  -3   39.95    1.03
   2   5   3   42.89    1.31
   2   5   3   40.15    1.20
   2   5   3   39.20    1.00
   2   5   3   39.25    1.05
  -3  -5  -3    2.32    0.35
  -3  -5  -3    2.45    0.47
  -3  -5  -3    1.97    0.25
   3   5   3    1.90    0.39
   3   5   3    2.26    0.40
  -4  -5  -3    5.66    0.64
  -4  -5  -3    5.03    0.74
  -4  -5  -3    5.96    0.52
   4   5   3    5.16    0.49
   4   5   3    5.32    0.49
   4   5   3    5.21    0.63
   4   5   3    5.81    0.57
  -5  -5  -3    0.60    0.28
   5   5   3    0.88    0.32
   5   5   3    0.26    0.27
   5   5   3    0.83    0.23
   5   5   3    0.77    0.25
  -6  -5  -3   15.93    0.96
   6   5   3   14.30    0.85
   6   5   3   15.26    1.02
   6   5   3   15.90    0.96
  -7  -5  -3    0.44    0.42
   7   5   3    0.12    0.46
   7   5   3    1.00    0.42
   7   5   3   -0.15    0.44
  -8  -5  -3    0.21    0.50
   8   5   3   -0.44    0.39
   8   5   3   -0.04    0.52
   9   5   3    0.23    0.66
   6  -6  -3    2.29    1.00
  -6   6   3    1.64    0.32
  -6   6   3    2.40    0.83
   5  -6  -3   10.70    1.31
  -5   6   3    9.69    0.43
  -5   6   3    9.31    1.08
   4  -6  -3   36.19    1.92
  -4   6   3   35.53    1.61
   3  -6  -3   23.36    1.38
  -3   6   3   22.99    1.31
  -3   6   3   23.91    1.10
  -3   6   3   22.97    1.13
   2  -6  -3   31.37    1.40
  -2   6   3   33.58    1.12
  -2   6   3   31.08    1.12
  -2   6   3   31.25    1.30
  -2   6   3   30.68    1.28
   1  -6  -3   14.17    0.78
   1  -6  -3   14.50    0.60
   1  -6  -3   16.20    0.84
  -1   6   3   15.56    0.87
   0  -6  -3   21.68    0.85
   0  -6  -3   23.17    0.91
   0  -6  -3   23.48    0.65
   0  -6  -3   22.52    0.88
   0   6   3   22.43    0.80
   0   6   3   23.83    0.73
   0   6   3   22.67    0.90
   0   6   3   23.48    0.99
  -1  -6  -3   42.78    1.34
  -1  -6  -3   41.28    1.17
   1   6   3   45.02    1.30
   1   6   3   44.70    1.09
   1   6   3   43.06    1.15
   1   6   3   43.50    1.40
  -2  -6  -3    2.18    0.15
  -2  -6  -3    2.23    0.14
  -2  -6  -3    2.13    0.25
  -2  -6  -3    2.69    0.44
   2   6   3    2.24    0.42
   2   6   3    2.02    0.23
   2   6   3    2.12    0.26
   2   6   3    2.75    0.41
  -3  -6  -3    4.48    0.62
  -3  -6  -3    4.41    0.42
  -3  -6  -3    3.75    0.36
   3   6   3    4.71    0.62
   3   6   3    3.34    0.35
   3   6   3    4.60    0.56
  -4  -6  -3   15.60    0.72
  -4  -6  -3   15.50    0.90
   4   6   3   14.64    0.98
   4   6   3   16.02    0.77
  -5  -6  -3    3.57    0.49
   5   6   3    3.81    0.49
   5   6   3    5.33    0.59
  -6  -6  -3   33.97    1.40
   6   6   3   35.08    1.49
   6   6   3   35.95    1.46
  -7  -6  -3    4.28    0.69
   7   6   3    4.60    0.67
   7   6   3    5.56    0.52
  -8  -6  -3   -0.15    0.45
   8   6   3    0.00    0.42
   8   6   3    0.17    0.44
  -9  -6  -3    4.18    0.91
   9   6   3    3.36    0.70
   9   6   3    3.57    0.86
   5  -7  -3   11.16    1.42
  -5   7   3    8.55    1.08
   4  -7  -3    6.43    1.05
  -4   7   3    5.91    0.82
   3  -7  -3   10.17    1.08
  -3   7   3    9.81    0.91
   2  -7  -3    0.91    0.45
  -2   7   3    0.90    0.40
  -2   7   3    0.48    0.29
  -2   7   3    0.07    0.26
   1  -7  -3    1.29    0.38
  -1   7   3    1.06    0.34
  -1   7   3    1.07    0.26
   0  -7  -3   16.53    0.80
   0  -7  -3   15.76    0.55
   0  -7  -3   15.15    0.93
   0   7   3   16.03    0.98
  -1  -7  -3    3.01    0.17
  -1  -7  -3    3.01    0.48
  -1  -7  -3    3.63    0.39
   1   7   3    3.50    0.33
   1   7   3    3.17    0.51
   1   7   3    3.64    0.49
  -2  -7  -3    1.55    0.43
  -2  -7  -3    2.22    0.31
  -2  -7  -3    1.93    0.16
   2   7   3    1.80    0.45
   2   7   3    1.76    0.25
   2   7   3    1.25    0.39
  -3  -7  -3   -0.17    0.39
  -3  -7  -3    0.58    0.21
  -3  -7  -3    0.12    0.16
   3   7   3   -0.06    0.10
   3   7   3   -0.01    0.13
   3   7   3   -0.14    0.37
  -4  -7  -3   23.23    0.95
   4   7   3   24.73    0.98
   4   7   3   24.53    0.93
  -5  -7  -3  111.48    2.85
   5   7   3  110.54    2.84
   5   7   3  110.44    2.90
  -6  -7  -3   -0.03    0.30
   6   7   3   -0.06    0.31
  -7  -7  -3    0.42    0.42
   7   7   3    0.18    0.40
  -8  -7  -3    5.51    0.88
   8   7   3    5.52    0.83
   9   7   3    8.29    1.08
  -5   8   3    1.18    0.71
   4  -8  -3    3.47    0.90
  -4   8   3    2.79    0.69
  -4   8   3    2.54    0.67
   3  -8  -3    3.50    0.80
  -3   8   3    2.56    0.61
   2  -8  -3    2.75    0.64
   2  -8  -3    2.58    0.62
  -2   8   3    1.70    0.44
   1  -8  -3    9.98    0.91
   1  -8  -3   10.59    0.92
  -1   8   3    9.90    0.68
   0  -8  -3   12.92    0.80
   0   8   3   13.91    0.77
   0   8   3   12.67    0.65
  -1  -8  -3    9.32    0.63
   1   8   3    8.86    0.58
   1   8   3    8.71    0.50
  -2  -8  -3    0.49    0.23
   2   8   3    0.33    0.21
   2   8   3    0.46    0.20
  -3  -8  -3    4.36    0.46
   3   8   3    4.56    0.43
   3   8   3    4.87    0.47
  -4  -8  -3   40.57    1.36
   4   8   3   40.27    1.30
   4   8   3   37.45    1.32
  -5  -8  -3   14.56    0.85
   5   8   3   14.39    0.83
  -6  -8  -3   16.03    0.99
   6   8   3   14.37    0.94
  -7  -8  -3   11.94    1.08
   7   8   3   11.63    1.06
  -8  -8  -3    1.05    0.58
   8   8   3    0.64    0.47
  -4   9   3    0.92    0.66
  -4   9   3    0.43    0.57
   3  -9  -3   -0.48    0.55
   3  -9  -3    0.00    0.55
  -3   9   3    0.21    0.50
   2  -9  -3    2.51    0.67
  -2   9   3    2.32    0.54
   1  -9  -3   27.39    1.40
  -1   9   3   28.41    1.20
   0  -9  -3   18.84    1.07
   0   9   3   20.64    0.91
  -1  -9  -3    0.41    0.28
   1   9   3    0.14    0.22
  -2  -9  -3    3.87    0.49
   2   9   3    3.99    0.44
  -3  -9  -3   73.37    2.06
   3   9   3   74.98    1.98
  -4  -9  -3   42.28    1.47
   4   9   3   42.35    1.40
  -5  -9  -3    6.00    0.65
   5   9   3    5.16    0.61
  -6  -9  -3    4.11    0.64
   6   9   3    4.66    0.66
  -7  -9  -3    1.56    0.53
   7   9   3    2.24    0.57
   8   9   3    2.61    0.71
  -3  10   3    6.56    0.97
  -2  10   3   13.88    1.16
   1 -10  -3   27.94    1.54
  -1  10   3   29.85    1.35
   0 -10  -3    1.89    0.53
   0  10   3    0.82    0.36
  -1 -10  -3    7.46    0.75
   1  10   3    6.37    0.62
  -2 -10  -3   23.14    1.09
   2  10   3   24.80    1.03
  -3 -10  -3   10.94    0.75
   3  10   3   10.53    0.70
  -4 -10  -3    8.44    0.76
   4  10   3    8.02    0.71
  -5 -10  -3    1.57    0.44
   5  10   3    1.91    0.45
  -6 -10  -3    0.22    0.39
   6  10   3    0.03    0.36
   7  10   3    1.76    0.57
  -1  11   3    1.70    0.57
   0  11   3    7.79    0.81
  -1 -11  -3    3.25    0.61
   1  11   3    3.58    0.55
  -2 -11  -3    7.73    0.79
   2  11   3    6.25    0.68
  -3 -11  -3    5.11    0.66
   3  11   3    6.61    0.68
  -4 -11  -3    2.71    0.53
   4  11   3    3.74    0.55
  -5 -11  -3    0.80    0.40
   5  11   3    1.39    0.44
   6  11   3    2.64    0.58
   7  11   3   -0.25    0.43
   1  12   3    2.26    0.56
   2  12   3    2.64    0.55
   3  12   3    0.44    0.40
   4  12   3    1.35    0.47
   5  12   3    0.82    0.44
   6  10  -4    0.23    0.55
   5  10  -4    0.90    0.56
  -5 -10   4    2.18    0.69
   4  10  -4    2.09    0.65
  -4 -10   4    2.03    0.68
   3  10  -4    2.27    0.65
  -3 -10   4    2.32    0.72
   2  10  -4    3.09    0.73
  -2 -10   4    2.49    0.74
   1  10  -4    1.24    0.61
  -1 -10   4    0.99    0.65
   0  10  -4    8.52    1.09
   7   9  -4    0.24    0.56
   7   9  -4    0.87    0.57
   6   9  -4    2.76    0.66
   6   9  -4    3.58    0.65
  -6  -9   4    2.48    0.71
   5   9  -4   18.96    1.07
   5   9  -4   17.81    1.24
  -5  -9   4   18.96    1.33
   4   9  -4   13.51    0.89
   4   9  -4   14.47    1.09
  -4  -9   4   13.16    1.16
   3   9  -4    2.58    0.58
   3   9  -4    4.26    0.56
  -3  -9   4    2.52    0.63
   2   9  -4    0.94    0.40
   2   9  -4    0.91    0.48
  -2  -9   4    1.09    0.54
   1   9  -4    5.12    0.77
   1   9  -4    5.03    0.58
  -1  -9   4    3.84    0.77
   0   9  -4   32.66    1.25
   0   9  -4   36.29    1.71
   0  -9   4   34.43    1.83
  -1   9  -4    3.79    0.55
  -1   9  -4    4.40    0.85
   1  -9   4    4.92    0.93
  -2   9  -4    8.90    1.16
  -2   9  -4    7.93    0.73
   8   8  -4    2.92    0.81
   7   8  -4    4.74    0.84
   7   8  -4    5.31    0.87
   6   8  -4   23.62    1.35
   6   8  -4   22.29    1.35
  -6  -8   4   22.18    1.43
   5   8  -4   26.40    1.35
   5   8  -4   26.25    1.32
  -5  -8   4   23.82    1.38
   4   8  -4   10.30    0.95
   4   8  -4   12.50    0.96
  -4  -8   4   12.08    1.10
   3   8  -4    1.63    0.48
   3   8  -4    2.99    0.57
  -3  -8   4    1.31    0.49
   2   8  -4   19.92    1.04
   2   8  -4   18.09    1.09
  -2  -8   4   18.68    1.20
   1   8  -4   35.59    1.54
   1   8  -4   35.41    1.39
  -1  -8   4   35.45    1.67
   0   8  -4   14.68    1.07
   0   8  -4   13.50    0.94
   0  -8   4   14.51    1.30
  -1   8  -4    0.19    0.48
  -1   8  -4   -0.08    0.40
   1  -8   4   -0.05    0.50
  -2   8  -4   -0.46    0.38
  -2   8  -4   -0.05    0.54
   2  -8   4   -0.28    0.57
  -3   8  -4    0.33    0.51
   8   7  -4    6.22    0.99
   7   7  -4   24.91    1.59
   7   7  -4   24.04    1.52
   6   7  -4   25.46    1.46
   6   7  -4   28.62    1.45
  -6  -7   4   28.58    1.53
   5   7  -4   29.04    1.47
   5   7  -4   25.49    1.37
   5   7  -4   25.94    1.29
  -5  -7   4   27.59    1.40
   4   7  -4    5.32    0.67
   4   7  -4    3.57    0.63
   4   7  -4    3.77    0.63
  -4  -7   4    5.48    0.76
   3   7  -4    1.52    0.49
   3   7  -4    1.40    0.46
   3   7  -4    1.14    0.34
  -3  -7   4    1.41    0.46
   2   7  -4   10.27    0.93
   2   7  -4   11.69    0.86
   2   7  -4   10.47    0.74
  -2  -7   4   12.09    1.01
   1   7  -4   25.01    1.16
   1   7  -4   23.66    1.28
   1   7  -4   24.04    1.14
  -1  -7   4   23.74    1.29
   0   7  -4    0.98    0.42
   0   7  -4    0.91    0.47
   0   7  -4    0.30    0.35
   0  -7   4    1.55    0.50
  -1   7  -4    1.01    0.44
  -1   7  -4    0.64    0.44
  -1   7  -4    0.92    0.56
   1  -7   4    0.10    0.46
  -2   7  -4    1.18    0.47
  -2   7  -4    1.65    0.57
   2  -7   4    2.96    0.74
  -3   7  -4    5.76    0.79
  -3   7  -4    4.03    0.84
   3  -7   4    2.97    0.84
  -4   7  -4    1.48    0.59
   8   6  -4   10.84    1.26
   7   6  -4   21.41    1.44
   6   6  -4   33.45    1.64
   6   6  -4   34.92    1.66
   6   6  -4   36.93    1.56
  -6  -6   4   34.20    1.60
   5   6  -4    0.05    0.38
   5   6  -4    0.33    0.40
   5   6  -4    0.53    0.33
  -5  -6   4    0.08    0.35
   4   6  -4    1.80    0.47
   4   6  -4    0.87    0.31
   4   6  -4    0.56    0.40
  -4  -6   4    1.23    0.69
  -4  -6   4    1.38    0.42
   3   6  -4   14.71    0.84
   3   6  -4   13.36    0.92
   3   6  -4   15.24    0.96
  -3  -6   4   16.20    1.46
  -3  -6   4   15.15    0.94
   2   6  -4   19.35    0.92
   2   6  -4   18.85    1.03
   2   6  -4   19.64    1.03
  -2  -6   4   19.18    1.41
  -2  -6   4   16.18    0.98
   1   6  -4    0.67    0.27
   1   6  -4    1.05    0.38
   1   6  -4    0.81    0.39
  -1  -6   4    1.60    0.43
  -1  -6   4    0.67    0.61
   0   6  -4    0.12    0.34
   0   6  -4    0.65    0.41
   0   6  -4   -0.01    0.29
   0   6  -4    0.28    0.27
   0  -6   4    0.27    0.35
   0  -6   4    0.00    0.65
  -1   6  -4    1.29    0.40
  -1   6  -4    1.15    0.46
  -1   6  -4    1.15    0.48
  -1   6  -4    0.64    0.37
   1  -6   4    0.61    0.43
  -2   6  -4    0.37    0.40
  -2   6  -4    0.91    0.37
  -2   6  -4    0.77    0.53
  -2   6  -4    0.94    0.40
   2  -6   4    0.35    0.46
  -3   6  -4   16.45    1.25
  -3   6  -4   17.23    1.06
   3  -6   4   19.17    1.43
  -4   6  -4    0.55    0.47
  -5   6  -4    0.20    0.48
   9   5  -4    5.94    1.07
  -9  -5   4    9.42    1.25
   8   5  -4   12.73    1.34
  -8  -5   4   13.51    1.36
   7   5  -4   19.11    1.42
  -7  -5   4   22.14    1.52
   6   5  -4    1.11    0.52
   6   5  -4    2.34    0.50
   6   5  -4    1.71    0.59
  -6  -5   4    2.38    0.56
  -6  -5   4    1.07    0.67
   5   5  -4    4.54    0.70
   5   5  -4    3.35    0.56
   5   5  -4    3.60    0.52
  -5  -5   4    5.35    0.68
  -5  -5   4    3.27    0.73
   4   5  -4    1.52    0.49
   4   5  -4    1.49    0.41
   4   5  -4    2.33    0.43
  -4  -5   4    1.52    0.57
  -4  -5   4    1.59    0.43
   3   5  -4   17.56    1.38
   3   5  -4   16.32    0.83
   3   5  -4   18.83    1.02
   3   5  -4   18.04    0.96
   3   5  -4   15.92    1.43
  -3  -5   4   17.48    0.92
  -3  -5   4   15.86    1.30
  -3  -5   4   17.09    1.34
   2   5  -4    0.25    0.33
   2   5  -4    0.24    0.20
   2   5  -4    0.57    0.51
   2   5  -4    0.21    0.27
   2   5  -4    0.04    0.49
  -2  -5   4    0.66    0.53
  -2  -5   4    0.90    0.45
  -2  -5   4    0.21    0.27
   1   5  -4    0.38    0.46
   1   5  -4    0.23    0.51
   1   5  -4    0.28    0.28
   1   5  -4    0.05    0.17
   1   5  -4    0.15    0.30
  -1  -5   4    0.39    0.29
  -1  -5   4   -0.26    0.43
  -1  -5   4    0.48    0.38
   0   5  -4    0.24    0.21
   0   5  -4    0.54    0.49
   0   5  -4   -0.04    0.28
   0   5  -4    0.23    0.30
   0   5  -4    0.84    0.34
   0   5  -4    0.22    0.54
   0  -5   4    0.65    0.56
   0  -5   4    0.16    0.31
   0  -5   4    0.87    0.49
  -1   5  -4    5.20    0.66
  -1   5  -4    5.86    0.63
  -1   5  -4    5.54    0.71
  -1   5  -4    6.18    0.64
   1  -5   4    6.10    0.96
   1  -5   4    5.86    0.71
  -2   5  -4   85.13    2.70
  -2   5  -4   87.30    2.43
  -2   5  -4   86.73    2.47
  -2   5  -4   82.51    2.78
   2  -5   4   86.40    2.74
   2  -5   4   79.07    2.99
  -3   5  -4    0.13    0.33
  -3   5  -4    0.65    0.37
  -3   5  -4    0.24    0.41
  -3   5  -4    0.19    0.50
   3  -5   4   -0.54    0.39
   3  -5   4   -0.52    0.69
  -4   5  -4   -0.52    0.32
   4  -5   4    0.01    0.64
  -5   5  -4    1.09    0.47
   9   4  -4    2.29    0.84
   8   4  -4    7.85    1.12
  -8  -4   4    7.46    1.05
   7   4  -4    0.46    0.56
  -7  -4   4    0.30    0.45
   6   4  -4    9.80    0.90
   6   4  -4    7.43    0.83
   6   4  -4    6.14    0.84
  -6  -4   4    7.58    0.96
  -6  -4   4    8.80    0.87
   5   4  -4    1.49    0.56
   5   4  -4    2.07    0.39
   5   4  -4    2.24    0.49
  -5  -4   4    2.48    0.64
  -5  -4   4    2.16    0.45
   4   4  -4   17.64    1.52
   4   4  -4   15.03    1.41
   4   4  -4   15.50    1.00
   4   4  -4   17.59    0.86
   4   4  -4   15.50    0.90
  -4  -4   4   16.29    1.14
  -4  -4   4   15.72    1.39
  -4  -4   4   17.98    0.92
   3   4  -4    2.65    0.64
   3   4  -4    2.25    0.47
   3   4  -4    2.42    0.66
   3   4  -4    2.68    0.36
   3   4  -4    2.07    0.38
  -3  -4   4    2.83    0.61
  -3  -4   4    2.27    0.68
  -3  -4   4    2.68    0.57
  -3  -4   4    2.43    0.42
  -3  -4   4    3.03    0.63
  -3  -4   4    2.59    0.41
   2   4  -4    2.18    0.61
   2   4  -4    2.02    0.37
   2   4  -4    2.38    0.44
   2   4  -4    1.55    0.29
   2   4  -4    1.10    0.56
  -2  -4   4    2.21    0.56
  -2  -4   4    1.37    0.50
  -2  -4   4    1.76    0.36
  -2  -4   4    2.42    0.59
  -2  -4   4    1.73    0.33
  -2  -4   4    2.67    0.55
   1   4  -4    8.13    0.67
   1   4  -4    8.12    0.96
   1   4  -4    7.05    0.48
   1   4  -4    8.92    0.96
   1   4  -4    7.76    0.60
  -1  -4   4    8.30    0.62
  -1  -4   4    7.09    0.54
  -1  -4   4    9.01    0.91
  -1  -4   4    7.48    0.87
  -1  -4   4   10.71    0.98
  -1  -4   4    7.71    0.77
   0   4  -4    4.19    0.57
   0   4  -4    2.85    0.62
   0   4  -4    3.21    0.64
   0   4  -4    3.11    0.39
   0   4  -4    2.73    0.43
   0   4  -4    3.28    0.44
   0  -4   4    3.43    0.45
   0  -4   4    3.91    0.64
   0  -4   4    4.91    0.66
   0  -4   4    4.33    0.71
   0  -4   4    2.97    0.44
  -1   4  -4   64.93    1.91
  -1   4  -4   68.06    2.20
  -1   4  -4   66.07    1.87
  -1   4  -4   64.83    2.46
  -1   4  -4   69.71    2.35
  -1   4  -4   65.01    2.03
   1  -4   4   66.36    2.32
   1  -4   4   65.81    2.07
   1  -4   4   66.71    2.28
  -2   4  -4   23.14    1.21
  -2   4  -4   24.53    1.07
  -2   4  -4   23.29    1.38
  -2   4  -4   24.39    1.27
  -2   4  -4   21.37    1.06
  -2   4  -4   22.04    1.49
   2  -4   4   23.10    1.25
   2  -4   4   23.18    1.50
  -3   4  -4   10.86    0.82
  -3   4  -4    8.64    0.91
  -3   4  -4   10.21    0.79
  -3   4  -4    9.29    0.99
   3  -4   4   10.75    1.28
   3  -4   4   11.13    1.04
  -4   4  -4    1.70    0.47
   4  -4   4    1.81    0.83
   4  -4   4    2.96    0.69
  -5   4  -4    5.54    0.73
   5  -4   4    6.08    1.13
  -6   4  -4   12.81    1.17
   6  -4   4   13.77    1.63
   9   3  -4    4.67    0.97
  -9  -3   4    5.38    0.96
   8   3  -4    1.17    0.72
  -8  -3   4    1.56    0.60
   7   3  -4    0.88    0.62
  -7  -3   4    1.77    0.56
   6   3  -4    1.94    0.61
  -6  -3   4    1.15    0.54
  -6  -3   4    2.60    0.51
   5   3  -4    0.56    0.49
   5   3  -4    1.04    0.34
   5   3  -4    0.85    0.31
   5   3  -4    1.07    0.70
   5   3  -4    1.49    0.61
  -5  -3   4    1.23    0.40
  -5  -3   4    1.05    0.65
  -5  -3   4    1.39    0.50
   4   3  -4   16.31    0.87
   4   3  -4   16.60    1.29
   4   3  -4   15.16    0.96
   4   3  -4   16.40    1.37
   4   3  -4   15.72    0.79
  -4  -3   4   15.41    0.87
  -4  -3   4   15.36    0.83
  -4  -3   4   14.89    1.32
  -4  -3   4   15.09    1.00
  -4  -3   4   15.10    1.13
   3   3  -4   18.45    1.23
   3   3  -4   17.11    0.78
   3   3  -4   17.61    0.92
   3   3  -4   16.57    0.82
   3   3  -4   15.30    1.13
  -3  -3   4   15.05    0.78
  -3  -3   4   16.96    1.11
  -3  -3   4   17.11    1.22
  -3  -3   4   16.68    1.01
  -3  -3   4   17.29    0.83
   2   3  -4   17.97    1.17
   2   3  -4   20.59    0.86
   2   3  -4   20.56    0.90
   2   3  -4   19.74    0.77
   2   3  -4   19.27    1.18
  -2  -3   4   18.71    1.05
  -2  -3   4   19.47    0.83
  -2  -3   4   19.88    1.22
  -2  -3   4   19.21    1.14
  -2  -3   4   19.30    0.84
   1   3  -4   14.47    0.64
   1   3  -4   14.30    1.05
   1   3  -4   14.99    0.74
   1   3  -4   15.90    1.02
   1   3  -4   15.16    0.73
  -1  -3   4   14.57    0.70
  -1  -3   4   14.81    0.97
  -1  -3   4   15.67    1.06
  -1  -3   4   15.70    0.97
  -1  -3   4   16.64    0.77
   0   3  -4  227.60    4.87
   0   3  -4  225.18    5.04
   0   3  -4  229.14    4.81
   0   3  -4  226.79    5.39
   0   3  -4  224.48    5.54
   0   3  -4  232.79    5.35
   0  -3   4  232.40    5.27
   0  -3   4  228.59    4.99
   0  -3   4  221.61    5.38
   0  -3   4  227.84    5.23
   0  -3   4  234.02    5.01
  -1   3  -4   85.13    2.79
  -1   3  -4   88.17    2.41
  -1   3  -4   90.03    2.66
  -1   3  -4   89.64    2.26
  -1   3  -4   88.29    2.29
  -1   3  -4   88.00    2.59
   1  -3   4   93.45    2.46
   1  -3   4   91.88    2.60
   1  -3   4   92.97    2.38
   1  -3   4   96.65    2.71
   1  -3   4   91.05    2.66
  -2   3  -4   12.79    0.97
  -2   3  -4   14.89    0.94
  -2   3  -4   15.39    0.78
  -2   3  -4   13.61    0.79
  -2   3  -4   14.26    1.12
  -2   3  -4   14.43    0.88
   2  -3   4   14.27    0.93
   2  -3   4   12.97    0.79
   2  -3   4   13.79    0.99
   2  -3   4   12.89    0.89
   2  -3   4   14.59    1.13
  -3   3  -4    0.40    0.35
  -3   3  -4    0.73    0.41
  -3   3  -4    0.72    0.45
  -3   3  -4    0.26    0.28
  -3   3  -4    0.42    0.47
   3  -3   4   -0.06    0.31
   3  -3   4    0.22    0.55
   3  -3   4    0.45    0.42
  -4   3  -4    1.77    0.45
  -4   3  -4    1.78    0.48
  -4   3  -4    1.04    0.42
  -4   3  -4    1.65    0.62
   4  -3   4    1.90    0.59
   4  -3   4    2.93    0.83
   4  -3   4    3.01    0.66
  -5   3  -4   12.47    1.06
   5  -3   4    9.75    1.26
  -6   3  -4    5.59    0.81
   6  -3   4    3.62    1.01
  -7   3  -4    2.32    0.66
   7  -3   4    1.13    0.89
   9   2  -4    0.02    0.67
  -9  -2   4    0.69    0.58
   8   2  -4    0.69    0.62
  -8  -2   4   -0.09    0.49
   7   2  -4    1.63    0.67
   6   2  -4    7.22    1.23
   6   2  -4    5.00    0.85
  -6  -2   4    5.12    0.70
  -6  -2   4    5.01    0.74
   5   2  -4   37.89    2.00
   5   2  -4   38.45    1.82
   5   2  -4   39.15    1.49
   5   2  -4   40.68    1.67
   5   2  -4   37.83    1.37
  -5  -2   4   36.60    1.54
  -5  -2   4   38.64    2.02
  -5  -2   4   38.87    1.44
  -5  -2   4   38.20    1.53
  -5  -2   4   40.09    1.86
   4   2  -4   79.65    2.21
   4   2  -4   76.76    2.72
   4   2  -4   76.25    2.08
   4   2  -4   80.93    2.65
   4   2  -4   77.40    2.30
  -4  -2   4   76.67    2.30
  -4  -2   4   78.31    2.26
  -4  -2   4   78.12    2.57
  -4  -2   4   83.07    2.16
  -4  -2   4   77.23    2.73
   3   2  -4   27.02    1.37
   3   2  -4   26.49    1.11
   3   2  -4   29.66    1.48
   3   2  -4   27.87    0.97
   3   2  -4   28.76    1.05
  -3  -2   4   28.34    1.06
  -3  -2   4   27.24    1.01
  -3  -2   4   25.87    1.15
  -3  -2   4   28.09    1.34
  -3  -2   4   27.35    1.44
   2   2  -4   27.94    0.91
   2   2  -4   27.00    1.01
   2   2  -4   24.85    1.28
   2   2  -4   27.73    1.32
   2   2  -4   27.25    0.97
  -2  -2   4   27.00    1.33
  -2  -2   4   26.95    1.27
  -2  -2   4   28.49    0.96
  -2  -2   4   27.39    1.15
  -2  -2   4   28.08    0.98
  -2  -2   4   26.97    1.14
   1   2  -4   83.62    2.39
   1   2  -4   84.77    2.52
   1   2  -4   82.79    2.06
   1   2  -4   88.53    1.99
   1   2  -4   82.09    2.08
  -1  -2   4   82.99    2.48
  -1  -2   4   81.48    2.07
  -1  -2   4   88.22    2.32
  -1  -2   4   81.28    2.06
  -1  -2   4   85.84    2.32
   0   2  -4   91.11    2.50
   0   2  -4   92.04    2.12
   0   2  -4   91.88    2.19
   0   2  -4   87.16    2.42
   0   2  -4   93.81    2.65
   0   2  -4   91.13    2.25
   0  -2   4   87.88    2.23
   0  -2   4   88.67    2.56
   0  -2   4   92.95    2.23
   0  -2   4   90.42    2.46
  -1   2  -4   44.40    1.58
  -1   2  -4   49.39    1.47
  -1   2  -4   46.64    1.75
  -1   2  -4   47.26    1.38
  -1   2  -4   46.13    1.32
  -1   2  -4   48.41    1.60
   1  -2   4   45.95    1.46
   1  -2   4   48.19    1.43
   1  -2   4   48.03    1.67
   1  -2   4   48.79    1.68
   1  -2   4   47.76    1.63
  -2   2  -4    0.66    0.39
  -2   2  -4    0.32    0.35
  -2   2  -4    0.57    0.28
  -2   2  -4    0.42    0.26
  -2   2  -4    0.46    0.21
   2  -2   4    0.18    0.20
   2  -2   4    0.92    0.35
   2  -2   4    0.36    0.40
   2  -2   4    0.51    0.30
   2  -2   4    0.39    0.32
  -3   2  -4    0.30    0.40
  -3   2  -4    2.23    0.49
  -3   2  -4    1.23    0.38
  -3   2  -4    1.31    0.43
  -3   2  -4    1.12    0.33
   3  -2   4    0.96    0.49
   3  -2   4    0.89    0.32
   3  -2   4    0.95    0.38
   3  -2   4    1.46    0.39
   3  -2   4    1.15    0.41
  -4   2  -4    6.47    0.71
  -4   2  -4    5.34    0.79
  -4   2  -4    6.57    0.71
  -4   2  -4    5.86    0.66
  -4   2  -4    5.05    0.75
   4  -2   4    4.41    0.67
   4  -2   4    4.86    0.74
   4  -2   4    6.45    0.93
   4  -2   4    5.55    0.79
  -5   2  -4    8.98    0.87
   5  -2   4    5.09    0.91
  -6   2  -4    3.47    0.68
   6  -2   4    4.21    0.92
  -7   2  -4    0.13    0.48
   7  -2   4    0.49    0.70
   9   1  -4    0.01    0.65
  -9  -1   4    1.14    0.60
   8   1  -4   -0.43    0.55
  -8  -1   4   -0.58    0.38
   7   1  -4    3.39    0.80
  -7  -1   4    1.76    0.55
   6   1  -4   21.54    1.71
   6   1  -4   21.70    1.46
  -6  -1   4   25.07    2.03
  -6  -1   4   24.47    1.57
   5   1  -4   35.03    1.58
   5   1  -4   35.02    1.40
   5   1  -4   36.85    1.91
   5   1  -4   35.01    1.29
  -5  -1   4   35.31    1.35
  -5  -1   4   34.74    1.46
  -5  -1   4   35.79    1.90
  -5  -1   4   34.12    1.41
  -5  -1   4   34.26    1.68
   4   1  -4   22.46    0.98
   4   1  -4   21.25    1.38
   4   1  -4   22.72    1.24
   4   1  -4   22.41    0.90
   4   1  -4   22.37    1.11
  -4  -1   4   21.81    0.93
  -4  -1   4   21.11    1.01
  -4  -1   4   20.71    1.18
  -4  -1   4   20.20    1.36
  -4  -1   4   22.04    1.01
   3   1  -4   97.61    2.81
   3   1  -4   96.94    2.50
   3   1  -4   95.42    2.91
   3   1  -4   99.27    2.45
   3   1  -4   97.60    2.32
  -3  -1   4  101.87    2.50
  -3  -1   4   99.57    2.92
  -3  -1   4   96.02    2.49
  -3  -1   4   98.77    2.38
  -3  -1   4   94.78    2.72
   2   1  -4   47.31    1.67
   2   1  -4   45.33    1.31
   2   1  -4   48.06    1.31
   2   1  -4   48.76    1.26
   2   1  -4   46.83    1.36
   2   1  -4   44.70    1.66
  -2  -1   4   46.52    1.33
  -2  -1   4   46.24    1.70
  -2  -1   4   44.82    1.59
  -2  -1   4   45.57    1.28
  -2  -1   4   47.00    1.42
   1   1  -4  233.24    4.72
   1   1  -4  221.98    5.20
   1   1  -4  228.20    5.06
   1   1  -4  230.17    4.81
   1   1  -4  230.27    4.76
   1   1  -4  228.90    4.62
  -1  -1   4  232.64    5.07
  -1  -1   4  224.81    5.22
  -1  -1   4  228.01    5.14
  -1  -1   4  230.76    4.82
  -1  -1   4  227.31    4.86
  -1  -1   4  223.40    4.71
   0   1  -4   73.79    1.69
   0   1  -4   71.43    1.74
   0   1  -4   73.12    1.78
   0   1  -4   73.25    2.12
   0   1  -4   73.31    1.82
   0   1  -4   69.36    1.94
   0   1  -4   71.18    1.97
   0  -1   4   70.12    1.93
   0  -1   4   73.19    1.78
   0  -1   4   71.96    1.77
   0  -1   4   72.16    2.08
  -1   1  -4    0.11    0.23
  -1   1  -4    0.19    0.30
  -1   1  -4    0.41    0.20
  -1   1  -4    0.34    0.16
  -1   1  -4    0.35    0.29
  -1   1  -4    0.28    0.20
  -1   1  -4    0.48    0.25
   1  -1   4    0.58    0.22
   1  -1   4    0.51    0.23
   1  -1   4    0.66    0.35
   1  -1   4    0.48    0.29
   1  -1   4    0.63    0.32
  -2   1  -4   11.92    0.66
  -2   1  -4   12.00    0.76
  -2   1  -4   12.05    0.61
  -2   1  -4   11.46    0.83
  -2   1  -4   11.44    0.69
   2  -1   4   12.71    0.73
   2  -1   4   11.88    0.80
   2  -1   4   11.55    0.86
   2  -1   4   12.76    0.68
   2  -1   4   12.31    0.78
  -3   1  -4   17.73    1.08
  -3   1  -4   16.33    0.95
  -3   1  -4   16.25    0.81
  -3   1  -4   14.52    0.92
  -3   1  -4   15.74    0.82
  -3   1  -4   16.14    0.84
   3  -1   4   15.38    0.95
   3  -1   4   16.19    1.07
   3  -1   4   17.39    1.00
   3  -1   4   15.74    0.85
   3  -1   4   16.20    0.94
   3  -1   4   16.54    0.95
  -4   1  -4    4.59    0.60
  -4   1  -4    6.97    0.72
  -4   1  -4    5.29    0.74
  -4   1  -4    5.91    0.72
   4  -1   4    6.06    0.71
   4  -1   4    6.54    0.71
   4  -1   4    5.82    0.76
   4  -1   4    5.55    0.86
   4  -1   4    5.08    0.72
   4  -1   4    7.13    0.84
  -5   1  -4    1.90    0.58
  -5   1  -4    1.86    0.50
   5  -1   4    2.27    0.77
  -6   1  -4   -0.58    0.32
   6  -1   4    0.17    0.55
  -7   1  -4    0.38    0.45
   7  -1   4    0.07    0.60
  -8   1  -4   -0.41    0.43
   8  -1   4   -0.36    0.62
   8   0  -4    0.47    0.67
  -8   0   4    0.93    0.49
   7   0  -4    8.81    1.13
  -7   0   4   10.42    1.03
   6   0  -4   43.70    2.02
   6   0  -4   43.61    2.27
  -6   0   4   41.15    2.29
  -6   0   4   45.24    2.06
  -6   0   4   43.13    1.67
   5   0  -4   56.78    2.42
   5   0  -4   54.93    2.07
   5   0  -4   59.05    1.91
  -5   0   4   59.12    1.85
  -5   0   4   56.88    2.40
  -5   0   4   54.30    1.85
  -5   0   4   60.74    2.01
  -5   0   4   58.59    2.17
   4   0  -4   22.27    1.34
   4   0  -4   19.69    0.85
   4   0  -4   19.59    1.07
   4   0  -4   20.61    0.93
   4   0  -4   19.00    1.11
  -4   0   4   19.51    1.10
  -4   0   4   20.35    0.93
  -4   0   4   22.04    1.00
  -4   0   4   20.04    0.88
  -4   0   4   18.96    1.27
   3   0  -4    5.67    0.44
   3   0  -4    6.48    0.61
   3   0  -4    5.44    0.42
   3   0  -4    5.44    0.72
   3   0  -4    6.93    0.67
   3   0  -4    6.13    0.52
  -3   0   4    5.73    0.51
  -3   0   4    7.87    0.74
  -3   0   4    4.82    0.46
  -3   0   4    5.85    0.45
  -3   0   4    7.71    0.83
   2   0  -4   59.76    1.50
   2   0  -4   58.10    1.86
   2   0  -4   57.75    1.78
   2   0  -4   58.07    1.52
   2   0  -4   59.83    1.57
  -2   0   4   56.87    1.72
  -2   0   4   59.43    1.88
  -2   0   4   58.66    1.47
  -2   0   4   57.95    1.54
  -2   0   4   59.46    1.54
   1   0  -4   44.79    1.16
   1   0  -4   43.83    1.42
   1   0  -4   44.62    1.16
   1   0  -4   44.43    1.18
   1   0  -4   45.62    1.43
  -1   0   4   45.07    1.48
  -1   0   4   45.93    1.40
  -1   0   4   46.36    1.30
  -1   0   4   44.22    1.20
  -1   0   4   44.54    1.14
  -1   0   4   45.11    1.18
   0   0  -4   47.59    1.21
   0   0  -4   47.38    1.34
   0   0  -4   47.30    1.23
   0   0  -4   49.68    1.20
   0   0  -4   48.53    1.48
   0   0  -4   46.62    1.35
   0   0   4   47.88    1.21
   0   0   4   45.86    1.46
   0   0   4   47.31    1.19
   0   0   4   47.79    1.44
   0   0   4   48.09    1.29
  -1   0  -4    6.04    0.40
  -1   0  -4    5.51    0.43
  -1   0  -4    6.81    0.54
  -1   0  -4    5.29    0.50
  -1   0  -4    5.40    0.37
   1   0   4    5.55    0.40
   1   0   4    5.82    0.39
   1   0   4    5.70    0.54
   1   0   4    6.14    0.56
   1   0   4    5.06    0.48
  -2   0  -4   12.22    0.61
  -2   0  -4   11.56    0.62
  -2   0  -4   12.50    0.76
  -2   0  -4   12.68    0.75
  -2   0  -4   11.05    0.56
  -2   0  -4   10.92    0.65
   2   0   4   11.31    0.63
   2   0   4   12.03    0.74
   2   0   4   10.52    0.59
   2   0   4   10.34    0.75
   2   0   4   10.86    0.69
  -3   0  -4   12.85    0.69
  -3   0  -4   11.82    0.85
  -3   0  -4   12.26    0.79
  -3   0  -4   12.56    0.77
  -3   0  -4   12.27    0.72
   3   0   4   10.88    0.78
   3   0   4   13.48    0.80
   3   0   4   12.46    0.72
   3   0   4   10.88    0.85
   3   0   4   11.87    0.79
   3   0   4   12.65    0.79
  -4   0  -4    1.04    0.34
  -4   0  -4    0.78    0.35
  -4   0  -4    0.46    0.29
  -4   0  -4    1.02    0.43
   4   0   4    0.97    0.44
   4   0   4    1.28    0.37
   4   0   4    1.73    0.46
   4   0   4    1.13    0.35
   4   0   4    1.11    0.50
  -5   0  -4    4.57    0.67
  -5   0  -4    5.84    0.73
   5   0   4    4.26    0.72
   5   0   4    5.96    0.91
   5   0   4    6.15    0.72
  -6   0  -4   -0.29    0.41
  -6   0  -4    0.66    0.50
   6   0   4    0.05    0.51
  -7   0  -4    0.03    0.41
   7   0   4    1.64    0.72
  -8   0  -4   -0.22    0.45
   8   0   4   -0.33    0.62
   8  -1  -4    5.45    1.13
  -8   1   4    5.66    0.84
   7  -1  -4    8.40    1.20
  -7   1   4    8.63    0.90
   6  -1  -4    6.07    1.05
   6  -1  -4    6.25    0.99
  -6   1   4    7.43    1.12
  -6   1   4    7.43    0.76
  -6   1   4    7.34    0.96
   5  -1  -4   10.50    1.03
   5  -1  -4    8.52    1.08
  -5   1   4   13.19    1.35
  -5   1   4   10.12    0.77
  -5   1   4   11.85    1.08
   4  -1  -4    8.95    0.61
   4  -1  -4   10.01    0.67
   4  -1  -4    9.84    0.85
   4  -1  -4   11.60    1.14
  -4   1   4    7.66    0.77
  -4   1   4    9.32    0.69
  -4   1   4    9.61    0.66
  -4   1   4    9.21    0.93
  -4   1   4    8.82    0.62
   3  -1  -4   -0.04    0.36
   3  -1  -4    0.13    0.25
   3  -1  -4    0.35    0.20
   3  -1  -4    0.15    0.30
   3  -1  -4    0.36    0.17
  -3   1   4    0.43    0.35
  -3   1   4    0.22    0.25
  -3   1   4    0.21    0.21
  -3   1   4    0.07    0.18
  -3   1   4    0.03    0.18
   2  -1  -4   29.25    0.89
   2  -1  -4   29.15    0.89
   2  -1  -4   29.50    1.06
   2  -1  -4   26.54    1.18
   2  -1  -4   28.59    0.98
  -2   1   4   28.38    0.86
  -2   1   4   29.21    0.93
  -2   1   4   28.11    0.86
  -2   1   4   28.96    1.03
  -2   1   4   29.05    1.16
   1  -1  -4    0.09    0.12
   1  -1  -4    0.28    0.12
   1  -1  -4    0.15    0.20
   1  -1  -4    0.29    0.27
  -1   1   4    0.09    0.25
  -1   1   4    0.30    0.12
  -1   1   4    0.19    0.12
  -1   1   4    0.31    0.18
  -1   1   4    0.19    0.21
  -1   1   4    0.10    0.12
   0  -1  -4   88.18    2.12
   0  -1  -4   89.61    2.08
   0  -1  -4   89.79    2.03
   0  -1  -4   88.44    1.93
   0  -1  -4   91.46    1.92
   0   1   4   88.70    1.74
   0   1   4   92.31    1.88
   0   1   4   88.58    1.94
   0   1   4   89.74    1.74
   0   1   4   88.55    2.17
  -1  -1  -4  344.20    6.83
  -1  -1  -4  338.91    7.11
  -1  -1  -4  347.06    6.93
  -1  -1  -4  341.44    6.83
   1   1   4  331.52    7.07
   1   1   4  339.86    6.75
   1   1   4  360.43    6.62
   1   1   4  331.75    6.89
   1   1   4  338.86    6.92
   1   1   4  351.56    6.69
  -2  -1  -4    0.78    0.23
  -2  -1  -4    1.49    0.27
  -2  -1  -4    1.73    0.29
  -2  -1  -4    1.15    0.29
  -2  -1  -4    1.59    0.33
   2   1   4    1.12    0.25
   2   1   4    1.49    0.32
   2   1   4    2.17    0.35
   2   1   4    1.42    0.29
   2   1   4    1.34    0.26
  -3  -1  -4    0.01    0.21
  -3  -1  -4    0.07    0.22
  -3  -1  -4   -0.10    0.30
  -3  -1  -4    0.00    0.22
  -3  -1  -4    0.27    0.24
   3   1   4   -0.25    0.20
   3   1   4    0.12    0.26
   3   1   4    0.03    0.21
   3   1   4   -0.04    0.21
   3   1   4   -0.07    0.30
   3   1   4    0.02    0.20
  -4  -1  -4   29.38    1.17
  -4  -1  -4   27.50    1.17
  -4  -1  -4   29.28    1.19
  -4  -1  -4   30.63    1.33
   4   1   4   30.03    1.28
   4   1   4   29.20    1.30
   4   1   4   28.99    1.23
   4   1   4   27.22    1.27
   4   1   4   31.20    1.27
  -5  -1  -4    9.21    0.85
  -5  -1  -4   10.31    0.91
   5   1   4   11.77    0.99
   5   1   4   10.81    1.00
   5   1   4    9.68    0.97
   5   1   4   11.53    1.01
  -6  -1  -4    0.40    0.43
  -6  -1  -4    0.15    0.42
   6   1   4    0.90    0.43
   6   1   4    0.70    0.47
   6   1   4    0.47    0.53
  -7  -1  -4    7.81    0.92
   7   1   4    7.33    1.03
  -8  -1  -4    4.34    0.84
   8   1   4    3.44    0.90
  -8   2   4    0.54    0.46
   7  -2  -4   15.93    1.79
  -7   2   4   11.66    1.00
  -7   2   4   11.04    1.37
   6  -2  -4   10.21    1.30
  -6   2   4   11.12    1.24
  -6   2   4    8.78    0.81
  -6   2   4    6.93    1.15
   5  -2  -4   -0.19    0.48
   5  -2  -4    0.49    0.54
  -5   2   4    0.25    0.52
  -5   2   4   -0.13    0.28
  -5   2   4    0.10    0.37
   4  -2  -4    9.35    0.87
   4  -2  -4    7.54    0.58
   4  -2  -4    6.13    0.84
  -4   2   4    8.28    0.74
  -4   2   4    6.48    0.82
  -4   2   4    6.86    0.59
  -4   2   4    7.52    0.73
  -4   2   4    7.24    0.64
   3  -2  -4    1.63    0.27
   3  -2  -4    2.69    0.47
   3  -2  -4    1.56    0.50
   3  -2  -4    2.47    0.40
   3  -2  -4    1.78    0.30
  -3   2   4    2.21    0.34
  -3   2   4    1.67    0.36
  -3   2   4    2.26    0.37
  -3   2   4    1.34    0.41
  -3   2   4    2.55    0.32
   2  -2  -4    4.65    0.57
   2  -2  -4    5.61    0.45
   2  -2  -4    6.04    0.37
   2  -2  -4    5.57    0.38
  -2   2   4    5.57    0.32
  -2   2   4    5.57    0.30
  -2   2   4    5.00    0.39
  -2   2   4    5.93    0.55
  -2   2   4    5.68    0.48
  -2   2   4    6.10    0.38
   1  -2  -4   12.14    0.48
   1  -2  -4   11.67    0.62
   1  -2  -4   12.37    0.44
   1  -2  -4   12.12    0.41
  -1   2   4   12.68    0.45
  -1   2   4   12.92    0.46
  -1   2   4   12.01    0.42
  -1   2   4   12.28    0.40
   0  -2  -4   58.14    1.26
   0  -2  -4   55.46    1.16
   0  -2  -4   56.88    1.20
   0  -2  -4   57.34    1.19
   0   2   4   58.28    1.24
   0   2   4   58.60    1.20
   0   2   4   58.27    1.15
   0   2   4   56.68    1.36
  -1  -2  -4   52.95    1.27
  -1  -2  -4   52.73    1.19
  -1  -2  -4   52.97    1.18
  -1  -2  -4   51.67    1.20
   1   2   4   52.39    1.15
   1   2   4   53.19    1.27
   1   2   4   54.81    1.07
   1   2   4   52.04    1.22
  -2  -2  -4    6.29    0.44
  -2  -2  -4    6.07    0.46
  -2  -2  -4    5.64    0.41
  -2  -2  -4    6.01    0.37
   2   2   4    6.51    0.45
   2   2   4    6.33    0.27
   2   2   4    6.19    0.41
   2   2   4    6.87    0.26
   2   2   4    5.93    0.44
   2   2   4    6.61    0.37
   2   2   4    6.06    0.40
  -3  -2  -4   76.94    1.99
  -3  -2  -4   75.45    2.13
  -3  -2  -4   84.15    2.28
  -3  -2  -4   79.98    2.15
   3   2   4   78.42    2.11
   3   2   4   77.97    2.07
   3   2   4   81.84    2.13
   3   2   4   80.03    1.99
   3   2   4   78.93    2.06
  -4  -2  -4   79.07    2.39
  -4  -2  -4   79.27    2.17
  -4  -2  -4   83.11    2.22
  -4  -2  -4   81.91    2.55
   4   2   4   78.85    2.21
   4   2   4   78.61    2.24
   4   2   4   84.27    2.36
   4   2   4   78.28    2.29
   4   2   4   82.69    2.32
  -5  -2  -4    0.50    0.32
  -5  -2  -4    0.56    0.39
   5   2   4   -0.07    0.28
   5   2   4    0.25    0.33
   5   2   4    0.01    0.39
   5   2   4   -0.63    0.20
   5   2   4    0.27    0.30
  -6  -2  -4    1.28    0.54
  -6  -2  -4    1.06    0.45
   6   2   4    1.30    0.54
   6   2   4    1.14    0.43
   6   2   4    0.93    0.47
  -7  -2  -4    0.91    0.51
   7   2   4    0.43    0.46
   7   2   4    0.94    0.58
   8   2   4   10.97    1.31
  -8   3   4    0.15    0.46
   7  -3  -4    0.12    0.88
  -7   3   4    1.72    0.52
  -7   3   4    0.42    0.70
   6  -3  -4    0.36    0.71
  -6   3   4    0.52    0.75
  -6   3   4   -0.28    0.31
  -6   3   4    0.09    0.55
   5  -3  -4    3.72    0.83
  -5   3   4    4.68    0.90
  -5   3   4    3.13    0.46
  -5   3   4    3.25    0.61
   4  -3  -4    0.56    0.48
  -4   3   4    0.19    0.42
  -4   3   4   -0.09    0.25
  -4   3   4    0.21    0.23
   3  -3  -4    7.32    0.51
   3  -3  -4   10.36    0.82
   3  -3  -4    7.29    0.54
   3  -3  -4    7.02    0.78
  -3   3   4    7.79    0.60
  -3   3   4    6.88    0.62
  -3   3   4    7.85    0.42
  -3   3   4    7.78    0.75
  -3   3   4    8.17    0.46
  -3   3   4    7.21    0.55
   2  -3  -4   10.94    0.53
   2  -3  -4   11.30    0.51
   2  -3  -4   12.17    0.79
   2  -3  -4   11.29    0.55
  -2   3   4   10.74    0.56
  -2   3   4   10.71    0.52
  -2   3   4   11.28    0.56
  -2   3   4   11.65    0.71
   1  -3  -4   14.50    0.50
   1  -3  -4   13.68    0.67
   1  -3  -4   15.00    0.45
   1  -3  -4   13.68    0.43
  -1   3   4   13.34    0.46
  -1   3   4   13.73    0.47
  -1   3   4   14.28    0.51
  -1   3   4   13.41    0.47
  -1   3   4   13.60    0.35
  -1   3   4   14.34    0.58
   0   3   4    0.32    0.09
   0   3   4    0.27    0.07
   1   3   4    3.11    0.19
   1   3   4    3.10    0.20
  -2  -3  -4   65.08    1.58
  -2  -3  -4   62.88    1.44
  -2  -3  -4   61.06    1.53
  -2  -3  -4   62.69    1.51
   2   3   4   62.11    1.49
   2   3   4   64.39    1.58
   2   3   4   63.53    1.51
  -3  -3  -4  159.80    3.56
  -3  -3  -4  165.87    3.74
  -3  -3  -4  161.76    3.81
  -3  -3  -4  169.80    3.88
   3   3   4  164.83    3.64
   3   3   4  173.52    3.62
   3   3   4  165.73    3.80
   3   3   4  165.19    3.74
  -4  -3  -4    0.36    0.29
  -4  -3  -4   -0.13    0.24
  -4  -3  -4    0.36    0.22
  -4  -3  -4    0.28    0.41
   4   3   4    0.20    0.28
   4   3   4    0.02    0.21
   4   3   4   -0.28    0.25
   4   3   4    0.09    0.25
   4   3   4    0.02    0.25
   4   3   4    0.23    0.22
  -5  -3  -4   16.79    0.91
   5   3   4   16.57    0.95
   5   3   4   17.01    0.94
   5   3   4   16.43    1.04
   5   3   4   15.98    0.95
  -6  -3  -4   11.16    0.98
   6   3   4   13.23    0.94
   6   3   4   10.63    0.98
   6   3   4   12.65    1.09
  -7  -3  -4    1.94    0.58
   7   3   4    2.54    0.68
   7   3   4    1.25    0.53
   7   3   4    2.30    0.64
   8   3   4    2.40    0.77
   9   3   4    0.30    0.74
   7  -4  -4    1.04    1.01
  -7   4   4    1.05    0.45
  -7   4   4    1.25    0.82
   6  -4  -4    0.99    0.74
  -6   4   4   -0.35    0.51
  -6   4   4    0.61    0.37
   5  -4  -4    2.05    0.75
  -5   4   4    1.20    0.52
  -5   4   4    1.69    0.35
  -5   4   4    1.35    0.69
   4  -4  -4    2.54    0.66
  -4   4   4    1.73    0.56
  -4   4   4    1.86    0.31
  -4   4   4    2.26    0.49
   3  -4  -4   15.10    1.04
   3  -4  -4   15.75    0.75
  -3   4   4   14.30    0.96
  -3   4   4   14.72    0.44
  -3   4   4   16.39    0.89
  -3   4   4   16.70    0.87
  -3   4   4   12.74    0.76
  -3   4   4   15.29    0.46
   2  -4  -4   14.64    0.66
   2  -4  -4   12.37    0.56
   2  -4  -4   12.53    0.81
  -2   4   4   12.72    0.68
  -2   4   4   14.02    0.63
  -2   4   4   13.67    0.76
  -2   4   4   13.22    0.61
  -2   4   4   13.29    0.62
   1  -4  -4   33.05    0.82
   1  -4  -4   34.55    0.95
   1  -4  -4   33.50    0.82
   1  -4  -4   34.77    1.12
  -1   4   4   31.58    0.99
  -1   4   4   33.22    0.90
  -1   4   4   32.75    0.99
  -1   4   4   32.04    0.86
   0  -4  -4    1.76    0.16
   0  -4  -4    1.19    0.18
   0  -4  -4    1.74    0.14
   0   4   4    1.76    0.15
   0   4   4    1.15    0.14
   1   4   4   77.00    1.55
  -2  -4  -4  252.32    5.12
  -2  -4  -4  243.14    4.96
   2   4   4  258.29    5.05
   2   4   4  261.44    5.26
   2   4   4  247.83    5.12
   2   4   4  248.58    4.97
  -3  -4  -4   51.77    1.42
  -3  -4  -4   52.81    1.37
  -3  -4  -4   53.22    1.55
  -3  -4  -4   56.04    1.67
   3   4   4   53.86    1.49
   3   4   4   53.28    1.45
   3   4   4   55.25    1.59
  -4  -4  -4    6.79    0.79
  -4  -4  -4    7.48    0.70
  -4  -4  -4    7.02    0.52
   4   4   4    8.19    0.58
   4   4   4    8.65    0.63
   4   4   4    8.52    0.75
   4   4   4    7.29    0.54
  -5  -4  -4    1.94    0.40
   5   4   4    1.89    0.41
   5   4   4    1.61    0.38
   5   4   4    2.20    0.42
   5   4   4    2.55    0.42
  -6  -4  -4    0.22    0.35
   6   4   4    0.52    0.41
   6   4   4    0.80    0.45
   6   4   4    1.08    0.41
  -7  -4  -4    5.25    0.78
   7   4   4    4.53    0.71
   7   4   4    4.56    0.74
   7   4   4    5.15    0.75
  -8  -4  -4    1.23    0.60
   8   4   4    2.43    0.70
   8   4   4    1.42    0.69
   9   4   4    0.82    0.73
  -7   5   4    1.52    0.43
  -7   5   4    1.15    0.91
   6  -5  -4   -0.10    0.79
  -6   5   4    0.14    0.62
  -6   5   4   -0.11    0.29
   5  -5  -4    7.44    1.14
  -5   5   4    7.62    0.51
  -5   5   4    6.95    0.90
   4  -5  -4   28.86    1.66
  -4   5   4   28.33    1.34
  -4   5   4   26.98    0.67
  -4   5   4   25.99    1.53
  -4   5   4   28.14    0.68
   3  -5  -4   36.31    1.64
  -3   5   4   37.02    1.36
  -3   5   4   38.28    1.58
   2  -5  -4   25.96    0.88
   2  -5  -4   27.35    1.00
   2  -5  -4   24.33    1.17
  -2   5   4   26.39    0.87
  -2   5   4   25.23    1.08
  -2   5   4   24.47    1.05
   1  -5  -4   -0.03    0.08
   1  -5  -4    0.23    0.21
   1  -5  -4    0.15    0.19
  -1   5   4   -0.04    0.12
  -1   5   4    0.22    0.15
  -1   5   4    0.31    0.18
  -1   5   4    0.20    0.19
   0  -5  -4   68.09    1.61
   0  -5  -4   67.98    1.65
   0   5   4   70.64    1.53
   0   5   4   70.04    1.59
   0   5   4   69.63    1.47
   0   5   4   70.85    1.67
  -1  -5  -4   56.02    1.22
  -1  -5  -4   56.86    1.30
   1   5   4   57.43    1.24
  -2  -5  -4   67.21    1.66
  -2  -5  -4   63.54    1.45
   2   5   4   63.95    1.50
   2   5   4   65.44    1.70
   2   5   4   67.56    1.59
   2   5   4   66.61    1.45
  -3  -5  -4    0.14    0.13
  -3  -5  -4    0.13    0.18
  -3  -5  -4    0.16    0.29
   3   5   4    0.23    0.15
   3   5   4    0.53    0.27
   3   5   4   -0.03    0.21
   3   5   4    0.10    0.15
  -4  -5  -4    0.05    0.18
  -4  -5  -4    0.14    0.38
  -4  -5  -4    0.48    0.28
   4   5   4    0.13    0.20
   4   5   4    0.37    0.30
   4   5   4   -0.03    0.19
  -5  -5  -4    0.07    0.25
   5   5   4    0.27    0.29
   5   5   4    0.57    0.28
  -6  -5  -4    6.86    0.74
   6   5   4    7.74    0.59
   6   5   4    7.13    0.74
   6   5   4    6.38    0.78
  -7  -5  -4    3.38    0.66
   7   5   4    2.14    0.56
   7   5   4    2.82    0.54
  -8  -5  -4    6.51    0.95
   8   5   4    8.04    0.89
   8   5   4    7.07    0.96
   9   5   4    1.01    0.68
   9   5   4    0.22    0.59
   6  -6  -4    0.79    0.88
  -6   6   4    0.60    0.68
   5  -6  -4    4.78    1.04
  -5   6   4    6.19    0.94
   4  -6  -4   21.77    1.50
  -4   6   4   22.44    1.27
   3  -6  -4   18.83    1.24
  -3   6   4   20.39    1.22
  -3   6   4   18.55    0.89
  -3   6   4   17.34    0.97
  -3   6   4   16.50    0.96
   2  -6  -4    1.09    0.41
  -2   6   4    0.41    0.24
  -2   6   4    0.85    0.35
  -2   6   4    1.42    0.25
   1  -6  -4    7.64    0.59
   1  -6  -4    8.69    0.59
   1  -6  -4    8.11    0.37
  -1   6   4    7.80    0.62
  -1   6   4    8.30    0.59
   0  -6  -4   68.35    1.73
   0  -6  -4   67.20    1.73
   0   6   4   67.42    1.66
   0   6   4   68.01    1.81
   0   6   4   68.67    1.69
   0   6   4   67.98    1.54
  -1  -6  -4   51.07    1.28
  -1  -6  -4   53.70    1.42
   1   6   4   53.27    1.18
   1   6   4   52.71    1.26
  -2  -6  -4   -0.01    0.11
  -2  -6  -4    0.27    0.27
   2   6   4   -0.01    0.11
   2   6   4    0.04    0.12
   2   6   4    0.42    0.27
   2   6   4   -0.04    0.19
  -3  -6  -4    0.54    0.18
  -3  -6  -4    0.68    0.15
  -3  -6  -4    0.27    0.33
   3   6   4    0.71    0.33
   3   6   4    1.19    0.34
   3   6   4    0.62    0.19
   3   6   4    0.43    0.18
  -4  -6  -4    1.82    0.38
  -4  -6  -4    1.55    0.29
  -4  -6  -4    1.30    0.54
   4   6   4    1.33    0.43
  -5  -6  -4    1.17    0.33
   5   6   4    0.82    0.33
   5   6   4    1.10    0.33
  -6  -6  -4    1.82    0.44
   6   6   4    2.06    0.47
   6   6   4    1.10    0.39
  -7  -6  -4    0.89    0.46
   7   6   4    0.80    0.44
  -8  -6  -4    0.32    0.48
   8   6   4    0.16    0.34
   8   6   4    1.76    0.62
  -9  -6  -4    1.48    0.75
   9   6   4    1.53    0.51
   9   6   4    1.51    0.69
   5  -7  -4   13.12    1.55
  -5   7   4   12.60    1.29
   4  -7  -4   14.79    1.43
  -4   7   4   15.79    1.17
   3  -7  -4    1.45    0.57
  -3   7   4    1.32    0.36
  -3   7   4    1.06    0.42
  -3   7   4    1.27    0.43
   2  -7  -4    0.17    0.36
  -2   7   4    0.13    0.34
  -2   7   4    0.11    0.28
   1  -7  -4    0.40    0.26
  -1   7   4    0.02    0.20
  -1   7   4    0.42    0.20
   0  -7  -4   22.49    0.89
   0  -7  -4   20.67    0.88
   0  -7  -4   21.40    0.92
   0   7   4   20.26    0.99
   0   7   4   22.52    0.83
   0   7   4   21.12    0.91
   0   7   4   20.88    0.73
  -1  -7  -4    2.61    0.31
  -1  -7  -4    2.02    0.39
   1   7   4    2.02    0.27
   1   7   4    2.10    0.24
  -2  -7  -4    1.48    0.41
  -2  -7  -4    1.93    0.26
   2   7   4    2.02    0.26
   2   7   4    1.81    0.23
   2   7   4    0.66    0.27
  -3  -7  -4    9.10    0.83
  -3  -7  -4    8.70    0.49
   3   7   4    9.18    0.80
   3   7   4    8.82    0.75
   3   7   4    8.06    0.46
   3   7   4    8.76    0.50
  -4  -7  -4    0.43    0.23
   4   7   4    1.19    0.27
   4   7   4    1.02    0.25
  -5  -7  -4   48.39    1.57
   5   7   4   49.41    1.58
   5   7   4   47.43    1.60
  -6  -7  -4    2.24    0.47
   6   7   4    3.15    0.53
  -7  -7  -4   -0.07    0.37
   7   7   4    0.14    0.38
  -8  -7  -4    0.87    0.54
   8   7   4    0.22    0.47
   9   7   4    3.34    0.79
  -5   8   4    6.75    1.06
   4  -8  -4   -0.18    0.62
  -4   8   4    0.77    0.53
   3  -8  -4    5.05    0.85
  -3   8   4    4.91    0.70
   2  -8  -4    0.65    0.47
  -2   8   4    0.52    0.34
   1  -8  -4   47.19    1.72
   1  -8  -4   49.68    1.73
  -1   8   4   48.13    1.47
  -1   8   4   48.47    1.70
   0  -8  -4    0.82    0.30
   0   8   4    0.73    0.23
   0   8   4    0.33    0.23
  -1  -8  -4    0.46    0.24
   1   8   4    0.13    0.21
   1   8   4    0.43    0.39
   1   8   4    0.33    0.19
  -2  -8  -4    1.27    0.27
   2   8   4    1.61    0.49
   2   8   4    1.24    0.23
   2   8   4    1.13    0.26
  -3  -8  -4    0.60    0.22
   3   8   4    0.17    0.21
   3   8   4    0.46    0.20
  -4  -8  -4   30.39    1.10
   4   8   4   30.35    1.12
   4   8   4   31.81    1.09
  -5  -8  -4    1.26    0.35
   5   8   4    1.88    0.39
  -6  -8  -4    4.26    0.60
   6   8   4    2.98    0.54
  -7  -8  -4    3.82    0.66
   7   8   4    3.62    0.68
  -8  -8  -4   15.75    1.23
   8   8   4   11.60    1.16
  -4   9   4    0.23    0.58
   3  -9  -4    1.10    0.65
   3  -9  -4   -0.12    0.52
  -3   9   4    0.85    0.53
   2  -9  -4    0.92    0.50
   2  -9  -4    0.92    0.52
  -2   9   4    0.88    0.42
   1  -9  -4    0.29    0.37
  -1   9   4    0.19    0.28
   0  -9  -4    3.20    0.52
   0   9   4    3.20    0.41
  -1  -9  -4    1.58    0.36
   1   9   4    1.48    0.31
  -2  -9  -4    0.07    0.21
   2   9   4    0.38    0.22
   2   9   4    0.14    0.24
  -3  -9  -4   43.36    1.35
   3   9   4   40.87    1.28
  -4  -9  -4   34.84    1.26
   4   9   4   36.57    1.23
  -5  -9  -4    7.10    0.68
   5   9   4    8.35    0.72
  -6  -9  -4    5.52    0.69
   6   9   4    4.25    0.61
  -7  -9  -4   14.63    1.08
   7   9   4   14.17    1.06
   8   9   4    4.38    0.77
  -3  10   4    3.01    0.75
  -2  10   4    8.81    0.95
   1 -10  -4    9.84    0.99
  -1  10   4    9.96    0.85
   0 -10  -4    4.47    0.62
   0  10   4    4.31    0.53
  -1 -10  -4    0.78    0.34
   1  10   4    0.80    0.29
  -2 -10  -4   34.18    1.29
   2  10   4   35.14    1.19
  -3 -10  -4   30.10    1.17
   3  10   4   29.65    1.11
  -4 -10  -4   12.71    0.78
   4  10   4   10.63    0.71
  -5 -10  -4    4.56    0.60
   5  10   4    4.69    0.54
  -6 -10  -4    3.43    0.59
   6  10   4    3.91    0.61
   7  10   4    3.27    0.67
  -1  11   4    0.44    0.46
   0 -11  -4    1.95    0.56
   0  11   4    2.18    0.49
  -1 -11  -4   16.66    1.02
   1  11   4   18.88    0.96
  -2 -11  -4   42.39    1.57
   2  11   4   45.06    1.50
  -3 -11  -4    6.83    0.68
   3  11   4    7.62    0.68
  -4 -11  -4    0.92    0.36
   4  11   4    1.74    0.41
  -5 -11  -4    2.02    0.48
   5  11   4    1.33    0.44
   6  11   4   -0.40    0.35
   7  11   4    3.89    0.72
   0  12   4   -0.04    0.43
   1  12   4   13.97    0.97
   2  12   4    1.07    0.42
   3  12   4    1.22    0.43
   4  12   4    0.21    0.37
   5  12   4    0.77    0.43
   6  12   4    2.85    0.64
   5  10  -5    9.13    1.09
   5  10  -5   10.30    0.76
   4  10  -5    1.32    0.59
   4  10  -5    1.57    0.47
  -4 -10   5    0.42    0.58
   3  10  -5    3.39    0.75
  -3 -10   5    3.03    0.80
   2  10  -5    0.44    0.58
  -2 -10   5   -0.27    0.59
   1  10  -5    2.24    0.77
   6   9  -5    6.45    0.89
   6   9  -5    8.33    1.05
   5   9  -5    1.10    0.54
   5   9  -5    0.33    0.53
  -5  -9   5    0.15    0.54
   4   9  -5    0.94    0.51
   4   9  -5    0.73    0.53
  -4  -9   5    0.59    0.53
   3   9  -5    0.30    0.46
   3   9  -5    0.58    0.48
  -3  -9   5   -0.07    0.49
   2   9  -5    4.85    0.78
   2   9  -5    3.44    0.63
  -2  -9   5    5.99    0.93
   1   9  -5    8.89    0.84
   1   9  -5    7.31    0.94
  -1  -9   5    7.69    1.04
   0   9  -5   26.10    1.57
   0   9  -5   25.60    1.26
   0  -9   5   24.36    1.67
  -1   9  -5    2.01    0.57
  -1   9  -5    3.14    0.84
   7   8  -5    0.40    0.66
   6   8  -5    4.58    0.84
   6   8  -5    6.30    0.92
  -6  -8   5    5.39    0.90
   5   8  -5    0.65    0.48
   5   8  -5    0.39    0.53
  -5  -8   5    0.36    0.46
   4   8  -5    3.59    0.67
   4   8  -5    3.17    0.68
  -4  -8   5    3.63    0.68
   3   8  -5    1.35    0.52
   3   8  -5    2.74    0.60
  -3  -8   5    0.96    0.51
   2   8  -5   17.23    1.11
   2   8  -5   17.02    1.13
  -2  -8   5   20.35    1.29
   1   8  -5   51.24    1.83
   1   8  -5   51.44    1.95
  -1  -8   5   50.80    2.12
   0   8  -5   23.75    1.35
   0   8  -5   22.30    1.22
   0  -8   5   21.88    1.45
  -1   8  -5    1.03    0.53
  -1   8  -5    1.59    0.64
   1  -8   5    0.94    0.64
  -2   8  -5    1.22    0.55
   8   7  -5    0.61    0.69
   7   7  -5   21.29    1.53
   6   7  -5   12.87    1.21
   6   7  -5   13.91    1.19
  -6  -7   5   11.89    1.16
   5   7  -5    1.89    0.61
   5   7  -5    3.12    0.70
   5   7  -5    2.72    0.58
  -5  -7   5    2.44    0.59
   4   7  -5    4.55    0.65
   4   7  -5    3.94    0.69
   4   7  -5    4.90    0.75
  -4  -7   5    2.99    0.60
   3   7  -5    9.27    0.92
   3   7  -5    7.78    0.85
   3   7  -5   11.12    0.82
  -3  -7   5   11.15    0.99
   2   7  -5   54.80    1.85
   2   7  -5   53.70    1.89
   2   7  -5   54.85    2.06
  -2  -7   5   53.04    2.01
   1   7  -5   54.74    2.10
   1   7  -5   57.41    1.95
   1   7  -5   55.16    1.91
  -1  -7   5   58.02    2.11
   0   7  -5    1.62    0.59
   0   7  -5    0.80    0.45
   0   7  -5    0.71    0.44
   0  -7   5    0.66    0.48
  -1   7  -5    1.44    0.55
  -1   7  -5    0.75    0.56
  -1   7  -5    1.25    0.48
   1  -7   5    0.45    0.52
  -2   7  -5    0.31    0.46
  -2   7  -5    0.04    0.51
   2  -7   5    0.23    0.56
  -3   7  -5    2.26    0.64
   8   6  -5   14.19    1.44
   7   6  -5   12.12    1.25
   6   6  -5    3.40    0.64
   6   6  -5    3.97    0.78
  -6  -6   5    3.01    0.67
   5   6  -5    6.20    0.78
   5   6  -5    5.77    0.69
   5   6  -5    5.87    0.80
  -5  -6   5    5.36    0.74
  -5  -6   5    6.33    1.05
   4   6  -5    2.37    0.55
   4   6  -5    3.23    0.60
   4   6  -5    2.31    0.47
  -4  -6   5    3.31    0.83
  -4  -6   5    2.77    0.56
   3   6  -5   97.47    2.77
   3   6  -5   90.32    2.55
   3   6  -5   92.57    2.69
  -3  -6   5   94.35    2.73
  -3  -6   5   92.05    3.17
   2   6  -5   65.72    2.06
   2   6  -5   67.03    2.17
   2   6  -5   62.96    1.95
  -2  -6   5   61.59    2.57
  -2  -6   5   64.00    2.13
   1   6  -5    1.90    0.48
   1   6  -5    1.87    0.40
   1   6  -5    1.25    0.43
  -1  -6   5    1.06    0.44
  -1  -6   5    1.25    0.70
   0   6  -5    4.59    0.57
   0   6  -5    3.18    0.60
   0   6  -5    4.99    0.77
   0   6  -5    5.10    0.66
   0  -6   5    5.31    0.76
   0  -6   5    5.14    1.03
  -1   6  -5    0.08    0.39
  -1   6  -5    0.90    0.38
  -1   6  -5   -0.03    0.34
  -1   6  -5   -0.09    0.41
   1  -6   5   -0.07    0.40
   1  -6   5    0.39    0.80
  -2   6  -5   -0.01    0.39
  -2   6  -5   -0.25    0.33
   2  -6   5    0.62    0.53
  -3   6  -5   -0.07    0.38
  -4   6  -5    0.41    0.44
   8   5  -5   11.89    1.36
  -8  -5   5   10.25    1.26
   7   5  -5   10.26    1.15
  -7  -5   5    8.62    1.12
   6   5  -5   12.15    1.18
  -6  -5   5   14.02    1.42
  -6  -5   5   14.37    1.07
   5   5  -5   -0.73    0.35
   5   5  -5    0.02    0.35
   5   5  -5    0.59    0.34
  -5  -5   5   -0.23    0.29
  -5  -5   5   -0.67    0.47
   4   5  -5    2.02    0.58
   4   5  -5    2.98    0.46
   4   5  -5    3.60    0.60
  -4  -5   5    2.57    0.50
  -4  -5   5    2.29    0.70
   3   5  -5   36.47    1.45
   3   5  -5   38.48    2.13
   3   5  -5   38.31    1.36
   3   5  -5   37.45    1.52
  -3  -5   5   36.00    1.42
  -3  -5   5   37.53    1.82
   2   5  -5   14.29    0.94
   2   5  -5   15.47    0.93
   2   5  -5   14.17    1.44
   2   5  -5   17.09    0.84
   2   5  -5   14.16    1.34
  -2  -5   5   14.52    0.90
  -2  -5   5   17.18    1.41
   1   5  -5    2.31    0.49
   1   5  -5    2.52    0.70
   1   5  -5    3.40    0.81
   1   5  -5    3.13    0.50
   1   5  -5    3.78    0.50
  -1  -5   5    3.01    0.71
  -1  -5   5    3.10    0.51
   0   5  -5   11.10    0.92
   0   5  -5    9.31    0.81
   0   5  -5   10.35    0.70
   0   5  -5    8.11    0.76
   0  -5   5   10.31    0.88
   0  -5   5    9.61    1.11
  -1   5  -5    4.37    0.59
  -1   5  -5    3.10    0.56
  -1   5  -5    2.96    0.52
  -1   5  -5    3.23    0.59
   1  -5   5    4.56    0.97
   1  -5   5    1.94    0.51
  -2   5  -5   17.06    1.20
  -2   5  -5   15.20    1.00
  -2   5  -5   16.81    1.01
  -2   5  -5   17.36    1.21
   2  -5   5   15.99    1.16
   2  -5   5   18.61    1.65
  -3   5  -5    1.95    0.61
  -3   5  -5    1.50    0.46
   3  -5   5    1.39    0.88
   3  -5   5    2.24    0.66
  -4   5  -5   -0.40    0.35
   4  -5   5   -0.58    0.64
  -5   5  -5    0.14    0.44
   5  -5   5   -0.92    0.71
   9   4  -5    2.84    0.89
  -9  -4   5    5.20    1.01
   8   4  -5    6.11    1.06
  -8  -4   5    5.18    0.91
   7   4  -5    1.80    0.70
  -7  -4   5    3.42    0.73
   6   4  -5   14.71    1.31
  -6  -4   5   12.82    1.09
  -6  -4   5   13.94    1.36
   5   4  -5   -0.10    0.44
   5   4  -5   -0.14    0.23
   5   4  -5    0.13    0.33
  -5  -4   5    0.38    0.51
  -5  -4   5    0.13    0.34
   4   4  -5   85.45    2.57
   4   4  -5   85.61    2.50
   4   4  -5   89.10    3.18
   4   4  -5   81.74    3.10
   4   4  -5   85.75    2.37
  -4  -4   5   88.58    2.79
  -4  -4   5   87.86    3.19
  -4  -4   5   90.49    2.48
   3   4  -5   26.54    1.03
   3   4  -5   22.78    1.52
   3   4  -5   23.39    1.16
   3   4  -5   24.65    1.11
   3   4  -5   24.65    1.56
  -3  -4   5   23.14    1.42
  -3  -4   5   24.95    1.09
  -3  -4   5   27.83    1.66
  -3  -4   5   23.98    1.36
   2   4  -5    6.18    0.65
   2   4  -5    4.30    0.45
   2   4  -5    4.20    0.76
   2   4  -5    6.29    0.61
   2   4  -5    7.05    0.97
  -2  -4   5    5.70    0.57
  -2  -4   5    5.98    0.74
  -2  -4   5    5.22    0.75
  -2  -4   5    6.14    0.84
  -2  -4   5    6.49    0.91
  -2  -4   5    6.10    0.59
   1   4  -5   13.66    0.82
   1   4  -5   15.12    1.34
   1   4  -5   15.30    0.84
   1   4  -5   15.58    1.30
   1   4  -5   12.70    0.68
  -1  -4   5   14.07    1.01
  -1  -4   5   13.29    0.82
  -1  -4   5   12.64    0.75
  -1  -4   5   14.93    1.19
  -1  -4   5   17.02    1.11
  -1  -4   5   14.10    1.16
   0   4  -5    4.40    0.55
   0   4  -5    5.26    0.53
   0   4  -5    4.66    0.76
   0   4  -5    4.79    0.79
   0   4  -5    4.48    0.57
   0   4  -5    3.82    0.60
   0  -4   5    5.41    0.79
   0  -4   5    5.34    0.61
   0  -4   5    5.86    0.82
   0  -4   5    4.76    0.69
  -1   4  -5    5.98    0.90
  -1   4  -5    7.00    0.66
  -1   4  -5    6.66    0.68
  -1   4  -5    7.35    0.96
  -1   4  -5    6.29    0.74
  -1   4  -5    6.47    0.68
   1  -4   5    7.01    0.77
   1  -4   5    9.03    1.01
   1  -4   5    7.24    0.96
  -2   4  -5    5.98    0.74
  -2   4  -5    6.56    0.71
  -2   4  -5    6.82    0.66
  -2   4  -5    7.07    0.83
   2  -4   5    6.04    0.97
   2  -4   5    7.19    0.82
  -3   4  -5   11.01    1.09
  -3   4  -5   11.71    1.16
  -3   4  -5   12.43    0.93
  -3   4  -5   11.44    0.88
   3  -4   5   15.52    1.53
   3  -4   5   11.87    1.15
  -4   4  -5   -0.19    0.44
  -4   4  -5    0.06    0.33
   4  -4   5    0.64    0.65
  -5   4  -5    7.33    0.88
   5  -4   5    8.05    1.26
  -6   4  -5    7.45    0.93
   6  -4   5    9.98    1.49
   9   3  -5    4.64    1.02
  -9  -3   5    4.95    0.94
   8   3  -5    3.88    0.95
  -8  -3   5    4.51    0.87
   7   3  -5    5.06    0.90
  -7  -3   5    4.90    0.82
   6   3  -5   -0.11    0.44
  -6  -3   5   -0.02    0.49
   5   3  -5    5.51    0.60
   5   3  -5    3.96    0.82
   5   3  -5    5.59    0.79
   5   3  -5    4.55    0.92
   5   3  -5    3.88    0.56
  -5  -3   5    4.37    0.70
  -5  -3   5    5.50    1.02
  -5  -3   5    6.50    0.70
   4   3  -5   12.16    0.72
   4   3  -5   13.46    1.38
   4   3  -5   12.98    0.83
   4   3  -5    8.68    0.99
   4   3  -5   13.66    0.97
  -4  -3   5   14.26    1.01
  -4  -3   5   12.97    0.79
  -4  -3   5   11.45    1.16
  -4  -3   5   15.84    1.50
  -4  -3   5   13.23    0.84
   3   3  -5    5.28    0.61
   3   3  -5    5.75    0.55
   3   3  -5    6.54    0.62
   3   3  -5    5.95    0.87
   3   3  -5    5.75    0.87
  -3  -3   5    5.32    0.73
  -3  -3   5    5.68    0.57
  -3  -3   5    5.84    0.93
  -3  -3   5    5.26    0.77
  -3  -3   5    5.33    0.74
  -3  -3   5    5.07    0.53
   2   3  -5    0.05    0.27
   2   3  -5   -0.05    0.40
   2   3  -5   -0.07    0.14
   2   3  -5    0.04    0.21
   2   3  -5    0.22    0.39
  -2  -3   5    0.18    0.33
  -2  -3   5   -0.05    0.22
  -2  -3   5    0.83    0.44
  -2  -3   5    0.38    0.36
  -2  -3   5    0.17    0.42
  -2  -3   5    0.04    0.17
   1   3  -5    4.65    0.73
   1   3  -5    5.39    0.53
   1   3  -5    6.22    0.69
   1   3  -5    4.16    0.69
   1   3  -5    5.38    0.41
   1   3  -5    4.58    0.49
  -1  -3   5    5.56    0.50
  -1  -3   5    6.70    0.61
  -1  -3   5    6.95    0.84
  -1  -3   5    5.53    0.69
  -1  -3   5    6.37    0.75
   0   3  -5   32.34    1.35
   0   3  -5   30.40    1.06
   0   3  -5   31.19    1.48
   0   3  -5   32.22    1.20
   0   3  -5   32.35    1.17
   0  -3   5   32.20    1.49
   0  -3   5   34.29    1.49
   0  -3   5   32.29    1.17
   0  -3   5   30.89    1.43
   0  -3   5   30.85    1.20
  -1   3  -5   87.95    2.36
  -1   3  -5   88.49    2.76
  -1   3  -5   93.23    2.33
  -1   3  -5   91.91    2.98
  -1   3  -5   86.31    2.67
  -1   3  -5   91.82    2.50
   1  -3   5   94.66    2.46
   1  -3   5   89.67    2.77
   1  -3   5   93.90    2.82
   1  -3   5   90.78    2.71
   1  -3   5   82.60    2.46
  -2   3  -5   32.84    1.57
  -2   3  -5   32.71    1.29
  -2   3  -5   32.88    1.24
  -2   3  -5   32.82    1.40
  -2   3  -5   33.17    1.76
  -2   3  -5   33.53    1.50
   2  -3   5   33.69    1.67
   2  -3   5   32.38    1.57
   2  -3   5   34.82    1.45
   2  -3   5   32.21    1.31
   2  -3   5   33.43    1.50
  -3   3  -5    2.48    0.56
  -3   3  -5    3.12    0.52
  -3   3  -5    3.89    0.86
  -3   3  -5    2.91    0.69
  -3   3  -5    2.42    0.50
   3  -3   5    2.66    0.59
   3  -3   5    3.49    0.84
  -4   3  -5   16.90    1.06
   4  -3   5   17.33    1.56
  -5   3  -5   22.37    1.29
   5  -3   5   24.12    1.75
  -6   3  -5    0.88    0.52
   6  -3   5    0.34    0.69
   9   2  -5   -0.27    0.64
  -9  -2   5   -0.48    0.48
   8   2  -5    1.39    0.71
  -8  -2   5    1.18    0.61
   7   2  -5    7.99    1.08
  -7  -2   5    9.20    1.03
   6   2  -5    1.73    0.66
   6   2  -5    1.36    0.72
  -6  -2   5    2.92    0.60
   5   2  -5   27.08    1.13
   5   2  -5   24.20    1.68
   5   2  -5   25.01    1.40
   5   2  -5   27.21    1.23
  -5  -2   5   26.08    1.58
  -5  -2   5   26.03    1.29
  -5  -2   5   27.02    1.34
  -5  -2   5   28.30    1.82
  -5  -2   5   28.09    1.20
   4   2  -5   15.30    1.02
   4   2  -5   17.51    0.83
   4   2  -5   19.07    0.93
   4   2  -5   17.45    1.36
   4   2  -5   20.01    1.32
  -4  -2   5   17.65    1.04
  -4  -2   5   18.11    0.95
  -4  -2   5   18.57    0.89
  -4  -2   5   17.42    1.20
  -4  -2   5   17.50    1.37
   3   2  -5   26.63    1.04
   3   2  -5   27.57    0.98
   3   2  -5   25.54    1.39
   3   2  -5   25.71    1.45
   3   2  -5   24.47    1.11
  -3  -2   5   24.73    0.99
  -3  -2   5   24.14    1.44
  -3  -2   5   25.05    1.34
  -3  -2   5   26.87    1.06
  -3  -2   5   27.20    1.20
   2   2  -5    8.14    0.83
   2   2  -5    7.05    0.82
   2   2  -5    7.93    0.56
   2   2  -5    8.67    0.63
   2   2  -5    7.98    0.48
  -2  -2   5    9.56    0.98
  -2  -2   5    8.53    0.55
  -2  -2   5    8.89    0.72
  -2  -2   5    7.26    0.77
  -2  -2   5    8.78    0.76
  -2  -2   5    8.97    0.56
   1   2  -5    9.44    0.90
   1   2  -5    9.53    0.69
   1   2  -5   10.17    0.90
   1   2  -5   10.07    0.58
   1   2  -5    9.99    0.63
  -1  -2   5    8.89    0.83
  -1  -2   5   10.30    0.83
  -1  -2   5   11.43    1.03
  -1  -2   5    9.15    0.56
  -1  -2   5    8.56    0.69
  -1  -2   5    8.58    0.56
   0   2  -5   75.93    1.89
   0   2  -5   76.17    2.03
   0   2  -5   73.63    1.97
   0   2  -5   78.33    2.48
   0   2  -5   75.85    2.22
   0   2  -5   75.08    2.31
   0  -2   5   79.19    2.04
   0  -2   5   75.26    2.24
   0  -2   5   79.66    2.42
   0  -2   5   74.77    2.33
   0  -2   5   75.48    1.99
  -1   2  -5   71.74    2.24
  -1   2  -5   74.19    1.89
  -1   2  -5   71.62    2.41
  -1   2  -5   73.90    1.96
  -1   2  -5   70.47    2.19
  -1   2  -5   72.78    2.04
   1  -2   5   75.52    2.07
   1  -2   5   70.97    2.25
   1  -2   5   70.28    2.25
   1  -2   5   72.64    2.00
   1  -2   5   72.74    2.30
  -2   2  -5   29.39    1.37
  -2   2  -5   30.31    1.11
  -2   2  -5   29.47    1.51
  -2   2  -5   29.30    1.23
  -2   2  -5   29.71    1.16
   2  -2   5   30.89    1.29
   2  -2   5   28.81    1.44
   2  -2   5   30.60    1.20
   2  -2   5   31.84    1.38
   2  -2   5   30.37    1.41
  -3   2  -5   28.85    1.26
  -3   2  -5   32.44    1.52
  -3   2  -5   32.53    1.45
  -3   2  -5   32.41    1.27
  -3   2  -5   33.11    1.68
   3  -2   5   32.64    1.34
   3  -2   5   30.67    1.62
   3  -2   5   31.63    1.43
   3  -2   5   29.95    1.43
   3  -2   5   30.09    1.49
  -4   2  -5   34.68    1.51
  -4   2  -5   36.15    1.73
   4  -2   5   39.91    1.74
   4  -2   5   36.46    1.89
  -5   2  -5    8.73    0.90
   5  -2   5    7.81    1.08
  -6   2  -5    7.64    0.90
   6  -2   5    9.44    1.29
  -7   2  -5    0.62    0.52
   7  -2   5    1.19    0.77
   9   1  -5   -0.23    0.68
  -9  -1   5    0.83    0.57
   8   1  -5    4.15    0.98
  -8  -1   5    4.98    0.84
   7   1  -5    3.42    0.82
  -7  -1   5    2.20    0.58
   6   1  -5   18.93    1.42
   6   1  -5   20.93    1.94
  -6  -1   5   19.35    1.79
  -6  -1   5   19.08    1.47
   5   1  -5   20.05    1.05
   5   1  -5   19.45    1.22
   5   1  -5   17.67    1.59
  -5  -1   5   21.83    1.13
  -5  -1   5   18.80    1.60
  -5  -1   5   20.53    1.34
  -5  -1   5   19.98    1.09
  -5  -1   5   18.72    0.98
   4   1  -5    3.97    0.44
   4   1  -5    4.15    0.85
   4   1  -5    3.94    0.51
   4   1  -5    3.36    0.63
   4   1  -5    3.96    0.60
  -4  -1   5    3.96    0.70
  -4  -1   5    3.43    0.48
  -4  -1   5    4.26    0.57
  -4  -1   5    4.61    0.82
  -4  -1   5    3.51    0.44
   3   1  -5    1.02    0.46
   3   1  -5    1.62    0.40
   3   1  -5    1.31    0.54
   3   1  -5    1.55    0.29
   3   1  -5    1.38    0.32
  -3  -1   5    1.48    0.30
  -3  -1   5    1.15    0.43
  -3  -1   5    1.80    0.40
  -3  -1   5    1.40    0.34
  -3  -1   5    1.57    0.53
   2   1  -5   27.51    0.96
   2   1  -5   27.99    0.98
   2   1  -5   26.29    1.30
   2   1  -5   25.72    1.00
   2   1  -5   27.73    0.90
   2   1  -5   27.81    1.30
  -2  -1   5   26.52    0.93
  -2  -1   5   29.48    1.39
  -2  -1   5   28.94    1.11
  -2  -1   5   25.36    1.24
  -2  -1   5   29.27    1.15
  -2  -1   5   27.71    0.98
   1   1  -5  257.15    5.33
   1   1  -5  255.75    5.44
   1   1  -5  258.22    5.39
   1   1  -5  261.10    5.23
   1   1  -5  252.81    5.73
   1   1  -5  262.55    5.88
   1   1  -5  255.59    5.92
  -1  -1   5  256.01    5.49
  -1  -1   5  249.08    5.91
  -1  -1   5  264.86    5.84
  -1  -1   5  251.66    5.73
  -1  -1   5  257.04    5.44
  -1  -1   5  259.98    5.35
   0   1  -5  157.31    3.32
   0   1  -5  157.41    3.79
   0   1  -5  155.98    3.92
   0   1  -5  158.57    3.41
   0   1  -5  154.91    3.50
   0   1  -5  154.78    3.51
   0   1  -5  155.81    3.73
   0  -1   5  159.62    3.50
   0  -1   5  159.05    3.90
   0  -1   5  152.98    3.44
   0  -1   5  149.62    3.77
   0  -1   5  155.63    3.64
  -1   1  -5   82.55    2.33
  -1   1  -5   85.54    2.19
  -1   1  -5   85.27    2.54
  -1   1  -5   84.10    2.11
  -1   1  -5   88.53    2.28
  -1   1  -5   84.46    2.37
  -1   1  -5   87.42    2.05
   1  -1   5   85.10    2.42
   1  -1   5   84.70    2.45
   1  -1   5   80.69    2.16
   1  -1   5   85.11    2.37
   1  -1   5   88.49    2.18
  -2   1  -5   50.49    1.71
  -2   1  -5   51.47    1.54
  -2   1  -5   52.29    1.49
  -2   1  -5   50.45    1.63
  -2   1  -5   51.09    1.89
   2  -1   5   53.18    1.60
   2  -1   5   47.38    1.71
   2  -1   5   47.75    1.61
   2  -1   5   52.79    1.80
   2  -1   5   52.78    1.81
  -3   1  -5   11.89    1.07
  -3   1  -5   10.57    0.74
  -3   1  -5   10.65    0.70
  -3   1  -5   10.74    0.80
  -3   1  -5   11.46    0.98
   3  -1   5   11.21    1.04
   3  -1   5   11.41    0.77
   3  -1   5   11.96    0.86
   3  -1   5   10.24    0.78
   3  -1   5    7.36    0.76
  -4   1  -5   19.22    1.24
  -4   1  -5   18.22    1.04
  -4   1  -5   19.48    1.19
   4  -1   5   18.79    1.16
   4  -1   5   19.03    1.08
   4  -1   5   16.54    1.29
   4  -1   5   18.36    1.22
   4  -1   5   17.13    1.15
   4  -1   5   19.06    1.15
  -5   1  -5    4.58    0.80
  -5   1  -5    2.85    0.61
   5  -1   5    3.01    0.75
  -6   1  -5    0.19    0.40
   6  -1   5    0.62    0.66
  -7   1  -5    0.55    0.50
   7  -1   5    0.52    0.63
   8   0  -5    0.40    0.71
  -8   0   5    1.72    0.58
   7   0  -5   13.26    1.43
  -7   0   5   12.35    1.11
   6   0  -5   19.84    1.77
   6   0  -5   16.87    1.42
  -6   0   5   18.25    1.75
  -6   0   5   22.84    1.52
  -6   0   5   19.14    1.10
   5   0  -5   82.58    2.68
   5   0  -5   83.50    3.10
  -5   0   5   89.98    2.89
  -5   0   5   86.70    3.14
  -5   0   5   88.58    2.63
   4   0  -5   12.35    0.73
   4   0  -5   12.37    0.66
   4   0  -5   12.20    0.91
   4   0  -5   12.13    1.22
  -4   0   5   11.36    0.74
  -4   0   5   12.95    1.14
  -4   0   5   13.34    0.80
  -4   0   5   11.69    0.70
  -4   0   5   11.99    1.04
   3   0  -5    9.40    0.84
   3   0  -5    8.61    0.54
   3   0  -5    8.15    0.68
   3   0  -5    9.61    0.56
   3   0  -5    8.62    0.50
   3   0  -5   11.23    1.08
  -3   0   5    9.89    0.61
  -3   0   5    8.09    0.58
  -3   0   5    8.35    0.79
  -3   0   5    7.91    0.84
  -3   0   5    8.92    0.54
   2   0  -5   61.46    1.59
   2   0  -5   58.85    1.62
   2   0  -5   62.36    1.92
   2   0  -5   59.41    1.99
   2   0  -5   60.48    1.59
  -2   0   5   57.26    1.60
  -2   0   5   61.47    1.63
  -2   0   5   60.71    2.00
  -2   0   5   59.83    1.78
  -2   0   5   61.94    1.56
  -2   0   5   59.20    1.86
   1   0  -5   74.76    2.15
   1   0  -5   72.55    1.79
   1   0  -5   75.52    1.79
   1   0  -5   71.19    2.08
   1   0  -5   78.02    1.82
   1   0  -5   76.31    2.03
  -1   0   5   72.87    1.84
  -1   0   5   71.76    2.18
  -1   0   5   74.95    2.10
  -1   0   5   77.15    1.84
  -1   0   5   76.22    1.77
  -1   0   5   73.31    1.97
   0   0  -5   70.38    1.64
   0   0  -5   65.51    1.84
   0   0  -5   67.06    1.98
   0   0  -5   68.32    1.70
   0   0  -5   67.32    1.67
   0   0  -5   67.67    1.84
   0   0   5   67.23    1.67
   0   0   5   67.39    1.75
   0   0   5   66.10    1.63
   0   0   5   66.86    1.98
   0   0   5   67.43    1.94
  -1   0  -5   13.67    0.67
  -1   0  -5   13.23    0.60
  -1   0  -5   13.61    0.84
  -1   0  -5   13.42    0.61
  -1   0  -5   13.81    0.73
   1   0   5   12.14    0.59
   1   0   5   13.58    0.80
   1   0   5   13.19    0.79
   1   0   5   11.98    0.58
   1   0   5   14.29    0.75
  -2   0  -5   19.52    0.93
  -2   0  -5   21.43    1.09
  -2   0  -5   22.36    0.91
  -2   0  -5   23.23    0.84
  -2   0  -5   22.30    1.03
  -2   0  -5   21.86    0.87
   2   0   5   21.65    0.92
   2   0   5   21.97    1.05
   2   0   5   22.45    0.90
   2   0   5   21.29    1.04
   2   0   5   21.14    1.01
  -3   0  -5   69.15    1.88
  -3   0  -5   67.34    2.03
  -3   0  -5   66.64    1.89
  -3   0  -5   65.01    2.18
  -3   0  -5   65.71    1.85
  -3   0  -5   66.45    2.06
   3   0   5   65.70    2.06
   3   0   5   64.80    2.09
   3   0   5   69.36    1.98
   3   0   5   62.39    1.97
   3   0   5   65.75    2.10
  -4   0  -5    2.42    0.48
  -4   0  -5    2.60    0.55
  -4   0  -5    2.46    0.51
   4   0   5    3.98    0.68
   4   0   5    1.79    0.48
   4   0   5    2.83    0.56
   4   0   5    2.36    0.54
   4   0   5    2.59    0.55
   4   0   5    2.80    0.52
  -5   0  -5    0.30    0.41
  -5   0  -5   -0.13    0.35
   5   0   5    0.40    0.50
   5   0   5    0.20    0.41
   5   0   5    0.21    0.36
  -6   0  -5    2.09    0.60
  -6   0  -5    0.59    0.56
   6   0   5    2.00    0.70
  -7   0  -5   -0.13    0.38
   7   0   5    0.19    0.60
  -8   0  -5    0.97    0.57
   8   0   5   -1.72    0.53
  -8   1   5    9.86    1.02
   7  -1  -5   19.99    1.95
  -7   1   5   17.18    1.10
   6  -1  -5   31.07    1.82
   6  -1  -5   32.18    2.03
  -6   1   5   34.17    1.41
  -6   1   5   36.94    2.23
  -6   1   5   35.11    1.86
   5  -1  -5    0.31    0.50
   5  -1  -5    0.80    0.62
  -5   1   5    0.19    0.53
  -5   1   5    0.16    0.32
  -5   1   5    0.01    0.40
   4  -1  -5   20.59    0.94
   4  -1  -5   20.87    1.12
   4  -1  -5   20.83    1.34
   4  -1  -5   20.49    0.92
  -4   1   5   20.30    1.14
  -4   1   5   20.59    1.30
  -4   1   5   19.75    0.90
  -4   1   5   18.80    0.89
  -4   1   5   21.02    1.01
   3  -1  -5   17.30    1.12
   3  -1  -5   19.18    0.79
   3  -1  -5   19.40    0.80
   3  -1  -5   20.79    0.95
   3  -1  -5   19.45    0.99
  -3   1   5   18.72    0.84
  -3   1   5   18.57    0.77
  -3   1   5   18.76    0.78
  -3   1   5   19.42    1.15
  -3   1   5   18.83    0.99
   2  -1  -5   71.86    1.80
   2  -1  -5   75.55    1.81
   2  -1  -5   73.49    2.19
   2  -1  -5   71.23    2.03
   2  -1  -5   75.91    1.86
  -2   1   5   68.04    1.97
  -2   1   5   73.63    2.18
  -2   1   5   76.53    1.76
  -2   1   5   70.81    1.84
   1  -1  -5   66.64    1.85
   1  -1  -5   64.94    1.57
   1  -1  -5   64.37    1.80
   1  -1  -5   65.07    1.57
  -1   1   5   68.21    1.71
  -1   1   5   66.79    1.47
  -1   1   5   66.57    1.53
  -1   1   5   68.36    1.61
  -1   1   5   67.05    1.44
  -1   1   5   68.38    1.92
  -1   1   5   65.00    1.77
   0  -1  -5  108.92    2.39
   0  -1  -5  109.38    2.39
   0  -1  -5  107.80    2.59
   0  -1  -5  109.87    2.65
   0  -1  -5  107.88    2.53
   0   1   5  113.68    2.21
   0   1   5  106.80    2.31
   0   1   5  107.19    2.59
   0   1   5  111.23    2.24
   0   1   5  109.26    2.40
   0   1   5  113.30    2.71
  -1  -1  -5    0.01    0.16
  -1  -1  -5    0.24    0.14
  -1  -1  -5    0.13    0.20
  -1  -1  -5    0.12    0.23
   1   1   5    0.21    0.15
   1   1   5    0.15    0.14
   1   1   5    0.05    0.18
   1   1   5    0.33    0.25
   1   1   5   -0.25    0.19
   1   1   5    0.18    0.14
  -2  -1  -5   11.44    0.61
  -2  -1  -5   12.07    0.60
  -2  -1  -5   12.28    0.70
  -2  -1  -5   10.67    0.71
  -2  -1  -5   11.49    0.64
   2   1   5   11.58    0.71
   2   1   5   11.96    0.60
   2   1   5   12.28    0.68
   2   1   5   10.84    0.58
   2   1   5   11.23    0.71
  -3  -1  -5    0.26    0.24
  -3  -1  -5    0.02    0.23
  -3  -1  -5    0.30    0.32
  -3  -1  -5    0.17    0.22
  -3  -1  -5    0.00    0.24
   3   1   5    0.27    0.26
   3   1   5   -0.02    0.19
   3   1   5   -0.05    0.24
   3   1   5   -0.12    0.20
   3   1   5    0.05    0.30
  -4  -1  -5    0.85    0.33
  -4  -1  -5    1.48    0.41
  -4  -1  -5    0.61    0.33
   4   1   5    1.59    0.41
   4   1   5    0.66    0.38
   4   1   5    1.12    0.34
   4   1   5    1.03    0.34
   4   1   5    0.82    0.39
   4   1   5    0.61    0.42
  -5  -1  -5   -0.01    0.33
  -5  -1  -5    0.08    0.36
   5   1   5   -0.31    0.33
   5   1   5    0.23    0.34
   5   1   5   -0.06    0.48
  -6  -1  -5    1.66    0.57
  -6  -1  -5    1.53    0.56
   6   1   5    1.82    0.52
   6   1   5    1.65    0.61
   6   1   5    1.59    0.63
  -7  -1  -5   13.54    1.25
   7   1   5   11.35    1.30
  -8  -1  -5    4.88    0.91
   8   1   5    5.00    0.98
  -8   2   5    4.99    0.75
   7  -2  -5   29.47    2.17
  -7   2   5   26.06    1.32
  -7   2   5   28.29    1.95
   6  -2  -5   15.53    1.58
  -6   2   5   16.49    1.75
  -6   2   5   16.70    0.97
  -6   2   5   15.90    1.43
   5  -2  -5    8.09    1.15
  -5   2   5    6.76    0.88
  -5   2   5    6.42    1.00
  -5   2   5    8.35    0.71
   4  -2  -5    0.64    0.24
   4  -2  -5    0.73    0.44
   4  -2  -5    0.10    0.46
  -4   2   5    1.16    0.40
  -4   2   5    0.52    0.45
  -4   2   5    0.47    0.27
  -4   2   5    0.66    0.30
  -4   2   5    1.02    0.33
   3  -2  -5    5.18    0.46
   3  -2  -5    6.81    0.81
   3  -2  -5    5.30    0.49
   3  -2  -5    6.19    0.64
  -3   2   5    5.57    0.41
  -3   2   5    4.44    0.63
  -3   2   5    5.14    0.50
  -3   2   5    5.55    0.42
  -3   2   5    5.98    0.49
  -3   2   5    5.16    0.60
   2  -2  -5   29.11    1.04
   2  -2  -5   30.24    0.91
   2  -2  -5   30.78    1.26
   2  -2  -5   29.33    0.93
  -2   2   5   31.56    1.07
  -2   2   5   29.73    0.89
  -2   2   5   31.32    1.22
  -2   2   5   29.38    0.98
  -2   2   5   29.93    0.74
  -2   2   5   29.76    0.73
   1  -2  -5    0.72    0.16
   1  -2  -5    0.25    0.26
   1  -2  -5    0.73    0.19
   1  -2  -5    0.66    0.13
  -1   2   5    0.55    0.15
  -1   2   5    0.70    0.15
  -1   2   5    0.64    0.13
  -1   2   5    0.79    0.18
   0  -2  -5   14.73    0.43
   0  -2  -5   14.94    0.46
   0  -2  -5   14.92    0.53
   0  -2  -5   13.47    0.55
   0  -2  -5   15.62    0.53
   0   2   5   15.01    0.36
   0   2   5   14.81    0.43
   0   2   5   14.36    0.46
  -1  -2  -5  103.73    2.25
  -1  -2  -5  105.73    2.39
  -1  -2  -5  102.62    2.24
  -1  -2  -5  103.18    2.23
   1   2   5  103.72    2.15
   1   2   5  103.02    2.26
   1   2   5  101.10    2.10
  -2  -2  -5    7.39    0.53
  -2  -2  -5    6.83    0.43
  -2  -2  -5    7.26    0.51
  -2  -2  -5    7.41    0.47
   2   2   5    7.00    0.53
   2   2   5    7.67    0.54
   2   2   5    7.68    0.27
   2   2   5    7.75    0.26
   2   2   5    6.58    0.44
   2   2   5    7.39    0.41
  -3  -2  -5   16.80    0.90
  -3  -2  -5   17.02    0.81
  -3  -2  -5   15.94    0.75
  -3  -2  -5   14.85    0.83
  -3  -2  -5   14.99    0.72
   3   2   5   15.49    0.73
   3   2   5   16.68    0.69
   3   2   5   14.19    0.78
   3   2   5   16.51    0.78
   3   2   5   16.26    0.82
   3   2   5   14.42    0.72
  -4  -2  -5    8.68    0.66
  -4  -2  -5   10.41    0.74
  -4  -2  -5    9.33    0.75
  -4  -2  -5   12.05    1.05
   4   2   5   10.60    0.76
   4   2   5   10.08    0.72
   4   2   5   11.28    0.81
   4   2   5    8.51    0.68
   4   2   5   10.00    0.83
   4   2   5    8.65    0.75
  -5  -2  -5    0.73    0.36
  -5  -2  -5    0.12    0.38
   5   2   5    0.47    0.33
   5   2   5   -0.01    0.41
   5   2   5    0.50    0.39
  -6  -2  -5   13.45    1.07
   6   2   5   15.66    1.17
   6   2   5   16.68    1.11
   6   2   5   15.00    1.14
  -7  -2  -5    2.08    0.64
   7   2   5    2.11    0.61
   7   2   5    1.40    0.63
   8   2   5   16.53    1.54
  -8   3   5   10.29    0.97
   7  -3  -5    0.35    0.86
  -7   3   5    0.64    0.42
  -7   3   5    0.28    0.69
   6  -3  -5    0.43    0.68
  -6   3   5    0.02    0.53
  -6   3   5    0.55    0.35
  -6   3   5    0.17    0.82
   5  -3  -5    1.43    0.65
  -5   3   5    0.96    0.65
  -5   3   5    0.85    0.44
  -5   3   5    0.86    0.32
   4  -3  -5   -0.06    0.43
  -4   3   5   -0.29    0.26
  -4   3   5    0.14    0.42
  -4   3   5    0.54    0.25
   3  -3  -5   16.05    0.76
   3  -3  -5   15.93    0.71
   3  -3  -5   13.79    1.03
  -3   3   5   15.60    1.00
  -3   3   5   14.27    0.80
  -3   3   5   16.89    0.75
  -3   3   5   15.37    0.79
  -3   3   5   16.22    0.53
  -3   3   5   15.71    0.54
   2  -3  -5   16.52    0.93
   2  -3  -5   16.97    0.68
   2  -3  -5   16.33    0.62
   2  -3  -5   18.32    0.69
  -2   3   5   16.78    0.70
  -2   3   5   17.16    0.88
  -2   3   5   17.89    0.64
  -2   3   5   15.87    0.71
   1  -3  -5   17.71    0.56
   1  -3  -5   16.35    0.76
   1  -3  -5   16.17    0.51
   1  -3  -5   16.13    0.47
  -1   3   5   17.54    0.70
  -1   3   5   17.00    0.52
  -1   3   5   15.47    0.56
  -1   3   5   17.25    0.57
   0  -3  -5    2.92    0.21
   0  -3  -5    3.16    0.16
   0  -3  -5    3.14    0.18
   0   3   5    3.06    0.10
   0   3   5    3.72    0.29
   0   3   5    2.90    0.18
  -1  -3  -5    0.19    0.09
  -1  -3  -5    0.27    0.09
   1   3   5    0.16    0.10
   1   3   5    0.41    0.15
   1   3   5    0.34    0.08
   1   3   5    0.09    0.10
  -2  -3  -5   21.75    0.72
  -2  -3  -5   22.54    0.77
  -2  -3  -5   21.52    0.68
  -2  -3  -5   23.92    0.77
   2   3   5   22.66    0.76
   2   3   5   22.73    0.70
   2   3   5   18.65    0.73
   2   3   5   21.82    0.77
  -3  -3  -5   37.54    1.33
  -3  -3  -5   36.98    1.22
  -3  -3  -5   37.03    1.12
  -3  -3  -5   36.14    1.22
   3   3   5   35.61    1.19
   3   3   5   33.78    1.19
   3   3   5   35.81    1.21
   3   3   5   35.60    1.07
  -4  -3  -5    0.23    0.26
  -4  -3  -5   -0.02    0.36
  -4  -3  -5    0.18    0.22
   4   3   5    0.17    0.22
   4   3   5   -0.53    0.17
   4   3   5    0.17    0.24
   4   3   5    0.24    0.29
   4   3   5    0.30    0.27
   4   3   5   -0.07    0.24
   4   3   5   -0.23    0.22
  -5  -3  -5   13.85    0.85
   5   3   5   11.44    0.87
   5   3   5   11.38    0.83
   5   3   5   10.95    0.86
  -6  -3  -5   30.48    1.47
   6   3   5   28.94    1.42
   6   3   5   33.93    1.50
   6   3   5   31.11    1.51
  -7  -3  -5   43.65    1.93
   7   3   5   43.55    1.98
   7   3   5   41.37    1.86
   7   3   5   42.46    1.89
   8   3   5    5.31    0.93
   8   3   5    5.35    0.97
   7  -4  -5    3.73    1.19
  -7   4   5    1.01    0.83
  -7   4   5    1.67    0.46
   6  -4  -5   -0.04    0.72
  -6   4   5    1.13    0.65
  -6   4   5    0.39    0.33
   5  -4  -5    1.20    0.67
  -5   4   5    0.40    0.62
  -5   4   5   -0.22    0.41
  -5   4   5    0.33    0.24
   4  -4  -5    1.37    0.58
  -4   4   5    2.19    0.31
  -4   4   5    1.77    0.60
  -4   4   5    2.20    0.49
  -4   4   5    2.20    0.27
   3  -4  -5    8.93    0.54
   3  -4  -5    8.07    0.88
  -3   4   5    7.31    0.77
  -3   4   5    7.77    0.68
  -3   4   5    9.22    0.68
   2  -4  -5    0.10    0.17
   2  -4  -5    0.17    0.30
   2  -4  -5    0.34    0.14
  -2   4   5    0.26    0.27
  -2   4   5    0.16    0.18
  -2   4   5    0.14    0.18
   1  -4  -5   12.39    0.35
   1  -4  -5   12.42    0.35
   1  -4  -5   12.14    0.66
   1  -4  -5   12.19    0.49
  -1   4   5   12.77    0.47
  -1   4   5   13.16    0.47
  -1   4   5   13.16    0.60
  -1   4   5   12.33    0.51
   0  -4  -5   38.19    0.86
   0  -4  -5   38.05    0.82
   0   4   5   39.06    0.87
   0   4   5   38.83    0.90
   1   4   5   42.94    0.91
  -2  -4  -5  111.40    2.34
  -2  -4  -5  108.84    2.44
   2   4   5  111.33    2.51
   2   4   5  113.60    2.40
   2   4   5  115.17    2.49
   2   4   5  116.19    2.40
  -3  -4  -5   18.39    0.87
  -3  -4  -5   17.68    0.73
  -3  -4  -5   17.71    0.67
  -3  -4  -5   18.61    0.78
   3   4   5   17.48    0.73
   3   4   5   18.41    0.80
  -4  -4  -5   31.72    1.39
  -4  -4  -5   27.92    1.19
  -4  -4  -5   28.84    1.04
   4   4   5   27.08    1.08
   4   4   5   29.26    1.06
   4   4   5   28.10    1.01
   4   4   5   28.12    1.10
   4   4   5   27.88    1.16
  -5  -4  -5   14.90    0.85
   5   4   5   14.04    0.66
   5   4   5   12.78    0.86
   5   4   5   13.73    0.85
   5   4   5   12.50    0.65
  -6  -4  -5   31.41    1.40
   6   4   5   31.68    1.43
   6   4   5   30.20    1.26
   6   4   5   31.30    1.46
  -7  -4  -5    8.53    0.97
   7   4   5    9.78    1.04
   7   4   5   10.09    0.97
  -8  -4  -5    1.35    0.65
   8   4   5    1.83    0.69
   8   4   5    1.80    0.62
   9   4   5   -0.11    0.69
  -7   5   5    0.85    0.31
  -7   5   5    0.69    0.81
   6  -5  -5    3.87    1.07
  -6   5   5    4.44    0.39
  -6   5   5    3.79    0.85
   5  -5  -5    0.08    0.62
  -5   5   5    1.25    0.57
   4  -5  -5   20.12    1.44
  -4   5   5   19.47    1.15
  -4   5   5   20.25    1.40
   3  -5  -5   23.40    1.31
  -3   5   5   23.85    1.26
  -3   5   5   23.13    1.04
   2  -5  -5   33.06    0.98
   2  -5  -5   32.27    1.34
   2  -5  -5   33.62    1.12
  -2   5   5   34.52    0.90
  -2   5   5   33.44    1.21
   1  -5  -5   20.80    0.47
   1  -5  -5   20.97    0.89
   1  -5  -5   21.89    0.74
  -1   5   5   21.92    0.71
  -1   5   5   21.57    0.68
  -1   5   5   21.52    0.81
  -1   5   5   20.84    0.78
   0  -5  -5   19.92    0.58
   0  -5  -5   19.04    0.64
   0   5   5   19.45    0.47
   0   5   5   20.55    0.59
   0   5   5   21.37    0.47
   1   5   5   66.37    1.41
   1   5   5   67.94    1.37
  -2  -5  -5   48.01    1.22
  -2  -5  -5   49.36    1.10
   2   5   5   48.83    1.11
   2   5   5   49.61    1.17
  -3  -5  -5    1.43    0.36
  -3  -5  -5    1.46    0.22
  -3  -5  -5    1.23    0.21
   3   5   5    1.08    0.22
   3   5   5    1.22    0.24
   3   5   5    1.42    0.29
   3   5   5    1.11    0.30
  -4  -5  -5   10.24    0.58
  -4  -5  -5   10.41    0.93
  -4  -5  -5    9.99    0.70
   4   5   5    9.20    0.70
   4   5   5    9.70    0.62
  -5  -5  -5   37.55    1.36
   5   5   5   38.24    1.44
   5   5   5   40.25    1.42
  -6  -5  -5   15.37    0.96
   6   5   5   14.96    0.99
   6   5   5   15.94    1.05
  -7  -5  -5    7.35    0.85
   7   5   5    7.07    0.84
   7   5   5    8.08    0.67
  -8  -5  -5    0.04    0.50
   8   5   5    0.40    0.49
   8   5   5   -0.21    0.47
   9   5   5    2.37    0.72
   9   5   5    2.11    0.74
   6  -6  -5    0.45    0.84
  -6   6   5    1.92    0.82
   5  -6  -5   13.53    1.52
  -5   6   5   11.99    1.19
   4  -6  -5   12.37    1.28
  -4   6   5   11.84    1.03
   3  -6  -5   14.44    1.14
  -3   6   5   15.76    0.74
  -3   6   5   16.03    1.12
  -3   6   5   16.80    0.94
   2  -6  -5    6.87    0.73
  -2   6   5    8.59    0.69
  -2   6   5    8.65    0.54
   1  -6  -5    8.58    0.61
   1  -6  -5    8.91    0.54
  -1   6   5    8.79    0.46
  -1   6   5   10.22    0.62
  -1   6   5    8.75    0.54
   0  -6  -5  110.73    2.47
   0  -6  -5  111.17    2.53
   0   6   5  114.25    2.31
   0   6   5  110.56    2.46
  -1  -6  -5  131.07    2.80
  -1  -6  -5  128.72    2.71
   1   6   5  136.18    2.58
   1   6   5  132.66    2.61
   1   6   5  133.67    2.89
   1   6   5  135.90    2.75
  -2  -6  -5    5.39    0.27
  -2  -6  -5    5.71    0.45
   2   6   5    5.73    0.30
   2   6   5    5.83    0.38
   2   6   5    5.51    0.45
   2   6   5    5.71    0.27
  -3  -6  -5    3.73    0.32
  -3  -6  -5    4.40    0.53
   3   6   5    4.00    0.35
   3   6   5    2.94    0.43
   3   6   5    3.27    0.42
   3   6   5    3.49    0.34
  -4  -6  -5    4.66    0.49
  -4  -6  -5    4.33    0.42
   4   6   5    3.58    0.52
  -5  -6  -5    9.11    0.67
   5   6   5   10.57    0.71
   5   6   5   10.41    0.75
  -6  -6  -5    4.43    0.62
   6   6   5    4.86    0.64
   6   6   5    4.54    0.67
  -7  -6  -5    1.32    0.49
   7   6   5    1.80    0.52
  -8  -6  -5    4.21    0.77
   8   6   5    4.70    0.85
   9   6   5    0.17    0.57
   5  -7  -5    7.99    1.25
  -5   7   5   10.13    1.17
   4  -7  -5   24.31    1.67
  -4   7   5   25.89    1.42
   3  -7  -5   10.93    1.13
  -3   7   5   11.51    0.86
  -3   7   5   10.94    0.84
  -3   7   5    9.94    0.53
   2  -7  -5   13.63    0.98
  -2   7   5   12.44    0.73
  -2   7   5   13.89    0.91
   1  -7  -5   31.39    1.22
  -1   7   5   30.16    1.11
  -1   7   5   30.11    1.25
  -1   7   5   28.98    0.97
   0  -7  -5   16.21    0.74
   0  -7  -5   18.38    0.78
   0   7   5   17.85    0.70
   0   7   5   18.01    0.61
   0   7   5   17.37    0.82
  -1  -7  -5    2.08    0.34
  -1  -7  -5    2.04    0.26
   1   7   5    1.60    0.27
   1   7   5    1.29    0.32
   1   7   5    1.94    0.23
   1   7   5    1.70    0.19
  -2  -7  -5    0.95    0.19
  -2  -7  -5    0.81    0.31
   2   7   5    0.40    0.24
   2   7   5    1.20    0.33
   2   7   5    1.05    0.19
   2   7   5    1.06    0.17
  -3  -7  -5    0.13    0.36
  -3  -7  -5    0.09    0.15
   3   7   5   -0.05    0.15
   3   7   5    0.25    0.30
   3   7   5    0.12    0.17
   3   7   5    0.30    0.25
  -4  -7  -5    0.05    0.18
   4   7   5    0.05    0.19
   4   7   5    0.17    0.19
  -5  -7  -5   22.53    1.00
   5   7   5   22.32    1.01
   5   7   5   24.53    1.07
  -6  -7  -5    0.21    0.31
   6   7   5   -0.07    0.30
  -7  -7  -5    3.54    0.66
   7   7   5    4.27    0.70
  -8  -7  -5    1.44    0.60
   8   7   5    2.15    0.64
  -5   8   5   14.21    1.42
   4  -8  -5    6.52    1.08
  -4   8   5    4.00    0.75
   3  -8  -5    1.99    0.64
  -3   8   5    1.28    0.48
  -3   8   5    1.82    0.50
   2  -8  -5    1.11    0.48
  -2   8   5    1.33    0.38
   1  -8  -5   35.53    1.41
  -1   8   5   37.91    1.39
  -1   8   5   35.73    1.19
   0  -8  -5    8.51    0.63
   0  -8  -5    8.60    0.61
   0   8   5    8.77    0.58
   0   8   5    9.36    0.50
  -1  -8  -5    3.05    0.46
  -1  -8  -5    3.38    0.37
   1   8   5    2.93    0.30
   1   8   5    3.89    0.37
   1   8   5    3.67    0.54
   1   8   5    4.04    0.50
  -2  -8  -5    3.06    0.50
  -2  -8  -5    2.87    0.32
   2   8   5    3.27    0.33
   2   8   5    2.75    0.29
   2   8   5    3.32    0.47
   2   8   5    3.04    0.53
  -3  -8  -5    2.91    0.33
   3   8   5    3.48    0.36
   3   8   5    2.53    0.52
   3   8   5    2.86    0.33
  -4  -8  -5   34.85    1.16
   4   8   5   36.08    1.18
   4   8   5   34.77    1.18
  -5  -8  -5    1.19    0.33
   5   8   5    0.94    0.32
  -6  -8  -5    0.34    0.33
   6   8   5    0.37    0.34
  -7  -8  -5    2.13    0.54
   7   8   5    1.66    0.53
  -8  -8  -5    4.41    0.92
   8   8   5    5.35    0.86
  -4   9   5    2.43    0.72
   3  -9  -5    2.58    0.77
  -3   9   5    3.49    0.65
  -3   9   5    4.44    0.74
   2  -9  -5    4.86    0.81
  -2   9   5    4.63    0.62
   1  -9  -5    0.92    0.38
   1  -9  -5    1.16    0.44
  -1   9   5    0.88    0.33
   0  -9  -5    4.15    0.53
   0   9   5    4.10    0.43
  -1  -9  -5    5.89    0.53
   1   9   5    4.90    0.44
  -2  -9  -5    1.25    0.27
   2   9   5    0.62    0.25
   2   9   5    1.15    0.26
  -3  -9  -5   28.91    1.00
   3   9   5   27.26    0.95
  -4  -9  -5   21.31    0.89
   4   9   5   21.30    0.88
  -5  -9  -5    4.79    0.54
   5   9   5    4.98    0.56
  -6  -9  -5    3.14    0.53
   6   9   5    3.01    0.55
  -7  -9  -5    3.51    0.65
   7   9   5    3.20    0.63
   8   9   5   16.69    1.28
  -3  10   5    0.66    0.58
  -3  10   5    1.08    0.55
  -2  10   5    3.28    0.64
   1 -10  -5    0.54    0.40
  -1  10   5    0.34    0.35
   0 -10  -5   -0.02    0.31
   0  10   5   -0.04    0.24
  -1 -10  -5    0.47    0.28
   1  10   5    0.79    0.29
  -2 -10  -5   11.65    0.70
   2  10   5   12.72    0.66
  -3 -10  -5   24.97    0.99
   3  10   5   25.50    0.96
  -4 -10  -5    4.38    0.50
   4  10   5    4.21    0.50
  -5 -10  -5    2.72    0.46
   5  10   5    2.25    0.44
  -6 -10  -5    4.17    0.61
   6  10   5    4.72    0.65
   7  10   5   15.88    1.13
  -2  11   5    4.80    0.80
  -1  11   5    0.34    0.41
   0 -11  -5    0.35    0.36
   0  11   5    0.10    0.32
  -1 -11  -5    3.54    0.56
   1  11   5    3.45    0.48
  -2 -11  -5   41.42    1.46
   2  11   5   39.92    1.35
  -3 -11  -5   39.21    1.39
   3  11   5   38.05    1.32
  -4 -11  -5    2.97    0.45
   4  11   5    2.30    0.43
  -5 -11  -5    1.92    0.43
   5  11   5    2.06    0.44
   6  11   5    4.22    0.65
   7  11   5    4.51    0.74
   0  12   5    3.03    0.59
   1  12   5   29.05    1.27
   2  12   5   22.39    1.09
   3  12   5   -0.08    0.32
   4  12   5    0.67    0.38
   5  12   5    0.84    0.39
   6  12   5    8.19    0.87
   6   9  -6    1.80    0.69
   5   9  -6    5.63    0.87
   4   9  -6    1.38    0.57
   4   9  -6    1.35    0.61
  -4  -9   6    1.22    0.69
   3   9  -6    5.20    0.78
   3   9  -6    6.41    0.89
  -3  -9   6    6.16    0.93
   2   9  -6    1.07    0.56
   2   9  -6    0.47    0.55
  -2  -9   6    0.33    0.59
   1   9  -6    0.43    0.53
   1   9  -6    0.13    0.55
   0   9  -6    3.36    0.72
   7   8  -6    1.83    0.76
   6   8  -6    5.90    0.96
   5   8  -6    0.62    0.60
   4   8  -6    3.25    0.70
   4   8  -6    3.34    0.68
  -4  -8   6    2.66    0.67
   3   8  -6    7.86    0.90
   3   8  -6    7.61    0.90
  -3  -8   6    8.74    1.04
   2   8  -6    3.46    0.70
   2   8  -6    4.13    0.74
  -2  -8   6    4.49    0.80
   1   8  -6   15.75    1.19
   1   8  -6   12.44    1.07
  -1  -8   6   17.03    1.29
   0   8  -6    7.96    0.99
   0   8  -6    8.47    0.94
   0  -8   6    8.09    1.09
  -1   8  -6    2.30    0.64
  -2   8  -6    3.53    0.74
   7   7  -6   10.33    1.23
   6   7  -6    0.77    0.58
   5   7  -6    4.48    0.75
   5   7  -6    3.72    0.74
  -5  -7   6    2.55    0.66
   4   7  -6   12.55    0.98
   4   7  -6   12.49    1.09
  -4  -7   6   14.15    1.23
   3   7  -6    4.08    0.75
   3   7  -6    3.37    0.66
   3   7  -6    2.87    0.58
  -3  -7   6    3.71    0.68
   2   7  -6    6.94    0.81
   2   7  -6    7.22    0.84
   2   7  -6    9.29    1.03
  -2  -7   6    6.57    0.86
   1   7  -6   23.69    1.29
   1   7  -6   26.91    1.36
   1   7  -6   28.84    1.54
  -1  -7   6   25.79    1.46
   0   7  -6   12.01    1.05
   0   7  -6   10.93    0.98
   0  -7   6   10.14    1.09
  -1   7  -6    5.76    0.76
  -1   7  -6    7.01    1.00
   1  -7   6    4.49    0.85
  -2   7  -6   14.25    1.10
  -3   7  -6   12.39    1.18
   8   6  -6    5.86    1.04
  -8  -6   6    6.10    1.09
   7   6  -6    3.92    0.88
  -7  -6   6    3.35    0.86
   6   6  -6   10.58    1.13
  -6  -6   6   11.43    1.29
   5   6  -6    6.84    0.76
   5   6  -6    6.35    0.86
  -5  -6   6    8.05    1.21
  -5  -6   6    5.91    0.82
   4   6  -6    0.84    0.45
   4   6  -6    0.26    0.29
   4   6  -6    0.20    0.40
  -4  -6   6    0.40    0.69
  -4  -6   6    0.70    0.44
   3   6  -6   45.51    1.82
   3   6  -6   50.59    1.92
   3   6  -6   48.15    1.71
  -3  -6   6   53.66    2.37
  -3  -6   6   50.59    1.88
   2   6  -6   83.84    2.54
   2   6  -6   77.99    2.38
   2   6  -6   90.52    2.70
  -2  -6   6   84.03    3.14
  -2  -6   6   85.43    2.62
   1   6  -6   11.48    0.82
   1   6  -6    9.33    0.93
   1   6  -6   10.22    0.91
  -1  -6   6   10.18    0.95
  -1  -6   6    8.87    1.22
   0   6  -6    1.16    0.52
   0   6  -6    1.24    0.51
   0   6  -6    0.83    0.36
   0   6  -6    1.08    0.43
   0  -6   6    0.87    0.47
   0  -6   6   -0.01    0.76
  -1   6  -6    6.74    0.78
  -1   6  -6    6.84    0.96
  -1   6  -6    6.41    0.79
   1  -6   6    7.01    0.92
   1  -6   6    6.70    1.22
  -2   6  -6   17.56    1.14
   2  -6   6   20.11    1.87
  -3   6  -6    2.02    0.59
  -4   6  -6    0.22    0.45
   8   5  -6    7.35    1.21
  -8  -5   6    8.29    1.17
   7   5  -6   20.46    1.52
  -7  -5   6   19.80    1.54
   6   5  -6   13.23    1.24
  -6  -5   6   12.00    1.27
   5   5  -6   14.63    0.93
   5   5  -6   12.64    1.15
  -5  -5   6   15.46    1.48
  -5  -5   6   14.26    1.03
   4   5  -6   57.62    2.01
   4   5  -6   56.65    2.04
   4   5  -6   54.56    1.82
  -4  -5   6   53.83    2.29
  -4  -5   6   54.66    1.95
   3   5  -6    6.09    0.77
   3   5  -6    6.51    0.63
   3   5  -6    6.46    0.72
  -3  -5   6    7.96    1.08
  -3  -5   6    5.95    0.68
   2   5  -6    8.78    0.85
   2   5  -6    9.41    0.68
   2   5  -6    9.85    0.89
  -2  -5   6   10.14    1.20
  -2  -5   6   10.91    0.93
   1   5  -6    0.84    0.33
   1   5  -6    1.08    0.43
   1   5  -6    0.89    0.45
  -1  -5   6    1.38    0.41
  -1  -5   6    0.78    0.61
   0   5  -6    5.10    0.76
   0   5  -6    6.09    0.71
   0   5  -6    6.42    0.78
   0   5  -6    7.35    0.68
   0  -5   6    6.67    0.77
   0  -5   6    4.90    0.93
  -1   5  -6    7.65    0.77
  -1   5  -6   11.09    1.12
  -1   5  -6    7.95    0.86
  -1   5  -6    9.96    0.77
   1  -5   6    9.16    0.96
   1  -5   6    8.64    1.27
  -2   5  -6   14.13    0.99
  -2   5  -6   13.30    1.12
  -2   5  -6   13.20    1.03
   2  -5   6   12.71    1.20
   2  -5   6   13.77    1.50
  -3   5  -6    1.10    0.46
   3  -5   6    1.01    0.72
  -4   5  -6    1.54    0.57
   4  -5   6    1.28    0.83
  -5   5  -6    3.33    0.71
   5  -5   6    3.98    1.07
   8   4  -6   17.17    1.64
  -8  -4   6   16.63    1.58
   7   4  -6   18.08    1.58
  -7  -4   6   20.62    1.44
   6   4  -6    0.32    0.46
  -6  -4   6    0.94    0.54
   5   4  -6   12.71    1.12
  -5  -4   6   11.53    1.16
  -5  -4   6   13.12    0.92
   4   4  -6    7.96    1.21
   4   4  -6   11.18    0.75
   4   4  -6    9.54    0.82
   4   4  -6   10.94    1.03
   4   4  -6    9.66    1.19
  -4  -4   6   10.29    0.88
  -4  -4   6    9.49    1.01
   3   4  -6   51.70    1.85
   3   4  -6   52.01    1.78
   3   4  -6   53.07    2.40
   3   4  -6   52.02    1.65
   3   4  -6   52.39    2.37
  -3  -4   6   52.87    1.76
  -3  -4   6   53.18    2.40
  -3  -4   6   53.95    2.11
   2   4  -6    2.42    0.44
   2   4  -6    2.86    0.39
   2   4  -6    2.90    0.54
   2   4  -6    2.91    0.74
   2   4  -6    3.33    0.78
  -2  -4   6    5.51    0.84
  -2  -4   6    3.80    0.76
  -2  -4   6    3.06    0.69
  -2  -4   6    3.24    0.49
  -2  -4   6    3.12    0.72
   1   4  -6    0.57    0.55
   1   4  -6    0.35    0.22
   1   4  -6    0.48    0.33
   1   4  -6    0.52    0.55
   1   4  -6    0.31    0.29
  -1  -4   6    0.67    0.52
  -1  -4   6    0.79    0.33
  -1  -4   6    0.33    0.49
  -1  -4   6    0.15    0.51
  -1  -4   6    0.81    0.49
   0   4  -6    1.80    0.33
   0   4  -6    1.47    0.43
   0   4  -6    2.67    0.48
   0   4  -6    0.89    0.39
   0   4  -6    1.73    0.67
   0   4  -6    2.46    0.69
   0  -4   6    1.72    0.41
   0  -4   6    1.62    0.64
   0  -4   6    1.61    0.62
  -1   4  -6    8.28    0.79
  -1   4  -6    7.22    0.78
  -1   4  -6    7.15    0.83
  -1   4  -6    7.83    1.14
  -1   4  -6    8.03    0.70
  -1   4  -6    8.57    1.12
   1  -4   6    7.38    1.04
   1  -4   6    9.50    0.89
  -2   4  -6    0.19    0.37
  -2   4  -6    0.17    0.33
  -2   4  -6    0.09    0.38
  -2   4  -6    0.73    0.33
   2  -4   6   -0.09    0.66
   2  -4   6    0.37    0.39
  -3   4  -6    0.47    0.46
  -3   4  -6   -0.08    0.33
   3  -4   6   -0.03    0.60
  -4   4  -6    2.08    0.55
  -4   4  -6    2.21    0.68
   4  -4   6    1.11    0.72
  -5   4  -6    0.73    0.47
   5  -4   6    0.31    0.79
   8   3  -6   12.82    1.44
  -8  -3   6   11.83    1.24
   7   3  -6    0.26    0.53
  -7  -3   6    0.80    0.46
   6   3  -6    6.49    0.90
  -6  -3   6    6.33    0.86
   5   3  -6    2.84    0.69
   5   3  -6    1.57    0.74
  -5  -3   6    1.73    0.57
  -5  -3   6    2.08    0.46
   4   3  -6   19.02    1.45
   4   3  -6   19.19    1.17
   4   3  -6   19.53    1.71
   4   3  -6   19.40    0.93
   4   3  -6   20.21    1.05
  -4  -3   6   20.20    1.08
  -4  -3   6   18.62    1.19
  -4  -3   6   19.67    1.01
  -4  -3   6   23.30    1.49
  -4  -3   6   19.42    1.55
   3   3  -6    9.39    0.61
   3   3  -6    8.96    0.80
   3   3  -6    9.75    1.10
   3   3  -6    9.04    1.10
   3   3  -6    9.04    0.70
  -3  -3   6   10.05    0.70
  -3  -3   6    9.02    0.68
  -3  -3   6    8.38    0.98
  -3  -3   6   10.26    0.98
  -3  -3   6    9.52    0.93
  -3  -3   6   11.21    1.25
   2   3  -6   48.28    2.10
   2   3  -6   48.42    1.56
   2   3  -6   45.78    1.58
   2   3  -6   47.71    1.44
   2   3  -6   45.87    2.01
  -2  -3   6   44.45    1.79
  -2  -3   6   44.97    1.94
  -2  -3   6   45.82    2.05
  -2  -3   6   51.28    1.84
  -2  -3   6   47.91    1.56
  -2  -3   6   46.01    1.53
   1   3  -6    0.55    0.33
   1   3  -6    0.42    0.49
   1   3  -6    0.72    0.33
   1   3  -6    0.97    0.31
   1   3  -6    1.00    0.26
   1   3  -6    0.82    0.52
  -1  -3   6    0.98    0.53
  -1  -3   6    0.74    0.30
  -1  -3   6    0.61    0.41
  -1  -3   6    1.19    0.51
  -1  -3   6    0.95    0.33
  -1  -3   6   -0.07    0.37
   0   3  -6    8.90    0.69
   0   3  -6    8.05    0.73
   0   3  -6    9.11    0.76
   0   3  -6    6.01    0.86
   0   3  -6    6.93    0.86
   0   3  -6    8.47    0.56
   0  -3   6    8.94    0.76
   0  -3   6    9.76    0.66
   0  -3   6    7.95    0.90
   0  -3   6    7.65    0.87
   0  -3   6    9.26    0.96
  -1   3  -6   48.80    2.15
  -1   3  -6   47.78    1.63
  -1   3  -6   49.94    1.55
  -1   3  -6   52.80    2.05
  -1   3  -6   48.18    1.86
  -1   3  -6   51.37    1.73
   1  -3   6   48.31    2.00
   1  -3   6   45.88    1.63
   1  -3   6   49.79    2.03
   1  -3   6   50.08    1.94
  -2   3  -6    2.16    0.48
  -2   3  -6    1.38    0.42
  -2   3  -6    2.22    0.41
  -2   3  -6    1.90    0.53
  -2   3  -6    1.34    0.60
  -2   3  -6    2.21    0.64
   2  -3   6    3.73    0.59
   2  -3   6    2.16    0.58
   2  -3   6    3.26    0.69
   2  -3   6    1.48    0.68
  -3   3  -6    7.60    0.95
  -3   3  -6    6.08    0.74
   3  -3   6    6.37    0.82
   3  -3   6    5.60    1.00
  -4   3  -6    0.05    0.37
   4  -3   6    0.67    0.68
  -5   3  -6   19.83    1.27
   5  -3   6   17.99    1.68
  -6   3  -6    4.43    0.78
   6  -3   6    3.75    1.08
   8   2  -6    0.46    0.68
  -8  -2   6    0.87    0.58
   7   2  -6    3.00    0.75
  -7  -2   6    1.54    0.53
   6   2  -6    0.40    0.56
   6   2  -6    0.35    0.74
  -6  -2   6   -0.25    0.32
   5   2  -6   11.41    1.06
   5   2  -6   12.24    1.42
  -5  -2   6   11.22    0.99
  -5  -2   6   12.14    1.44
  -5  -2   6   13.00    0.86
  -5  -2   6   10.70    1.02
  -5  -2   6   12.18    1.30
   4   2  -6   -0.50    0.49
   4   2  -6    1.50    0.61
   4   2  -6    1.55    0.49
   4   2  -6    1.00    0.31
   4   2  -6    1.00    0.35
  -4  -2   6    0.69    0.30
  -4  -2   6    0.19    0.27
  -4  -2   6    1.02    0.60
  -4  -2   6    0.98    0.51
  -4  -2   6    0.70    0.40
   3   2  -6   17.76    1.32
   3   2  -6   16.02    0.77
   3   2  -6   15.97    1.20
   3   2  -6   16.74    0.94
   3   2  -6   15.65    0.83
  -3  -2   6   16.36    1.05
  -3  -2   6   16.20    0.99
  -3  -2   6   15.62    0.81
  -3  -2   6   16.41    0.85
  -3  -2   6   17.84    1.33
  -3  -2   6   16.40    1.18
   2   2  -6   13.39    1.06
   2   2  -6   10.98    0.71
   2   2  -6   12.78    0.63
   2   2  -6   11.13    0.67
   2   2  -6   12.40    1.15
  -2  -2   6   10.41    1.01
  -2  -2   6   11.83    0.69
  -2  -2   6   13.80    1.18
  -2  -2   6   11.13    0.86
  -2  -2   6   11.01    0.66
  -2  -2   6   12.02    0.85
   1   2  -6   11.79    0.68
   1   2  -6   11.62    1.01
   1   2  -6   12.40    0.60
   1   2  -6   11.16    0.72
   1   2  -6   10.28    0.76
   1   2  -6   13.60    1.06
  -1  -2   6   13.74    0.93
  -1  -2   6   11.18    0.80
  -1  -2   6   11.51    0.66
  -1  -2   6   11.60    0.99
  -1  -2   6   12.26    0.68
  -1  -2   6   13.46    1.16
   0   2  -6   38.81    1.47
   0   2  -6   37.66    1.30
   0   2  -6   36.59    1.58
   0   2  -6   36.03    1.17
   0   2  -6   38.55    1.30
   0   2  -6   39.35    1.73
   0  -2   6   36.51    1.29
   0  -2   6   38.95    1.68
   0  -2   6   37.26    1.53
   0  -2   6   40.33    1.30
  -1   2  -6    1.23    0.35
  -1   2  -6    0.86    0.25
  -1   2  -6    1.43    0.53
  -1   2  -6    1.26    0.34
  -1   2  -6    0.63    0.34
  -1   2  -6    1.05    0.46
   1  -2   6    1.79    0.35
   1  -2   6    0.94    0.30
   1  -2   6    1.50    0.46
   1  -2   6    1.21    0.41
   1  -2   6    1.29    0.49
  -2   2  -6    0.92    0.35
  -2   2  -6    1.46    0.52
  -2   2  -6    0.90    0.38
  -2   2  -6    0.27    0.43
  -2   2  -6    1.45    0.30
  -2   2  -6    0.39    0.31
   2  -2   6    0.90    0.38
   2  -2   6    1.12    0.43
   2  -2   6    0.75    0.54
   2  -2   6    1.43    0.49
   2  -2   6    1.07    0.31
  -3   2  -6    0.45    0.36
  -3   2  -6    0.54    0.41
  -3   2  -6   -0.06    0.42
   3  -2   6    0.29    0.45
   3  -2   6   -0.04    0.33
   3  -2   6    0.75    0.41
   3  -2   6    0.05    0.26
   3  -2   6   -0.09    0.53
  -4   2  -6   37.57    1.60
  -4   2  -6   38.73    1.85
   4  -2   6   35.57    1.91
  -5   2  -6   16.23    1.13
   5  -2   6   14.55    1.52
  -6   2  -6    6.87    0.89
   6  -2   6    5.65    1.11
  -7   2  -6    0.29    0.52
   7  -2   6   -0.54    0.66
   8   1  -6    5.27    1.09
  -8  -1   6    6.41    0.91
   7   1  -6    0.35    0.57
  -7  -1   6   -1.03    0.28
   6   1  -6    4.07    0.86
   6   1  -6    5.34    1.15
  -6  -1   6    6.20    1.27
  -6  -1   6    4.88    0.69
  -6  -1   6    3.49    0.85
   5   1  -6   -0.41    0.40
   5   1  -6    0.92    0.61
  -5  -1   6    0.86    0.70
  -5  -1   6    1.00    0.42
  -5  -1   6    0.31    0.43
   4   1  -6   10.71    0.96
   4   1  -6    9.93    1.17
   4   1  -6    9.22    0.67
  -4  -1   6    9.24    0.80
  -4  -1   6    7.29    0.95
  -4  -1   6    9.00    0.65
  -4  -1   6    9.35    0.73
  -4  -1   6   10.91    1.12
   3   1  -6    3.73    0.65
   3   1  -6    3.89    0.74
   3   1  -6    4.11    0.49
   3   1  -6    3.95    0.57
   3   1  -6    4.45    0.46
  -3  -1   6    4.47    0.48
  -3  -1   6    3.67    0.46
  -3  -1   6    4.27    0.71
  -3  -1   6    3.49    0.52
  -3  -1   6    3.22    0.66
   2   1  -6   26.31    1.34
   2   1  -6   23.64    1.32
   2   1  -6   26.54    0.97
   2   1  -6   27.88    0.92
   2   1  -6   27.72    1.02
   2   1  -6   26.56    1.04
  -2  -1   6   27.95    1.14
  -2  -1   6   26.17    1.15
  -2  -1   6   27.91    0.98
  -2  -1   6   25.47    0.99
  -2  -1   6   26.90    1.32
  -2  -1   6   25.86    1.39
   1   1  -6   44.79    1.40
   1   1  -6   46.04    1.27
   1   1  -6   46.05    1.73
   1   1  -6   44.88    1.57
   1   1  -6   46.35    1.38
   1   1  -6   47.50    1.80
   1   1  -6   46.92    1.37
  -1  -1   6   44.66    1.52
  -1  -1   6   49.59    1.40
  -1  -1   6   45.18    1.79
  -1  -1   6   46.34    1.55
  -1  -1   6   41.69    1.69
  -1  -1   6   45.61    1.35
   0   1  -6  187.63    4.52
   0   1  -6  190.24    4.22
   0   1  -6  190.92    4.09
   0   1  -6  194.58    4.72
   0   1  -6  182.65    4.17
   0   1  -6  189.84    3.99
   0   1  -6  192.82    4.50
   0  -1   6  179.51    4.50
   0  -1   6  184.56    4.33
   0  -1   6  182.41    4.63
   0  -1   6  188.88    4.18
   0  -1   6  186.31    4.12
  -1   1  -6    3.51    0.53
  -1   1  -6    3.92    0.51
  -1   1  -6    3.51    0.42
  -1   1  -6    4.03    0.41
  -1   1  -6    4.69    0.50
  -1   1  -6    3.09    0.57
   1  -1   6    4.17    0.60
   1  -1   6    4.18    0.60
   1  -1   6    3.49    0.58
   1  -1   6    3.67    0.40
   1  -1   6    5.05    0.53
  -2   1  -6   -0.16    0.34
  -2   1  -6   -0.07    0.24
  -2   1  -6   -0.17    0.16
  -2   1  -6   -0.02    0.32
  -2   1  -6   -0.06    0.22
   2  -1   6    0.18    0.33
   2  -1   6    0.07    0.18
   2  -1   6    0.41    0.42
   2  -1   6    0.18    0.25
   2  -1   6   -0.09    0.28
  -3   1  -6   12.62    0.95
  -3   1  -6   13.21    0.83
  -3   1  -6   13.25    0.92
   3  -1   6   11.74    0.82
   3  -1   6   12.47    0.88
   3  -1   6   14.18    1.17
   3  -1   6   10.08    1.00
   3  -1   6    9.80    0.93
  -4   1  -6   17.80    1.23
  -4   1  -6   17.18    1.08
   4  -1   6   18.40    1.19
   4  -1   6   16.54    1.23
   4  -1   6   17.51    1.46
  -5   1  -6    4.68    0.76
  -5   1  -6    3.36    0.75
   5  -1   6    2.59    0.75
  -6   1  -6    2.56    0.61
   6  -1   6    1.49    0.76
  -7   1  -6   -0.12    0.47
   7  -1   6   -0.14    0.62
   8   0  -6    2.36    0.89
  -8   0   6    1.91    0.58
   7   0  -6    3.24    0.81
  -7   0   6    1.96    0.53
   6   0  -6    0.55    0.62
   6   0  -6   -0.12    0.62
  -6   0   6    0.46    0.35
  -6   0   6    0.56    0.79
  -6   0   6    0.54    0.60
   5   0  -6    8.37    0.93
   5   0  -6    8.56    1.18
  -5   0   6    9.35    1.12
  -5   0   6    8.54    1.14
   4   0  -6    1.12    0.29
   4   0  -6    1.80    0.63
   4   0  -6    1.53    0.51
  -4   0   6    1.58    0.61
  -4   0   6    1.27    0.35
  -4   0   6    2.69    0.57
  -4   0   6    2.43    0.45
  -4   0   6    1.90    0.36
   3   0  -6   28.47    1.50
   3   0  -6   31.29    1.10
   3   0  -6   31.48    1.41
   3   0  -6   30.18    1.01
   3   0  -6   30.24    1.21
   3   0  -6   31.56    1.11
  -3   0   6   30.74    1.06
  -3   0   6   27.61    1.48
  -3   0   6   31.83    1.17
  -3   0   6   30.64    1.40
  -3   0   6   31.71    1.12
   2   0  -6   52.49    1.47
   2   0  -6   53.79    1.49
   2   0  -6   52.62    1.83
   2   0  -6   52.68    1.53
   2   0  -6   49.12    1.86
  -2   0   6   52.87    1.66
  -2   0   6   52.25    1.51
  -2   0   6   54.13    1.83
  -2   0   6   54.70    1.96
  -2   0   6   49.36    1.42
  -2   0   6   53.12    1.51
   1   0  -6  313.71    6.63
   1   0  -6  327.99    6.95
   1   0  -6  326.84    6.49
   1   0  -6  318.54    7.13
   1   0  -6  322.59    7.11
   1   0  -6  318.96    6.56
  -1   0   6  307.27    6.89
  -1   0   6  325.86    6.67
  -1   0   6  316.20    6.49
  -1   0   6  321.70    6.54
  -1   0   6  319.95    7.05
  -1   0   6  318.09    7.16
   0   0  -6    3.61    0.40
   0   0  -6    2.79    0.30
   0   0  -6    2.45    0.46
   0   0  -6    3.27    0.50
   0   0  -6    2.74    0.34
   0   0  -6    3.25    0.43
   0   0   6    2.37    0.38
   0   0   6    2.97    0.50
   0   0   6    2.51    0.29
   0   0   6    2.40    0.29
   0   0   6    3.02    0.50
  -1   0  -6   34.11    1.40
  -1   0  -6   35.24    1.10
  -1   0  -6   33.04    1.25
  -1   0  -6   35.03    1.20
  -1   0  -6   33.48    1.10
   1   0   6   33.44    1.35
   1   0   6   31.02    1.32
   1   0   6   32.56    1.22
   1   0   6   33.62    1.10
   1   0   6   32.69    1.08
  -2   0  -6    0.50    0.23
  -2   0  -6    0.63    0.27
  -2   0  -6    0.56    0.35
  -2   0  -6    0.61    0.22
  -2   0  -6    0.04    0.30
  -2   0  -6   -0.06    0.27
   2   0   6    0.38    0.30
   2   0   6    0.12    0.31
   2   0   6    0.54    0.26
   2   0   6    0.34    0.21
   2   0   6    0.58    0.37
  -3   0  -6   48.37    1.69
  -3   0  -6   46.06    1.54
  -3   0  -6   48.02    1.70
   3   0   6   48.00    1.64
   3   0   6   42.62    1.69
   3   0   6   48.06    1.61
   3   0   6   46.67    1.77
   3   0   6   47.36    1.81
  -4   0  -6   11.09    1.01
  -4   0  -6   11.40    0.86
   4   0   6    9.90    0.90
   4   0   6    9.66    1.01
   4   0   6   12.36    1.10
   4   0   6    9.40    0.94
  -5   0  -6    5.91    0.86
  -5   0  -6    3.60    0.65
   5   0   6    5.17    0.88
   5   0   6    3.53    0.66
   5   0   6    4.39    0.71
  -6   0  -6    1.62    0.53
   6   0   6    1.18    0.67
  -7   0  -6    0.55    0.48
   7   0   6    2.12    0.81
  -8   0  -6    0.20    0.48
   8   0   6   -0.38    0.63
  -8   1   6    3.89    0.69
   7  -1  -6    3.67    1.16
  -7   1   6    8.31    1.29
  -7   1   6    5.66    0.75
   6  -1  -6   21.40    1.92
  -6   1   6   19.52    1.67
  -6   1   6   20.74    1.93
  -6   1   6   17.54    1.02
   5  -1  -6    6.37    1.02
   5  -1  -6    6.96    0.90
  -5   1   6    8.51    1.03
  -5   1   6    6.54    0.65
  -5   1   6    7.35    1.10
   4  -1  -6   22.83    0.97
   4  -1  -6   20.60    1.41
   4  -1  -6   20.55    1.16
  -4   1   6   22.40    1.24
  -4   1   6   22.83    1.06
  -4   1   6   21.51    0.95
  -4   1   6   20.59    0.93
  -4   1   6   20.38    1.38
   3  -1  -6   54.05    1.72
   3  -1  -6   56.05    2.11
   3  -1  -6   56.54    1.61
   3  -1  -6   55.31    1.61
  -3   1   6   57.67    2.10
  -3   1   6   58.16    1.71
  -3   1   6   55.40    1.89
  -3   1   6   59.29    1.59
   2  -1  -6  200.72    4.18
   2  -1  -6  194.62    4.20
   2  -1  -6  190.84    4.52
   2  -1  -6  194.50    4.18
   2  -1  -6  192.84    4.65
  -2   1   6  197.67    4.01
  -2   1   6  190.51    4.50
  -2   1   6  195.54    4.71
  -2   1   6  193.87    4.45
  -2   1   6  193.58    4.27
  -2   1   6  191.46    4.09
  -2   1   6  195.30    4.02
   1  -1  -6   41.10    1.16
   1  -1  -6   40.12    1.39
   1  -1  -6   40.91    1.13
   1  -1  -6   43.07    1.46
  -1   1   6   42.79    1.11
  -1   1   6   42.19    1.52
  -1   1   6   41.67    1.05
  -1   1   6   40.44    1.24
  -1   1   6   41.07    1.40
  -1   1   6   42.86    1.02
  -1   1   6   42.41    1.18
   0  -1  -6    6.91    0.39
   0  -1  -6    7.73    0.51
   0  -1  -6    6.85    0.57
   0  -1  -6    7.34    0.65
   0  -1  -6    6.88    0.42
   0   1   6    7.21    0.40
   0   1   6    7.25    0.63
   0   1   6    7.11    0.65
   0   1   6    7.58    0.38
   0   1   6    6.60    0.37
   0   1   6    7.32    0.33
  -1  -1  -6   51.14    1.44
  -1  -1  -6   52.21    1.39
  -1  -1  -6   51.99    1.66
  -1  -1  -6   49.80    1.50
   1   1   6   52.56    1.35
   1   1   6   53.45    1.26
   1   1   6   52.08    1.40
   1   1   6   49.54    1.61
   1   1   6   50.21    1.34
   1   1   6   49.46    1.62
  -2  -1  -6    1.70    0.36
  -2  -1  -6    1.57    0.34
  -2  -1  -6    1.58    0.38
  -2  -1  -6    2.53    0.37
  -2  -1  -6    1.60    0.29
  -2  -1  -6    1.73    0.38
   2   1   6    2.19    0.41
   2   1   6    1.67    0.38
   2   1   6    2.16    0.33
   2   1   6    2.06    0.39
   2   1   6    1.91    0.32
  -3  -1  -6    0.21    0.26
  -3  -1  -6    0.40    0.35
  -3  -1  -6    1.05    0.35
  -3  -1  -6    0.59    0.27
   3   1   6    0.75    0.38
   3   1   6    0.39    0.32
   3   1   6    1.25    0.38
   3   1   6    0.40    0.28
   3   1   6    1.02    0.28
  -4  -1  -6    2.05    0.46
  -4  -1  -6    2.23    0.50
   4   1   6    2.15    0.48
   4   1   6    2.29    0.54
   4   1   6    2.74    0.48
   4   1   6    3.04    0.61
  -5  -1  -6    1.74    0.52
  -5  -1  -6    2.43    0.60
   5   1   6    2.15    0.55
   5   1   6    1.72    0.53
   5   1   6    3.08    0.66
  -6  -1  -6    7.05    0.98
  -6  -1  -6    5.78    0.87
   6   1   6    5.37    0.85
   6   1   6    6.82    0.86
   6   1   6    8.15    1.05
   7   1   6    2.99    0.83
   8   1   6    1.13    0.76
  -8   2   6    3.00    0.66
   7  -2  -6    7.98    1.40
  -7   2   6   12.15    1.50
  -7   2   6   10.38    0.95
   6  -2  -6    6.62    1.22
  -6   2   6    6.07    1.04
  -6   2   6    6.61    1.22
  -6   2   6    6.33    0.71
   5  -2  -6   25.56    1.75
  -5   2   6   28.79    1.13
  -5   2   6   27.14    1.78
  -5   2   6   28.11    1.53
   4  -2  -6   10.19    1.13
  -4   2   6   11.66    1.04
  -4   2   6    9.90    0.75
  -4   2   6    9.82    0.61
  -4   2   6   13.28    1.27
   3  -2  -6   89.53    2.27
   3  -2  -6   93.28    2.31
   3  -2  -6   93.63    2.44
   3  -2  -6   88.84    2.79
  -3   2   6   89.97    2.52
  -3   2   6   91.51    2.06
  -3   2   6   90.60    2.23
  -3   2   6   89.09    2.06
  -3   2   6   89.41    2.39
  -3   2   6   91.89    2.76
   2  -2  -6   69.56    1.73
   2  -2  -6   66.17    2.12
   2  -2  -6   66.67    1.89
   2  -2  -6   68.04    1.71
  -2   2   6   71.91    1.68
  -2   2   6   69.51    1.42
  -2   2   6   70.26    1.93
  -2   2   6   68.85    2.11
  -2   2   6   68.29    1.85
  -2   2   6   69.45    1.43
  -2   2   6   68.44    1.79
   1  -2  -6    6.72    0.60
   1  -2  -6    7.12    0.47
   1  -2  -6    6.47    0.33
   1  -2  -6    7.03    0.37
  -1   2   6    7.09    0.36
  -1   2   6    6.71    0.38
  -1   2   6    6.29    0.32
  -1   2   6    6.74    0.38
  -1   2   6    6.83    0.61
   0  -2  -6   26.77    0.85
   0  -2  -6   24.99    0.74
   0  -2  -6   24.43    0.87
   0  -2  -6   25.05    0.86
   0  -2  -6   24.50    0.69
   0   2   6   24.46    0.92
   0   2   6   25.07    0.74
   0   2   6   25.34    0.69
   0   2   6   25.46    0.63
  -1  -2  -6   39.27    1.06
  -1  -2  -6   40.45    1.11
  -1  -2  -6   40.58    1.15
  -1  -2  -6   41.30    1.26
   1   2   6   41.91    0.98
   1   2   6   38.96    1.26
   1   2   6   39.96    1.09
   1   2   6   39.12    1.01
  -2  -2  -6   21.53    0.89
  -2  -2  -6   21.75    0.84
  -2  -2  -6   22.00    0.83
  -2  -2  -6   22.20    0.90
  -2  -2  -6   22.22    0.97
   2   2   6   22.38    0.96
   2   2   6   22.91    0.75
   2   2   6   22.21    0.54
   2   2   6   22.25    0.95
   2   2   6   22.83    0.53
   2   2   6   21.17    0.80
  -3  -2  -6    8.09    0.58
  -3  -2  -6    6.87    0.69
  -3  -2  -6    6.97    0.62
  -3  -2  -6    9.81    0.64
   3   2   6    7.81    0.70
   3   2   6    7.94    0.58
   3   2   6    8.60    0.52
   3   2   6    8.14    0.56
   3   2   6    8.11    0.58
   3   2   6    8.35    0.71
  -4  -2  -6   -0.08    0.23
  -4  -2  -6    0.40    0.30
  -4  -2  -6   -0.33    0.30
   4   2   6   -0.09    0.23
   4   2   6    0.39    0.37
   4   2   6    0.19    0.28
   4   2   6    0.03    0.28
   4   2   6    0.27    0.28
  -5  -2  -6    2.44    0.51
   5   2   6    3.79    0.65
   5   2   6    2.91    0.56
   5   2   6    2.98    0.61
  -6  -2  -6    5.00    0.76
   6   2   6    5.47    0.82
   6   2   6    4.44    0.79
   6   2   6    5.44    0.82
  -7  -2  -6    0.84    0.58
   7   2   6    0.72    0.52
   7   2   6    0.92    0.65
   8   2   6    0.37    0.78
   7  -3  -6    3.19    1.19
  -7   3   6    2.64    0.90
  -7   3   6    3.97    0.60
   6  -3  -6    0.24    0.73
  -6   3   6    0.06    0.52
  -6   3   6    0.52    0.35
   5  -3  -6    0.28    0.61
  -5   3   6    0.79    0.50
  -5   3   6    1.49    0.76
  -5   3   6    1.47    0.33
   4  -3  -6   16.92    1.29
  -4   3   6   17.72    1.09
  -4   3   6   15.23    1.23
  -4   3   6   18.45    0.69
   3  -3  -6   44.37    1.37
   3  -3  -6   45.32    1.33
   3  -3  -6   42.05    1.77
  -3   3   6   44.63    1.45
  -3   3   6   43.68    0.91
  -3   3   6   44.67    1.55
  -3   3   6   44.52    1.74
  -3   3   6   45.12    1.33
  -3   3   6   41.82    0.90
   2  -3  -6    0.67    0.16
   2  -3  -6    0.81    0.37
   2  -3  -6    0.39    0.18
  -2   3   6    0.65    0.21
  -2   3   6    0.52    0.20
  -2   3   6    0.35    0.18
  -2   3   6    0.38    0.29
   1  -3  -6    1.07    0.14
   1  -3  -6    0.76    0.30
   1  -3  -6    0.87    0.17
   1  -3  -6    0.99    0.16
  -1   3   6    0.90    0.27
  -1   3   6    0.87    0.16
  -1   3   6    0.83    0.22
  -1   3   6    0.77    0.17
   0  -3  -6   10.11    0.46
   0  -3  -6   10.71    0.43
   0  -3  -6   10.20    0.36
   0   3   6   10.73    0.33
   0   3   6   10.99    0.56
   0   3   6   10.55    0.42
   0   3   6   10.15    0.38
  -1  -3  -6    2.01    0.22
  -1  -3  -6    1.63    0.19
   1   3   6    1.66    0.19
   1   3   6    1.76    0.28
   1   3   6    1.45    0.25
   1   3   6    1.83    0.18
  -2  -3  -6    7.20    0.42
  -2  -3  -6    6.65    0.46
  -2  -3  -6    7.27    0.48
  -2  -3  -6    7.24    0.48
  -2  -3  -6    6.13    0.39
   2   3   6    8.12    0.42
   2   3   6    7.54    0.40
   2   3   6    7.81    0.52
   2   3   6    7.76    0.44
  -3  -3  -6    2.42    0.36
  -3  -3  -6    2.20    0.40
  -3  -3  -6    2.24    0.33
   3   3   6    2.29    0.38
   3   3   6    3.05    0.42
   3   3   6    2.56    0.36
   3   3   6    3.06    0.34
  -4  -3  -6   -0.12    0.23
  -4  -3  -6    0.20    0.25
   4   3   6    0.01    0.22
   4   3   6    0.03    0.23
   4   3   6    0.19    0.23
   4   3   6    0.05    0.24
   4   3   6    0.44    0.29
   4   3   6   -0.40    0.20
  -5  -3  -6    0.22    0.30
   5   3   6    0.07    0.31
   5   3   6   -0.04    0.37
   5   3   6   -0.06    0.31
  -6  -3  -6    2.37    0.55
   6   3   6    2.60    0.61
   6   3   6    1.32    0.48
   6   3   6    3.01    0.63
  -7  -3  -6   20.23    1.41
   7   3   6   22.03    1.42
   7   3   6   22.45    1.43
   8   3   6    2.00    0.77
   8   3   6    0.98    0.65
   7  -4  -6    0.50    1.00
  -7   4   6    1.01    0.72
  -7   4   6    1.86    0.43
   6  -4  -6    0.09    0.73
  -6   4   6    0.49    0.60
  -6   4   6   -0.03    0.27
   5  -4  -6    5.24    0.99
  -5   4   6    4.42    0.79
  -5   4   6    5.01    0.40
   4  -4  -6   15.48    1.40
  -4   4   6   16.12    1.02
  -4   4   6   11.51    1.13
   3  -4  -6    1.25    0.47
  -3   4   6    0.76    0.28
  -3   4   6    1.20    0.33
  -3   4   6    1.15    0.45
   2  -4  -6    2.93    0.28
   2  -4  -6    2.52    0.32
   2  -4  -6    2.40    0.45
  -2   4   6    1.99    0.30
  -2   4   6    2.47    0.43
  -2   4   6    2.55    0.33
  -2   4   6    2.46    0.24
   1  -4  -6   55.28    1.59
   1  -4  -6   55.13    1.33
  -1   4   6   55.08    1.33
  -1   4   6   54.21    1.28
  -1   4   6   54.08    1.52
  -1   4   6   56.18    1.39
   0  -4  -6    0.79    0.16
   0  -4  -6    0.81    0.11
   0  -4  -6    0.75    0.12
   0   4   6    0.72    0.11
   0   4   6    0.68    0.18
  -1  -4  -6   13.85    0.34
  -1  -4  -6   14.01    0.34
   1   4   6   13.83    0.49
  -2  -4  -6   48.86    1.19
  -2  -4  -6   50.82    1.29
   2   4   6   48.41    1.29
   2   4   6   51.20    1.33
   2   4   6   49.78    1.28
   2   4   6   49.48    1.20
  -3  -4  -6   23.34    1.00
  -3  -4  -6   22.99    0.83
  -3  -4  -6   23.67    0.89
   3   4   6   24.11    0.86
   3   4   6   25.71    0.95
  -4  -4  -6   12.79    0.80
  -4  -4  -6   12.42    0.69
   4   4   6   12.97    0.78
   4   4   6   12.17    0.78
   4   4   6   12.31    0.75
  -5  -4  -6   10.14    0.76
   5   4   6    9.61    0.85
   5   4   6   10.77    0.83
  -6  -4  -6   12.01    0.94
   6   4   6   12.21    0.81
   6   4   6   11.19    1.05
   6   4   6   13.34    0.99
  -7  -4  -6    5.56    0.86
   7   4   6    5.62    0.81
   7   4   6    5.14    0.73
  -8  -4  -6    0.76    0.61
   8   4   6    2.21    0.71
   8   4   6    2.04    0.70
  -7   5   6   -0.36    0.72
   6  -5  -6    1.19    0.88
  -6   5   6    0.01    0.58
   5  -5  -6    0.09    0.61
  -5   5   6   -0.22    0.44
   4  -5  -6    7.80    1.05
  -4   5   6    8.93    0.90
  -4   5   6    8.77    1.03
   3  -5  -6    0.11    0.40
  -3   5   6   -0.01    0.26
  -3   5   6    0.00    0.37
   2  -5  -6    0.20    0.20
   2  -5  -6   -0.16    0.25
   2  -5  -6    0.23    0.12
  -2   5   6    0.04    0.20
  -2   5   6    0.26    0.25
   1  -5  -6    0.93    0.20
   1  -5  -6    1.33    0.32
  -1   5   6    1.19    0.20
  -1   5   6    0.78    0.18
  -1   5   6    1.21    0.22
  -1   5   6    0.86    0.25
   0  -5  -6   24.93    0.69
   0  -5  -6   24.50    0.60
   0   5   6   23.30    0.62
   0   5   6   23.36    0.68
  -2  -5  -6   33.57    0.90
  -2  -5  -6   33.78    0.81
   2   5   6   33.18    0.86
   2   5   6   33.93    0.86
   2   5   6   34.80    0.90
  -3  -5  -6   15.40    0.60
  -3  -5  -6   15.99    0.80
  -3  -5  -6   14.68    0.43
   3   5   6   15.17    0.72
   3   5   6   15.49    0.67
   3   5   6   15.14    0.66
   3   5   6   15.97    0.68
  -4  -5  -6    9.00    0.57
  -4  -5  -6    8.81    0.66
   4   5   6    9.81    0.70
  -5  -5  -6   31.12    1.23
   5   5   6   30.47    1.28
   5   5   6   32.50    1.32
  -6  -5  -6   17.22    1.06
   6   5   6   19.32    1.13
   6   5   6   19.49    1.17
  -7  -5  -6    4.03    0.72
   7   5   6    4.25    0.75
  -8  -5  -6    1.33    0.64
   8   5   6    0.96    0.54
   8   5   6    1.38    0.45
   6  -6  -6   -0.16    0.83
  -6   6   6    0.03    0.64
   5  -6  -6   10.15    1.35
  -5   6   6    8.53    1.08
   4  -6  -6    0.28    0.57
  -4   6   6    0.13    0.39
   3  -6  -6    5.91    0.81
  -3   6   6    4.98    0.71
  -3   6   6    8.71    0.46
   2  -6  -6   -0.03    0.28
  -2   6   6    0.18    0.19
  -2   6   6    0.17    0.28
  -2   6   6    0.01    0.17
   1  -6  -6    5.34    0.54
   1  -6  -6    6.22    0.44
  -1   6   6    5.68    0.38
  -1   6   6    5.10    0.39
  -1   6   6    5.19    0.48
   0  -6  -6   53.49    1.26
   0  -6  -6   50.78    1.34
   0   6   6   53.67    1.13
   0   6   6   52.11    1.30
   0   6   6   53.55    1.28
   0   6   6   50.69    1.15
   1   6   6  143.47    2.97
   1   6   6  146.96    2.90
  -2  -6  -6   57.79    1.39
  -2  -6  -6   56.46    1.25
   2   6   6   56.29    1.43
   2   6   6   60.20    1.33
   2   6   6   57.97    1.29
   2   6   6   60.29    1.24
  -3  -6  -6   13.48    0.54
  -3  -6  -6   13.55    0.77
   3   6   6   15.99    0.62
   3   6   6   13.78    0.59
  -4  -6  -6   16.72    0.77
  -4  -6  -6   14.79    0.69
   4   6   6   15.93    0.74
   4   6   6   16.48    0.90
  -5  -6  -6   11.66    0.75
   5   6   6   12.53    0.80
   5   6   6   12.33    0.81
  -6  -6  -6    3.48    0.56
   6   6   6    4.54    0.65
  -7  -6  -6   -0.10    0.39
   7   6   6   -0.40    0.33
  -8  -6  -6    0.45    0.54
   8   6   6    0.37    0.48
   5  -7  -6    5.39    1.09
  -5   7   6    5.26    0.92
   4  -7  -6    6.45    1.01
  -4   7   6    5.51    0.82
   3  -7  -6    3.65    0.73
  -3   7   6    2.90    0.55
   2  -7  -6    6.82    0.75
  -2   7   6    5.77    0.67
  -2   7   6    6.40    0.59
   1  -7  -6   91.38    2.42
  -1   7   6   81.32    2.30
  -1   7   6   87.67    2.30
  -1   7   6   89.91    2.08
   0  -7  -6   43.45    1.28
   0  -7  -6   45.80    1.24
   0   7   6   45.41    1.31
   0   7   6   44.98    1.19
   0   7   6   44.55    1.21
   0   7   6   42.95    1.08
  -1  -7  -6   33.62    0.95
  -1  -7  -6   31.22    0.86
   1   7   6   34.89    0.86
   1   7   6   32.69    1.01
   1   7   6   33.39    0.76
   1   7   6   33.43    0.82
  -2  -7  -6    0.87    0.23
  -2  -7  -6    0.52    0.13
   2   7   6    0.81    0.28
   2   7   6    0.50    0.14
   2   7   6    0.62    0.21
   2   7   6    0.56    0.13
  -3  -7  -6    7.59    0.67
  -3  -7  -6    8.01    0.42
   3   7   6    8.07    0.44
   3   7   6    9.10    0.64
   3   7   6    8.24    0.46
   3   7   6    8.51    0.59
  -4  -7  -6    7.86    0.51
   4   7   6    9.19    0.57
   4   7   6    8.88    0.58
  -5  -7  -6    5.45    0.56
   5   7   6    5.55    0.59
   5   7   6    5.63    0.58
  -6  -7  -6    0.62    0.35
   6   7   6    0.83    0.38
  -7  -7  -6    0.16    0.40
   7   7   6    0.01    0.38
  -8  -7  -6    4.69    0.83
   8   7   6    3.41    0.76
  -5   8   6    5.89    1.03
   4  -8  -6    9.84    1.23
  -4   8   6    7.19    0.93
   3  -8  -6    0.22    0.49
  -3   8   6    0.14    0.36
   2  -8  -6   12.76    0.98
  -2   8   6   11.97    0.78
   1  -8  -6   18.35    0.97
  -1   8   6   18.83    1.07
  -1   8   6   17.27    0.77
   0  -8  -6   68.08    1.85
   0   8   6   67.95    1.78
   0   8   6   65.53    1.62
   0   8   6   70.86    2.01
  -1  -8  -6   -0.31    0.14
  -1  -8  -6    0.10    0.20
   1   8   6   -0.08    0.16
   1   8   6   -0.04    0.30
   1   8   6   -0.16    0.22
   1   8   6    0.13    0.13
  -2  -8  -6    2.65    0.38
  -2  -8  -6    2.57    0.26
   2   8   6    2.29    0.24
   2   8   6    3.04    0.28
   2   8   6    2.62    0.44
   2   8   6    3.12    0.40
  -3  -8  -6    2.25    0.28
  -3  -8  -6    3.18    0.58
   3   8   6    1.84    0.46
   3   8   6    2.67    0.31
   3   8   6    2.49    0.30
  -4  -8  -6    2.61    0.35
   4   8   6    2.10    0.34
   4   8   6    2.04    0.34
  -5  -8  -6    1.26    0.32
   5   8   6    1.17    0.34
  -6  -8  -6    1.63    0.44
   6   8   6    2.01    0.47
  -7  -8  -6    1.47    0.49
   7   8   6    1.80    0.54
   8   8   6    5.69    0.87
  -4   9   6    0.07    0.54
   3  -9  -6    6.00    0.95
  -3   9   6    5.72    0.79
  -3   9   6    6.94    0.84
   2  -9  -6   14.86    1.12
  -2   9   6   16.88    0.98
   1  -9  -6   13.26    0.89
  -1   9   6   12.69    0.74
   0  -9  -6    0.02    0.25
   0   9   6    0.32    0.22
  -1  -9  -6    2.09    0.33
   1   9   6    2.74    0.31
   1   9   6    3.23    0.38
  -2  -9  -6    0.06    0.17
   2   9   6    0.40    0.18
   2   9   6    0.21    0.20
  -3  -9  -6    0.73    0.22
   3   9   6    0.52    0.24
   3   9   6    1.19    0.26
  -4  -9  -6    6.45    0.51
   4   9   6    6.34    0.55
  -5  -9  -6    4.64    0.53
   5   9   6    4.55    0.54
  -6  -9  -6    6.29    0.68
   6   9   6    4.24    0.58
  -7  -9  -6    1.35    0.50
   7   9   6    2.49    0.59
   8   9   6    9.85    1.07
  -3  10   6    0.56    0.55
  -3  10   6    1.22    0.55
  -2  10   6   10.15    0.94
   1 -10  -6    0.41    0.36
  -1  10   6    0.30    0.31
   0 -10  -6    5.84    0.64
   0  10   6    4.95    0.52
  -1 -10  -6    0.10    0.23
   1  10   6    0.19    0.22
  -2 -10  -6    1.08    0.28
   2  10   6    1.18    0.28
  -3 -10  -6   16.85    0.76
   3  10   6   15.41    0.72
  -4 -10  -6   -0.18    0.18
   4  10   6    0.11    0.23
  -5 -10  -6    3.32    0.47
   5  10   6    4.06    0.52
  -6 -10  -6    6.80    0.72
   6  10   6    8.03    0.79
   7  10   6   20.09    1.23
  -2  11   6    0.54    0.50
  -1  11   6    0.51    0.40
   0 -11  -6    1.81    0.46
   0  11   6    1.58    0.42
  -1 -11  -6    1.35    0.37
   1  11   6    1.14    0.34
  -2 -11  -6    4.98    0.55
   2  11   6    7.01    0.58
  -3 -11  -6   13.52    0.75
   3  11   6   13.46    0.73
  -4 -11  -6    1.13    0.34
   4  11   6    1.34    0.35
  -5 -11  -6    6.48    0.63
   5  11   6    5.93    0.63
   6  11   6   19.03    1.10
   7  11   6    8.83    0.93
   0  12   6    2.72    0.55
   1  12   6    6.78    0.67
   2  12   6   28.29    1.16
   3  12   6    2.14    0.42
   4  12   6    1.63    0.41
   5  12   6    4.55    0.62
   6  12   6   13.66    1.01
   5   9  -7   -0.15    0.61
   4   9  -7    2.19    0.74
   3   9  -7    0.98    0.62
   2   9  -7    1.24    0.63
   1   9  -7   -0.62    0.52
   6   8  -7    0.36    0.67
   5   8  -7    1.19    0.69
   4   8  -7   12.88    1.22
   3   8  -7    2.86    0.72
   2   8  -7    3.25    0.73
   1   8  -7    2.34    0.68
   0   8  -7    2.26    0.67
  -1   8  -7    0.27    0.55
   7   7  -7    6.38    1.03
   6   7  -7   -0.11    0.49
   5   7  -7    4.81    0.84
   4   7  -7    5.44    0.83
   3   7  -7   21.93    1.36
   3   7  -7   23.93    1.38
  -3  -7   7   22.59    1.38
   2   7  -7    6.29    0.83
   2   7  -7    5.97    0.83
  -2  -7   7    7.68    0.90
   1   7  -7    0.54    0.45
  -1  -7   7    1.19    0.56
   0   7  -7    1.64    0.55
  -1   7  -7    0.57    0.49
  -2   7  -7   10.38    1.06
   7   6  -7    0.04    0.58
  -7  -6   7    1.44    0.75
   6   6  -7    0.14    0.48
  -6  -6   7   -0.50    0.49
   5   6  -7    1.24    0.56
  -5  -6   7    1.78    0.73
   4   6  -7    6.52    0.90
  -4  -6   7    6.64    1.11
  -4  -6   7    5.29    0.76
   3   6  -7   10.78    1.03
   3   6  -7   10.99    0.97
  -3  -6   7   11.85    1.06
  -3  -6   7   11.88    1.41
   2   6  -7   20.71    1.24
   2   6  -7   23.88    1.17
  -2  -6   7   20.23    1.73
  -2  -6   7   23.87    1.33
   1   6  -7   53.86    1.99
   1   6  -7   56.15    1.93
  -1  -6   7   56.01    2.10
  -1  -6   7   53.28    2.58
   0   6  -7    2.43    0.71
   0   6  -7    1.12    0.48
   0  -6   7    2.47    0.93
   0  -6   7    0.46    0.48
  -1   6  -7    9.19    0.97
   1  -6   7    8.77    1.27
  -2   6  -7   16.03    1.14
   2  -6   7   14.97    1.69
  -3   6  -7    2.16    0.61
   3  -6   7    2.44    1.07
   8   5  -7   17.06    1.65
  -8  -5   7   18.69    1.72
   7   5  -7   -0.45    0.52
  -7  -5   7    0.70    0.58
   6   5  -7    0.91    0.59
  -6  -5   7    0.42    0.51
   5   5  -7    2.55    0.64
  -5  -5   7    2.93    0.76
   4   5  -7   53.43    2.10
  -4  -5   7   57.96    2.42
  -4  -5   7   59.07    2.07
   3   5  -7   22.40    1.25
   3   5  -7   22.13    1.07
   3   5  -7   20.84    1.23
  -3  -5   7   21.28    1.16
  -3  -5   7   22.26    1.56
   2   5  -7   91.18    2.73
   2   5  -7   94.57    2.58
   2   5  -7   93.44    2.78
  -2  -5   7   86.92    3.11
  -2  -5   7   94.60    2.75
   1   5  -7    0.44    0.30
   1   5  -7    0.49    0.40
   1   5  -7    0.61    0.44
  -1  -5   7    0.52    0.42
  -1  -5   7    0.34    0.67
   0   5  -7    3.30    0.71
   0   5  -7    2.08    0.43
   0   5  -7    1.78    0.55
   0   5  -7    1.74    0.50
   0  -5   7    2.93    0.57
   0  -5   7    2.84    0.89
  -1   5  -7   22.20    1.41
  -1   5  -7   19.74    1.16
   1  -5   7   17.54    1.66
   1  -5   7   22.44    1.33
  -2   5  -7    8.01    0.88
  -2   5  -7    7.01    0.96
   2  -5   7    7.22    1.19
  -3   5  -7    7.35    0.89
   3  -5   7    5.15    1.07
  -4   5  -7    0.18    0.46
   4  -5   7   -1.09    0.74
   8   4  -7    1.65    0.76
  -8  -4   7    2.78    0.77
   7   4  -7    1.56    0.71
  -7  -4   7    1.62    0.65
   6   4  -7    5.63    0.90
  -6  -4   7    3.83    0.75
   5   4  -7   15.99    1.33
  -5  -4   7   12.89    1.24
   4   4  -7   37.14    1.69
  -4  -4   7   39.23    1.88
  -4  -4   7   38.87    1.54
   3   4  -7  140.22    3.77
   3   4  -7  152.38    4.56
   3   4  -7  150.42    3.58
   3   4  -7  153.49    4.78
   3   4  -7  147.86    3.78
  -3  -4   7  146.23    4.92
  -3  -4   7  137.64    4.04
  -3  -4   7  144.76    3.70
   2   4  -7    0.98    0.40
   2   4  -7    0.50    0.24
   2   4  -7   -0.03    0.57
   2   4  -7    0.95    0.43
   2   4  -7    0.77    0.66
  -2  -4   7    0.84    0.56
  -2  -4   7    0.83    0.61
  -2  -4   7    0.44    0.33
   1   4  -7    0.72    0.26
   1   4  -7    0.17    0.59
   1   4  -7    1.48    0.72
   1   4  -7    0.37    0.38
   1   4  -7    0.57    0.35
  -1  -4   7    0.25    0.57
  -1  -4   7    0.42    0.57
  -1  -4   7    0.85    0.39
   0   4  -7   45.37    1.68
   0   4  -7   42.01    1.85
   0   4  -7   48.14    2.35
   0   4  -7   40.72    2.07
   0   4  -7   43.92    1.52
   0   4  -7   48.61    1.77
   0  -4   7   44.45    2.07
   0  -4   7   43.68    1.69
  -1   4  -7    6.25    0.69
  -1   4  -7    4.37    0.75
  -1   4  -7    4.92    0.69
  -1   4  -7    3.86    0.64
   1  -4   7    4.82    0.70
   1  -4   7    4.26    0.89
  -2   4  -7    0.96    0.43
  -2   4  -7    1.31    0.55
   2  -4   7    0.78    0.74
  -3   4  -7    9.86    0.98
  -3   4  -7    7.89    1.06
   3  -4   7    8.22    1.19
  -4   4  -7    0.39    0.45
   4  -4   7    1.11    0.68
  -5   4  -7   -0.04    0.42
   5  -4   7   -1.00    0.55
   8   3  -7    6.70    1.16
  -8  -3   7    6.27    0.96
   7   3  -7    6.51    1.06
  -7  -3   7    6.14    0.90
   6   3  -7    4.36    0.82
  -6  -3   7    2.15    0.61
   5   3  -7   40.10    2.28
   5   3  -7   38.51    1.79
  -5  -3   7   37.08    1.75
   4   3  -7   43.08    1.78
   4   3  -7   42.81    2.25
   4   3  -7   44.08    1.66
  -4  -3   7   47.03    1.89
  -4  -3   7   44.80    1.86
  -4  -3   7   44.14    2.33
  -4  -3   7   42.83    1.62
  -4  -3   7   46.58    2.19
   3   3  -7   12.49    0.95
   3   3  -7   14.00    0.77
   3   3  -7   14.51    0.88
   3   3  -7   15.04    1.49
   3   3  -7   11.32    1.21
  -3  -3   7   11.86    1.07
  -3  -3   7   15.20    1.45
  -3  -3   7   14.95    0.87
  -3  -3   7   10.86    0.80
  -3  -3   7   15.19    1.13
  -3  -3   7   15.65    1.44
   2   3  -7    0.57    0.34
   2   3  -7    2.03    0.70
   2   3  -7    1.49    0.32
   2   3  -7    1.73    0.68
   2   3  -7    1.88    0.42
  -2  -3   7    1.79    0.67
  -2  -3   7    1.52    0.39
  -2  -3   7    1.71    0.60
  -2  -3   7    1.01    0.34
  -2  -3   7    1.07    0.49
  -2  -3   7    0.93    0.50
   1   3  -7   11.47    0.89
   1   3  -7   12.45    0.68
   1   3  -7    9.73    1.12
   1   3  -7   11.05    1.12
   1   3  -7   11.03    0.78
   1   3  -7   11.95    0.83
  -1  -3   7   13.33    1.30
  -1  -3   7   12.42    0.79
  -1  -3   7   11.83    0.97
  -1  -3   7   12.96    0.81
  -1  -3   7   11.18    1.13
  -1  -3   7    9.33    0.98
   0   3  -7    3.82    0.61
   0   3  -7    3.99    0.77
   0   3  -7    3.43    0.50
   0   3  -7    3.54    0.43
   0   3  -7    4.22    0.58
   0   3  -7    4.78    0.82
   0  -3   7    4.06    0.53
   0  -3   7    3.88    0.55
   0  -3   7    3.68    0.73
   0  -3   7    3.18    0.68
   0  -3   7    4.24    0.71
  -1   3  -7   17.61    1.04
  -1   3  -7   20.07    1.37
  -1   3  -7   17.55    1.14
  -1   3  -7   19.70    0.93
  -1   3  -7   16.60    1.02
   1  -3   7   19.37    1.02
   1  -3   7   18.62    1.37
   1  -3   7   21.44    1.11
   1  -3   7   18.44    1.34
   1  -3   7   18.48    1.27
  -2   3  -7    5.98    0.86
  -2   3  -7    4.85    0.66
  -2   3  -7    5.82    0.94
   2  -3   7    4.63    0.88
   2  -3   7    3.58    0.88
   2  -3   7    5.35    0.72
  -3   3  -7    0.14    0.40
  -3   3  -7   -0.20    0.32
   3  -3   7   -0.84    0.48
  -4   3  -7    1.30    0.46
   4  -3   7    0.89    0.68
  -5   3  -7    5.80    0.81
   5  -3   7    4.69    1.06
  -6   3  -7    3.24    0.74
   6  -3   7    2.75    0.96
   8   2  -7    0.42    0.65
  -8  -2   7   -0.05    0.48
   7   2  -7    0.15    0.56
  -7  -2   7   -0.25    0.36
   6   2  -7    4.32    0.86
  -6  -2   7    4.65    0.72
   5   2  -7   44.27    2.36
   5   2  -7   43.65    1.89
  -5  -2   7   43.76    2.45
  -5  -2   7   50.06    2.31
  -5  -2   7   43.36    1.79
   4   2  -7   21.94    1.10
   4   2  -7   23.96    1.28
   4   2  -7   21.88    1.64
  -4  -2   7   22.03    1.24
  -4  -2   7   25.47    1.58
  -4  -2   7   23.48    1.70
  -4  -2   7   25.43    1.21
  -4  -2   7   24.25    1.11
   3   2  -7    0.57    0.32
   3   2  -7   -0.15    0.30
   3   2  -7    0.03    0.47
   3   2  -7   -0.04    0.15
  -3  -2   7   -0.18    0.32
  -3  -2   7   -0.01    0.39
  -3  -2   7    0.07    0.23
  -3  -2   7   -0.31    0.22
  -3  -2   7    0.03    0.50
  -3  -2   7    0.08    0.40
   2   2  -7    0.61    0.46
   2   2  -7    0.80    0.53
   2   2  -7    0.87    0.35
   2   2  -7    0.50    0.26
   2   2  -7    1.12    0.25
  -2  -2   7    1.37    0.46
  -2  -2   7    0.61    0.51
  -2  -2   7    1.11    0.29
  -2  -2   7    0.67    0.28
  -2  -2   7    1.00    0.44
  -2  -2   7    2.08    0.61
   1   2  -7    4.12    0.75
   1   2  -7    2.74    0.45
   1   2  -7    4.06    0.47
   1   2  -7    3.63    0.38
   1   2  -7    3.40    0.74
   1   2  -7    2.75    0.49
  -1  -2   7    4.49    0.51
  -1  -2   7    3.56    0.69
  -1  -2   7    4.16    0.60
  -1  -2   7    3.85    0.74
  -1  -2   7    4.26    0.50
  -1  -2   7    3.96    0.62
   0   2  -7   41.31    1.91
   0   2  -7   40.41    1.78
   0   2  -7   44.44    1.48
   0   2  -7   41.15    1.62
   0   2  -7   39.93    1.42
   0   2  -7   41.07    1.29
   0  -2   7   39.20    1.69
   0  -2   7   40.55    1.78
   0  -2   7   43.39    1.46
   0  -2   7   41.08    1.84
   0  -2   7   41.42    1.42
  -1   2  -7    3.03    0.49
  -1   2  -7    3.53    0.68
  -1   2  -7    3.48    0.49
  -1   2  -7    4.02    0.46
  -1   2  -7    2.47    0.50
  -1   2  -7    3.75    0.76
   1  -2   7    3.08    0.64
   1  -2   7    2.57    0.64
   1  -2   7    2.77    0.42
   1  -2   7    2.69    0.64
   1  -2   7    3.93    0.56
  -2   2  -7    2.89    0.52
  -2   2  -7    4.14    0.67
  -2   2  -7    2.14    0.62
  -2   2  -7    3.10    0.52
   2  -2   7    3.29    0.57
   2  -2   7    2.86    0.63
   2  -2   7    2.92    0.62
   2  -2   7    2.53    0.45
   2  -2   7    2.54    0.68
  -3   2  -7   -0.26    0.43
  -3   2  -7    0.29    0.40
   3  -2   7   -0.08    0.58
   3  -2   7    0.65    0.58
   3  -2   7    0.32    0.42
  -4   2  -7   19.76    1.18
   4  -2   7   17.59    1.60
  -5   2  -7   27.77    1.48
   5  -2   7   28.85    1.88
  -6   2  -7    3.43    0.73
   6  -2   7    3.64    0.96
   8   1  -7    0.54    0.76
  -8  -1   7    0.04    0.44
   7   1  -7   -0.33    0.52
  -7  -1   7    0.24    0.42
   6   1  -7   18.55    1.53
   6   1  -7   21.14    2.01
  -6  -1   7   15.67    1.05
  -6  -1   7   21.39    1.65
   5   1  -7    9.90    1.33
   5   1  -7   10.53    1.06
  -5  -1   7    7.32    1.10
  -5  -1   7    7.67    0.79
  -5  -1   7    9.32    1.17
   4   1  -7    0.01    0.38
   4   1  -7    0.28    0.26
   4   1  -7    0.23    0.51
  -4  -1   7   -0.02    0.51
  -4  -1   7   -0.19    0.39
  -4  -1   7    0.15    0.28
  -4  -1   7    0.09    0.33
  -4  -1   7   -0.14    0.24
   3   1  -7   39.32    1.25
   3   1  -7   36.38    1.42
   3   1  -7   40.66    1.37
   3   1  -7   36.33    1.81
  -3  -1   7   38.54    1.45
  -3  -1   7   37.78    1.38
  -3  -1   7   39.57    1.33
  -3  -1   7   37.84    1.75
  -3  -1   7   37.26    1.56
  -3  -1   7   37.74    1.90
   2   1  -7   34.38    1.08
   2   1  -7   33.99    1.61
   2   1  -7   33.85    1.17
   2   1  -7   32.90    1.23
   2   1  -7   31.07    1.55
  -2  -1   7   32.68    1.30
  -2  -1   7   31.85    1.18
  -2  -1   7   33.04    1.36
  -2  -1   7   35.83    1.70
  -2  -1   7   31.90    1.14
  -2  -1   7   30.89    1.53
   1   1  -7   17.23    0.70
   1   1  -7   16.24    1.10
   1   1  -7   16.85    1.13
   1   1  -7   16.51    0.77
   1   1  -7   18.22    0.84
   1   1  -7   17.33    0.83
   1   1  -7   15.48    0.91
  -1  -1   7   16.85    1.17
  -1  -1   7   16.93    0.77
  -1  -1   7   17.00    0.95
  -1  -1   7   17.56    0.94
  -1  -1   7   17.22    1.13
  -1  -1   7   15.86    0.78
   0   1  -7   36.50    1.42
   0   1  -7   37.17    1.26
   0   1  -7   36.51    1.56
   0   1  -7   36.70    1.66
   0   1  -7   36.43    1.14
   0   1  -7   39.08    1.36
   0   1  -7   38.58    1.28
   0  -1   7   36.10    1.24
   0  -1   7   36.68    1.24
   0  -1   7   36.88    1.45
   0  -1   7   37.86    1.62
   0  -1   7   38.70    1.69
  -1   1  -7   11.65    1.00
  -1   1  -7   11.90    0.73
  -1   1  -7   11.76    0.73
  -1   1  -7   12.03    0.62
  -1   1  -7   10.03    0.76
  -1   1  -7   12.57    1.14
   1  -1   7   11.40    0.68
   1  -1   7   10.48    0.69
   1  -1   7   12.40    1.08
   1  -1   7   10.82    0.93
   1  -1   7   12.72    0.99
  -2   1  -7   13.11    0.96
  -2   1  -7   11.76    0.81
  -2   1  -7   11.95    0.78
   2  -1   7   11.20    1.01
   2  -1   7   12.52    0.78
   2  -1   7   11.83    1.03
   2  -1   7   12.03    1.07
  -3   1  -7   54.82    1.86
  -3   1  -7   56.06    2.12
   3  -1   7   55.49    2.19
   3  -1   7   58.80    2.23
   3  -1   7   56.11    1.93
   3  -1   7   56.63    2.13
  -4   1  -7   37.50    1.85
  -4   1  -7   42.66    1.69
   4  -1   7   41.99    1.89
   4  -1   7   42.83    1.96
   4  -1   7   40.27    1.94
  -5   1  -7   11.69    1.02
   5  -1   7    9.17    1.20
  -6   1  -7    1.12    0.53
   6  -1   7    0.71    0.68
  -7   1  -7   -0.17    0.48
   7  -1   7    0.01    0.71
  -8   0   7    1.25    0.54
  -7   0   7    0.30    0.39
   6   0  -7   13.02    1.35
   6   0  -7    9.70    1.44
  -6   0   7   10.25    1.34
  -6   0   7    9.80    1.42
  -6   0   7    9.41    0.92
   5   0  -7    0.65    0.66
   5   0  -7    0.86    0.55
  -5   0   7    1.49    0.62
  -5   0   7    0.82    0.72
   4   0  -7    0.65    0.44
   4   0  -7    0.42    0.54
  -4   0   7    0.27    0.27
  -4   0   7    0.19    0.29
  -4   0   7    0.24    0.27
  -4   0   7    0.24    0.48
  -4   0   7    0.47    0.45
   3   0  -7   24.91    1.01
   3   0  -7   26.96    1.18
   3   0  -7   25.67    1.48
   3   0  -7   28.35    1.09
  -3   0   7   27.19    1.53
  -3   0   7   24.82    1.36
  -3   0   7   28.07    1.26
  -3   0   7   28.29    1.08
  -3   0   7   28.06    1.04
  -3   0   7   26.54    1.09
   2   0  -7    4.84    0.50
   2   0  -7    4.97    0.44
   2   0  -7    7.01    0.58
   2   0  -7    5.14    0.72
   2   0  -7    4.31    0.63
  -2   0   7    5.10    0.46
  -2   0   7    4.26    0.42
  -2   0   7    5.83    0.61
  -2   0   7    4.72    0.51
  -2   0   7    5.72    0.79
  -2   0   7    5.79    0.73
   1   0  -7   48.78    1.83
   1   0  -7   51.86    1.49
   1   0  -7   52.99    1.71
   1   0  -7   51.03    1.45
   1   0  -7   50.40    1.81
   1   0  -7   51.67    1.51
  -1   0   7   54.63    1.65
  -1   0   7   51.13    1.52
  -1   0   7   49.68    1.91
  -1   0   7   47.76    1.80
  -1   0   7   50.62    1.47
  -1   0   7   51.40    1.43
   0   0  -7   90.65    2.20
   0   0  -7   88.14    2.66
   0   0  -7   89.77    2.49
   0   0  -7   87.82    2.22
   0   0  -7   88.46    2.52
   0   0  -7   90.91    2.29
   0   0   7   87.64    2.67
   0   0   7   89.15    2.17
   0   0   7   89.45    2.30
   0   0   7   88.75    2.23
   0   0   7   86.99    2.60
  -1   0  -7    5.91    0.53
  -1   0  -7    7.07    0.73
  -1   0  -7    7.56    0.52
  -1   0  -7    7.02    0.63
  -1   0  -7    7.98    0.86
  -1   0  -7    6.88    0.68
   1   0   7    8.03    0.84
   1   0   7    8.05    0.80
   1   0   7    7.46    0.53
   1   0   7    6.83    0.51
   1   0   7    7.67    0.71
  -2   0  -7   31.05    1.35
  -2   0  -7   34.49    1.41
  -2   0  -7   32.82    1.24
  -2   0  -7   33.42    1.21
  -2   0  -7   34.76    1.40
   2   0   7   34.50    1.24
   2   0   7   31.09    1.42
   2   0   7   32.35    1.21
   2   0   7   32.59    1.37
   2   0   7   35.06    1.50
  -3   0  -7   66.09    2.11
  -3   0  -7   64.30    2.07
  -3   0  -7   63.61    2.16
  -3   0  -7   62.99    1.95
   3   0   7   63.40    2.20
   3   0   7   67.70    2.31
   3   0   7   64.50    2.03
   3   0   7   63.40    2.18
   3   0   7   68.32    2.05
  -4   0  -7   56.06    1.93
  -4   0  -7   54.88    2.11
   4   0   7   57.75    2.21
   4   0   7   57.81    2.16
   4   0   7   53.60    2.13
  -5   0  -7    5.09    0.78
  -5   0  -7    4.05    0.81
   5   0   7    4.51    0.84
   5   0   7    5.06    0.89
   5   0   7    4.89    0.80
  -6   0  -7    2.86    0.65
   6   0   7    2.85    0.78
  -7   0  -7    0.49    0.53
   7   0   7    0.92    0.69
  -8   1   7   -0.95    0.40
   7  -1  -7   22.83    2.22
  -7   1   7   18.41    1.13
  -7   1   7   17.84    1.79
   6  -1  -7   10.14    1.49
  -6   1   7   12.77    0.89
  -6   1   7   12.44    1.63
  -6   1   7   12.08    1.43
   5  -1  -7    0.93    0.65
  -5   1   7    2.49    0.65
  -5   1   7    2.01    0.79
  -5   1   7    2.44    0.45
   4  -1  -7    2.07    0.72
   4  -1  -7    1.97    0.55
  -4   1   7    0.98    0.60
  -4   1   7    2.55    0.52
  -4   1   7    1.95    0.56
  -4   1   7    2.32    0.41
   3  -1  -7   21.36    1.03
   3  -1  -7   21.53    0.87
   3  -1  -7   19.16    1.30
   3  -1  -7   20.69    0.90
  -3   1   7   20.54    0.84
  -3   1   7   21.06    0.94
  -3   1   7   21.84    1.34
  -3   1   7   18.72    1.00
  -3   1   7   20.91    1.17
   2  -1  -7   96.17    2.32
   2  -1  -7   94.56    2.29
   2  -1  -7   95.69    2.35
   2  -1  -7   88.71    2.75
   2  -1  -7   91.59    2.76
  -2   1   7   95.18    2.37
  -2   1   7   91.14    2.63
  -2   1   7   93.52    2.83
  -2   1   7   95.47    2.12
  -2   1   7   95.39    2.17
  -2   1   7   96.25    2.24
  -2   1   7   95.59    2.52
   1  -1  -7  161.51    3.96
   1  -1  -7  163.96    3.60
   1  -1  -7  163.63    3.96
   1  -1  -7  164.34    3.60
   1  -1  -7  162.56    3.99
  -1   1   7  162.57    3.64
  -1   1   7  161.09    4.10
  -1   1   7  159.01    3.92
  -1   1   7  166.58    3.84
  -1   1   7  171.91    3.36
  -1   1   7  164.22    3.50
  -1   1   7  165.37    3.41
   0  -1  -7    0.07    0.22
   0  -1  -7    0.12    0.17
   0  -1  -7    0.18    0.16
   0  -1  -7    0.53    0.28
   0  -1  -7    0.06    0.26
   0   1   7   -0.08    0.14
   0   1   7    0.17    0.30
   0   1   7   -0.07    0.13
   0   1   7    0.10    0.18
   0   1   7   -0.24    0.28
   0   1   7    0.27    0.16
  -1  -1  -7  111.22    2.78
  -1  -1  -7  113.45    2.63
  -1  -1  -7  108.05    2.96
  -1  -1  -7  107.53    2.61
  -1  -1  -7  115.09    2.70
   1   1   7  105.30    2.89
   1   1   7  108.54    2.62
   1   1   7  112.80    2.42
   1   1   7  110.26    2.52
   1   1   7  110.61    2.96
   1   1   7  109.72    2.53
  -2  -1  -7  108.87    2.56
  -2  -1  -7  104.44    2.75
  -2  -1  -7  103.91    2.74
  -2  -1  -7  105.09    2.65
  -2  -1  -7  105.54    2.76
   2   1   7  104.56    2.88
   2   1   7  105.14    2.87
   2   1   7  104.12    2.60
   2   1   7  105.83    2.54
   2   1   7  100.47    2.61
  -3  -1  -7   56.80    1.73
  -3  -1  -7   53.80    1.83
  -3  -1  -7   53.82    1.79
   3   1   7   55.95    1.72
   3   1   7   57.75    1.77
   3   1   7   52.83    1.88
   3   1   7   55.56    1.95
   3   1   7   52.11    1.79
  -4  -1  -7    3.58    0.63
  -4  -1  -7    2.85    0.55
   4   1   7    2.27    0.53
   4   1   7    2.91    0.63
   4   1   7    3.21    0.60
  -5  -1  -7   -0.10    0.42
   5   1   7   -0.40    0.31
   5   1   7   -0.23    0.44
   5   1   7   -0.14    0.40
  -6  -1  -7    0.78    0.58
   6   1   7    0.56    0.52
   6   1   7    0.50    0.57
   6   1   7    0.12    0.53
   7   1   7    0.49    0.62
   8   1   7    2.59    0.87
  -8   2   7    7.85    0.88
   7  -2  -7    1.84    1.06
  -7   2   7    3.80    0.65
  -7   2   7    2.13    0.91
   6  -2  -7    1.28    0.82
  -6   2   7    0.70    0.67
  -6   2   7    0.82    0.41
  -6   2   7    0.92    0.84
   5  -2  -7   41.73    2.22
  -5   2   7   44.46    2.27
  -5   2   7   40.91    1.38
  -5   2   7   42.96    1.96
   4  -2  -7   11.85    1.24
  -4   2   7   10.03    1.06
  -4   2   7   14.49    1.19
  -4   2   7   11.43    0.63
   3  -2  -7   75.10    2.01
   3  -2  -7   72.64    2.53
   3  -2  -7   73.76    1.97
  -3   2   7   71.55    2.27
  -3   2   7   78.50    1.73
  -3   2   7   73.03    2.09
  -3   2   7   72.28    1.72
  -3   2   7   76.78    2.53
  -3   2   7   77.01    1.94
   2  -2  -7   84.78    2.06
   2  -2  -7   84.87    2.02
   2  -2  -7   86.02    2.52
  -2   2   7   86.43    1.97
  -2   2   7   80.26    2.30
  -2   2   7   83.15    2.11
  -2   2   7   85.84    2.53
  -2   2   7   79.43    1.61
  -2   2   7   79.42    2.16
   1  -2  -7    3.60    0.35
   1  -2  -7    3.09    0.49
   1  -2  -7    3.18    0.29
   1  -2  -7    3.03    0.38
  -1   2   7    2.79    0.30
  -1   2   7    2.86    0.50
  -1   2   7    3.04    0.27
   0  -2  -7   15.07    0.68
   0  -2  -7   15.23    0.73
   0  -2  -7   12.25    0.68
   0  -2  -7   15.25    0.60
   0  -2  -7   14.60    0.54
   0   2   7   15.62    0.49
   0   2   7   14.71    0.57
   0   2   7   15.15    0.84
   0   2   7   15.25    0.54
  -1  -2  -7   26.82    0.97
  -1  -2  -7   25.05    1.03
  -1  -2  -7   26.75    0.84
  -1  -2  -7   25.82    0.89
   1   2   7   27.41    1.10
   1   2   7   25.43    0.85
   1   2   7   26.39    0.76
  -2  -2  -7  103.83    2.53
  -2  -2  -7  103.64    2.61
  -2  -2  -7  103.97    2.61
  -2  -2  -7  104.34    2.58
   2   2   7  104.94    2.38
   2   2   7  101.22    2.51
   2   2   7  101.21    2.70
   2   2   7  102.72    2.72
   2   2   7  106.02    2.05
   2   2   7  101.38    2.05
  -3  -2  -7    4.45    0.54
  -3  -2  -7    5.96    0.58
  -3  -2  -7    4.34    0.51
  -3  -2  -7    4.78    0.64
   3   2   7    5.75    0.65
   3   2   7    5.33    0.50
   3   2   7    4.28    0.57
   3   2   7    2.73    0.40
   3   2   7    5.21    0.49
   3   2   7    5.40    0.45
  -4  -2  -7    0.38    0.32
   4   2   7    0.03    0.32
   4   2   7   -0.47    0.29
   4   2   7    0.56    0.40
  -5  -2  -7    2.22    0.56
   5   2   7    1.70    0.53
   5   2   7    0.96    0.47
   5   2   7    0.76    0.50
  -6  -2  -7    0.96    0.53
   6   2   7    1.21    0.57
   6   2   7    0.60    0.47
   6   2   7   -0.13    0.51
  -7  -2  -7    4.84    0.93
   7   2   7    3.29    0.82
   7   2   7    3.86    0.80
   8   2   7    0.21    0.74
   7  -3  -7   10.83    1.70
  -7   3   7    8.52    1.32
  -7   3   7   11.22    0.86
   6  -3  -7    8.67    1.38
  -6   3   7    5.15    0.96
  -6   3   7    5.65    0.58
   5  -3  -7    2.20    0.77
  -5   3   7    2.31    0.77
  -5   3   7    1.32    0.31
  -5   3   7    1.82    0.61
   4  -3  -7   29.69    1.71
  -4   3   7   31.12    1.46
  -4   3   7   31.87    0.87
  -4   3   7   28.48    1.65
  -4   3   7   29.15    0.85
   3  -3  -7   56.21    2.14
   3  -3  -7   56.13    1.57
  -3   3   7   55.90    1.71
  -3   3   7   56.63    2.07
  -3   3   7   53.78    1.82
   2  -3  -7    1.81    0.28
   2  -3  -7    1.60    0.22
   2  -3  -7    3.12    0.57
  -2   3   7    1.66    0.28
  -2   3   7    1.84    0.27
  -2   3   7    1.43    0.42
  -2   3   7    1.41    0.27
   1  -3  -7   13.64    0.54
   1  -3  -7   13.58    0.54
   1  -3  -7   12.91    0.45
   1  -3  -7   15.18    0.79
  -1   3   7   13.50    0.51
  -1   3   7   12.55    0.73
  -1   3   7   12.63    0.54
  -1   3   7   13.61    0.65
   0  -3  -7   36.68    1.12
   0  -3  -7   40.21    1.12
   0  -3  -7   37.50    0.86
   0  -3  -7   39.63    0.92
   0  -3  -7   37.98    0.99
   0   3   7   38.64    0.92
   0   3   7   34.82    0.98
   0   3   7   39.62    1.27
   0   3   7   38.84    1.13
  -1  -3  -7   25.71    0.78
  -1  -3  -7   26.71    0.78
  -1  -3  -7   26.23    0.83
  -1  -3  -7   24.04    0.68
   1   3   7   24.45    0.93
   1   3   7   25.53    0.96
   1   3   7   24.60    0.70
   1   3   7   26.40    0.78
  -2  -3  -7    0.31    0.22
  -2  -3  -7    0.23    0.17
  -2  -3  -7    0.29    0.22
  -2  -3  -7    0.32    0.17
   2   3   7    0.24    0.15
   2   3   7    0.14    0.16
   2   3   7    0.04    0.16
  -3  -3  -7    1.25    0.38
  -3  -3  -7    0.89    0.28
  -3  -3  -7    1.51    0.31
   3   3   7    0.84    0.25
   3   3   7    1.66    0.27
   3   3   7    0.89    0.32
   3   3   7    1.01    0.33
  -4  -3  -7    5.41    0.60
   4   3   7    4.50    0.54
   4   3   7    5.81    0.42
   4   3   7    4.26    0.58
   4   3   7    4.34    0.61
   4   3   7    5.86    0.40
  -5  -3  -7    3.87    0.58
   5   3   7    2.80    0.50
   5   3   7    2.68    0.57
   5   3   7    1.94    0.48
  -6  -3  -7    1.78    0.53
   6   3   7    2.50    0.60
   6   3   7    2.47    0.58
   6   3   7    1.97    0.56
  -7  -3  -7    6.65    0.98
   7   3   7    5.30    0.86
   7   3   7    4.85    0.85
   8   3   7   -0.98    0.64
   8   3   7    0.75    0.62
   7  -4  -7    5.85    1.39
  -7   4   7    4.43    1.03
  -7   4   7    4.67    0.46
   6  -4  -7    3.15    1.03
  -6   4   7    5.16    1.04
  -6   4   7    4.99    0.40
   5  -4  -7    9.44    1.27
  -5   4   7   12.60    1.28
   4  -4  -7   32.36    1.76
  -4   4   7   30.63    1.70
  -4   4   7   29.78    1.47
   3  -4  -7    1.44    0.50
  -3   4   7    2.29    0.55
  -3   4   7    2.46    0.47
   2  -4  -7    0.87    0.17
   2  -4  -7    1.07    0.24
   2  -4  -7    0.94    0.38
  -2   4   7    0.83    0.12
  -2   4   7    0.50    0.20
  -2   4   7   -0.14    0.22
  -2   4   7    1.15    0.27
   1  -4  -7   10.56    0.46
   1  -4  -7    9.45    0.63
  -1   4   7    9.91    0.47
  -1   4   7   10.26    0.51
  -1   4   7   10.11    0.64
  -1   4   7   10.14    0.42
   0  -4  -7    6.82    0.29
   0  -4  -7    6.32    0.38
   0  -4  -7    6.86    0.35
   0   4   7    6.96    0.48
   0   4   7    6.36    0.30
   0   4   7    6.24    0.31
  -1  -4  -7   12.20    0.41
  -1  -4  -7   11.25    0.42
   1   4   7   12.78    0.48
   1   4   7   12.42    0.56
   1   4   7    9.48    0.39
  -2  -4  -7    4.47    0.39
  -2  -4  -7    4.83    0.40
  -2  -4  -7    3.98    0.31
   2   4   7    4.15    0.34
   2   4   7    4.60    0.31
   2   4   7    4.56    0.42
   2   4   7    4.89    0.45
   2   4   7    4.04    0.29
  -3  -4  -7    5.02    0.54
  -3  -4  -7    5.51    0.47
  -3  -4  -7    4.84    0.45
   3   4   7    4.08    0.43
   3   4   7    5.16    0.44
   3   4   7    5.34    0.46
  -4  -4  -7    0.96    0.31
   4   4   7    1.40    0.34
   4   4   7    1.72    0.40
   4   4   7    0.70    0.31
  -5  -4  -7   21.92    1.12
   5   4   7   24.83    1.24
   5   4   7   22.82    1.18
  -6  -4  -7    7.48    0.86
   6   4   7    6.83    0.83
   6   4   7    7.15    0.86
   6   4   7    8.09    0.59
  -7  -4  -7    2.02    0.65
   7   4   7    2.23    0.55
   7   4   7    1.99    0.58
  -8  -4  -7    0.77    0.66
   8   4   7    0.56    0.58
   8   4   7    1.06    0.65
  -7   5   7   -0.22    0.79
   6  -5  -7    0.78    0.87
  -6   5   7    0.97    0.74
   5  -5  -7    1.86    0.77
  -5   5   7    0.35    0.53
   4  -5  -7    2.66    0.72
  -4   5   7    2.21    0.56
   3  -5  -7    2.01    0.59
  -3   5   7    0.96    0.36
  -3   5   7    0.63    0.45
  -3   5   7    1.26    0.27
   2  -5  -7    0.12    0.10
   2  -5  -7   -0.02    0.18
   2  -5  -7    0.23    0.28
  -2   5   7   -0.07    0.12
  -2   5   7    0.03    0.20
  -2   5   7   -0.07    0.21
   1  -5  -7    7.48    0.58
   1  -5  -7    6.83    0.40
  -1   5   7    6.45    0.36
  -1   5   7    6.28    0.54
  -1   5   7    6.50    0.39
   0  -5  -7   11.27    0.46
   0  -5  -7   11.29    0.37
   0   5   7   11.09    0.39
   0   5   7   12.02    0.31
   0   5   7   11.32    0.50
   0   5   7   11.32    0.29
   1   5   7   10.84    0.41
   1   5   7   10.26    0.31
  -2  -5  -7    3.41    0.30
  -2  -5  -7    2.94    0.23
   2   5   7    2.53    0.25
   2   5   7    2.66    0.29
   2   5   7    2.67    0.28
   2   5   7    3.04    0.26
  -3  -5  -7    0.18    0.15
  -3  -5  -7    0.49    0.28
   3   5   7    0.05    0.21
   3   5   7    0.04    0.17
   3   5   7   -0.08    0.20
   3   5   7    0.22    0.19
  -4  -5  -7    9.43    0.66
  -4  -5  -7    9.94    0.60
   4   5   7    9.44    0.72
   4   5   7   10.48    0.69
  -5  -5  -7   15.64    0.89
   5   5   7   15.99    0.95
   5   5   7   13.42    0.90
  -6  -5  -7   26.34    1.32
   6   5   7   27.75    1.37
  -7  -5  -7    6.89    0.88
   7   5   7    5.85    0.84
  -8  -5  -7    0.54    0.58
   8   5   7    2.02    0.71
  -6   6   7    0.61    0.74
   5  -6  -7    4.02    1.01
  -5   6   7    3.47    0.77
   4  -6  -7    1.20    0.63
  -4   6   7    1.01    0.48
   3  -6  -7   -0.16    0.39
  -3   6   7   -0.19    0.26
  -3   6   7    0.29    0.43
   2  -6  -7    0.12    0.33
  -2   6   7    0.49    0.32
  -2   6   7    0.16    0.18
   1  -6  -7    7.26    0.65
   1  -6  -7    7.88    0.46
  -1   6   7    6.65    0.42
  -1   6   7    6.65    0.48
  -1   6   7    7.55    0.57
   0  -6  -7   16.98    0.52
   0  -6  -7   17.08    0.63
   0   6   7   17.87    0.61
   0   6   7   17.52    0.56
   0   6   7   17.48    0.44
   0   6   7   16.68    0.44
  -2  -6  -7   24.21    0.67
  -2  -6  -7   23.49    0.60
   2   6   7   23.58    0.61
   2   6   7   24.57    0.67
   2   6   7   24.56    0.71
   2   6   7   24.23    0.62
  -3  -6  -7    4.72    0.34
  -3  -6  -7    5.11    0.51
   3   6   7    4.80    0.46
   3   6   7    4.87    0.42
   3   6   7    5.19    0.40
  -4  -6  -7   35.43    1.15
   4   6   7   35.53    1.21
   4   6   7   34.78    1.32
   4   6   7   33.36    1.19
  -5  -6  -7   33.42    1.28
   5   6   7   31.35    1.30
   5   6   7   34.47    1.34
  -6  -6  -7   11.56    0.88
   6   6   7   11.88    1.01
  -7  -6  -7    0.02    0.40
   7   6   7   -0.02    0.38
  -8  -6  -7    1.44    0.65
   8   6   7    0.70    0.52
   5  -7  -7    2.27    0.91
  -5   7   7    1.60    0.69
   4  -7  -7    1.44    0.69
  -4   7   7    0.23    0.44
   3  -7  -7    0.67    0.49
  -3   7   7    0.47    0.34
   2  -7  -7    6.86    0.77
  -2   7   7    6.43    0.69
  -2   7   7    5.82    0.56
   1  -7  -7   61.46    1.88
  -1   7   7   64.39    1.82
  -1   7   7   64.79    1.61
  -1   7   7   62.57    1.78
   0  -7  -7   24.30    0.73
   0  -7  -7   22.77    0.82
   0   7   7   23.79    0.64
   0   7   7   22.67    0.68
   0   7   7   23.67    0.80
   0   7   7   23.48    0.79
  -1  -7  -7   16.38    0.46
  -1  -7  -7   17.27    0.50
   1   7   7   16.43    0.55
   1   7   7   17.36    0.46
  -2  -7  -7    0.08    0.09
  -2  -7  -7   -0.06    0.15
   2   7   7   -0.10    0.17
   2   7   7    0.07    0.10
   2   7   7    0.14    0.10
   2   7   7    0.13    0.13
  -3  -7  -7   28.47    1.09
  -3  -7  -7   26.52    0.80
   3   7   7   25.87    0.96
   3   7   7   26.36    0.83
   3   7   7   25.76    0.83
   3   7   7   25.90    0.93
  -4  -7  -7   36.81    1.15
   4   7   7   36.53    1.20
   4   7   7   36.44    1.22
  -5  -7  -7   12.00    0.73
   5   7   7   12.47    0.76
  -6  -7  -7    3.43    0.55
   6   7   7    3.50    0.58
  -7  -7  -7    1.06    0.49
   7   7   7    1.07    0.47
   8   7   7   -0.19    0.46
  -5   8   7    0.38    0.60
   4  -8  -7    1.40    0.75
  -4   8   7    2.03    0.62
   3  -8  -7    6.18    0.90
  -3   8   7    4.44    0.64
   2  -8  -7   30.35    1.41
  -2   8   7   27.07    1.13
  -2   8   7   25.59    1.11
   1  -8  -7    6.62    0.68
  -1   8   7    6.80    0.54
   0  -8  -7   62.29    1.69
   0   8   7   62.52    1.48
   0   8   7   60.00    1.73
   0   8   7   63.77    1.66
  -1  -8  -7    1.30    0.24
  -1  -8  -7    1.52    0.22
   1   8   7    1.85    0.34
   1   8   7    1.62    0.17
   1   8   7    1.32    0.20
   1   8   7    1.48    0.24
  -2  -8  -7    5.03    0.44
  -2  -8  -7    4.27    0.27
   2   8   7    5.16    0.41
   2   8   7    4.53    0.29
   2   8   7    4.87    0.45
   2   8   7    4.65    0.27
  -3  -8  -7   27.65    1.10
  -3  -8  -7   27.14    0.83
   3   8   7   26.32    1.03
   3   8   7   27.31    0.85
   3   8   7   26.97    0.83
   3   8   7   29.49    1.06
  -4  -8  -7   12.96    0.64
   4   8   7   13.88    0.69
   4   8   7   14.03    0.70
  -5  -8  -7    4.92    0.53
   5   8   7    4.57    0.53
  -6  -8  -7    7.99    0.78
   6   8   7    9.01    0.83
  -7  -8  -7    1.26    0.49
   7   8   7    1.56    0.54
   8   8   7    0.43    0.49
  -4   9   7    3.30    0.76
   3  -9  -7   12.19    1.24
  -3   9   7   11.35    1.02
   2  -9  -7   29.67    1.45
  -2   9   7   25.73    1.19
  -2   9   7   27.47    1.23
   1  -9  -7   34.73    1.39
  -1   9   7   32.82    1.17
   0  -9  -7    1.12    0.31
   0   9   7    1.04    0.25
  -1  -9  -7    0.23    0.19
   1   9   7    0.23    0.16
   1   9   7    0.28    0.20
  -2  -9  -7    7.01    0.40
   2   9   7    7.36    0.39
   2   9   7    7.92    0.43
   2   9   7    8.02    0.66
  -3  -9  -7    2.52    0.30
   3   9   7    2.42    0.30
   3   9   7    2.58    0.33
  -4  -9  -7    0.96    0.26
   4   9   7    1.66    0.32
  -5  -9  -7    0.34    0.24
   5   9   7    0.52    0.31
  -6  -9  -7    0.41    0.32
   6   9   7    0.93    0.39
  -7  -9  -7    0.22    0.46
   7   9   7   -0.12    0.39
   8   9   7    0.87    0.53
  -3  10   7    3.13    0.70
  -2  10   7   15.37    1.05
   1 -10  -7    1.78    0.46
   1 -10  -7    2.22    0.52
  -1  10   7    2.75    0.47
   0 -10  -7    1.43    0.36
   0  10   7    1.56    0.34
  -1 -10  -7    0.66    0.25
   1  10   7    0.35    0.21
  -2 -10  -7    1.31    0.27
   2  10   7    1.25    0.26
  -3 -10  -7    8.84    0.52
   3  10   7    8.62    0.52
  -4 -10  -7    0.05    0.20
   4  10   7    0.43    0.26
  -5 -10  -7    7.25    0.65
   5  10   7    7.13    0.67
  -6 -10  -7    0.73    0.35
   6  10   7    1.14    0.42
   7  10   7    2.47    0.60
  -2  11   7    0.12    0.47
  -2  11   7   -0.02    0.40
  -1  11   7    2.88    0.55
   0 -11  -7    2.87    0.52
   0  11   7    3.19    0.48
  -1 -11  -7    0.11    0.26
   1  11   7    0.18    0.27
  -2 -11  -7    4.98    0.50
   2  11   7    4.48    0.45
  -3 -11  -7    2.07    0.35
   3  11   7    2.09    0.36
  -4 -11  -7    0.25    0.25
   4  11   7   -0.03    0.27
  -5 -11  -7    0.20    0.28
   5  11   7    0.42    0.34
   6  11   7    8.41    0.81
   7  11   7   11.27    1.02
   0  12   7    2.86    0.53
   1  12   7    2.49    0.43
   2  12   7   13.46    0.77
   3  12   7    0.46    0.31
   4  12   7   -0.28    0.28
   5  12   7    6.80    0.70
   5   8  -8    0.10    0.58
   4   8  -8   -0.47    0.47
   3   8  -8    0.51    0.59
   2   8  -8    6.66    0.94
   1   8  -8    0.54    0.56
   0   8  -8    0.65    0.61
   6   7  -8    2.32    0.79
   5   7  -8    0.94    0.57
  -5  -7   8   -0.33    0.65
   4   7  -8    0.20    0.47
  -4  -7   8    0.74    0.70
   3   7  -8    3.35    0.69
  -3  -7   8    1.35    0.80
   2   7  -8    5.49    0.83
  -2  -7   8    5.23    1.08
   1   7  -8   -0.38    0.37
  -1  -7   8   -0.72    0.69
   0   7  -8    0.10    0.46
  -1   7  -8   -0.94    0.34
  -2   7  -8    1.72    0.58
   7   6  -8   -0.43    0.52
  -7  -6   8    0.17    0.59
   6   6  -8    3.04    0.80
  -6  -6   8    1.56    0.68
   5   6  -8    3.15    0.73
  -5  -6   8    4.44    1.01
   4   6  -8    0.48    0.53
  -4  -6   8    2.61    0.73
   3   6  -8   10.55    1.05
  -3  -6   8   13.00    1.41
   2   6  -8    0.90    0.48
  -2  -6   8    0.74    0.67
   1   6  -8    4.93    0.75
  -1  -6   8    5.10    1.06
   0   6  -8    0.86    0.48
   0  -6   8    0.36    0.64
  -1   6  -8   10.72    1.07
   1  -6   8   13.03    1.64
  -2   6  -8   18.29    1.27
   2  -6   8   17.51    1.88
  -3   6  -8    6.67    0.92
   3  -6   8    7.65    1.42
   7   5  -8    0.05    0.58
  -7  -5   8    0.11    0.57
   6   5  -8    1.31    0.63
  -6  -5   8    0.49    0.56
   5   5  -8    0.46    0.53
  -5  -5   8    1.06    0.59
   4   5  -8   29.16    1.56
  -4  -5   8   28.85    1.73
   3   5  -8    8.10    0.92
  -3  -5   8    7.73    1.15
   2   5  -8    2.99    0.61
  -2  -5   8    2.08    0.78
  -2  -5   8    1.31    0.45
   1   5  -8   12.86    1.09
  -1  -5   8   13.57    1.19
  -1  -5   8   12.29    1.45
   0   5  -8    7.66    0.99
   0   5  -8    6.99    0.84
   0  -5   8    6.47    1.06
  -1   5  -8   23.19    1.30
  -1   5  -8   20.08    1.44
   1  -5   8   24.37    1.75
  -2   5  -8    4.29    0.73
   2  -5   8    5.20    1.06
  -3   5  -8    4.41    0.76
   3  -5   8    7.97    1.33
  -4   5  -8    0.60    0.53
   4  -5   8    0.13    0.76
   8   4  -8    2.83    0.90
  -8  -4   8    4.10    0.90
   7   4  -8    1.72    0.70
  -7  -4   8    2.90    0.77
   6   4  -8    0.61    0.57
  -6  -4   8    1.63    0.60
   5   4  -8   14.40    1.28
  -5  -4   8   13.16    1.26
   4   4  -8   13.53    1.19
  -4  -4   8   12.46    1.24
   3   4  -8   42.62    1.78
  -3  -4   8   39.57    1.59
  -3  -4   8   40.80    1.95
   2   4  -8   28.05    1.82
   2   4  -8   28.11    1.40
  -2  -4   8   27.74    1.67
  -2  -4   8   27.86    1.31
   1   4  -8   -0.05    0.55
   1   4  -8    0.21    0.42
  -1  -4   8   -0.24    0.31
  -1  -4   8    0.02    0.57
   0   4  -8   13.24    1.09
   0   4  -8   12.55    1.03
   0  -4   8   12.54    1.32
   0  -4   8   13.50    0.98
  -1   4  -8   33.24    1.49
  -1   4  -8   33.47    1.71
   1  -4   8   29.88    1.82
  -2   4  -8   10.80    1.00
  -2   4  -8   11.47    1.24
   2  -4   8   13.41    1.46
  -3   4  -8    6.11    0.82
   3  -4   8    6.50    1.11
  -4   4  -8    0.46    0.45
   4  -4   8    0.10    0.69
  -5   4  -8    0.35    0.49
   5  -4   8    0.72    0.81
   8   3  -8   -0.07    0.65
  -8  -3   8   -0.32    0.40
   7   3  -8    4.16    0.92
  -7  -3   8    3.76    0.80
   6   3  -8   31.82    1.77
  -6  -3   8   33.77    1.73
   5   3  -8   37.10    1.77
  -5  -3   8   34.85    1.72
   4   3  -8   33.98    2.08
   4   3  -8   32.24    1.59
  -4  -3   8   31.61    2.10
  -4  -3   8   33.49    1.97
  -4  -3   8   33.00    1.64
   3   3  -8    4.02    0.93
   3   3  -8    3.42    0.66
  -3  -3   8    2.66    0.67
  -3  -3   8    3.59    0.55
  -3  -3   8    2.38    0.44
  -3  -3   8    3.51    0.80
  -3  -3   8    4.09    0.99
   2   3  -8    1.58    0.69
   2   3  -8    1.37    0.47
   2   3  -8    1.64    0.43
  -2  -3   8    1.67    0.61
  -2  -3   8    1.44    0.39
  -2  -3   8    1.88    0.66
  -2  -3   8    2.03    0.43
  -2  -3   8    1.34    0.65
   1   3  -8    4.14    0.61
   1   3  -8    5.86    0.96
   1   3  -8    5.31    0.63
   1   3  -8    5.68    0.78
  -1  -3   8    4.70    0.59
  -1  -3   8    4.79    0.84
  -1  -3   8    5.21    0.92
  -1  -3   8    5.04    0.81
  -1  -3   8    4.45    0.57
   0   3  -8   37.11    1.53
   0   3  -8   38.72    1.73
   0   3  -8   38.18    1.94
   0   3  -8   35.51    1.48
   0  -3   8   39.67    1.90
   0  -3   8   39.62    1.53
   0  -3   8   39.06    1.54
   0  -3   8   40.20    1.93
   0  -3   8   43.28    2.06
  -1   3  -8    0.26    0.40
  -1   3  -8   -0.33    0.29
  -1   3  -8    0.60    0.56
   1  -3   8    0.42    0.48
   1  -3   8    0.34    0.58
   1  -3   8    0.64    0.62
   1  -3   8    0.32    0.36
  -2   3  -8    2.03    0.54
  -2   3  -8    3.56    0.75
  -2   3  -8    4.19    0.91
   2  -3   8    2.60    0.78
  -3   3  -8    0.61    0.39
   3  -3   8    1.43    0.69
  -4   3  -8    0.14    0.41
   4  -3   8   -0.33    0.55
  -5   3  -8    0.93    0.53
   5  -3   8    0.25    0.72
   8   2  -8    1.99    0.84
   7   2  -8   15.24    1.52
  -7  -2   8   17.86    1.25
   6   2  -8    3.69    0.76
  -6  -2   8    2.40    0.59
   5   2  -8   24.82    1.51
   5   2  -8   27.21    1.97
  -5  -2   8   25.54    1.77
  -5  -2   8   24.06    1.34
  -5  -2   8   23.97    2.06
   4   2  -8   25.91    1.80
   4   2  -8   24.75    1.37
  -4  -2   8   23.81    1.32
  -4  -2   8   25.41    1.84
  -4  -2   8   24.50    1.64
   3   2  -8    1.99    0.53
   3   2  -8    2.18    0.74
   3   2  -8    2.18    0.45
  -3  -2   8    2.37    0.69
  -3  -2   8    1.60    0.70
  -3  -2   8    2.44    0.46
  -3  -2   8    1.25    0.34
  -3  -2   8    1.79    0.54
   2   2  -8    0.16    0.32
   2   2  -8    0.19    0.28
   2   2  -8    0.04    0.47
  -2  -2   8    0.30    0.25
  -2  -2   8    0.19    0.43
  -2  -2   8    0.22    0.48
  -2  -2   8    0.04    0.23
  -2  -2   8    0.41    0.45
  -2  -2   8    0.22    0.38
   1   2  -8   16.47    1.24
   1   2  -8   15.85    0.89
   1   2  -8   14.38    0.90
   1   2  -8   16.03    1.03
  -1  -2   8   14.13    0.82
  -1  -2   8   15.00    0.86
  -1  -2   8   16.77    1.09
  -1  -2   8   14.50    1.07
  -1  -2   8   13.78    1.30
  -1  -2   8   12.54    1.25
   0   2  -8    1.82    0.46
   0   2  -8    1.23    0.58
   0   2  -8    1.87    0.46
   0   2  -8    1.83    0.40
   0  -2   8    2.43    0.43
   0  -2   8    1.99    0.58
   0  -2   8    3.12    0.68
   0  -2   8    2.11    0.64
   0  -2   8    1.72    0.40
  -1   2  -8    4.40    0.61
  -1   2  -8    3.23    0.57
  -1   2  -8    4.30    0.59
  -1   2  -8    5.16    0.85
   1  -2   8    5.07    0.84
   1  -2   8    4.98    0.80
   1  -2   8    4.83    0.58
   1  -2   8    5.90    0.90
   1  -2   8    3.86    0.57
  -2   2  -8    0.30    0.39
  -2   2  -8    0.10    0.37
  -2   2  -8   -0.09    0.48
   2  -2   8    0.14    0.53
   2  -2   8    0.10    0.38
   2  -2   8    0.25    0.48
  -3   2  -8    6.31    0.94
  -3   2  -8    5.65    0.74
   3  -2   8    7.09    1.00
   3  -2   8    5.22    0.90
  -4   2  -8    1.27    0.48
   4  -2   8    1.30    0.68
  -5   2  -8    6.04    0.84
   5  -2   8    4.87    1.04
  -6   2  -8    0.68    0.50
   6  -2   8   -0.61    0.63
   8   1  -8    5.50    1.10
  -8  -1   8    6.08    0.88
   7   1  -8    2.68    0.82
  -7  -1   8    3.94    0.71
   6   1  -8   28.10    1.76
   6   1  -8   34.58    2.32
  -6  -1   8   27.73    1.39
  -6  -1   8   31.02    2.03
   5   1  -8   28.22    1.99
   5   1  -8   27.31    1.58
  -5  -1   8   29.36    2.09
  -5  -1   8   28.60    1.34
  -5  -1   8   27.21    1.78
   4   1  -8   17.02    1.59
   4   1  -8   15.77    1.12
  -4  -1   8   15.66    1.01
  -4  -1   8   16.92    1.50
  -4  -1   8   17.63    1.65
   3   1  -8   19.03    1.07
   3   1  -8   21.35    1.48
   3   1  -8   20.61    0.99
  -3  -1   8   21.47    0.97
  -3  -1   8   22.44    1.23
  -3  -1   8   20.66    1.03
  -3  -1   8   21.75    1.11
  -3  -1   8   20.49    1.39
  -3  -1   8   22.30    1.55
   2   1  -8    1.28    0.56
   2   1  -8    0.61    0.35
   2   1  -8    0.24    0.22
  -2  -1   8    0.60    0.25
  -2  -1   8    1.23    0.31
  -2  -1   8    1.02    0.57
  -2  -1   8    1.18    0.44
  -2  -1   8    0.71    0.38
  -2  -1   8    0.93    0.52
   1   1  -8    7.66    0.81
   1   1  -8    8.14    0.70
   1   1  -8    7.43    0.56
   1   1  -8    6.42    0.85
  -1  -1   8    7.86    0.77
  -1  -1   8    7.69    0.78
  -1  -1   8    7.23    0.56
  -1  -1   8    6.43    0.59
  -1  -1   8    7.09    0.87
  -1  -1   8    7.16    0.91
   0   1  -8    0.39    0.22
   0   1  -8    0.63    0.32
   0   1  -8    0.53    0.41
   0   1  -8    0.42    0.30
   0  -1   8    0.78    0.51
   0  -1   8    0.31    0.23
   0  -1   8    0.97    0.48
   0  -1   8    0.98    0.31
   0  -1   8    0.56    0.39
  -1   1  -8    3.80    0.65
  -1   1  -8    5.77    0.63
  -1   1  -8    6.69    0.67
  -1   1  -8    4.52    0.60
   1  -1   8    4.15    0.72
   1  -1   8    4.85    0.55
   1  -1   8    4.26    0.52
   1  -1   8    4.56    0.72
   1  -1   8    5.24    0.79
  -2   1  -8   23.60    1.26
  -2   1  -8   22.51    1.10
  -2   1  -8   22.86    1.33
   2  -1   8   22.75    1.16
   2  -1   8   22.33    1.39
   2  -1   8   21.73    1.33
   2  -1   8   20.33    1.05
   2  -1   8   23.03    1.35
  -3   1  -8    7.79    0.80
  -3   1  -8    8.74    1.04
   3  -1   8    8.48    1.01
   3  -1   8    8.14    0.98
   3  -1   8   10.12    1.08
  -4   1  -8   22.14    1.31
  -4   1  -8   22.13    1.49
   4  -1   8   22.62    1.54
   4  -1   8   24.91    1.51
   4  -1   8   25.08    1.63
  -5   1  -8    4.21    0.74
   5  -1   8    4.99    0.95
  -6   1  -8   -0.12    0.45
   6  -1   8    0.68    0.71
  -8   0   8    0.20    0.47
  -7   0   8    4.63    0.72
   6   0  -8   10.55    1.48
  -6   0   8   10.80    1.39
  -6   0   8    8.56    1.49
  -6   0   8    9.02    0.89
   5   0  -8   18.81    1.77
   5   0  -8   19.32    1.36
  -5   0   8   18.82    1.48
  -5   0   8   17.15    1.69
   4   0  -8    7.57    1.17
   4   0  -8    7.39    0.84
  -4   0   8    7.35    1.01
  -4   0   8    7.98    1.13
  -4   0   8    7.20    0.70
   3   0  -8    6.88    0.55
   3   0  -8    8.41    0.82
   3   0  -8    6.11    0.90
  -3   0   8    6.53    0.58
  -3   0   8    8.55    0.86
  -3   0   8    7.94    1.06
  -3   0   8    6.61    0.86
  -3   0   8    9.01    0.77
  -3   0   8    7.26    0.64
   2   0  -8    7.22    0.93
   2   0  -8    9.21    0.63
   2   0  -8    7.53    0.64
   2   0  -8    7.63    0.53
  -2   0   8    8.25    0.89
  -2   0   8    7.60    0.72
  -2   0   8    7.60    0.54
  -2   0   8    7.96    0.58
  -2   0   8    9.23    1.03
  -2   0   8    8.91    0.64
   1   0  -8   18.72    1.16
   1   0  -8   19.76    1.04
   1   0  -8   19.18    0.82
   1   0  -8   19.91    0.90
   1   0  -8   20.07    0.90
  -1   0   8   21.34    1.00
  -1   0   8   19.85    0.91
  -1   0   8   20.65    0.87
  -1   0   8   19.95    0.82
  -1   0   8   20.20    1.21
  -1   0   8   21.23    1.30
   0   0  -8    1.29    0.31
   0   0  -8    1.61    0.36
   0   0  -8    1.23    0.45
   0   0  -8    0.71    0.22
   0   0  -8    1.22    0.39
   0   0   8    0.64    0.24
   0   0   8    0.86    0.42
   0   0   8    1.49    0.49
   0   0   8    1.65    0.32
   0   0   8    1.37    0.38
  -1   0  -8    6.05    0.66
  -1   0  -8    8.63    0.58
  -1   0  -8    7.54    0.69
  -1   0  -8    8.87    0.88
  -1   0  -8    8.09    0.62
   1   0   8    7.91    0.87
   1   0   8   10.16    0.99
   1   0   8    7.98    0.58
   1   0   8    8.37    0.75
   1   0   8    7.12    0.56
  -2   0  -8    8.67    0.89
  -2   0  -8    7.90    0.72
  -2   0  -8    6.31    0.61
   2   0   8    6.37    0.76
   2   0   8    8.48    0.65
   2   0   8    7.04    0.81
   2   0   8    8.06    0.89
   2   0   8    7.96    0.68
  -3   0  -8   41.48    1.77
  -3   0  -8   41.95    1.58
   3   0   8   44.16    1.83
   3   0   8   48.16    1.96
   3   0   8   44.38    1.85
  -4   0  -8   20.99    1.37
  -4   0  -8   22.17    1.24
   4   0   8   24.02    1.42
   4   0   8   18.43    1.32
   4   0   8   20.44    1.41
  -5   0  -8    1.97    0.69
  -5   0  -8    1.05    0.56
   5   0   8    0.32    0.45
   5   0   8    1.04    0.58
   5   0   8    0.57    0.62
   6   0   8    1.59    0.76
   7   0   8    3.53    0.98
  -8   1   8    0.89    0.56
   7  -1  -8    4.65    1.30
  -7   1   8    5.16    1.25
  -7   1   8    4.51    0.70
   6  -1  -8   -0.01    0.73
  -6   1   8    0.88    0.40
  -6   1   8    0.93    0.68
  -6   1   8    0.41    0.85
   5  -1  -8    5.05    1.09
  -5   1   8    4.25    0.99
  -5   1   8    4.98    0.87
  -5   1   8    4.14    0.55
   4  -1  -8   10.93    1.26
  -4   1   8    9.02    0.67
  -4   1   8   10.10    1.16
  -4   1   8    8.44    0.97
   3  -1  -8    1.29    0.54
   3  -1  -8    0.65    0.23
   3  -1  -8    0.76    0.38
  -3   1   8    0.96    0.39
  -3   1   8    0.82    0.42
  -3   1   8    0.70    0.28
  -3   1   8    0.88    0.28
  -3   1   8    0.58    0.46
   2  -1  -8   75.04    2.00
   2  -1  -8   71.76    2.42
   2  -1  -8   73.75    1.97
   2  -1  -8   71.69    1.90
  -2   1   8   68.69    2.08
  -2   1   8   68.94    2.31
  -2   1   8   75.65    2.52
  -2   1   8   73.85    1.73
  -2   1   8   72.92    1.78
  -2   1   8   70.83    1.98
  -2   1   8   72.68    1.85
   1  -1  -8   11.68    0.59
   1  -1  -8   12.85    0.92
   1  -1  -8   12.34    0.78
   1  -1  -8   13.96    0.69
   1  -1  -8   13.28    0.68
  -1   1   8   13.28    0.52
  -1   1   8   13.56    0.57
  -1   1   8   12.53    0.64
  -1   1   8   13.59    1.02
  -1   1   8   13.06    0.93
  -1   1   8   13.05    0.60
   0  -1  -8    8.90    0.57
   0  -1  -8   10.14    0.60
   0  -1  -8    8.60    0.50
   0  -1  -8    9.02    0.81
   0  -1  -8    7.86    0.63
   0   1   8    8.33    0.43
   0   1   8    8.93    0.84
   0   1   8    8.19    0.51
   0   1   8    7.18    0.76
   0   1   8    9.75    0.51
   0   1   8    8.39    0.49
  -1  -1  -8   22.55    0.90
  -1  -1  -8   23.42    0.99
  -1  -1  -8   20.79    1.05
  -1  -1  -8   20.58    1.01
  -1  -1  -8   22.06    0.88
   1   1   8   22.91    0.88
   1   1   8   22.50    1.18
   1   1   8   23.77    0.78
   1   1   8   23.79    1.21
   1   1   8   22.65    0.90
   1   1   8   23.29    0.85
  -2  -1  -8   65.60    2.08
  -2  -1  -8   67.60    1.90
  -2  -1  -8   64.25    2.07
  -2  -1  -8   66.30    2.09
  -2  -1  -8   66.80    1.94
   2   1   8   69.43    2.24
   2   1   8   66.41    1.91
   2   1   8   68.90    1.87
   2   1   8   68.82    1.93
   2   1   8   63.94    2.18
  -3  -1  -8   43.36    1.61
  -3  -1  -8   41.98    1.67
   3   1   8   43.65    1.59
   3   1   8   41.84    1.57
   3   1   8   41.94    1.72
   3   1   8   45.70    1.82
  -4  -1  -8    3.90    0.68
   4   1   8    3.92    0.69
   4   1   8    4.08    0.70
   4   1   8    4.65    0.78
  -5  -1  -8    2.06    0.64
   5   1   8    2.47    0.66
   5   1   8    1.70    0.65
   5   1   8    2.70    0.68
  -6  -1  -8    2.29    0.74
   6   1   8    1.20    0.58
   6   1   8    1.59    0.72
   7   1   8    1.33    0.78
  -8   2   8    2.51    0.60
   7  -2  -8   -0.30    0.90
  -7   2   8    0.87    0.45
  -7   2   8    1.93    0.88
   6  -2  -8    7.63    1.35
  -6   2   8    6.80    1.09
  -6   2   8    7.48    0.72
   5  -2  -8   -0.23    0.60
  -5   2   8    0.61    0.71
  -5   2   8    0.43    0.54
  -5   2   8    0.89    0.33
   4  -2  -8   20.69    1.55
  -4   2   8   26.31    0.90
  -4   2   8   25.12    1.42
  -4   2   8   23.54    1.61
   3  -2  -8   74.27    2.62
  -3   2   8   71.69    2.55
  -3   2   8   71.90    1.62
  -3   2   8   72.26    1.64
  -3   2   8   68.58    2.04
  -3   2   8   71.54    2.34
  -3   2   8   72.29    2.13
   2  -2  -8   75.34    2.48
   2  -2  -8   76.77    1.94
   2  -2  -8   76.82    2.00
  -2   2   8   73.79    2.03
  -2   2   8   78.55    2.32
  -2   2   8   83.39    1.91
  -2   2   8   77.75    2.10
  -2   2   8   76.71    2.49
   1  -2  -8   17.78    1.00
   1  -2  -8   18.72    0.68
   1  -2  -8   18.84    0.75
  -1   2   8   19.91    0.65
  -1   2   8   18.28    0.98
  -1   2   8   18.77    0.74
  -1   2   8   19.50    1.10
   0  -2  -8   13.42    0.71
   0  -2  -8   13.21    0.62
   0  -2  -8   12.62    0.77
   0  -2  -8   13.47    0.56
   0   2   8   13.84    0.88
   0   2   8   14.03    0.52
   0   2   8   12.46    0.87
   0   2   8   13.92    0.60
  -1  -2  -8    4.36    0.44
  -1  -2  -8    4.38    0.39
  -1  -2  -8    3.78    0.47
   1   2   8    3.02    0.50
   1   2   8    4.28    0.40
   1   2   8    4.30    0.58
   1   2   8    3.71    0.33
  -2  -2  -8  183.47    4.04
  -2  -2  -8  182.46    4.13
  -2  -2  -8  186.28    4.14
  -2  -2  -8  179.18    4.10
   2   2   8  165.72    3.37
   2   2   8  175.98    4.25
   2   2   8  162.54    3.37
   2   2   8  175.16    4.30
   2   2   8  177.85    4.01
   2   2   8  181.18    3.83
  -3  -2  -8   19.14    1.00
   3   2   8   17.55    1.08
   3   2   8   19.61    0.74
   3   2   8   16.50    0.87
   3   2   8   17.39    1.05
   3   2   8   17.34    0.79
  -4  -2  -8    1.72    0.48
   4   2   8    2.00    0.54
   4   2   8    2.21    0.56
   4   2   8    2.05    0.48
  -5  -2  -8    1.09    0.52
   5   2   8    0.43    0.46
   5   2   8    0.81    0.55
   5   2   8    0.99    0.50
  -6  -2  -8    1.20    0.62
   6   2   8    1.12    0.62
   6   2   8    2.32    0.63
  -7  -2  -8    8.37    1.19
   7   2   8    9.92    1.27
   7   2   8    8.47    1.14
   8   2   8    0.22    0.81
   7  -3  -8    3.44    1.24
  -7   3   8    4.33    1.10
  -7   3   8    3.32    0.51
   6  -3  -8    1.23    0.87
  -6   3   8    1.25    0.35
  -6   3   8    0.76    0.72
   5  -3  -8    7.81    1.25
  -5   3   8    6.62    0.97
  -5   3   8    9.17    1.33
  -5   3   8    7.77    0.48
   4  -3  -8   31.07    1.82
  -4   3   8   33.82    1.61
  -4   3   8   34.94    1.85
   3  -3  -8   79.02    2.68
  -3   3   8   73.18    2.33
  -3   3   8   76.38    2.13
  -3   3   8   77.61    2.60
   2  -3  -8   24.86    0.82
   2  -3  -8   25.01    0.91
   2  -3  -8   23.30    1.25
  -2   3   8   23.61    0.93
  -2   3   8   26.14    0.86
  -2   3   8   26.46    1.30
   1  -3  -8    8.53    0.46
   1  -3  -8    7.81    0.36
   1  -3  -8    7.86    0.71
  -1   3   8    7.92    0.42
  -1   3   8    8.13    0.46
  -1   3   8    8.74    0.63
   0  -3  -8   17.50    0.80
   0  -3  -8   18.04    0.66
   0  -3  -8   19.29    0.67
   0  -3  -8   17.80    0.75
   0  -3  -8   18.39    0.55
   0   3   8   18.82    0.60
   0   3   8   18.21    0.85
   0   3   8   19.18    0.66
   0   3   8   16.41    0.88
  -1  -3  -8  270.16    5.59
  -1  -3  -8  280.08    5.63
  -1  -3  -8  269.56    5.72
   1   3   8  275.97    5.69
   1   3   8  275.03    5.45
   1   3   8  270.08    5.84
  -2  -3  -8    0.69    0.26
  -2  -3  -8    0.91    0.27
  -2  -3  -8    0.79    0.22
   2   3   8    0.58    0.19
   2   3   8    0.57    0.30
   2   3   8    0.41    0.19
  -3  -3  -8    0.65    0.30
  -3  -3  -8    0.33    0.24
   3   3   8    0.60    0.24
   3   3   8    0.19    0.30
   3   3   8    0.60    0.35
  -4  -3  -8    0.10    0.29
   4   3   8    0.03    0.34
   4   3   8    0.25    0.36
  -5  -3  -8    0.13    0.34
   5   3   8    0.30    0.41
   5   3   8    0.41    0.34
   5   3   8    0.04    0.35
  -6  -3  -8    2.32    0.61
   6   3   8    2.64    0.59
   6   3   8    4.29    0.78
  -7  -3  -8    0.16    0.55
   7   3   8    0.96    0.58
   7   3   8    0.11    0.54
   8   3   8    0.50    0.69
   8   3   8    0.05    0.64
   7  -4  -8    0.12    0.96
  -7   4   8    0.22    0.75
   6  -4  -8   12.51    1.62
  -6   4   8    9.09    1.28
   5  -4  -8   18.42    1.79
  -5   4   8   18.09    1.39
   4  -4  -8   61.18    2.53
  -4   4   8   58.35    2.18
  -4   4   8   60.33    2.46
   3  -4  -8   45.58    1.96
  -3   4   8   49.31    1.94
  -3   4   8   45.11    1.67
  -3   4   8   47.67    1.40
   2  -4  -8    6.63    0.75
   2  -4  -8    6.43    0.35
   2  -4  -8    6.83    0.48
  -2   4   8    6.63    0.55
   1  -4  -8    0.09    0.24
   1  -4  -8    0.07    0.14
  -1   4   8    0.03    0.15
  -1   4   8   -0.04    0.11
  -1   4   8    0.10    0.28
  -1   4   8   -0.26    0.18
   0  -4  -8   13.39    0.64
   0  -4  -8   13.70    0.50
   0  -4  -8   13.74    0.58
   0   4   8   14.52    0.51
   0   4   8   13.33    0.44
   0   4   8   14.04    0.74
   0   4   8   13.56    0.61
  -1  -4  -8    7.65    0.43
  -1  -4  -8    8.47    0.40
   1   4   8    7.08    0.51
   1   4   8    7.98    0.39
   1   4   8    8.12    0.33
   1   4   8    8.09    0.55
  -2  -4  -8    0.21    0.10
  -2  -4  -8    0.06    0.15
  -2  -4  -8    0.03    0.17
   2   4   8    0.32    0.26
   2   4   8    0.18    0.16
   2   4   8    0.18    0.23
   2   4   8    0.03    0.13
  -3  -4  -8    5.46    0.61
  -3  -4  -8    5.82    0.52
  -3  -4  -8    6.81    0.50
   3   4   8    6.40    0.55
  -4  -4  -8   12.10    0.77
   4   4   8   11.99    0.85
   4   4   8   12.69    0.87
  -5  -4  -8    8.59    0.82
   5   4   8    9.74    0.93
   5   4   8    7.96    0.83
  -6  -4  -8    3.47    0.65
   6   4   8    3.84    0.73
  -7  -4  -8   -0.23    0.47
   7   4   8    0.78    0.51
   7   4   8    0.43    0.37
  -8  -4  -8    0.85    0.70
   8   4   8    1.29    0.53
   8   4   8    0.80    0.55
   6  -5  -8    2.73    1.09
  -6   5   8    4.68    1.04
   5  -5  -8   12.56    1.46
  -5   5   8   14.03    1.34
   4  -5  -8   25.91    1.64
  -4   5   8   23.69    1.37
   3  -5  -8    0.63    0.47
  -3   5   8    0.32    0.33
  -3   5   8   -0.01    0.13
  -3   5   8   -0.38    0.36
   2  -5  -8    1.60    0.45
  -2   5   8    1.32    0.31
  -2   5   8    2.05    0.45
  -2   5   8    1.64    0.33
   1  -5  -8   16.62    0.88
   1  -5  -8   18.34    0.64
  -1   5   8   17.31    0.69
  -1   5   8   17.97    0.87
   0  -5  -8   12.49    0.56
   0  -5  -8   13.42    0.44
   0  -5  -8   12.45    0.50
   0   5   8   12.64    0.37
   0   5   8   12.23    0.45
   0   5   8   12.28    0.44
   0   5   8   12.78    0.63
  -1  -5  -8    2.84    0.20
  -1  -5  -8    2.87    0.22
   1   5   8    2.60    0.16
   1   5   8    2.71    0.21
   1   5   8    2.74    0.32
   1   5   8    2.87    0.24
  -2  -5  -8    0.32    0.18
  -2  -5  -8    0.47    0.16
   2   5   8    0.82    0.23
   2   5   8    0.76    0.17
   2   5   8    0.76    0.18
   2   5   8    0.51    0.25
  -3  -5  -8   21.87    0.97
  -3  -5  -8   21.49    0.83
   3   5   8   24.45    0.95
   3   5   8   22.43    0.87
   3   5   8   22.80    0.82
  -4  -5  -8    2.52    0.41
   4   5   8    2.34    0.42
   4   5   8    4.05    0.51
  -5  -5  -8    8.89    0.79
   5   5   8    8.28    0.81
   5   5   8    8.62    0.83
  -6  -5  -8    7.58    0.84
   6   5   8    8.75    0.95
  -7  -5  -8    1.32    0.55
   7   5   8    0.92    0.53
  -8  -5  -8    2.07    0.73
   8   5   8    2.44    0.73
  -6   6   8    6.91    1.19
   5  -6  -8   17.12    1.73
  -5   6   8   14.34    1.39
   4  -6  -8    1.23    0.62
  -4   6   8    0.38    0.45
  -4   6   8    0.20    0.22
   3  -6  -8    1.02    0.52
  -3   6   8    2.42    0.48
   2  -6  -8   -0.12    0.31
  -2   6   8    0.09    0.30
  -2   6   8   -0.30    0.20
   1  -6  -8   -0.10    0.25
   1  -6  -8    0.26    0.17
  -1   6   8    0.30    0.28
  -1   6   8    0.21    0.18
  -1   6   8    0.40    0.16
  -1   6   8    0.16    0.18
   0  -6  -8    2.83    0.31
   0  -6  -8    2.52    0.20
   0   6   8    2.68    0.19
   0   6   8    2.81    0.17
   0   6   8    2.60    0.23
   0   6   8    2.61    0.31
   1   6   8    0.54    0.15
   1   6   8    0.26    0.07
  -2  -6  -8    6.52    0.29
  -2  -6  -8    6.60    0.33
   2   6   8    6.09    0.33
   2   6   8    6.55    0.37
   2   6   8    6.28    0.36
   2   6   8    6.53    0.31
  -3  -6  -8    4.30    0.36
  -3  -6  -8    3.74    0.46
   3   6   8    5.00    0.47
   3   6   8    4.14    0.41
   3   6   8    4.45    0.40
   3   6   8    3.91    0.39
  -4  -6  -8   48.13    1.47
   4   6   8   48.21    1.54
   4   6   8   51.30    1.57
  -5  -6  -8   10.01    0.73
   5   6   8   10.08    0.76
  -6  -6  -8    5.88    0.74
   6   6   8    4.92    0.69
  -7  -6  -8    2.55    0.65
   7   6   8    2.98    0.63
   8   6   8    1.23    0.64
  -5   7   8    0.43    0.59
   4  -7  -8    0.55    0.66
  -4   7   8   -0.10    0.41
   3  -7  -8    0.19    0.48
  -3   7   8    0.08    0.33
   2  -7  -8    0.58    0.37
  -2   7   8    0.23    0.28
   1  -7  -8   12.52    0.78
  -1   7   8   12.27    0.68
  -1   7   8   12.35    0.59
  -1   7   8   12.92    0.61
  -1   7   8   11.89    0.75
   0  -7  -8   17.62    0.72
   0  -7  -8   18.49    0.58
   0   7   8   17.21    0.53
   0   7   8   17.86    0.63
   0   7   8   19.19    0.71
   0   7   8   18.36    0.52
  -2  -7  -8   -0.06    0.11
  -2  -7  -8    0.02    0.07
   2   7   8    0.07    0.11
   2   7   8    0.26    0.14
  -3  -7  -8   40.61    1.28
  -3  -7  -8   39.71    1.07
   3   7   8   38.72    1.18
   3   7   8   40.56    1.13
   3   7   8   41.62    1.17
   3   7   8   39.54    1.13
  -4  -7  -8   20.82    0.83
   4   7   8   20.65    0.89
   4   7   8   20.45    0.89
  -5  -7  -8   16.26    0.86
   5   7   8   18.11    0.93
  -6  -7  -8   11.11    0.85
   6   7   8   11.46    0.99
  -7  -7  -8    1.83    0.57
   7   7   8    1.70    0.54
   8   7   8    4.06    0.78
  -5   8   8   -0.56    0.52
  -4   8   8    0.73    0.51
   3  -8  -8    0.52    0.57
  -3   8   8    0.43    0.36
   2  -8  -8    9.47    0.91
  -2   8   8    8.60    0.73
   1  -8  -8    4.85    0.59
  -1   8   8    5.03    0.48
   0  -8  -8   18.90    0.67
   0  -8  -8   17.68    0.76
   0   8   8   19.36    0.77
   0   8   8   18.74    0.68
   0   8   8   19.61    0.78
   0   8   8   18.64    0.61
  -1  -8  -8   13.83    0.47
  -1  -8  -8   13.04    0.46
   1   8   8   13.73    0.38
   1   8   8   14.52    0.36
   1   8   8   13.38    0.55
  -2  -8  -8   30.71    0.74
  -2  -8  -8   30.52    0.89
   2   8   8   30.72    0.78
   2   8   8   30.61    0.74
   2   8   8   32.50    0.71
   2   8   8   30.50    0.83
  -3  -8  -8   33.11    0.93
  -3  -8  -8   34.90    1.20
   3   8   8   35.08    0.97
   3   8   8   32.73    1.08
   3   8   8   34.58    1.11
   3   8   8   34.31    0.97
  -4  -8  -8   21.63    0.82
   4   8   8   21.88    0.87
  -5  -8  -8   22.26    0.97
   5   8   8   20.81    0.99
  -6  -8  -8    2.72    0.54
   6   8   8    2.32    0.50
  -7  -8  -8    0.84    0.48
   7   8   8    0.73    0.46
   8   8   8    1.56    0.61
  -4   9   8    0.19    0.55
  -3   9   8    6.11    0.79
   2  -9  -8   25.24    1.34
  -2   9   8   21.95    1.09
   1  -9  -8   41.97    1.53
  -1   9   8   39.79    1.31
   0  -9  -8    0.96    0.30
   0   9   8    1.36    0.25
  -1  -9  -8    9.90    0.49
   1   9   8   11.29    0.57
   1   9   8   10.41    0.69
   1   9   8    9.76    0.48
   1   9   8   10.70    0.42
  -2  -9  -8   18.57    0.58
  -2  -9  -8   19.04    0.76
   2   9   8   17.57    0.57
   2   9   8   19.23    0.75
   2   9   8   19.37    0.78
   2   9   8   19.26    0.56
  -3  -9  -8   13.67    0.55
   3   9   8   14.56    0.57
  -4  -9  -8    6.96    0.48
   4   9   8    6.60    0.51
  -5  -9  -8    3.20    0.44
   5   9   8    3.68    0.49
  -6  -9  -8    5.99    0.67
   6   9   8    6.50    0.73
   7   9   8    0.14    0.40
  -3  10   8    6.38    0.86
  -2  10   8    7.58    0.79
  -2  10   8    8.48    0.85
   1 -10  -8    6.62    0.73
  -1  10   8    7.93    0.69
   0 -10  -8    5.90    0.58
   0 -10  -8    5.92    0.58
   0  10   8    6.17    0.52
  -1 -10  -8    5.37    0.46
   1  10   8    5.15    0.40
  -2 -10  -8    7.41    0.43
   2  10   8    7.84    0.42
  -3 -10  -8    8.18    0.47
   3  10   8    8.92    0.49
  -4 -10  -8    0.49    0.23
   4  10   8    0.93    0.28
  -5 -10  -8    0.79    0.29
   5  10   8    1.35    0.39
  -6 -10  -8    2.16    0.46
   6  10   8    2.44    0.50
   7  10   8    1.14    0.51
  -2  11   8    6.96    0.82
  -2  11   8    8.50    0.92
  -1  11   8   -0.10    0.37
   0 -11  -8    0.29    0.31
   0  11   8    0.40    0.30
  -1 -11  -8    0.53    0.25
   1  11   8    1.02    0.28
  -2 -11  -8    2.35    0.33
   2  11   8    2.67    0.34
  -3 -11  -8    1.93    0.31
   3  11   8    1.59    0.30
  -4 -11  -8    0.12    0.21
   4  11   8    0.79    0.29
  -5 -11  -8    0.40    0.28
   5  11   8    0.27    0.31
   6  11   8    0.88    0.42
   0  12   8    2.43    0.50
   1  12   8    2.03    0.40
   2  12   8    1.67    0.36
   3  12   8    0.12    0.27
   4  12   8    1.94    0.40
   5  12   8    1.53    0.41
   4   8  -9    2.22    0.72
   3   8  -9    3.07    0.76
   2   8  -9   14.10    1.33
   1   8  -9   -0.16    0.53
   6   7  -9    5.41    1.03
  -6  -7   9    3.21    0.95
   5   7  -9    0.32    0.58
  -5  -7   9   -0.38    0.60
   4   7  -9    2.97    0.75
  -4  -7   9    4.86    1.05
   3   7  -9    8.82    1.07
  -3  -7   9    9.31    1.43
   2   7  -9    1.66    0.64
  -2  -7   9    2.84    0.94
   1   7  -9    5.22    0.84
  -1  -7   9    6.02    1.25
   0   7  -9    3.02    0.72
   0  -7   9    5.51    1.29
  -1   7  -9    1.04    0.57
   1  -7   9   -1.25    0.68
   7   6  -9    6.33    1.15
   6   6  -9    0.03    0.56
  -6  -6   9    0.69    0.63
   5   6  -9    0.04    0.54
  -5  -6   9    0.33    0.63
   4   6  -9    1.45    0.63
  -4  -6   9    0.99    0.72
   3   6  -9    0.90    0.56
  -3  -6   9    0.69    0.63
   2   6  -9   -0.20    0.44
  -2  -6   9    0.53    0.64
   1   6  -9   -0.01    0.41
  -1  -6   9    0.01    0.61
   0   6  -9    1.16    0.50
   0  -6   9    0.32    0.75
  -1   6  -9    1.95    0.60
   1  -6   9    4.24    1.05
  -2   6  -9    7.13    0.97
   2  -6   9    6.64    1.34
   7   5  -9   -0.47    0.50
  -7  -5   9    0.26    0.55
   6   5  -9    1.56    0.68
  -6  -5   9    1.67    0.69
   5   5  -9    1.03    0.58
  -5  -5   9    1.81    0.72
   4   5  -9    6.82    0.95
  -4  -5   9    5.48    1.00
   3   5  -9   15.39    1.19
  -3  -5   9   14.67    1.47
   2   5  -9    3.13    0.68
  -2  -5   9    4.09    0.90
   1   5  -9    0.55    0.45
  -1  -5   9    0.33    0.54
   0   5  -9    9.40    1.16
   0   5  -9   10.45    1.05
   0  -5   9   12.51    1.41
  -1   5  -9   30.87    1.55
  -1   5  -9   25.43    1.71
   1  -5   9   30.21    2.00
  -2   5  -9   17.58    1.26
   2  -5   9   16.55    1.73
  -3   5  -9    2.27    0.68
   3  -5   9    1.82    0.86
   7   4  -9    0.68    0.58
  -7  -4   9    1.21    0.61
   6   4  -9    0.62    0.57
  -6  -4   9   -0.18    0.43
   5   4  -9    3.87    0.78
  -5  -4   9    4.38    0.84
   4   4  -9    3.32    0.71
  -4  -4   9    6.73    0.98
   3   4  -9    0.55    0.45
  -3  -4   9    1.76    0.66
   2   4  -9   14.69    1.09
  -2  -4   9   15.22    1.41
   1   4  -9   30.81    1.48
  -1  -4   9   29.60    1.74
   0   4  -9   30.00    1.47
   0   4  -9   28.53    1.65
   0  -4   9   28.05    1.77
  -1   4  -9   32.93    1.56
  -1   4  -9   33.67    1.84
   1  -4   9   35.74    2.02
  -2   4  -9   16.68    1.18
   2  -4   9   17.70    1.70
  -3   4  -9   -0.38    0.36
   3  -4   9   -0.62    0.63
  -4   4  -9    2.44    0.68
   4  -4   9    2.71    0.95
   8   3  -9    0.75    0.73
  -8  -3   9    1.49    0.63
   7   3  -9    0.74    0.63
  -7  -3   9    0.57    0.50
   6   3  -9    1.19    0.59
  -6  -3   9    0.69    0.49
   5   3  -9   45.84    2.06
  -5  -3   9   50.10    2.08
   4   3  -9   26.18    1.99
   4   3  -9   29.48    1.57
  -4  -3   9   27.13    1.51
   3   3  -9   14.76    1.13
   3   3  -9   17.85    1.70
  -3  -3   9   14.06    1.27
  -3  -3   9   15.65    1.66
  -3  -3   9   17.61    1.74
   2   3  -9    9.16    1.21
   2   3  -9    9.98    0.94
  -2  -3   9   10.21    1.30
  -2  -3   9   11.24    1.17
  -2  -3   9   11.71    1.29
   1   3  -9   20.50    1.59
   1   3  -9   20.55    1.32
   1   3  -9   22.62    1.25
  -1  -3   9   21.11    1.53
  -1  -3   9   20.96    1.69
  -1  -3   9   22.17    1.47
   0   3  -9   45.37    1.77
   0   3  -9   43.94    2.22
   0   3  -9   46.43    2.01
   0  -3   9   46.17    2.19
   0  -3   9   45.21    2.10
   0  -3   9   49.80    2.35
  -1   3  -9   38.75    1.70
  -1   3  -9   43.26    1.94
  -1   3  -9   41.09    2.15
   1  -3   9   43.84    2.06
  -2   3  -9    0.07    0.37
   2  -3   9    0.30    0.58
  -3   3  -9    4.93    0.73
   3  -3   9    4.00    0.95
  -4   3  -9    0.54    0.47
   4  -3   9   -0.59    0.64
  -5   3  -9    0.27    0.51
   5  -3   9    0.87    0.83
   8   2  -9   -0.20    0.64
   7   2  -9    0.97    0.69
  -7  -2   9    1.25    0.52
   6   2  -9   48.57    2.22
  -6  -2   9   49.46    2.01
   5   2  -9    4.25    1.13
   5   2  -9    3.17    0.81
  -5  -2   9    3.76    0.94
  -5  -2   9    4.08    0.72
   4   2  -9   26.37    1.91
   4   2  -9   28.30    1.50
  -4  -2   9   30.09    1.89
  -4  -2   9   28.67    2.04
  -4  -2   9   26.54    1.39
   3   2  -9   11.33    0.98
   3   2  -9   11.94    1.34
  -3  -2   9   11.87    1.07
  -3  -2   9   12.70    1.33
  -3  -2   9   15.27    1.62
   2   2  -9   25.13    1.27
   2   2  -9   28.05    1.71
  -2  -2   9   25.35    1.76
  -2  -2   9   28.16    1.68
  -2  -2   9   25.89    1.39
   1   2  -9   59.28    2.44
   1   2  -9   56.44    1.95
   1   2  -9   60.23    2.23
  -1  -2   9   59.17    2.44
  -1  -2   9   57.07    2.50
  -1  -2   9   59.43    1.92
  -1  -2   9   54.96    1.99
  -1  -2   9   59.24    2.16
   0   2  -9   77.57    2.66
   0   2  -9   82.78    2.41
   0   2  -9   83.18    2.92
   0  -2   9   79.48    2.66
   0  -2   9   80.94    2.90
   0  -2   9   78.49    2.96
  -1   2  -9    0.41    0.43
  -1   2  -9    0.18    0.38
  -1   2  -9    0.44    0.50
   1  -2   9    0.01    0.54
   1  -2   9    0.61    0.52
   1  -2   9    0.64    0.57
  -2   2  -9    5.83    0.94
  -2   2  -9    5.31    0.76
   2  -2   9    5.60    0.90
   2  -2   9    5.17    0.91
   2  -2   9    5.03    0.94
  -3   2  -9   -0.11    0.51
  -3   2  -9    0.18    0.45
   3  -2   9    0.89    0.59
  -4   2  -9    0.28    0.45
   4  -2   9    0.86    0.66
  -5   2  -9    2.56    0.64
   5  -2   9    2.41    0.86
  -6   2  -9    0.10    0.53
   6  -2   9    0.15    0.75
  -8  -1   9    5.32    0.85
  -7  -1   9   19.28    1.29
   6   1  -9   10.24    1.25
   6   1  -9   11.44    1.61
  -6  -1   9   10.31    1.43
  -6  -1   9   10.18    0.96
   5   1  -9   31.30    1.72
   5   1  -9   30.86    2.11
  -5  -1   9   36.07    2.33
  -5  -1   9   27.14    1.35
  -5  -1   9   31.30    1.98
   4   1  -9   23.01    1.78
   4   1  -9   23.35    1.37
  -4  -1   9   24.57    1.88
  -4  -1   9   24.32    1.65
  -4  -1   9   21.53    1.15
   3   1  -9    0.89    0.69
   3   1  -9    0.68    0.40
  -3  -1   9    1.02    0.67
  -3  -1   9    1.03    0.42
  -3  -1   9    0.73    0.57
   2   1  -9    9.91    1.17
   2   1  -9    7.48    0.78
  -2  -1   9    8.69    0.78
  -2  -1   9    6.20    0.95
  -2  -1   9    8.48    1.10
  -2  -1   9    8.44    0.82
   1   1  -9   33.53    1.51
   1   1  -9   31.86    1.25
   1   1  -9   35.08    1.35
   1   1  -9   28.87    1.63
  -1  -1   9   32.61    1.78
  -1  -1   9   33.51    1.24
  -1  -1   9   35.43    1.77
  -1  -1   9   33.42    1.42
  -1  -1   9   34.17    1.29
   0   1  -9    0.61    0.37
   0   1  -9    1.47    0.55
   0   1  -9    0.33    0.33
   0  -1   9    0.11    0.24
   0  -1   9    1.10    0.45
   0  -1   9    0.37    0.27
   0  -1   9    0.59    0.49
   0  -1   9    0.31    0.53
  -1   1  -9    0.42    0.49
  -1   1  -9    1.53    0.47
  -1   1  -9    1.10    0.41
   1  -1   9    1.53    0.56
   1  -1   9    0.05    0.45
   1  -1   9    1.35    0.63
  -2   1  -9    4.62    0.76
  -2   1  -9    6.07    0.72
   2  -1   9    4.96    0.86
   2  -1   9    4.35    0.76
   2  -1   9    5.84    0.90
  -3   1  -9    2.48    0.59
  -3   1  -9    2.78    0.72
   3  -1   9    1.78    0.65
   3  -1   9    2.34    0.76
   3  -1   9    2.78    0.66
  -4   1  -9    3.29    0.69
  -4   1  -9    2.65    0.74
   4  -1   9    5.41    0.86
   4  -1   9    5.51    0.93
  -5   1  -9    0.08    0.43
   5  -1   9    0.63    0.66
  -6   1  -9   -0.15    0.45
   6  -1   9    0.31    0.67
  -8   0   9   -0.42    0.49
  -7   0   9    9.56    0.99
   6   0  -9    8.22    1.43
  -6   0   9    9.34    1.36
  -6   0   9    7.93    1.44
  -6   0   9    9.07    0.91
   5   0  -9    9.96    1.42
  -5   0   9   12.82    1.47
  -5   0   9   11.02    1.41
   4   0  -9   17.36    1.68
  -4   0   9   19.20    0.98
  -4   0   9   21.24    1.67
  -4   0   9   20.03    1.48
   3   0  -9    9.57    0.89
   3   0  -9   10.70    1.21
  -3   0   9    8.70    0.74
  -3   0   9    9.20    1.05
  -3   0   9    9.77    1.19
   2   0  -9   47.06    2.09
   2   0  -9   52.88    1.65
   2   0  -9   53.28    1.72
  -2   0   9   55.86    1.64
  -2   0   9   51.03    1.62
  -2   0   9   53.15    2.14
  -2   0   9   51.22    2.23
  -2   0   9   51.74    1.67
  -2   0   9   51.62    1.83
   1   0  -9    6.18    0.72
   1   0  -9    8.20    0.72
   1   0  -9    6.77    0.53
   1   0  -9    7.28    0.86
  -1   0   9    6.72    0.53
  -1   0   9    7.04    0.57
  -1   0   9    7.13    0.65
  -1   0   9    5.68    0.83
  -1   0   9    5.65    0.79
   0   0  -9    1.38    0.49
   0   0  -9    2.12    0.48
   0   0  -9    1.47    0.38
   0   0  -9    1.74    0.32
   0   0   9    2.31    0.59
   0   0   9    1.97    0.61
   0   0   9    1.35    0.31
   0   0   9    1.55    0.40
   0   0   9    1.76    0.34
  -1   0  -9    0.58    0.38
  -1   0  -9    0.50    0.27
  -1   0  -9    0.65    0.40
  -1   0  -9    0.11    0.30
   1   0   9    0.42    0.25
   1   0   9    0.61    0.44
   1   0   9    0.96    0.48
   1   0   9    0.04    0.25
   1   0   9    0.29    0.36
  -2   0  -9   14.87    1.09
  -2   0  -9   15.30    0.92
   2   0   9   15.05    1.18
   2   0   9   14.08    1.05
   2   0   9   14.90    1.15
  -3   0  -9    4.51    0.74
  -3   0  -9    5.81    0.81
   3   0   9    4.35    0.70
   3   0   9    6.56    0.87
   3   0   9    5.83    0.89
  -4   0  -9   32.09    1.74
   4   0   9   31.00    1.67
   4   0   9   30.84    1.69
   4   0   9   32.39    1.81
  -5   0  -9   -0.47    0.54
   5   0   9    0.26    0.55
   5   0   9   -0.30    0.48
   6   0   9    0.23    0.65
   7   0   9    2.57    0.91
  -8   1   9    4.80    0.78
   7  -1  -9    3.25    1.22
  -7   1   9    3.08    1.04
  -7   1   9    4.73    0.71
   6  -1  -9    2.70    1.05
  -6   1   9    4.28    1.02
  -6   1   9    3.57    0.57
   5  -1  -9    2.46    0.90
  -5   1   9    0.73    0.73
  -5   1   9    1.70    0.72
  -5   1   9    1.65    0.42
   4  -1  -9    6.14    1.09
  -4   1   9    4.64    0.86
  -4   1   9    4.52    0.52
  -4   1   9    3.39    0.83
   3  -1  -9   21.00    1.46
  -3   1   9   20.25    1.48
  -3   1   9   22.90    1.38
   2  -1  -9    0.50    0.44
   2  -1  -9    0.31    0.18
  -2   1   9    0.28    0.21
  -2   1   9    0.88    0.42
  -2   1   9    0.32    0.20
  -2   1   9    0.11    0.45
  -2   1   9    0.33    0.21
  -2   1   9    0.24    0.21
  -2   1   9   -0.03    0.29
   1  -1  -9    1.04    0.24
   1  -1  -9    0.92    0.35
   1  -1  -9    0.59    0.31
   1  -1  -9    0.98    0.44
   1  -1  -9    0.77    0.28
  -1   1   9    0.53    0.22
  -1   1   9    0.93    0.21
  -1   1   9    0.55    0.23
  -1   1   9    0.98    0.26
  -1   1   9    0.22    0.39
  -1   1   9    0.38    0.45
   0  -1  -9    0.49    0.28
   0  -1  -9    0.64    0.27
   0  -1  -9    0.96    0.42
   0  -1  -9    0.44    0.30
   0  -1  -9    0.70    0.22
   0   1   9    0.71    0.21
   0   1   9    0.35    0.21
   0   1   9    0.52    0.24
   0   1   9    0.49    0.41
   0   1   9    0.81    0.24
   0   1   9    1.16    0.48
  -1  -1  -9    0.85    0.37
  -1  -1  -9    0.62    0.23
  -1  -1  -9    0.18    0.31
   1   1   9    0.41    0.22
   1   1   9    0.02    0.34
   1   1   9    0.18    0.21
   1   1   9    0.22    0.38
   1   1   9    0.16    0.26
   1   1   9    0.03    0.19
  -2  -1  -9   42.07    1.68
   2   1   9   41.36    1.44
   2   1   9   44.17    1.50
   2   1   9   45.25    1.83
   2   1   9   44.50    1.82
  -3  -1  -9   98.79    2.96
   3   1   9   95.33    2.70
   3   1   9   96.00    3.00
   3   1   9  100.74    3.09
  -4  -1  -9    3.95    0.76
   4   1   9    3.26    0.70
   4   1   9    2.72    0.60
   4   1   9    2.95    0.71
  -5  -1  -9    2.96    0.75
   5   1   9    4.12    0.84
   5   1   9    2.89    0.76
   5   1   9    4.39    0.84
  -6  -1  -9    6.86    1.09
   6   1   9    5.07    0.92
   6   1   9    5.15    0.98
   7   1   9    3.79    1.00
   7  -2  -9    0.58    1.02
  -7   2   9   -0.11    0.36
  -7   2   9    0.21    0.82
   6  -2  -9    0.24    0.80
  -6   2   9    0.45    0.69
  -6   2   9    0.20    0.36
   5  -2  -9   16.93    1.67
  -5   2   9   20.41    1.88
  -5   2   9   19.74    1.53
  -5   2   9   18.86    0.85
   4  -2  -9   46.63    2.29
  -4   2   9   48.86    1.31
  -4   2   9   48.05    2.31
  -4   2   9   47.06    2.07
   3  -2  -9   -0.57    0.45
  -3   2   9    0.38    0.49
  -3   2   9    0.23    0.16
  -3   2   9    0.49    0.41
  -3   2   9    0.17    0.14
  -3   2   9    0.27    0.33
   2  -2  -9   31.00    1.53
   2  -2  -9   30.34    1.01
  -2   2   9   28.01    1.52
  -2   2   9   31.50    1.13
  -2   2   9   30.42    1.42
  -2   2   9   30.41    1.13
  -2   2   9   30.09    1.03
   1  -2  -9    4.67    0.37
   1  -2  -9    5.22    0.48
   1  -2  -9    4.26    0.63
  -1   2   9    5.33    0.70
  -1   2   9    5.26    0.37
  -1   2   9    4.27    0.43
  -1   2   9    4.55    0.70
   0  -2  -9    2.69    0.31
   0  -2  -9    1.80    0.45
   0  -2  -9    1.93    0.38
   0  -2  -9    2.37    0.35
   0   2   9    3.76    0.59
   0   2   9    2.91    0.33
   0   2   9    2.72    0.34
   0   2   9    2.09    0.50
  -1  -2  -9    8.60    0.60
  -1  -2  -9    8.97    0.52
  -1  -2  -9    9.39    0.72
  -1  -2  -9    9.17    0.69
   1   2   9    9.51    0.89
   1   2   9    8.48    0.47
   1   2   9    8.00    0.82
   1   2   9    8.24    0.53
  -2  -2  -9   53.22    1.77
  -2  -2  -9   51.36    1.57
   2   2   9   51.87    1.88
   2   2   9   47.70    1.83
   2   2   9   50.94    1.58
  -3  -2  -9    7.04    0.75
   3   2   9    7.08    0.54
   3   2   9    7.12    0.81
   3   2   9    8.78    0.53
   3   2   9    8.78    0.87
  -4  -2  -9   18.26    1.16
   4   2   9   17.10    1.22
   4   2   9   17.56    1.18
   4   2   9   18.15    0.98
  -5  -2  -9   10.64    1.09
   5   2   9   11.29    1.15
   5   2   9    9.79    0.92
   5   2   9   13.98    1.32
  -6  -2  -9    0.89    0.57
   6   2   9    1.29    0.62
   6   2   9    1.52    0.63
  -7  -2  -9    9.85    1.31
   7   2   9    8.83    1.14
   7   2   9   10.33    1.24
   7  -3  -9    1.33    1.12
  -7   3   9    2.12    0.39
  -7   3   9    1.53    0.88
   6  -3  -9    6.91    1.31
  -6   3   9    4.44    0.41
  -6   3   9    2.52    0.85
   5  -3  -9    2.92    0.94
  -5   3   9    3.29    0.25
  -5   3   9    2.49    0.74
   4  -3  -9    7.09    1.08
  -4   3   9    6.36    1.03
  -4   3   9    6.83    0.94
   3  -3  -9   35.78    1.79
  -3   3   9   38.21    1.61
  -3   3   9   34.87    1.26
  -3   3   9   34.67    1.76
   2  -3  -9   17.19    0.67
   2  -3  -9   18.07    1.17
  -2   3   9   17.37    0.80
  -2   3   9   17.17    1.00
  -2   3   9   18.02    0.71
  -2   3   9   17.87    1.17
   1  -3  -9    9.03    0.52
   1  -3  -9    8.70    0.80
   1  -3  -9    8.47    0.41
  -1   3   9    9.00    0.48
  -1   3   9    8.03    0.50
   0  -3  -9   33.59    1.05
   0  -3  -9   32.58    1.16
   0  -3  -9   30.24    1.21
   0  -3  -9   32.84    0.90
   0   3   9   32.05    1.01
   0   3   9   32.27    0.94
  -1  -3  -9  151.25    3.34
  -1  -3  -9  146.88    3.56
  -1  -3  -9  161.76    3.50
   1   3   9  153.83    3.44
   1   3   9  155.56    3.28
  -2  -3  -9   53.42    1.54
  -2  -3  -9   55.00    1.69
  -2  -3  -9   55.63    1.72
   2   3   9   56.96    1.60
   2   3   9   54.21    1.83
  -3  -3  -9    4.60    0.56
   3   3   9    3.89    0.57
   3   3   9    3.33    0.55
  -4  -3  -9    1.09    0.43
   4   3   9    1.47    0.46
   4   3   9    1.38    0.48
  -5  -3  -9    0.62    0.45
   5   3   9    0.16    0.30
   5   3   9    0.74    0.49
   5   3   9    1.10    0.51
  -6  -3  -9   11.85    1.23
   6   3   9   11.44    1.18
   6   3   9   11.63    0.88
  -7  -3  -9    0.78    0.66
   7   3   9    1.13    0.59
   7   3   9    1.36    0.63
  -7   4   9    1.54    0.91
   6  -4  -9    3.25    1.07
  -6   4   9    2.57    0.91
   5  -4  -9   30.38    2.03
  -5   4   9   29.77    1.78
   4  -4  -9   27.62    1.76
  -4   4   9   26.36    1.47
   3  -4  -9   29.67    1.65
  -3   4   9   34.04    1.06
  -3   4   9   30.98    1.44
  -3   4   9   30.25    1.62
   2  -4  -9    0.03    0.12
   2  -4  -9    0.02    0.33
  -2   4   9   -0.09    0.21
  -2   4   9    0.05    0.33
   1  -4  -9   34.88    0.80
   1  -4  -9   34.50    1.36
   1  -4  -9   35.85    1.06
  -1   4   9   33.64    1.23
  -1   4   9   36.09    1.02
  -1   4   9   34.88    1.08
   0  -4  -9   28.03    1.03
   0  -4  -9   26.45    0.96
   0  -4  -9   26.00    0.83
   0   4   9   26.32    0.83
   0   4   9   26.10    0.76
   0   4   9   28.49    1.16
   0   4   9   25.77    1.02
  -1  -4  -9   37.19    1.07
  -1  -4  -9   36.16    1.14
   1   4   9   35.48    1.28
   1   4   9   34.52    1.24
   1   4   9   35.62    1.03
   1   4   9   34.79    0.95
  -2  -4  -9    2.40    0.34
  -2  -4  -9    2.07    0.35
  -2  -4  -9    2.30    0.24
   2   4   9    2.32    0.32
   2   4   9    1.93    0.39
   2   4   9    1.42    0.24
  -3  -4  -9    0.58    0.28
  -3  -4  -9    0.94    0.26
   3   4   9    0.12    0.20
   3   4   9    0.86    0.33
   3   4   9    0.61    0.26
  -4  -4  -9    0.30    0.30
   4   4   9    0.37    0.37
   4   4   9   -0.14    0.30
  -5  -4  -9   13.02    0.96
   5   4   9   11.19    1.03
  -6  -4  -9    1.24    0.51
   6   4   9    1.52    0.57
  -7  -4  -9    1.47    0.63
   7   4   9    0.83    0.60
   8   4   9    7.59    1.13
   6  -5  -9    7.16    1.39
  -6   5   9    6.70    1.14
   5  -5  -9   17.99    1.72
  -5   5   9   15.91    1.48
   4  -5  -9   12.39    1.35
  -4   5   9   12.02    1.14
   3  -5  -9    4.69    0.81
  -3   5   9    4.37    0.75
  -3   5   9    3.81    0.60
   2  -5  -9   -0.14    0.32
  -2   5   9    0.25    0.23
  -2   5   9   -0.24    0.30
   1  -5  -9   26.12    0.83
   1  -5  -9   25.20    1.11
  -1   5   9   24.62    1.13
  -1   5   9   24.33    0.94
   0  -5  -9   41.49    1.17
   0  -5  -9   38.65    1.22
   0  -5  -9   39.22    1.02
   0   5   9   38.74    1.03
   0   5   9   39.82    0.95
   0   5   9   37.59    1.12
   0   5   9   39.32    1.31
  -1  -5  -9    5.97    0.38
  -1  -5  -9    5.58    0.34
   1   5   9    5.83    0.50
   1   5   9    5.75    0.47
   1   5   9    5.41    0.32
   1   5   9    5.83    0.28
  -2  -5  -9    2.54    0.32
  -2  -5  -9    2.22    0.29
   2   5   9    1.91    0.34
   2   5   9    2.01    0.27
   2   5   9    2.41    0.39
  -3  -5  -9    0.07    0.17
   3   5   9   -0.07    0.19
   3   5   9    0.18    0.23
   3   5   9    0.04    0.26
  -4  -5  -9   -0.10    0.22
   4   5   9    0.13    0.27
   4   5   9    0.15    0.29
  -5  -5  -9    0.41    0.36
   5   5   9    1.12    0.43
  -6  -5  -9   -0.10    0.37
   6   5   9    0.93    0.48
  -7  -5  -9    0.70    0.54
   7   5   9   -0.22    0.43
   8   5   9   -0.14    0.53
  -6   6   9   13.61    1.59
   5  -6  -9   20.56    1.89
  -5   6   9   14.90    1.48
   4  -6  -9   16.88    1.58
  -4   6   9   12.68    1.18
   3  -6  -9    8.43    1.04
  -3   6   9    6.88    0.77
   2  -6  -9    2.94    0.57
  -2   6   9    3.32    0.59
  -2   6   9    4.11    0.52
   1  -6  -9    9.07    0.71
   1  -6  -9    9.94    0.50
  -1   6   9    9.43    0.53
  -1   6   9    9.57    0.47
  -1   6   9    9.36    0.55
  -1   6   9    9.27    0.72
   0  -6  -9    4.98    0.43
   0  -6  -9    3.99    0.26
   0   6   9    5.04    0.31
   0   6   9    3.99    0.23
   0   6   9    4.43    0.44
   0   6   9    4.85    0.32
  -1  -6  -9    8.35    0.35
  -1  -6  -9    8.39    0.31
   1   6   9    8.24    0.32
   1   6   9    8.72    0.49
   1   6   9    8.41    0.25
   1   6   9    8.87    0.33
  -2  -6  -9    2.14    0.24
  -2  -6  -9    1.82    0.24
   2   6   9    2.57    0.33
   2   6   9    2.34    0.30
   2   6   9    2.09    0.24
   2   6   9    2.32    0.24
  -3  -6  -9    0.99    0.34
  -3  -6  -9    1.22    0.25
   3   6   9    1.67    0.32
   3   6   9    1.40    0.33
   3   6   9    1.26    0.27
  -4  -6  -9    7.24    0.57
   4   6   9    7.06    0.67
   4   6   9    6.42    0.60
  -5  -6  -9   18.35    1.00
   5   6   9   17.22    1.01
  -6  -6  -9    0.47    0.41
   6   6   9    0.29    0.39
  -7  -6  -9    0.20    0.47
   7   6   9    0.03    0.40
   8   6   9    1.36    0.64
  -5   7   9    0.74    0.65
   4  -7  -9    5.84    1.02
  -4   7   9    4.75    0.79
   3  -7  -9    0.05    0.39
  -3   7   9   -0.23    0.29
   2  -7  -9    7.53    0.83
  -2   7   9    8.47    0.71
   1  -7  -9    1.26    0.37
  -1   7   9    1.27    0.29
  -1   7   9    1.71    0.41
   0  -7  -9    2.29    0.22
   0  -7  -9    1.96    0.31
   0   7   9    2.13    0.24
   0   7   9    2.42    0.20
   0   7   9    2.59    0.23
   0   7   9    2.32    0.34
  -2  -7  -9    2.66    0.24
  -2  -7  -9    2.87    0.20
   2   7   9    2.79    0.21
   2   7   9    3.13    0.26
   2   7   9    2.95    0.21
   2   7   9    2.79    0.24
  -3  -7  -9    9.77    0.49
  -3  -7  -9   10.85    0.64
   3   7   9   10.90    0.56
   3   7   9   11.51    0.60
   3   7   9   10.95    0.55
   3   7   9   11.04    0.57
  -4  -7  -9   17.31    0.77
   4   7   9   16.53    0.84
   4   7   9   17.43    0.86
  -5  -7  -9    0.06    0.24
   5   7   9   -0.12    0.26
  -6  -7  -9    0.56    0.39
   6   7   9    0.88    0.42
  -7  -7  -9    4.92    0.80
   7   7   9    6.84    0.89
   8   7   9   13.65    1.34
  -4   8   9    0.36    0.51
   3  -8  -9    1.27    0.55
  -3   8   9    1.31    0.47
   2  -8  -9    0.91    0.45
  -2   8   9    1.37    0.37
   1  -8  -9    2.61    0.46
  -1   8   9    3.47    0.41
   0  -8  -9    1.21    0.20
   0  -8  -9    0.81    0.26
   0   8   9    0.74    0.28
   0   8   9    1.10    0.20
   0   8   9    1.35    0.22
   0   8   9    0.91    0.26
  -1  -8  -9    1.99    0.15
  -1  -8  -9    1.83    0.17
  -2  -8  -9   16.61    0.44
  -2  -8  -9   18.42    0.55
  -3  -8  -9   25.39    0.78
   3   8   9   25.43    0.86
   3   8   9   26.45    0.82
   3   8   9   26.77    0.89
   3   8   9   26.40    0.84
  -4  -8  -9   10.54    0.58
   4   8   9   10.14    0.65
  -5  -8  -9   12.91    0.75
   5   8   9   11.42    0.79
  -6  -8  -9    3.25    0.56
   6   8   9    3.24    0.57
   7   8   9    2.98    0.65
   8   8   9    1.35    0.60
  -4   9   9   -0.25    0.51
  -3   9   9    1.43    0.49
   2  -9  -9   12.37    1.07
  -2   9   9   13.27    0.89
   1  -9  -9   17.53    0.95
  -1   9   9   14.79    0.78
  -1   9   9   15.85    0.80
   0  -9  -9    2.87    0.38
   0   9   9    3.06    0.32
  -1  -9  -9    3.63    0.30
  -1  -9  -9    3.55    0.28
  -1  -9  -9    3.98    0.29
   1   9   9    3.80    0.29
   1   9   9    3.63    0.35
   1   9   9    3.25    0.24
   1   9   9    3.98    0.31
  -2  -9  -9   28.53    0.71
  -2  -9  -9   29.72    0.86
   2   9   9   29.44    0.69
   2   9   9   29.10    0.81
   2   9   9   29.44    0.69
  -3  -9  -9   20.93    0.67
   3   9   9   22.03    0.70
  -4  -9  -9   10.33    0.57
   4   9   9   10.47    0.61
  -5  -9  -9    0.08    0.23
   5   9   9    0.36    0.29
  -6  -9  -9    7.71    0.75
   6   9   9    7.78    0.80
   7   9   9    2.66    0.62
  -3  10   9   15.46    1.19
  -2  10   9    3.46    0.59
   1 -10  -9    2.91    0.52
  -1  10   9    2.05    0.44
  -1  10   9    2.25    0.42
   0 -10  -9    9.51    0.63
   0  10   9    9.82    0.58
  -1 -10  -9   16.64    0.67
   1  10   9   18.68    0.62
  -2 -10  -9   18.42    0.59
   2  10   9   18.03    0.58
  -3 -10  -9   12.15    0.52
   3  10   9   12.36    0.53
  -4 -10  -9    1.33    0.26
   4  10   9    1.66    0.33
  -5 -10  -9    0.31    0.25
   5  10   9    0.25    0.32
   6  10   9    1.17    0.43
   7  10   9    2.95    0.66
  -1  11   9    1.60    0.47
   0 -11  -9    3.80    0.50
   0  11   9    4.10    0.49
  -1 -11  -9    6.81    0.51
   1  11   9    7.11    0.50
  -2 -11  -9    6.13    0.42
   2  11   9    6.69    0.43
  -3 -11  -9   -0.10    0.16
   3  11   9    0.14    0.20
  -4 -11  -9    1.20    0.28
   4  11   9    1.47    0.33
   5  11   9    0.36    0.32
   6  11   9    0.17    0.41
   0  12   9    1.78    0.45
   1  12   9    6.43    0.57
   2  12   9    0.64    0.28
   3  12   9    0.97    0.29
   4  12   9    2.20    0.39
   5  12   9    0.26    0.32
   5   7 -10    0.58    0.60
  -5  -7  10    0.17    0.73
   4   7 -10    7.17    1.08
  -4  -7  10    4.89    1.06
   3   7 -10   21.12    1.53
  -3  -7  10   22.86    2.15
   2   7 -10    7.79    1.04
  -2  -7  10    5.80    1.18
   1   7 -10    0.74    0.55
  -1  -7  10    0.63    0.85
   0   7 -10    1.54    0.64
   0  -7  10    2.11    0.97
   6   6 -10   -0.05    0.58
  -6  -6  10    0.97    0.72
   5   6 -10    2.63    0.78
  -5  -6  10    5.92    1.13
   4   6 -10    2.49    0.73
  -4  -6  10    2.91    0.91
   3   6 -10    4.94    0.84
  -3  -6  10    4.86    1.06
   2   6 -10    0.36    0.47
  -2  -6  10    0.79    0.73
   1   6 -10    3.14    0.72
  -1  -6  10    5.33    1.10
   0   6 -10    1.15    0.56
   0  -6  10    0.96    0.83
  -1   6 -10    3.38    0.75
   1  -6  10    2.55    0.99
   6   5 -10    0.02    0.52
  -6  -5  10    0.22    0.56
   5   5 -10    0.66    0.61
  -5  -5  10    0.98    0.60
   4   5 -10    2.29    0.66
  -4  -5  10    1.40    0.65
   3   5 -10    5.82    0.92
  -3  -5  10    5.53    1.02
   2   5 -10    3.36    0.71
  -2  -5  10    1.11    0.66
   1   5 -10    0.45    0.47
  -1  -5  10   -0.01    0.55
   0   5 -10    0.71    0.48
   0  -5  10    0.70    0.72
  -1   5 -10    0.72    0.51
   1  -5  10    0.50    0.72
  -2   5 -10    2.23    0.69
   2  -5  10    0.70    0.76
  -3   5 -10    0.51    0.54
   3  -5  10    0.81    0.81
   7   4 -10    2.05    0.82
  -7  -4  10    0.71    0.55
   6   4 -10    1.19    0.65
  -6  -4  10    1.71    0.65
   5   4 -10    3.11    0.76
  -5  -4  10    3.02    0.73
   4   4 -10    6.50    0.90
  -4  -4  10    7.59    1.09
   3   4 -10   26.22    1.49
  -3  -4  10   23.53    1.57
   2   4 -10    4.04    0.71
  -2  -4  10    5.03    0.86
   1   4 -10    1.56    0.54
  -1  -4  10    1.62    0.64
   0   4 -10   16.14    1.20
   0  -4  10   15.76    1.51
  -1   4 -10    8.52    0.98
   1  -4  10    7.24    1.13
  -2   4 -10    6.46    0.89
   2  -4  10    5.68    1.13
  -3   4 -10   -0.23    0.44
   3  -4  10    1.25    0.77
  -4   4 -10    3.73    0.81
   4  -4  10    1.98    0.93
   7   3 -10    1.11    0.76
  -7  -3  10   -0.15    0.43
   6   3 -10    0.75    0.59
  -6  -3  10    0.47    0.47
   5   3 -10   13.36    1.32
  -5  -3  10   12.83    1.24
   4   3 -10   -0.26    0.47
  -4  -3  10    0.05    0.42
   3   3 -10   13.24    1.51
   3   3 -10   13.23    1.23
  -3  -3  10   13.72    1.70
  -3  -3  10   13.01    1.23
   2   3 -10    1.40    0.57
   2   3 -10    0.26    0.64
  -2  -3  10    1.15    0.71
  -2  -3  10    1.00    0.56
   1   3 -10   24.36    1.38
   1   3 -10   23.70    1.76
  -1  -3  10   23.36    1.51
  -1  -3  10   24.77    1.74
   0   3 -10   18.41    1.74
   0   3 -10   17.40    1.20
   0  -3  10   18.38    1.41
  -1   3 -10    3.93    0.69
   1  -3  10    3.07    0.80
  -2   3 -10    0.16    0.42
   2  -3  10   -0.21    0.55
  -3   3 -10   10.05    1.03
   3  -3  10    9.96    1.31
  -4   3 -10   20.22    1.36
   4  -3  10   15.12    1.70
   7   2 -10    0.13    0.61
  -7  -2  10    0.36    0.43
   6   2 -10   14.50    1.48
  -6  -2  10   12.97    1.21
   5   2 -10    4.74    0.88
   5   2 -10    1.84    0.96
  -5  -2  10    4.60    0.74
   4   2 -10    8.41    1.30
   4   2 -10    9.74    1.09
  -4  -2  10   13.12    1.54
  -4  -2  10    9.62    1.00
  -4  -2  10    9.80    1.47
   3   2 -10   12.93    1.49
   3   2 -10   14.10    1.24
  -3  -2  10   14.00    1.20
  -3  -2  10   11.32    1.42
  -3  -2  10   10.58    1.43
   2   2 -10   17.92    1.68
   2   2 -10   13.77    1.14
  -2  -2  10   12.95    1.13
  -2  -2  10   13.69    1.53
  -2  -2  10   14.24    1.56
   1   2 -10   50.95    1.90
   1   2 -10   50.08    2.36
  -1  -2  10   48.65    2.41
  -1  -2  10   45.69    1.94
  -1  -2  10   53.05    2.40
   0   2 -10   16.11    1.51
   0   2 -10   14.10    1.04
   0  -2  10   15.91    1.20
   0  -2  10   18.70    1.64
   0  -2  10   12.01    1.31
  -1   2 -10   23.20    1.66
  -1   2 -10   23.03    1.32
   1  -2  10   24.73    1.65
   1  -2  10   26.78    1.77
   1  -2  10   23.46    1.50
  -2   2 -10   -0.20    0.44
  -2   2 -10   -0.04    0.60
   2  -2  10    0.51    0.54
   2  -2  10   -0.21    0.46
  -3   2 -10    3.51    0.65
   3  -2  10    4.02    0.89
  -4   2 -10    1.09    0.51
   4  -2  10    0.81    0.76
  -5   2 -10    3.01    0.73
   5  -2  10    3.74    0.99
  -7  -1  10   10.76    1.10
  -6  -1  10   34.75    1.57
   5   1 -10   12.97    1.65
  -5  -1  10   13.27    0.96
  -5  -1  10   11.73    1.49
  -5  -1  10   11.05    1.58
   4   1 -10   12.85    1.56
   4   1 -10   12.27    1.21
  -4  -1  10   10.21    0.92
  -4  -1  10   14.46    1.68
  -4  -1  10   10.80    1.33
   3   1 -10   12.39    1.41
   3   1 -10   12.97    1.06
  -3  -1  10   14.42    1.46
  -3  -1  10   13.02    1.47
  -3  -1  10   13.67    0.94
   2   1 -10   33.62    1.46
   2   1 -10   33.01    1.89
  -2  -1  10   34.50    2.00
  -2  -1  10   33.09    1.43
  -2  -1  10   32.89    1.86
   1   1 -10   19.19    1.40
   1   1 -10   16.71    1.04
  -1  -1  10   15.61    1.43
  -1  -1  10   19.58    1.53
  -1  -1  10   18.70    1.13
   0   1 -10    3.27    0.75
   0   1 -10    4.24    0.62
   0  -1  10    3.33    0.65
   0  -1  10    4.16    0.89
   0  -1  10    4.84    0.90
  -1   1 -10    6.93    1.00
  -1   1 -10    7.97    0.81
   1  -1  10    8.68    1.13
   1  -1  10    9.34    1.15
   1  -1  10    8.43    0.93
  -2   1 -10    5.31    0.74
  -2   1 -10    5.76    0.94
   2  -1  10    7.12    1.05
   2  -1  10    6.79    1.02
   2  -1  10    4.98    0.81
  -3   1 -10    9.19    0.98
  -3   1 -10   12.24    1.36
   3  -1  10    9.55    1.13
   3  -1  10   11.97    1.33
   3  -1  10   10.34    1.14
  -4   1 -10    4.75    0.92
   4  -1  10    5.77    1.00
   5  -1  10   -1.02    0.51
   6  -1  10   -0.03    0.70
  -7   0  10   26.60    1.43
   6   0 -10    7.91    1.49
  -6   0  10    7.47    0.84
  -6   0  10    7.44    1.36
   5   0 -10   10.34    1.51
  -5   0  10   12.50    1.55
  -5   0  10    8.27    1.34
   4   0 -10   16.24    1.69
  -4   0  10   14.30    0.88
  -4   0  10   12.62    1.46
  -4   0  10   15.48    1.50
   3   0 -10    1.26    0.69
  -3   0  10    1.92    0.74
  -3   0  10    3.01    0.74
  -3   0  10    2.37    0.43
   2   0 -10   52.94    2.29
  -2   0  10   54.89    2.42
  -2   0  10   52.92    2.26
  -2   0  10   52.48    1.68
   1   0 -10    0.62    0.49
  -1   0  10    0.31    0.54
  -1   0  10    0.24    0.47
  -1   0  10    0.85    0.37
   0   0 -10    0.42    0.46
   0   0  10    0.47    0.50
   0   0  10    0.57    0.56
   0   0  10    0.70    0.37
  -1   0 -10    0.90    0.49
   1   0  10    1.72    0.55
   1   0  10    1.14    0.45
   1   0  10    0.63    0.52
  -2   0 -10   11.61    1.14
   2   0  10   11.18    1.19
   2   0  10   11.53    1.01
   2   0  10   10.73    1.14
  -3   0 -10    0.28    0.47
   3   0  10   -0.02    0.54
   3   0  10   -0.13    0.42
   3   0  10   -0.08    0.48
  -4   0 -10    0.75    0.62
   4   0  10    1.22    0.58
   4   0  10    0.21    0.67
   4   0  10    0.47    0.55
  -5   0 -10   -0.33    0.59
   5   0  10    0.20    0.61
   5   0  10    0.67    0.61
   6   0  10   -0.23    0.72
  -7   1  10   11.29    1.75
  -7   1  10   12.88    0.98
   6  -1 -10    8.11    1.50
  -6   1  10    8.72    1.35
  -6   1  10    7.01    0.74
   5  -1 -10   16.01    1.74
  -5   1  10   17.51    1.69
  -5   1  10   15.60    0.90
  -5   1  10   17.44    1.87
   4  -1 -10    7.06    1.15
  -4   1  10    8.91    0.66
  -4   1  10    7.00    1.04
  -4   1  10    7.94    1.21
   3  -1 -10   14.66    1.44
  -3   1  10   14.20    1.49
  -3   1  10   13.94    1.34
   2  -1 -10    2.87    0.71
  -2   1  10    2.93    0.72
  -2   1  10    2.79    0.36
  -2   1  10    1.84    0.55
   1  -1 -10    0.20    0.41
  -1   1  10   -0.56    0.40
  -1   1  10    0.21    0.41
  -1   1  10    0.01    0.20
  -1   1  10    0.16    0.20
  -1   1  10   -0.09    0.20
   0  -1 -10    6.78    0.83
   0   1  10    8.27    0.60
   0   1  10    8.19    0.53
   0   1  10    7.83    0.47
   0   1  10    7.91    0.97
   0   1  10    6.67    0.88
  -1  -1 -10    0.56    0.40
   1   1  10    0.44    0.45
   1   1  10    0.49    0.31
   1   1  10    1.15    0.50
  -2  -1 -10    6.93    0.82
   2   1  10    9.49    0.76
   2   1  10    8.57    0.96
   2   1  10   10.56    1.09
  -3  -1 -10   32.16    1.63
   3   1  10   35.50    1.77
   3   1  10   30.66    1.38
   3   1  10   32.78    1.68
  -4  -1 -10   11.39    1.18
   4   1  10   10.28    1.20
   4   1  10    7.37    0.98
   4   1  10    9.55    0.97
  -5  -1 -10    2.18    0.72
   5   1  10    1.78    0.62
   5   1  10    2.37    0.71
  -6  -1 -10    0.63    0.70
   6   1  10    2.09    0.77
   6   1  10    2.01    0.78
   7   1  10    5.61    1.12
   7  -2 -10    1.70    1.25
  -7   2  10    3.73    1.16
  -7   2  10    4.64    0.59
   6  -2 -10    1.11    0.95
  -6   2  10    0.15    0.32
  -6   2  10    0.97    0.70
   5  -2 -10   30.67    2.12
  -5   2  10   28.24    1.00
  -5   2  10   31.24    1.91
   4  -2 -10   25.68    1.81
  -4   2  10   24.55    0.79
  -4   2  10   24.72    1.78
  -4   2  10   23.22    1.55
   3  -2 -10   27.85    1.65
  -3   2  10   26.14    1.66
  -3   2  10   22.55    0.52
  -3   2  10   24.56    1.46
   2  -2 -10    4.35    0.78
  -2   2  10    3.11    0.73
  -2   2  10    4.05    0.71
  -2   2  10    3.79    0.49
   1  -2 -10    0.93    0.44
  -1   2  10    0.95    0.45
  -1   2  10    0.50    0.22
  -1   2  10    0.43    0.47
   0  -2 -10    0.47    0.19
   0  -2 -10    0.90    0.43
   0   2  10    0.58    0.44
   0   2  10    0.59    0.23
   0   2  10    0.32    0.37
  -1  -2 -10   45.42    1.72
   1   2  10   47.82    1.86
   1   2  10   44.91    1.45
   1   2  10   45.87    1.84
  -2  -2 -10   11.05    0.97
   2   2  10   10.39    1.00
   2   2  10   13.24    1.15
  -3  -2 -10   32.14    1.50
   3   2  10   31.30    1.57
   3   2  10   32.43    1.00
   3   2  10   31.60    1.59
  -4  -2 -10    3.98    0.73
   4   2  10    2.56    0.48
   4   2  10    4.26    0.80
   4   2  10    2.42    0.65
  -5  -2 -10    7.11    1.00
   5   2  10    4.05    0.80
   5   2  10    5.30    0.73
  -6  -2 -10   19.72    1.69
   6   2  10   14.46    1.40
   6   2  10   18.86    1.29
   7   2  10   12.91    1.23
   7   2  10   10.16    1.30
   7  -3 -10    0.50    1.14
  -7   3  10   -0.73    0.69
   6  -3 -10    3.67    1.21
  -6   3  10    2.66    0.90
   5  -3 -10    2.67    0.94
  -5   3  10    1.97    0.75
   4  -3 -10    2.13    0.77
  -4   3  10    1.53    0.73
  -4   3  10    1.35    0.57
   3  -3 -10    0.16    0.52
  -3   3  10   -0.09    0.38
  -3   3  10    0.31    0.50
   2  -3 -10    6.97    0.91
  -2   3  10    5.77    0.76
  -2   3  10    6.81    0.89
   1  -3 -10    2.98    0.59
   1  -3 -10    2.32    0.28
  -1   3  10    2.67    0.59
  -1   3  10    2.18    0.33
   0  -3 -10   14.83    0.58
   0  -3 -10   14.18    0.71
   0  -3 -10   13.23    0.86
   0   3  10   13.62    0.66
  -1  -3 -10   66.00    1.72
  -1  -3 -10   69.18    2.06
   1   3  10   67.94    1.82
  -2  -3 -10  112.73    2.99
   2   3  10  111.69    3.12
   2   3  10  113.84    3.15
  -3  -3 -10    0.50    0.37
   3   3  10   -0.14    0.35
   3   3  10    0.19    0.36
  -4  -3 -10    5.04    0.71
   4   3  10    3.85    0.69
   4   3  10    4.40    0.72
  -5  -3 -10   23.52    1.43
   5   3  10   22.85    1.46
  -6  -3 -10    4.77    0.91
   6   3  10    4.50    0.85
   6   3  10    4.63    0.50
  -7  -3 -10    2.19    0.83
   7   3  10    0.83    0.65
   7   3  10    0.53    0.49
   6  -4 -10    0.70    0.91
  -6   4  10   -0.34    0.61
   5  -4 -10    4.73    1.10
  -5   4  10    8.50    1.19
   4  -4 -10   22.24    1.67
  -4   4  10   20.95    1.41
   3  -4 -10   14.62    1.34
  -3   4  10   16.65    1.15
  -3   4  10   16.74    0.68
  -3   4  10   16.93    1.43
   2  -4 -10    7.98    0.90
  -2   4  10    6.12    0.80
  -2   4  10    8.29    0.80
   1  -4 -10    8.53    0.84
  -1   4  10    9.08    0.55
  -1   4  10    9.54    0.81
   0  -4 -10   78.05    2.19
   0  -4 -10   80.29    1.94
   0   4  10   78.21    2.22
   0   4  10   75.17    1.80
   0   4  10   75.10    1.90
  -1  -4 -10   77.95    2.14
  -1  -4 -10   78.03    2.00
   1   4  10   78.77    1.96
   1   4  10   80.10    1.86
   1   4  10   79.47    2.27
  -2  -4 -10   12.21    0.73
   2   4  10    9.39    0.75
   2   4  10   12.98    0.66
  -3  -4 -10    0.95    0.36
   3   4  10    0.84    0.39
   3   4  10    0.62    0.32
  -4  -4 -10    6.80    0.76
   4   4  10    7.21    0.81
   4   4  10    7.34    0.84
  -5  -4 -10    1.16    0.48
   5   4  10    1.71    0.56
  -6  -4 -10   15.68    1.38
   6   4  10   14.40    1.32
  -7  -4 -10    4.07    0.92
   7   4  10    4.24    0.85
  -6   5  10    3.77    1.04
   5  -5 -10   18.61    1.85
  -5   5  10   20.01    1.73
   4  -5 -10   10.48    1.29
  -4   5  10    8.71    1.07
   3  -5 -10    4.96    0.88
  -3   5  10    4.52    0.69
   2  -5 -10    3.64    0.66
  -2   5  10    4.32    0.58
  -2   5  10    3.57    0.65
   1  -5 -10   51.81    1.78
  -1   5  10   51.97    1.61
  -1   5  10   48.34    1.41
  -1   5  10   52.64    1.81
   0  -5 -10  148.28    3.13
   0  -5 -10  142.02    3.40
   0   5  10  144.74    3.17
   0   5  10  146.49    3.02
   0   5  10  145.40    3.55
   0   5  10  140.87    3.33
  -1  -5 -10    8.53    0.48
  -1  -5 -10    9.18    0.57
   1   5  10    8.78    0.68
   1   5  10    8.17    0.44
   1   5  10    8.15    0.39
   1   5  10   10.22    0.67
  -2  -5 -10    0.07    0.22
  -2  -5 -10    0.40    0.21
   2   5  10   -0.04    0.13
   2   5  10    0.09    0.16
   2   5  10    0.30    0.27
   2   5  10    0.09    0.28
  -3  -5 -10    0.16    0.22
   3   5  10   -0.07    0.28
   3   5  10   -0.01    0.25
  -4  -5 -10    5.04    0.60
   4   5  10    5.34    0.66
   4   5  10    4.06    0.61
  -5  -5 -10    8.54    0.88
   5   5  10    7.76    0.89
  -6  -5 -10   -0.13    0.38
   6   5  10   -0.58    0.34
  -7  -5 -10    7.68    1.04
   7   5  10    7.29    1.00
  -6   6  10    7.00    1.27
   5  -6 -10   14.58    1.64
  -5   6  10   14.61    1.50
   4  -6 -10   19.27    1.69
  -4   6  10   19.44    1.37
   3  -6 -10    6.00    0.95
  -3   6  10    6.04    0.77
   2  -6 -10   16.43    1.12
  -2   6  10   16.85    0.94
   1  -6 -10   44.85    1.62
  -1   6  10   44.20    1.61
  -1   6  10   45.16    1.40
  -1   6  10   43.76    1.34
   0  -6 -10    3.52    0.43
   0  -6 -10    3.83    0.29
   0   6  10    4.24    0.51
   0   6  10    3.44    0.30
   0   6  10    3.56    0.27
   0   6  10    4.16    0.40
  -1  -6 -10    0.77    0.22
  -1  -6 -10    1.04    0.18
   1   6  10    0.99    0.27
   1   6  10    0.94    0.30
   1   6  10    0.80    0.17
   1   6  10    0.89    0.14
  -2  -6 -10    5.80    0.41
  -2  -6 -10    6.35    0.43
   2   6  10    6.18    0.51
   2   6  10    6.42    0.40
   2   6  10    6.33    0.56
   2   6  10    5.69    0.35
  -3  -6 -10    1.56    0.30
   3   6  10    1.51    0.38
   3   6  10    1.67    0.35
  -4  -6 -10    1.63    0.34
   4   6  10    1.68    0.41
  -5  -6 -10    2.23    0.48
   5   6  10    3.03    0.54
  -6  -6 -10    0.34    0.43
   6   6  10    0.37    0.43
  -7  -6 -10    0.03    0.50
   7   6  10    0.27    0.49
  -5   7  10    3.59    0.88
   4  -7 -10    0.57    0.67
  -4   7  10    0.90    0.54
   3  -7 -10    1.81    0.62
  -3   7  10    1.43    0.48
   2  -7 -10   12.39    1.08
  -2   7  10   13.12    0.85
   1  -7 -10   15.15    0.92
  -1   7  10   15.41    0.93
  -1   7  10   14.72    0.75
   0  -7 -10    0.50    0.26
   0  -7 -10    0.68    0.16
   0   7  10    0.63    0.15
   0   7  10    1.11    0.33
   0   7  10    0.69    0.19
   0   7  10    0.50    0.20
  -1  -7 -10    3.25    0.20
  -1  -7 -10    2.98    0.27
   1   7  10    3.40    0.32
   1   7  10    3.23    0.23
   1   7  10    2.81    0.16
   1   7  10    2.86    0.21
  -2  -7 -10    2.63    0.25
  -2  -7 -10    1.98    0.25
   2   7  10    1.82    0.20
   2   7  10    2.22    0.31
   2   7  10    2.38    0.22
   2   7  10    2.04    0.27
   2   7  10    2.09    0.22
  -3  -7 -10    1.18    0.25
   3   7  10    0.95    0.27
   3   7  10    1.02    0.31
  -4  -7 -10    5.51    0.53
   4   7  10    4.13    0.54
  -5  -7 -10    2.50    0.44
   5   7  10    1.94    0.46
  -6  -7 -10    0.65    0.42
   6   7  10    0.11    0.37
   7   7  10    0.98    0.52
  -4   8  10   -0.09    0.52
   3  -8 -10    2.06    0.61
  -3   8  10    1.72    0.53
   2  -8 -10    9.16    0.94
  -2   8  10    8.96    0.80
   1  -8 -10   -0.17    0.31
  -1   8  10    0.54    0.26
   0  -8 -10   20.84    0.86
   0   8  10   22.61    0.71
   0   8  10   21.97    0.75
   0   8  10   22.86    0.67
   0   8  10   22.61    0.89
  -1  -8 -10    0.18    0.10
  -1  -8 -10    0.22    0.07
  -2  -8 -10    6.59    0.27
  -2  -8 -10    6.73    0.32
  -3  -8 -10   14.93    0.59
   3   8  10   15.24    0.67
   3   8  10   14.02    0.62
  -4  -8 -10    7.41    0.53
   4   8  10    8.45    0.63
  -5  -8 -10   -0.31    0.20
   5   8  10    0.34    0.33
  -6  -8 -10    2.65    0.52
   6   8  10    3.97    0.63
   7   8  10   12.75    1.17
  -3   9  10   -0.32    0.40
   2  -9 -10    1.21    0.46
  -2   9  10    0.98    0.42
   1  -9 -10    0.17    0.31
  -1   9  10    0.69    0.31
   0  -9 -10   12.47    0.67
   0   9  10   12.98    0.57
   0   9  10   12.20    0.56
  -1  -9 -10    0.88    0.13
  -1  -9 -10    0.79    0.15
   1   9  10    0.81    0.12
  -2  -9 -10   18.02    0.43
  -2  -9 -10   18.32    0.54
  -3  -9 -10   19.66    0.63
   3   9  10   18.41    0.67
  -4  -9 -10    5.52    0.47
   4   9  10    5.41    0.51
  -5  -9 -10    1.54    0.36
   5   9  10    1.50    0.39
  -6  -9 -10   11.86    0.89
   6   9  10   14.50    1.00
   7   9  10    4.07    0.71
  -2  10  10   -0.20    0.35
   1 -10 -10    0.21    0.31
  -1  10  10    0.22    0.32
   0 -10 -10    0.06    0.22
   0  10  10    0.13    0.25
  -1 -10 -10   25.57    0.78
   1  10  10   26.19    0.72
  -2 -10 -10   32.68    0.79
   2  10  10   33.55    0.98
   2  10  10   34.37    0.80
  -3 -10 -10    8.22    0.39
   3  10  10    7.83    0.43
  -4 -10 -10    6.58    0.46
   4  10  10    7.42    0.54
  -5 -10 -10   10.82    0.68
   5  10  10   10.14    0.75
   6  10  10    0.04    0.35
  -1  11  10    2.97    0.52
   0 -11 -10   10.27    0.70
   0  11  10    8.99    0.65
  -1 -11 -10   27.43    0.90
   1  11  10   28.29    0.87
  -2 -11 -10    4.42    0.31
   2  11  10    4.74    0.35
  -3 -11 -10    4.64    0.34
   3  11  10    5.40    0.39
  -4 -11 -10    0.08    0.19
   4  11  10   -0.11    0.22
   5  11  10    1.39    0.41
   6  11  10    4.09    0.61
   1  12  10    9.15    0.61
   2  12  10    2.52    0.34
   3  12  10    0.91    0.27
   4  12  10    0.34    0.27
   5   6 -11    9.14    1.25
  -5  -6  11   12.15    1.50
   4   6 -11   20.76    1.62
  -4  -6  11   23.03    2.05
   3   6 -11   21.00    1.51
  -3  -6  11   18.46    1.85
   2   6 -11    0.38    0.54
  -2  -6  11    0.50    0.68
   1   6 -11    1.85    0.63
  -1  -6  11    3.19    0.94
   0   6 -11   -0.15    0.50
   0  -6  11    0.22    0.67
   6   5 -11    5.08    1.01
  -6  -5  11    5.36    1.00
   5   5 -11   15.21    1.48
  -5  -5  11   15.27    1.54
   4   5 -11   14.88    1.40
  -4  -5  11   13.54    1.46
   3   5 -11    2.75    0.73
  -3  -5  11    3.15    0.80
   2   5 -11    2.21    0.64
  -2  -5  11    1.64    0.76
   1   5 -11    1.40    0.56
  -1  -5  11    0.21    0.62
   0   5 -11    0.80    0.52
   0  -5  11    0.81    0.67
  -1   5 -11    4.07    0.81
   1  -5  11    4.02    1.08
  -2   5 -11    0.64    0.56
   2  -5  11    1.60    0.90
   6   4 -11    8.04    1.25
  -6  -4  11    5.18    0.97
   5   4 -11    7.85    1.10
  -5  -4  11    5.40    0.96
   4   4 -11    6.56    0.95
  -4  -4  11    5.51    0.95
   3   4 -11   17.39    1.45
  -3  -4  11   12.66    1.32
   2   4 -11    1.97    0.63
  -2  -4  11    2.91    0.79
   1   4 -11   -0.55    0.37
  -1  -4  11    0.34    0.54
   0   4 -11   11.78    1.17
   0  -4  11    8.48    1.17
  -1   4 -11    1.17    0.52
   1  -4  11    0.75    0.70
  -2   4 -11    1.12    0.58
   2  -4  11    0.18    0.64
  -3   4 -11    3.51    0.82
   3  -4  11    3.22    1.00
   7   3 -11    0.25    0.64
  -7  -3  11    0.67    0.48
   6   3 -11    2.19    0.80
  -6  -3  11    2.29    0.67
   5   3 -11    3.89    0.82
  -5  -3  11    5.72    0.88
   4   3 -11   -0.43    0.40
  -4  -3  11    0.43    0.49
   3   3 -11    1.04    0.53
  -3  -3  11    0.54    0.49
   2   3 -11    2.70    0.65
   2   3 -11    1.59    0.92
  -2  -3  11    2.05    0.66
   1   3 -11   14.02    1.25
   1   3 -11   14.44    1.68
  -1  -3  11   14.23    1.38
   0   3 -11   18.78    1.24
   0  -3  11   18.67    1.45
  -1   3 -11    2.34    0.61
   1  -3  11    2.23    0.76
  -2   3 -11    2.59    0.68
   2  -3  11    3.11    0.88
  -3   3 -11   -0.05    0.44
   3  -3  11    0.27    0.63
  -4   3 -11   21.89    1.50
   4  -3  11   16.70    1.81
  -7  -2  11    0.91    0.53
  -6  -2  11    4.38    0.76
   5   2 -11    0.19    0.50
  -5  -2  11    0.70    0.44
   4   2 -11    9.20    1.42
   4   2 -11   11.64    1.23
  -4  -2  11   10.07    1.01
  -4  -2  11   12.49    1.53
   3   2 -11    0.56    0.55
   3   2 -11    0.45    0.74
  -3  -2  11    0.98    0.88
  -3  -2  11    1.08    0.72
  -3  -2  11    1.00    0.48
   2   2 -11   25.44    1.43
   2   2 -11   26.14    1.89
  -2  -2  11   25.22    1.80
  -2  -2  11   23.91    1.38
  -2  -2  11   24.96    1.95
   1   2 -11   32.88    2.04
   1   2 -11   33.24    1.61
  -1  -2  11   29.36    1.57
  -1  -2  11   33.97    2.18
  -1  -2  11   29.24    1.92
   0   2 -11   10.03    0.99
   0   2 -11   10.17    1.29
   0  -2  11   12.75    1.38
   0  -2  11   13.59    1.56
   0  -2  11   11.75    1.15
  -1   2 -11   17.79    1.70
  -1   2 -11   17.14    1.25
   1  -2  11   21.20    1.62
   1  -2  11   17.81    1.36
   1  -2  11   19.28    1.72
  -2   2 -11    2.80    0.65
  -2   2 -11    2.79    0.88
   2  -2  11    2.86    0.81
  -3   2 -11   12.61    1.17
   3  -2  11   10.56    1.26
  -4   2 -11    1.53    0.60
   4  -2  11    1.63    0.78
  -5   2 -11   -0.53    0.45
   5  -2  11   -0.06    0.65
  -7  -1  11    5.85    0.89
  -6  -1  11    2.46    0.56
   5   1 -11    2.46    1.13
  -5  -1  11    3.00    0.99
  -5  -1  11    3.99    0.64
   4   1 -11    4.02    1.11
  -4  -1  11    3.26    1.11
  -4  -1  11    3.55    0.95
  -4  -1  11    4.18    0.63
   3   1 -11   21.85    1.98
  -3  -1  11   18.30    1.81
  -3  -1  11   17.65    1.65
  -3  -1  11   16.20    1.03
   2   1 -11   22.85    1.92
  -2  -1  11   16.08    1.58
  -2  -1  11   19.49    1.13
  -2  -1  11   23.49    1.66
   1   1 -11   40.10    2.09
  -1  -1  11   36.53    1.57
  -1  -1  11   36.22    2.02
  -1  -1  11   41.95    2.27
   0   1 -11   25.31    1.67
   0  -1  11   23.19    1.30
   0  -1  11   23.09    1.60
   0  -1  11   21.29    1.73
  -1   1 -11    0.27    0.56
   1  -1  11    0.09    0.62
   1  -1  11    0.28    0.41
   1  -1  11    1.23    0.63
  -2   1 -11    5.48    1.00
   2  -1  11    5.25    0.84
   2  -1  11    6.44    1.11
   2  -1  11    5.95    1.02
  -3   1 -11    5.56    1.01
   3  -1  11    4.77    0.95
   3  -1  11    5.69    0.93
   4  -1  11    0.24    0.58
   5  -1  11    0.96    0.74
  -7   0  11    6.08    0.84
   6   0 -11    4.67    1.33
  -6   0  11    6.51    1.29
  -6   0  11    6.00    0.79
   5   0 -11    0.84    0.90
  -5   0  11    1.20    0.77
   4   0 -11    7.71    1.28
  -4   0  11    3.57    1.02
  -4   0  11    5.24    1.05
  -4   0  11    5.02    0.62
   3   0 -11   13.59    1.55
  -3   0  11   17.86    1.76
  -3   0  11   13.48    1.44
  -3   0  11   11.96    0.81
   2   0 -11   85.46    3.18
  -2   0  11   87.69    3.31
  -2   0  11   88.89    2.41
  -2   0  11   89.37    3.18
   1   0 -11   24.14    1.58
  -1   0  11   26.20    1.66
  -1   0  11   24.30    1.11
  -1   0  11   23.82    1.66
   0   0 -11    1.07    0.58
   0   0  11    0.42    0.53
   0   0  11    0.60    0.64
   0   0  11    0.70    0.38
  -1   0 -11    1.46    0.57
   1   0  11    0.85    0.62
   1   0  11    1.94    0.62
   1   0  11    0.43    0.41
  -2   0 -11    1.21    0.63
   2   0  11    1.01    0.64
   2   0  11    1.31    0.52
   2   0  11    0.51    0.55
  -3   0 -11    1.17    0.63
   3   0  11    0.51    0.53
   3   0  11    0.54    0.55
   3   0  11    2.24    0.79
  -4   0 -11    0.39    0.59
   4   0  11    2.12    0.69
   4   0  11    1.10    0.64
   5   0  11    1.07    0.73
   6   0  11    0.93    0.82
  -7   1  11    7.27    0.78
  -7   1  11    5.01    1.30
   6  -1 -11    6.07    1.35
  -6   1  11    7.56    0.75
  -6   1  11    9.08    1.52
   5  -1 -11    2.45    1.04
  -5   1  11    3.43    0.97
  -5   1  11    4.39    0.56
   4  -1 -11   26.25    1.98
  -4   1  11   31.78    2.12
  -4   1  11   28.44    1.09
  -4   1  11   26.15    1.81
   3  -1 -11   18.48    1.73
  -3   1  11   19.69    1.78
  -3   1  11   18.47    1.45
   2  -1 -11    4.22    0.85
  -2   1  11    3.72    0.79
  -2   1  11    3.85    0.41
  -2   1  11    4.33    0.89
   1  -1 -11   -0.06    0.44
  -1   1  11    0.80    0.57
  -1   1  11    0.00    0.44
  -1   1  11   -0.22    0.21
   0  -1 -11    0.84    0.49
   0   1  11    0.23    0.51
   0   1  11    0.63    0.27
   0   1  11    1.17    0.52
  -1  -1 -11    0.34    0.47
   1   1  11    0.30    0.45
   1   1  11    0.11    0.30
   1   1  11    0.04    0.47
  -2  -1 -11    0.32    0.47
   2   1  11    0.16    0.34
   2   1  11    0.44    0.49
   2   1  11    1.21    0.62
  -3  -1 -11    0.48    0.50
   3   1  11    1.44    0.46
   3   1  11    0.58    0.60
   3   1  11    1.60    0.59
  -4  -1 -11   -0.37    0.48
   4   1  11    0.51    0.55
   4   1  11    0.04    0.50
  -5  -1 -11    1.47    0.74
   5   1  11    0.83    0.59
   5   1  11    1.47    0.66
   6   1  11    0.49    0.69
   7  -2 -11    4.41    1.50
  -7   2  11    5.84    0.57
  -7   2  11    7.14    1.49
   6  -2 -11    0.92    1.03
  -6   2  11   -0.60    0.64
  -6   2  11    1.07    0.32
   5  -2 -11    0.49    0.78
  -5   2  11    0.63    0.26
  -5   2  11   -0.06    0.60
   4  -2 -11    1.53    0.80
  -4   2  11    1.18    0.66
  -4   2  11    0.99    0.19
   3  -2 -11   18.17    1.62
  -3   2  11   21.04    1.61
  -3   2  11   22.22    1.50
   2  -2 -11    9.96    1.19
  -2   2  11   12.42    1.29
  -2   2  11    9.78    1.05
   1  -2 -11    8.73    1.02
  -1   2  11    6.43    0.91
  -1   2  11    6.86    0.88
   0  -2 -11    3.78    0.66
   0   2  11    4.00    0.74
   0   2  11    3.87    0.74
  -1  -2 -11    3.19    0.63
   1   2  11    3.37    0.69
   1   2  11    3.40    0.67
  -2  -2 -11    0.96    0.46
   2   2  11    0.69    0.50
   2   2  11    1.18    0.54
  -3  -2 -11    0.40    0.45
   3   2  11    0.99    0.53
   3   2  11    0.87    0.53
   3   2  11    0.23    0.23
  -4  -2 -11   -0.54    0.42
   4   2  11    0.16    0.43
   4   2  11   -0.21    0.30
  -5  -2 -11    0.03    0.53
   5   2  11   -0.11    0.42
   5   2  11    0.32    0.53
  -6  -2 -11    7.08    1.20
   6   2  11    5.79    0.97
   6   2  11    5.82    0.82
  -7   3  11    0.45    0.89
   6  -3 -11    0.04    0.90
  -6   3  11   -0.14    0.75
   5  -3 -11    5.66    1.23
  -5   3  11    6.76    1.15
   4  -3 -11    0.90    0.75
  -4   3  11    0.75    0.57
   3  -3 -11    8.87    1.18
  -3   3  11    8.83    1.05
  -3   3  11    7.56    1.08
   2  -3 -11   26.40    1.57
  -2   3  11   27.55    1.48
  -2   3  11   24.89    1.56
   1  -3 -11    3.18    0.65
  -1   3  11    3.48    0.67
  -1   3  11    3.35    0.62
   0  -3 -11    3.01    0.59
   0   3  11    3.49    0.66
   0   3  11    3.69    0.62
  -1  -3 -11    0.52    0.38
   1   3  11    0.64    0.45
   1   3  11    0.07    0.36
  -2  -3 -11   46.53    1.76
   2   3  11   46.20    1.87
   2   3  11   48.58    1.89
  -3  -3 -11   -0.43    0.33
   3   3  11    0.04    0.37
   3   3  11   -0.21    0.38
  -4  -3 -11    0.15    0.43
   4   3  11    0.39    0.43
  -5  -3 -11   14.21    1.30
   5   3  11   12.96    1.27
  -6  -3 -11   19.80    1.57
   6   3  11   23.33    1.63
   7   3  11    1.03    0.70
   6  -4 -11    4.10    1.23
  -6   4  11    3.38    1.03
   5  -4 -11    1.85    0.95
  -5   4  11    1.13    0.71
   4  -4 -11   14.36    1.60
  -4   4  11   11.48    1.27
   3  -4 -11    1.87    0.71
  -3   4  11    2.53    0.65
   2  -4 -11    0.23    0.45
  -2   4  11    0.14    0.46
  -2   4  11   -0.20    0.31
   1  -4 -11   22.99    1.24
  -1   4  11   23.85    1.32
  -1   4  11   21.55    1.16
   0  -4 -11    2.42    0.49
   0   4  11    2.25    0.52
   0   4  11    2.38    0.50
   0   4  11    1.96    0.33
  -1  -4 -11   30.59    1.27
   1   4  11   30.86    1.37
   1   4  11   29.56    1.34
  -2  -4 -11    0.71    0.33
   2   4  11    0.23    0.32
   2   4  11    0.47    0.32
  -3  -4 -11    6.72    0.74
   3   4  11    6.22    0.75
   3   4  11    6.73    0.81
  -4  -4 -11   17.54    1.14
   4   4  11   16.49    1.16
  -5  -4 -11   25.11    1.46
   5   4  11   22.72    1.44
  -6  -4 -11    0.76    0.61
   6   4  11    0.54    0.53
   7   4  11    1.35    0.70
  -6   5  11    5.76    1.20
   5  -5 -11    7.84    1.38
  -5   5  11    7.23    1.14
   4  -5 -11    3.84    0.94
  -4   5  11    3.90    0.82
   3  -5 -11    0.10    0.56
  -3   5  11    0.45    0.44
   2  -5 -11    7.83    0.94
  -2   5  11    9.22    1.03
  -2   5  11    7.94    0.83
   1  -5 -11    0.71    0.39
  -1   5  11    0.31    0.42
  -1   5  11    0.72    0.38
   0  -5 -11  102.11    2.74
   0   5  11  107.40    2.89
   0   5  11  101.38    2.72
   0   5  11  101.63    2.43
  -1  -5 -11   44.24    1.47
   1   5  11   44.40    1.59
   1   5  11   44.15    1.26
   1   5  11   45.55    1.58
  -2  -5 -11    1.01    0.31
   2   5  11    0.66    0.38
   2   5  11    0.76    0.36
  -3  -5 -11    6.68    0.66
   3   5  11    6.34    0.72
   3   5  11    6.10    0.66
  -4  -5 -11   17.03    1.05
   4   5  11   15.11    1.05
  -5  -5 -11    7.30    0.87
   5   5  11    7.52    0.90
  -6  -5 -11    0.23    0.50
   6   5  11    0.61    0.51
   7   5  11    0.92    0.61
  -5   6  11    2.71    0.82
   4  -6 -11    5.74    1.08
  -4   6  11    6.01    0.94
   3  -6 -11    4.92    0.85
  -3   6  11    4.19    0.72
   2  -6 -11   14.37    1.11
  -2   6  11   13.72    0.95
   1  -6 -11   72.37    2.26
  -1   6  11   70.86    2.28
  -1   6  11   73.19    2.08
   0  -6 -11   29.21    1.16
   0   6  11   26.08    1.19
   0   6  11   28.35    0.90
   0   6  11   28.96    1.10
  -1  -6 -11    4.59    0.38
  -1  -6 -11    4.50    0.46
   1   6  11    5.56    0.57
   1   6  11    4.35    0.31
   1   6  11    4.81    0.36
   1   6  11    5.41    0.57
  -2  -6 -11    0.97    0.28
   2   6  11    1.68    0.39
   2   6  11    1.21    0.34
  -3  -6 -11   13.42    0.76
   3   6  11   14.92    0.91
   3   6  11   13.66    0.88
  -4  -6 -11   11.06    0.78
   4   6  11   10.35    0.90
  -5  -6 -11    1.15    0.44
   5   6  11    0.38    0.41
  -6  -6 -11    0.55    0.48
   6   6  11    0.13    0.43
   7   6  11   11.54    1.28
  -5   7  11    8.76    1.24
   4  -7 -11   -0.69    0.62
  -4   7  11    0.10    0.51
   3  -7 -11    8.02    1.03
  -3   7  11    7.58    0.90
   2  -7 -11   15.18    1.11
  -2   7  11   13.56    0.95
   1  -7 -11   31.98    1.37
  -1   7  11   30.13    1.18
   0  -7 -11    0.16    0.26
   0   7  11   -0.08    0.30
   0   7  11    0.37    0.18
   0   7  11   -0.12    0.25
  -1  -7 -11    2.32    0.24
  -1  -7 -11    2.19    0.32
   1   7  11    2.25    0.21
   1   7  11    2.30    0.23
   1   7  11    2.33    0.36
   1   7  11    2.20    0.35
  -2  -7 -11    8.94    0.50
   2   7  11    9.55    0.63
   2   7  11    9.27    0.45
   2   7  11    8.99    0.42
   2   7  11   10.24    0.57
  -3  -7 -11    0.42    0.23
   3   7  11    0.74    0.32
  -4  -7 -11    1.91    0.37
   4   7  11    2.73    0.51
  -5  -7 -11    1.85    0.44
   5   7  11    2.82    0.53
  -6  -7 -11    4.80    0.74
   6   7  11    5.24    0.75
   7   7  11   -0.41    0.39
  -4   8  11    0.18    0.52
   3  -8 -11    5.77    0.88
  -3   8  11    5.82    0.83
   2  -8 -11   16.88    1.16
  -2   8  11   19.19    1.09
   1  -8 -11    5.21    0.64
  -1   8  11    4.19    0.52
   0  -8 -11   11.82    0.69
   0   8  11   12.19    0.61
  -1  -8 -11    0.76    0.14
  -1  -8 -11    0.90    0.22
   1   8  11    0.72    0.11
   1   8  11    0.80    0.21
  -2  -8 -11    2.03    0.24
  -2  -8 -11    2.22    0.24
   2   8  11    1.98    0.21
   2   8  11    2.01    0.18
   2   8  11    2.12    0.20
   2   8  11    1.63    0.30
  -3  -8 -11   22.69    0.82
   3   8  11   24.26    0.93
  -4  -8 -11    0.12    0.20
   4   8  11    0.07    0.28
  -5  -8 -11    2.66    0.47
   5   8  11    2.45    0.51
  -6  -8 -11   -0.04    0.33
   6   8  11   -0.01    0.36
   7   8  11    3.70    0.72
  -3   9  11    4.75    0.78
   2  -9 -11    0.52    0.43
  -2   9  11    1.08    0.47
   1  -9 -11   12.62    0.87
  -1   9  11   13.95    0.80
   0  -9 -11    4.80    0.48
   0   9  11    4.37    0.40
  -1  -9 -11    0.31    0.09
  -1  -9 -11    0.33    0.14
  -2  -9 -11   14.00    0.43
  -2  -9 -11   11.92    0.37
  -3  -9 -11    2.16    0.26
   3   9  11    2.03    0.30
  -4  -9 -11    1.52    0.30
   4   9  11    2.10    0.39
  -5  -9 -11    1.05    0.34
   5   9  11    1.06    0.40
   6   9  11    1.92    0.51
   7   9  11   23.26    1.41
  -2  10  11    0.03    0.37
   1 -10 -11   -0.13    0.29
  -1  10  11    0.42    0.33
   0 -10 -11    1.08    0.30
   0  10  11    1.30    0.31
  -1 -10 -11   11.13    0.41
   1  10  11   10.61    0.42
  -3 -10 -11    0.89    0.18
   3  10  11    0.83    0.21
  -4 -10 -11    7.22    0.49
   4  10  11    5.98    0.53
  -5 -10 -11    5.15    0.55
   5  10  11    6.15    0.64
   6  10  11   17.26    1.09
  -1  11  11    1.77    0.46
   0  11  11    5.10    0.50
  -1 -11 -11   18.87    0.65
   1  11  11   20.00    0.69
   2  11  11    8.84    0.37
  -3 -11 -11    3.85    0.28
   3  11  11    4.46    0.34
  -4 -11 -11    0.09    0.19
   4  11  11   -0.08    0.25
   5  11  11    7.70    0.68
   1  12  11   12.59    0.66
  -2 -12 -11    1.61    0.20
   2  12  11    2.29    0.28
   3  12  11    1.36    0.26
   4  12  11    8.93    0.58
   3   6 -12   20.69    1.60
  -3  -6  12   16.02    1.73
   2   6 -12    1.52    0.65
  -2  -6  12    0.55    0.74
   5   5 -12   10.78    1.34
  -5  -5  12   14.02    1.52
   4   5 -12   16.47    1.54
  -4  -5  12   17.02    1.69
   3   5 -12    3.34    0.83
  -3  -5  12    1.37    0.73
   2   5 -12    0.44    0.52
  -2  -5  12   -0.47    0.55
   1   5 -12    3.29    0.76
  -1  -5  12    4.44    1.04
   0   5 -12    1.36    0.59
   0  -5  12    0.97    0.73
  -1   5 -12    2.85    0.78
   1  -5  12    4.83    1.09
   6   4 -12    8.58    1.26
  -6  -4  12    9.07    1.22
   5   4 -12   15.02    1.48
  -5  -4  12   11.62    1.31
   4   4 -12    4.30    0.86
  -4  -4  12    5.39    0.93
   3   4 -12    2.15    0.70
  -3  -4  12    0.97    0.61
   2   4 -12    3.19    0.76
  -2  -4  12    3.02    0.84
   1   4 -12    3.08    0.77
  -1  -4  12    1.73    0.72
   0   4 -12    9.52    1.12
   0  -4  12    8.15    1.22
  -1   4 -12    0.42    0.52
   1  -4  12    0.18    0.64
  -2   4 -12    2.99    0.76
   2  -4  12    3.51    1.00
   6   3 -12    4.08    0.96
  -6  -3  12    6.32    0.95
   5   3 -12    1.20    0.65
  -5  -3  12   -0.06    0.46
   4   3 -12    0.40    0.54
  -4  -3  12    0.27    0.45
   3   3 -12    1.20    0.58
  -3  -3  12    1.09    0.56
   2   3 -12    1.22    0.58
  -2  -3  12    0.67    0.57
   1   3 -12    3.94    0.75
  -1  -3  12    5.62    0.96
   0   3 -12    1.79    0.61
   0  -3  12    1.69    0.71
  -1   3 -12    0.53    0.52
   1  -3  12    0.12    0.53
  -2   3 -12   -0.33    0.46
   2  -3  12    0.51    0.70
  -3   3 -12   -0.49    0.44
   3  -3  12   -0.78    0.55
  -6  -2  12    1.68    0.55
  -5  -2  12   -0.13    0.37
   4   2 -12    9.23    1.61
  -4  -2  12    7.28    0.89
  -4  -2  12    7.14    1.51
   3   2 -12    1.85    1.00
  -3  -2  12    2.84    0.62
  -3  -2  12    2.85    0.99
   2   2 -12   10.85    1.50
  -2  -2  12   11.86    1.13
  -2  -2  12   15.72    1.80
  -2  -2  12   13.08    1.64
   1   2 -12   17.42    1.86
  -1  -2  12   14.34    1.68
  -1  -2  12   16.17    1.23
  -1  -2  12   18.05    1.94
   0   2 -12    3.33    0.99
   0  -2  12    3.34    0.96
   0  -2  12    1.54    0.61
  -1   2 -12    2.45    0.93
   1  -2  12    0.50    0.67
   1  -2  12    1.98    0.65
   2  -2  12    5.06    0.95
   3  -2  12   18.93    1.74
   4  -2  12    4.52    1.04
  -7  -1  12    0.65    0.57
  -6  -1  12    0.17    0.41
   5   1 -12    0.52    1.00
  -5  -1  12    0.75    0.45
  -5  -1  12    1.07    0.89
   4   1 -12    1.33    0.93
  -4  -1  12    0.85    0.43
  -4  -1  12    2.14    0.91
  -4  -1  12    0.91    0.96
   3   1 -12   18.81    1.93
  -3  -1  12   16.87    1.83
  -3  -1  12   14.27    1.02
  -3  -1  12   13.68    1.59
   2   1 -12   41.28    2.36
  -2  -1  12   38.42    1.64
  -2  -1  12   46.58    2.55
  -2  -1  12   37.79    2.22
   1   1 -12    7.82    1.17
  -1  -1  12    5.99    0.81
  -1  -1  12    7.81    1.26
  -1  -1  12    7.95    1.26
   0   1 -12    6.03    1.04
   0  -1  12    8.31    1.25
   0  -1  12    6.93    0.87
   0  -1  12    8.03    1.20
  -1   1 -12    1.11    0.70
   1  -1  12    1.27    0.57
   1  -1  12    1.41    0.77
   1  -1  12    1.06    0.82
  -2   1 -12   18.56    1.71
   2  -1  12   19.70    1.80
   2  -1  12   22.16    1.71
   2  -1  12   22.66    1.45
   3  -1  12   26.55    1.87
   3  -1  12   24.52    1.65
   4  -1  12    8.50    1.24
   5  -1  12    0.18    0.79
  -7   0  12    2.61    0.65
   6   0 -12    1.60    1.14
  -6   0  12    2.19    1.02
  -6   0  12    1.48    0.53
   5   0 -12    0.79    0.89
  -5   0  12    0.00    0.69
   4   0 -12    7.95    1.32
  -4   0  12    6.87    1.22
  -4   0  12    8.67    0.77
   3   0 -12   36.88    2.25
  -3   0  12   36.66    2.30
  -3   0  12   31.84    1.28
  -3   0  12   30.68    2.02
   2   0 -12   21.02    1.85
  -2   0  12   18.88    1.73
  -2   0  12   22.46    1.68
  -2   0  12   20.28    1.01
   1   0 -12   28.73    1.82
  -1   0  12   33.96    1.96
  -1   0  12   29.30    1.24
  -1   0  12   30.04    1.99
   0   0 -12   12.07    1.36
   0   0  12   12.29    1.41
   0   0  12    8.42    1.25
   0   0  12   11.46    0.87
  -1   0 -12   15.65    1.49
   1   0  12   17.96    1.59
   1   0  12   15.36    1.45
   1   0  12   16.80    1.06
  -2   0 -12   21.28    1.63
   2   0  12   18.64    1.70
   2   0  12   21.38    1.27
   2   0  12   20.99    1.69
  -3   0 -12    7.74    1.11
   3   0  12   10.74    1.29
   3   0  12    9.63    1.06
  -4   0 -12   -0.23    0.68
   4   0  12    0.66    0.64
   4   0  12   -0.15    0.52
   5   0  12    0.08    0.67
  -7   1  12    7.73    0.77
   6  -1 -12    1.09    1.06
  -6   1  12    0.98    0.42
  -6   1  12    1.20    0.90
   5  -1 -12   11.11    1.63
  -5   1  12    9.85    1.46
  -5   1  12   10.54    0.75
   4  -1 -12   47.05    2.62
  -4   1  12   46.21    1.40
  -4   1  12   43.11    2.39
   3  -1 -12   53.08    2.61
  -3   1  12   52.52    2.64
  -3   1  12   49.92    2.43
   2  -1 -12   16.89    1.59
  -2   1  12   16.47    1.51
  -2   1  12   17.61    0.71
  -2   1  12   19.82    1.78
   1  -1 -12    6.67    1.03
  -1   1  12    5.09    0.93
  -1   1  12    5.44    0.97
  -1   1  12    5.78    0.46
   0  -1 -12    1.33    0.59
   0   1  12    1.28    0.71
   0   1  12    0.27    0.26
   0   1  12    0.64    0.54
  -1  -1 -12   17.88    1.38
   1   1  12   20.19    0.85
   1   1  12   20.33    1.49
   1   1  12   21.30    1.57
   2   1  12   13.52    1.33
   2   1  12   15.41    0.86
   2   1  12   14.79    1.39
  -3  -1 -12    0.28    0.54
   3   1  12    1.73    0.49
   3   1  12    2.21    0.73
  -4  -1 -12   -0.49    0.50
   4   1  12    0.10    0.49
   4   1  12    0.18    0.57
  -5  -1 -12    0.56    0.73
   5   1  12   -0.40    0.53
   5   1  12   -0.14    0.58
   6   1  12    0.33    0.70
   6  -2 -12   10.39    1.65
  -6   2  12   10.28    1.60
   5  -2 -12   17.22    1.91
  -5   2  12   14.16    1.62
   4  -2 -12   10.76    1.54
  -4   2  12   10.87    1.35
   3  -2 -12   25.28    1.79
  -3   2  12   24.94    1.68
   2  -2 -12    8.11    1.10
  -2   2  12   10.01    1.19
  -2   2  12    9.76    1.24
   1  -2 -12    2.88    0.73
  -1   2  12    1.62    0.61
  -1   2  12    2.23    0.71
   0  -2 -12    7.27    0.92
   0   2  12    9.47    1.08
   0   2  12   10.80    1.15
  -1  -2 -12   17.11    1.24
   1   2  12   14.30    1.34
   1   2  12   16.31    1.31
  -2  -2 -12    0.37    0.47
   2   2  12   -0.27    0.42
   2   2  12   -0.05    0.48
  -3  -2 -12    0.33    0.46
   3   2  12    0.07    0.49
  -4  -2 -12    2.96    0.79
   4   2  12    3.64    0.36
   4   2  12    4.06    0.81
  -5  -2 -12    1.96    0.75
   5   2  12    1.52    0.45
   5   2  12    0.68    0.61
  -6  -2 -12    0.89    0.85
   6   2  12    1.81    0.75
   6   2  12    2.36    0.55
   6  -3 -12    6.18    1.42
  -6   3  12    7.50    1.38
   5  -3 -12    8.22    1.48
  -5   3  12    8.13    1.28
   4  -3 -12   23.55    1.85
  -4   3  12   23.98    1.71
   3  -3 -12    0.89    0.64
  -3   3  12    0.64    0.56
   2  -3 -12    0.09    0.53
  -2   3  12    0.69    0.52
  -2   3  12    0.74    0.61
   1  -3 -12    1.93    0.61
  -1   3  12    1.66    0.57
  -1   3  12    3.60    0.77
   0  -3 -12    4.10    0.69
   0   3  12    3.60    0.70
   0   3  12    4.61    0.78
  -1  -3 -12    1.99    0.54
   1   3  12    3.03    0.69
   1   3  12    2.95    0.66
  -2  -3 -12   25.36    1.38
   2   3  12   27.02    1.50
   2   3  12   26.41    1.49
   3   3  12    2.13    0.59
  -4  -3 -12    0.49    0.49
   4   3  12    0.61    0.47
  -5  -3 -12    0.63    0.60
   5   3  12    0.89    0.57
  -6  -3 -12    6.49    1.10
   6   3  12    5.73    1.04
  -6   4  12    2.41    1.05
   5  -4 -12    5.38    1.24
  -5   4  12    6.86    1.18
   4  -4 -12    2.33    0.93
  -4   4  12    1.32    0.67
   3  -4 -12    0.55    0.63
  -3   4  12    0.00    0.47
   2  -4 -12   11.02    1.21
  -2   4  12    9.87    1.05
   1  -4 -12    4.74    0.73
  -1   4  12    3.91    0.74
  -1   4  12    4.76    0.73
   0  -4 -12   18.29    1.11
   0   4  12   17.72    1.20
   0   4  12   19.55    1.17
  -1  -4 -12   27.92    1.31
   1   4  12   26.86    1.38
   1   4  12   27.36    1.39
  -2  -4 -12    4.21    0.63
   2   4  12    3.56    0.64
   2   4  12    3.42    0.65
  -3  -4 -12    0.29    0.39
   3   4  12   -0.11    0.38
  -4  -4 -12    9.08    1.00
   4   4  12    7.67    0.96
  -5  -4 -12   17.83    1.36
   5   4  12   13.76    1.31
  -6  -4 -12   12.37    1.33
   6   4  12   13.02    1.34
  -5   5  12    2.75    0.90
   4  -5 -12    0.07    0.68
  -4   5  12    0.41    0.56
   3  -5 -12    2.22    0.79
  -3   5  12    2.06    0.63
   2  -5 -12    1.10    0.51
  -2   5  12    0.46    0.41
   1  -5 -12   14.61    1.07
  -1   5  12   14.51    1.02
   0  -5 -12    5.41    0.68
   0   5  12    4.77    0.71
   0   5  12    7.14    0.81
  -1  -5 -12   26.88    1.19
   1   5  12   26.31    1.28
   1   5  12   24.35    1.25
  -2  -5 -12    5.78    0.63
   2   5  12    5.48    0.72
   2   5  12    6.91    0.75
  -3  -5 -12   13.18    0.89
   3   5  12   13.29    0.98
  -4  -5 -12   13.13    1.02
   4   5  12   12.86    1.14
  -5  -5 -12   26.43    1.50
   5   5  12   25.58    1.52
  -6  -5 -12    0.44    0.58
   6   5  12    0.12    0.51
   7   5  12    0.89    0.65
  -5   6  12   -0.24    0.60
   4  -6 -12   -0.06    0.64
  -4   6  12    0.16    0.53
   3  -6 -12    1.28    0.65
  -3   6  12    0.98    0.51
   2  -6 -12   15.75    1.32
  -2   6  12   13.12    1.01
   1  -6 -12   32.09    1.48
  -1   6  12   30.24    1.34
   0  -6 -12   46.33    1.66
   0   6  12   46.55    1.64
   0   6  12   50.21    1.80
  -1  -6 -12    8.81    0.67
   1   6  12    9.00    0.80
   1   6  12    8.76    0.77
  -2  -6 -12    0.18    0.25
   2   6  12    0.18    0.35
  -3  -6 -12   10.94    0.75
   3   6  12   11.00    0.93
  -4  -6 -12   26.22    1.25
   4   6  12   26.90    1.35
  -5  -6 -12    1.87    0.56
   5   6  12    1.00    0.50
  -6  -6 -12    2.09    0.66
   6   6  12    2.26    0.64
   7   6  12    0.28    0.52
  -4   7  12    0.75    0.62
   3  -7 -12    3.59    0.80
  -3   7  12    3.10    0.67
   2  -7 -12   31.49    1.63
  -2   7  12   33.12    1.48
   1  -7 -12   36.12    1.56
  -1   7  12   36.96    1.41
   0  -7 -12   15.82    0.89
   0   7  12   13.75    0.82
  -1  -7 -12    5.48    0.53
   1   7  12    4.57    0.54
  -2  -7 -12   30.59    1.09
   2   7  12   31.99    1.22
  -3  -7 -12   14.35    0.78
   3   7  12   14.29    0.89
  -4  -7 -12    4.69    0.58
   4   7  12    4.57    0.65
  -5  -7 -12    1.38    0.46
   5   7  12    0.95    0.47
   6   7  12    2.88    0.65
   7   7  12    1.32    0.62
  -4   8  12    4.07    0.87
  -3   8  12   16.11    1.23
   2  -8 -12   27.94    1.52
  -2   8  12   25.37    1.32
   1  -8 -12   11.55    0.89
  -1   8  12   12.14    0.83
   0  -8 -12    0.96    0.33
   0   8  12    0.90    0.35
  -1  -8 -12    0.90    0.28
   1   8  12    1.92    0.22
   1   8  12    2.18    0.37
  -2  -8 -12    2.26    0.30
   2   8  12    1.65    0.36
  -3  -8 -12    1.73    0.31
   3   8  12    0.96    0.35
  -4  -8 -12    0.02    0.22
   4   8  12    0.45    0.34
  -5  -8 -12    0.77    0.35
   5   8  12    0.87    0.43
   6   8  12    0.41    0.43
  -3   9  12   17.11    1.29
  -2   9  12    7.22    0.84
   1  -9 -12    1.69    0.44
  -1   9  12    1.93    0.47
   0  -9 -12    0.19    0.28
   0   9  12   -0.02    0.27
  -1  -9 -12    2.98    0.31
   1   9  12    2.79    0.32
   1   9  12    3.10    0.22
  -2  -9 -12    0.29    0.15
   2   9  12    0.10    0.13
   2   9  12    0.39    0.23
  -3  -9 -12    2.40    0.32
   3   9  12    3.09    0.40
  -4  -9 -12    1.44    0.30
   4   9  12    1.01    0.36
  -5  -9 -12    1.34    0.39
   5   9  12    1.03    0.41
   6   9  12   -0.21    0.37
  -2  10  12    0.27    0.48
  -1  10  12    2.41    0.52
   0 -10 -12    2.31    0.38
   0  10  12    2.92    0.42
  -1 -10 -12    4.14    0.23
   1  10  12    4.42    0.33
  -3 -10 -12    0.30    0.16
   3  10  12    0.33    0.22
  -4 -10 -12    1.73    0.31
   4  10  12    1.52    0.34
   5  10  12    3.52    0.52
   6  10  12   27.93    1.34
   0  11  12    3.29    0.46
  -1 -11 -12    2.18    0.19
   1  11  12    2.52    0.30
  -3 -11 -12    0.94    0.14
   3  11  12    0.88    0.21
   4  11  12    3.17    0.40
   5  11  12    9.88    0.76
   2  12  12    3.73    0.28
   3  12  12    1.57    0.23
   3   5 -13    9.86    1.26
  -3  -5  13    6.92    1.14
   2   5 -13    1.49    0.71
  -2  -5  13    0.21    0.61
   1   5 -13    4.89    0.93
  -1  -5  13    3.09    0.95
   5   4 -13   18.70    1.77
  -5  -4  13   21.77    1.61
   4   4 -13   16.99    1.63
  -4  -4  13    9.23    1.19
   3   4 -13    2.01    0.70
  -3  -4  13    1.22    0.66
   2   4 -13    0.39    0.58
  -2  -4  13    0.91    0.66
   1   4 -13   10.92    1.24
  -1  -4  13    9.49    1.30
   0   4 -13    7.41    1.04
   0  -4  13    4.31    0.99
  -1   4 -13    0.18    0.52
   1  -4  13   -0.19    0.65
  -5  -3  13   11.77    1.30
   4   3 -13    1.05    0.66
  -4  -3  13    0.52    0.50
   3   3 -13    1.27    0.62
  -3  -3  13    1.71    0.64
   2   3 -13   10.18    1.15
  -2  -3  13    7.83    1.06
   1   3 -13    0.89    0.56
  -1  -3  13    0.44    0.55
   0   3 -13    0.10    0.54
   0  -3  13   -0.02    0.57
  -1   3 -13    2.05    0.69
   1  -3  13    1.95    0.76
  -2   3 -13    3.04    0.77
   2  -3  13    1.44    0.78
  -6  -2  13    6.55    0.92
  -5  -2  13    4.06    0.72
  -4  -2  13    8.03    0.95
   3   2 -13    1.93    1.09
  -3  -2  13    2.33    0.61
  -3  -2  13    1.21    0.87
   2   2 -13    0.81    0.92
  -2  -2  13    0.57    0.44
  -2  -2  13   -0.14    0.69
   1   2 -13    2.78    1.04
  -1  -2  13    4.42    1.12
  -1  -2  13    3.25    0.69
   0   2 -13    0.22    0.84
   0  -2  13    2.42    0.68
   0  -2  13    2.09    0.88
   1  -2  13    4.97    0.88
   2  -2  13    0.16    0.58
   3  -2  13   10.06    1.32
  -5  -1  13    9.38    0.95
  -5  -1  13    9.89    1.69
   4   1 -13    0.14    0.93
  -4  -1  13    0.21    0.39
  -4  -1  13    0.14    0.72
   3   1 -13   -0.69    0.78
  -3  -1  13    1.15    0.47
  -3  -1  13   -0.13    0.72
   2   1 -13    7.50    1.27
  -2  -1  13    9.15    0.91
  -2  -1  13    5.28    1.31
  -2  -1  13    8.45    1.34
   1   1 -13    0.90    0.78
  -1  -1  13    0.67    0.46
  -1  -1  13   -0.14    0.86
  -1  -1  13    0.54    0.69
   0   1 -13    1.42    0.80
   0  -1  13    0.68    0.50
   0  -1  13    0.44    0.71
   0  -1  13    0.79    0.94
  -1   1 -13    1.19    0.82
   1  -1  13    0.44    0.55
   1  -1  13   -0.58    0.57
  -2   1 -13    4.87    1.17
   2  -1  13    3.75    0.95
   2  -1  13    2.87    0.78
   3  -1  13   11.90    1.31
   4  -1  13    3.64    0.98
  -6   0  13    0.97    0.96
  -6   0  13    0.16    0.42
   5   0 -13    5.21    1.48
  -5   0  13    3.48    1.08
   4   0 -13   -0.67    0.79
  -4   0  13    0.02    0.31
  -4   0  13    0.13    0.74
   3   0 -13    7.71    1.35
  -3   0  13    7.00    1.23
  -3   0  13    9.13    0.78
   2   0 -13    5.90    1.21
  -2   0  13    4.34    0.57
  -2   0  13    6.78    1.23
   1   0 -13    1.89    0.81
  -1   0  13    1.52    0.89
  -1   0  13    1.61    0.45
  -1   0  13    1.65    0.71
   0   0 -13    3.79    0.97
   0   0  13    3.14    0.55
   0   0  13    3.70    1.03
   0   0  13    3.83    0.96
  -1   0 -13   15.63    1.62
   1   0  13   15.77    1.62
   1   0  13   14.91    1.03
   2   0  13   33.61    2.08
   2   0  13   32.00    1.53
  -3   0 -13    7.04    1.22
   3   0  13    4.24    0.95
   3   0  13    7.18    0.93
  -4   0 -13    0.77    0.86
   4   0  13    0.82    0.67
   4   0  13    0.23    0.66
   5   0  13    0.46    0.71
   6  -1 -13    2.53    1.35
  -6   1  13    0.10    0.87
  -6   1  13    2.24    0.45
   5  -1 -13    1.80    1.11
  -5   1  13    1.18    0.82
  -5   1  13    1.82    0.40
   4  -1 -13   13.11    1.67
  -4   1  13   13.51    1.65
  -4   1  13   14.88    0.72
   3  -1 -13   24.88    1.96
  -3   1  13   27.28    1.93
   2  -1 -13   13.62    1.55
  -2   1  13    9.73    1.30
   1  -1 -13    2.54    0.81
  -1   1  13    2.92    0.31
  -1   1  13    2.73    0.80
  -1   1  13    1.26    0.78
   0  -1 -13    9.34    1.19
   0   1  13   10.83    0.53
   0   1  13   11.66    1.48
   0   1  13   12.23    1.42
  -1  -1 -13   14.39    1.40
   1   1  13   16.41    0.72
   1   1  13   13.93    1.47
  -2  -1 -13   13.05    1.38
   2   1  13   13.35    0.78
   2   1  13   14.23    1.46
  -3  -1 -13    0.17    0.61
   3   1  13   -0.23    0.51
   3   1  13    0.36    0.43
  -4  -1 -13    0.86    0.72
   4   1  13    0.68    0.64
   4   1  13   -0.32    0.44
  -5  -1 -13    0.66    0.83
   5   1  13    0.06    0.61
   5   1  13    0.20    0.54
   6  -2 -13    0.09    1.07
  -6   2  13    0.93    0.92
   5  -2 -13   18.29    2.05
  -5   2  13   23.18    2.12
   4  -2 -13    6.29    1.31
  -4   2  13    5.00    1.09
   3  -2 -13   25.59    1.92
  -3   2  13   23.67    1.77
   2  -2 -13    6.26    1.06
  -2   2  13    6.36    1.06
   1  -2 -13   11.42    1.29
  -1   2  13   11.41    1.32
   0  -2 -13    5.45    0.88
   0   2  13    6.26    0.98
  -1  -2 -13   22.83    1.53
   1   2  13   24.84    1.61
  -2  -2 -13    2.64    0.73
   2   2  13    4.48    0.89
  -3  -2 -13    0.37    0.58
   3   2  13    1.67    0.68
  -4  -2 -13    4.30    0.94
   4   2  13    6.08    1.01
  -5  -2 -13   -0.67    0.62
   5   2  13   -0.07    0.53
  -6   3  13   14.17    1.84
   5  -3 -13    5.38    1.33
  -5   3  13    5.50    1.17
   4  -3 -13   52.12    2.74
  -4   3  13   46.44    2.45
   3  -3 -13    0.11    0.61
  -3   3  13   -0.09    0.53
   2  -3 -13    3.38    0.85
  -2   3  13    1.84    0.69
   1  -3 -13    1.41    0.64
  -1   3  13    0.59    0.55
   0  -3 -13   11.62    1.15
   0   3  13   10.85    1.16
  -1  -3 -13    0.79    0.49
   1   3  13    0.92    0.54
  -2  -3 -13    6.28    0.89
   2   3  13    7.84    1.04
  -3  -3 -13   -0.21    0.42
   3   3  13   -0.07    0.48
  -4  -3 -13    0.46    0.55
   4   3  13    1.00    0.57
  -5  -3 -13    0.36    0.65
   5   3  13    0.29    0.50
   6   3  13   -0.08    0.61
   5  -4 -13    2.66    1.12
  -5   4  13    3.33    1.05
   4  -4 -13    2.75    0.94
  -4   4  13    3.10    0.87
   3  -4 -13    2.01    0.83
  -3   4  13    1.39    0.66
   2  -4 -13    0.31    0.57
  -2   4  13   -0.23    0.46
   1  -4 -13   -0.44    0.41
  -1   4  13    0.12    0.39
   0  -4 -13    8.66    0.96
   0   4  13    6.70    0.91
  -1  -4 -13    0.12    0.40
   1   4  13    0.21    0.42
  -2  -4 -13   -0.57    0.34
   2   4  13    0.92    0.49
  -3  -4 -13    2.23    0.60
   3   4  13    2.25    0.63
  -4  -4 -13    0.17    0.48
   4   4  13    0.70    0.51
  -5  -4 -13    2.64    0.78
   5   4  13    3.80    0.82
   6   4  13    3.54    0.87
  -5   5  13    6.43    1.19
   4  -5 -13    0.24    0.77
  -4   5  13    0.32    0.62
   3  -5 -13    2.33    0.82
  -3   5  13    3.58    0.78
   2  -5 -13    0.92    0.54
  -2   5  13    1.13    0.54
   1  -5 -13    7.83    0.95
  -1   5  13    8.06    0.93
   0  -5 -13    0.81    0.40
   0   5  13   -0.19    0.35
  -1  -5 -13    1.06    0.42
   1   5  13    2.03    0.54
  -2  -5 -13    1.09    0.41
   2   5  13    1.01    0.46
  -3  -5 -13    0.63    0.40
   3   5  13    0.47    0.38
  -4  -5 -13   19.72    1.30
   4   5  13   18.00    1.27
  -5  -5 -13   16.45    1.29
   5   5  13   15.26    1.42
   6   5  13    1.16    0.63
  -5   6  13    0.95    0.73
  -4   6  13    4.91    0.95
   3  -6 -13   -0.10    0.63
  -3   6  13    0.78    0.55
   2  -6 -13    4.65    0.83
  -2   6  13    3.92    0.70
   1  -6 -13   10.90    1.08
  -1   6  13   11.27    1.03
   0  -6 -13    3.12    0.58
   0   6  13    2.85    0.59
  -1  -6 -13    1.32    0.41
   1   6  13    1.41    0.48
  -2  -6 -13    1.93    0.44
   2   6  13    2.27    0.55
  -3  -6 -13   22.56    1.17
   3   6  13   22.90    1.26
  -4  -6 -13   17.59    1.11
   4   6  13   18.01    1.18
  -5  -6 -13    0.91    0.54
   5   6  13    0.43    0.45
   6   6  13    2.48    0.69
  -4   7  13   -0.36    0.53
   3  -7 -13   -0.19    0.49
  -3   7  13   -0.01    0.47
   2  -7 -13   12.35    1.20
  -2   7  13   12.70    1.14
   1  -7 -13    7.99    0.90
  -1   7  13   10.13    0.92
   0  -7 -13   13.85    0.91
   0   7  13    9.59    0.86
  -1  -7 -13    4.49    0.56
   1   7  13    3.12    0.54
  -2  -7 -13    8.62    0.66
   2   7  13    8.97    0.80
  -3  -7 -13   30.61    1.26
   3   7  13   28.83    1.34
  -4  -7 -13    8.26    0.82
   4   7  13   10.02    0.95
  -5  -7 -13    2.54    0.57
   5   7  13    2.40    0.58
   6   7  13    0.71    0.52
  -3   8  13   17.01    1.32
   2  -8 -13   20.74    1.38
  -2   8  13   21.60    1.30
   1  -8 -13    9.74    0.94
  -1   8  13   10.28    0.91
   0  -8 -13    2.87    0.51
   0   8  13    3.70    0.56
  -1  -8 -13   -0.14    0.24
   1   8  13   -0.07    0.34
  -2  -8 -13   20.68    0.90
   2   8  13   21.30    0.99
  -3  -8 -13   14.72    0.81
   3   8  13   15.84    0.92
  -4  -8 -13   -0.19    0.25
   4   8  13   -0.02    0.33
   5   8  13    1.67    0.50
   6   8  13    0.54    0.46
  -3   9  13    8.41    1.05
  -2   9  13   10.92    1.03
   1  -9 -13    0.85    0.42
  -1   9  13    0.24    0.41
   0  -9 -13    0.80    0.34
   0   9  13    1.08    0.41
  -1  -9 -13   29.00    1.01
   1   9  13   29.90    1.05
  -2  -9 -13    8.48    0.52
   2   9  13    8.08    0.60
  -3  -9 -13    2.89    0.39
   3   9  13    2.77    0.45
  -4  -9 -13    0.20    0.26
   4   9  13    0.00    0.32
   5   9  13   -0.02    0.37
   6   9  13   -0.41    0.37
  -1  10  13    1.27    0.49
   0 -10 -13    0.76    0.31
   0  10  13    0.19    0.36
  -1 -10 -13    0.63    0.16
   1  10  13    0.09    0.28
   2  10  13    0.30    0.22
  -3 -10 -13    0.09    0.18
   3  10  13    0.23    0.25
  -4 -10 -13    2.24    0.42
   4  10  13    2.18    0.42
   5  10  13    2.06    0.48
   0  11  13    5.70    0.59
   1  11  13    1.61    0.32
   3  11  13    1.88    0.25
   4  11  13    0.47    0.28
   3   4 -14    6.88    1.09
  -3  -4  14    9.05    1.21
   2   4 -14    0.33    0.62
  -2  -4  14    0.03    0.58
   1   4 -14    9.35    1.19
  -1  -4  14    9.48    1.30
  -4  -3  14    4.36    0.83
  -3  -3  14    0.21    0.51
  -2  -3  14   27.00    1.69
  -1  -3  14   16.12    1.50
   0  -3  14    1.33    0.73
   1  -3  14    1.00    0.73
  -5  -2  14    7.99    0.98
  -4  -2  14    0.09    0.47
  -3  -2  14    2.74    0.70
  -2  -2  14    1.74    0.62
  -1  -2  14    4.30    0.82
   0  -2  14    0.23    0.57
   1  -2  14    1.14    0.71
   2  -2  14   -0.12    0.68
  -5  -1  14    6.52    0.83
   4   1 -14    0.09    1.00
  -4  -1  14    0.41    0.42
  -4  -1  14    0.19    0.85
   3   1 -14    8.18    1.56
  -3  -1  14    6.51    1.33
  -3  -1  14    6.58    0.82
   2   1 -14    7.07    1.48
  -2  -1  14    5.76    0.80
  -2  -1  14    9.61    1.45
   1   1 -14    0.45    0.84
  -1  -1  14    0.82    0.76
  -1  -1  14    0.16    0.45
   0   1 -14    1.89    0.96
   0  -1  14    3.14    1.02
   0  -1  14    4.05    0.74
  -1   1 -14   -0.63    0.78
   1  -1  14   -0.27    0.67
   1  -1  14    0.18    0.54
   2  -1  14   -0.14    0.70
   2  -1  14    1.80    0.72
   3  -1  14    8.42    1.15
   5   0 -14    2.03    1.25
  -5   0  14    1.62    1.09
  -5   0  14    1.49    0.50
   4   0 -14   -0.01    0.90
  -4   0  14   -0.66    0.67
  -4   0  14   -0.03    0.32
   3   0 -14    4.49    1.18
  -3   0  14    7.08    1.37
  -3   0  14    5.15    0.61
   2   0 -14   -0.18    0.74
  -2   0  14    1.60    0.43
  -2   0  14   -0.48    0.61
   1   0 -14    1.22    0.82
  -1   0  14    1.26    0.76
  -1   0  14    1.12    0.41
   0   0 -14    0.18    0.73
   0   0  14    0.49    0.67
   0   0  14    0.45    0.40
  -1   0 -14    7.14    1.30
   1   0  14    7.26    1.27
   1   0  14    6.88    0.78
  -2   0 -14   28.61    2.12
   2   0  14   27.92    1.39
   2   0  14   32.16    2.11
  -3   0 -14    2.82    1.01
   3   0  14    4.22    1.00
   3   0  14    3.80    0.73
   4   0  14    1.31    0.66
  -6   1  14    4.90    1.36
   5  -1 -14    0.98    1.07
  -5   1  14    0.46    0.84
  -5   1  14    0.11    0.24
   4  -1 -14    9.54    1.56
  -4   1  14    9.17    0.45
  -4   1  14    8.92    1.47
   3  -1 -14   11.40    1.55
  -3   1  14   13.40    1.60
  -3   1  14   10.80    0.38
   2  -1 -14    6.39    1.20
  -2   1  14    8.29    1.33
   1  -1 -14    0.76    0.70
  -1   1  14   -0.03    0.60
   0  -1 -14   10.20    1.31
   0   1  14   13.58    1.60
  -1  -1 -14   18.73    1.81
   1   1  14   17.35    1.71
   1   1  14   19.34    0.61
  -2  -1 -14   13.90    1.55
   2   1  14   15.53    0.69
   2   1  14   11.87    1.40
  -3  -1 -14    2.42    0.92
   3   1  14    3.31    0.49
   3   1  14    3.08    0.86
  -4  -1 -14    0.38    0.78
   4   1  14    0.85    0.68
   4   1  14    0.40    0.45
   5  -2 -14    8.02    1.59
  -5   2  14    6.77    1.37
   4  -2 -14    9.84    1.56
  -4   2  14    8.46    1.36
   3  -2 -14    6.40    1.25
  -3   2  14    5.81    1.12
   2  -2 -14    1.87    0.83
  -2   2  14    1.76    0.76
   1  -2 -14   21.59    1.83
  -1   2  14   17.34    1.65
   0  -2 -14   15.41    1.48
   0   2  14   17.08    1.59
  -1  -2 -14   26.92    1.78
   1   2  14   25.98    1.76
  -2  -2 -14   11.60    1.30
   2   2  14    9.92    1.25
  -3  -2 -14    0.45    0.62
   3   2  14   -0.23    0.50
  -4  -2 -14   -0.28    0.68
   4   2  14   -0.52    0.50
   5   2  14    2.86    0.89
  -5   3  14   16.80    1.95
   4  -3 -14   42.79    2.69
  -4   3  14   49.09    2.58
   3  -3 -14    4.87    1.13
  -3   3  14    3.57    0.93
   2  -3 -14    4.37    0.97
  -2   3  14    5.39    1.01
   1  -3 -14    6.08    1.07
  -1   3  14    8.60    1.17
   0  -3 -14   19.19    1.46
   0   3  14   17.14    1.52
  -1  -3 -14   12.19    1.27
   1   3  14   14.18    1.45
  -2  -3 -14    5.76    0.94
   2   3  14    4.23    0.87
  -3  -3 -14    0.87    0.63
   3   3  14    1.09    0.64
  -4  -3 -14   -0.14    0.57
   4   3  14    0.06    0.54
   5   3  14    0.14    0.59
  -5   4  14   15.97    1.91
   4  -4 -14   -0.02    0.82
  -4   4  14    0.42    0.66
   3  -4 -14   10.55    1.44
  -3   4  14    8.78    1.22
   2  -4 -14    2.57    0.87
  -2   4  14    0.30    0.57
   1  -4 -14    6.94    1.02
  -1   4  14    7.38    1.05
   0  -4 -14   10.65    1.15
   0   4  14   14.51    1.33
  -1  -4 -14   -0.08    0.47
   1   4  14    1.21    0.55
  -2  -4 -14    0.74    0.50
   2   4  14    0.43    0.48
  -3  -4 -14    3.91    0.79
   3   4  14    3.95    0.79
  -4  -4 -14    1.16    0.63
   4   4  14    0.96    0.60
   5   4  14    0.02    0.54
  -5   5  14    6.63    1.27
  -4   5  14    5.74    1.08
   3  -5 -14   -0.30    0.67
  -3   5  14   -0.12    0.51
   2  -5 -14    1.57    0.72
  -2   5  14    0.23    0.43
   1  -5 -14    6.15    0.91
  -1   5  14    7.13    0.96
   0  -5 -14    1.75    0.56
   0   5  14    2.12    0.61
  -1  -5 -14    3.16    0.62
   1   5  14    2.94    0.67
  -2  -5 -14    0.01    0.36
   2   5  14    0.47    0.42
  -3  -5 -14    1.70    0.55
   3   5  14    1.81    0.56
  -4  -5 -14    1.19    0.58
   4   5  14    1.24    0.58
   5   5  14    1.40    0.60
   6   5  14    0.61    0.64
  -4   6  14    1.68    0.77
   3  -6 -14    2.64    0.87
  -3   6  14    1.48    0.67
   2  -6 -14    7.81    1.08
  -2   6  14    6.41    0.93
   1  -6 -14    0.76    0.50
  -1   6  14    0.36    0.48
   0  -6 -14    3.13    0.63
   0   6  14    2.52    0.63
  -1  -6 -14    1.15    0.44
   1   6  14    1.12    0.51
  -2  -6 -14   -0.05    0.31
   2   6  14    0.76    0.46
  -3  -6 -14    2.59    0.53
   3   6  14    2.18    0.57
  -4  -6 -14   15.90    1.21
   4   6  14   15.03    1.18
   5   6  14    2.47    0.69
   6   6  14   -0.21    0.45
  -4   7  14    0.18    0.64
  -3   7  14    0.54    0.59
   2  -7 -14    2.11    0.68
  -2   7  14    2.10    0.64
   1  -7 -14    0.53    0.44
  -1   7  14    0.19    0.48
   0  -7 -14    0.71    0.43
   0   7  14    0.34    0.46
  -1  -7 -14    3.80    0.60
   1   7  14    4.12    0.65
  -2  -7 -14    7.75    0.77
   2   7  14    8.93    0.90
  -3  -7 -14   30.81    1.39
   3   7  14   34.33    1.53
  -4  -7 -14    7.22    0.82
   4   7  14    5.85    0.82
   5   7  14   -0.36    0.38
   6   7  14    1.52    0.64
  -3   8  14   12.19    1.29
  -2   8  14    2.31    0.68
   1  -8 -14   15.25    1.13
  -1   8  14   15.85    1.12
   0  -8 -14    2.87    0.56
   0   8  14    3.39    0.63
  -1  -8 -14    5.58    0.65
   1   8  14    6.72    0.75
  -2  -8 -14   13.22    0.82
   2   8  14   14.04    0.95
  -3  -8 -14    9.38    0.80
   3   8  14   10.49    0.90
  -4  -8 -14    2.54    0.53
   4   8  14    2.66    0.59
   5   8  14    1.51    0.52
  -2   9  14   12.01    1.15
  -1   9  14    3.30    0.68
   0  -9 -14    0.51    0.36
   0   9  14    0.26    0.41
  -1  -9 -14   28.74    1.15
   1   9  14   29.37    1.18
  -2  -9 -14   24.15    0.98
   2   9  14   23.34    1.04
  -3  -9 -14    2.72    0.43
   3   9  14    3.82    0.53
   4   9  14    0.68    0.43
   5   9  14    0.37    0.43
  -1  10  14    0.39    0.48
   0  10  14   18.32    1.01
  -1 -10 -14    0.43    0.22
   1  10  14    0.03    0.35
  -2 -10 -14    3.73    0.34
   2  10  14    3.50    0.41
  -3 -10 -14    2.72    0.38
   3  10  14    3.28    0.44
   4  10  14    0.08    0.33
   1  11  14    5.96    0.50
   3  11  14    1.09    0.26
  -2  -3  15   12.92    1.31
  -1  -3  15   16.18    1.50
  -4  -2  15    3.37    0.76
  -3  -2  15    8.76    1.02
  -2  -2  15    4.93    0.84
  -1  -2  15   18.35    1.38
   0  -2  15    3.10    0.81
   1  -2  15    3.54    0.91
  -4  -1  15    0.29    0.45
   3   1 -15   13.94    2.03
  -3  -1  15   11.72    1.04
  -3  -1  15   11.62    1.70
   2   1 -15   16.54    2.02
  -2  -1  15   16.03    1.89
  -2  -1  15   16.86    1.15
   1   1 -15    0.11    0.92
  -1  -1  15    1.13    0.85
  -1  -1  15    0.57    0.51
   0   1 -15    6.82    1.45
   0  -1  15    5.42    1.19
   0  -1  15    6.01    0.85
   1  -1  15    1.42    0.65
   1  -1  15    0.78    0.86
   2  -1  15    0.47    0.63
  -5   0  15    0.98    0.44
  -5   0  15    0.34    0.89
   4   0 -15    2.60    1.26
  -4   0  15    3.26    1.13
   3   0 -15    7.38    1.57
  -3   0  15    8.26    0.71
  -3   0  15    7.26    1.43
   2   0 -15   -1.03    0.79
  -2   0  15    0.26    0.32
  -2   0  15    0.29    0.73
   1   0 -15    5.58    1.25
  -1   0  15    8.10    1.42
  -1   0  15    7.25    0.67
   0   0 -15    0.19    0.83
   0   0  15    1.02    0.41
   0   0  15    1.99    0.90
  -1   0 -15    0.90    0.92
   1   0  15    1.32    0.48
   1   0  15    0.00    0.68
  -2   0 -15   10.93    1.60
   2   0  15   12.23    1.59
   2   0  15   11.84    0.97
   3   0  15    5.17    0.76
   3   0  15    4.09    1.08
  -5   1  15   -0.16    0.89
   4  -1 -15    4.22    1.32
  -4   1  15    9.11    1.57
   3  -1 -15    0.20    0.88
  -3   1  15    0.66    0.77
   2  -1 -15    0.72    0.84
  -2   1  15    0.66    0.73
   1  -1 -15    2.67    0.99
  -1   1  15    1.19    0.79
   0  -1 -15    0.16    0.71
   0   1  15    0.22    0.67
  -1  -1 -15   13.85    1.62
   1   1  15   13.44    1.57
  -2  -1 -15    9.69    1.45
   2   1  15   10.85    1.46
  -3  -1 -15   -0.05    0.82
   3   1  15    0.19    0.65
   4   1  15    0.42    0.71
  -5   2  15    2.75    1.15
   4  -2 -15    6.07    1.44
  -4   2  15    4.19    1.18
   3  -2 -15    0.60    0.84
  -3   2  15    0.04    0.71
   2  -2 -15    3.79    1.05
  -2   2  15    2.33    0.88
   1  -2 -15    4.82    1.07
  -1   2  15    4.74    1.02
   0  -2 -15   16.92    1.68
   0   2  15   14.07    1.61
  -1  -2 -15   31.72    2.05
   1   2  15   31.30    2.01
  -2  -2 -15    6.14    1.09
   2   2  15   10.25    1.41
  -3  -2 -15    1.81    0.85
   3   2  15    2.74    0.87
   4   2  15    4.91    1.07
  -5   3  15    3.07    1.14
  -4   3  15    7.65    1.33
   3  -3 -15    2.37    0.98
  -3   3  15    4.25    1.05
   2  -3 -15    2.18    0.89
  -2   3  15    2.88    0.86
   1  -3 -15   12.26    1.46
  -1   3  15   10.89    1.35
   0  -3 -15   38.75    2.11
   0   3  15   33.36    2.01
  -1  -3 -15   15.12    1.50
   1   3  15   21.64    1.61
  -2  -3 -15   -0.13    0.58
   2   3  15    0.04    0.54
  -3  -3 -15    2.67    0.82
   3   3  15    2.63    0.83
   4   3  15    3.42    0.86
  -4   4  15   -0.51    0.58
   3  -4 -15    3.43    1.05
  -3   4  15    1.20    0.75
   2  -4 -15    9.05    1.31
  -2   4  15   10.37    1.31
   1  -4 -15   23.61    1.71
  -1   4  15   24.99    1.70
   0  -4 -15   21.24    1.58
   0   4  15   24.45    1.63
  -1  -4 -15    1.48    0.69
   1   4  15    1.24    0.63
  -2  -4 -15    5.37    0.91
   2   4  15    4.95    0.89
  -3  -4 -15    0.56    0.52
   3   4  15    1.44    0.64
   4   4  15    2.88    0.81
   5   4  15   -0.06    0.55
  -4   5  15    3.59    1.00
  -3   5  15    4.13    0.94
   2  -5 -15   10.99    1.39
  -2   5  15   10.40    1.26
   1  -5 -15   16.58    1.49
  -1   5  15   18.06    1.41
   0  -5 -15   -0.20    0.43
   0   5  15    0.58    0.53
  -1  -5 -15    1.28    0.53
   1   5  15    1.46    0.57
  -2  -5 -15    2.92    0.75
   2   5  15    2.20    0.66
  -3  -5 -15    6.65    0.94
   3   5  15    6.76    0.98
   4   5  15   -0.41    0.45
   5   5  15    0.02    0.46
  -4   6  15    1.54    0.84
  -3   6  15    0.42    0.56
   2  -6 -15    8.32    1.12
  -2   6  15    5.76    0.96
   1  -6 -15    0.05    0.50
  -1   6  15    0.40    0.51
   0  -6 -15   -0.35    0.39
   0   6  15    0.48    0.52
  -1  -6 -15    1.48    0.51
   1   6  15    0.62    0.54
  -2  -6 -15    0.17    0.39
   2   6  15   -0.07    0.42
  -3  -6 -15    0.86    0.42
   3   6  15    1.43    0.52
   4   6  15    0.39    0.48
   5   6  15    1.03    0.59
  -3   7  15    0.22    0.58
  -2   7  15    2.79    0.78
   1  -7 -15    0.91    0.52
  -1   7  15    1.26    0.61
   0  -7 -15    3.96    0.71
   0   7  15    3.27    0.72
  -1  -7 -15    0.06    0.37
   1   7  15    0.03    0.44
  -2  -7 -15    2.44    0.57
   2   7  15    2.27    0.63
  -3  -7 -15    5.66    0.73
   3   7  15    6.14    0.83
   4   7  15    5.76    0.83
   5   7  15    0.07    0.46
  -2   8  15    0.19    0.56
  -1   8  15   -0.12    0.46
   0  -8 -15    1.32    0.49
   0   8  15    0.14    0.47
  -1  -8 -15    5.11    0.70
   1   8  15    4.62    0.66
  -2  -8 -15   14.83    0.98
   2   8  15   13.88    1.04
  -3  -8 -15    2.18    0.57
   3   8  15    4.82    0.72
   4   8  15    4.14    0.70
   5   8  15    0.40    0.47
  -1   9  15    4.62    0.77
   0   9  15    0.25    0.48
  -1  -9 -15   10.59    0.82
   1   9  15   11.92    0.94
  -2  -9 -15   13.90    0.86
   2   9  15   11.30    0.88
   3   9  15   13.92    0.96
   4   9  15    0.31    0.42
   0  10  15   17.71    1.11
   1  10  15    8.77    0.75
   2  10  15    8.88    0.70
   3  10  15    0.20    0.33
  -3  -1  16   18.54    1.14
  -2  -1  16   17.23    1.14
  -2  -1  16   18.65    2.25
  -1  -1  16    2.26    0.61
  -1  -1  16    2.90    1.11
   0  -1  16    0.79    0.56
   1  -1  16    0.59    0.59
  -4   0  16    4.87    1.33
  -4   0  16    6.04    0.53
   3   0 -16    4.41    1.49
  -3   0  16    7.44    1.47
   2   0 -16    2.69    1.16
  -2   0  16    1.69    0.37
  -2   0  16    2.14    0.98
   1   0 -16    3.31    1.17
  -1   0  16    3.28    0.43
  -1   0  16    1.33    0.89
   0   0 -16    0.56    0.99
   0   0  16   -0.27    0.70
   0   0  16    1.02    0.38
  -1   0 -16    1.85    1.10
   1   0  16    1.62    0.92
   1   0  16    2.39    0.47
   2   0  16    0.26    0.43
   2   0  16    0.57    0.78
  -4   1  16    7.45    1.46
   3  -1 -16    6.15    1.49
  -3   1  16    3.57    1.09
   2  -1 -16    2.18    1.10
  -2   1  16    1.39    0.88
   1  -1 -16    2.36    1.03
  -1   1  16    2.26    0.94
   0  -1 -16    0.03    0.83
   0   1  16    0.11    0.67
  -1  -1 -16    0.60    0.86
   1   1  16    1.63    0.91
  -2  -1 -16    0.50    0.88
   2   1  16   -0.26    0.63
  -4   2  16    8.01    1.55
   3  -2 -16    5.86    1.38
  -3   2  16    7.25    1.34
   2  -2 -16    4.85    1.21
  -2   2  16    6.55    1.26
   1  -2 -16    0.32    0.84
  -1   2  16    0.49    0.71
   0  -2 -16    3.67    1.07
   0   2  16    2.60    0.92
  -1  -2 -16    7.65    1.23
   1   2  16    7.68    1.24
  -2  -2 -16    2.61    0.98
   2   2  16    1.10    0.77
   3   2  16    0.80    0.77
  -4   3  16    2.73    1.00
  -3   3  16    1.13    0.86
   2  -3 -16    0.08    0.76
  -2   3  16    0.20    0.68
   1  -3 -16    3.21    0.99
  -1   3  16    2.87    0.94
   0  -3 -16   16.85    1.69
   0   3  16   18.07    1.75
  -1  -3 -16    9.57    1.34
   1   3  16    9.14    1.31
  -2  -3 -16    0.30    0.72
   2   3  16    0.55    0.64
   3   3  16    0.72    0.68
   4   3  16    9.68    1.41
  -4   4  16    1.25    0.91
  -3   4  16    1.97    0.83
   2  -4 -16    7.14    1.30
  -2   4  16   10.14    1.38
   1  -4 -16   29.28    2.03
  -1   4  16   30.15    1.98
   0  -4 -16   15.93    1.60
   0   4  16   15.97    1.60
  -1  -4 -16   -0.05    0.62
   1   4  16   -0.58    0.49
  -2  -4 -16    5.62    1.05
   2   4  16    4.43    0.95
   3   4  16    2.32    0.69
   4   4  16    3.36    0.86
  -3   5  16    4.36    1.06
  -2   5  16   17.97    1.70
   1  -5 -16   16.94    1.63
  -1   5  16   15.51    1.56
   0  -5 -16    2.61    0.83
   0   5  16    3.00    0.75
  -1  -5 -16    0.32    0.60
   1   5  16   -0.54    0.44
  -2  -5 -16    0.72    0.63
   2   5  16    1.10    0.59
   3   5  16    7.89    1.10
   4   5  16    1.57    0.66
  -3   6  16    8.15    1.28
  -2   6  16    9.47    1.23
  -1   6  16    2.78    0.78
   0  -6 -16    1.28    0.56
   0   6  16    0.65    0.58
  -1  -6 -16   -0.09    0.42
   1   6  16   -0.75    0.38
   2   6  16    0.75    0.55
   3   6  16    1.65    0.62
   4   6  16    0.89    0.58
  -2   7  16    0.64    0.64
  -1   7  16    0.58    0.59
   0   7  16    4.63    0.84
  -1  -7 -16    0.84    0.57
   1   7  16    0.98    0.56
   2   7  16    1.69    0.61
   3   7  16   -0.84    0.40
   4   7  16   -0.02    0.46
  -1   8  16    3.29    0.81
   0   8  16   -0.11    0.50
   1   8  16    0.05    0.52
   2   8  16    4.38    0.74
   3   8  16   -0.11    0.42
   4   8  16    0.33    0.50
   0   9  16    1.68    0.62
   1   9  16    2.52    0.64
   2   9  16    6.54    0.79
   3   9  16    5.50    0.74
  -2   0  17    5.36    1.34
  -1   0  17    0.49    0.86
  -3   1  17    9.46    1.58
  -2   1  17    0.54    0.86
  -1   1  17    0.37    0.81
   0   1  17    0.74    0.80
   1   1  17    0.99    0.84
  -3   2  17    1.16    0.92
  -2   2  17    4.40    1.16
  -1   2  17    2.69    0.99
   0   2  17    2.98    0.96
   1   2  17    1.56    0.86
   2   2  17   -0.50    0.62
  -3   3  17    4.48    1.20
  -2   3  17    0.51    0.71
  -1   3  17    5.64    1.16
   0   3  17    1.07    0.77
   1   3  17   -0.48    0.55
   2   3  17   -0.13    0.62
  -3   4  17    7.55    1.39
  -2   4  17    7.23    1.21
  -1   4  17    2.81    0.94
   0   4  17   11.16    1.46
   1   4  17    0.92    0.75
   2   4  17    1.33    0.75
   3   4  17   13.51    1.51
  -2   5  17    3.33    0.98
  -1   5  17   20.65    1.86
   0   5  17   12.93    1.47
   1   5  17   -0.34    0.56
   2   5  17    4.01    0.94
   3   5  17    9.83    1.24
  -2   6  17   14.02    1.56
  -1   6  17   11.03    1.30
   0   6  17    1.00    0.69
   1   6  17    9.64    1.21
   2   6  17   10.26    1.21
   3   6  17    3.18    0.80
  -1   7  17   -0.45    0.60
   0   7  17    0.42    0.60
   1   7  17    0.09    0.57
   2   7  17    2.50    0.69
   3   7  17   -0.30    0.49
   0   8  17    0.05    0.58
   1   8  17    1.06    0.63
   2   8  17    0.39    0.54
  -1   3  18    3.99    1.12
   0   3  18    0.62    0.73
  -1   4  18    2.33    0.94
   0   4  18    1.01    0.76
   1   4  18    0.72    0.71
  -1   5  18    0.02    0.69
   0   5  18    1.85    0.82
   1   5  18   -0.18    0.62
   0   6  18    0.13    0.60
   1   6  18    1.94    0.72
   0   0   0    0.00    0.00
;
_shelx_hkl_checksum              43669
_shelx_fab_file
;
-9 -7 1 -0.9479 -0.1567
-9 -6 1 0.8462 0.2130
-9 -6 2 -1.1881 -0.1020
-9 -6 3 0.5420 0.0363
-9 -5 1 0.2027 -0.2322
-9 -5 2 0.5048 0.0636
-9 -5 3 -0.7242 0.0220
-9 -5 4 0.6753 -0.0176
-9 -4 1 -1.4427 0.2797
-9 -4 2 0.9359 -0.0258
-9 -4 3 -0.0407 -0.0663
-9 -4 4 -0.8165 -0.0243
-9 -4 5 0.9143 0.1174
-9 -3 1 1.9445 -0.3584
-9 -3 2 -2.0505 0.0314
-9 -3 3 1.1582 0.0892
-9 -3 4 0.2031 0.0602
-9 -3 5 -0.8791 -0.2016
-9 -2 1 -1.6886 0.3671
-9 -2 2 2.1778 -0.0487
-9 -2 3 -1.5752 -0.0900
-9 -2 4 0.3801 -0.0504
-9 -2 5 0.4972 0.1870
-9 -1 1 1.1709 -0.2700
-9 -1 2 -1.5489 0.0578
-9 -1 3 1.0748 0.0383
-9 -1 4 -0.3962 0.0563
-9 -1 5 -0.0381 -0.1315
-9 0 2 0.7014 -0.0480
-8 -9 1 1.6827 0.2957
-8 -8 1 -1.2990 -0.2809
-8 -8 2 2.1627 0.0883
-8 -8 3 -1.2888 -0.0040
-8 -8 4 -0.1216 -0.0090
-8 -7 1 -0.0065 0.2445
-8 -7 2 -1.4363 -0.0435
-8 -7 3 1.0545 -0.0151
-8 -7 4 0.2830 -0.0209
-8 -7 5 -1.0345 0.0137
-8 -6 1 1.1694 -0.2974
-8 -6 2 0.4874 0.0517
-8 -6 3 -0.9107 0.0481
-8 -6 4 0.3167 -0.0074
-8 -6 5 0.3051 0.0025
-8 -6 6 -0.5069 -0.0309
-8 -5 1 -2.4483 0.3964
-8 -5 2 0.7280 -0.0559
-8 -5 3 0.9373 -0.1172
-8 -5 4 -1.7710 0.0571
-8 -5 5 1.4512 0.0050
-8 -5 6 -0.3782 0.0029
-8 -5 7 -0.5436 -0.0182
-8 -4 1 3.1242 -0.5031
-8 -4 2 -2.1391 0.0687
-8 -4 3 -0.1458 0.1751
-8 -4 4 2.5025 -0.0758
-8 -4 5 -3.1002 -0.0594
-8 -4 6 1.5796 0.0634
-8 -4 7 0.2746 -0.0104
-8 -4 8 -0.7734 -0.0237
-8 -3 1 -2.1254 0.5476
-8 -3 2 2.4903 -0.1007
-8 -3 3 -1.1507 -0.1724
-8 -3 4 -1.4046 0.0561
-8 -3 5 3.1518 0.0995
-8 -3 6 -2.6090 -0.0674
-8 -3 7 0.7779 -0.0251
-8 -3 8 0.2029 0.0346
-8 -3 9 0.1226 0.0311
-8 -2 1 0.4307 -0.4599
-8 -2 2 -1.5483 0.0814
-8 -2 3 1.6164 0.1527
-8 -2 4 -0.4189 -0.0320
-8 -2 5 -1.2873 -0.1090
-8 -2 6 2.1907 0.0375
-8 -2 7 -1.7526 0.0699
-8 -2 8 0.8006 -0.0190
-8 -2 9 -0.2391 -0.1211
-8 -1 1 0.9326 0.3076
-8 -1 2 0.2982 -0.0318
-8 -1 3 -1.1050 -0.1287
-8 -1 4 1.3902 0.0247
-8 -1 5 -0.9439 0.0877
-8 -1 6 -0.2261 -0.0211
-8 -1 7 1.2997 -0.0576
-8 -1 8 -1.4769 -0.0427
-8 -1 9 0.8380 0.2099
-8 0 1 -2.5598 -0.2107
-8 0 2 1.1308 0.0308
-8 0 3 0.3267 0.0653
-8 0 4 -1.5380 -0.0120
-8 0 5 2.1019 -0.0376
-8 0 6 -1.3978 -0.0160
-8 0 7 -0.1679 0.0571
-8 0 8 1.3414 0.0560
-8 0 9 -1.4052 -0.2296
-8 1 1 3.8721 0.1764
-8 1 2 -2.5841 -0.0403
-8 1 3 0.5252 -0.0051
-8 1 4 1.3852 -0.0263
-8 1 5 -2.3363 0.0257
-8 1 6 1.7625 0.0339
-8 1 7 -0.2672 -0.0833
-8 1 8 -0.8865 0.0314
-8 1 9 1.1383 0.1095
-8 2 1 -3.0745 -0.1325
-8 2 2 2.6113 -0.0065
-8 2 3 -1.0536 0.0122
-8 2 4 -0.8207 0.0619
-8 2 5 1.9533 -0.0825
-8 2 6 -1.5560 0.0325
-8 2 7 0.3009 0.0460
-8 2 8 0.4337 -0.0961
-8 3 2 -1.0757 0.0710
-8 3 3 0.6211 -0.0539
-8 3 4 0.1955 -0.0520
-8 3 5 -1.0012 0.1096
-7 -10 1 -0.0262 0.2508
-7 -10 2 0.1176 0.0414
-7 -9 1 0.2115 -0.3842
-7 -9 2 0.3312 0.0548
-7 -9 3 0.1084 0.1132
-7 -9 4 -0.9743 -0.1327
-7 -8 1 -2.0684 0.3348
-7 -8 2 0.0622 -0.0413
-7 -8 3 0.4273 -0.0802
-7 -8 4 0.6891 0.0587
-7 -8 5 -1.7716 -0.0852
-7 -8 6 1.6897 0.0871
-7 -7 1 4.0626 -0.2891
-7 -7 2 -1.4199 -0.0214
-7 -7 3 -0.6735 0.0936
-7 -7 4 0.8328 0.0240
-7 -7 5 0.2059 -0.0390
-7 -7 6 -1.0495 -0.0048
-7 -7 7 1.1796 -0.0504
-7 -6 1 -4.3566 0.3877
-7 -6 2 2.3214 -0.0148
-7 -6 3 0.6066 -0.1081
-7 -6 4 -2.5911 -0.0253
-7 -6 5 2.7317 0.0608
-7 -6 6 -1.4147 0.0138
-7 -6 7 -0.3509 0.0121
-7 -6 8 1.6734 -0.1216
-7 -6 9 -1.9242 0.1676
-7 -5 1 3.5121 -0.5349
-7 -5 2 -2.3445 0.0998
-7 -5 3 -0.4502 0.1090
-7 -5 4 3.4799 0.0055
-7 -5 5 -4.8416 -0.0572
-7 -5 6 3.8113 -0.0379
-7 -5 7 -1.4595 0.0527
-7 -5 8 -0.7161 0.0518
-7 -5 9 1.9148 -0.1290
-7 -4 1 -2.0144 0.5945
-7 -4 2 1.7659 -0.1302
-7 -4 3 0.0874 -0.1367
-7 -4 4 -2.9671 0.0152
-7 -4 5 4.8841 0.0932
-7 -4 6 -4.4024 -0.0095
-7 -4 7 2.4904 -0.0562
-7 -4 8 -1.0433 0.0062
-7 -4 9 0.4151 0.0484
-7 -4 10 -0.0249 -0.0452
-7 -3 1 -0.5491 -0.5292
-7 -3 2 -0.2776 0.1055
-7 -3 3 0.2401 0.1650
-7 -3 4 1.2118 -0.0462
-7 -3 5 -3.0891 -0.0977
-7 -3 6 3.5706 0.0349
-7 -3 7 -2.4751 0.0545
-7 -3 8 1.4780 -0.0323
-7 -3 9 -1.3756 -0.0160
-7 -3 10 1.2940 0.0285
-7 -3 11 -0.8027 -0.0293
-7 -2 1 3.2203 0.3982
-7 -2 2 -1.8321 -0.0658
-7 -2 3 0.1056 -0.1464
-7 -2 4 0.6841 0.0486
-7 -2 5 0.1895 0.0685
-7 -2 6 -1.7476 -0.0024
-7 -2 7 2.2923 -0.0845
-7 -2 8 -1.5978 0.0422
-7 -2 9 0.6847 0.0345
-7 -2 10 -0.0893 -0.0448
-7 -2 11 -0.1727 0.0333
-7 -1 1 -4.6352 -0.2909
-7 -1 2 3.3585 0.0406
-7 -1 3 -1.0098 0.0933
-7 -1 4 -1.3613 -0.0138
-7 -1 5 2.2600 -0.0598
-7 -1 6 -0.9129 -0.0053
-7 -1 7 -1.2891 0.0780
-7 -1 8 2.2302 -0.0259
-7 -1 9 -1.4445 -0.0650
-7 -1 10 0.0331 0.0465
-7 -1 11 0.8044 0.0528
-7 -1 12 -0.6257 -0.0902
-7 0 1 5.0010 0.2607
-7 0 2 -3.8695 -0.0299
-7 0 3 1.5663 -0.0649
-7 0 4 1.0318 -0.0001
-7 0 5 -2.9718 0.0494
-7 0 6 2.8488 -0.0186
-7 0 7 -0.6176 -0.0219
-7 0 8 -1.8105 -0.0016
-7 0 9 2.6999 0.0671
-7 0 10 -1.9983 -0.0566
-7 0 11 0.7385 -0.0808
-7 0 12 0.0511 0.2096
-7 1 1 -4.3189 -0.3253
-7 1 2 3.5687 0.0304
-7 1 3 -1.4988 0.0876
-7 1 4 -0.8084 -0.0286
-7 1 5 2.7044 -0.0152
-7 1 6 -3.2231 0.0180
-7 1 7 1.9087 -0.0143
-7 1 8 0.2386 -0.0013
-7 1 9 -1.8585 -0.0127
-7 1 10 2.3711 0.0596
-7 1 11 -1.8263 -0.0296
-7 1 12 0.7776 -0.0986
-7 2 1 2.0077 0.4193
-7 2 2 -2.1719 -0.0570
-7 2 3 1.1569 -0.1055
-7 2 4 0.5301 0.0402
-7 2 5 -2.2744 0.0062
-7 2 6 3.0733 -0.0025
-7 2 7 -2.4117 0.0087
-7 2 8 1.0819 0.0185
-7 2 9 0.0149 -0.0460
-7 2 10 -0.7699 -0.0299
-7 2 11 1.0662 0.1365
-7 3 1 0.3545 -0.3995
-7 3 2 0.1784 0.0778
-7 3 3 -0.4742 0.0762
-7 3 4 0.1197 -0.0074
-7 3 5 1.1289 -0.0338
-7 3 6 -2.3974 0.0054
-7 3 7 2.5172 -0.0088
-7 3 8 -1.7315 0.0102
-7 3 9 0.9607 0.0185
-7 3 10 -0.3222 0.0208
-7 3 11 -0.2478 -0.1336
-7 4 1 -0.7012 0.2298
-7 4 2 0.7675 -0.0356
-7 4 3 -0.4072 -0.0395
-7 4 4 -0.2848 -0.0230
-7 4 5 0.3052 0.0396
-7 4 6 0.6439 -0.0062
-7 4 7 -1.4542 0.0324
-7 4 8 1.4255 -0.0787
-7 4 9 -0.9874 0.0646
-7 5 2 -0.4057 -0.0472
-7 5 3 0.6878 0.0334
-7 5 4 -0.1666 0.0289
-7 5 5 -0.6781 -0.0173
-7 5 6 0.7616 -0.0131
-7 5 7 -0.1853 -0.0391
-6 -11 1 0.0624 0.3327
-6 -10 1 1.1492 -0.4793
-6 -10 2 -0.5860 0.0989
-6 -10 3 0.2536 0.0752
-6 -10 4 -0.2710 -0.0560
-6 -9 1 -3.0111 0.4386
-6 -9 2 1.5275 -0.0593
-6 -9 3 -0.3837 -0.1073
-6 -9 4 0.1380 0.0456
-6 -9 5 -0.4213 -0.0439
-6 -9 6 0.5057 0.0714
-6 -8 1 4.9213 -0.4138
-6 -8 2 -2.5743 0.0231
-6 -8 3 0.2308 0.1262
-6 -8 4 0.8064 -0.0041
-6 -8 5 -0.6666 -0.0250
-6 -8 6 0.4021 -0.0334
-6 -8 7 -0.5518 -0.0172
-6 -7 1 -5.1793 0.4844
-6 -7 2 3.0564 -0.0554
-6 -7 3 0.0741 -0.1295
-6 -7 4 -2.2227 -0.0174
-6 -7 5 2.5518 0.0778
-6 -7 6 -1.8514 0.0108
-6 -7 7 1.2554 0.0071
-6 -7 8 -0.8968 -0.1064
-6 -7 9 0.4051 0.1032
-6 -6 1 3.1698 -0.5476
-6 -6 2 -2.3199 0.0937
-6 -6 3 -0.4285 0.1366
-6 -6 4 3.3581 0.0063
-6 -6 5 -4.4386 -0.0872
-6 -6 6 3.2476 -0.0250
-6 -6 7 -1.1693 0.0521
-6 -6 8 -0.4652 0.0577
-6 -6 9 1.3886 -0.1031
-6 -6 10 -1.4967 0.0543
-6 -5 1 0.1467 0.5815
-6 -5 2 0.4970 -0.1060
-6 -5 3 0.5797 -0.1628
-6 -5 4 -3.1103 0.0257
-6 -5 5 4.9429 0.0834
-6 -5 6 -4.2160 0.0249
-6 -5 7 1.5574 -0.0861
-6 -5 8 1.0671 -0.0011
-6 -5 9 -2.7347 0.0427
-6 -5 10 3.2644 0.0241
-6 -5 11 -2.3068 -0.0758
-6 -4 1 -3.9054 -0.5806
-6 -4 2 2.2943 0.1161
-6 -4 3 -1.0160 0.1746
-6 -4 4 1.5163 -0.0575
-6 -4 5 -3.1369 -0.0736
-6 -4 6 3.6821 -0.0022
-6 -4 7 -2.4043 0.0639
-6 -4 8 0.5932 0.0035
-6 -4 9 0.9765 -0.0240
-6 -4 10 -2.4704 -0.0768
-6 -4 11 3.0969 0.1594
-6 -4 12 -1.9601 -0.1384
-6 -3 1 7.1467 0.4799
-6 -3 2 -5.3930 -0.0879
-6 -3 3 2.2754 -0.1508
-6 -3 4 -0.0521 0.0438
-6 -3 5 0.0995 0.0759
-6 -3 6 -1.3299 -0.0156
-6 -3 7 1.9654 -0.0411
-6 -3 8 -1.8397 -0.0177
-6 -3 9 1.2915 0.0524
-6 -3 10 0.1523 0.0124
-6 -3 11 -2.0589 -0.0683
-6 -3 12 2.5965 0.0507
-6 -2 1 -8.7826 -0.3487
-6 -2 2 7.3601 0.0213
-6 -2 3 -3.5710 0.1253
-6 -2 4 -0.5224 -0.0001
-6 -2 5 2.4628 -0.0931
-6 -2 6 -1.6551 0.0264
-6 -2 7 -0.1143 0.0348
-6 -2 8 1.1749 0.0015
-6 -2 9 -1.3463 -0.0401
-6 -2 10 0.7044 0.0309
-6 -2 11 0.6083 -0.0462
-6 -2 12 -1.4808 0.1055
-6 -2 13 1.0434 -0.1158
-6 -1 1 8.5029 0.3280
-6 -1 2 -7.6761 -0.0087
-6 -1 3 4.1592 -0.1053
-6 -1 4 0.3925 -0.0143
-6 -1 5 -3.7619 0.0731
-6 -1 6 4.1652 -0.0077
-6 -1 7 -2.1354 -0.0319
-6 -1 8 -0.0627 0.0057
-6 -1 9 1.0831 0.0122
-6 -1 10 -1.1085 -0.0014
-6 -1 11 0.6095 0.0116
-6 -1 12 -0.0717 -0.0682
-6 0 1 -6.4156 -0.4029
-6 0 2 6.5301 0.0511
-6 0 3 -4.0412 0.0904
-6 0 4 0.2557 0.0067
-6 0 5 3.5093 -0.0360
-6 0 6 -5.3928 -0.0272
-6 0 7 4.2536 0.0341
-6 0 8 -1.2941 -0.0012
-6 0 9 -1.2813 -0.0031
-6 0 10 2.4218 -0.0074
-6 0 11 -2.2153 0.0331
-6 0 12 1.1886 -0.0760
-6 0 13 -0.1931 0.0822
-6 1 1 2.9884 0.5048
-6 1 2 -3.8627 -0.0799
-6 1 3 2.8937 -0.1160
-6 1 4 -0.7205 0.0042
-6 1 5 -2.2196 0.0473
-6 1 6 4.8026 0.0161
-6 1 7 -5.2072 -0.0218
-6 1 8 3.0542 0.0023
-6 1 9 0.0558 -0.0249
-6 1 10 -2.3366 0.0113
-6 1 11 2.9008 0.0229
-6 1 12 -1.8082 0.0400
-6 1 13 0.1650 -0.1518
-6 1 14 0.6563 0.1705
-6 2 1 0.3554 -0.5870
-6 2 2 0.6139 0.1044
-6 2 3 -0.9591 0.1573
-6 2 4 0.4516 -0.0278
-6 2 5 1.1125 -0.0746
-6 2 6 -3.2326 0.0113
-6 2 7 4.3471 0.0135
-6 2 8 -3.5602 0.0065
-6 2 9 1.5893 0.0316
-6 2 10 0.4161 -0.0301
-6 2 11 -1.6420 -0.0718
-6 2 12 1.5746 0.1196
-6 2 13 -0.5774 -0.0392
-6 3 1 -2.3147 0.5521
-6 3 2 1.5389 -0.1144
-6 3 3 -0.5208 -0.1594
-6 3 4 -0.0624 0.0477
-6 3 5 -0.4481 0.0713
-6 3 6 1.8690 -0.0052
-6 3 7 -2.8148 -0.0383
-6 3 8 2.4537 -0.0120
-6 3 9 -1.4429 0.0162
-6 3 10 0.4816 0.0104
-6 3 11 0.3819 0.0462
-6 3 12 -0.8860 -0.1394
-6 3 13 0.7323 0.1696
-6 4 1 3.0316 -0.4041
-6 4 2 -2.5029 0.0763
-6 4 3 1.4083 0.1349
-6 4 4 -0.2343 -0.0531
-6 4 5 -0.1757 -0.0502
-6 4 6 -0.5918 0.0064
-6 4 7 1.4600 0.0333
-6 4 8 -1.3201 0.0133
-6 4 9 0.6208 -0.0310
-6 4 10 -0.1659 -0.0153
-6 4 11 -0.1389 0.0348
-6 4 12 0.4255 0.0036
-6 5 1 -3.0919 0.2731
-6 5 2 2.9801 -0.0486
-6 5 3 -2.3040 -0.0899
-6 5 4 1.0570 0.0429
-6 5 5 0.2760 0.0237
-6 5 6 -0.5999 -0.0187
-6 5 7 -0.0502 0.0183
-6 5 8 0.5543 -0.0338
-6 5 9 -0.5390 -0.0116
-6 5 10 0.4162 0.0985
-6 5 11 -0.2571 -0.1342
-6 6 1 2.3240 -0.1717
-6 6 2 -2.4108 0.0483
-6 6 3 2.3109 0.0282
-6 6 4 -1.7265 -0.0101
-6 6 5 0.3735 -0.0091
-6 6 6 0.7669 0.0071
-6 6 7 -0.7790 -0.0294
-6 6 8 0.1081 0.0366
-6 6 9 0.4557 0.0365
-6 6 10 -0.6936 -0.1327
-5 -11 1 1.3763 -0.3076
-5 -11 2 0.0401 -0.0467
-5 -10 1 -3.4726 0.5607
-5 -10 2 1.3903 -0.0344
-5 -10 3 0.2617 -0.2010
-5 -10 4 -0.7874 0.0476
-5 -10 5 0.4254 0.0996
-5 -9 1 5.0482 -0.5349
-5 -9 2 -2.7570 0.0514
-5 -9 3 0.0189 0.1875
-5 -9 4 1.7828 -0.0372
-5 -9 5 -1.9114 -0.0858
-5 -9 6 0.9451 0.0724
-5 -9 7 -0.1625 -0.0869
-5 -8 1 -4.8571 0.4739
-5 -8 2 2.9242 -0.0400
-5 -8 3 0.0901 -0.1573
-5 -8 4 -2.7896 -0.0252
-5 -8 5 3.8067 0.1238
-5 -8 6 -2.8994 -0.0125
-5 -8 7 1.3024 -0.0301
-5 -8 8 -0.3081 -0.0016
-5 -7 1 2.2891 -0.5414
-5 -7 2 -1.5433 0.0954
-5 -7 3 -0.6152 0.1653
-5 -7 4 3.2980 -0.0115
-5 -7 5 -5.0315 -0.1160
-5 -7 6 4.7115 0.0026
-5 -7 7 -2.7820 0.0795
-5 -7 8 0.6925 -0.0395
-5 -7 9 0.6254 0.0654
-5 -7 10 -0.9836 -0.1277
-5 -6 1 1.7688 0.5848
-5 -6 2 -0.9572 -0.1480
-5 -6 3 1.4043 -0.1632
-5 -6 4 -3.1595 0.0718
-5 -6 5 4.9709 0.0657
-5 -6 6 -5.0937 -0.0036
-5 -6 7 3.1580 -0.0563
-5 -6 8 -0.4340 -0.0075
-5 -6 9 -1.7978 0.0284
-5 -6 10 2.8831 0.0342
-5 -6 11 -2.4626 -0.0372
-5 -5 1 -6.2335 -0.5658
-5 -5 2 3.9455 0.1331
-5 -5 3 -2.0828 0.1509
-5 -5 4 2.0509 -0.0543
-5 -5 5 -3.3322 -0.0798
-5 -5 6 3.8085 0.0246
-5 -5 7 -2.3210 0.0419
-5 -5 8 -0.1334 0.0152
-5 -5 9 2.2754 -0.0647
-5 -5 10 -3.6659 0.0300
-5 -5 11 3.7498 -0.0151
-5 -5 12 -2.2671 0.0473
-5 -4 1 10.6026 0.5581
-5 -4 2 -7.5469 -0.1032
-5 -4 3 3.2002 -0.1601
-5 -4 4 -0.3635 0.0382
-5 -4 5 0.1856 0.0994
-5 -4 6 -1.0743 -0.0432
-5 -4 7 0.9739 -0.0349
-5 -4 8 0.1172 0.0090
-5 -4 9 -1.3141 0.0219
-5 -4 10 2.5982 0.0079
-5 -4 11 -3.5993 -0.0127
-5 -4 12 3.0915 -0.0559
-5 -4 13 -1.2828 0.1194
-5 -3 1 -13.0858 -0.5194
-5 -3 2 10.9140 0.0694
-5 -3 3 -5.4520 0.1687
-5 -3 4 -0.2016 -0.0426
-5 -3 5 3.0537 -0.0699
-5 -3 6 -2.7313 0.0106
-5 -3 7 1.2931 0.0386
-5 -3 8 -0.3395 -0.0010
-5 -3 9 0.0921 -0.0168
-5 -3 10 -0.8185 -0.0241
-5 -3 11 2.3974 0.0492
-5 -3 12 -3.1890 -0.0112
-5 -3 13 2.0741 -0.0536
-5 -2 1 11.9132 0.4695
-5 -2 2 -11.6171 -0.0307
-5 -2 3 7.2169 -0.1603
-5 -2 4 -0.7042 0.0084
-5 -2 5 -4.5873 0.0723
-5 -2 6 6.1769 0.0196
-5 -2 7 -4.5394 -0.0539
-5 -2 8 1.9755 -0.0041
-5 -2 9 -0.0968 0.0194
-5 -2 10 -0.4686 0.0129
-5 -2 11 -0.3833 -0.0250
-5 -2 12 1.5882 0.0233
-5 -2 13 -1.6103 -0.0332
-5 -2 14 0.5620 0.0450
-5 -1 1 -8.1225 -0.5026
-5 -1 2 9.2458 0.0447
-5 -1 3 -6.7363 0.1518
-5 -1 4 1.4795 0.0173
-5 -1 5 4.2884 -0.0936
-5 -1 6 -7.5945 -0.0197
-5 -1 7 6.9986 0.0514
-5 -1 8 -3.9153 0.0135
-5 -1 9 0.7368 -0.0085
-5 -1 10 1.2607 -0.0318
-5 -1 11 -1.7643 0.0105
-5 -1 12 1.0190 0.0226
-5 -1 13 -0.0125 -0.0082
-5 -1 14 -0.3443 -0.0292
-5 0 1 3.4006 0.5710
-5 0 2 -5.5575 -0.0922
-5 0 3 4.8694 -0.1571
-5 0 4 -1.5961 0.0036
-5 0 5 -3.0523 0.0823
-5 0 6 6.8506 0.0291
-5 0 7 -7.4410 -0.0470
-5 0 8 4.6816 -0.0443
-5 0 9 -0.8180 0.0390
-5 0 10 -2.0319 0.0241
-5 0 11 3.1487 -0.0137
-5 0 12 -2.5416 -0.0227
-5 0 13 0.8425 0.0344
-5 0 14 0.5972 -0.0561
-5 0 15 -0.8654 0.0601
-5 1 1 1.5078 -0.6067
-5 1 2 1.0608 0.1127
-5 1 3 -2.3090 0.1787
-5 1 4 1.4178 -0.0248
-5 1 5 1.3479 -0.0943
-5 1 6 -4.6950 -0.0174
-5 1 7 6.2420 0.0561
-5 1 8 -4.5475 0.0444
-5 1 9 0.9031 -0.0590
-5 1 10 2.2211 -0.0060
-5 1 11 -3.5137 0.0089
-5 1 12 2.8969 0.0053
-5 1 13 -0.9823 0.0024
-5 1 14 -0.8415 0.0563
-5 1 15 1.2852 -0.1433
-5 2 1 -4.7281 0.6167
-5 2 2 3.5334 -0.1323
-5 2 3 -1.2816 -0.1878
-5 2 4 -0.3005 0.0392
-5 2 5 0.1109 0.1209
-5 2 6 1.7939 -0.0167
-5 2 7 -3.6772 -0.0684
-5 2 8 3.5293 -0.0105
-5 2 9 -1.3554 0.0429
-5 2 10 -1.1528 0.0217
-5 2 11 2.7010 -0.0348
-5 2 12 -2.9345 0.0047
-5 2 13 1.9549 0.0065
-5 2 14 -0.5128 -0.0695
-5 2 15 -0.2819 0.1727
-5 3 1 4.9215 -0.5371
-5 3 2 -5.7501 0.1325
-5 3 3 4.2134 0.1615
-5 3 4 -1.5463 -0.0504
-5 3 5 -0.4511 -0.1018
-5 3 6 0.6034 0.0136
-5 3 7 0.4988 0.0892
-5 3 8 -1.2346 -0.0196
-5 3 9 0.9325 -0.0521
-5 3 10 -0.0570 0.0040
-5 3 11 -1.0418 0.0535
-5 3 12 2.1601 -0.0507
-5 3 13 -2.6907 0.0065
-5 3 14 2.2764 0.0924
-5 3 15 -1.3934 -0.1902
-5 4 1 -3.9420 0.3730
-5 4 2 5.3060 -0.0569
-5 4 3 -4.7489 -0.1384
-5 4 4 2.5535 0.0348
-5 4 5 0.0359 0.0827
-5 4 6 -1.5027 -0.0099
-5 4 7 1.5255 -0.0831
-5 4 8 -0.9554 0.0342
-5 4 9 0.3173 0.0524
-5 4 10 0.3136 -0.0519
-5 4 11 -0.3919 -0.0096
-5 4 12 -0.5068 0.0729
-5 4 13 1.6685 -0.0860
-5 4 14 -2.0718 -0.0019
-5 5 1 3.2279 -0.3118
-5 5 2 -4.2322 0.0077
-5 5 3 4.0979 0.1295
-5 5 4 -2.7213 -0.0149
-5 5 5 0.4644 -0.0842
-5 5 6 1.3988 0.0337
-5 5 7 -1.9923 0.0335
-5 5 8 1.6549 -0.0228
-5 5 9 -0.8242 -0.0118
-5 5 10 -0.3554 0.0330
-5 5 11 1.1801 -0.0439
-5 5 12 -0.8980 0.0081
-5 5 13 -0.0511 0.0662
-5 5 14 0.6448 -0.0791
-5 6 1 -1.7046 0.3512
-5 6 2 2.5325 -0.0575
-5 6 3 -3.0103 -0.0922
-5 6 4 2.7088 0.0134
-5 6 5 -1.0998 0.0581
-5 6 6 -0.9195 -0.0203
-5 6 7 1.8614 -0.0187
-5 6 8 -1.5119 0.0141
-5 6 9 0.5403 -0.0119
-5 6 10 0.5865 -0.0089
-5 6 11 -1.3445 0.0776
-5 6 12 1.2302 -0.1167
-5 6 13 -0.5622 0.0633
-5 7 1 -0.2164 -0.2438
-5 7 2 -0.0193 0.0449
-5 7 3 0.8377 0.0558
-5 7 4 -1.6978 -0.0051
-5 7 5 1.2921 -0.0293
-5 7 6 0.2860 -0.0121
-5 7 7 -1.4134 0.0439
-5 7 8 1.2419 -0.0386
-5 7 9 -0.3746 0.0275
-5 7 10 -0.4228 0.0131
-5 7 11 0.7688 -0.0920
-5 8 3 0.8298 -0.0652
-5 8 4 0.0859 -0.0148
-5 8 5 -0.5413 0.0301
-5 8 6 -0.0650 0.0111
-5 8 7 0.8150 -0.0338
-5 8 8 -0.8191 0.0440
-4 -11 1 -1.6609 0.5127
-4 -11 2 -0.5075 -0.1024
-4 -11 3 1.4192 -0.0132
-4 -10 1 2.6577 -0.6512
-4 -10 2 -0.4121 0.1104
-4 -10 3 -1.7174 0.1478
-4 -10 4 2.6819 0.0567
-4 -10 5 -2.2707 -0.2198
-4 -9 1 -2.4340 0.5543
-4 -9 2 1.1516 -0.0788
-4 -9 3 1.0526 -0.2024
-4 -9 4 -3.2426 0.0404
-4 -9 5 4.2301 0.1262
-4 -9 6 -3.3533 -0.1020
-4 -9 7 1.4370 0.1195
-4 -8 1 0.5067 -0.4397
-4 -8 2 -0.4932 0.0667
-4 -8 3 -0.5274 0.1429
-4 -8 4 2.3677 -0.0059
-4 -8 5 -4.2249 -0.0766
-4 -8 6 4.5789 -0.0391
-4 -8 7 -2.9021 0.0307
-4 -8 8 0.6135 0.1361
-4 -8 9 0.6178 -0.1396
-4 -7 1 2.7792 0.4565
-4 -7 2 -1.2201 -0.0917
-4 -7 3 0.4326 -0.1144
-4 -7 4 -0.7918 -0.0098
-4 -7 5 2.3684 0.0934
-4 -7 6 -3.8253 0.0495
-4 -7 7 3.4115 -0.1266
-4 -7 8 -1.2566 -0.0012
-4 -7 9 -0.7846 0.0620
-4 -7 10 1.3455 0.0402
-4 -6 1 -6.8692 -0.5153
-4 -6 2 3.6382 0.1064
-4 -6 3 -0.6075 0.1408
-4 -6 4 -0.9597 -0.0484
-4 -6 5 0.3637 -0.0678
-4 -6 6 1.4819 0.0075
-4 -6 7 -2.3682 0.0642
-4 -6 8 1.1574 -0.0134
-4 -6 9 1.0850 -0.0246
-4 -6 10 -2.4998 -0.0373
-4 -6 11 2.1798 0.0584
-4 -5 1 10.9418 0.5731
-4 -5 2 -7.0060 -0.0924
-4 -5 3 1.7435 -0.1620
-4 -5 4 2.2681 0.0522
-4 -5 5 -3.3964 0.0610
-4 -5 6 2.0214 -0.0220
-4 -5 7 -0.2440 -0.0196
-4 -5 8 -0.1427 -0.0133
-4 -5 9 -0.9926 0.0351
-4 -5 10 2.5577 -0.0042
-4 -5 11 -3.1384 -0.0120
-4 -5 12 2.1083 -0.0103
-4 -4 1 -13.3149 -0.6482
-4 -4 2 10.4928 0.0863
-4 -4 3 -4.3313 0.1819
-4 -4 4 -2.0216 -0.0136
-4 -4 5 5.6986 -0.1039
-4 -4 6 -5.8449 0.0126
-4 -4 7 3.8491 0.0500
-4 -4 8 -1.6866 -0.0103
-4 -4 9 0.5859 -0.0171
-4 -4 10 -0.9405 0.0076
-4 -4 11 2.0158 -0.0079
-4 -4 12 -2.2091 0.0177
-4 -4 13 1.0838 -0.0124
-4 -3 1 12.3790 0.6605
-4 -3 2 -12.1846 -0.0811
-4 -3 3 7.2869 -0.2078
-4 -3 4 -0.0080 0.0071
-4 -3 5 -6.1695 0.1244
-4 -3 6 8.6467 0.0058
-4 -3 7 -7.3251 -0.0783
-4 -3 8 4.0136 0.0050
-4 -3 9 -0.7958 0.0310
-4 -3 10 -0.7546 -0.0049
-4 -3 11 0.3187 -0.0034
-4 -3 12 0.6047 -0.0013
-4 -3 13 -0.4341 0.0166
-4 -3 14 -0.3159 -0.0575
-4 -2 1 -8.0517 -0.6106
-4 -2 2 10.7473 0.0713
-4 -2 3 -8.6811 0.2136
-4 -2 4 2.4930 -0.0045
-4 -2 5 4.8458 -0.1309
-4 -2 6 -9.5240 -0.0228
-4 -2 7 9.5780 0.0903
-4 -2 8 -6.0861 0.0304
-4 -2 9 1.6711 -0.0751
-4 -2 10 1.4404 0.0092
-4 -2 11 -2.3387 0.0161
-4 -2 12 1.7600 -0.0093
-4 -2 13 -1.2286 0.0060
-4 -2 14 1.1906 0.0472
-4 -2 15 -0.8853 -0.1103
-4 -1 1 1.7123 0.6048
-4 -1 2 -6.1837 -0.0960
-4 -1 3 7.3126 -0.2010
-4 -1 4 -3.9263 0.0045
-4 -1 5 -2.3744 0.1405
-4 -1 6 7.9321 0.0205
-4 -1 7 -9.5342 -0.1003
-4 -1 8 6.9000 -0.0364
-4 -1 9 -2.3920 0.0803
-4 -1 10 -1.4515 0.0230
-4 -1 11 3.4556 -0.0489
-4 -1 12 -3.6401 -0.0030
-4 -1 13 2.7162 0.0075
-4 -1 14 -1.5697 -0.0060
-4 -1 15 0.6725 0.0364
-4 0 1 4.2481 -0.6208
-4 0 2 0.1315 0.1276
-4 0 3 -3.6923 0.2000
-4 0 4 3.8169 -0.0378
-4 0 5 -0.4406 -0.1241
-4 0 6 -4.1333 -0.0125
-4 0 7 6.7718 0.1030
-4 0 8 -5.8434 0.0249
-4 0 9 2.4283 -0.0734
-4 0 10 1.1600 -0.0416
-4 0 11 -3.4773 0.0701
-4 0 12 4.1035 0.0140
-4 0 13 -3.0530 -0.0310
-4 0 14 1.1135 -0.0169
-4 0 15 0.2862 0.0518
-4 0 16 -0.4719 -0.0974
-4 1 1 -7.2634 0.5981
-4 1 2 4.8629 -0.1211
-4 1 3 -0.6451 -0.2061
-4 1 4 -2.2806 0.0612
-4 1 5 2.3656 0.1143
-4 1 6 -0.1044 -0.0061
-4 1 7 -2.5506 -0.0949
-4 1 8 3.4104 -0.0095
-4 1 9 -1.8866 0.0694
-4 1 10 -0.6620 0.0243
-4 1 11 2.6646 -0.0506
-4 1 12 -3.3850 -0.0291
-4 1 13 2.5321 0.0321
-4 1 14 -0.5490 0.0418
-4 1 15 -0.9956 -0.0890
-4 1 16 0.9585 0.1400
-4 2 1 6.5247 -0.5743
-4 2 2 -7.2461 0.1129
-4 2 3 4.5314 0.1920
-4 2 4 -0.5515 -0.0499
-4 2 5 -2.3130 -0.1281
-4 2 6 2.8403 0.0366
-4 2 7 -1.3172 0.0772
-4 2 8 -0.5328 -0.0061
-4 2 9 0.9910 -0.0527
-4 2 10 0.0263 -0.0209
-4 2 11 -1.4292 0.0456
-4 2 12 2.3046 0.0298
-4 2 13 -2.1093 -0.0372
-4 2 14 0.7915 -0.0374
-4 2 15 0.6103 0.0783
-4 2 16 -0.8427 -0.1086
-4 3 1 -3.7655 0.5396
-4 3 2 6.9492 -0.1071
-4 3 3 -6.7073 -0.1685
-4 3 4 3.4505 0.0442
-4 3 5 0.6672 0.1102
-4 3 6 -3.4146 -0.0357
-4 3 7 3.6706 -0.0609
-4 3 8 -2.0772 0.0043
-4 3 9 0.3577 0.0491
-4 3 10 0.3133 0.0121
-4 3 11 0.0747 -0.0475
-4 3 12 -0.9511 -0.0106
-4 3 13 1.5587 0.0401
-4 3 14 -1.2855 -0.0027
-4 3 15 0.3922 -0.0309
-4 3 16 0.1731 0.0759
-4 4 1 1.3233 -0.4592
-4 4 2 -4.8724 0.0646
-4 4 3 6.1291 0.1536
-4 4 4 -4.3385 -0.0324
-4 4 5 0.7121 -0.0788
-4 4 6 2.6103 0.0046
-4 4 7 -4.0566 0.0545
-4 4 8 3.4809 0.0097
-4 4 9 -1.7975 -0.0482
-4 4 10 0.1318 -0.0066
-4 4 11 0.6647 0.0328
-4 4 12 -0.3562 0.0160
-4 4 13 -0.4454 -0.0516
-4 4 14 0.8273 0.0491
-4 4 15 -0.5647 -0.0380
-4 4 16 0.1809 -0.0196
-4 5 1 0.3240 0.4289
-4 5 2 2.2466 -0.0333
-4 5 3 -3.8557 -0.1456
-4 5 4 3.4289 -0.0052
-4 5 5 -1.1377 0.0946
-4 5 6 -1.5417 0.0113
-4 5 7 3.1501 -0.0646
-4 5 8 -3.3550 -0.0160
-4 5 9 2.4658 0.0449
-4 5 10 -0.9000 0.0261
-4 5 11 -0.4917 -0.0507
-4 5 12 0.8426 -0.0096
-4 5 13 -0.3559 0.0617
-4 5 14 -0.0281 -0.0857
-4 5 15 -0.0230 0.1058
-4 6 1 -1.6780 -0.5057
-4 6 2 0.2545 0.0731
-4 6 3 1.5085 0.1504
-4 6 4 -2.4859 -0.0008
-4 6 5 1.7315 -0.1100
-4 6 6 0.1871 -0.0056
-4 6 7 -1.7686 0.0885
-4 6 8 2.3725 -0.0031
-4 6 9 -2.1669 -0.0640
-4 6 10 1.2218 0.0082
-4 6 11 0.0163 0.0515
-4 6 12 -0.5877 -0.0424
-4 6 13 0.3220 0.0104
-4 6 14 -0.0311 0.0342
-4 6 15 0.1078 -0.0956
-4 7 1 1.8051 0.5059
-4 7 2 -1.7555 -0.1103
-4 7 3 0.5939 -0.1473
-4 7 4 1.2118 0.0544
-4 7 5 -2.0695 0.0733
-4 7 6 1.2796 -0.0126
-4 7 7 0.0480 -0.0738
-4 7 8 -0.8449 0.0300
-4 7 9 1.0993 0.0475
-4 7 10 -0.9008 -0.0475
-4 7 11 0.3231 -0.0030
-4 7 12 0.0686 0.0645
-4 7 13 0.0337 -0.1152
-4 7 14 -0.1894 0.0963
-4 8 1 -0.3313 -0.2814
-4 8 2 1.2919 0.0417
-4 8 3 -1.7026 0.1039
-4 8 4 0.7067 -0.0416
-4 8 5 0.8301 -0.0412
-4 8 6 -1.4468 0.0255
-4 8 7 1.1249 0.0098
-4 8 8 -0.6668 -0.0091
-4 8 9 0.2619 0.0162
-4 8 10 0.1309 -0.0351
-4 8 11 -0.3113 0.0340
-4 8 12 0.3175 -0.0541
-4 9 2 -0.1430 0.0653
-4 9 3 1.2590 -0.0559
-4 9 4 -1.5076 -0.0297
-4 9 5 0.5944 0.0448
-4 9 6 0.4494 -0.0016
-4 9 7 -0.9279 0.0084
-4 9 8 0.9991 -0.0346
-4 9 9 -0.7886 -0.0211
-3 -11 1 0.6755 -0.5529
-3 -11 2 0.5026 0.1143
-3 -11 3 -1.0399 0.0424
-3 -10 1 -0.5168 0.5725
-3 -10 2 -0.5855 -0.1039
-3 -10 3 1.7435 -0.1502
-3 -10 4 -2.2905 -0.0598
-3 -10 5 2.1273 0.2345
-3 -9 1 -0.6278 -0.4299
-3 -9 2 0.2319 0.0538
-3 -9 3 -0.6702 0.1863
-3 -9 4 1.5559 -0.0424
-3 -9 5 -2.4831 -0.1122
-3 -9 6 2.6579 0.0470
-3 -9 7 -1.6421 -0.0245
-3 -8 1 3.0760 0.3662
-3 -8 2 -0.9755 -0.0444
-3 -8 3 -0.4554 -0.1236
-3 -8 4 0.8604 0.0156
-3 -8 5 0.1614 0.0472
-3 -8 6 -1.8011 0.0621
-3 -8 7 2.2210 -0.0590
-3 -8 8 -0.9388 -0.1432
-3 -8 9 -0.5024 0.2091
-3 -7 1 -5.3377 -0.4591
-3 -7 2 2.4639 0.0702
-3 -7 3 0.3303 0.1024
-3 -7 4 -2.5417 0.0158
-3 -7 5 2.9905 -0.0813
-3 -7 6 -1.2097 -0.0254
-3 -7 7 -0.9220 0.0695
-3 -7 8 1.1618 0.0508
-3 -7 9 0.2118 -0.0864
-3 -7 10 -1.1734 -0.0986
-3 -6 1 6.5243 0.6195
-3 -6 2 -3.4967 -0.1037
-3 -6 3 -0.0363 -0.1463
-3 -6 4 3.2737 0.0250
-3 -6 5 -5.1536 0.0760
-3 -6 6 4.4188 -0.0254
-3 -6 7 -1.7268 -0.0115
-3 -6 8 -0.3293 -0.0234
-3 -6 9 0.2231 0.0115
-3 -6 10 0.9483 0.1002
-3 -6 11 -1.3495 -0.1788
-3 -6 12 0.6573 0.1128
-3 -5 1 -7.4031 -0.7564
-3 -5 2 5.0932 0.1205
-3 -5 3 -0.7581 0.2015
-3 -5 4 -3.6212 -0.0426
-3 -5 5 6.5890 -0.0784
-3 -5 6 -7.0015 0.0069
-3 -5 7 4.7705 0.0263
-3 -5 8 -1.6620 0.0152
-3 -5 9 -0.0304 -0.0191
-3 -5 10 -0.2989 -0.0035
-3 -5 11 1.2371 -0.0024
-3 -5 12 -1.2286 0.0196
-3 -5 13 0.3480 -0.0065
-3 -4 1 6.8610 0.8148
-3 -4 2 -7.4358 -0.1209
-3 -4 3 3.7672 -0.2591
-3 -4 4 1.8934 0.0378
-3 -4 5 -6.7091 0.1394
-3 -4 6 8.7867 -0.0060
-3 -4 7 -7.6354 -0.0865
-3 -4 8 4.3072 0.0189
-3 -4 9 -0.9990 0.0208
-3 -4 10 -0.3576 -0.0117
-3 -4 11 -0.2372 0.0256
-3 -4 12 0.9453 -0.0198
-3 -4 13 -0.4675 -0.0155
-3 -4 14 -0.4005 0.0160
-3 -3 1 -3.2439 -0.7417
-3 -3 2 7.9017 0.1159
-3 -3 3 -7.5487 0.2830
-3 -3 4 2.4673 -0.0552
-3 -3 5 4.1557 -0.1741
-3 -3 6 -8.7561 0.0254
-3 -3 7 9.4882 0.1154
-3 -3 8 -6.6896 -0.0263
-3 -3 9 2.3545 -0.0433
-3 -3 10 0.8714 -0.0048
-3 -3 11 -1.5127 0.0418
-3 -3 12 0.6179 -0.0568
-3 -3 13 -0.2786 0.0534
-3 -3 14 0.8109 0.0475
-3 -2 1 -1.4740 0.5945
-3 -2 2 -5.5183 -0.1117
-3 -2 3 8.9772 -0.2393
-3 -2 4 -6.6477 0.0567
-3 -2 5 0.1778 0.1613
-3 -2 6 6.2682 -0.0255
-3 -2 7 -9.2255 -0.1183
-3 -2 8 7.8265 0.0080
-3 -2 9 -3.5508 0.0862
-3 -2 10 -0.8824 -0.0146
-3 -2 11 3.1133 -0.0356
-3 -2 12 -2.8681 0.0171
-3 -2 13 1.8259 -0.0107
-3 -2 14 -1.2895 -0.0475
-3 -2 15 0.9249 0.1536
-3 -1 1 4.9105 -0.5280
-3 -1 2 1.4838 0.1272
-3 -1 3 -7.0916 0.1726
-3 -1 4 8.1280 -0.0388
-3 -1 5 -4.1101 -0.1383
-3 -1 6 -1.9080 0.0220
-3 -1 7 6.1797 0.1059
-3 -1 8 -6.8047 0.0019
-3 -1 9 4.1242 -0.0892
-3 -1 10 -0.0093 -0.0060
-3 -1 11 -3.2135 0.0468
-3 -1 12 4.1560 0.0481
-3 -1 13 -3.1433 -0.0766
-3 -1 14 1.5061 0.0128
-3 -1 15 -0.2607 0.0236
-3 -1 16 -0.3388 -0.0688
-3 0 1 -6.7118 0.5630
-3 0 2 3.3487 -0.1427
-3 0 3 2.5202 -0.1475
-3 0 4 -6.5240 0.0424
-3 0 5 6.2162 0.1064
-3 0 6 -2.7310 -0.0182
-3 0 7 -1.2448 -0.0839
-3 0 8 3.6197 -0.0066
-3 0 9 -3.4487 0.0734
-3 0 10 1.0894 0.0387
-3 0 11 1.9062 -0.0959
-3 0 12 -3.7192 -0.0238
-3 0 13 3.3816 0.0887
-3 0 14 -1.3898 0.0076
-3 0 15 -0.5867 -0.1053
-3 0 16 1.1723 0.1427
-3 1 1 5.4384 -0.6080
-3 1 2 -6.6376 0.1207
-3 1 3 2.8022 0.1682
-3 1 4 2.6017 -0.0508
-3 1 5 -5.7189 -0.0844
-3 1 6 5.5559 0.0066
-3 1 7 -3.1482 0.0723
-3 1 8 0.0853 0.0085
-3 1 9 1.8005 -0.0692
-3 1 10 -1.3856 -0.0178
-3 1 11 -0.6764 0.0686
-3 1 12 2.5968 0.0241
-3 1 13 -2.8637 -0.0703
-3 1 14 1.1968 -0.0196
-3 1 15 1.0070 0.0733
-3 1 16 -1.7860 -0.0226
-3 1 17 0.9104 -0.0198
-3 2 1 -0.6055 0.6343
-3 2 2 5.6917 -0.0884
-3 2 3 -5.9062 -0.1911
-3 2 4 1.9198 0.0302
-3 2 5 2.7478 0.1002
-3 2 6 -5.4848 0.0018
-3 2 7 5.3899 -0.0769
-3 2 8 -2.8841 -0.0065
-3 2 9 -0.0494 0.0626
-3 2 10 1.1374 0.0041
-3 2 11 -0.0780 -0.0320
-3 2 12 -1.5451 -0.0511
-3 2 13 2.1251 0.0775
-3 2 14 -1.0754 0.0151
-3 2 15 -0.8202 -0.0450
-3 2 16 1.8081 -0.0657
-3 2 17 -1.1341 0.1654
-3 3 1 -3.8890 -0.6347
-3 3 2 -2.1405 0.0700
-3 3 3 5.6989 0.2062
-3 3 4 -4.8166 -0.0112
-3 3 5 0.9793 -0.1255
-3 3 6 3.1692 -0.0025
-3 3 7 -5.4066 0.0850
-3 3 8 4.6049 0.0085
-3 3 9 -1.7865 -0.0629
-3 3 10 -0.4538 -0.0113
-3 3 11 0.6529 0.0524
-3 3 12 0.3736 0.0058
-3 3 13 -1.1187 -0.0254
-3 3 14 0.8060 -0.0447
-3 3 15 0.3571 0.0617
-3 3 16 -1.2710 0.0432
-3 3 17 1.0016 -0.1498
-3 4 1 4.8261 0.5956
-3 4 2 -0.3219 -0.0640
-3 4 3 -3.7141 -0.2132
-3 4 4 4.8389 0.0216
-3 4 5 -2.8874 0.1207
-3 4 6 -0.6236 0.0050
-3 4 7 3.7208 -0.0830
-3 4 8 -4.7277 -0.0142
-3 4 9 3.2990 0.0617
-3 4 10 -0.9534 0.0137
-3 4 11 -0.3970 -0.0463
-3 4 12 0.3422 0.0003
-3 4 13 0.1856 -0.0109
-3 4 14 -0.2984 0.0951
-3 4 15 -0.1779 -0.1181
-3 4 16 0.7569 0.0343
-3 4 17 -0.7743 0.0588
-3 5 1 -4.0518 -0.5531
-3 5 2 1.3171 0.0895
-3 5 3 1.6802 0.1788
-3 5 4 -3.1469 -0.0187
-3 5 5 2.4731 -0.1065
-3 5 6 -0.4171 -0.0148
-3 5 7 -1.8238 0.0805
-3 5 8 3.3047 0.0238
-3 5 9 -3.3829 -0.0552
-3 5 10 2.1217 -0.0413
-3 5 11 -0.6115 0.0519
-3 5 12 -0.0587 0.0558
-3 5 13 -0.0083 -0.0862
-3 5 14 0.0226 -0.0150
-3 5 15 0.2983 0.1028
-3 5 16 -0.6330 -0.0973
-3 6 1 3.6038 0.5384
-3 6 2 -2.2597 -0.1199
-3 6 3 0.0538 -0.1422
-3 6 4 1.7019 0.0094
-3 6 5 -1.9645 0.1068
-3 6 6 0.8839 0.0114
-3 6 7 0.5252 -0.0848
-3 6 8 -1.6757 -0.0279
-3 6 9 2.3786 0.0833
-3 6 10 -2.2078 0.0299
-3 6 11 1.2330 -0.0945
-3 6 12 -0.4276 -0.0059
-3 6 13 0.2814 0.1097
-3 6 14 -0.1924 -0.0917
-3 6 15 -0.2164 0.0116
-3 6 16 0.5327 0.0587
-3 7 1 -1.8577 -0.5347
-3 7 2 2.1109 0.1214
-3 7 3 -1.3505 0.1538
-3 7 4 -0.3373 -0.0541
-3 7 5 1.7816 -0.0807
-3 7 6 -1.9134 0.0174
-3 7 7 1.0916 0.0586
-3 7 8 -0.0868 0.0122
-3 7 9 -0.9067 -0.0885
-3 7 10 1.5181 0.0362
-3 7 11 -1.2764 0.0458
-3 7 12 0.6627 -0.0471
-3 7 13 -0.4168 0.0111
-3 7 14 0.3165 0.0079
-3 7 15 0.0261 -0.0194
-3 8 1 -1.3679 0.4904
-3 8 2 0.2034 -0.1309
-3 8 3 1.1668 -0.1185
-3 8 4 -1.1251 0.0771
-3 8 5 -0.4164 0.0207
-3 8 6 1.8771 -0.0213
-3 8 7 -2.3072 0.0002
-3 8 8 1.9574 -0.0096
-3 8 9 -1.0627 0.0026
-3 8 10 -0.0885 0.0191
-3 8 11 0.7710 0.0041
-3 8 12 -0.7578 -0.0455
-3 8 13 0.5221 0.0173
-3 8 14 -0.2421 0.0557
-3 9 1 2.4224 -0.3542
-3 9 2 -1.7962 0.1317
-3 9 3 0.0332 0.0051
-3 9 4 1.1948 0.0084
-3 9 5 -0.7455 0.0006
-3 9 6 -0.6216 -0.0318
-3 9 7 1.7036 -0.0094
-3 9 8 -2.2010 0.0411
-3 9 9 2.0775 0.0481
-3 9 10 -1.2753 -0.1536
-3 9 11 0.2743 0.0968
-3 9 12 0.3291 0.0809
-3 9 13 -0.4632 -0.1629
-3 10 3 -0.1255 0.0375
-3 10 4 -0.3009 -0.0788
-3 10 5 0.1398 0.0263
-3 10 6 0.3715 0.0669
-3 10 7 -0.7372 -0.0369
-3 10 8 0.9889 -0.0495
-3 10 9 -1.2022 0.0103
-2 -11 1 1.3637 0.4812
-2 -11 2 -1.2604 -0.1013
-2 -11 3 0.7922 -0.0773
-2 -10 1 -2.1544 -0.4624
-2 -10 2 1.8380 0.0885
-2 -10 3 -1.1371 0.1483
-2 -10 4 0.2137 0.0165
-2 -10 5 0.1962 -0.2175
-2 -9 1 2.3532 0.3435
-2 -9 2 -1.1214 -0.0373
-2 -9 3 -0.1293 -0.1385
-2 -9 4 1.2648 0.0268
-2 -9 5 -1.4016 0.1053
-2 -9 6 0.3097 -0.0814
-2 -9 7 0.7814 0.0625
-2 -8 1 -2.4767 -0.4046
-2 -8 2 -0.1358 0.0453
-2 -8 3 2.3647 0.0871
-2 -8 4 -3.8171 0.0147
-2 -8 5 3.7619 -0.0303
-2 -8 6 -1.7933 -0.0679
-2 -8 7 -0.7276 0.0423
-2 -8 8 1.7694 0.1431
-2 -8 9 -1.1375 -0.2288
-2 -7 1 2.3841 0.6122
-2 -7 2 0.4046 -0.0939
-2 -7 3 -3.2578 -0.1138
-2 -7 4 5.2285 -0.0234
-2 -7 5 -5.6752 0.0574
-2 -7 6 3.9681 0.0561
-2 -7 7 -0.9170 -0.0600
-2 -7 8 -1.1061 -0.0564
-2 -7 9 0.8846 0.0743
-2 -7 10 0.2141 0.0812
-2 -6 1 -0.9308 -0.7983
-2 -6 2 0.1873 0.1380
-2 -6 3 2.0888 0.1968
-2 -6 4 -4.4998 -0.0351
-2 -6 5 5.9942 -0.0716
-2 -6 6 -5.5123 -0.0071
-2 -6 7 2.8405 0.0146
-2 -6 8 0.1108 0.0370
-2 -6 9 -0.9782 0.0171
-2 -6 10 -0.1708 -0.1394
-2 -6 11 1.2780 0.1905
-2 -6 12 -1.1847 -0.1200
-2 -5 1 -1.8814 0.8808
-2 -5 2 -1.0194 -0.1672
-2 -5 3 0.6701 -0.2518
-2 -5 4 1.8907 0.0634
-2 -5 5 -4.6983 0.0969
-2 -5 6 5.9870 0.0109
-2 -5 7 -4.6018 -0.0515
-2 -5 8 1.2334 -0.0249
-2 -5 9 1.5316 0.0200
-2 -5 10 -1.7656 0.0143
-2 -5 11 0.1901 0.0278
-2 -5 12 1.1335 -0.0568
-2 -5 13 -1.2539 0.0151
-2 -4 1 5.0427 -0.8127
-2 -4 2 1.7463 0.1677
-2 -4 3 -4.5614 0.2661
-2 -4 4 2.6328 -0.0631
-2 -4 5 1.4959 -0.1559
-2 -4 6 -4.9459 0.0205
-2 -4 7 5.9016 0.0939
-2 -4 8 -3.8489 -0.0026
-2 -4 9 0.1042 -0.0519
-2 -4 10 2.6708 0.0326
-2 -4 11 -2.8011 -0.0689
-2 -4 12 1.1703 0.0749
-2 -4 13 0.1851 0.0170
-2 -4 14 -0.4492 -0.0645
-2 -3 1 -7.1792 0.6167
-2 -3 2 -1.7621 -0.1353
-2 -3 3 7.9719 -0.2309
-2 -3 4 -7.9570 0.0703
-2 -3 5 3.2286 0.1530
-2 -3 6 2.2831 -0.0476
-2 -3 7 -5.7645 -0.0857
-2 -3 8 6.0982 0.0017
-2 -3 9 -3.3368 0.0612
-2 -3 10 -0.7741 0.0178
-2 -3 11 3.3750 -0.0621
-2 -3 12 -3.1759 0.0493
-2 -3 13 1.6144 -0.0542
-2 -3 14 -0.5833 -0.0230
-2 -3 15 0.2932 0.1851
-2 -2 1 6.1900 -0.4469
-2 -2 2 1.3567 0.0894
-2 -2 3 -9.0014 0.1576
-2 -2 4 11.5371 -0.0490
-2 -2 5 -7.7516 -0.0933
-2 -2 6 1.1451 0.0097
-2 -2 7 4.1871 0.0806
-2 -2 8 -6.3821 0.0116
-2 -2 9 5.1434 -0.0759
-2 -2 10 -1.4024 -0.0221
-2 -2 11 -2.2540 0.0862
-2 -2 12 3.3958 -0.0347
-2 -2 13 -2.2513 -0.0043
-2 -2 14 0.8853 0.0575
-2 -2 15 -0.3545 -0.1849
-2 -1 1 -1.2059 0.4505
-2 -1 2 -1.4270 -0.0660
-2 -1 3 7.0833 -0.1148
-2 -1 4 -11.3060 0.0058
-2 -1 5 10.1754 0.0633
-2 -1 6 -4.6164 0.0269
-2 -1 7 -1.3790 -0.0714
-2 -1 8 4.9512 -0.0251
-2 -1 9 -5.2081 0.0745
-2 -1 10 2.5506 0.0144
-2 -1 11 1.0042 -0.0467
-2 -1 12 -2.8047 -0.0561
-2 -1 13 2.1148 0.0918
-2 -1 14 -0.5569 -0.0022
-2 -1 15 -0.2159 -0.0393
-2 -1 16 0.1693 0.0238
-2 0 1 -5.7517 -0.6042
-2 0 2 1.9368 0.0797
-2 0 3 -2.7873 0.1355
-2 0 4 6.6696 0.0140
-2 0 5 -8.7301 -0.0747
-2 0 6 6.7105 -0.0297
-2 0 7 -2.3355 0.0529
-2 0 8 -1.8116 0.0371
-2 0 9 3.9395 -0.0544
-2 0 10 -3.1624 -0.0399
-2 0 11 0.4280 0.0685
-2 0 12 1.7877 0.0324
-2 0 13 -1.9221 -0.0718
-2 0 14 0.6367 -0.0426
-2 0 15 0.4315 0.1217
-2 0 16 -0.4470 -0.0552
-2 0 17 -0.0830 -0.0230
-2 1 1 11.6574 0.7688
-2 1 2 -2.8016 -0.0943
-2 1 3 -1.7362 -0.2022
-2 1 4 0.2278 -0.0052
-2 1 5 3.4995 0.1057
-2 1 6 -5.4597 0.0246
-2 1 7 4.7145 -0.0577
-2 1 8 -2.0186 -0.0346
-2 1 9 -1.0839 0.0403
-2 1 10 2.4840 0.0437
-2 1 11 -1.4598 -0.0617
-2 1 12 -0.4092 -0.0021
-2 1 13 1.3108 0.0118
-2 1 14 -0.9099 0.0611
-2 1 15 -0.0158 -0.0513
-2 1 16 0.4498 -0.1124
-2 1 17 -0.0607 0.2482
-2 2 1 -14.6279 -0.8390
-2 2 2 4.3625 0.0885
-2 2 3 3.7135 0.2752
-2 2 4 -5.3929 -0.0166
-2 2 5 2.3617 -0.1426
-2 2 6 1.5774 -0.0173
-2 2 7 -4.1269 0.0812
-2 2 8 4.2094 0.0288
-2 2 9 -1.9872 -0.0461
-2 2 10 -0.4771 -0.0293
-2 2 11 1.2489 0.0165
-2 2 12 -0.6122 0.0544
-2 2 13 -0.2097 -0.0342
-2 2 14 0.6534 -0.0551
-2 2 15 -0.5210 0.0422
-2 2 16 -0.0106 0.1212
-2 2 17 0.2406 -0.2584
-2 3 1 14.0342 0.7816
-2 3 2 -5.9631 -0.0778
-2 3 3 -2.6532 -0.2960
-2 3 4 6.8917 0.0246
-2 3 5 -6.0605 0.1695
-2 3 6 2.4149 0.0102
-2 3 7 1.7175 -0.1077
-2 3 8 -4.2503 -0.0236
-2 3 9 3.8752 0.0637
-2 3 10 -1.6558 0.0322
-2 3 11 -0.1496 -0.0324
-2 3 12 0.7831 -0.0586
-2 3 13 -0.7009 0.0630
-2 3 14 0.0915 0.0167
-2 3 15 0.6275 -0.0368
-2 3 16 -0.6788 -0.0399
-2 3 17 0.1980 0.1065
-2 4 1 -10.0830 -0.6418
-2 4 2 5.9091 0.0637
-2 4 3 0.4911 0.2568
-2 4 4 -5.4622 -0.0084
-2 4 5 6.8848 -0.1758
-2 4 6 -4.9722 -0.0069
-2 4 7 1.0608 0.1220
-2 4 8 2.7625 0.0149
-2 4 9 -4.2857 -0.0772
-2 4 10 3.2035 -0.0283
-2 4 11 -1.2998 0.0595
-2 4 12 -0.0342 0.0138
-2 4 13 0.7122 -0.0208
-2 4 14 -0.6695 -0.0264
-2 4 15 -0.0966 -0.0048
-2 4 16 0.7575 0.0962
-2 4 17 -0.6803 -0.1289
-2 5 1 4.6365 0.5321
-2 5 2 -3.6377 -0.0540
-2 5 3 0.6285 -0.2061
-2 5 4 2.8940 -0.0038
-2 5 5 -5.0988 0.1527
-2 5 6 5.0528 0.0102
-2 5 7 -2.8733 -0.1080
-2 5 8 -0.3792 -0.0219
-2 5 9 2.8470 0.0797
-2 5 10 -3.2371 0.0226
-2 5 11 2.1253 -0.0426
-2 5 12 -0.8662 -0.0415
-2 5 13 -0.0832 0.0223
-2 5 14 0.7096 0.0780
-2 5 15 -0.6538 -0.0509
-2 5 16 -0.0169 -0.1119
-2 5 17 0.5249 0.2290
-2 6 1 -0.6962 -0.5022
-2 6 2 1.0369 0.0557
-2 6 3 -0.4086 0.1746
-2 6 4 -1.1531 0.0043
-2 6 5 2.7537 -0.1185
-2 6 6 -3.3905 -0.0231
-2 6 7 2.7815 0.0900
-2 6 8 -1.1755 0.0359
-2 6 9 -0.7464 -0.0765
-2 6 10 1.8718 -0.0405
-2 6 11 -1.7032 0.0602
-2 6 12 0.9386 0.0649
-2 6 13 -0.2187 -0.0879
-2 6 14 -0.5390 -0.0521
-2 6 15 1.0941 0.1319
-2 6 16 -0.8209 -0.0344
-2 6 17 -0.0254 -0.1175
-2 7 1 -1.3581 0.5136
-2 7 2 0.4300 -0.0438
-2 7 3 0.2005 -0.1743
-2 7 4 0.2647 -0.0092
-2 7 5 -1.5128 0.1135
-2 7 6 2.3229 0.0239
-2 7 7 -2.1895 -0.0910
-2 7 8 1.4143 -0.0183
-2 7 9 -0.2021 0.0643
-2 7 10 -0.9892 0.0363
-2 7 11 1.3520 -0.0828
-2 7 12 -0.8864 -0.0091
-2 7 13 0.2801 0.0669
-2 7 14 0.3527 0.0158
-2 7 15 -1.0587 -0.1187
-2 7 16 1.1811 0.1227
-2 8 1 3.1585 -0.5504
-2 8 2 -1.7578 0.0345
-2 8 3 -0.0441 0.1910
-2 8 4 0.6926 0.0124
-2 8 5 0.2796 -0.1304
-2 8 6 -1.5564 -0.0017
-2 8 7 1.9605 0.0828
-2 8 8 -1.5919 -0.0112
-2 8 9 0.7024 -0.0320
-2 8 10 0.5733 -0.0100
-2 8 11 -1.4677 0.0251
-2 8 12 1.3677 0.0137
-2 8 13 -0.7046 -0.0126
-2 8 14 -0.0006 -0.0593
-2 8 15 0.6722 0.1160
-2 9 1 -3.5726 0.5483
-2 9 2 2.6302 -0.0480
-2 9 3 -0.7679 -0.1891
-2 9 4 -0.6792 -0.0003
-2 9 5 0.7067 0.1185
-2 9 6 0.1830 -0.0046
-2 9 7 -0.9518 -0.0525
-2 9 8 1.3577 -0.0135
-2 9 9 -1.3360 0.0259
-2 9 10 0.5475 0.0150
-2 9 11 0.6213 0.0122
-2 9 12 -1.1736 -0.0792
-2 9 13 0.8769 0.0648
-2 9 14 -0.2507 0.0413
-2 10 1 1.5201 -0.3794
-2 10 2 -1.3797 0.0117
-2 10 3 0.9380 0.1805
-2 10 4 -0.4214 -0.0299
-2 10 5 0.0977 -0.0646
-2 10 6 0.0444 -0.0290
-2 10 7 -0.0622 0.0398
-2 10 8 -0.3059 0.0728
-2 10 9 0.9747 -0.0929
-2 10 10 -1.1571 0.0080
-2 10 11 0.5297 0.0172
-2 10 12 0.1905 0.0475
-2 11 5 -0.9690 0.0132
-2 11 6 0.7161 0.0592
-2 11 7 -0.0784 -0.0546
-2 11 8 -0.2341 -0.0716
-1 -11 1 -0.3663 -0.2776
-1 -11 2 -0.5874 -0.0445
-1 -10 1 1.2866 0.4252
-1 -10 2 0.7911 -0.0166
-1 -10 3 -2.2357 -0.2111
-1 -10 4 2.6413 0.0652
-1 -10 5 -1.8575 0.1340
-1 -9 1 -1.1902 -0.4445
-1 -9 2 -1.0265 0.0159
-1 -9 3 3.1877 0.1711
-1 -9 4 -4.3239 -0.0142
-1 -9 5 3.6125 -0.1236
-1 -9 6 -1.2055 0.1057
-1 -9 7 -1.2229 -0.0870
-1 -8 1 -0.3903 0.5722
-1 -8 2 1.8094 -0.0270
-1 -8 3 -3.6416 -0.1665
-1 -8 4 4.8379 -0.0392
-1 -8 5 -4.4675 0.1087
-1 -8 6 2.0303 0.0222
-1 -8 7 1.5492 -0.0320
-1 -8 8 -3.9038 -0.1011
-1 -8 9 3.5019 0.1470
-1 -7 1 2.8401 -0.7900
-1 -7 2 -2.4222 0.0960
-1 -7 3 2.9357 0.2221
-1 -7 4 -3.4461 0.0149
-1 -7 5 3.3906 -0.1199
-1 -7 6 -2.2778 -0.0563
-1 -7 7 -0.1486 0.0966
-1 -7 8 2.7472 0.0441
-1 -7 9 -3.6099 -0.0783
-1 -7 10 2.4436 -0.0332
-1 -6 1 -5.7236 0.8834
-1 -6 2 2.1027 -0.1406
-1 -6 3 -0.5445 -0.2822
-1 -6 4 0.4726 0.0372
-1 -6 5 -0.9602 0.1462
-1 -6 6 1.4094 0.0120
-1 -6 7 -1.0592 -0.0795
-1 -6 8 -0.2110 -0.0296
-1 -6 9 1.2034 0.0193
-1 -6 10 -1.0020 0.0996
-1 -6 11 0.3098 -0.1259
-1 -5 1 9.1412 -0.8042
-1 -5 2 -1.3418 0.1226
-1 -5 3 -3.4283 0.3017
-1 -5 4 4.0159 -0.0513
-1 -5 5 -2.1653 -0.1761
-1 -5 6 -0.1330 0.0130
-1 -5 7 1.5047 0.0974
-1 -5 8 -1.3408 0.0123
-1 -5 9 0.3773 -0.0310
-1 -5 10 0.0581 -0.0489
-1 -5 11 0.2125 0.0081
-1 -5 12 -0.3384 0.0658
-1 -5 13 0.0446 -0.0198
-1 -4 1 -11.2696 0.6208
-1 -4 2 1.2477 -0.0792
-1 -4 3 6.9867 -0.2600
-1 -4 4 -9.2614 0.0255
-1 -4 5 6.3952 0.1900
-1 -4 6 -1.7496 -0.0186
-1 -4 7 -1.9336 -0.1239
-1 -4 8 3.2755 0.0011
-1 -4 9 -2.2585 0.0724
-1 -4 10 0.3128 -0.0011
-1 -4 11 0.8495 0.0174
-1 -4 12 -0.8272 -0.0817
-1 -4 13 0.3727 0.0120
-1 -4 14 -0.1013 0.0699
-1 -3 1 7.3160 -0.4534
-1 -3 2 -0.4993 0.0279
-1 -3 3 -7.7102 0.1824
-1 -3 4 11.8320 0.0236
-1 -3 5 -9.8222 -0.1625
-1 -3 6 4.1476 -0.0071
-1 -3 7 1.6113 0.1236
-1 -3 8 -5.1670 0.0133
-1 -3 9 5.3705 -0.1045
-1 -3 10 -2.5685 0.0015
-1 -3 11 -0.8436 0.0642
-1 -3 12 2.3018 -0.0232
-1 -3 13 -1.5727 0.0267
-1 -3 14 0.3384 -0.0181
-1 -3 15 0.1339 -0.1145
-1 -2 1 4.1573 0.4712
-1 -2 2 -3.6689 0.0093
-1 -2 3 6.6343 -0.1539
-1 -2 4 -9.9883 -0.0659
-1 -2 5 9.5927 0.1290
-1 -2 6 -5.0472 0.0577
-1 -2 7 -0.7209 -0.1280
-1 -2 8 5.1153 -0.0173
-1 -2 9 -6.7131 0.0929
-1 -2 10 4.8531 0.0112
-1 -2 11 -0.9289 -0.0774
-1 -2 12 -1.8616 0.0154
-1 -2 13 1.8095 0.0239
-1 -2 14 -0.3069 -0.0299
-1 -2 15 -0.5030 0.1194
-1 -1 1 -18.3821 -0.6628
-1 -1 2 10.4711 0.0042
-1 -1 3 -5.6336 0.2193
-1 -1 4 5.3668 0.0512
-1 -1 5 -5.8939 -0.1345
-1 -1 6 3.7262 -0.0577
-1 -1 7 0.3150 0.1057
-1 -1 8 -3.8512 0.0281
-1 -1 9 5.6040 -0.0592
-1 -1 10 -4.8740 -0.0360
-1 -1 11 1.9982 0.0456
-1 -1 12 0.7849 0.0556
-1 -1 13 -1.3937 -0.0812
-1 -1 14 0.2579 -0.0061
-1 -1 15 0.7164 0.0374
-1 -1 16 -0.6350 0.0137
-1 0 1 30.6226 0.8453
-1 0 2 -16.8750 -0.0765
-1 0 3 4.1513 -0.3020
-1 0 4 1.2406 0.0144
-1 0 5 -0.5716 0.1500
-1 0 6 -0.6561 0.0210
-1 0 7 -0.1019 -0.0662
-1 0 8 1.9141 -0.0577
-1 0 9 -3.4289 0.0481
-1 0 10 3.5639 0.0559
-1 0 11 -1.9051 -0.0348
-1 0 12 -0.2861 -0.0610
-1 0 13 1.2548 0.0409
-1 0 14 -0.7674 0.0840
-1 0 15 -0.1232 -0.1192
-1 0 16 0.5264 -0.0034
-1 0 17 -0.3804 0.1156
-1 1 1 -36.5802 -0.9387
-1 1 2 20.5839 0.1814
-1 1 3 -2.3991 0.3146
-1 1 4 -8.0778 -0.0599
-1 1 5 8.5307 -0.1560
-1 1 6 -4.2152 -0.0147
-1 1 7 0.5056 0.0817
-1 1 8 0.7230 0.0549
-1 1 9 0.1140 -0.0470
-1 1 10 -1.3078 -0.0634
-1 1 11 1.2380 0.0239
-1 1 12 -0.1702 0.0691
-1 1 13 -0.6211 -0.0184
-1 1 14 0.7730 -0.0897
-1 1 15 -0.5567 0.0601
-1 1 16 0.1474 0.1139
-1 1 17 0.1201 -0.2500
-1 2 1 31.5166 0.9276
-1 2 2 -18.7986 -0.2493
-1 2 3 1.2572 -0.2819
-1 2 4 11.1147 0.0645
-1 2 5 -13.5027 0.1769
-1 2 6 8.8135 0.0073
-1 2 7 -2.3707 -0.1187
-1 2 8 -2.1207 -0.0354
-1 2 9 3.1119 0.0606
-1 2 10 -1.6416 0.0658
-1 2 11 0.1614 -0.0372
-1 2 12 0.3644 -0.0753
-1 2 13 -0.4716 0.0398
-1 2 14 0.2033 0.0477
-1 2 15 0.4401 -0.0046
-1 2 16 -0.6577 -0.1102
-1 2 17 0.2514 0.1428
-1 3 1 -18.5909 -0.7708
-1 3 2 11.8062 0.2205
-1 3 3 -0.0987 0.2554
-1 3 4 -9.8271 -0.0628
-1 3 5 13.1869 -0.1893
-1 3 6 -10.4102 0.0189
-1 3 7 4.5233 0.1224
-1 3 8 1.2843 0.0332
-1 3 9 -4.2387 -0.0948
-1 3 10 3.7364 -0.0473
-1 3 11 -1.8181 0.0670
-1 3 12 0.2517 0.0394
-1 3 13 0.7891 -0.0254
-1 3 14 -1.0034 -0.0510
-1 3 15 0.1411 0.0226
-1 3 16 0.6186 0.0193
-1 3 17 -0.2936 0.0509
-1 3 18 -0.2784 -0.1511
-1 4 1 6.9282 0.5659
-1 4 2 -4.9093 -0.1409
-1 4 3 -0.6572 -0.2219
-1 4 4 6.7743 0.0521
-1 4 5 -10.0258 0.1588
-1 4 6 9.3614 -0.0064
-1 4 7 -5.5493 -0.1257
-1 4 8 0.3242 -0.0218
-1 4 9 3.5991 0.1014
-1 4 10 -4.4067 0.0295
-1 4 11 3.0632 -0.0681
-1 4 12 -1.4239 -0.0311
-1 4 13 -0.0058 0.0257
-1 4 14 0.9695 0.0511
-1 4 15 -0.8198 -0.0221
-1 4 16 0.1224 -0.0177
-1 4 17 -0.1462 -0.0765
-1 4 18 0.6284 0.1927
-1 5 1 0.7855 -0.4998
-1 5 2 0.4511 0.1041
-1 5 3 0.4337 0.1872
-1 5 4 -3.1590 -0.0309
-1 5 5 5.8127 -0.1205
-1 5 6 -6.6684 -0.0277
-1 5 7 5.0496 0.1259
-1 5 8 -1.4756 0.0168
-1 5 9 -2.1414 -0.0839
-1 5 10 3.7595 -0.0371
-1 5 11 -3.3378 0.0617
-1 5 12 2.2866 0.0503
-1 5 13 -1.1355 -0.0489
-1 5 14 -0.2513 -0.0395
-1 5 15 1.1803 -0.0062
-1 5 16 -1.0888 0.1146
-1 5 17 0.7073 -0.0755
-1 5 18 -0.6495 -0.0584
-1 6 1 -6.1367 0.5789
-1 6 2 3.3684 -0.1328
-1 6 3 -0.9161 -0.1873
-1 6 4 0.3957 0.0388
-1 6 5 -1.6167 0.1059
-1 6 6 3.0124 0.0201
-1 6 7 -3.1750 -0.0868
-1 6 8 1.7531 -0.0439
-1 6 9 0.4647 0.0785
-1 6 10 -2.0760 0.0501
-1 6 11 2.4224 -0.0652
-1 6 12 -2.1378 -0.0582
-1 6 13 1.6945 0.0552
-1 6 14 -0.6803 0.0691
-1 6 15 -0.6985 -0.0480
-1 6 16 1.2628 -0.1248
-1 6 17 -0.7364 0.2009
-1 7 1 7.9654 -0.6618
-1 7 2 -5.7830 0.1757
-1 7 3 2.3466 0.2039
-1 7 4 0.1775 -0.0646
-1 7 5 -0.6037 -0.1048
-1 7 6 -0.3005 0.0031
-1 7 7 1.1205 0.0572
-1 7 8 -1.1781 0.0545
-1 7 9 0.4309 -0.0712
-1 7 10 0.6994 -0.0536
-1 7 11 -1.4555 0.0669
-1 7 12 1.6208 0.0587
-1 7 13 -1.5546 -0.0803
-1 7 14 1.1210 -0.0484
-1 7 15 -0.0779 0.1031
-1 7 16 -0.7406 0.0093
-1 7 17 0.4590 -0.1284
-1 8 1 -6.2795 0.6975
-1 8 2 5.2903 -0.1871
-1 8 3 -2.8111 -0.2176
-1 8 4 0.2295 0.0687
-1 8 5 1.0100 0.1201
-1 8 6 -0.8886 -0.0049
-1 8 7 0.3136 -0.0867
-1 8 8 0.2217 -0.0158
-1 8 9 -0.4174 0.0620
-1 8 10 -0.1050 0.0249
-1 8 11 0.9707 -0.0532
-1 8 12 -1.3482 -0.0207
-1 8 13 1.1952 0.0577
-1 8 14 -0.8707 -0.0112
-1 8 15 0.3012 -0.0339
-1 8 16 0.3153 0.0250
-1 9 1 3.4330 -0.6994
-1 9 2 -3.2146 0.1848
-1 9 3 2.1055 0.2342
-1 9 4 -0.4445 -0.0805
-1 9 5 -0.8850 -0.1358
-1 9 6 1.4271 0.0176
-1 9 7 -1.3590 0.1115
-1 9 8 0.7489 -0.0246
-1 9 9 0.1561 -0.0571
-1 9 10 -0.4900 0.0209
-1 9 11 -0.0517 0.0162
-1 9 12 0.5880 -0.0297
-1 9 13 -0.5124 0.0528
-1 9 14 0.2111 -0.0392
-1 9 15 -0.0164 -0.0185
-1 10 1 -0.7881 0.5782
-1 10 2 1.1197 -0.1799
-1 10 3 -1.1713 -0.2092
-1 10 4 0.6883 0.1079
-1 10 5 0.1461 0.1055
-1 10 6 -0.9581 -0.0394
-1 10 7 1.4397 -0.0687
-1 10 8 -1.1908 0.0070
-1 10 9 0.1624 0.0465
-1 10 10 0.7812 -0.0094
-1 10 11 -0.8381 -0.0109
-1 10 12 0.4177 0.0321
-1 10 13 -0.2867 -0.0957
-1 10 14 0.3843 0.1040
-1 11 1 -0.5009 -0.3000
-1 11 2 0.0588 0.1214
-1 11 3 0.4055 0.1211
-1 11 4 -0.6642 -0.0836
-1 11 5 0.6169 -0.0492
-1 11 6 -0.2145 0.0233
-1 11 7 -0.4060 0.0155
-1 11 8 0.7367 0.0470
-1 11 9 -0.3763 -0.0491
-1 11 10 -0.2885 -0.0345
-1 11 11 0.5539 0.0521
0 -11 1 1.3586 0.3886
0 -10 1 -0.6670 -0.5374
0 -10 2 -0.6002 0.1812
0 -10 3 1.5719 0.1280
0 -10 4 -1.7790 -0.1323
0 -9 1 -1.4466 0.5937
0 -9 2 1.9175 -0.1781
0 -9 3 -2.3367 -0.1440
0 -9 4 2.2927 0.0801
0 -9 5 -1.7851 -0.0041
0 -9 6 1.1017 0.0973
0 -8 1 3.6689 -0.6927
0 -8 2 -2.5470 0.1758
0 -8 3 1.8663 0.1986
0 -8 4 -1.3050 -0.0449
0 -8 5 0.7638 -0.0995
0 -8 6 -0.3060 -0.0484
0 -8 7 -0.2657 0.1543
0 -8 8 0.9381 -0.0772
0 -7 1 -5.7091 0.8119
0 -7 2 2.0860 -0.2308
0 -7 3 0.4849 -0.2466
0 -7 4 -1.8169 0.0792
0 -7 5 2.0684 0.1395
0 -7 6 -1.4504 -0.0022
0 -7 7 0.8534 -0.1125
0 -7 8 -1.1753 0.0115
0 -7 9 1.8911 0.0242
0 -7 10 -1.7640 0.0649
0 -6 1 7.5344 -0.8101
0 -6 2 -1.3756 0.2539
0 -6 3 -3.4835 0.2522
0 -6 4 5.8039 -0.1029
0 -6 5 -5.6520 -0.1496
0 -6 6 3.5652 0.0361
0 -6 7 -0.9472 0.0703
0 -6 8 -0.3291 0.0588
0 -6 9 -0.1109 -0.0931
0 -6 10 0.8343 -0.0572
0 -6 11 -0.7894 0.1094
0 -5 1 -8.2456 0.6850
0 -5 2 0.5245 -0.1885
0 -5 3 6.1354 -0.2507
0 -5 4 -9.1081 0.0940
0 -5 5 8.3335 0.1542
0 -5 6 -4.9903 -0.0341
0 -5 7 0.8191 -0.0943
0 -5 8 2.0559 -0.0358
0 -5 9 -2.5356 0.0979
0 -5 10 1.5287 0.0352
0 -5 11 -0.5240 -0.0710
0 -5 12 -0.0310 -0.0301
0 -4 1 5.6552 -0.5399
0 -4 2 0.7222 0.1016
0 -4 3 -7.6546 0.2403
0 -4 4 11.0896 -0.0677
0 -4 5 -9.8599 -0.1461
0 -4 6 5.4459 0.0091
0 -4 7 -0.1884 0.1367
0 -4 8 -3.7108 -0.0201
0 -4 9 4.8436 -0.0673
0 -4 10 -3.4806 -0.0288
0 -4 11 1.2686 0.0451
0 -4 12 0.3658 0.0716
0 -4 13 -0.9853 -0.0755
0 -3 1 4.3348 0.5032
0 -3 2 -3.7692 -0.0659
0 -3 3 6.3674 -0.2188
0 -3 4 -9.0773 0.0295
0 -3 5 8.6643 0.1419
0 -3 6 -4.7234 0.0010
0 -3 7 -0.5738 -0.1174
0 -3 8 4.7888 0.0012
0 -3 9 -6.3535 0.0735
0 -3 10 4.8523 0.0294
0 -3 11 -1.5189 -0.0749
0 -3 12 -1.4086 -0.0149
0 -3 13 2.4977 0.0365
0 -3 14 -1.8894 0.0288
0 -2 1 -20.7196 -0.6711
0 -2 2 10.7747 0.1368
0 -2 3 -3.7852 0.2212
0 -2 4 1.9465 -0.0306
0 -2 5 -2.3196 -0.1302
0 -2 6 1.1712 -0.0131
0 -2 7 1.6806 0.0806
0 -2 8 -4.3559 0.0579
0 -2 9 5.6066 -0.0991
0 -2 10 -4.7953 -0.0285
0 -2 11 1.9900 0.0777
0 -2 12 1.2575 0.0077
0 -2 13 -3.0240 -0.0368
0 -2 14 2.8530 -0.0243
0 -2 15 -1.6718 0.0231
0 -1 1 33.9111 0.8307
0 -1 2 -19.0570 -0.2835
0 -1 3 2.9938 -0.2204
0 -1 4 6.2798 0.0710
0 -1 5 -7.4136 0.1174
0 -1 6 5.4362 0.0288
0 -1 7 -4.0980 -0.0882
0 -1 8 3.5055 -0.0706
0 -1 9 -3.2079 0.0930
0 -1 10 2.9041 0.0500
0 -1 11 -1.7463 -0.0660
0 -1 12 -0.3612 -0.0577
0 -1 13 2.1824 0.0955
0 -1 14 -2.7224 -0.0088
0 -1 15 2.1455 -0.0535
0 -1 16 -1.1918 0.0405
0 0 1 -38.7506 -0.6299
0 0 2 23.5059 0.3215
0 0 3 -3.0348 0.1894
0 0 4 -12.3904 -0.0816
0 0 5 16.5626 -0.1418
0 0 6 -12.7937 -0.0059
0 0 7 7.3300 0.1063
0 0 8 -3.1370 0.0476
0 0 9 0.9073 -0.0765
0 0 10 -0.4740 -0.0688
0 0 11 0.4863 0.0714
0 0 12 0.2437 0.0509
0 0 13 -1.3887 -0.0573
0 0 14 2.0143 -0.0313
0 0 15 -1.6948 0.0461
0 0 16 0.7249 0.0288
0 1 0 -40.8759 0.4783
0 1 2 -23.4250 -0.1897
0 1 3 2.4028 -0.1771
0 1 4 15.5257 0.0725
0 1 5 -22.0233 0.1659
0 1 6 17.9868 -0.0225
0 1 7 -9.8673 -0.1206
0 1 8 2.6789 -0.0239
0 1 9 1.3704 0.0809
0 1 10 -2.1554 0.0524
0 1 11 1.3864 -0.0506
0 1 12 -0.7760 -0.0559
0 1 13 0.6267 0.0015
0 1 14 -0.6964 0.1163
0 1 15 0.6847 -0.0626
0 1 16 -0.1428 -0.1129
0 1 17 -0.5865 0.2285
0 2 0 28.1989 -0.5356
0 2 1 -28.2968 -0.0067
0 2 2 18.4921 0.0725
0 2 3 -1.4454 0.1841
0 2 4 -14.3267 -0.0829
0 2 5 21.0153 -0.1476
0 2 6 -18.0989 0.0184
0 2 7 10.2597 0.1417
0 2 8 -2.1064 0.0021
0 2 9 -3.2848 -0.0937
0 2 10 4.7459 -0.0351
0 2 11 -3.5999 0.0452
0 2 12 1.7413 0.0814
0 2 13 0.0695 -0.0418
0 2 14 -1.1133 -0.0868
0 2 15 0.7593 0.0408
0 2 16 -0.0044 0.1002
0 2 17 0.0755 -0.1390
0 3 0 -7.8965 0.4123
0 3 1 10.6658 0.0083
0 3 2 -8.0517 -0.0609
0 3 3 -0.5082 -0.1530
0 3 4 9.9481 0.0771
0 3 5 -14.5878 0.1268
0 3 6 13.2957 -0.0251
0 3 7 -8.2151 -0.1288
0 3 8 1.6671 0.0022
0 3 9 3.7983 0.1022
0 3 10 -5.9656 0.0284
0 3 11 5.0960 -0.0802
0 3 12 -2.9195 -0.0387
0 3 13 0.3114 0.0447
0 3 14 1.7815 0.0393
0 3 15 -1.8833 0.0187
0 3 16 0.5001 -0.1039
0 3 17 0.1735 0.0121
0 3 18 0.2255 0.1261
0 4 0 -7.6195 -0.4280
0 4 1 5.2907 0.0145
0 4 2 -2.6276 0.0685
0 4 3 2.9029 0.0876
0 4 4 -5.3627 -0.0316
0 4 5 7.2608 -0.1168
0 4 6 -7.2917 0.0310
0 4 7 5.3494 0.0897
0 4 8 -1.4206 0.0135
0 4 9 -3.0880 -0.0956
0 4 10 5.5277 -0.0235
0 4 11 -5.1440 0.0775
0 4 12 3.4241 0.0236
0 4 13 -1.2825 -0.0218
0 4 14 -0.9559 -0.0696
0 4 15 2.0242 0.0137
0 4 16 -1.4377 0.0769
0 4 17 0.7706 0.0342
0 4 18 -0.9192 -0.2014
0 5 0 12.8659 0.5271
0 5 1 -12.2464 -0.0516
0 5 2 8.1101 -0.0701
0 5 3 -3.8702 -0.0441
0 5 4 1.5202 -0.0098
0 5 5 -1.1149 0.0989
0 5 6 1.8776 0.0050
0 5 7 -2.4359 -0.0842
0 5 8 1.2114 -0.0279
0 5 9 1.6450 0.0810
0 5 10 -3.8646 0.0374
0 5 11 4.0106 -0.0605
0 5 12 -3.0020 -0.0666
0 5 13 1.7614 0.0686
0 5 14 -0.0760 0.0544
0 5 15 -1.5581 -0.0426
0 5 16 2.0259 -0.0365
0 5 17 -1.6309 -0.0623
0 5 18 1.3516 0.2160
0 6 0 -12.1547 -0.5992
0 6 1 12.7894 0.0313
0 6 2 -9.3868 0.0981
0 6 3 4.0278 0.0512
0 6 4 0.6750 0.0001
0 6 5 -2.9156 -0.0905
0 6 6 2.4397 -0.0231
0 6 7 -0.6374 0.0934
0 6 8 -0.4139 0.0306
0 6 9 -0.2360 -0.0773
0 6 10 1.5645 -0.0474
0 6 11 -2.1790 0.0720
0 6 12 2.0978 0.0530
0 6 13 -1.8178 -0.0631
0 6 14 0.9250 -0.0465
0 6 15 0.6786 0.0129
0 6 16 -1.7362 0.1195
0 6 17 1.4617 -0.0637
0 6 18 -0.7060 -0.1260
0 7 0 9.0307 0.6107
0 7 1 -10.1939 0.0033
0 7 2 8.3044 -0.1361
0 7 3 -4.0360 -0.0761
0 7 4 -0.6571 0.0453
0 7 5 3.5941 0.0929
0 7 6 -3.8760 -0.0110
0 7 7 2.3535 -0.0780
0 7 8 -0.6113 -0.0166
0 7 9 -0.2059 0.0616
0 7 10 -0.0350 0.0397
0 7 11 0.6638 -0.0583
0 7 12 -1.1697 -0.0387
0 7 13 1.5212 0.0225
0 7 14 -1.3748 0.1015
0 7 15 0.3260 -0.0714
0 7 16 0.8218 -0.1301
0 7 17 -0.8156 0.2184
0 8 0 -5.0663 -0.5437
0 8 1 5.9190 -0.0155
0 8 2 -5.3388 0.1428
0 8 3 3.0196 0.0834
0 8 4 0.2051 -0.0669
0 8 5 -2.6416 -0.0955
0 8 6 3.2412 0.0386
0 8 7 -2.4152 0.0662
0 8 8 1.1131 -0.0017
0 8 9 -0.0322 -0.0417
0 8 10 -0.3350 -0.0327
0 8 11 -0.0012 0.0361
0 8 12 0.4684 0.0548
0 8 13 -0.7371 -0.0561
0 8 14 0.8121 -0.0481
0 8 15 -0.4772 0.0928
0 8 16 -0.1627 -0.0138
0 8 17 0.3133 -0.0884
0 9 0 1.3794 0.4684
0 9 1 -1.7671 0.0018
0 9 2 2.0773 -0.1094
0 9 3 -1.4821 -0.0892
0 9 4 -0.1990 0.0609
0 9 5 1.9593 0.1039
0 9 6 -2.6736 -0.0444
0 9 7 2.2998 -0.0740
0 9 8 -1.3955 0.0114
0 9 9 0.3530 0.0528
0 9 10 0.3614 0.0044
0 9 11 -0.3930 -0.0265
0 9 12 0.1307 -0.0223
0 9 13 -0.1008 0.0412
0 9 14 0.1696 -0.0452
0 9 15 -0.1297 0.0524
0 9 16 0.1093 0.0008
0 10 0 1.4259 -0.4327
0 10 1 -1.1334 0.0222
0 10 2 0.1208 0.0920
0 10 3 0.5321 0.0763
0 10 4 -0.0893 -0.0605
0 10 5 -0.9713 -0.0925
0 10 6 1.6338 0.0475
0 10 7 -1.5884 0.0721
0 10 8 1.1427 -0.0294
0 10 9 -0.4722 -0.0320
0 10 10 -0.2263 -0.0041
0 10 11 0.5536 0.0063
0 10 12 -0.5078 0.0254
0 10 13 0.4760 -0.0018
0 10 14 -0.4943 0.0231
0 10 15 0.3482 -0.1270
0 11 0 -2.1756 0.3465
0 11 1 1.9255 -0.0235
0 11 2 -0.7196 -0.1175
0 11 3 -0.3754 -0.0040
0 11 4 0.5378 0.0423
0 11 5 -0.0643 0.0476
0 11 6 -0.2646 -0.0308
0 11 7 0.2513 -0.0465
0 11 8 -0.1950 0.0333
0 11 9 0.1403 -0.0367
0 11 10 0.0801 0.0986
0 11 11 -0.3563 -0.0500
0 11 12 0.4664 -0.0719
0 11 13 -0.4106 0.0738
0 12 4 -0.7589 0.0027
0 12 5 0.3333 -0.0149
0 12 6 -0.0555 -0.0001
0 12 7 0.0670 0.0184
0 12 8 -0.0922 0.0080
0 12 9 0.0574 0.0361
1 -10 0 0.4932 0.4129
1 -10 1 -0.3686 0.0081
1 -10 2 0.4711 -0.1423
1 -10 3 -0.6647 0.0761
1 -9 0 -2.9101 -0.5713
1 -9 1 1.8594 0.0808
1 -9 2 -0.7443 0.0857
1 -9 3 0.0913 0.0017
1 -9 4 0.1213 0.0478
1 -9 5 -0.2357 -0.1477
1 -8 0 5.4362 0.5516
1 -8 1 -3.1846 -0.0437
1 -8 2 0.5135 -0.0704
1 -8 3 1.4214 -0.0963
1 -8 4 -2.1669 0.0362
1 -8 5 2.0194 0.1359
1 -8 6 -1.3441 -0.1125
1 -8 7 0.5374 0.0348
1 -7 0 -7.5188 -0.5042
1 -7 1 4.4813 -0.0167
1 -7 2 -0.1645 0.1128
1 -7 3 -3.5334 0.1112
1 -7 4 5.3589 -0.0831
1 -7 5 -5.1912 -0.0911
1 -7 6 3.5486 0.0487
1 -7 7 -1.4317 0.0420
1 -7 8 0.1659 0.0412
1 -7 9 -0.2412 -0.0965
1 -6 0 7.0464 0.4606
1 -6 1 -4.9147 0.0087
1 -6 2 0.3500 -0.1135
1 -6 3 4.5845 -0.0808
1 -6 4 -7.7222 0.0538
1 -6 5 7.9684 0.0928
1 -6 6 -5.5509 -0.0075
1 -6 7 1.9406 -0.1126
1 -6 8 0.7053 0.0044
1 -6 9 -1.1836 0.0975
1 -6 10 0.3356 0.0057
1 -5 0 -2.3525 -0.3896
1 -5 1 2.1461 -0.0052
1 -5 2 0.4303 0.0761
1 -5 3 -4.2410 0.0808
1 -5 4 7.3368 -0.0215
1 -5 5 -8.0073 -0.1231
1 -5 6 5.6568 0.0282
1 -5 7 -1.4185 0.1068
1 -5 8 -2.2682 -0.0202
1 -5 9 3.5415 -0.0691
1 -5 10 -2.6966 -0.0357
1 -5 11 1.3802 0.1290
1 -5 12 -0.5929 -0.0735
1 -4 0 -5.7414 0.4010
1 -4 1 3.8622 0.0275
1 -4 2 -3.0904 -0.0808
1 -4 3 3.6726 -0.0874
1 -4 4 -4.8409 0.0316
1 -4 5 5.1977 0.1043
1 -4 6 -3.4901 -0.0253
1 -4 7 -0.1363 -0.0805
1 -4 8 3.8483 -0.0030
1 -4 9 -5.5574 0.0722
1 -4 10 4.7599 0.0242
1 -4 11 -2.7300 -0.0849
1 -4 12 0.9643 0.0095
1 -4 13 -0.0043 0.0287
1 -3 0 17.9928 -0.5609
1 -3 1 -12.5808 -0.0037
1 -3 2 6.2215 0.1176
1 -3 3 -1.6930 0.0607
1 -3 4 -0.0160 -0.0251
1 -3 5 0.0849 -0.0840
1 -3 6 -0.6229 -0.0055
1 -3 7 2.4560 0.0861
1 -3 8 -4.6479 0.0163
1 -3 9 5.7057 -0.0837
1 -3 10 -4.7797 0.0022
1 -3 11 2.3376 0.0335
1 -3 12 0.1219 0.0374
1 -3 13 -1.3687 -0.0487
1 -3 14 1.2968 -0.0170
1 -2 0 -33.0022 0.7259
1 -2 1 24.1422 -0.0399
1 -2 2 -10.2390 -0.1364
1 -2 3 -2.1619 -0.0632
1 -2 4 8.3321 0.0214
1 -2 5 -8.5508 0.1099
1 -2 6 6.7329 -0.0041
1 -2 7 -5.4694 -0.0939
1 -2 8 4.6211 -0.0096
1 -2 9 -3.6405 0.0660
1 -2 10 2.3963 0.0237
1 -2 11 -0.6646 -0.0456
1 -2 12 -1.2885 -0.0301
1 -2 13 2.5063 0.0289
1 -2 14 -2.4420 0.0402
1 -2 15 1.4707 -0.0367
1 -1 0 41.6548 -0.8008
1 -1 1 -33.6048 0.0499
1 -1 2 15.7083 0.1647
1 -1 3 4.2523 0.1075
1 -1 4 -16.8861 -0.0903
1 -1 5 18.5934 -0.1118
1 -1 6 -13.9269 0.0356
1 -1 7 8.5917 0.0942
1 -1 8 -4.2790 -0.0009
1 -1 9 1.0355 -0.0574
1 -1 10 0.6329 -0.0488
1 -1 11 -1.0893 0.0696
1 -1 12 1.4710 0.0327
1 -1 13 -2.0493 -0.0470
1 -1 14 2.3272 -0.0324
1 -1 15 -1.9902 0.0665
1 -1 16 1.1226 -0.0577
1 0 0 -37.6234 0.8352
1 0 1 33.8789 -0.0900
1 0 2 -18.9029 -0.2119
1 0 3 -2.7158 -0.0875
1 0 4 20.4196 0.1499
1 0 5 -25.6715 0.0790
1 0 6 20.0475 -0.0569
1 0 7 -11.0563 -0.0909
1 0 8 3.5662 0.0142
1 0 9 1.1553 0.0671
1 0 10 -2.8662 0.0328
1 0 11 2.4480 -0.0619
1 0 12 -1.6382 -0.0495
1 0 13 1.2601 0.0709
1 0 14 -1.1443 0.0135
1 0 15 1.0307 -0.0539
1 0 16 -0.6487 0.0604
1 1 0 24.3779 -0.7727
1 1 1 -24.3668 0.1510
1 1 2 15.7650 0.2220
1 1 3 0.6956 -0.0018
1 1 4 -17.6769 -0.1146
1 1 5 25.6651 -0.0674
1 1 6 -22.1972 0.0698
1 1 7 12.5837 0.0753
1 1 8 -3.0046 -0.0173
1 1 9 -3.1379 -0.0749
1 1 10 4.9477 -0.0165
1 1 11 -3.9090 0.0564
1 1 12 2.3364 0.0476
1 1 13 -1.0552 -0.0512
1 1 14 -0.0002 -0.0481
1 1 15 0.4774 0.0425
1 1 16 -0.4465 0.0372
1 1 17 0.4774 -0.0632
1 2 0 -7.0768 0.5719
1 2 1 8.9823 -0.1109
1 2 2 -6.3959 -0.2036
1 2 3 -1.7995 0.0500
1 2 4 12.0500 0.0653
1 2 5 -18.3020 0.0594
1 2 6 17.5855 -0.0572
1 2 7 -11.4356 -0.0690
1 2 8 3.1044 0.0130
1 2 9 3.8491 0.0825
1 2 10 -6.6394 0.0086
1 2 11 5.5717 -0.0612
1 2 12 -3.1686 -0.0456
1 2 13 0.7926 0.0484
1 2 14 1.1720 0.0755
1 2 15 -1.6492 -0.0565
1 2 16 0.5570 -0.0933
1 2 17 0.3302 0.1639
1 3 0 -9.0159 -0.4550
1 3 1 6.8175 0.0287
1 3 2 -4.8744 0.1977
1 3 3 5.6750 -0.0379
1 3 4 -7.8868 -0.0668
1 3 5 8.9712 -0.0323
1 3 6 -8.3346 0.0322
1 3 7 6.2542 0.0683
1 3 8 -2.1868 -0.0129
1 3 9 -3.0731 -0.0786
1 3 10 6.3935 -0.0063
1 3 11 -6.0966 0.0658
1 3 12 3.6899 0.0428
1 3 13 -0.7611 -0.0670
1 3 14 -1.9173 -0.0547
1 3 15 2.6682 0.0492
1 3 16 -0.7951 0.0903
1 3 17 -1.2362 -0.1225
1 4 0 16.8925 0.5709
1 4 1 -15.9199 -0.0521
1 4 2 11.5926 -0.1871
1 4 3 -7.8091 0.0210
1 4 4 5.1173 0.0773
1 4 5 -2.5583 0.0127
1 4 6 0.7540 -0.0206
1 4 7 -0.3811 -0.0507
1 4 8 -0.2070 0.0032
1 4 9 2.4357 0.0589
1 4 10 -4.6170 0.0237
1 4 11 4.6760 -0.0703
1 4 12 -3.1591 -0.0363
1 4 13 1.1554 0.0619
1 4 14 1.2243 0.0560
1 4 15 -2.7885 -0.0560
1 4 16 1.9252 -0.0635
1 4 17 0.1219 0.0361
1 4 18 -0.7548 0.1004
1 5 0 -15.3255 -0.7587
1 5 1 15.9121 0.1210
1 5 2 -11.5112 0.1867
1 5 3 5.6884 -0.0169
1 5 4 -0.8537 -0.0827
1 5 5 -2.4271 -0.0061
1 5 7 -2.8392 0.0432
1 5 8 1.6170 0.0110
1 5 9 -1.7519 -0.0482
1 5 10 2.5383 -0.0432
1 5 11 -2.3964 0.0695
1 5 12 1.6099 0.0490
1 5 13 -0.9971 -0.0684
1 5 14 -0.0534 -0.0636
1 5 15 1.6789 0.0762
1 5 16 -2.2999 0.0388
1 5 17 1.3587 0.0112
1 5 18 -0.3872 -0.1933
1 6 0 9.7909 0.8619
1 6 1 -11.1820 -0.1394
1 6 2 8.3830 -0.2323
1 6 3 -2.7682 0.0294
1 6 4 -2.9858 0.1024
1 6 5 6.6002 0.0005
1 6 6 -6.9328 -0.0119
1 6 8 -1.7537 -0.0148
1 6 9 0.4124 0.0586
1 6 10 -0.4366 0.0340
1 6 11 0.5193 -0.0635
1 6 12 -0.3713 -0.0504
1 6 13 0.4734 0.0713
1 6 14 -0.3483 0.0542
1 6 15 -0.6816 -0.0569
1 6 16 1.7035 -0.0945
1 6 17 -1.4631 0.0837
1 6 18 0.4642 0.1268
1 7 0 -4.4122 -0.8313
1 7 1 5.7666 0.1371
1 7 2 -5.0810 0.2676
1 7 3 1.7976 -0.0523
1 7 4 2.8487 -0.1205
1 7 5 -6.5185 0.0066
1 7 6 7.3270 0.0337
1 7 7 -5.2988 0.0336
1 7 10 -0.7914 -0.0080
1 7 11 0.5425 0.0472
1 7 12 -0.0411 0.0323
1 7 13 -0.3928 -0.0417
1 7 14 0.4320 -0.0701
1 7 15 0.2976 0.0704
1 7 16 -1.2569 0.1172
1 7 17 1.2488 -0.2248
1 8 0 0.1674 0.6608
1 8 1 -0.9484 -0.1191
1 8 2 1.6170 -0.2359
1 8 3 -1.0440 0.0511
1 8 4 -0.9458 0.1178
1 8 5 3.2593 -0.0112
1 8 6 -4.4287 -0.0408
1 8 7 3.9443 -0.0275
1 8 8 -2.3777 0.0043
1 8 9 0.5857 0.0453
1 8 10 0.6541 0.0086
1 8 11 -0.8797 -0.0398
1 8 12 0.3574 -0.0241
1 8 13 0.2225 0.0432
1 8 14 -0.3990 0.0324
1 8 15 -0.0083 -0.0745
1 8 16 0.7716 0.0022
1 8 17 -1.0671 0.1129
1 9 0 2.5592 -0.5076
1 9 1 -2.5540 0.0927
1 9 2 1.4973 0.1743
1 9 3 -0.4517 -0.0254
1 9 4 0.3321 -0.0970
1 9 5 -1.0411 -0.0024
1 9 6 1.7407 0.0354
1 9 7 -1.9103 0.0356
1 9 8 1.5783 -0.0086
1 9 9 -0.8027 -0.0413
1 9 10 -0.1887 -0.0159
1 9 11 0.7754 0.0563
1 9 12 -0.6708 -0.0096
1 9 13 0.2779 -0.0281
1 9 14 0.0175 0.0458
1 9 15 -0.1006 -0.0557
1 9 16 -0.1285 -0.0097
1 10 0 -3.2731 0.4656
1 10 1 4.0975 -0.0947
1 10 2 -3.2469 -0.1365
1 10 3 1.4927 0.0186
1 10 4 -0.1816 0.0676
1 10 5 -0.1166 0.0272
1 10 6 -0.1323 -0.0414
1 10 7 0.3812 -0.0366
1 10 8 -0.5357 -0.0015
1 10 9 0.5222 0.0716
1 10 10 -0.1898 -0.0231
1 10 11 -0.2591 -0.0291
1 10 12 0.4701 0.0234
1 10 13 -0.4181 -0.0460
1 10 14 0.2135 0.0207
1 10 15 0.0649 0.1102
1 11 0 1.9280 -0.3311
1 11 1 -3.1398 0.0456
1 11 2 2.9100 0.1394
1 11 3 -1.3821 -0.0341
1 11 4 -0.2344 -0.0528
1 11 5 1.0459 -0.0223
1 11 6 -1.1013 0.0380
1 11 7 0.7944 0.0365
1 11 8 -0.2969 -0.0109
1 11 9 -0.2506 -0.0647
1 11 10 0.5286 0.0503
1 11 11 -0.3657 -0.0404
1 11 12 -0.0230 0.0661
1 11 13 0.2766 0.0176
1 11 14 -0.1885 -0.1244
1 12 2 -1.0383 -0.1457
1 12 3 0.4269 0.0264
1 12 4 0.4068 0.0636
1 12 5 -0.8770 -0.0110
1 12 6 0.9508 -0.0203
1 12 7 -0.7895 -0.0278
1 12 8 0.4491 0.0256
1 12 9 0.0020 0.0165
1 12 10 -0.3563 -0.0113
1 12 11 0.3914 0.0421
2 -10 0 -1.1968 -0.3720
2 -10 1 0.3747 0.0238
2 -9 0 3.0351 0.5877
2 -9 1 -1.2028 -0.1141
2 -9 2 -0.9522 -0.1845
2 -9 3 2.0348 0.0502
2 -9 4 -1.5925 0.1224
2 -8 0 -3.1994 -0.6106
2 -8 1 1.6922 0.1204
2 -8 2 0.8409 0.2082
2 -8 3 -2.9586 -0.0747
2 -8 4 3.3757 -0.1088
2 -8 5 -2.3325 0.1086
2 -8 6 1.0403 -0.0955
2 -7 0 1.8654 0.5419
2 -7 1 -1.4451 -0.0749
2 -7 2 -0.3576 -0.2070
2 -7 3 3.0204 0.0674
2 -7 4 -4.8844 0.0611
2 -7 5 4.7552 -0.0099
2 -7 6 -3.0174 0.0266
2 -7 7 0.9808 -0.1217
2 -7 8 0.2636 0.0944
2 -6 0 -0.1424 -0.4975
2 -6 1 0.7474 0.0510
2 -6 2 -0.0938 0.1718
2 -6 3 -2.1944 -0.0084
2 -6 4 4.8280 -0.0792
2 -6 5 -5.7445 -0.0360
2 -6 6 4.1487 0.0496
2 -6 7 -1.2551 0.0567
2 -6 8 -0.9385 -0.0436
2 -6 9 1.3988 -0.0604
2 -5 0 -3.5588 0.5106
2 -5 1 1.5686 -0.0469
2 -5 2 -0.2233 -0.1615
2 -5 3 0.5832 -0.0157
2 -5 4 -2.3010 0.1044
2 -5 5 3.5988 0.0102
2 -5 6 -2.8666 -0.0386
2 -5 7 0.3967 -0.0306
2 -5 8 1.9221 -0.0027
2 -5 9 -2.6090 0.0844
2 -5 10 1.8153 -0.0717
2 -5 11 -0.6436 0.0292
2 -4 0 9.9614 -0.6207
2 -4 1 -6.4643 0.0756
2 -4 2 1.9922 0.1846
2 -4 3 1.2519 -0.0123
2 -4 4 -2.1180 -0.0834
2 -4 5 1.2149 -0.0104
2 -4 6 -0.4867 0.0165
2 -4 7 1.1976 0.0453
2 -4 8 -2.6889 -0.0006
2 -4 9 3.4877 -0.0530
2 -4 10 -2.9814 0.0060
2 -4 11 1.6599 0.0173
2 -4 12 -0.3608 0.0336
2 -3 0 -16.4954 0.7940
2 -3 1 12.4615 -0.1428
2 -3 2 -4.7340 -0.2088
2 -3 3 -2.8669 0.0320
2 -3 4 7.2525 0.0845
2 -3 5 -7.4895 0.0189
2 -3 6 5.3102 -0.0334
2 -3 7 -3.2986 -0.0302
2 -3 8 2.6104 -0.0090
2 -3 9 -2.6925 0.0411
2 -3 10 2.4373 0.0287
2 -3 11 -1.2900 -0.0443
2 -3 12 -0.2504 -0.0293
2 -3 13 1.1438 0.0320
2 -2 0 20.0189 -0.8960
2 -2 1 -16.9625 0.1860
2 -2 2 7.2766 0.2434
2 -2 3 4.1138 -0.0500
2 -2 4 -12.0596 -0.1122
2 -2 5 13.9952 -0.0002
2 -2 6 -11.1356 0.0380
2 -2 7 6.4880 0.0257
2 -2 8 -2.3911 0.0154
2 -2 9 0.0099 -0.0524
2 -2 10 0.7060 -0.0262
2 -2 11 -0.9494 0.0498
2 -2 12 1.5736 0.0244
2 -2 13 -2.0125 -0.0239
2 -2 14 1.5430 -0.0363
2 -1 0 -18.2819 0.8465
2 -1 1 17.3122 -0.1653
2 -1 2 -8.2505 -0.2785
2 -1 3 -4.7502 0.0711
2 -1 4 15.2072 0.1239
2 -1 5 -18.6790 0.0001
2 -1 6 15.7174 -0.0469
2 -1 7 -9.5723 -0.0520
2 -1 8 2.8342 0.0222
2 -1 9 2.4227 0.0526
2 -1 10 -4.4715 0.0089
2 -1 11 3.7629 -0.0540
2 -1 12 -2.4724 -0.0109
2 -1 13 1.6935 0.0257
2 -1 14 -1.0949 0.0213
2 -1 15 0.5703 0.0005
2 0 0 10.7029 -0.6773
2 0 1 -11.8363 0.1080
2 0 2 6.3679 0.2759
2 0 3 4.4858 -0.0611
2 0 4 -15.1401 -0.1414
2 0 5 19.5953 -0.0092
2 0 6 -16.8711 0.0900
2 0 7 10.2952 0.0395
2 0 8 -2.8788 -0.0500
2 0 9 -3.4075 -0.0510
2 0 10 6.4499 0.0234
2 0 11 -5.7556 0.0386
2 0 12 3.3575 0.0053
2 0 13 -1.1995 -0.0267
2 0 14 -0.2024 -0.0224
2 0 15 0.6066 0.0304
2 0 16 -0.1056 -0.0277
2 1 0 0.1049 0.4874
2 1 1 2.1273 -0.0525
2 1 2 -1.8225 -0.2310
2 1 3 -3.2105 0.0320
2 1 4 10.8030 0.1543
2 1 5 -15.5538 -0.0077
2 1 6 14.4386 -0.1025
2 1 7 -9.0308 -0.0079
2 1 8 2.2451 0.0408
2 1 9 3.6369 0.0485
2 1 10 -6.6310 -0.0279
2 1 11 6.3071 -0.0389
2 1 12 -4.2859 -0.0074
2 1 13 1.8458 0.0442
2 1 14 0.6864 0.0153
2 1 15 -2.1886 -0.0533
2 1 16 1.6789 0.0572
2 2 0 -9.2164 -0.4143
2 2 1 7.2166 0.0289
2 2 2 -3.3090 0.1700
2 2 3 1.6130 0.0011
2 2 4 -3.5898 -0.1332
2 2 5 6.8993 0.0105
2 2 6 -8.3687 0.0682
2 2 7 6.6756 0.0266
2 2 8 -2.2448 -0.0434
2 2 9 -2.9011 -0.0406
2 2 10 5.7816 0.0069
2 2 11 -5.4629 0.0697
2 2 12 3.8528 -0.0068
2 2 13 -2.1148 -0.0626
2 2 14 -0.3147 0.0084
2 2 15 2.5106 0.0310
2 2 16 -2.4466 0.0043
2 2 17 0.7338 -0.0154
2 3 0 12.8770 0.5338
2 3 1 -12.0871 -0.0554
2 3 2 6.5868 -0.1435
2 3 3 -0.7354 -0.0296
2 3 4 -2.4197 0.1156
2 3 5 2.4180 0.0160
2 3 6 -0.2479 -0.0600
2 3 7 -2.0816 -0.0470
2 3 8 1.9313 0.0524
2 3 9 1.1270 0.0414
2 3 10 -3.9161 -0.0133
2 3 11 3.8476 -0.0672
2 3 12 -2.2684 0.0114
2 3 13 1.0232 0.0541
2 3 14 0.4847 0.0132
2 3 15 -2.2079 -0.0449
2 3 16 2.1792 -0.0588
2 3 17 -0.4359 0.1330
2 4 0 -11.0682 -0.7465
2 4 1 11.7488 0.1155
2 4 2 -7.0213 0.1791
2 4 3 0.4387 0.0147
2 4 4 4.9099 -0.1175
2 4 5 -7.7341 -0.0308
2 4 6 7.2568 0.0833
2 4 7 -3.8527 0.0231
2 4 8 0.4904 -0.0337
2 4 9 -0.0638 -0.0494
2 4 10 1.5275 0.0265
2 4 11 -1.9313 0.0401
2 4 12 1.0479 0.0089
2 4 13 -0.3172 -0.0463
2 4 14 -0.5654 -0.0544
2 4 15 2.0124 0.0933
2 4 16 -2.3703 0.0585
2 4 17 0.9247 -0.1823
2 5 0 6.1669 0.8709
2 5 1 -7.9597 -0.1579
2 5 2 5.3565 -0.2344
2 5 3 -0.0717 0.0251
2 5 4 -5.1645 0.1255
2 5 5 8.7586 0.0252
2 5 6 -9.6292 -0.0938
2 5 7 7.2204 -0.0119
2 5 8 -3.1214 0.0300
2 5 9 0.2961 0.0407
2 5 10 0.2566 -0.0161
2 5 11 0.0156 -0.0357
2 5 12 -0.1764 -0.0224
2 5 13 0.4596 0.0570
2 5 14 -0.2975 0.0473
2 5 15 -0.9962 -0.0826
2 5 16 2.1546 -0.0896
2 5 17 -1.7025 0.2218
2 6 0 -0.5016 -0.8398
2 6 1 2.4727 0.1539
2 6 2 -2.4370 0.2681
2 6 3 -0.2890 -0.0437
2 6 4 4.1976 -0.1502
2 6 5 -7.2941 -0.0091
2 6 6 8.2103 0.1029
2 6 7 -6.5729 0.0174
2 6 8 3.3660 -0.0599
2 6 9 -0.4597 -0.0123
2 6 10 -0.9440 0.0062
2 6 11 1.0540 0.0338
2 6 12 -0.5131 0.0214
2 6 13 -0.3127 -0.0575
2 6 14 0.7873 -0.0311
2 6 15 -0.2418 0.0557
2 6 16 -0.7849 0.1289
2 6 17 1.0704 -0.2842
2 7 0 -3.5720 0.6905
2 7 1 2.6333 -0.1269
2 7 2 -1.0356 -0.2639
2 7 3 0.7081 0.0558
2 7 4 -2.0879 0.1591
2 7 5 3.9630 -0.0078
2 7 6 -4.7993 -0.1159
2 7 7 4.0423 0.0031
2 7 8 -2.2709 0.0650
2 7 9 0.4357 -0.0022
2 7 10 0.7442 -0.0090
2 7 11 -0.9812 -0.0247
2 7 12 0.5136 -0.0084
2 7 13 0.1058 0.0333
2 7 14 -0.4494 0.0406
2 7 15 0.4019 -0.0836
2 7 16 -0.1489 -0.0544
2 7 17 0.0166 0.2417
2 8 0 4.5558 -0.4746
2 8 1 -4.8898 0.0812
2 8 2 3.4013 0.2045
2 8 3 -1.4054 -0.0408
2 8 4 0.3083 -0.1322
2 8 5 -0.4273 0.0045
2 8 6 1.0872 0.1044
2 8 7 -1.5597 -0.0078
2 8 8 1.5313 -0.0526
2 8 9 -0.9063 -0.0040
2 8 10 -0.0516 0.0172
2 8 11 0.5902 0.0150
2 8 12 -0.3323 -0.0025
2 8 13 -0.1456 -0.0148
2 8 14 0.2662 -0.0183
2 8 15 -0.2221 0.0652
2 8 16 0.3166 -0.0559
2 8 17 -0.4176 -0.0402
2 9 0 -3.6341 0.3451
2 9 1 4.3015 -0.0249
2 9 2 -3.6212 -0.1429
2 9 3 1.8178 -0.0182
2 9 4 0.0865 0.1237
2 9 5 -1.1696 0.0105
2 9 6 1.1544 -0.0817
2 9 7 -0.3256 -0.0246
2 9 8 -0.6835 0.0660
2 9 9 1.0766 0.0024
2 9 10 -0.5586 -0.0192
2 9 11 -0.1486 -0.0009
2 9 12 0.2238 -0.0132
2 9 13 0.1059 0.0189
2 9 14 -0.2319 -0.0269
2 9 15 0.2616 0.0503
2 9 16 -0.4800 0.0059
2 10 0 2.5518 -0.4277
2 10 1 -2.9320 0.0409
2 10 2 2.6108 0.1392
2 10 3 -1.3786 0.0274
2 10 4 -0.2087 -0.1213
2 10 5 1.4257 -0.0176
2 10 6 -1.8441 0.0768
2 10 7 1.4133 0.0364
2 10 8 -0.4551 -0.0678
2 10 9 -0.4063 -0.0086
2 10 10 0.6833 0.0146
2 10 13 -0.3428 0.0003
2 10 14 0.1455 -0.0131
2 10 15 -0.0574 -0.0837
2 11 0 -1.4533 0.4998
2 11 1 1.6217 -0.1109
2 11 2 -1.3549 -0.1376
2 11 3 0.4176 0.0240
2 11 4 0.7560 0.0825
2 11 5 -1.6188 0.0200
2 11 6 1.8964 -0.0747
2 11 7 -1.5717 -0.0224
2 11 8 0.8612 0.0440
2 11 9 -0.1086 0.0368
2 11 10 -0.4493 -0.0261
2 11 11 0.7720 -0.0387
2 12 1 -0.4485 0.0839
2 12 2 0.2607 0.0948
2 12 3 0.2582 -0.0245
2 12 4 -0.8471 -0.0598
2 12 5 1.2202 -0.0102
2 12 6 -1.2674 0.0570
2 12 7 0.9495 0.0161
2 12 8 -0.4377 -0.0351
2 12 9 0.0659 -0.0418
2 12 10 0.0872 0.0415
2 12 11 -0.2034 0.0379
2 12 12 0.2923 -0.0569
3 -9 0 -1.6845 -0.3304
3 -9 1 0.4636 0.0592
3 -8 0 1.4326 0.4861
3 -8 1 -0.6882 -0.1149
3 -8 2 -0.3933 -0.0987
3 -8 3 1.2634 -0.0519
3 -8 4 -1.3370 0.2126
3 -7 0 0.9049 -0.5115
3 -7 1 0.2776 0.0727
3 -7 2 -0.5996 0.1748
3 -7 3 -0.6300 -0.0216
3 -7 4 2.3918 -0.1378
3 -7 5 -3.0015 0.1009
3 -7 6 2.1302 -0.0820
3 -6 0 -3.1577 0.4872
3 -6 1 1.0177 -0.0189
3 -6 2 1.0973 -0.2031
3 -6 3 -1.0721 0.0197
3 -6 4 -1.1318 0.0892
3 -6 5 3.1778 0.0401
3 -6 6 -3.0244 -0.0743
3 -6 7 1.1577 -0.0832
3 -6 8 0.3584 0.1737
3 -5 0 4.7743 -0.5223
3 -5 1 -2.9965 0.0388
3 -5 2 -0.0393 0.1788
3 -5 3 2.1081 0.0314
3 -5 4 -1.8215 -0.1334
3 -5 5 0.0043 -0.0501
3 -5 6 1.1627 0.1461
3 -5 7 -0.6377 -0.0279
3 -5 8 -0.4654 -0.0630
3 -5 9 0.7009 0.0533
3 -5 10 -0.1299 -0.0477
3 -4 0 -6.8390 0.6152
3 -4 1 5.3497 -0.1041
3 -4 2 -1.5887 -0.1733
3 -4 3 -2.3659 -0.0135
3 -4 4 4.6491 0.1362
3 -4 5 -4.4074 0.0043
3 -4 6 2.5134 -0.0675
3 -4 7 -0.7866 -0.0256
3 -4 8 0.1071 0.0382
3 -4 9 -0.0447 0.0160
3 -4 10 0.1009 0.0124
3 -4 11 -0.1755 -0.0405
3 -3 0 7.9327 -0.6886
3 -3 1 -7.2660 0.1489
3 -3 2 2.8557 0.1950
3 -3 3 2.6266 -0.0376
3 -3 4 -6.8103 -0.0987
3 -3 5 8.0770 -0.0204
3 -3 6 -6.2113 0.0549
3 -3 7 2.8236 0.0674
3 -3 8 -0.0403 -0.0737
3 -3 9 -1.1515 -0.0164
3 -3 10 1.0555 0.0049
3 -3 11 -0.5162 0.0303
3 -3 12 0.2406 0.0219
3 -2 0 -5.3307 0.6888
3 -2 1 7.2440 -0.1467
3 -2 2 -3.9542 -0.2166
3 -2 3 -2.1355 0.0498
3 -2 4 7.7383 0.1194
3 -2 5 -10.3771 0.0111
3 -2 6 9.1618 -0.0982
3 -2 7 -5.1464 -0.0042
3 -2 8 0.6235 0.0374
3 -2 9 2.3365 0.0276
3 -2 10 -3.0679 -0.0119
3 -2 11 2.4602 -0.0225
3 -2 12 -1.7486 -0.0262
3 -2 13 1.2031 0.0345
3 -1 0 -0.2847 -0.6275
3 -1 1 -4.0756 0.1122
3 -1 2 3.9113 0.2246
3 -1 3 0.6829 -0.0462
3 -1 4 -6.6223 -0.1479
3 -1 5 10.4039 0.0280
3 -1 6 -10.2946 0.0854
3 -1 7 6.7380 -0.0063
3 -1 8 -1.4979 -0.0269
3 -1 9 -3.0306 -0.0409
3 -1 10 4.9007 0.0311
3 -1 11 -4.2517 0.0127
3 -1 12 2.8977 0.0258
3 -1 13 -1.8361 -0.0400
3 -1 14 0.7441 -0.0207
3 0 0 5.4453 0.5320
3 0 1 -1.4768 -0.0658
3 0 2 -1.2347 -0.2043
3 0 3 0.1022 0.0286
3 0 4 3.9884 0.1358
3 0 5 -7.7281 -0.0115
3 0 6 8.6074 -0.0856
3 0 7 -6.3709 -0.0232
3 0 8 1.9575 0.0764
3 0 9 2.8816 0.0141
3 0 10 -5.6401 -0.0379
3 0 11 5.2467 -0.0175
3 0 12 -3.3752 0.0080
3 0 13 1.8754 0.0194
3 0 14 -0.7454 0.0061
3 0 15 -0.2198 -0.0037
3 1 0 -8.1236 -0.4575
3 1 1 6.8024 0.0272
3 1 2 -2.9322 0.1673
3 1 3 0.2000 0.0111
3 1 4 -0.6453 -0.1249
3 1 5 2.9509 -0.0214
3 1 6 -4.5919 0.1115
3 1 7 4.3132 0.0096
3 1 8 -1.9394 -0.0795
3 1 9 -1.8186 -0.0068
3 1 10 4.7601 0.0380
3 1 11 -5.0125 0.0306
3 1 12 3.3977 -0.0447
3 1 13 -1.7699 0.0113
3 1 14 0.4482 -0.0177
3 1 15 0.6544 0.0262
3 2 0 7.5304 0.5160
3 2 1 -9.0219 -0.0441
3 2 2 5.6142 -0.1452
3 2 3 -0.4646 -0.0310
3 2 4 -2.6369 0.1111
3 2 5 2.4852 0.0353
3 2 6 -0.4513 -0.0962
3 2 7 -1.4873 -0.0211
3 2 8 1.7054 0.0632
3 2 9 0.2159 0.0299
3 2 10 -2.5084 -0.0461
3 2 11 3.0268 -0.0336
3 2 12 -2.0631 0.0342
3 2 13 1.0907 0.0256
3 2 14 -0.0882 -0.0113
3 2 15 -1.1603 -0.0473
3 2 16 1.4360 0.0811
3 3 0 -3.1391 -0.7026
3 3 1 6.6693 0.1199
3 3 2 -5.1223 0.1606
3 3 3 0.2466 0.0092
3 3 4 4.2878 -0.0929
3 3 5 -6.0295 -0.0495
3 3 6 4.7127 0.0804
3 3 7 -1.6613 0.0534
3 3 8 -0.7836 -0.0746
3 3 9 0.9262 -0.0393
3 3 10 0.2426 0.0520
3 3 11 -0.5085 0.0344
3 3 12 -0.1217 -0.0173
3 3 13 0.2047 -0.0720
3 3 14 -0.1239 0.0516
3 3 15 0.9426 0.0446
3 3 16 -1.5562 -0.0775
3 4 0 -2.6492 0.8370
3 4 1 -1.5765 -0.1715
3 4 2 2.4473 -0.2216
3 4 3 0.1204 0.0433
3 4 4 -3.7524 0.1018
3 4 5 6.2513 0.0323
3 4 6 -6.4667 -0.0845
3 4 7 4.2256 -0.0424
3 4 8 -0.9797 0.0662
3 4 9 -0.9276 0.0429
3 4 10 0.9848 -0.0497
3 4 11 -0.8068 -0.0420
3 4 12 1.0321 0.0297
3 4 13 -0.6594 0.0569
3 4 14 -0.0929 -0.0308
3 4 15 -0.2054 -0.0587
3 4 16 1.1286 0.0288
3 4 17 -0.9969 0.0815
3 5 0 6.2680 -0.8158
3 5 1 -2.8604 0.1669
3 5 2 0.2344 0.2715
3 5 3 -0.1633 -0.0859
3 5 4 1.9871 -0.1253
3 5 5 -4.2041 0.0122
3 5 6 5.5345 0.0732
3 5 7 -4.9385 0.0297
3 5 8 2.4658 -0.0561
3 5 9 0.1678 -0.0419
3 5 10 -1.3163 0.0431
3 5 11 1.1805 0.0491
3 5 12 -0.7270 -0.0431
3 5 13 0.1249 -0.0358
3 5 14 0.4657 0.0140
3 5 15 -0.2965 0.0573
3 5 16 -0.5024 0.0204
3 5 17 0.7596 -0.2001
3 6 0 -7.5423 0.6902
3 6 1 5.6752 -0.1457
3 6 2 -2.3659 -0.2482
3 6 3 0.0825 0.0694
3 6 4 0.0916 0.1499
3 6 5 1.2198 -0.0345
3 6 6 -2.7827 -0.0740
3 6 7 3.4421 -0.0275
3 6 8 -2.5814 0.0721
3 6 9 0.6931 0.0250
3 6 10 0.8739 -0.0456
3 6 11 -1.2123 -0.0338
3 6 12 0.6443 0.0374
3 6 13 -0.0483 0.0321
3 6 14 -0.1101 -0.0254
3 6 15 -0.0574 -0.0372
3 6 16 0.1535 -0.0212
3 6 17 0.0607 0.1980
3 7 0 7.3641 -0.5207
3 7 1 -6.9996 0.1074
3 7 2 4.0819 0.1953
3 7 3 -0.5422 -0.0341
3 7 4 -1.5066 -0.1549
3 7 5 1.5400 0.0321
3 7 6 -0.3876 0.0928
3 7 7 -0.9064 0.0008
3 7 8 1.5967 -0.0651
3 7 9 -1.2571 -0.0177
3 7 10 0.1459 0.0542
3 7 11 0.7090 0.0056
3 7 12 -0.6614 -0.0233
3 7 13 0.3446 -0.0180
3 7 14 -0.5652 0.0152
3 7 15 0.9235 0.0492
3 7 16 -0.5498 -0.0620
3 7 17 -0.3545 -0.0533
3 8 0 -5.2195 0.3871
3 8 1 5.9164 -0.0530
3 8 2 -4.1784 -0.1623
3 8 3 0.9355 0.0250
3 8 4 1.8173 0.1117
3 8 5 -2.8586 -0.0028
3 8 6 2.3131 -0.0920
3 8 7 -0.9057 0.0067
3 8 8 -0.6085 0.0435
3 8 9 1.3683 0.0265
3 8 10 -0.8572 -0.0475
3 8 11 -0.1951 -0.0058
3 8 12 0.5286 0.0204
3 8 13 -0.2150 0.0046
3 8 14 0.3616 -0.0136
3 8 15 -0.9879 -0.0234
3 8 16 0.9864 0.1039
3 9 0 1.8770 -0.4054
3 9 1 -2.8898 0.0367
3 9 2 2.3877 0.1453
3 9 3 -0.4515 -0.0035
3 9 4 -1.6586 -0.0847
3 9 5 2.8420 -0.0347
3 9 6 -2.7849 0.0854
3 9 7 1.7009 0.0245
3 9 8 -0.1184 -0.0556
3 9 9 -1.0454 -0.0293
3 9 10 0.9674 0.0363
3 9 11 -0.0151 0.0221
3 9 12 -0.4583 -0.0207
3 9 13 0.0284 -0.0029
3 9 14 0.2538 0.0191
3 9 15 0.2082 -0.0529
3 9 16 -0.6292 0.0053
3 10 0 0.6803 0.5582
3 10 1 -0.0689 -0.0898
3 10 2 -0.2255 -0.1580
3 10 3 -0.3261 -0.0027
3 10 4 1.2975 0.1110
3 10 5 -2.1304 0.0246
3 10 6 2.4706 -0.0860
3 10 7 -2.0251 -0.0372
3 10 8 0.8137 0.0728
3 10 9 0.4958 0.0285
3 10 10 -1.0009 -0.0395
3 10 11 0.5733 -0.0303
3 10 12 -0.0743 0.0215
3 10 13 0.1336 0.0011
3 10 14 -0.3188 0.0176
3 10 15 0.1122 0.0394
3 11 0 -1.6122 -0.6121
3 11 1 1.6711 0.1578
3 11 2 -1.2402 0.1690
3 11 3 0.9053 -0.0474
3 11 4 -0.8116 -0.1081
3 11 5 1.0125 0.0107
3 11 6 -1.4279 0.0751
3 11 7 1.5230 0.0199
3 11 8 -0.8399 -0.0640
3 11 9 -0.3036 -0.0311
3 11 10 1.1273 0.0454
3 11 11 -1.2383 0.0488
3 11 12 0.8973 -0.0631
3 11 13 -0.5081 0.0273
3 11 14 0.1643 -0.0577
3 12 0 1.1746 0.3944
3 12 1 -1.4764 -0.1333
3 12 2 1.3822 -0.1232
3 12 3 -1.0436 0.0648
3 12 4 0.5375 0.0675
3 12 5 -0.1777 -0.0178
3 12 6 0.2858 -0.0551
3 12 7 -0.4992 -0.0077
3 12 8 0.2018 0.0514
3 12 9 0.5113 0.0231
3 12 10 -1.0538 -0.0470
3 12 11 1.1734 -0.0504
3 12 12 -0.9961 0.1065
4 -8 0 -0.2136 -0.2991
4 -8 1 0.3378 0.0950
4 -8 2 -0.2693 0.0064
4 -7 0 -1.1477 0.5144
4 -7 1 0.1182 -0.1384
4 -7 2 0.7156 -0.0842
4 -7 3 -0.6791 -0.0451
4 -7 4 -0.0425 0.1723
4 -6 0 2.0988 -0.5328
4 -6 1 -1.1978 0.0986
4 -6 2 -0.4644 0.1788
4 -6 3 1.4578 -0.0305
4 -6 4 -0.9771 -0.1379
4 -6 5 -0.1697 0.0802
4 -6 6 0.5689 -0.0381
4 -5 0 -2.2928 0.4676
4 -5 1 2.4261 -0.0718
4 -5 2 -0.7232 -0.1795
4 -5 3 -1.4075 0.0385
4 -5 4 2.2736 0.0836
4 -5 5 -1.4199 0.0286
4 -5 6 0.0867 -0.0705
4 -5 7 0.1862 -0.0820
4 -5 8 0.5135 0.1639
4 -4 0 2.1401 -0.4795
4 -4 1 -3.3543 0.0912
4 -4 2 2.0048 0.1383
4 -4 3 0.5986 0.0011
4 -4 4 -2.6910 -0.0928
4 -4 5 2.9094 -0.0534
4 -4 6 -1.2484 0.1123
4 -4 7 -0.6346 0.0311
4 -4 8 1.2157 -0.0927
4 -4 9 -0.8266 0.0111
4 -4 10 0.5167 -0.0016
4 -3 0 -0.5702 0.5347
4 -3 1 2.9483 -0.0996
4 -3 2 -2.3436 -0.1544
4 -3 3 -0.0341 0.0108
4 -3 4 2.5813 0.1055
4 -3 5 -3.9138 0.0143
4 -3 6 3.0135 -0.0701
4 -3 7 -0.3997 -0.0440
4 -3 8 -1.9654 0.0549
4 -3 9 2.8296 0.0719
4 -3 10 -2.5369 -0.0822
4 -3 11 1.7535 -0.0157
4 -2 0 -2.7989 -0.5540
4 -2 1 -0.8618 0.0857
4 -2 2 1.9676 0.1857
4 -2 3 -0.5878 -0.0384
4 -2 4 -1.9283 -0.1002
4 -2 5 4.1773 0.0015
4 -2 6 -4.6828 0.0630
4 -2 7 2.7666 0.0303
4 -2 8 0.3928 -0.0504
4 -2 9 -2.8255 -0.0472
4 -2 10 3.6224 0.0496
4 -2 11 -3.1284 0.0389
4 -2 12 2.0550 -0.0407
4 -1 0 5.8059 0.5598
4 -1 1 -1.8261 -0.0777
4 -1 2 -1.3889 -0.1812
4 -1 3 1.8664 0.0241
4 -1 4 0.0380 0.1101
4 -1 5 -2.7498 -0.0052
4 -1 6 4.4910 -0.0734
4 -1 7 -4.0673 -0.0031
4 -1 8 1.6923 0.0397
4 -1 9 1.1093 0.0112
4 -1 10 -2.7574 0.0063
4 -1 11 2.8306 -0.0673
4 -1 12 -2.0513 0.0384
4 -1 13 1.1985 0.0079
4 0 0 -6.0321 -0.5744
4 0 1 3.9664 0.0780
4 0 2 -0.0941 0.1715
4 0 3 -2.3918 -0.0079
4 0 4 2.0706 -0.1110
4 0 5 0.0618 -0.0024
4 0 6 -2.1578 0.0689
4 0 7 3.0083 0.0182
4 0 8 -2.2719 -0.0511
4 0 9 0.3806 -0.0120
4 0 10 1.4286 0.0106
4 0 11 -2.0019 0.0369
4 0 12 1.5120 -0.0003
4 0 13 -0.9182 -0.0592
4 0 14 0.4861 0.0382
4 1 0 2.9319 0.5770
4 1 1 -4.5884 -0.0768
4 1 2 2.5720 -0.1740
4 1 3 0.7779 0.0098
4 1 4 -2.5723 0.0966
4 1 5 2.0781 0.0232
4 1 6 -0.4797 -0.0743
4 1 7 -1.0176 -0.0293
4 1 8 1.6768 0.0571
4 1 9 -0.9610 0.0309
4 1 10 -0.6682 -0.0500
4 1 11 1.6766 -0.0081
4 1 12 -1.3756 0.0038
4 1 13 0.6634 0.0509
4 1 14 -0.2672 -0.0727
4 1 15 -0.0229 0.0856
4 2 0 2.4142 -0.6105
4 2 1 2.6116 0.0913
4 2 2 -3.9841 0.1841
4 2 3 1.7398 -0.0176
4 2 4 1.3243 -0.0954
4 2 5 -2.7293 -0.0236
4 2 6 2.1282 0.0711
4 2 7 -0.4355 0.0308
4 2 8 -1.1156 -0.0475
4 2 9 1.2736 -0.0472
4 2 10 0.0401 0.0602
4 2 11 -1.1714 0.0140
4 2 12 0.8392 -0.0290
4 2 13 0.1783 -0.0107
4 2 14 -0.6433 0.0216
4 2 15 0.5327 -0.0265
4 3 0 -7.9359 0.6964
4 3 1 1.6261 -0.1383
4 3 2 2.6429 -0.2007
4 3 3 -2.9118 0.0398
4 3 4 0.5098 0.1022
4 3 5 1.8736 0.0066
4 3 6 -2.5673 -0.0584
4 3 7 1.4156 -0.0399
4 3 8 0.5283 0.0528
4 3 9 -1.5228 0.0389
4 3 10 0.8118 -0.0395
4 3 11 0.2450 -0.0383
4 3 12 -0.0597 0.0330
4 3 13 -0.9308 0.0267
4 3 14 1.3755 -0.0056
4 3 15 -1.0588 -0.0733
4 3 16 0.4430 0.1106
4 4 0 11.2698 -0.7171
4 4 1 -5.7441 0.1675
4 4 2 0.2828 0.2118
4 4 3 2.3003 -0.0606
4 4 4 -1.8644 -0.1129
4 4 5 0.0140 0.0109
4 4 6 1.5941 0.0634
4 4 7 -1.8206 0.0259
4 4 8 0.4947 -0.0486
4 4 9 1.0887 -0.0323
4 4 10 -1.3826 0.0262
4 4 11 0.5793 0.0547
4 4 12 -0.0914 -0.0409
4 4 13 0.3065 -0.0423
4 4 14 -0.5154 0.0288
4 4 15 0.5033 0.0898
4 4 16 -0.4711 -0.1705
4 5 0 -11.2990 0.6284
4 5 1 7.7554 -0.1366
4 5 2 -2.5659 -0.2114
4 5 3 -1.3375 0.0580
4 5 4 2.7202 0.1272
4 5 5 -2.0690 -0.0232
4 5 6 0.3846 -0.0755
4 5 7 1.1295 -0.0034
4 5 8 -1.3106 0.0372
4 5 9 0.1628 0.0374
4 5 10 0.9191 -0.0385
4 5 11 -0.8576 -0.0386
4 5 12 0.0933 0.0390
4 5 13 0.4547 0.0310
4 5 14 -0.5645 -0.0321
4 5 15 0.3541 -0.0643
4 5 16 0.0845 0.1407
4 6 0 8.6533 -0.5325
4 6 1 -7.4605 0.0959
4 6 2 3.5391 0.1952
4 6 3 0.8508 -0.0435
4 6 4 -3.4982 -0.1244
4 6 5 3.7905 0.0143
4 6 6 -2.3479 0.0869
4 6 7 0.2560 0.0010
4 6 8 1.2437 -0.0510
4 6 9 -1.3362 -0.0227
4 6 10 0.4031 0.0406
4 6 11 0.3235 0.0202
4 6 12 -0.2212 -0.0240
4 6 13 -0.1477 -0.0311
4 6 14 0.1286 0.0425
4 6 15 0.1408 0.0252
4 6 16 -0.2374 -0.1092
4 7 0 -4.5591 0.4590
4 7 1 5.1162 -0.0755
4 7 2 -3.2075 -0.1617
4 7 3 -0.4196 0.0243
4 7 4 3.5145 0.1081
4 7 5 -4.4657 0.0040
4 7 6 3.3591 -0.0908
4 7 7 -1.2776 -0.0072
4 7 8 -0.6865 0.0636
4 7 9 1.7048 0.0092
4 7 10 -1.4269 -0.0320
4 7 11 0.4622 -0.0224
4 7 12 0.1121 0.0275
4 7 13 -0.1429 0.0177
4 7 14 0.3693 -0.0438
4 7 15 -0.8776 0.0205
4 7 16 0.9032 0.0661
4 8 0 0.4572 -0.4314
4 8 1 -1.5635 0.0601
4 8 2 1.4357 0.1404
4 8 3 0.2987 -0.0042
4 8 4 -2.4458 -0.0986
4 8 5 3.4825 -0.0111
4 8 6 -2.9334 0.0740
4 8 7 1.4066 0.0245
4 8 8 0.2923 -0.0619
4 8 9 -1.5177 -0.0186
4 8 10 1.6522 0.0317
4 8 11 -0.7207 0.0277
4 8 12 -0.1518 -0.0288
4 8 13 0.1122 -0.0015
4 8 14 0.1709 0.0138
4 8 15 0.1673 -0.0353
4 8 16 -0.6532 0.0015
4 9 0 2.3648 0.5469
4 9 1 -1.4303 -0.0896
4 9 2 0.7425 -0.1577
4 9 3 -0.8903 0.0108
4 9 4 1.5058 0.0982
4 9 5 -1.9202 0.0126
4 9 6 1.7830 -0.0633
4 9 7 -1.1128 -0.0411
4 9 8 0.0627 0.0632
4 9 9 1.0558 0.0309
4 9 10 -1.5274 -0.0325
4 9 11 0.8321 -0.0381
4 9 12 0.2607 0.0189
4 9 13 -0.3984 0.0206
4 9 14 -0.3610 0.0046
4 9 15 0.7235 0.0146
4 10 0 -3.6972 -0.6935
4 10 1 3.2104 0.1591
4 10 2 -2.1495 0.1954
4 10 3 1.3960 -0.0563
4 10 4 -0.9931 -0.1012
4 10 5 0.7815 0.0007
4 10 6 -0.7809 0.0720
4 10 7 0.8380 0.0278
4 10 8 -0.5544 -0.0585
4 10 9 -0.2457 -0.0439
4 10 10 1.0574 0.0556
4 10 11 -1.0380 0.0275
4 10 12 0.1872 -0.0099
4 10 13 0.3994 -0.0474
4 10 14 -0.0688 -0.0041
4 11 0 3.5919 0.6061
4 11 1 -3.8588 -0.1633
4 11 2 2.7196 -0.2010
4 11 3 -1.3476 0.0915
4 11 4 0.3304 0.0995
4 11 5 0.2359 -0.0285
4 11 6 -0.2231 -0.0735
4 11 7 -0.2174 0.0009
4 11 8 0.5365 0.0519
4 11 9 -0.3288 0.0383
4 11 10 -0.2649 -0.0884
4 11 11 0.6740 0.0295
4 11 12 -0.4978 -0.0239
4 11 13 0.0404 0.0700
4 12 0 -2.0631 -0.3064
4 12 1 2.6963 0.0832
4 12 2 -2.0532 0.1371
4 12 3 0.9268 -0.0573
4 12 4 0.0348 -0.0897
4 12 5 -0.6694 0.0356
4 12 6 0.8024 0.0638
4 12 7 -0.4552 -0.0181
4 12 8 0.0436 -0.0496
4 12 9 0.1357 0.0024
4 12 10 -0.1267 0.0652
4 12 11 0.0333 -0.0633
5 -7 0 0.2678 -0.2708
5 -7 1 -0.2265 0.0859
5 -7 2 0.0481 0.0218
5 -6 0 0.4398 0.3934
5 -6 1 0.7041 -0.0991
5 -6 2 -0.8775 -0.1204
5 -6 3 0.2542 0.0096
5 -6 4 0.2913 0.1573
5 -5 0 -1.2600 -0.3762
5 -5 1 -0.7324 0.0985
5 -5 2 1.4350 0.1352
5 -5 3 -0.6261 -0.0640
5 -5 4 -0.6347 -0.0833
5 -5 5 1.1647 0.0708
5 -5 6 -0.6941 -0.0325
5 -4 0 1.3246 0.3823
5 -4 1 1.0752 -0.0840
5 -4 2 -1.9938 -0.1065
5 -4 3 1.3857 0.0257
5 -4 4 -0.0587 0.0579
5 -4 5 -1.0327 0.0092
5 -4 6 1.1532 -0.0318
5 -4 7 -0.4992 -0.0799
5 -4 8 0.1038 0.1191
5 -3 0 -1.9655 -0.4902
5 -3 1 -1.2312 0.0777
5 -3 2 2.8208 0.1344
5 -3 3 -2.6335 -0.0078
5 -3 4 1.4144 -0.0861
5 -3 5 0.2477 -0.0103
5 -3 6 -1.4930 0.0610
5 -3 7 1.5011 0.0228
5 -3 8 -0.7049 -0.0312
5 -3 9 0.1105 -0.0878
5 -2 0 3.4604 0.5760
5 -2 1 -0.3175 -0.0846
5 -2 2 -2.4715 -0.1746
5 -2 3 3.4278 0.0290
5 -2 4 -2.5634 0.0872
5 -2 5 0.4517 0.0043
5 -2 6 1.7379 -0.0529
5 -2 7 -2.4379 -0.0215
5 -2 8 1.4087 0.0180
5 -2 9 -0.0576 0.0882
5 -2 10 -0.5471 -0.1083
5 -2 11 0.5433 0.0277
5 -1 0 -3.2009 -0.5845
5 -1 1 2.2816 0.0834
5 -1 2 0.4503 0.1773
5 -1 3 -2.6743 -0.0137
5 -1 4 2.8688 -0.0963
5 -1 5 -1.0602 -0.0208
5 -1 6 -1.3869 0.0694
5 -1 7 2.5342 0.0285
5 -1 8 -1.6672 -0.0529
5 -1 9 0.0903 -0.0150
5 -1 10 0.5981 0.0129
5 -1 11 -0.2199 0.0294
5 -1 12 -0.4053 0.0101
5 0 0 0.1154 0.5712
5 0 1 -2.2141 -0.0799
5 0 2 1.5084 -0.1819
5 0 3 0.6497 0.0022
5 0 4 -1.9348 0.1184
5 0 5 1.2859 0.0146
5 0 6 0.5453 -0.0766
5 0 7 -1.9179 -0.0253
5 0 8 1.8011 0.0523
5 0 9 -0.5903 0.0135
5 0 10 -0.5338 -0.0004
5 0 11 0.7737 -0.0410
5 0 12 -0.2296 -0.0202
5 0 13 -0.3750 0.0834
5 1 0 4.0721 -0.5452
5 1 1 0.3823 0.0903
5 1 2 -2.5245 0.1863
5 1 3 1.8775 -0.0269
5 1 4 -0.2488 -0.1052
5 1 5 -0.4993 -0.0083
5 1 6 -0.0111 0.0652
5 1 7 1.0612 0.0320
5 1 8 -1.7848 -0.0437
5 1 9 1.5328 -0.0476
5 1 10 -0.1555 0.0460
5 1 11 -1.5211 0.0179
5 1 12 2.1818 0.0021
5 1 13 -1.4919 -0.0411
5 2 0 -8.0530 0.5259
5 2 1 2.0410 -0.1025
5 2 2 2.8558 -0.1719
5 2 3 -4.4606 0.0323
5 2 4 3.2899 0.0950
5 2 5 -1.4040 0.0099
5 2 6 0.2823 -0.0670
5 2 7 -0.2479 -0.0257
5 2 8 0.9726 0.0433
5 2 9 -1.5651 0.0395
5 2 10 0.9237 -0.0382
5 2 11 0.8892 -0.0287
5 2 12 -2.2840 0.0292
5 2 13 2.0821 -0.0166
5 2 14 -0.9531 0.0573
5 3 0 10.6444 -0.5557
5 3 1 -4.6248 0.1111
5 3 2 -1.9164 0.1727
5 3 3 5.7856 -0.0279
5 3 4 -5.9689 -0.1114
5 3 5 3.8546 0.0075
5 3 6 -1.4398 0.0659
5 3 7 -0.0454 0.0110
5 3 8 0.2634 -0.0358
5 3 9 0.2743 -0.0209
5 3 10 -0.4687 0.0026
5 3 11 -0.1394 0.0549
5 3 12 0.6579 -0.0282
5 3 13 -0.2571 -0.0084
5 3 14 -0.4228 -0.0359
5 4 0 -10.1826 0.5774
5 4 1 6.0387 -0.1124
5 4 2 -0.0889 -0.1844
5 4 3 -4.7584 0.0366
5 4 4 6.6345 0.1155
5 4 5 -5.6380 -0.0157
5 4 6 3.0881 -0.0627
5 4 7 -0.4981 -0.0114
5 4 8 -0.9854 0.0352
5 4 9 1.1063 0.0256
5 4 10 -0.6497 -0.0125
5 4 11 0.4051 -0.0428
5 4 12 -0.1116 0.0097
5 4 13 -0.7337 0.0542
5 4 14 1.5179 -0.0464
5 4 15 -1.2571 0.0145
5 5 0 7.0241 -0.5516
5 5 1 -5.2168 0.0889
5 5 2 1.3352 0.1832
5 5 3 2.7998 -0.0223
5 5 4 -5.4512 -0.1212
5 5 5 5.8764 0.0001
5 5 6 -4.2248 0.0866
5 5 7 1.3859 0.0074
5 5 8 1.1226 -0.0504
5 5 9 -2.0505 -0.0238
5 5 10 1.5371 0.0423
5 5 11 -0.7628 0.0032
5 5 12 0.3376 0.0013
5 5 13 0.1300 -0.0328
5 5 14 -0.7521 0.0429
5 5 15 0.9212 -0.0668
5 6 0 -2.8329 0.5402
5 6 1 2.8001 -0.0626
5 6 2 -1.0259 -0.1917
5 6 3 -1.7459 0.0098
5 6 4 4.0928 0.1363
5 6 5 -4.9912 0.0031
5 6 6 4.0968 -0.1089
5 6 7 -1.7385 0.0064
5 6 8 -0.9667 0.0640
5 6 9 2.5464 -0.0015
5 6 10 -2.3425 -0.0280
5 6 11 1.1548 -0.0020
5 6 12 -0.2465 -0.0004
5 6 13 -0.0747 0.0026
5 6 14 0.2490 0.0088
5 6 15 -0.3506 0.0449
5 7 0 -1.5967 -0.5241
5 7 1 0.4668 0.0591
5 7 2 -0.2573 0.1986
5 7 3 1.3455 -0.0278
5 7 4 -2.8216 -0.1217
5 7 5 3.4836 0.0039
5 7 6 -2.8090 0.0906
5 7 7 1.1325 0.0035
5 7 8 0.7834 -0.0633
5 7 9 -2.1756 0.0019
5 7 10 2.4681 0.0103
5 7 11 -1.6355 0.0347
5 7 12 0.4269 -0.0190
5 7 13 0.3600 -0.0032
5 7 14 -0.6440 -0.0128
5 7 15 0.6285 -0.0383
5 8 0 4.9414 0.4937
5 8 1 -3.4917 -0.0666
5 8 2 1.7745 -0.1771
5 8 3 -0.9472 0.0243
5 8 4 1.1129 0.1020
5 8 5 -1.4227 0.0039
5 8 6 1.0426 -0.0670
5 8 7 -0.0421 -0.0294
5 8 8 -0.8879 0.0554
5 8 9 1.4243 0.0407
5 8 10 -1.6229 -0.0517
5 8 11 1.3139 -0.0241
5 8 12 -0.4632 0.0209
5 8 13 -0.3604 0.0126
5 8 14 0.6858 0.0144
5 8 15 -0.6378 0.0168
5 9 0 -5.7526 -0.5762
5 9 1 4.6565 0.1150
5 9 2 -2.5746 0.1648
5 9 3 0.6737 -0.0144
5 9 4 0.3042 -0.1096
5 9 5 -0.4259 -0.0103
5 9 6 0.3965 0.0774
5 9 7 -0.6834 0.0247
5 9 8 0.9901 -0.0494
5 9 9 -1.0041 -0.0573
5 9 10 0.9042 0.0727
5 9 11 -0.6672 0.0131
5 9 12 0.0111 -0.0096
5 9 13 0.7013 -0.0376
5 9 14 -0.7746 -0.0174
5 10 0 4.6810 0.6673
5 10 1 -4.1953 -0.1866
5 10 2 2.4474 -0.1773
5 10 3 -0.5178 0.0534
5 10 4 -0.8185 0.1100
5 10 5 1.3180 -0.0071
5 10 6 -1.2185 -0.0863
5 10 7 0.9829 0.0008
5 10 8 -0.7668 0.0480
5 10 9 0.5172 0.0184
5 10 10 -0.4096 -0.0101
5 10 11 0.4125 -0.0816
5 10 12 -0.0266 0.0598
5 10 13 -0.7119 0.0412
5 11 0 -2.9271 -0.4543
5 11 1 3.1944 0.1279
5 11 2 -1.9548 0.1775
5 11 3 0.2869 -0.0749
5 11 4 0.9010 -0.1020
5 11 5 -1.4606 0.0344
5 11 6 1.5197 0.0648
5 11 7 -1.2228 -0.0055
5 11 8 0.6858 -0.0524
5 11 9 -0.0541 0.0216
5 11 10 -0.2794 -0.0431
5 11 11 0.0668 0.1293
5 11 12 0.1984 -0.1144
5 12 1 -1.6131 0.0524
5 12 2 1.0019 -0.1491
5 12 3 0.1148 0.0245
5 12 4 -0.8210 0.1026
5 12 5 1.0514 -0.0320
5 12 6 -1.1047 -0.0531
5 12 7 1.0486 0.0041
5 12 8 -0.7862 0.0449
5 12 9 0.2505 -0.0224
6 -6 0 -1.5205 -0.1579
6 -6 1 0.1339 -0.0221
6 -5 0 2.1593 0.2926
6 -5 1 -0.2507 -0.0622
6 -5 2 -1.2836 -0.1463
6 -5 3 1.4842 0.1434
6 -4 0 -2.4055 -0.4201
6 -4 1 0.5390 0.1219
6 -4 2 1.4319 0.0956
6 -4 3 -2.3583 -0.0672
6 -4 4 2.1866 -0.0084
6 -4 5 -1.3961 -0.0026
6 -3 0 2.0242 0.5524
6 -3 1 -0.3488 -0.1270
6 -3 2 -1.7295 -0.1340
6 -3 3 3.0088 0.0296
6 -3 4 -3.1866 0.0866
6 -3 5 2.3592 -0.0264
6 -3 6 -0.8851 -0.0298
6 -3 7 -0.2352 -0.0061
6 -2 0 -1.0184 -0.6060
6 -2 1 0.2468 0.1118
6 -2 2 1.5490 0.2022
6 -2 3 -2.8742 -0.0596
6 -2 4 2.9970 -0.0994
6 -2 5 -2.0533 0.0235
6 -2 6 0.5276 0.0503
6 -2 7 0.5256 -0.0070
6 -2 8 -0.2948 0.0102
6 -2 9 -0.5693 -0.0769
6 -1 0 -0.7052 0.5400
6 -1 1 -0.8583 -0.0823
6 -1 2 0.3892 -0.2117
6 -1 3 1.0090 0.0501
6 -1 4 -1.6256 0.1073
6 -1 5 0.9709 0.0001
6 -1 6 0.2780 -0.0772
6 -1 7 -0.9106 -0.0074
6 -1 8 0.2664 0.0274
6 -1 9 0.8092 0.0523
6 -1 10 -1.0252 -0.0456
6 0 0 3.2706 -0.4483
6 0 1 0.8118 0.0637
6 0 2 -2.8518 0.1835
6 0 3 2.2414 -0.0160
6 0 4 -0.8138 -0.1322
6 0 5 0.3025 0.0028
6 0 6 -0.7988 0.0895
6 0 7 1.1803 0.0106
6 0 8 -0.6407 -0.0500
6 0 9 -0.2292 -0.0306
6 0 10 0.3562 0.0219
6 0 11 0.2008 0.0547
6 1 0 -5.8299 0.3931
6 1 1 0.8226 -0.0754
6 1 2 3.5241 -0.1471
6 1 3 -4.9741 0.0143
6 1 4 3.8826 0.1153
6 1 5 -2.1453 -0.0063
6 1 6 1.0990 -0.0731
6 1 7 -0.7026 -0.0194
6 1 8 0.3897 0.0516
6 1 9 -0.1420 0.0313
6 1 10 0.2094 -0.0155
6 1 11 -0.3252 -0.0846
6 1 12 0.1463 0.0718
6 2 0 7.0217 -0.3984
6 2 1 -2.5591 0.0917
6 2 2 -2.6624 0.1169
6 2 3 6.1195 -0.0140
6 2 4 -6.5102 -0.0816
6 2 5 4.5451 -0.0134
6 2 6 -1.9602 0.0637
6 2 7 0.0265 0.0305
6 2 8 0.8816 -0.0556
6 2 9 -0.8337 -0.0266
6 2 10 0.2943 0.0205
6 2 11 -0.1296 0.0621
6 2 12 0.6207 -0.0517
6 3 0 -6.3285 0.4878
6 3 1 2.9831 -0.1050
6 3 2 1.7895 -0.1240
6 3 3 -5.9805 0.0088
6 3 4 7.6663 0.0818
6 3 5 -6.3976 0.0229
6 3 6 3.4211 -0.0709
6 3 7 -0.4558 -0.0227
6 3 8 -1.4390 0.0463
6 3 9 1.9521 0.0275
6 3 10 -1.4331 -0.0263
6 3 11 0.8576 -0.0211
6 3 12 -0.8896 -0.0254
6 3 13 1.0189 0.0792
6 4 0 4.1292 -0.5791
6 4 1 -2.2444 0.1121
6 4 2 -1.2596 0.1676
6 4 3 4.8821 -0.0303
6 4 4 -6.8879 -0.0918
6 4 5 6.4592 -0.0124
6 4 6 -4.1945 0.0681
6 4 7 1.4379 0.0243
6 4 8 0.7155 -0.0425
6 4 9 -1.7301 -0.0374
6 4 10 1.6038 0.0348
6 4 11 -0.9634 0.0149
6 4 12 0.5500 0.0333
6 4 13 -0.3658 -0.0972
6 5 0 -1.1144 0.5897
6 5 1 0.8676 -0.0993
6 5 2 0.9491 -0.2033
6 5 3 -3.2942 0.0502
6 5 4 4.7653 0.0996
6 5 5 -4.6947 0.0041
6 5 6 3.3033 -0.0688
6 5 7 -1.2844 -0.0328
6 5 8 -0.5344 0.0598
6 5 9 1.4101 0.0319
6 5 10 -1.0827 -0.0387
6 5 11 0.1605 -0.0307
6 5 12 0.3892 0.0269
6 5 13 -0.3624 -0.0023
6 5 14 0.2682 0.0410
6 6 0 -2.1958 -0.5665
6 6 1 1.0097 0.0934
6 6 2 -0.9559 0.2001
6 6 3 1.7854 -0.0383
6 6 4 -2.4156 -0.1185
6 6 5 2.3023 0.0019
6 6 6 -1.5073 0.0866
6 6 7 0.1931 0.0151
6 6 8 1.2534 -0.0637
6 6 9 -2.0224 -0.0199
6 6 10 1.4831 0.0353
6 6 11 -0.0793 0.0313
6 6 12 -0.9039 -0.0405
6 6 13 0.8212 0.0487
6 6 14 -0.2940 -0.1293
6 7 0 4.9960 0.5294
6 7 1 -3.1750 -0.1003
6 7 2 1.4106 -0.1723
6 7 3 -0.5192 0.0186
6 7 4 0.1958 0.1254
6 7 5 -0.0605 -0.0048
6 7 6 -0.0760 -0.0891
6 7 7 0.4962 -0.0080
6 7 8 -1.2842 0.0630
6 7 9 1.9824 0.0146
6 7 10 -1.9429 -0.0362
6 7 11 1.0517 -0.0125
6 7 12 -0.0049 -0.0159
6 7 13 -0.4198 0.0465
6 7 14 0.2735 0.0475
6 8 0 -5.6412 -0.4693
6 8 1 4.3405 0.0785
6 8 2 -2.0056 0.1651
6 8 3 -0.2035 -0.0108
6 8 4 1.6121 -0.1165
6 8 5 -1.9168 -0.0056
6 8 6 1.3823 0.0810
6 8 7 -0.7899 0.0278
6 8 8 0.6134 -0.0783
6 8 9 -0.7247 -0.0114
6 8 10 0.9090 0.0429
6 8 11 -1.0039 0.0033
6 8 12 0.8111 0.0441
6 8 13 -0.3750 -0.1309
6 9 0 3.7986 0.4845
6 9 1 -3.3225 -0.0705
6 9 2 1.7846 -0.1938
6 9 3 0.2940 0.0280
6 9 4 -2.1875 0.1171
6 9 5 2.9773 0.0082
6 9 6 -2.4181 -0.0932
6 9 7 1.3496 -0.0117
6 9 8 -0.5249 0.0630
6 9 9 -0.0797 0.0189
6 9 10 0.4279 -0.0346
6 9 11 -0.2356 -0.0396
6 9 12 -0.2118 0.0207
6 9 13 0.3138 0.0771
6 10 0 -1.5050 -0.5580
6 10 1 1.3350 0.1366
6 10 2 -0.6923 0.1989
6 10 3 -0.3346 -0.0658
6 10 4 1.6449 -0.1206
6 10 5 -2.6391 0.0272
6 10 6 2.6537 0.0810
6 10 7 -1.9078 -0.0169
6 10 8 1.0267 -0.0226
6 10 9 -0.1256 -0.0300
6 10 10 -0.6738 0.0007
6 10 11 0.8462 0.1083
6 10 12 -0.4131 -0.1157
6 11 0 0.1017 0.4550
6 11 1 -0.1272 -0.1668
6 11 2 -0.1193 -0.1365
6 11 3 0.4948 0.0587
6 11 4 -0.9972 0.1241
6 11 5 1.6012 -0.0817
6 11 6 -1.9243 -0.0055
6 11 7 1.7218 -0.0323
6 11 8 -1.1716 0.0391
6 11 9 0.4180 0.0189
6 11 10 0.3396 0.0234
6 12 4 0.5685 -0.1278
6 12 5 -0.7119 0.0903
6 12 6 0.8364 -0.0472
7 -4 0 0.3769 0.2670
7 -4 1 0.4381 -0.0935
7 -4 2 -1.2990 -0.0220
7 -3 0 -0.5818 -0.4520
7 -3 1 -0.2810 0.1396
7 -3 2 1.8869 0.0880
7 -3 3 -2.6187 0.0109
7 -3 4 1.7779 -0.1492
7 -2 0 -0.8757 0.5041
7 -2 1 0.2744 -0.1457
7 -2 2 -1.0963 -0.1549
7 -2 3 2.1377 0.0551
7 -2 4 -1.9768 0.1271
7 -2 5 0.8721 -0.0858
7 -2 6 0.1456 -0.0097
7 -1 0 2.8564 -0.4055
7 -1 1 -0.3910 0.0981
7 -1 2 -0.8285 0.1674
7 -1 3 0.4767 -0.0634
7 -1 4 0.0404 -0.1086
7 -1 5 -0.0119 0.0440
7 -1 6 -0.1446 0.0616
7 -1 7 0.0037 -0.0208
7 0 0 -3.7407 0.3100
7 0 1 0.4252 -0.0593
7 0 2 2.5214 -0.1374
7 0 3 -3.3737 0.0298
7 0 4 2.7476 0.1066
7 0 5 -1.9341 -0.0175
7 0 6 1.2852 -0.0890
7 0 7 -0.5074 0.0297
7 0 8 -0.4794 0.0094
7 0 9 1.1561 0.0716
7 1 0 3.8856 -0.3148
7 1 1 -0.8980 0.0632
7 1 2 -2.7499 0.1079
7 1 3 4.9319 -0.0138
7 1 4 -5.0209 -0.0843
7 1 5 3.8727 -0.0066
7 1 6 -2.4581 0.0876
7 1 7 1.0960 -0.0114
7 1 8 0.2488 -0.0442
7 1 9 -1.1977 -0.0120
7 1 10 1.0850 0.0064
7 2 0 -3.2617 0.3953
7 2 1 1.4098 -0.0701
7 2 2 1.8452 -0.1200
7 2 3 -4.9076 0.0183
7 2 4 6.1629 0.0696
7 2 5 -5.1621 0.0137
7 2 6 2.8304 -0.0635
7 2 7 -0.5030 -0.0183
7 2 8 -1.1513 0.0591
7 2 9 1.9379 -0.0111
7 2 10 -1.5858 0.0346
7 3 0 1.1789 -0.5144
7 3 1 -0.7257 0.0853
7 3 2 -1.1786 0.1572
7 3 3 3.8880 -0.0277
7 3 4 -5.7615 -0.0792
7 3 5 5.3365 -0.0099
7 3 6 -2.8041 0.0498
7 3 7 -0.1451 0.0347
7 3 8 2.1243 -0.0419
7 3 9 -2.8970 -0.0383
7 3 10 2.5699 0.0194
7 3 11 -1.4065 0.0705
7 4 0 1.3544 0.5991
7 4 1 -0.8301 -0.1144
7 4 2 1.2071 -0.1806
7 4 3 -2.5141 0.0346
7 4 4 3.8446 0.0965
7 4 5 -3.9161 0.0106
7 4 6 2.3109 -0.0624
7 4 7 -0.0032 -0.0379
7 4 8 -1.7811 0.0423
7 4 9 2.6864 0.0671
7 4 10 -2.7860 -0.0612
7 4 11 2.0986 -0.0436
7 5 0 -3.0337 -0.5724
7 5 1 1.9412 0.1118
7 5 2 -1.2548 0.1933
7 5 3 1.1699 -0.0414
7 5 4 -1.2898 -0.1146
7 5 5 1.2232 0.0056
7 5 6 -0.7598 0.0649
7 5 7 -0.0936 0.0411
7 5 8 1.1077 -0.0628
7 5 9 -1.9524 -0.0446
7 5 10 2.2176 0.0350
7 5 11 -1.6498 0.0902
7 5 12 0.6674 -0.1106
7 6 0 4.2408 0.4657
7 6 1 -2.5694 -0.0909
7 6 2 0.9155 -0.1782
7 6 3 0.1099 0.0371
7 6 4 -0.8785 0.1164
7 6 5 1.3652 -0.0163
7 6 6 -1.2014 -0.0597
7 6 7 0.7472 -0.0333
7 6 8 -0.8475 0.0503
7 6 9 1.5816 0.0552
7 6 10 -2.0070 -0.0332
7 6 11 1.3571 -0.1166
7 6 12 -0.1407 0.1507
7 7 0 -4.8352 -0.3808
7 7 1 3.1163 0.0835
7 7 2 -0.6066 0.1331
7 7 3 -1.1975 -0.0087
7 7 4 2.3057 -0.1009
7 7 5 -2.7996 -0.0153
7 7 6 2.2295 0.0792
7 7 7 -0.9348 0.0253
7 7 8 0.2329 -0.0379
7 7 9 -0.7520 -0.0915
7 7 10 1.5910 0.0999
7 7 11 -1.5382 0.0404
7 7 12 0.6106 -0.0886
7 8 0 3.4842 0.3931
7 8 1 -2.7334 -0.0782
7 8 2 0.5510 -0.1341
7 8 3 1.5059 -0.0006
7 8 4 -2.8366 0.0999
7 8 5 3.2407 0.0383
7 8 6 -2.3546 -0.0995
7 8 7 0.6157 -0.0399
7 8 8 0.6272 0.0878
7 8 9 -0.6027 0.0480
7 8 10 -0.1673 -0.1203
7 8 11 0.7308 0.0566
7 9 0 -1.0117 -0.4599
7 9 1 1.0191 0.1062
7 9 2 -0.1570 0.1692
7 9 3 -1.0540 -0.0351
7 9 4 2.2951 -0.1131
7 9 5 -3.0164 -0.0131
7 9 6 2.4263 0.1051
7 9 7 -0.7605 0.0248
7 9 8 -0.6795 -0.1131
7 9 9 1.1612 0.0323
7 9 10 -1.0198 0.0334
7 9 11 0.6757 -0.0283
7 10 0 -0.1459 0.4186
7 10 1 0.4442 -0.1643
7 10 2 -0.6629 -0.1293
7 10 3 0.7888 0.0473
7 10 4 -1.2749 0.1172
7 10 5 2.0805 -0.0138
7 10 6 -2.2349 -0.1204
7 10 7 1.2824 0.0506
7 10 8 -0.0669 0.0331
7 10 9 -0.6311 -0.0187
7 11 2 0.9659 0.0437
7 11 3 -0.8752 -0.0044
7 11 4 0.6510 -0.1166
7 11 5 -0.8608 0.0220
7 11 6 1.2301 0.1195
7 11 7 -1.0883 -0.0879
8 -2 0 2.0036 -0.2061
8 -2 1 -0.1794 0.0696
8 -2 2 -0.7629 0.0723
8 -1 0 -3.2303 0.2202
8 -1 1 0.7677 -0.0650
8 -1 2 1.4877 -0.0806
8 -1 3 -1.9825 0.0129
8 -1 4 1.3555 0.1140
8 0 0 2.7636 -0.2389
8 0 1 -0.8660 0.0644
8 0 2 -1.7674 0.0718
8 0 3 2.9723 -0.0073
8 0 4 -2.4915 -0.0941
8 0 5 1.5892 0.0575
8 0 6 -1.0027 0.0109
8 1 0 -1.7124 0.3272
8 1 1 0.8299 -0.0806
8 1 2 1.3331 -0.0813
8 1 3 -2.9670 0.0149
8 1 4 3.1213 0.0577
8 1 5 -2.4072 0.0040
8 1 6 1.6792 -0.0516
8 1 7 -1.1633 -0.0116
8 2 0 0.6885 -0.4571
8 2 1 -0.6232 0.0826
8 2 2 -0.7439 0.1403
8 2 3 2.3284 -0.0319
8 2 4 -3.0709 -0.0701
8 2 5 2.7251 -0.0089
8 2 6 -1.7181 0.0622
8 2 7 0.7720 0.0122
8 2 8 -0.2843 -0.0535
8 3 0 1.0516 0.5497
8 3 1 -0.4441 -0.0863
8 3 2 0.6728 -0.1947
8 3 3 -1.3806 0.0403
8 3 4 2.0034 0.1152
8 3 5 -1.9258 -0.0258
8 3 6 0.8788 -0.0493
8 3 7 0.4014 -0.0182
8 3 8 -0.8454 0.0311
8 4 0 -2.8714 -0.5400
8 4 1 2.0198 0.0991
8 4 2 -1.0755 0.1867
8 4 3 0.3873 -0.0246
8 4 4 -0.2224 -0.1329
8 4 5 0.3100 0.0117
8 4 6 0.0965 0.0792
8 4 7 -1.0023 0.0137
8 4 8 1.4222 -0.0295
8 4 9 -0.9537 -0.0966
8 5 0 3.3092 0.4384
8 5 1 -2.8387 -0.0723
8 5 2 1.3584 -0.1696
8 5 3 0.3144 0.0106
8 5 4 -1.3138 0.1290
8 5 5 1.2657 0.0161
8 5 6 -0.7348 -0.1155
8 5 7 0.5598 -0.0058
8 5 8 -0.7436 0.0476
8 5 9 0.7680 0.0924
8 6 0 -2.6995 -0.3342
8 6 1 2.6384 0.0364
8 6 2 -1.1098 0.1671
8 6 3 -0.7481 -0.0215
8 6 4 2.0507 -0.1138
8 6 5 -2.2751 -0.0081
8 6 6 1.3513 0.0938
8 6 7 -0.0925 0.0171
8 6 8 -0.4396 -0.0395
8 6 9 0.0932 -0.1156
8 7 0 1.8583 0.2983
8 7 1 -2.0631 -0.0556
8 7 2 0.6097 -0.1324
8 7 3 1.0104 0.0229
8 7 4 -2.0471 0.0867
8 7 5 2.4696 0.0145
8 7 6 -1.9265 -0.0677
8 7 7 0.4450 -0.0421
8 7 8 0.8329 0.0328
8 7 9 -0.8864 0.1515
8 8 0 -0.4767 -0.3283
8 8 1 1.1732 0.0817
8 8 2 -0.3493 0.1199
8 8 3 -0.7274 -0.0184
8 8 4 1.3594 -0.0919
8 8 5 -1.8243 -0.0145
8 8 6 1.9103 0.0708
8 8 7 -1.0959 0.0568
8 8 8 -0.1391 -0.0759
8 8 9 0.7302 -0.0997
8 9 0 -0.7908 0.3419
8 9 1 -0.0445 -0.0744
8 9 2 0.1714 -0.1690
8 9 3 0.0363 0.0540
8 9 4 -0.2977 0.1342
8 9 5 0.7986 -0.0615
8 9 6 -1.2656 -0.0444
8 9 7 1.1147 -0.0436
9 1 0 -0.1689 -0.2976
9 1 1 -0.3035 0.0960
9 1 2 -0.1158 0.0508
9 2 0 0.6382 0.4267
9 2 1 -0.1564 -0.1346
9 2 2 0.5092 -0.0958
9 2 3 -0.7962 0.0366
9 3 0 -1.3890 -0.4372
9 3 1 1.1808 0.1234
9 3 2 -1.2742 0.1362
9 3 3 1.0149 -0.0510
9 3 4 -0.4157 -0.0797
9 4 0 1.7256 0.3495
9 4 1 -1.9292 -0.0885
9 4 2 1.7042 -0.1281
9 4 3 -0.7209 0.0313
9 4 4 -0.4062 0.0840
9 4 5 0.6451 0.0279
9 5 0 -1.2446 -0.2663
9 5 1 1.9242 0.0600
9 5 2 -1.6186 0.1017
9 5 3 0.3719 -0.0124
9 5 4 0.9414 -0.0591
9 5 5 -1.2362 -0.0897
9 6 0 0.4380 0.2277
9 6 1 -1.4127 -0.0557
9 6 2 1.2458 -0.0827
9 6 3 -0.3191 0.0120
9 6 4 -0.5705 0.0388
9 6 5 0.8561 0.1078
9 7 0 0.0188 -0.1981
9 7 1 0.7590 0.0730
9 7 2 -0.6048 0.0562
9 7 3 0.1353 -0.0066
9 7 4 0.0100 -0.0456
0 0 0 0.0 0.0
;
_shelx_fab_checksum              67237
loop_
_space_group_symop_operation_xyz
'x, y, z'
'-x, -y, -z'
loop_
_atom_site_label
_atom_site_type_symbol
_atom_site_fract_x
_atom_site_fract_y
_atom_site_fract_z
_atom_site_U_iso_or_equiv
_atom_site_adp_type
_atom_site_occupancy
_atom_site_site_symmetry_order
_atom_site_calc_flag
_atom_site_refinement_flags_posn
_atom_site_refinement_flags_adp
_atom_site_refinement_flags_occupancy
_atom_site_disorder_assembly
_atom_site_disorder_group
Cu1 Cu 0.500000 0.500000 0.000000 0.01827(11) Uani 1 2 d S T P . .
S1 S 0.29706(8) 0.37846(6) -0.04130(4) 0.02026(13) Uani 1 1 d . . . . .
S2 S 0.44407(8) 0.35337(6) 0.16265(4) 0.01991(13) Uani 1 1 d . . . . .
O1 O 0.3808(2) -0.04646(18) 0.08507(13) 0.0228(3) Uani 1 1 d . . . . .
N1 N 0.1705(3) 0.22782(18) 0.13827(13) 0.0160(4) Uani 1 1 d . . . . .
C1 C 0.2883(3) 0.3069(2) 0.09281(16) 0.0176(4) Uani 1 1 d . . . . .
C2 C 0.1660(3) 0.1819(2) 0.25012(16) 0.0179(4) Uani 1 1 d . . . . .
C3 C 0.0292(4) 0.2794(3) 0.28999(19) 0.0311(5) Uani 1 1 d . . . . .
H3 H -0.066288 0.373298 0.243946 0.037 Uiso 1 1 calc R . . . .
C4 C 0.0328(4) 0.2388(4) 0.3977(2) 0.0411(7) Uani 1 1 d . . . . .
H4 H -0.061131 0.306070 0.424933 0.049 Uiso 1 1 calc R . . . .
C5 C 0.1702(4) 0.1023(3) 0.46665(19) 0.0347(6) Uani 1 1 d . . . . .
C6 C 0.1748(5) 0.0645(4) 0.5837(2) 0.0528(9) Uani 1 1 d . . . . .
H6A H 0.225111 0.136483 0.602363 0.079 Uiso 1 1 calc GR . . . .
H6B H 0.262664 -0.043201 0.620966 0.079 Uiso 1 1 calc GR . . . .
H6C H 0.039794 0.075680 0.603662 0.079 Uiso 1 1 calc GR . . . .
C7 C 0.3014(4) 0.0044(3) 0.42481(18) 0.0316(6) Uani 1 1 d . . . . .
H7 H 0.393500 -0.091531 0.470771 0.038 Uiso 1 1 calc R . . . .
C8 C 0.3015(4) 0.0435(2) 0.31702(18) 0.0239(5) Uani 1 1 d . . . . .
H8 H 0.393917 -0.024434 0.289654 0.029 Uiso 1 1 calc R . . . .
C9 C 0.0319(3) 0.1923(2) 0.07756(17) 0.0188(4) Uani 1 1 d . . . . .
H9A H 0.061967 0.219485 0.003875 0.023 Uiso 1 1 calc R . . . .
H9B H -0.106643 0.257631 0.077657 0.023 Uiso 1 1 calc R . . . .
C10 C 0.0479(3) 0.0228(2) 0.12213(16) 0.0175(4) Uani 1 1 d . . . . .
C11 C -0.1159(3) -0.0200(3) 0.15833(17) 0.0208(4) Uani 1 1 d . . . . .
H11 H -0.237693 0.058658 0.156416 0.025 Uiso 1 1 calc R . . . .
C12 C -0.1050(4) -0.1757(3) 0.19726(18) 0.0269(5) Uani 1 1 d . . . . .
H12 H -0.218413 -0.203498 0.221460 0.032 Uiso 1 1 calc R . . . .
C13 C 0.0732(4) -0.2899(3) 0.20040(18) 0.0287(5) Uani 1 1 d . . . . .
H13 H 0.082406 -0.396867 0.227737 0.034 Uiso 1 1 calc R . . . .
C14 C 0.2379(4) -0.2497(2) 0.16407(17) 0.0236(5) Uani 1 1 d . . . . .
H14 H 0.360048 -0.328699 0.167032 0.028 Uiso 1 1 calc R . . . .
C15 C 0.2238(3) -0.0936(2) 0.12331(16) 0.0176(4) Uani 1 1 d . . . . .
H1 H 0.462(4) -0.109(3) 0.074(2) 0.046(9) Uiso 1 1 d . . . . .
loop_
_atom_site_aniso_label
_atom_site_aniso_U_11
_atom_site_aniso_U_22
_atom_site_aniso_U_33
_atom_site_aniso_U_23
_atom_site_aniso_U_13
_atom_site_aniso_U_12
Cu1 0.0254(2) 0.01184(17) 0.0178(2) -0.00483(14) 0.00956(15) -0.00730(15)
S1 0.0294(3) 0.0167(2) 0.0153(3) -0.0047(2) 0.0080(2) -0.0099(2)
S2 0.0285(3) 0.0166(2) 0.0179(3) -0.0067(2) 0.0083(2) -0.0116(2)
O1 0.0208(8) 0.0200(8) 0.0286(9) -0.0107(7) 0.0132(7) -0.0066(7)
N1 0.0208(9) 0.0139(8) 0.0128(9) -0.0047(7) 0.0050(7) -0.0052(7)
C1 0.0223(11) 0.0107(9) 0.0185(11) -0.0058(8) 0.0067(9) -0.0032(8)
C2 0.0221(11) 0.0195(10) 0.0153(10) -0.0058(8) 0.0065(8) -0.0121(9)
C3 0.0277(13) 0.0387(14) 0.0250(13) -0.0142(11) 0.0078(10) -0.0061(11)
C4 0.0344(15) 0.0677(19) 0.0306(15) -0.0292(14) 0.0155(12) -0.0168(14)
C5 0.0394(15) 0.0607(17) 0.0189(12) -0.0125(12) 0.0091(11) -0.0388(14)
C6 0.061(2) 0.103(3) 0.0195(14) -0.0215(15) 0.0138(13) -0.062(2)
C7 0.0464(16) 0.0307(12) 0.0197(12) -0.0017(10) -0.0047(11) -0.0237(12)
C8 0.0318(13) 0.0192(10) 0.0222(12) -0.0066(9) -0.0011(10) -0.0113(9)
C9 0.0195(11) 0.0190(10) 0.0174(11) -0.0062(8) 0.0026(8) -0.0062(8)
C10 0.0212(11) 0.0179(10) 0.0151(10) -0.0079(8) 0.0046(8) -0.0069(8)
C11 0.0218(11) 0.0264(11) 0.0196(11) -0.0133(9) 0.0079(9) -0.0096(9)
C12 0.0352(13) 0.0329(12) 0.0278(13) -0.0189(10) 0.0166(11) -0.0232(11)
C13 0.0467(15) 0.0224(11) 0.0263(13) -0.0128(10) 0.0137(11) -0.0196(11)
C14 0.0308(12) 0.0186(10) 0.0231(12) -0.0116(9) 0.0066(10) -0.0061(9)
C15 0.0202(11) 0.0200(10) 0.0148(10) -0.0079(8) 0.0055(8) -0.0078(8)
loop_
_atom_type_symbol
_atom_type_description
_atom_type_scat_dispersion_real
_atom_type_scat_dispersion_imag
_atom_type_scat_source
C C 0.0033 0.0016 'International Tables Vol C Tables 4.2.6.8 and 6.1.1.4'
H H 0.0000 0.0000 'International Tables Vol C Tables 4.2.6.8 and 6.1.1.4'
Cu Cu 0.3201 1.2651 'International Tables Vol C Tables 4.2.6.8 and 6.1.1.4'
N N 0.0061 0.0033 'International Tables Vol C Tables 4.2.6.8 and 6.1.1.4'
O O 0.0106 0.0060 'International Tables Vol C Tables 4.2.6.8 and 6.1.1.4'
S S 0.1246 0.1234 'International Tables Vol C Tables 4.2.6.8 and 6.1.1.4'
loop_
_geom_angle_atom_site_label_1
_geom_angle_atom_site_label_2
_geom_angle_atom_site_label_3
_geom_angle
_geom_angle_site_symmetry_1
_geom_angle_site_symmetry_3
S1 Cu1 S1 180.0 2_665 .
S2 Cu1 S1 102.196(19) 2_665 .
S2 Cu1 S1 102.197(19) . 2_665
S2 Cu1 S1 77.803(19) 2_665 2_665
S2 Cu1 S1 77.803(19) . .
S2 Cu1 S2 180.0 . 2_665
C1 S1 Cu1 83.78(7) . .
C1 S2 Cu1 84.33(7) . .
C15 O1 H1 113(2) . .
C1 N1 C2 119.31(17) . .
C1 N1 C9 122.32(17) . .
C2 N1 C9 118.26(16) . .
S2 C1 S1 113.65(12) . .
N1 C1 S1 123.86(16) . .
N1 C1 S2 122.46(16) . .
C3 C2 N1 119.64(19) . .
C8 C2 N1 120.04(19) . .
C8 C2 C3 120.3(2) . .
C2 C3 H3 120.3 . .
C2 C3 C4 119.4(2) . .
C4 C3 H3 120.3 . .
C3 C4 H4 119.3 . .
C3 C4 C5 121.5(2) . .
C5 C4 H4 119.3 . .
C4 C5 C6 120.1(3) . .
C7 C5 C4 118.0(2) . .
C7 C5 C6 121.9(3) . .
C5 C6 H6A 109.5 . .
C5 C6 H6B 109.5 . .
C5 C6 H6C 109.5 . .
H6A C6 H6B 109.5 . .
H6A C6 H6C 109.5 . .
H6B C6 H6C 109.5 . .
C5 C7 H7 119.3 . .
C5 C7 C8 121.5(2) . .
C8 C7 H7 119.3 . .
C2 C8 C7 119.3(2) . .
C2 C8 H8 120.3 . .
C7 C8 H8 120.3 . .
N1 C9 H9A 109.2 . .
N1 C9 H9B 109.2 . .
N1 C9 C10 112.07(16) . .
H9A C9 H9B 107.9 . .
C10 C9 H9A 109.2 . .
C10 C9 H9B 109.2 . .
C11 C10 C9 120.45(19) . .
C11 C10 C15 118.64(19) . .
C15 C10 C9 120.83(18) . .
C10 C11 H11 119.4 . .
C10 C11 C12 121.2(2) . .
C12 C11 H11 119.4 . .
C11 C12 H12 120.4 . .
C13 C12 C11 119.2(2) . .
C13 C12 H12 120.4 . .
C12 C13 H13 119.7 . .
C14 C13 C12 120.6(2) . .
C14 C13 H13 119.7 . .
C13 C14 H14 120.2 . .
C13 C14 C15 119.7(2) . .
C15 C14 H14 120.2 . .
O1 C15 C10 116.91(18) . .
O1 C15 C14 122.35(19) . .
C14 C15 C10 120.72(19) . .
loop_
_geom_bond_atom_site_label_1
_geom_bond_atom_site_label_2
_geom_bond_distance
_geom_bond_site_symmetry_2
Cu1 S1 2.3076(5) 2_665
Cu1 S1 2.3076(5) .
Cu1 S2 2.2948(5) .
Cu1 S2 2.2948(5) 2_665
S1 C1 1.730(2) .
S2 C1 1.723(2) .
O1 C15 1.369(2) .
O1 H1 0.75(3) .
N1 C1 1.318(3) .
N1 C2 1.441(3) .
N1 C9 1.484(3) .
C2 C3 1.383(3) .
C2 C8 1.381(3) .
C3 H3 0.9500 .
C3 C4 1.386(3) .
C4 H4 0.9500 .
C4 C5 1.386(4) .
C5 C6 1.513(3) .
C5 C7 1.384(4) .
C6 H6A 0.9800 .
C6 H6B 0.9800 .
C6 H6C 0.9800 .
C7 H7 0.9500 .
C7 C8 1.390(3) .
C8 H8 0.9500 .
C9 H9A 0.9900 .
C9 H9B 0.9900 .
C9 C10 1.503(3) .
C10 C11 1.388(3) .
C10 C15 1.392(3) .
C11 H11 0.9500 .
C11 C12 1.388(3) .
C12 H12 0.9500 .
C12 C13 1.386(3) .
C13 H13 0.9500 .
C13 C14 1.383(3) .
C14 H14 0.9500 .
C14 C15 1.386(3) .
loop_
_geom_hbond_atom_site_label_D
_geom_hbond_atom_site_label_H
_geom_hbond_atom_site_label_A
_geom_hbond_distance_DH
_geom_hbond_distance_HA
_geom_hbond_distance_DA
_geom_hbond_angle_DHA
_geom_hbond_site_symmetry_A
C3 H3 S1 0.95 3.01 3.917(3) 159.1 2_565
C9 H9A S1 0.99 2.55 3.081(2) 113.8 .
C14 H14 S1 0.95 2.99 3.758(2) 139.1 2_655
C14 H14 S2 0.95 2.97 3.665(2) 131.3 1_545
O1 H1 S1 0.75(3) 2.82(3) 3.5560(17) 167(3) 2_655
loop_
_geom_torsion_atom_site_label_1
_geom_torsion_atom_site_label_2
_geom_torsion_atom_site_label_3
_geom_torsion_atom_site_label_4
_geom_torsion
_geom_torsion_site_symmetry_1
_geom_torsion_site_symmetry_2
_geom_torsion_site_symmetry_3
_geom_torsion_site_symmetry_4
Cu1 S1 C1 S2 -5.92(9) . . . .
Cu1 S1 C1 N1 172.27(17) . . . .
Cu1 S2 C1 S1 5.95(9) . . . .
Cu1 S2 C1 N1 -172.27(17) . . . .
N1 C2 C3 C4 -176.5(2) . . . .
N1 C2 C8 C7 176.97(19) . . . .
N1 C9 C10 C11 119.2(2) . . . .
N1 C9 C10 C15 -63.9(2) . . . .
C1 N1 C2 C3 91.2(2) . . . .
C1 N1 C2 C8 -86.9(2) . . . .
C1 N1 C9 C10 131.20(19) . . . .
C2 N1 C1 S1 -176.14(14) . . . .
C2 N1 C1 S2 1.9(3) . . . .
C2 N1 C9 C10 -52.6(2) . . . .
C2 C3 C4 C5 -0.2(4) . . . .
C3 C2 C8 C7 -1.2(3) . . . .
C3 C4 C5 C6 177.7(2) . . . .
C3 C4 C5 C7 -1.8(4) . . . .
C4 C5 C7 C8 2.3(3) . . . .
C5 C7 C8 C2 -0.9(3) . . . .
C6 C5 C7 C8 -177.2(2) . . . .
C8 C2 C3 C4 1.7(3) . . . .
C9 N1 C1 S1 0.0(3) . . . .
C9 N1 C1 S2 178.04(14) . . . .
C9 N1 C2 C3 -85.1(2) . . . .
C9 N1 C2 C8 96.8(2) . . . .
C9 C10 C11 C12 178.35(19) . . . .
C9 C10 C15 O1 1.8(3) . . . .
C9 C10 C15 C14 -179.73(19) . . . .
C10 C11 C12 C13 0.3(3) . . . .
C11 C10 C15 O1 178.74(18) . . . .
C11 C10 C15 C14 -2.8(3) . . . .
C11 C12 C13 C14 -0.8(3) . . . .
C12 C13 C14 C15 -0.6(3) . . . .
C13 C14 C15 O1 -179.2(2) . . . .
C13 C14 C15 C10 2.4(3) . . . .
C15 C10 C11 C12 1.4(3) . . . .
loop_
_smtbx_masks_void_nr
_smtbx_masks_void_average_x
_smtbx_masks_void_average_y
_smtbx_masks_void_average_z
_smtbx_masks_void_volume
_smtbx_masks_void_count_electrons
_smtbx_masks_void_content
1 -0.574 0.500 0.500 182.9 56.3 0.666CH2Cl2
