#------------------------------------------------------------------------------
#$Date: 2022-03-06 06:37:54 +0200 (Sun, 06 Mar 2022) $
#$Revision: 273468 $
#$URL: file:///home/coder/svn-repositories/cod/cif/1/56/59/1565958.cif $
#------------------------------------------------------------------------------
#
# This file is available in the Crystallography Open Database (COD),
# http://www.crystallography.net/
#
# All data on this site have been placed in the public domain by the
# contributors.
#
data_1565958
loop_
_publ_author_name
'Wildner, Manfred'
'Zakharov, Boris A.'
'Bogdanov, Nikita E.'
'Talla, Dominik'
'Boldyreva, Elena V.'
'Miletich, Ronald'
_publ_section_title
;
 Crystallography relevant to Mars and Galilean icy moons: crystal behavior
 of kieserite-type monohydrate sulfates at extraterrestrial conditions
 down to 15 K
;
_journal_issue                   2
_journal_name_full               IUCrJ
_journal_page_first              194
_journal_page_last               203
_journal_paper_doi               10.1107/S2052252521012720
_journal_volume                  9
_journal_year                    2022
_chemical_formula_sum            'Co H2 O5 S'
_chemical_formula_weight         173.01
_space_group_crystal_system      monoclinic
_space_group_IT_number           15
_space_group_name_Hall           '-C 2yc'
_space_group_name_H-M_alt        'C 1 2/c 1'
_atom_sites_solution_hydrogens   difmap
_audit_creation_method           SHELXL-2017/1
_cell_angle_alpha                90
_cell_angle_beta                 118.616(10)
_cell_angle_gamma                90
_cell_formula_units_Z            4
_cell_length_a                   6.9765(10)
_cell_length_b                   7.5904(10)
_cell_length_c                   7.6373(10)
_cell_measurement_temperature    313(2)
_cell_volume                     355.03(9)
_computing_structure_refinement  'SHELXL-2017/1 (Sheldrick, 2017)'
_diffrn_ambient_temperature      313(2)
_diffrn_measured_fraction_theta_full 0.997
_diffrn_measured_fraction_theta_max 0.999
_diffrn_radiation_type           MoK\a
_diffrn_radiation_wavelength     0.71073
_diffrn_reflns_av_R_equivalents  0.0197
_diffrn_reflns_av_unetI/netI     0.0086
_diffrn_reflns_Laue_measured_fraction_full 0.997
_diffrn_reflns_Laue_measured_fraction_max 0.999
_diffrn_reflns_limit_h_max       12
_diffrn_reflns_limit_h_min       -12
_diffrn_reflns_limit_k_max       13
_diffrn_reflns_limit_k_min       -13
_diffrn_reflns_limit_l_max       13
_diffrn_reflns_limit_l_min       -13
_diffrn_reflns_number            11538
_diffrn_reflns_point_group_measured_fraction_full 0.997
_diffrn_reflns_point_group_measured_fraction_max 0.999
_diffrn_reflns_theta_full        25.242
_diffrn_reflns_theta_max         39.980
_diffrn_reflns_theta_min         4.223
_exptl_absorpt_coefficient_mu    5.302
_exptl_absorpt_correction_T_max  0.7479
_exptl_absorpt_correction_T_min  0.5831
_exptl_absorpt_correction_type   multi-scan
_exptl_absorpt_process_details
;
 SADABS 2016/2: Krause, L., Herbst-Irmer, R., Sheldrick G.M. & Stalke D.,
 J. Appl. Cryst. 48 (2015) 3-10
;
_exptl_crystal_density_diffrn    3.237
_exptl_crystal_F_000             340
_refine_diff_density_max         0.435
_refine_diff_density_min         -0.407
_refine_diff_density_rms         0.073
_refine_ls_extinction_coef       0.0239(11)
_refine_ls_extinction_expression Fc^*^=kFc[1+0.001xFc^2^\l^3^/sin(2\q)]^-1/4^
_refine_ls_extinction_method     'SHELXL-2017/1 (Sheldrick 2017)'
_refine_ls_goodness_of_fit_ref   1.207
_refine_ls_hydrogen_treatment    refall
_refine_ls_matrix_type           full
_refine_ls_number_parameters     40
_refine_ls_number_reflns         1105
_refine_ls_number_restraints     0
_refine_ls_restrained_S_all      1.207
_refine_ls_R_factor_all          0.0124
_refine_ls_R_factor_gt           0.0122
_refine_ls_shift/su_max          0.000
_refine_ls_shift/su_mean         0.000
_refine_ls_structure_factor_coef Fsqd
_refine_ls_weighting_details
'w=1/[\s^2^(Fo^2^)+(0.0140P)^2^+0.2000P] where P=(Fo^2^+2Fc^2^)/3'
_refine_ls_weighting_scheme      calc
_refine_ls_wR_factor_gt          0.0330
_refine_ls_wR_factor_ref         0.0330
_reflns_Friedel_coverage         0.000
_reflns_number_gt                1094
_reflns_number_total             1105
_reflns_threshold_expression     'I > 2\s(I)'
_cod_data_source_file            lt5044.cif
_cod_data_source_block           CoSO4H2O_N2_313K
_cod_depositor_comments
'Adding full bibliography for 1565934--1565967.cif.'
_cod_original_sg_symbol_H-M      'C 2/c'
_cod_database_code               1565958
_shelx_shelxl_version_number     2017/1
_shelx_space_group_comment
;
The symmetry employed for this shelxl refinement is uniquely defined
by the following loop, which should always be used as a source of
symmetry information in preference to the above space-group names.
They are only intended as comments.
;
_shelx_res_file
;
TITL 217a03x (nach Umkleben) 313K Apex in C2/c kieserite cell
    latt_corr_for_Nonius20C_217a03x_313_0m.res
    created by SHELXL-2017/1 at 21:37:27 on 10-Feb-2021
REM meas. mon  6.9628(1) 7.5780(1) 7.4678(1)   90  116.3586(4)   90
REM trans. cryscomp  6.9628 7.5780 7.6208    90 118.593 90
REM meas.trcl  6.9627(1) 7.5779(1) 7.4677(1) 90.0019(5) 116.3585(4) 89.9936(5)
REM CELL 0.71073   6.9628 7.5780 7.6208    90 118.593 90
REM latt corr for Nonius20C +0.0137 +0.0124 +0.0165    +0.0226
CELL 0.71073  6.9765 7.5904 7.6373 90 118.6156 90
ZERR    4.00   0.001   0.001   0.001   0.00   0.01   0.00
LATT  7
SYMM -X, Y, .5-Z
SFAC O H S CO
UNIT 20 8 4 4
SHEL 20 0.55285
OMIT -2 2 2
REM DAMP 10000
L.S. 10
CONN 12 1.8 $O
EQIV $9 -x+1/2, y+1/2, -z+1/2
BOND $H
FMAP 2
PLAN 20
ACTA
HTAB O3 O2_$9
HTAB
WGHT    0.014000    0.200000
EXTI    0.023929
FVAR       0.73243
CO    4    0.000000    0.500000    0.000000    10.50000    0.00722    0.00778 =
         0.00821    0.00052    0.00373   -0.00010
S     3    0.000000    0.153488    0.250000    10.50000    0.00542    0.00632 =
         0.00835    0.00000    0.00315    0.00000
O1    1    0.172675    0.042429    0.399813    11.00000    0.00875    0.01596 =
         0.01663    0.00796    0.00506    0.00400
O2    1    0.096400    0.266365    0.153697    11.00000    0.01246    0.01089 =
         0.01701    0.00524    0.00970    0.00190
O3    1    0.000000    0.638713    0.250000    10.50000    0.01116    0.01169 =
         0.01080    0.00000    0.00584    0.00000
H     2    0.101412    0.704344    0.295428    11.00000    0.03123
HKLF 4 1  1 0 0 0 -1 0 -1 0 -1




REM  217a03x (nach Umkleben) 313K Apex in C2/c kieserite cell
REM R1 =  0.0122 for    1094 Fo > 4sig(Fo)  and  0.0124 for all    1105 data
REM     40 parameters refined using      0 restraints

END

WGHT      0.0144      0.2050

REM Instructions for potential hydrogen bonds
EQIV $19 x+1/2, y+1/2, z
HTAB O3 S_$19
HTAB O3 O2_$9

REM Highest difference peak  0.435,  deepest hole -0.407,  1-sigma level  0.073
Q1    1   0.0419  0.2211  0.1950  11.00000  0.05    0.44
Q2    1   0.0635  0.5514  0.0560  11.00000  0.05    0.39
Q3    1  -0.0685  0.5574 -0.0028  11.00000  0.05    0.37
Q4    1   0.1000  0.0988  0.3374  11.00000  0.05    0.34
Q5    1   0.0163  0.5310 -0.0628  11.00000  0.05    0.25
Q6    1   0.0041  0.5834  0.3075  11.00000  0.05    0.23
Q7    1   0.0065  0.2978  0.0934  11.00000  0.05    0.21
Q8    1   0.2220  0.0162  0.3635  11.00000  0.05    0.20
Q9    1   0.0758  0.3636  0.1767  11.00000  0.05    0.20
Q10   1   0.2500  0.7500  0.5000  10.50000  0.05    0.19
Q11   1   0.0185  0.3826  0.0795  11.00000  0.05    0.17
Q12   1   0.2417  0.0863  0.4111  11.00000  0.05    0.16
Q13   1  -0.0591  0.5519  0.0904  11.00000  0.05    0.16
Q14   1   0.0000 -0.0835  0.2500  10.50000  0.05    0.15
Q15   1   0.1550  0.1146  0.4794  11.00000  0.05    0.15
Q16   1   0.0967  0.8974  0.1441  11.00000  0.05    0.15
Q17   1   0.2181  0.1573  0.4453  11.00000  0.05    0.14
Q18   1   0.0141  0.8328  0.2028  11.00000  0.05    0.13
Q19   1   0.1963 -0.0702  0.3795  11.00000  0.05    0.13
Q20   1   0.0000  0.8001  0.2500  10.50000  0.05    0.12
;
_shelx_res_checksum              34804
_shelx_hkl_file
;
   2   0   0 18.1256 0.90009   1
   2   0   0 16.1341 0.64082   6
   2   0   0 16.9526 0.98100  13
  -2   0   0 16.5155 0.93884   8
  -2   0   0 16.7335 1.12314   3
  -2   0   0 23.1997 1.17732   5
  -2   0   0 21.6514 1.00667   2
  -4   0   0 8639.64 154.771   2
  -4   0   0 9085.73 161.910   5
  -4   0   0 8825.23 158.558   8
   4   0   0 8282.13 158.658   1
  -4   0   0 8636.72 160.694   3
   4   0   0 8564.23 153.445   6
   4   0   0 8929.35 162.069  13
   6   0   0 34.3326 2.06534   6
   6   0   0 33.6828 2.62636  13
  -6   0   0 37.7574 2.45006   8
   6   0   0 36.5824 2.41469   1
  -6   0   0 32.1523 3.08481   3
  -6   0   0 33.6592 2.73225   5
  -6   0   0 30.7696 2.01832   2
   6   0   0 33.9552 2.93008  11
   8   0   0 1307.56 28.6676  11
  -8   0   0 1317.47 28.2751   5
  -8   0   0 1336.19 27.2832   8
   8   0   0 1310.97 26.9822   1
   8   0   0 1314.20 26.2478   6
 -10   0   0 6.30253 2.62985   5
  10   0   0 10.4089 2.19581   6
  10   0   0 11.5484 3.54822  11
 -10   0   0 9.14540 2.12243   8
  10   0   0 10.2037 2.22497   1
  -1  -1   0 1478.99 27.8938  13
  -3  -1   0 39.0566 1.80170   5
   3  -1   0 32.6349 1.36517   1
   3  -1   0 34.3212 1.97299  13
   3  -1   0 35.0185 0.85615   6
  -3  -1   0 32.4516 1.61632   8
   3  -1   0 41.1261 0.87197   6
   3   1   0 35.1952 1.81790  11
  -3   1   0 33.4673 1.40404   2
  -3   1   0 34.0309 1.56773   8
   3   1   0 32.8511 1.42034  13
   3   1   0 32.3053 1.67925   1
  -3   1   0 30.1789 1.75898   3
  -3   1   0 36.1737 1.88631   5
   5  -1   0 860.943 16.0047   6
  -5  -1   0 864.296 17.4997   8
   5  -1   0 885.758 16.8962   1
  -5  -1   0 863.659 17.0317   2
   5  -1   0 866.277 18.5082  13
  -5  -1   0 867.359 17.7572   5
   5   1   0 846.633 16.8298   6
  -5   1   0 865.731 18.1325   5
   5   1   0 874.355 17.7322   1
  -5   1   0 868.237 17.2075   8
  -5   1   0 870.326 18.4271   3
  -5   1   0 845.082 16.5799   2
   5   1   0 853.914 18.1955  11
  -7  -1   0 41.5451 3.33012   5
   7  -1   0 35.4517 2.25091   6
   7  -1   0 34.5336 2.48946   1
  -7  -1   0 36.0734 2.58535   2
   7  -1   0 40.3058 3.53560  11
  -7  -1   0 33.8516 2.94019   8
  -7   1   0 36.9579 3.52462   3
  -7   1   0 32.6657 2.70671   8
   7   1   0 33.6437 2.83757   1
  -7   1   0 35.9014 3.29796   5
   7   1   0 35.7575 3.71259  11
   7   1   0 35.0440 2.60667   6
  -9  -1   0 56.7941 4.65492   5
   9  -1   0 51.8244 5.00020  11
   9  -1   0 47.8797 3.44789   1
   9  -1   0 50.4733 3.41713   6
  -9  -1   0 47.9869 4.14944   8
  -9   1   0 53.7029 4.87469   5
   9   1   0 57.4153 5.34155  11
   9   1   0 51.2769 4.05652   1
  -9   1   0 50.0389 3.93650   8
   9   1   0 56.7876 3.99244   6
 -11  -1   0 78.5394 5.38780   8
 -11  -1   0 77.3761 6.02568   5
  11  -1   0 74.3922 6.84869  11
 -11   1   0 74.0587 6.32351   5
 -11   1   0 84.7065 5.50857   8
  11   1   0 79.6010 6.51641  11
   0  -2   0 1719.61 33.3949   1
   0  -2   0 1819.47 33.3227   6
   0   2   0 1796.82 33.6032  10
   0   2   0 1819.14 32.9696   7
   0   2   0 1832.54 32.2287  11
   0   2   0 1815.83 33.4657   4
  -2  -2   0 603.832 12.0481   1
  -2  -2   0 629.572 11.3095  13
  -2  -2   0 601.239 11.7155   8
   2  -2   0 603.801 12.9906  13
   2  -2   0 621.946 11.2635   1
  -2   2   0 630.176 12.0595   3
  -2   2   0 602.339 12.1212   4
   2   2   0 634.381 12.3493   1
   2   2   0 616.733 12.0605  11
  -2   2   0 620.156 12.7811   7
  -2   2   0 626.932 12.0438   5
  -2   2   0 611.828 11.5052  14
   2   2   0 615.287 11.7402   6
   4  -2   0 2066.20 37.4732   6
  -4  -2   0 2113.08 37.6602   2
  -4  -2   0 2037.83 37.4782   1
   4  -2   0 2073.42 36.7549   1
  -4  -2   0 2085.01 37.7876   8
  -4  -2   0 2107.27 37.6082   5
   4  -2   0 2060.31 36.5827   6
   4  -2   0 2129.14 39.5568  13
  -4   2   0 2091.61 37.2330   8
  -4   2   0 2104.86 36.6457  14
  -4   2   0 2153.79 36.8662   2
  -4   2   0 2100.95 38.4594   3
   4   2   0 2068.92 38.3665  11
   4   2   0 2159.70 37.6116   6
  -4   2   0 2082.81 38.3183   5
   4   2   0 2091.03 38.4105   1
  -6  -2   0 1520.70 29.6278   8
  -6  -2   0 1513.88 29.6567   5
   6  -2   0 1524.40 27.5369   6
   6  -2   0 1497.14 31.2689  13
   6  -2   0 1536.68 28.3523   1
  -6  -2   0 1559.82 29.2385   2
   6   2   0 1481.93 30.0585   1
   6   2   0 1517.15 29.2195   6
  -6   2   0 1583.42 30.8134   3
  -6   2   0 1571.58 30.5078   5
  -6   2   0 1483.32 28.8340   8
   6   2   0 1521.01 30.7823  11
   8  -2   0 710.946 17.7523  11
   8  -2   0 706.743 15.6083   1
  -8  -2   0 716.128 17.0388   8
  -8  -2   0 712.092 16.2085   2
   8  -2   0 704.910 15.1059   6
  -8  -2   0 689.762 17.0616   5
  -8   2   0 709.647 18.0076   5
  -8   2   0 708.142 16.3215   8
   8   2   0 695.161 18.5163  11
   8   2   0 701.684 16.6443   6
   8   2   0 697.433 17.4479   1
  -8   2   0 732.044 18.4214   3
 -10  -2   0 616.265 16.8370   8
  10  -2   0 626.216 15.0445   6
  10  -2   0 638.314 18.2236  11
  10   2   0 615.328 18.8216  11
  10   2   0 611.005 16.3744   6
  10   2   0 604.510 16.9403   1
 -10   2   0 643.913 18.1744   5
   1  -3   0 157.881 4.00555  10
  -1  -3   0 155.295 4.31296   1
  -1  -3   0 148.894 3.76180   6
  -1  -3   0 156.745 3.62597   8
   1  -3   0 155.462 3.90272   1
   1  -3   0 156.910 3.41607   6
   1   3   0 154.111 3.84943   4
   1   3   0 155.629 4.12657  11
  -1   3   0 158.548 3.73594   5
  -1   3   0 153.558 4.60579   7
  -1   3   0 152.970 4.00771   3
   1   3   0 151.066 3.39607   9
  -1   3   0 156.744 3.47634   9
  -1   3   0 158.159 4.39314   4
   1   3   0 159.348 4.30665   1
   3  -3   0 1148.81 20.6019   1
   3  -3   0 1154.57 23.4110  13
  -3  -3   0 1145.66 21.3741   8
   3  -3   0 1120.71 19.8924   6
  -3  -3   0 1103.63 20.5608   5
  -3  -3   0 1135.45 21.8384   1
   3  -3   0 1118.90 20.0631   6
   3   3   0 1131.75 21.8915  11
   3   3   0 1197.18 21.5309   6
   3   3   0 1141.20 21.0565   7
  -3   3   0 1149.39 20.4945   8
   3   3   0 1121.08 22.1714   1
  -3   3   0 1111.17 21.6685   5
  -3   3   0 1180.47 20.5230   2
  -3   3   0 1110.74 22.9507   7
  -3   3   0 1164.64 21.9045   3
   5  -3   0 13.6861 2.36583  13
  -5  -3   0 12.0160 1.48554   1
   5  -3   0 14.2540 1.22479   1
  -5  -3   0 17.4861 1.64860   5
   5  -3   0 14.2573 0.95089   6
   5  -3   0 14.3841 0.97953   6
  -5  -3   0 13.2207 1.66699   8
  -5  -3   0 16.9721 1.91623   2
  -5  -3   0 14.1849 1.10527  14
   5   3   0 15.8014 2.28816  11
   5   3   0 17.9617 1.94801   6
   5   3   0 14.9654 2.08156   1
  -5   3   0 16.2031 2.12796   3
  -5   3   0 15.9041 1.27257   2
  -5   3   0 15.0931 2.08711   5
  -5   3   0 14.5293 1.29636   8
   7  -3   0 112.156 4.13460   1
  -7  -3   0 104.470 4.94047   8
  -7  -3   0 107.763 4.88340   5
   7  -3   0 102.783 5.95457  13
  -7  -3   0 114.194 4.82076   2
   7  -3   0 111.980 3.79069   6
  -7   3   0 108.696 5.75226   3
   7   3   0 115.137 5.18386   6
  -7   3   0 109.581 5.60723   5
   7   3   0 110.772 6.13575  11
   7   3   0 118.001 5.57154   1
  -7   3   0 105.761 4.43580   8
  -9  -3   0 10.6033 2.68651   8
  -9  -3   0 7.04842 1.94231   2
   9  -3   0 6.73131 2.72526  11
   9  -3   0 7.75279 1.50552   6
   9   3   0 10.0516 2.31327   6
   9   3   0 4.44473 2.11749   1
   9   3   0 6.55273 2.55657  11
  -9   3   0 7.43661 2.77413   5
  -9   3   0 6.67001 2.20921   3
  11  -3   0 1.69948 1.40759   6
 -11  -3   0 4.09707 2.44691   8
  11  -3   0 5.37820 2.53719  11
  11   3   0 2.59954 1.98886   1
  11   3   0 3.56292 2.11996   6
 -11   3   0 4.85543 2.93423   5
  11   3   0 1.79559 2.34985  11
   0  -4   0 3090.03 55.8861   6
   0  -4   0 2861.92 58.0091   1
   0   4   0 3152.73 52.2292   9
   0   4   0 3024.24 53.0154   1
   0   4   0 3034.67 53.4100   4
   0   4   0 2990.65 56.5942   7
   0   4   0 3022.76 54.6916  10
   0   4   0 3101.84 53.1423  11
  -2  -4   0 6138.25 110.614   6
  -2  -4   0 6225.38 116.172   1
   2  -4   0 6064.63 113.666   1
  -2  -4   0 6131.56 111.538   8
   2  -4   0 6021.43 108.223   6
   2  -4   0 6126.20 120.977  10
   2   4   0 6101.21 116.350   1
   2   4   0 6196.86 114.689   7
   2   4   0 6364.66 111.031  11
  -2   4   0 5966.46 106.915   3
  -2   4   0 5991.20 111.707   5
  -2   4   0 6022.26 117.135   4
   2   4   0 5997.97 106.242   6
  -2   4   0 6228.35 120.950   7
   4  -4   0 494.904 9.65886   6
  -4  -4   0 504.259 11.8718   1
  -4  -4   0 501.212 10.4400   5
   4  -4   0 505.841 9.67299   6
   4  -4   0 524.503 10.5808   1
   4  -4   0 522.099 13.8776  13
  -4  -4   0 505.630 11.4564   8
  -4   4   0 490.839 13.1734   7
   4   4   0 520.469 12.3451  11
   4   4   0 514.610 11.0793   7
   4   4   0 531.128 12.7769   1
  -4   4   0 526.611 12.1042   3
   4   4   0 523.347 11.6931   6
  -4   4   0 513.723 11.9577   5
  -4   4   0 509.779 10.2679   8
  -6  -4   0 1499.99 29.8545   8
   6  -4   0 1472.47 27.0647   6
  -6  -4   0 1541.36 29.7495   2
   6  -4   0 1499.76 27.9116   1
   6  -4   0 1482.61 32.7222  13
  -6   4   0 1503.92 30.5297   5
   6   4   0 1518.18 31.3173  11
   6   4   0 1515.23 31.2685   1
  -6   4   0 1543.98 30.7674   3
  -6   4   0 1487.30 28.2765   8
   6   4   0 1514.68 30.0356   6
  -8  -4   0 9.20755 2.38993   8
  -8  -4   0 9.09321 2.02174   2
   8   4   0 10.2940 3.26117  11
  -8   4   0 8.20189 2.55025   3
  -8   4   0 8.48010 2.52399   5
   8   4   0 8.20092 2.37653   1
   8   4   0 6.35671 1.74967   6
 -10  -4   0 424.904 13.3997   8
  10  -4   0 400.401 13.7973  11
  10   4   0 414.452 15.0572  11
 -10   4   0 407.042 14.2098   3
  10   4   0 414.777 13.3397   6
 -10   4   0 433.318 14.6712   5
  10   4   0 405.686 13.8483   1
   1  -5   0 79.4184 3.24586   1
   1  -5   0 81.2979 2.79030   6
  -1  -5   0 79.7341 2.91631   6
  -1  -5   0 80.1151 2.54272   8
   1  -5   0 72.9259 1.89501  10
  -1  -5   0 84.6782 3.61030   1
  -1   5   0 76.8125 2.33494   9
   1   5   0 79.1272 3.31543  11
   1   5   0 84.0116 2.78085  10
   1   5   0 76.8563 2.30606   9
  -1   5   0 76.6538 2.57689   5
  -1   5   0 73.7453 2.74383   1
   1   5   0 81.3851 3.38070   1
  -1   5   0 75.2497 3.53613   4
   1   5   0 75.9470 3.37204   7
  -1   5   0 80.8039 3.78334   7
  -1   5   0 78.6075 3.12526   3
  -3  -5   0 169.773 5.02599   8
   3  -5   0 167.564 4.20309   6
  -3  -5   0 163.535 5.72402   1
  -3  -5   0 155.176 4.69835   6
   3  -5   0 161.835 6.79487  13
   3   5   0 160.589 5.16783   6
   3   5   0 169.879 5.76729  11
   3   5   0 157.372 4.92219   7
  -3   5   0 166.406 6.57358   7
  -3   5   0 158.332 5.25626   3
  -3   5   0 160.072 5.13785   5
   3   5   0 170.429 6.07090   1
  -5  -5   0 10.0531 1.79051   1
   5  -5   0 7.77103 1.13211   1
   5  -5   0 10.4268 2.56321  13
   5  -5   0 8.88860 0.98470   6
  -5  -5   0 10.0671 1.66856   8
  -5   5   0 7.84820 1.95691   7
   5   5   0 20.8476 2.73131   1
   5   5   0 9.49411 1.98148  11
  -5   5   0 10.3817 1.98803   3
   5   5   0 8.74475 1.74205   6
  -5   5   0 8.43266 1.78384   5
  -7  -5   0 115.667 5.52857   8
  -7  -5   0 115.059 5.38778   2
   7  -5   0 118.602 3.98957   6
   7  -5   0 108.167 6.91343  13
   7   5   0 110.084 6.67016  11
  -7   5   0 115.025 6.16827   3
   7   5   0 114.456 5.80655   6
   7   5   0 118.681 6.59393   1
  -7   5   0 116.904 6.13693   5
  -9  -5   0 51.1599 4.39583   8
   9  -5   0 49.8648 2.99628   6
  -9  -5   0 48.9247 4.36006   2
   9   5   0 46.3329 4.38375   6
   9   5   0 46.7681 4.99983   1
  -9   5   0 49.0899 5.23527   5
  -9   5   0 54.3193 5.16335   3
   9   5   0 50.2685 5.57890  11
   0  -6   0 2347.23 43.6090   1
   0  -6   0 2337.76 42.4070   6
   0   6   0 2365.76 44.4015   7
   0   6   0 2348.46 40.9692   9
   0   6   0 2416.99 43.3283  11
   0   6   0 2392.57 43.1921   3
   0   6   0 2369.89 42.9455   1
  -2  -6   0 65.7709 2.74495   8
  -2  -6   0 66.1316 3.70737   1
   2  -6   0 63.5556 2.69001   6
   2  -6   0 68.0620 4.52326  13
  -2  -6   0 60.9597 2.89835   6
  -2   6   0 67.2911 2.93987   5
   2   6   0 80.2572 3.66601   7
   2   6   0 64.2291 3.29474  10
  -2   6   0 66.9638 4.05322   7
   2   6   0 64.5981 3.49978   1
  -2   6   0 61.0387 3.22456   3
   2   6   0 61.7495 2.31970   9
   2   6   0 73.9606 3.57669  11
  -4  -6   0 2179.17 40.7310   8
  -4  -6   0 2225.41 42.2247   1
   4  -6   0 2182.86 39.9585   1
   4  -6   0 2166.31 39.1752   6
   4  -6   0 2192.89 45.1104  13
  -4   6   0 2177.51 41.1392   5
  -4   6   0 2200.18 41.6081   3
   4   6   0 2247.06 43.2155   1
   4   6   0 2187.41 42.0947  11
  -4   6   0 2234.46 44.2854   7
   6  -6   0 166.063 8.60555  13
  -6  -6   0 168.835 7.01665   1
   6  -6   0 158.999 5.29694   1
   6  -6   0 171.694 5.04377   6
  -6  -6   0 181.034 6.87572   8
  -6  -6   0 165.603 6.80130   2
   6   6   0 161.853 7.66571   1
  -6   6   0 178.431 7.25798   3
   6   6   0 172.153 7.81661  11
   6   6   0 175.131 7.02552   6
  -6   6   0 166.428 7.00374   5
  -8  -6   0 1176.36 25.8754   2
   8  -6   0 1077.54 29.1054  13
   8  -6   0 1149.89 22.6050   6
  -8  -6   0 1148.69 25.9606   8
   8   6   0 1180.59 28.3361   1
   8   6   0 1137.47 28.3220  11
   8   6   0 1129.90 26.3209   6
  -8   6   0 1152.69 26.8851   5
  -8   6   0 1167.02 26.7782   3
  10  -6   0 99.0956 4.54590   6
 -10  -6   0 89.7543 5.84712   2
 -10  -6   0 98.9123 6.66964   8
 -10   6   0 95.4519 6.92549   3
  10   6   0 85.0173 7.82019  11
 -10   6   0 100.432 7.12943   5
  10   6   0 92.1485 7.04682   1
   1  -7   0 297.234 8.48013   1
   1  -7   0 282.288 7.51032   6
  -1  -7   0 285.226 7.72740   6
  -1  -7   0 289.141 8.80902   1
  -1  -7   0 277.376 6.61608   8
  -1   7   0 282.450 8.09986   3
   1   7   0 287.623 8.74863   7
   1   7   0 281.604 8.25414  11
  -1   7   0 287.053 9.34141   7
   1   7   0 286.035 8.26720   1
   3  -7   0 565.448 12.2688   6
   3  -7   0 551.725 16.3812  13
  -3  -7   0 558.704 12.6023   8
  -3  -7   0 549.586 14.4090   1
  -3   7   0 578.370 15.8202   7
   3   7   0 536.177 13.2595   7
   3   7   0 562.960 14.5889   1
   3   7   0 590.364 14.3898  11
  -3   7   0 561.675 12.8991   5
  -3   7   0 572.559 13.6249   3
  -5  -7   0 43.8586 3.38145   8
  -5  -7   0 40.9256 3.50692   1
   5  -7   0 41.1657 2.43406   6
   5  -7   0 35.8664 4.65363  13
   5  -7   0 36.3732 2.54008   1
   5   7   0 38.5911 2.78709   9
  -5   7   0 38.3894 3.35190   5
   5   7   0 34.6439 3.95661  11
   5   7   0 43.8792 4.24061   1
  -5   7   0 37.6195 3.65497   3
  -5   7   0 39.7259 4.51817   7
   7  -7   0 148.251 9.06297  13
  -7  -7   0 156.261 7.19482   2
   7  -7   0 153.380 5.20692   6
  -7  -7   0 144.417 6.71359   8
  -7   7   0 163.915 7.68460   3
  -7   7   0 163.050 7.57428   5
   7   7   0 149.348 8.21989  11
   7   7   0 145.049 7.88872   1
  -9  -7   0 21.4774 3.65023   8
   9  -7   0 24.1044 2.52126   6
  -9  -7   0 28.1419 3.87057   2
   9   7   0 16.9483 4.10606  11
  -9   7   0 23.0738 4.06389   5
   9   7   0 21.7621 4.34883   1
  -9   7   0 26.4098 4.38316   3
   0  -8   0 1405.32 29.2379   1
   0  -8   0 1429.42 27.8198   6
   0  -8   0 1439.95 31.1043  13
   0   8   0 1412.94 30.1182   7
   0   8   0 1411.73 28.4888   3
   0   8   0 1401.19 28.6072  11
  -2  -8   0 982.503 20.7086   6
   2  -8   0 1037.61 21.5655   1
   2  -8   0 987.814 24.7330  13
   2  -8   0 998.935 20.3810   6
  -2  -8   0 1005.06 22.7358   1
  -2   8   0 978.081 21.2661   3
   2   8   0 967.177 22.0602   1
   2   8   0 952.912 21.7964   7
  -2   8   0 1004.03 23.8594   7
   2   8   0 993.928 21.9829  11
   4  -8   0 749.531 16.1241   6
   4  -8   0 754.272 16.7825   1
  -4  -8   0 738.510 16.7007   8
  -4  -8   0 757.058 19.0139   1
   4  -8   0 737.763 21.3941  13
  -4   8   0 739.082 20.5086   7
  -4   8   0 751.341 17.7816   3
   4   8   0 748.254 19.3216   1
  -4   8   0 733.849 16.9673   5
   4   8   0 760.671 18.7573  11
   6  -8   0 243.450 11.9634  13
  -6  -8   0 251.818 8.89376   8
  -6  -8   0 242.713 9.47411   1
  -6  -8   0 228.182 8.90823   2
   6  -8   0 246.257 7.29167   6
  -6   8   0 253.439 9.54758   3
   6   8   0 253.151 10.4301  11
  -6   8   0 250.001 9.12244   5
   6   8   0 251.868 10.7859   1
  -8  -8   0 205.729 9.00605   2
  -8  -8   0 194.430 8.69699   8
   8  -8   0 198.979 6.64925   6
   8   8   0 204.642 10.4745   1
   8   8   0 193.128 10.3118  11
  -8   8   0 197.167 9.29584   3
  -8   8   0 195.571 9.09908   5
   1  -9   0 171.834 8.64351  13
  -1  -9   0 174.524 7.57023   1
   1  -9   0 183.108 6.49412   6
   1  -9   0 175.924 7.24626   1
  -1  -9   0 171.657 7.73601  13
  -1  -9   0 165.643 6.38469   6
  -1   9   0 168.915 6.79182   3
   1   9   0 159.244 7.34820   7
   1   9   0 180.953 7.21372  11
  -1   9   0 165.201 8.03990   7
   1   9   0 167.739 6.75777   1
   1   9   0 174.602 7.12561   3
   3  -9   0 40.9084 3.38876   1
   3  -9   0 41.5020 5.08876  13
  -3  -9   0 43.2606 4.22873   1
   3  -9   0 38.2066 3.03950   6
   3   9   0 46.4645 4.01126   1
  -3   9   0 43.9764 4.53394   7
   3   9   0 37.3543 4.06787  11
  -3   9   0 44.3945 3.78561   3
   5  -9   0 134.424 8.95855  13
  -5  -9   0 129.007 5.95744   8
   5  -9   0 140.548 5.74345   1
  -5  -9   0 129.197 7.15982   1
   5  -9   0 134.109 5.40247   6
   5   9   0 124.696 7.55555   1
  -5   9   0 138.052 8.70308   7
  -5   9   0 140.025 6.97659   3
   5   9   0 120.884 7.25934  11
  -7  -9   0 12.8340 3.06375   2
   7  -9   0 10.6686 2.05984   6
  -7  -9   0 11.6632 2.80009   8
  -7   9   0 9.29649 2.56922   5
  -7   9   0 14.8315 3.42017   3
   7   9   0 7.52206 3.15919   1
   7   9   0 11.3421 3.82016  11
   0 -10   0 17.4026 2.52782   6
   0 -10   0 17.8542 3.21886  13
   0 -10   0 18.3290 2.87535   1
   0  10   0 15.6092 3.09538   7
   0  10   0 11.8357 2.54212   3
   2 -10   0 1477.90 35.9883  13
   2 -10   0 1533.75 30.5610   6
   2 -10   0 1467.94 31.4345   1
  -2 -10   0 1531.78 33.4282   1
   2  10   0 1462.00 32.0634  11
  -2  10   0 1479.65 31.3447   3
  -2  10   0 1487.49 34.5364   7
   4 -10   0 2.10961 2.02759  13
  -4 -10   0 4.63588 2.42729   1
   4 -10   0 14.6665 2.40346   1
   4 -10   0 5.20036 1.63009   6
  -4  10   0 3.20742 2.15241   3
  -4  10   0 7.57205 2.66477   7
   4  10   0 3.38764 1.86278  11
   4  10   0 3.64942 2.23712   1
  -6 -10   0 961.610 23.9793   2
   6 -10   0 1012.92 21.4110   6
   6  10   0 942.173 25.9573   1
   6  10   0 950.572 24.9941  11
  -6  10   0 935.921 23.5718   3
   1 -11   0 110.211 6.42839   1
  -1 -11   0 105.216 6.75849   1
  -1 -11   0 103.889 7.83151  13
   1 -11   0 111.364 7.68707  13
  -1  11   0 91.3645 7.04205   7
   1  11   0 112.935 6.98071   7
  -1  11   0 107.548 6.31162   3
   1  11   0 113.101 6.51938   3
   1  11   0 108.066 6.60970  11
   3 -11   0 49.9757 4.12813   1
  -3 -11   0 53.5545 5.04226   1
   3 -11   0 53.1441 6.37464  13
   3 -11   0 47.2035 3.98782   6
  -3  11   0 62.9684 5.95725   7
   3  11   0 53.2883 5.56419  11
  -3  11   0 53.2806 4.84766   3
  -5 -11   0 116.150 7.33781   2
   5 -11   0 138.892 6.21512   6
   5 -11   0 121.606 6.13445   1
  -5 -11   0 136.364 8.18859   1
   5  11   0 124.109 7.77336  11
  -5  11   0 128.446 8.98292   7
   5  11   0 109.511 7.42493   1
  -5  11   0 118.621 7.19255   3
   0 -12   0 352.796 12.9247   1
   0 -12   0 350.646 11.6571   6
   0  12   0 350.997 13.8131   7
   0  12   0 355.831 12.3747   3
   2 -12   0 297.664 10.4870   6
   2 -12   0 314.714 11.6822   1
  -2 -12   0 318.759 12.5481   1
  -2  12   0 303.421 13.5217   7
  -2  12   0 289.939 10.8111   3
   2  12   0 289.713 11.1769   3
   2  12   0 300.046 11.6185  11
   4 -12   0 264.237 10.0586   1
   4 -12   0 269.428 9.68465   6
  -4 -12   0 274.681 11.8591   1
  -4 -12   0 270.674 10.9729   2
   4  12   0 255.368 11.1075  11
  -4  12   0 275.909 10.8982   3
  -4  12   0 268.886 13.4261   7
   1 -13   0 1.18127 1.92153   6
   1 -13   0 2.95324 1.84427   1
  -1 -13   0 5.15976 2.66155   1
   1  13   0 3.82826 2.58594   3
  -1  13   0 3.33875 2.55012   3
  -1  13   0 3.87404 2.94276   7
   3 -13   0 -0.2913 1.67946   6
  -3 -13   0 -2.3558 2.14848   1
  -3 -13   0 -0.4190 2.16290   2
   3 -13   0 -0.5268 1.11488   1
  -3  13   0 0.00861 1.98013   7
   3  13   0 -0.0983 1.85750  11
  -3  13   0 0.78425 2.24048   3
   3  13   0 -0.5434 1.60010   3
 -10   0   1 3.87380 2.02020   8
  10   0  -1 2.22399 1.50919   1
 -10   0   1 0.92696 2.11956   5
  10   0  -1 1.71060 1.68937   6
  10   0  -1 -1.7346 2.30124  11
  -8   0   1 -1.4731 1.24422   5
   8   0  -1 0.35146 0.81196   1
   8   0  -1 1.10569 1.30461  11
  -8   0   1 2.49059 1.14055   8
   8   0  -1 3.08223 1.28039   6
  -6   0   1 1.36675 1.04529   5
  -6   0   1 4.12986 0.83199   2
  -6   0   1 1.66136 0.75452   8
   6   0  -1 0.41473 0.89507  13
   6   0  -1 0.98497 0.87478   1
   6   0  -1 0.32674 1.04323  11
  -6   0   1 -0.6392 0.97903   3
   6   0  -1 0.55143 0.71558   6
  -4   0   1 0.09781 0.35189   8
  -4   0   1 1.13327 0.71908   3
  -4   0   1 0.85099 0.55060  12
   4   0  -1 2.50589 0.83027  13
  -4   0   1 0.22485 0.51775   5
  -4   0   1 1.29680 0.51265   1
  -4   0   1 -0.0430 0.30657   2
   4   0  -1 0.59465 0.43840   6
   4   0  -1 0.38137 0.52130   1
  -2   0   1 1.77745 0.33921  12
   2   0  -1 0.80416 0.44214  13
   2   0  -1 1.51243 0.29912   6
   2   0  -1 0.20371 0.32037   1
  -2   0   1 3.50004 0.56959   3
   0   0  -1 0.77794 0.23856  13
   0   0   1 1.67366 0.42175  10
   0   0  -1 1.22470 0.31649  10
   0   0   1 0.27511 0.19678  13
   2   0   1 5.19197 0.52216   1
   4   0   1 1.07146 0.65334  13
  -4   0  -1 0.45308 0.69425   8
  -4   0  -1 3.19631 0.62427  14
  -4   0  -1 0.70666 0.54867   2
  -4   0  -1 5.96271 1.24274   5
   4   0   1 1.18058 0.52830   1
   4   0   1 1.91593 0.47613   6
   4   0   1 1.55332 0.46829   6
   6   0   1 0.20397 0.61451   6
   6   0   1 4.58090 1.61235  11
  -6   0  -1 1.62934 0.88086   2
  -6   0  -1 11.9912 2.11684   5
   6   0   1 0.61778 0.72240   1
  -6   0  -1 1.61937 1.12924   8
  -8   0  -1 0.30344 1.55551   8
   8   0   1 1.56965 1.11293   1
   8   0   1 2.26989 2.04381  11
  -8   0  -1 2.40679 1.91327   5
   8   0   1 1.38845 1.10798   6
 -10   0  -1 0.35256 1.38373   8
  10   0   1 -0.0475 1.91084  11
 -10   0  -1 1.25102 2.47110   5
  10   0   1 1.88718 1.81651   6
  11  -1  -1 223.017 10.5314  11
 -11  -1   1 227.319 9.82462   5
  11  -1  -1 232.504 8.54818   6
 -11  -1   1 230.122 9.07146   8
 -11   1   1 217.131 9.90516   5
  11   1  -1 216.053 8.71087   6
  11   1  -1 222.293 9.09661   1
 -11   1   1 220.267 8.68596   8
  11   1  -1 240.392 10.8517  11
   9  -1  -1 355.185 9.90302   6
  -9  -1   1 347.762 11.2152   5
   9  -1  -1 349.593 11.6473  11
   9  -1  -1 347.755 10.2663   1
  -9  -1   1 357.342 10.7467   8
  -9   1   1 351.548 10.2187   8
  -9   1   1 346.191 11.4857   5
   9   1  -1 343.302 12.1883  11
   9   1  -1 361.642 11.1265   1
   9   1  -1 346.729 10.4133   6
  -7  -1   1 1011.76 20.5447   2
   7  -1  -1 1020.21 20.6247   6
  -7  -1   1 1068.92 21.7624   8
  -7  -1   1 1081.15 22.2879   5
   7  -1  -1 1064.17 21.5155   1
   7  -1  -1 1019.38 23.3718  13
  -7   1   1 1075.37 23.1518   3
   7   1  -1 1035.65 21.3724   6
   7   1  -1 1049.12 22.2378   1
  -7   1   1 1064.96 22.6122   5
  -7   1   1 1044.73 21.2491   8
   7   1  -1 1057.04 23.1001  11
  -5  -1   1 1330.05 25.1544   8
   5  -1  -1 1341.80 24.2977   6
   5  -1  -1 1327.11 25.0522   1
   5  -1  -1 1337.53 26.8513  13
  -5  -1   1 1353.83 25.3988   5
  -5  -1   1 1370.34 24.6585   2
  -5  -1   1 1266.96 24.6386   1
  -5   1   1 1334.39 25.6790   5
   5   1  -1 1299.43 25.5333  13
  -5   1   1 1338.61 24.7874   8
   5   1  -1 1355.29 25.8011   1
  -5   1   1 1319.14 23.9204   2
  -5   1   1 1353.68 26.1629   3
   5   1  -1 1345.25 26.0121  11
   5   1  -1 1363.67 24.9964   6
   3  -1  -1 4935.31 95.1113  13
   3  -1  -1 4809.28 86.0404   6
  -3  -1   1 4933.87 87.6629   5
  -3  -1   1 4975.88 90.6866   1
  -3  -1   1 4871.60 86.9349  12
   3  -1  -1 4639.43 89.0641   1
  -3   1   1 4864.13 87.5771   8
   3   1  -1 4722.32 90.0651   1
   3   1  -1 4729.84 88.7255   6
  -3   1   1 4988.86 87.3599  12
  -3   1   1 4596.51 88.5874   3
   3   1  -1 4870.47 89.1689  11
   3   1  -1 4941.58 91.0042  13
  -3   1   1 4734.21 89.2492   5
   1  -1  -1 2155.59 45.8221  10
   1  -1  -1 2120.66 42.7665  13
  -1  -1   1 2169.09 45.2799  10
  -1   1   1 2154.10 45.9710  10
   1   1  -1 2165.16 44.7252  10
  -1  -1  -1 7473.69 135.696   8
  -1  -1  -1 7678.93 136.780   2
  -1   1  -1 7610.11 136.515   3
  -1   1  -1 8144.38 138.969   7
   1   1   1 7793.85 134.630   6
  -1   1  -1 7554.91 136.253  14
  -1   1  -1 8174.18 138.628   5
  -1   1  -1 7915.06 136.332   8
   1   1   1 7883.44 137.738   1
  -1   1  -1 7182.17 135.091   2
   1   1   1 7714.37 136.340  11
  -1   1  -1 7625.49 137.837   4
  -3  -1  -1 521.093 10.9853   5
   3  -1   1 523.326 9.70394   1
  -3  -1  -1 549.846 10.0694  14
   3  -1   1 515.074 11.2667  13
  -3  -1  -1 513.698 10.8736   8
  -3  -1  -1 525.431 10.7470   2
  -3   1  -1 535.416 10.6354   2
  -3   1  -1 518.566 10.1898  14
   3   1   1 521.802 10.9769  11
  -3   1  -1 507.494 11.1016   3
   3   1   1 511.035 9.47981  13
  -3   1  -1 519.176 11.3069   5
  -3   1  -1 505.674 10.3995   4
  -3   1  -1 524.227 10.7637   8
   3   1   1 520.418 10.1011   6
  -3   1  -1 535.463 11.3475   7
   3   1   1 514.336 10.7263   1
   5  -1   1 2733.21 50.6248  13
  -5  -1  -1 2763.15 50.6221   5
   5  -1   1 2757.47 48.7964   1
  -5  -1  -1 2803.96 49.7979   2
  -5  -1  -1 3010.90 50.4128   8
   5  -1   1 2720.83 47.7888   6
   5  -1   1 2596.86 47.9652   6
  -5  -1  -1 2717.19 48.2757  14
   5   1   1 2792.40 50.8399  11
   5   1   1 2796.28 49.0833   6
   5   1   1 2805.88 50.0071   1
  -5   1  -1 2735.68 48.4231  14
  -5   1  -1 2795.37 51.0016   3
  -5   1  -1 2817.73 51.0828   5
  -5   1  -1 2820.33 50.0172   8
  -5   1  -1 2765.57 49.4558   2
  -7  -1  -1 145.154 5.41046   2
  -7  -1  -1 131.247 6.01396   5
   7  -1   1 122.901 4.23658   6
   7  -1   1 129.459 5.82993  11
   7  -1   1 129.167 4.71361   1
  -7  -1  -1 123.932 5.59002   8
   7   1   1 125.321 5.33971   1
   7   1   1 122.604 4.87235   6
  -7   1  -1 126.329 4.83976   2
  -7   1  -1 137.763 6.33929   5
   7   1   1 130.736 6.33640  11
  -7   1  -1 124.402 5.34938   8
   9  -1   1 747.471 19.3129  11
   9  -1   1 694.447 16.0104   6
  -9  -1  -1 708.032 18.6128   5
  -9  -1  -1 698.768 17.8704   8
   9   1   1 707.044 16.9716   6
  -9   1  -1 715.196 17.6397   8
   9   1   1 695.428 17.3669   1
   9   1   1 695.238 19.4656  11
  -9   1  -1 690.593 19.0168   5
  10  -2  -1 123.576 5.87337   1
 -10  -2   1 122.560 6.57986   8
  10  -2  -1 127.700 5.78935   6
  10  -2  -1 121.659 6.94908  11
 -10  -2   1 127.900 6.76317   5
 -10   2   1 125.256 7.21898   5
  10   2  -1 111.620 7.26344  11
  10   2  -1 134.091 6.64616   6
  10   2  -1 115.268 6.54509   1
 -10   2   1 128.394 6.00868   8
   8  -2  -1 307.179 8.79443   1
  -8  -2   1 310.906 9.44290   8
  -8  -2   1 316.415 9.64259   5
   8  -2  -1 313.000 8.31685   6
  -8  -2   1 297.290 8.51709   2
  -8   2   1 315.766 10.5910   3
   8   2  -1 306.017 9.36971   6
   8   2  -1 317.514 10.1537   1
   8   2  -1 309.238 10.8480  11
  -8   2   1 309.096 10.1793   5
  -8   2   1 299.411 8.61381   8
  -6  -2   1 408.650 9.73803   2
  -6  -2   1 417.669 10.2588   5
   6  -2  -1 402.617 11.9298  13
   6  -2  -1 426.267 9.84371   1
  -6  -2   1 410.994 10.2332   8
   6  -2  -1 414.950 9.14335   6
   6   2  -1 433.473 11.0797   1
  -6   2   1 400.195 9.49165   8
  -6   2   1 409.628 10.9506   3
   6   2  -1 425.493 11.2421  11
   6   2  -1 418.023 10.2563   6
  -6   2   1 429.386 10.8644   5
   4  -2  -1 1262.43 25.2630  13
  -4  -2   1 1264.32 23.0036  12
  -4  -2   1 1271.30 23.3462   8
   4  -2  -1 1241.71 22.2344   6
   4  -2  -1 1219.21 22.9793   1
  -4  -2   1 1219.10 23.4473   1
  -4  -2   1 1259.76 23.0472   5
   4   2  -1 1254.24 23.9074  11
   4   2  -1 1252.44 23.3237   6
  -4   2   1 1266.63 23.7276   5
   4   2  -1 1248.25 23.3685  13
  -4   2   1 1245.83 22.5549   8
   4   2  -1 1237.93 24.0933   1
  -4   2   1 1250.92 23.9811   3
   2  -2  -1 2782.47 52.9965   1
  -2  -2   1 2741.88 51.9551   1
   2  -2  -1 2674.47 57.8562  10
   2  -2  -1 2849.76 49.6549  13
  -2  -2   1 2684.29 49.4528  12
   2  -2  -1 2782.59 51.2198   6
  -2   2   1 2807.32 50.2848   3
   2   2  -1 2855.56 50.0113  11
   2   2  -1 2748.64 50.4123   6
   2   2  -1 2757.94 52.4537   1
  -2   2   1 2837.82 49.2859   7
  -2   2   1 2813.88 50.6824   9
  -2   2   1 2885.81 51.1798  12
   0  -2   1 3024.61 52.8294   6
   0  -2  -1 3077.63 62.2035  10
   0  -2   1 2891.39 54.6307   1
   0  -2  -1 2883.12 56.2211   1
   0  -2  -1 3000.22 58.2555  13
   0   2   1 2954.20 53.2588  11
   0   2  -1 3140.34 55.7328   3
   0   2   1 2957.11 60.4663  10
   0   2  -1 2916.83 53.9861  14
   0   2  -1 2887.61 56.4598   4
   0   2   1 3081.30 56.1671   1
   0   2  -1 3131.42 54.8067  11
   0   2  -1 2848.74 57.3572   7
   0   2   1 2969.14 54.2951   9
  -2  -2  -1 3124.91 58.3278   2
  -2  -2  -1 3156.81 56.7656   5
  -2  -2  -1 3085.55 56.0247   1
  -2  -2  -1 3153.82 54.5144   8
  -2   2  -1 3077.16 54.9169   5
   2   2   1 3125.72 59.5481   6
   2   2   1 3120.04 57.4569   1
   2   2   1 3189.88 56.6967  11
  -2   2  -1 3135.48 58.9076   4
  -2   2  -1 3134.79 54.2672  14
  -2   2  -1 3096.51 58.2520   2
  -2   2  -1 3142.38 56.6500   8
  -2   2  -1 3158.99 54.6181   3
  -2   2  -1 3257.03 60.3748   7
  -4  -2  -1 1140.32 21.8683   1
  -4  -2  -1 1185.27 22.7442   8
   4  -2   1 1178.91 20.9470   1
  -4  -2  -1 1163.72 22.5705   5
  -4  -2  -1 1152.18 21.3740  14
  -4  -2  -1 1190.78 22.6277   2
   4  -2   1 1183.42 23.9266  13
  -4   2  -1 1153.06 23.1113   3
   4   2   1 1194.50 22.2037   6
  -4   2  -1 1175.38 21.7420  14
  -4   2  -1 1155.49 22.4384   4
   4   2   1 1175.75 23.1772  11
  -4   2  -1 1196.39 22.3684   8
  -4   2  -1 1207.38 23.4609   5
  -4   2  -1 1183.72 23.7865   7
   4   2   1 1173.59 22.9642   1
  -6  -2  -1 617.257 14.1249   2
   6  -2   1 613.702 12.7251   1
  -6  -2  -1 629.377 14.7571   5
   6  -2   1 597.241 15.2520  13
   6  -2   1 623.798 11.9740   6
  -6  -2  -1 612.968 14.3980   8
  -6   2  -1 615.943 13.9715   8
  -6   2  -1 618.348 13.4507   2
   6   2   1 629.728 15.4865  11
   6   2   1 622.078 14.7161   1
  -6   2  -1 620.072 15.2693   5
  -6   2  -1 645.595 15.3399   3
   6   2   1 621.599 13.8995   6
  -8  -2  -1 393.298 11.9335   5
   8  -2   1 392.184 12.2483  11
   8  -2   1 402.618 9.67785   6
  -8  -2  -1 399.505 11.9493   8
  -8  -2  -1 410.263 11.2617   2
   8   2   1 415.086 11.3819   6
   8   2   1 399.378 11.8631   1
   8   2   1 393.548 12.8588  11
  -8   2  -1 408.101 13.0766   3
  -8   2  -1 404.395 12.8082   5
  -8   2  -1 401.787 11.2735   8
 -10  -2  -1 134.660 6.96740   8
  10  -2   1 127.484 5.64235   6
  10  -2   1 131.081 7.86160  11
  10   2   1 122.739 6.57031   1
 -10   2  -1 136.531 7.96894   5
  10   2   1 138.418 8.12552  11
  10   2   1 134.766 6.69877   6
 -11  -3   1 61.7311 5.36485   8
  11  -3  -1 61.5427 6.09943  11
  11  -3  -1 60.4629 4.11325   6
  11   3  -1 56.1457 6.04097  11
  11   3  -1 54.4924 4.95202   6
 -11   3   1 62.2698 5.93125   5
  11   3  -1 55.9361 5.25607   1
   9  -3  -1 1091.38 22.5900   6
  -9  -3   1 1116.07 24.8094   8
  -9  -3   1 1081.74 23.4009   2
   9   3  -1 1093.70 25.6475   1
  -9   3   1 1082.23 25.6512   5
  -9   3   1 1125.85 26.2207   3
   9   3  -1 1140.18 27.1242  11
   9   3  -1 1100.50 24.7366   6
   7  -3  -1 169.176 7.91989  13
   7  -3  -1 173.749 5.26951   6
  -7  -3   1 174.433 6.12219   5
   7  -3  -1 180.666 5.76807   1
  -7  -3   1 178.893 6.41861   8
  -7  -3   1 176.604 6.09701   2
  -7   3   1 182.068 7.20333   3
  -7   3   1 178.227 7.01394   5
   7   3  -1 176.387 7.31102  11
   7   3  -1 179.099 6.52002   6
   7   3  -1 186.563 7.30314   1
   5  -3  -1 2484.65 47.8391  13
  -5  -3   1 2480.98 44.3951   5
  -5  -3   1 2520.53 45.0828   8
   5  -3  -1 2466.03 43.4545   6
  -5  -3   1 2427.38 45.1833   1
   5  -3  -1 2518.07 44.3789   1
   5   3  -1 2471.11 46.2479   1
  -5   3   1 2498.95 45.6030   5
  -5   3   1 2461.91 43.7720   8
   5   3  -1 2492.09 45.0956   6
   5   3  -1 2504.07 46.0046  11
  -5   3   1 2515.80 45.8566   3
   3  -3  -1 976.187 20.6192  13
   3  -3  -1 992.024 17.6695   6
   3  -3  -1 966.570 18.3319   1
   3  -3  -1 983.604 21.3073  10
  -3  -3   1 971.187 19.0575   1
  -3  -3   1 967.721 18.0081  12
  -3  -3   1 959.767 18.1000   6
  -3  -3   1 987.343 17.5870   5
  -3   3   1 973.404 20.1377   7
   3   3  -1 980.174 18.8767   7
   3   3  -1 1000.85 18.5340   6
  -3   3   1 971.120 18.6553   5
  -3   3   1 976.597 18.4082   9
   3   3  -1 984.765 17.5214   4
  -3   3   1 970.932 18.8565   3
   3   3  -1 964.553 18.8977  11
   3   3  -1 973.362 19.3697   1
  -1  -3   1 3214.54 54.5201  12
   1  -3  -1 2940.54 56.6609  13
  -1  -3   1 2944.32 55.9611   6
  -1  -3   1 2943.60 58.3631   1
   1  -3  -1 2951.57 62.4817  10
   1  -3  -1 2950.31 55.4841   6
   1  -3  -1 2927.61 55.5580   1
   1   3  -1 2975.10 54.9858   1
  -1   3   1 2909.65 54.8202   7
  -1   3   1 3001.40 56.8144   1
  -1   3   1 2963.46 51.0690   9
   1   3  -1 2922.77 55.0980   4
  -1   3   1 3014.21 63.2176  10
   1   3  -1 2966.68 54.3603   7
  -1   3   1 2885.93 54.8365   3
   1   3  -1 3041.39 57.7366  10
   1   3  -1 2985.21 54.4895  11
  -1  -3  -1 2832.28 54.5760  13
   1  -3   1 2826.00 49.6344   6
   1  -3   1 2746.07 52.8128   1
   1  -3   1 2864.25 49.6889   6
  -1  -3  -1 2787.70 52.3819   1
  -1  -3  -1 2794.82 51.6240   8
   1   3   1 2948.51 53.5487  11
   1   3   1 2894.27 51.7193   9
  -1   3  -1 2956.19 52.5735   3
   1   3   1 2855.68 52.1568   6
   1   3   1 2902.98 62.8942  10
  -1   3  -1 2865.87 52.7012   5
  -1   3  -1 2889.59 51.9081  14
  -1   3  -1 2752.95 53.2807   7
   1   3   1 2822.32 52.6570   1
   1   3   1 2944.59 54.1948   7
  -1   3  -1 2684.67 50.0418   4
  -3  -3  -1 2531.57 45.9100   1
  -3  -3  -1 2589.18 45.9336   2
   3  -3   1 2564.87 47.2080   1
  -3  -3  -1 2549.27 45.7545   8
  -3  -3  -1 2522.53 45.0315   5
  -3   3  -1 2581.49 47.2496   7
  -3   3  -1 2625.43 45.2851   2
  -3   3  -1 2578.83 45.4577  14
   3   3   1 2555.50 46.6517   1
  -3   3  -1 2622.88 46.0944   3
   3   3   1 2626.98 45.6809   6
  -3   3  -1 2538.78 46.3462   5
  -3   3  -1 2549.27 45.0331   8
   3   3   1 2602.07 46.2618  11
  -3   3  -1 2523.66 46.2663   4
  -5  -3  -1 969.926 19.8390   8
   5  -3   1 935.357 17.4821   1
  -5  -3  -1 934.075 19.2943   5
   5  -3   1 953.650 21.5605  13
  -5  -3  -1 960.758 19.6398   2
  -5  -3  -1 913.045 17.9439  14
   5   3   1 909.015 19.2965   6
  -5   3  -1 967.454 18.9862   8
  -5   3  -1 970.665 21.4626   7
  -5   3  -1 958.346 18.7436   2
  -5   3  -1 951.019 20.4785   5
   5   3   1 961.419 20.5894  11
  -5   3  -1 911.591 18.3770  14
  -5   3  -1 958.043 20.2901   3
   5   3   1 957.345 20.4600   1
   7  -3   1 998.128 18.9419   6
  -7  -3  -1 994.647 21.6667   2
  -7  -3  -1 1008.47 21.8526   5
  -7  -3  -1 1008.49 22.2867   8
  -7   3  -1 1030.65 23.0150   3
   7   3   1 1035.79 22.9522   1
   7   3   1 983.422 23.4509  11
  -7   3  -1 1020.79 23.3040   5
  -7   3  -1 980.357 21.0451   8
   7   3   1 991.497 21.7255   6
   9  -3   1 158.215 7.95360  11
  -9  -3  -1 173.230 7.22046   2
  -9  -3  -1 173.151 7.92416   8
   9  -3   1 164.767 5.60545   6
   9   3   1 158.538 8.96417  11
   9   3   1 171.973 7.83572   1
   9   3   1 163.572 7.30386   6
  -9   3  -1 173.694 8.67056   5
  10  -4  -1 92.0700 4.75058   6
 -10  -4   1 74.4084 5.12068   8
  10  -4  -1 93.0982 6.54425  11
 -10   4   1 88.2443 6.48839   5
 -10   4   1 91.4533 6.45878   3
  10   4  -1 88.5463 5.77407   6
  10   4  -1 90.2283 6.14915   1
  10   4  -1 86.3042 7.44485  11
   8  -4  -1 247.125 7.60930   1
  -8  -4   1 262.666 8.34843   2
  -8  -4   1 272.668 9.13192   8
   8  -4  -1 263.729 7.39676   6
   8  -4  -1 253.301 10.8780  13
  -8   4   1 244.450 9.28591   5
   8   4  -1 269.836 10.5065  11
   8   4  -1 246.738 8.90387   6
   8   4  -1 258.328 9.89244   1
  -8   4   1 260.199 9.67982   3
   6  -4  -1 116.468 4.15941   1
  -6  -4   1 102.795 4.63588   8
   6  -4  -1 103.075 3.49414   6
  -6  -4   1 102.285 3.94550   5
   6  -4  -1 97.8841 5.98787  13
  -6  -4   1 100.017 4.49685   1
  -6   4   1 104.173 4.94483   5
  -6   4   1 104.606 5.10032   3
   6   4  -1 103.347 5.25950   1
   6   4  -1 98.7627 4.60017   6
   6   4  -1 103.197 4.60386   7
   6   4  -1 101.307 5.15618  11
   4  -4  -1 366.824 7.71608   6
  -4  -4   1 357.968 8.57680   8
   4  -4  -1 341.675 10.7009  13
   4  -4  -1 359.675 8.35430   1
  -4  -4   1 352.641 7.55036   5
  -4  -4   1 360.221 9.26273   1
  -4   4   1 370.125 9.29873   3
   4   4  -1 353.751 8.87428   7
  -4   4   1 362.189 8.89640   5
   4   4  -1 372.033 9.86859   1
  -4   4   1 341.624 10.3310   7
   4   4  -1 353.034 8.67143   6
   4   4  -1 361.257 9.30125  11
  -4   4   1 353.890 7.17500   8
  -2  -4   1 271.995 5.72882  12
   2  -4  -1 273.253 8.12851  13
  -2  -4   1 273.330 7.07305   1
  -2  -4   1 269.429 6.34206   6
   2  -4  -1 267.479 6.02634   6
   2  -4  -1 266.745 7.42488  10
  -2   4   1 270.928 6.69970   3
   2   4  -1 269.211 7.06753   1
   2   4  -1 268.768 6.78225  11
  -2   4   1 260.127 6.16191   1
   2   4  -1 286.016 7.00285   7
  -2   4   1 267.096 6.11060   9
   2   4  -1 269.254 6.39014   4
   2   4  -1 268.297 6.26469   6
  -2   4   1 268.072 6.21499   5
  -2   4   1 263.781 7.57902   7
   0  -4   1 6.11654 0.87372   1
   0  -4  -1 7.00489 0.59208   8
   0  -4   1 5.80968 0.73342   6
   0  -4  -1 4.79573 1.03464  13
   0  -4  -1 5.48553 0.83037   6
   0  -4  -1 7.62680 1.08534   1
   0   4  -1 5.64946 0.76064   1
   0   4   1 5.32525 0.74738   9
   0   4  -1 8.04650 0.68669   5
   0   4   1 5.47841 0.92446  10
   0   4  -1 11.3189 1.45246   7
   0   4   1 6.53064 0.96599  11
   0   4   1 4.77440 0.92221   1
   0   4  -1 5.49697 0.88685   3
   0   4  -1 8.33328 1.22373   4
   0   4  -1 6.96674 0.97170  11
  -2  -4  -1 205.816 6.12834   1
  -2  -4  -1 211.497 5.04073  13
   2  -4   1 215.984 4.14579   6
   2  -4   1 214.092 4.13654   6
   2  -4   1 208.876 4.95861   1
  -2  -4  -1 206.785 5.44451   8
  -2   4  -1 207.913 5.67816   3
   2   4   1 215.715 5.68748   6
  -2   4  -1 212.810 4.80486   8
   2   4   1 218.849 6.07986  11
  -2   4  -1 210.205 5.80320   5
  -2   4  -1 210.234 6.38552   4
  -2   4  -1 216.678 6.77339   7
   2   4   1 210.263 5.10534   7
   2   4   1 241.119 6.65240   1
   2   4   1 220.908 7.48189  10
   4  -4   1 3.73621 0.63362   1
   4  -4   1 5.02287 1.65577  13
  -4  -4  -1 1.93357 0.79977   1
  -4  -4  -1 3.97270 1.19475   2
  -4  -4  -1 2.00106 0.85859   8
  -4   4  -1 1.94208 1.10207   3
   4   4   1 3.31737 1.18540  11
  -4   4  -1 2.43314 1.37664   7
  -4   4  -1 2.67578 1.01264   5
   4   4   1 2.41508 1.03808   6
  -4   4  -1 2.01441 1.11649   4
  -4   4  -1 6.98419 1.06589   8
   6  -4   1 23.2210 1.25226   6
  -6  -4  -1 24.1344 2.59617   2
  -6  -4  -1 23.7191 2.69500   8
   6  -4   1 21.5809 3.28068  13
  -6   4  -1 35.9248 3.72949   5
   6   4   1 27.8674 3.21229   1
  -6   4  -1 25.3220 3.01755   3
   6   4   1 25.2284 2.73378   6
  -6   4  -1 27.5123 2.17094   8
   6   4   1 28.0092 3.29601  11
   8  -4   1 33.7536 2.21766   6
  -8  -4  -1 34.8224 3.93891   8
  -8  -4  -1 43.3864 3.87644   2
   8   4   1 36.3373 4.20382   1
   8   4   1 32.6413 3.69196   6
  -8   4  -1 43.5562 4.65211   3
  -8   4  -1 34.0667 4.31109   5
   8   4   1 42.0317 5.14101  11
  10  -4   1 3.89740 2.75994  11
 -10  -4  -1 2.40975 1.84829   8
  10  -4   1 3.96740 1.44138   6
  10   4   1 0.14847 3.14937  11
 -10   4  -1 5.59174 2.98966   5
  10   4   1 5.10746 2.33984   6
  10   4   1 2.52474 2.06742   1
   9  -5  -1 220.673 7.00434   6
  -9  -5   1 196.936 7.75480   2
  -9  -5   1 211.699 8.75557   8
   9   5  -1 228.121 10.0927   1
  -9   5   1 215.098 9.50356   3
   9   5  -1 202.585 10.2022  11
   9   5  -1 210.675 8.89044   6
  -9   5   1 211.455 9.10328   5
   7  -5  -1 631.494 14.4165   1
  -7  -5   1 670.724 15.8936   2
   7  -5  -1 641.890 19.1810  13
   7  -5  -1 647.988 13.8882   6
  -7  -5   1 666.868 15.9639   8
  -7   5   1 643.564 16.4578   5
   7   5  -1 673.412 17.5871  11
   7   5  -1 620.428 17.3319   1
  -7   5   1 687.881 17.0170   3
   7   5  -1 649.753 16.1807   6
   5  -5  -1 1049.80 24.9603  13
   5  -5  -1 1045.19 19.8980   6
  -5  -5   1 1036.74 22.1152   1
  -5  -5   1 1039.72 21.3509   8
   5  -5  -1 1048.79 20.6860   1
   5   5  -1 1139.36 21.6015   7
  -5   5   1 1037.49 22.0974   3
   5   5  -1 1012.42 22.8925   1
  -5   5   1 1023.88 21.6630   5
   5   5  -1 1011.03 22.2846  11
   5   5  -1 1021.09 21.4740   6
  -3  -5   1 2743.96 48.9994   6
   3  -5  -1 2824.98 52.8350  13
   3  -5  -1 2720.88 51.4874  10
   3  -5  -1 2703.03 48.5020   6
   3  -5  -1 2837.09 49.5488   1
  -3  -5   1 2802.06 49.0917   8
  -3  -5   1 2820.60 50.5606   1
   3   5  -1 2751.22 49.9672   7
  -3   5   1 2804.38 49.8714   3
   3   5  -1 2748.05 48.6255   4
   3   5  -1 2775.64 49.2452   6
  -3   5   1 2740.27 51.8773   7
   3   5  -1 2753.00 50.0335  11
  -3   5   1 2712.39 48.7044   9
  -3   5   1 2687.34 49.1152   5
   3   5  -1 2779.99 50.7806   1
  -1  -5   1 2021.62 37.1142   1
  -1  -5   1 2039.43 36.0858   6
   1  -5  -1 2093.28 38.6332  13
   1  -5  -1 2032.04 37.1476   1
   1  -5  -1 1930.71 39.3611  10
   1  -5  -1 2030.63 36.0942   6
  -1  -5   1 1963.90 34.5723  12
   1   5  -1 2002.58 36.9302   4
  -1   5   1 1978.31 37.7667   7
  -1   5   1 2042.56 41.9363  10
  -1   5   1 1981.73 35.2130   5
  -1   5   1 2029.35 36.7076   3
   1   5  -1 2049.36 36.7639  11
  -1   5   1 1997.98 36.6970  11
   1   5  -1 2050.91 37.5803   7
   1   5  -1 2020.48 36.6973   1
  -1   5   1 2016.32 35.5074   9
  -1   5   1 1998.23 36.4600   1
   1  -5   1 2828.78 51.3893   6
  -1  -5  -1 2678.30 48.7177   6
  -1  -5  -1 2745.52 49.6228  13
  -1  -5  -1 2814.44 50.1610   1
  -1  -5  -1 2738.08 48.1792   8
   1  -5   1 2767.53 48.9316   1
  -1   5  -1 2718.60 50.7592   7
  -1   5  -1 2776.89 49.0687   3
   1   5   1 2780.50 49.5325  11
   1   5   1 2725.80 48.7568   6
  -1   5  -1 2748.91 48.5557   5
   1   5   1 2749.57 49.3207   7
   1   5   1 2834.45 50.1996   1
   1   5   1 2790.98 56.8611  10
  -1   5  -1 2749.94 50.3583   4
   1   5   1 2787.75 48.3333   9
   3  -5   1 670.823 12.5455   6
  -3  -5  -1 683.776 15.3637   1
   3  -5   1 679.220 13.4063   1
  -3  -5  -1 686.431 14.4446   8
   3  -5   1 666.843 12.5414   6
  -3  -5  -1 670.303 12.9169  13
   3   5   1 689.707 17.8544  10
   3   5   1 682.525 14.7143   6
   3   5   1 678.564 15.2879  11
  -3   5  -1 679.682 15.8187   4
  -3   5  -1 701.844 15.0486   5
   3   5   1 687.109 15.9673   1
  -3   5  -1 706.574 16.7409   7
  -3   5  -1 706.732 14.9467   3
  -3   5  -1 667.505 13.1083   8
   5  -5   1 846.148 21.2838  13
   5  -5   1 839.202 15.1438   6
   5  -5   1 824.902 15.9615   1
  -5  -5  -1 846.584 18.3746   8
  -5  -5  -1 833.365 18.4248   2
  -5  -5  -1 767.210 17.9841   1
  -5   5  -1 841.315 19.0578   5
   5   5   1 838.875 19.8300   1
  -5   5  -1 826.475 20.4723   7
  -5   5  -1 856.688 18.7472   3
   5   5   1 825.388 18.5055   6
   5   5   1 834.892 19.4852  11
  -7  -5  -1 198.516 7.87782   8
   7  -5   1 197.638 5.25782   6
   7  -5   1 209.525 9.57316  13
  -7  -5  -1 199.322 7.75840   2
   7   5   1 186.756 8.55988  11
  -7   5  -1 201.199 8.24789   3
   7   5   1 208.017 8.88930   1
   7   5   1 197.561 7.88355   6
  -7   5  -1 199.803 8.38631   5
   9  -5   1 321.114 8.35076   6
  -9  -5  -1 330.307 11.0871   2
  -9  -5  -1 308.951 11.1671   8
   9   5   1 307.026 11.2688   6
  -9   5  -1 311.167 12.1186   5
   9   5   1 309.613 12.5726  11
  -9   5  -1 306.293 11.6554   3
   9   5   1 313.990 12.0733   1
 -10  -6   1 88.4106 6.17965   8
  10  -6  -1 98.7911 5.02908   6
 -10  -6   1 88.8211 5.65949   2
 -10   6   1 98.3096 6.92711   5
  10   6  -1 98.7492 6.90496   1
 -10   6   1 98.1819 6.95537   3
  10   6  -1 95.3736 8.15084  11
   8  -6  -1 70.4206 3.60018   6
  -8  -6   1 68.6946 4.85235   2
  -8  -6   1 60.9867 4.47475   8
   8  -6  -1 74.5936 6.57124  13
   8   6  -1 70.1889 5.74566  11
  -8   6   1 73.4366 5.56111   3
   8   6  -1 70.6226 5.74495   1
  -8   6   1 71.5480 5.34852   5
   8   6  -1 67.8485 4.98599   6
  -6  -6   1 337.463 9.71625   8
   6  -6  -1 320.780 8.09871   6
   6  -6  -1 318.467 8.61135   1
   6  -6  -1 327.688 12.4631  13
  -6  -6   1 309.977 9.82993   1
   6   6  -1 305.159 10.8474   1
   6   6  -1 302.602 10.3586  11
  -6   6   1 318.740 10.0403   3
   6   6  -1 315.626 9.64805   6
  -6   6   1 332.078 9.89507   5
   4  -6  -1 117.646 4.52394   1
   4  -6  -1 113.684 6.54235  13
  -4  -6   1 109.392 4.36225   8
  -4  -6   1 109.409 5.05663   1
   4  -6  -1 108.331 3.89712   6
  -4   6   1 115.417 4.62675   5
   4   6  -1 115.330 5.07488  11
   4   6  -1 113.227 5.42415   1
  -4   6   1 113.371 6.10805   7
   4   6  -1 103.553 4.43268   6
  -4   6   1 115.676 4.96309   3
   4   6  -1 123.636 4.88251   7
   2  -6  -1 93.3545 3.98558   1
   2  -6  -1 83.8840 4.20049  10
  -2  -6   1 89.3848 3.56997   6
  -2  -6   1 86.1177 4.15474   1
   2  -6  -1 94.7979 5.24490  13
  -2  -6   1 88.1701 3.25941   8
   2  -6  -1 95.0688 3.52540   6
   2   6  -1 87.2248 3.00505  10
  -2   6   1 92.0769 3.37738   1
   2   6  -1 97.6419 3.90035   4
   2   6  -1 90.1741 4.23313   7
   2   6  -1 88.1620 3.93136  11
  -2   6   1 86.1954 3.03947   9
  -2   6   1 84.1292 3.84628   3
   2   6  -1 86.4495 3.96747   1
  -2   6   1 84.7404 4.59703   7
  -2   6   1 83.2943 3.12960   5
   2   6  -1 88.9361 3.13629  10
   0  -6  -1 225.181 6.92447   1
   0  -6   1 209.812 6.37703   1
   0  -6   1 224.102 5.88951   6
   0  -6  -1 223.274 7.33736  13
   0  -6  -1 215.602 5.97797   6
   0  -6  -1 205.428 4.71980   8
   0   6  -1 221.844 6.20739   3
   0   6   1 218.472 5.82887  10
   0   6   1 209.674 6.73041   7
   0   6  -1 209.184 7.16797   7
   0   6   1 209.271 5.24346   9
   0   6   1 212.031 6.38970  11
   0   6  -1 216.796 6.35859  11
   0   6  -1 206.615 5.75669   1
   0   6   1 209.889 6.43960   1
   0   6  -1 215.552 6.87755   4
   2  -6   1 3.84607 0.86287  10
   2  -6   1 6.21884 0.98170   6
  -2  -6  -1 3.55045 0.95584  13
   2  -6   1 4.25555 0.96511   1
  -2  -6  -1 4.41816 1.24347   1
  -2   6  -1 3.19528 1.26649   7
   2   6   1 3.12428 1.30358  11
   2   6   1 3.59239 1.12087   1
   2   6   1 4.67411 1.16032   6
  -2   6  -1 9.76227 1.44380   5
   2   6   1 4.12584 0.99784   7
  -2   6  -1 6.44107 1.36473   3
   2   6   1 4.39591 1.30001  10
   2   6   1 4.64559 0.98265   9
  -4  -6  -1 56.3591 3.57974   1
  -4  -6  -1 55.0944 3.60695   2
   4  -6   1 57.7642 4.79511  13
   4  -6   1 54.6613 2.56183   1
  -4  -6  -1 56.2279 3.36780   8
   4  -6   1 52.8031 2.14720   6
  -4   6  -1 57.3477 3.67039   3
  -4   6  -1 56.6946 3.60856   5
   4   6   1 52.7138 3.28566   6
   4   6   1 52.6872 4.74063  10
   4   6   1 54.1395 3.21436   9
   4   6   1 55.6460 4.05385  11
   4   6   1 58.9881 4.28045   1
  -4   6  -1 58.3859 4.65069   7
  -6  -6  -1 27.7084 3.25262   8
  -6  -6  -1 26.0201 3.00944   2
   6  -6   1 27.1256 4.23550  13
   6  -6   1 23.1737 1.71473   6
  -6   6  -1 29.4186 3.62527   5
  -6   6  -1 23.1410 3.78213   7
   6   6   1 23.5647 4.42705  10
   6   6   1 23.5336 3.63399  11
   6   6   1 26.3606 3.68434   1
  -6   6  -1 25.9223 3.30685   3
   6   6   1 26.8868 3.27015   6
  -8  -6  -1 -0.5615 1.90972   8
   8  -6   1 0.69998 0.89528   6
  -8  -6  -1 -0.9534 1.70572   2
  -8   6  -1 -1.5316 1.97715   5
   8   6   1 0.21122 2.71979  11
   8   6   1 1.05665 1.88542   6
   8   6   1 4.34656 2.55103   1
  -8   6  -1 0.35260 2.06867   3
  -9  -7   1 158.003 7.59804   2
   9  -7  -1 147.122 5.88180   6
  -9  -7   1 142.363 7.53896   8
   9   7  -1 147.862 8.58560   1
  -9   7   1 144.395 8.05175   5
  -9   7   1 152.749 8.18646   3
   9   7  -1 146.642 8.77097  11
   7  -7  -1 819.827 24.1837  13
  -7  -7   1 835.466 20.0597   2
   7  -7  -1 825.013 17.6773   6
  -7  -7   1 857.516 19.9684   8
   7  -7  -1 815.386 18.1534   1
   7   7  -1 826.002 22.1694   1
  -7   7   1 873.456 20.6183   5
  -7   7   1 843.402 20.6276   3
   7   7  -1 803.447 21.5083  11
   5  -7  -1 162.136 5.34378   6
  -5  -7   1 153.687 6.69531   1
  -5  -7   1 159.219 6.06380   8
   5  -7  -1 157.078 5.75422   1
   5  -7  -1 145.074 8.32421  13
   5   7  -1 153.395 7.15156   1
  -5   7   1 157.045 8.22443   7
   5   7  -1 147.649 6.68635  11
  -5   7   1 158.038 6.52190   3
  -5   7   1 154.811 6.09592   5
  -3  -7   1 1193.61 25.1938   1
  -3  -7   1 1134.45 23.2229   6
   3  -7  -1 1181.23 27.6040  13
   3  -7  -1 1183.55 24.0585   1
  -3  -7   1 1201.36 22.9359   8
  -3   7   1 1179.10 24.1597   3
   3   7  -1 1157.62 24.4152  11
   3   7  -1 1213.82 24.7403   7
   3   7  -1 1164.33 24.9983   1
  -3   7   1 1122.10 22.8283   5
  -3   7   1 1139.68 26.3850   7
  -1  -7   1 295.054 8.85374   1
   1  -7  -1 294.228 9.97114  13
  -1  -7   1 309.016 8.03433   6
   1  -7  -1 307.677 8.02184   6
  -1  -7   1 295.515 6.94776   8
   1  -7  -1 298.152 8.84006   1
  -1   7   1 292.463 9.47505   7
   1   7  -1 291.721 8.69030   4
   1   7  -1 295.704 9.22466   7
  -1   7   1 281.181 6.80889   9
   1   7  -1 292.862 8.22689   1
   1   7  -1 305.527 8.54646  11
  -1   7   1 320.418 8.30783   1
  -1   7   1 309.751 8.63277   3
  -1  -7  -1 1686.21 30.7221   8
  -1  -7  -1 1694.92 33.0612  13
   1  -7   1 1659.01 31.0002   6
   1  -7   1 1623.48 31.8354   1
  -1  -7  -1 1668.75 33.2562   1
  -1  -7  -1 1658.56 31.4811   6
   1   7   1 1692.30 32.9566   1
   1   7   1 1614.24 32.3780   7
  -1   7  -1 1659.47 31.8054   3
  -1   7  -1 1665.00 34.0856   7
  -1   7  -1 1694.97 33.5842   4
   1   7   1 1632.97 30.2435   9
   1   7   1 1696.42 32.6567  11
   3  -7   1 551.270 16.3672  13
  -3  -7  -1 562.063 14.3838   1
   3  -7   1 542.153 12.2661   1
  -3  -7  -1 530.903 12.4371   8
   3  -7   1 528.966 11.4987   6
  -3   7  -1 539.496 13.0390   5
  -3   7  -1 546.306 15.4989   7
  -3   7  -1 543.156 13.1928   3
   3   7   1 536.166 14.5695   1
   3   7   1 539.315 13.9425  11
   3   7   1 552.371 12.2448   9
  -5  -7  -1 1243.10 27.1499   1
  -5  -7  -1 1253.21 26.9668   2
   5  -7   1 1250.58 30.7407  13
  -5  -7  -1 1287.45 26.3902   8
   5  -7   1 1274.76 23.7610   6
   5   7   1 1261.67 28.9258   1
  -5   7  -1 1234.44 26.8347   3
   5   7   1 1271.88 26.9858   6
   5   7   1 1213.66 25.8682   9
   5   7   1 1291.96 28.1797  11
  -5   7  -1 1265.75 29.6254   7
  -5   7  -1 1298.28 27.2800   5
  -7  -7  -1 257.570 9.60777   2
  -7  -7  -1 280.918 9.97488   8
   7  -7   1 263.596 6.95118   6
   7  -7   1 261.460 12.1247  13
   7   7   1 250.104 10.9230  11
  -7   7  -1 257.984 9.88268   3
  -7   7  -1 269.832 10.3031   5
   7   7   1 256.065 9.48305   9
   7   7   1 254.932 11.0324   1
  -9  -7  -1 356.022 12.2949   8
   9  -7   1 350.519 9.08410   6
  -9  -7  -1 355.754 12.2123   2
  -9   7  -1 356.474 13.1574   5
  -9   7  -1 337.145 12.4782   3
   9   7   1 335.474 14.0039  11
   9   7   1 349.888 13.8301   1
   8  -8  -1 33.6339 2.89078   6
  -8  -8   1 35.5820 4.28652   2
  -8  -8   1 33.7279 4.23693   8
   8   8  -1 34.1840 4.82054  11
  -8   8   1 35.5684 4.60427   3
  -8   8   1 33.5377 4.38064   5
   8   8  -1 30.6543 4.66495   1
   6  -8  -1 352.646 14.4508  13
  -6  -8   1 363.284 10.8929   8
   6  -8  -1 358.465 9.64979   6
  -6  -8   1 352.698 11.7195   1
   6  -8  -1 360.272 10.1615   1
   6   8  -1 363.383 13.0603   1
  -6   8   1 355.119 11.1138   5
  -6   8   1 354.763 11.6588   3
   6   8  -1 361.417 12.5004  11
  -4  -8   1 226.851 8.60789   1
   4  -8  -1 213.186 10.2932  13
   4  -8  -1 220.172 7.47711   1
   4  -8  -1 218.111 6.92641   6
  -4  -8   1 223.699 7.13165   8
  -4   8   1 216.368 7.14076   5
   4   8  -1 216.270 8.19312  11
   4   8  -1 226.394 8.75132   1
  -4   8   1 238.884 8.20590   3
  -4   8   1 209.603 9.58860   7
  -2  -8   1 441.003 11.0906   6
  -2  -8   1 451.527 12.5532   1
  -2  -8   1 469.640 10.9294   8
   2  -8  -1 424.640 11.6875   1
   2  -8  -1 419.705 13.9468  13
   2   8  -1 444.421 12.0332  11
  -2   8   1 434.115 11.6702   3
   2   8  -1 413.595 11.6555   1
  -2   8   1 399.006 12.9642   7
   2   8  -1 421.808 12.3108   7
   0  -8   1 964.383 21.1811   1
   0  -8   1 957.887 19.8821   6
   0  -8  -1 973.522 22.7563  13
   0  -8  -1 959.561 20.2345   6
   0  -8  -1 988.267 21.9725   1
   0   8  -1 964.427 22.5905   7
   0   8   1 994.239 21.2917   3
   0   8  -1 964.849 20.5526   3
   0   8   1 903.154 21.6480   7
   0   8   1 948.021 20.8382   1
   0   8  -1 997.353 21.0848  11
   0   8   1 960.548 21.0096  11
   2  -8   1 322.857 9.16771   1
  -2  -8  -1 328.348 10.5739   1
   2  -8   1 312.425 8.33079   6
  -2   8  -1 305.465 11.2112   7
   2   8   1 328.165 10.4421   1
  -2   8  -1 328.024 9.44052   3
   2   8   1 314.167 9.83306  11
  -4  -8  -1 666.761 17.4017   1
  -4  -8  -1 679.987 16.7592   2
  -4  -8  -1 651.927 15.5413   8
   4  -8   1 664.389 20.0520  13
   4  -8   1 665.959 14.9720   1
   4  -8   1 675.020 14.4670   6
  -4   8  -1 655.607 16.4317   3
  -4   8  -1 678.220 19.3937   7
   4   8   1 677.150 18.5011   1
  -4   8  -1 689.547 16.3352   5
   4   8   1 675.676 17.5820  11
  -6  -8  -1 327.346 11.1118   2
   6  -8   1 303.901 13.2898  13
   6  -8   1 325.876 8.39625   6
  -6  -8  -1 320.023 10.4423   8
   6   8   1 314.135 12.5015   1
  -6   8  -1 307.174 10.7965   5
  -6   8  -1 326.457 10.9703   3
  -6   8  -1 337.165 13.3406   7
   6   8   1 316.699 11.8990  11
  -8  -8  -1 123.535 7.20433   2
   8  -8   1 123.640 4.76335   6
  -8  -8  -1 122.336 6.75728   8
  -8   8  -1 119.221 7.28931   5
   8   8   1 110.262 7.66215  11
   8   8   1 115.425 7.69842   1
  -8   8  -1 128.142 7.37157   3
  -7  -9   1 94.4647 5.48900   8
  -7  -9   1 95.3513 6.22626   2
   7  -9  -1 93.0004 4.71417   6
   7   9  -1 101.020 7.25710  11
  -7   9   1 94.2184 5.75177   5
  -7   9   1 100.006 6.50037   3
   7   9  -1 96.5610 7.24979   1
   5  -9  -1 1070.23 23.4976   1
   5  -9  -1 1085.41 29.5548  13
  -5  -9   1 1117.93 26.1075   1
   5  -9  -1 1074.74 22.7750   6
  -5  -9   1 1059.13 23.2031   8
   5   9  -1 1056.21 25.3616  11
  -5   9   1 1086.82 28.2968   7
   5   9  -1 1069.35 26.3539   1
  -5   9   1 1065.14 24.7040   3
   3  -9  -1 320.432 9.40289   6
   3  -9  -1 319.236 10.2208   1
   3  -9  -1 325.996 13.1007  13
  -3  -9   1 322.832 11.1612   1
   3   9  -1 320.384 10.7754   1
   3   9  -1 311.538 10.4957   7
   3   9  -1 319.625 10.6862  11
  -3   9   1 327.110 10.3281   3
  -3   9   1 309.894 11.8659   7
   1  -9  -1 1918.54 38.9757   1
  -1  -9   1 1978.88 39.3370   1
   1  -9  -1 1961.81 41.6003  13
  -1  -9   1 1955.66 37.4607   6
   1   9  -1 1914.55 37.8789   3
   1   9  -1 1893.79 39.9643   7
   1   9  -1 1978.11 38.6442  11
  -1   9   1 1867.66 40.0270   7
  -1   9   1 1975.23 38.5374   3
  -1  -9  -1 137.210 6.84107   1
   1  -9   1 128.548 5.81172   1
  -1  -9  -1 132.279 6.59472  13
   1  -9   1 123.542 5.09990   6
   1   9   1 124.304 6.06478   1
   1   9   1 127.478 6.26169  11
  -1   9  -1 134.083 7.29143   7
   1   9   1 123.885 6.08414   7
   1   9   1 132.372 6.30941   3
  -1   9  -1 131.790 5.78783   3
  -3  -9  -1 1121.68 25.8233   1
   3  -9   1 1066.13 22.2515   6
   3  -9   1 1071.34 28.1447  13
  -3   9  -1 1046.71 23.5704   3
   3   9   1 1096.06 25.7682   1
   3   9   1 1048.53 24.7797  11
  -3   9  -1 1129.89 27.4168   7
   5  -9   1 10.3296 3.45756  13
  -5  -9  -1 10.5238 2.31789   8
  -5  -9  -1 7.16192 2.01906   1
  -5  -9  -1 4.99405 2.28894   2
   5   9   1 4.10022 1.92607   1
   5   9   1 4.90451 2.18075  11
  -5   9  -1 3.94082 2.41333   5
  -5   9  -1 5.61294 2.94316   7
  -5   9  -1 7.35146 2.39348   3
  -7  -9  -1 456.880 14.5655   2
   7  -9   1 453.072 11.3123   6
  -7  -9  -1 456.204 13.9040   8
   7   9   1 440.913 15.6361  11
   7   9   1 456.566 16.5200   1
  -7   9  -1 430.633 14.0469   3
  -7   9  -1 436.720 13.9065   5
   8 -10  -1 2.33424 1.58504   6
  -8 -10   1 5.90906 2.46791   8
  -8 -10   1 2.78132 2.03712   2
  -8  10   1 2.17148 2.58505   3
   8  10  -1 3.32042 2.77988   1
   8  10  -1 -2.4250 2.78774  11
   6 -10  -1 34.8015 3.43509   1
  -6 -10   1 33.9443 4.55223   1
   6 -10  -1 32.4673 3.30244   6
  -6  10   1 34.0338 4.35875   3
   6  10  -1 33.9693 4.89225   1
   6  10  -1 38.5824 4.74877  11
   4 -10  -1 5.99885 2.62040  13
   4 -10  -1 4.24319 1.66804   6
  -4 -10   1 1.96075 2.11543   1
   4 -10  -1 1.51380 1.53598   1
   4  10  -1 3.77582 2.42325  11
   4  10  -1 12.8886 2.98759   1
  -4  10   1 4.03200 2.77503   7
  -4  10   1 7.35566 2.45242   3
   2 -10  -1 2.70468 1.59482   6
  -2 -10   1 0.91734 1.73885   1
  -2 -10   1 2.92265 1.54286   6
   2 -10  -1 3.32643 2.03036  13
   2  10  -1 3.53446 2.10305  11
   2  10  -1 2.11452 1.78847   7
   2  10  -1 3.47973 1.95900   3
  -2  10   1 4.26189 2.33797   7
  -2  10   1 3.51738 1.58488   3
   0 -10   1 16.2754 2.85533   1
   0 -10  -1 14.1895 2.77367   1
   0 -10   1 16.9328 2.52131   6
   0 -10  -1 15.2966 2.32178   6
   0 -10  -1 11.6135 2.88726  13
   0 -10   1 13.1911 2.91204  13
   0  10   1 20.0021 3.19180   3
   0  10  -1 15.4676 3.24896   7
   0  10  -1 15.2325 2.75368   3
   0  10   1 19.7115 3.19688   7
   2 -10   1 56.8874 5.52708  13
   2 -10   1 59.7297 4.27700   1
   2 -10   1 56.9170 3.81809   6
  -2 -10  -1 58.0918 4.82244   1
   2  10   1 60.7070 5.06767  11
  -2  10  -1 55.2737 4.30460   3
  -2  10  -1 57.4696 5.79983   7
  -4 -10  -1 7.12677 2.57815   2
   4 -10   1 0.72493 1.22782   1
   4 -10   1 2.67135 2.55154  13
  -4 -10  -1 2.25034 2.16391   1
  -4  10  -1 2.51706 2.09020   3
   4  10   1 3.26700 1.86337   1
  -4  10  -1 3.74379 2.91054   7
   4  10   1 6.80119 2.39061  11
   6 -10   1 3.05725 1.62448   6
  -6 -10  -1 -0.4038 2.25968   2
  -6  10  -1 0.27166 1.50751   3
   6  10   1 -0.3574 2.35378   1
   6  10   1 -0.6496 2.78874  11
  -7 -11   1 187.771 9.05875   2
   7 -11  -1 201.514 7.79512   6
  -7  11   1 195.352 9.56768   3
   7  11  -1 195.536 10.5464  11
   5 -11  -1 197.118 8.26357   1
  -5 -11   1 195.583 9.60777   1
   5 -11  -1 204.503 8.02257   6
   5  11  -1 194.579 9.50850  11
   5  11  -1 189.906 9.64261   1
  -5  11   1 192.710 9.10956   3
  -3 -11   1 102.283 6.99709   1
   3 -11  -1 103.676 8.02804  13
   3 -11  -1 109.022 5.82633   6
   3 -11  -1 110.075 6.33740   1
  -3  11   1 112.445 6.55406   3
   3  11  -1 106.060 6.48892   3
   3  11  -1 100.802 6.26193  11
  -3  11   1 107.062 7.53225   7
   1 -11  -1 321.331 10.5950   6
  -1 -11   1 326.446 10.4792   6
  -1 -11   1 343.167 12.2458   1
   1 -11  -1 338.803 13.4964  13
  -1 -11   1 307.342 12.6910  13
  -1  11   1 330.460 11.3976   3
   1  11  -1 321.184 12.5499   7
   1  11  -1 328.242 11.1761   3
  -1  11   1 314.608 12.6186   7
   1 -11   1 158.528 9.57209  13
   1 -11   1 158.801 6.92687   6
   1 -11   1 164.757 7.74500   1
  -1 -11  -1 159.492 8.13228   1
   1  11   1 161.618 7.78330  11
   1  11   1 160.081 7.92993   3
  -1  11  -1 166.930 9.37719   7
  -1  11  -1 157.842 7.36784   3
  -3 -11  -1 624.370 17.0887   2
   3 -11   1 617.799 16.3722   1
  -3 -11  -1 623.312 18.6522   1
   3 -11   1 590.840 20.8329  13
  -3  11  -1 598.379 16.5319   3
   3  11   1 606.774 18.3084   1
  -3  11  -1 620.059 20.2941   7
   3  11   1 622.030 18.0818  11
   5 -11   1 210.131 7.72741   6
  -5 -11  -1 202.400 9.53643   2
  -5 -11  -1 218.691 10.0622   1
  -5  11  -1 203.534 9.02247   3
   5  11   1 205.426 10.6998   1
   5  11   1 200.050 10.0492  11
  -5  11  -1 228.449 12.1270   7
   4 -12  -1 161.349 7.96746   1
   4 -12  -1 156.952 7.43346   6
  -4 -12   1 171.898 9.50957   1
   4  12  -1 153.962 8.34503   3
  -4  12   1 159.222 8.23793   3
   4  12  -1 141.714 8.12234  11
  -2 -12   1 147.354 8.49671   1
   2 -12  -1 151.014 7.30567   6
   2 -12  -1 148.203 7.85239   1
   2  12  -1 144.761 7.66705   3
  -2  12   1 131.531 8.84854   7
   2  12  -1 150.625 8.20172  11
  -2  12   1 145.096 7.80989   3
   0 -12   1 49.2503 4.38844   6
   0 -12   1 48.9847 4.87757   1
   0 -12   1 40.8547 5.03656  13
   0  12  -1 45.4519 4.88358   3
   0  12   1 43.3937 4.97466   3
   0  12  -1 42.2345 5.50903   7
  -2 -12  -1 223.849 9.50546   2
  -2 -12  -1 227.424 10.7373   1
   2  12   1 229.306 9.90868   3
  -2  12  -1 222.707 11.8248   7
  -2  12  -1 242.472 9.49372   3
   2  12   1 234.349 10.4461  11
  -4 -12  -1 39.6710 4.88169   2
   4 -12   1 40.2140 3.87749   6
  -4 -12  -1 44.8452 5.47981   1
  -4  12  -1 35.1651 4.32988   3
  -4  12  -1 38.7055 5.73840   7
   4  12   1 34.1721 4.71286  11
   3 -13  -1 650.536 17.8671   6
  -3 -13   1 629.801 20.1553   1
   3 -13  -1 644.406 18.9072   1
   3  13  -1 631.787 19.2483  11
   3  13  -1 653.837 18.6970   3
  -1 -13   1 146.624 8.52655   1
   1 -13  -1 129.081 8.14447   1
   1  13  -1 132.112 7.59128   3
  -1  13   1 131.555 7.78832   3
   1 -13   1 437.548 13.7841   6
  -1 -13  -1 441.751 15.9177   1
  -1  13  -1 443.155 17.2254   7
   1  13   1 440.592 15.0190   3
  -1  13  -1 422.190 13.7775   3
   3 -13   1 43.8633 4.32326   1
  -3 -13  -1 47.9462 5.28705   2
   3 -13   1 49.8644 4.51784   6
   3  13   1 45.9517 5.55537   3
  -3  13  -1 40.6668 4.81000   3
  -3  13  -1 37.3657 5.84177   7
   3  13   1 38.5382 4.93243  11
  12   0  -2 9.19020 2.49781   6
  12   0  -2 15.3393 2.99329   1
  12   0  -2 17.4844 3.76125  11
 -12   0   2 10.0129 3.24620   5
 -12   0   2 15.1792 2.60800   8
 -10   0   2 767.699 19.2032   5
  10   0  -2 728.624 19.8841  11
  10   0  -2 718.436 18.4420   1
  10   0  -2 735.010 17.8170   6
 -10   0   2 733.557 17.7639   8
  -8   0   2 395.302 10.3199   8
   8   0  -2 389.069 10.3465   6
   8   0  -2 374.340 11.5550  11
   8   0  -2 381.855 10.9267   1
  -8   0   2 386.302 11.0754   5
   6   0  -2 4020.55 71.7382  11
  -6   0   2 4119.88 71.3206   5
   6   0  -2 4098.49 71.5545   1
  -6   0   2 3927.46 69.2905   2
   6   0  -2 4018.48 72.9127  13
  -6   0   2 4003.76 70.4998   8
   6   0  -2 4040.36 70.5458   6
  -6   0   2 3940.73 71.8993   3
  -6   0   2 4034.71 70.3070  12
   4   0  -2 2732.30 49.0185   1
  -4   0   2 2828.27 48.0936  12
   4   0  -2 2821.27 54.5439  13
  -4   0   2 2756.21 48.4573   1
  -4   0   2 2702.78 48.8690   3
   4   0  -2 2739.80 50.1971   6
   2   0  -2 8263.75 167.472   1
   2   0  -2 9999.99 180.190  10
   2   0  -2 9475.66 174.024  13
  -2   0   2 9817.77 164.116  12
   2   0  -2 8865.20 164.974   6
  -2   0   2 9967.56 182.670  10
  -2   0   2 9194.85 166.660   1
  -2   0   2 9765.26 166.048   9
   0   0   2 63.4614 2.93861  10
   0   0  -2 64.8646 1.95553   8
   0   0   2 62.5469 1.84174   1
   0   0  -2 63.0749 2.28033  13
   0   0  -2 63.8098 1.96667  14
   0   0  -2 59.9984 2.03042   2
   0   0  -2 60.4499 2.74943  10
   0   0   2 64.0640 1.57824   6
   0   0  -2 61.1656 1.93767   4
  -2   0  -2 4673.67 87.7402  14
  -2   0  -2 4666.28 83.5700   4
   2   0   2 4811.62 86.4393   1
  -2   0  -2 4710.61 87.7187   7
  -2   0  -2 4931.83 82.0032   8
  -2   0  -2 4656.32 89.4003   2
  -2   0  -2 4813.75 87.3007   5
  -4   0  -2 66.4096 2.61586  14
   4   0   2 69.9772 2.65128   1
   4   0   2 68.3822 3.14595  11
  -4   0  -2 68.0358 3.11166   2
  -4   0  -2 65.0648 3.48062   5
  -4   0  -2 65.9438 2.40859   4
  -4   0  -2 60.3747 3.12200   8
   4   0   2 79.9945 2.31094   6
   4   0   2 66.5658 2.76533  13
   6   0   2 2128.21 41.5030  11
   6   0   2 2176.70 39.0031   6
  -6   0  -2 2111.21 40.3860   2
  -6   0  -2 2197.49 41.1913   8
   6   0   2 2165.62 39.7893   1
  -6   0  -2 2194.83 42.1369   5
   8   0   2 8.96582 1.64879   1
  -8   0  -2 5.40426 2.15108   8
   8   0   2 5.10905 1.48486   6
  -8   0  -2 4.55263 2.33167   5
   8   0   2 9.84711 2.31855  11
  10   0   2 984.009 21.8045   6
 -10   0  -2 953.439 23.1351   8
 -10   0  -2 978.231 24.8332   5
  10   0   2 974.120 24.7431  11
 -11  -1   2 96.0051 6.28850   5
 -11  -1   2 96.0034 5.63045   8
  11  -1  -2 91.2080 5.58845   1
  11  -1  -2 92.6021 7.06151  11
  11  -1  -2 92.0888 5.41440   6
  11   1  -2 99.0201 6.12091   1
 -11   1   2 107.750 6.99881   5
  11   1  -2 94.3656 7.59717  11
 -11   1   2 94.9069 5.50828   8
  11   1  -2 96.6288 5.84308   6
   9  -1  -2 1.30659 1.35280   6
   9  -1  -2 0.87295 1.99399  11
  -9  -1   2 0.14193 1.63790   5
   9  -1  -2 3.69467 1.53947   1
  -9  -1   2 4.20016 1.79744   8
   9   1  -2 1.81317 1.52049   6
   9   1  -2 0.27808 1.44613   1
  -9   1   2 0.97553 1.30185   5
  -9   1   2 3.53762 1.49114   8
   9   1  -2 -0.6489 1.32275  11
  -9   1   2 4.65160 2.31991   3
  -7  -1   2 211.691 6.52038   8
   7  -1  -2 195.522 6.58043   1
   7  -1  -2 199.248 6.09491   6
  -7  -1   2 200.473 5.63822   2
  -7  -1   2 203.459 6.68822   5
   7  -1  -2 187.131 7.77039  13
   7   1  -2 200.677 6.46386   6
   7   1  -2 216.015 7.26693   1
  -7   1   2 199.277 6.95296   5
   7   1  -2 219.307 7.62304  11
  -7   1   2 200.368 6.10653   8
  -7   1   2 202.031 7.28446   3
   7   1  -2 194.837 7.21398  13
  -5  -1   2 114.595 3.91222   8
  -5  -1   2 114.545 3.93466   1
   5  -1  -2 118.260 3.72170   6
   5  -1  -2 119.482 5.16704  13
   5  -1  -2 122.764 4.20316   1
  -5  -1   2 116.548 3.99072   5
  -5  -1   2 117.471 3.81097  12
  -5   1   2 132.789 4.40778   5
  -5   1   2 120.887 2.86173   2
   5   1  -2 112.798 3.12304   4
   5   1  -2 115.460 4.38131   1
  -5   1   2 117.486 3.68421  12
  -5   1   2 113.014 3.55706   1
  -5   1   2 111.490 4.26051   3
   5   1  -2 109.890 4.20762  11
  -5   1   2 113.592 3.58692   8
   5   1  -2 113.711 4.63823  13
   5   1  -2 112.696 3.87684   6
   3  -1  -2 207.889 6.10392  13
  -3  -1   2 211.299 5.26760   1
   3  -1  -2 204.800 4.79359   6
  -3  -1   2 210.373 4.78328  12
   3  -1  -2 219.300 7.32900  10
   3  -1  -2 211.166 5.32876   1
  -3   1   2 212.446 4.64195  12
   3   1  -2 208.000 7.01770  10
   3   1  -2 214.994 5.05804  11
   3   1  -2 214.765 5.93858  13
   3   1  -2 210.315 4.75234   4
  -3   1   2 209.844 5.14521   9
   3   1  -2 208.972 5.49572   1
   3   1  -2 206.144 4.96252   6
  -3   1   2 209.018 5.17288   3
  -1  -1   2 2073.08 36.8459  12
  -1  -1   2 2079.56 39.1274   1
  -1  -1   2 2049.01 37.9544   6
   1  -1  -2 1975.63 38.8654   1
  -1  -1   2 2111.45 43.1973  10
   1  -1  -2 2133.74 47.5952  10
   1  -1  -2 2100.72 43.7636  13
  -1   1   2 2077.92 38.7657   1
  -1   1   2 2023.72 36.9105   9
  -1   1   2 2041.78 36.7591  12
   1   1  -2 2118.73 45.2727  10
   1   1  -2 2020.39 37.9438  14
   1   1  -2 2040.55 37.3635   4
  -1   1   2 2096.53 44.8432  10
   1   1  -2 2042.82 37.0580   2
  -1  -1  -2 197.658 4.97880   2
  -1  -1  -2 206.289 4.97739   8
  -1  -1  -2 209.333 4.54813   4
   1  -1   2 211.977 6.61024  10
  -1  -1  -2 209.296 4.78672  14
  -1  -1  -2 203.725 4.89889   5
   1   1   2 213.845 6.90877  10
  -1   1  -2 213.165 4.97538  14
   1   1   2 207.459 4.55494  11
  -1   1  -2 208.814 5.06459   2
  -1   1  -2 208.403 4.94354   7
  -1   1  -2 211.690 5.01837   4
   1   1   2 212.442 4.92236   1
  -1   1  -2 205.038 5.15699   5
  -1   1  -2 205.776 4.89248   8
   1   1   2 209.680 4.42695   6
  -1   1  -2 206.551 4.64626   3
   3  -1   2 183.609 4.01613   1
  -3  -1  -2 181.619 4.65388  14
  -3  -1  -2 176.828 4.05519   4
  -3  -1  -2 174.387 5.34572   5
  -3  -1  -2 186.867 5.25142   2
  -3  -1  -2 196.984 5.51505   8
  -3   1  -2 197.887 5.48706   7
  -3   1  -2 188.550 5.76880   5
   3   1   2 176.174 3.84509  13
   3   1   2 177.389 3.93583  13
  -3   1  -2 183.268 4.85138  14
   3   1   2 181.616 5.02837   1
   3   1   2 174.821 5.13429  11
  -3   1  -2 180.430 5.24794   8
   3   1   2 187.777 4.46195   6
  -3   1  -2 173.400 5.26392   3
  -3   1  -2 183.699 5.21728   2
  -3   1  -2 181.803 4.86181   4
  -5  -1  -2 314.001 7.41806  14
  -5  -1  -2 316.276 8.43102   2
   5  -1   2 300.543 8.46474  13
   5  -1   2 309.557 7.20514   1
   5  -1   2 313.994 6.39248   6
  -5  -1  -2 315.439 8.75267   8
  -5  -1  -2 318.583 9.09084   5
  -5   1  -2 313.321 9.13571   3
   5   1   2 318.380 8.29516   1
   5   1   2 312.989 8.88734  11
  -5   1  -2 317.774 8.61498   8
  -5   1  -2 307.276 7.48372  14
  -5   1  -2 318.215 9.43218   5
  -5   1  -2 321.664 8.39455   2
   5   1   2 314.677 7.67412   6
  -7  -1  -2 4.43492 1.50435   2
   7  -1   2 4.68516 1.13691   6
   7  -1   2 4.77900 1.63705  11
  -7  -1  -2 4.42072 1.94038   5
  -7  -1  -2 15.6169 2.37839   8
  -7   1  -2 4.73129 1.43407   2
   7   1   2 3.89238 2.09140  11
  -7   1  -2 3.34791 1.70810   8
   7   1   2 8.57976 1.76212   6
  -7   1  -2 6.33273 2.17309   5
   9  -1   2 139.009 5.50435   6
  -9  -1  -2 145.360 7.00909   8
   9  -1   2 147.012 7.72732  11
  -9   1  -2 130.071 6.36303   8
  -9   1  -2 141.139 7.54193   5
   9   1   2 144.572 8.05233  11
   9   1   2 127.448 6.14494   1
   9   1   2 136.806 6.07722   6
 -10  -2   2 101.123 5.87981   5
  10  -2  -2 105.206 5.45457   1
  10  -2  -2 96.6907 5.03883   6
 -10  -2   2 107.383 5.94880   8
  10  -2  -2 92.3140 6.28220  11
  10   2  -2 90.1752 5.49339   6
  10   2  -2 106.198 6.34007   1
 -10   2   2 97.2289 6.32352   5
 -10   2   2 101.092 6.87702   3
  10   2  -2 94.1657 6.97335  11
  -8  -2   2 1086.86 23.0099   8
  -8  -2   2 1097.95 23.2099   5
   8  -2  -2 1054.16 25.8715  13
   8  -2  -2 1079.73 22.8444   1
   8  -2  -2 1131.66 22.1872   6
  -8  -2   2 1081.76 21.8403   2
   8   2  -2 1071.27 24.5918  11
   8   2  -2 1085.81 24.1302   1
   8   2  -2 1063.28 23.0361   6
  -8   2   2 1092.59 24.4623   3
  -8   2   2 1061.30 21.9108   8
  -8   2   2 1073.92 23.8092   5
  -6  -2   2 38.6297 2.46166   8
   6  -2  -2 36.3884 2.17515   6
  -6  -2   2 35.8358 2.37275  12
   6  -2  -2 38.5112 3.54405  13
  -6  -2   2 47.5103 2.64376   1
   6  -2  -2 34.0531 2.30324   1
  -6  -2   2 33.8058 2.32559   5
  -6   2   2 35.2442 2.53439   5
   6   2  -2 36.2632 2.87889   1
   6   2  -2 36.2497 2.57402   6
   6   2  -2 33.3527 2.59681  13
  -6   2   2 36.1246 2.92405   3
   6   2  -2 37.6549 2.85703  11
  -6   2   2 36.2715 2.06653   8
  -4  -2   2 2707.63 48.9143   1
   4  -2  -2 2824.51 50.9694  13
   4  -2  -2 2780.70 51.5806   6
   4  -2  -2 2670.59 48.6616   1
  -4  -2   2 2778.88 48.0593  12
   4   2  -2 2719.20 49.4224   1
   4   2  -2 2784.00 49.6367  13
   4   2  -2 2674.29 48.2938   4
  -4   2   2 2774.73 48.6727   9
   4   2  -2 2778.85 48.8661  11
   4   2  -2 2774.49 48.5367   6
  -4   2   2 2772.08 47.6347  12
  -4   2   2 2710.24 47.4776   8
  -4   2   2 2757.76 48.9726   3
  -4   2   2 2714.22 47.9426   1
  -2  -2   2 389.495 7.72798  12
   2  -2  -2 397.194 10.0841  10
  -2  -2   2 388.717 7.97018   6
   2  -2  -2 430.750 8.07702   6
   2  -2  -2 402.288 9.37674  13
   2  -2  -2 379.223 8.49405   1
  -2  -2   2 390.150 8.49197   1
   2   2  -2 415.373 8.16167  11
  -2   2   2 393.161 7.49585  12
   2   2  -2 401.159 7.91404  14
   2   2  -2 404.281 8.59192   1
  -2   2   2 401.309 8.21056   9
  -2   2   2 395.136 8.35714   1
   2   2  -2 398.417 8.18492   4
  -2   2   2 395.305 8.18201   3
  -2   2   2 408.737 10.0767  10
   2   2  -2 397.841 9.50888  10
   0  -2  -2 6882.02 136.010   1
   0  -2  -2 7578.67 139.197  13
   0  -2   2 8058.07 133.664  12
   0  -2   2 7317.66 133.525   1
   0  -2  -2 7847.20 150.722  10
   0  -2  -2 7573.89 135.463   8
   0  -2  -2 7232.11 136.356   2
   0   2   2 7933.94 152.016  10
   0   2   2 7706.18 135.965   6
   0   2  -2 7652.89 140.316   7
   0   2   2 7717.13 135.408  11
   0   2   2 7787.92 137.600   9
   0   2  -2 6990.09 138.483   4
   0   2   2 7631.57 138.654   1
   0   2  -2 7435.62 136.889   2
   0   2  -2 8086.11 145.070  10
   0   2  -2 7553.48 138.295  14
   0   2  -2 8024.01 137.629   5
  -2  -2  -2 3142.48 58.6199   5
  -2  -2  -2 3205.87 58.4747   4
  -2  -2  -2 3282.03 59.9129   2
  -2  -2  -2 3296.71 57.1993   8
  -2  -2  -2 3275.30 60.2325  14
  -2   2  -2 3249.39 56.8428   8
   2   2   2 3346.79 68.3489  10
  -2   2  -2 3270.12 57.7014   5
  -2   2  -2 3263.63 59.5001   2
  -2   2  -2 3287.44 60.2993   7
  -2   2  -2 3344.38 59.4228   3
  -2   2  -2 3187.12 59.6730   4
  -2   2  -2 3235.88 59.1847  14
   2   2   2 3330.05 58.3614   6
   2   2   2 3242.67 56.9492  11
   2   2   2 3281.67 62.3601   1
  -4  -2  -2 2951.28 52.8129   2
  -4  -2  -2 2873.08 52.8188   5
   4  -2   2 2927.53 53.8033  13
   4  -2   2 2864.35 51.4084   1
  -4  -2  -2 2993.16 53.0557   8
  -4  -2  -2 2879.54 51.5147  14
  -4   2  -2 2966.52 52.6347   8
  -4   2  -2 2978.70 53.6133   7
   4   2   2 2923.67 52.9419   1
  -4   2  -2 3003.85 53.9276   5
  -4   2  -2 3014.18 53.2707   3
  -4   2  -2 2913.46 51.9622  14
   4   2   2 2928.68 53.1943  11
  -4   2  -2 2898.44 52.3505   4
   4   2   2 2947.68 52.0343   6
  -4   2  -2 2965.74 52.5716   2
  -6  -2  -2 853.719 18.7021   2
  -6  -2  -2 836.499 18.9854   8
  -6  -2  -2 814.643 18.9765   5
   6  -2   2 872.069 15.6713   6
  -6   2  -2 859.838 19.9591   5
   6   2   2 849.429 19.7466  11
  -6   2  -2 888.305 19.7104   3
  -6   2  -2 828.318 17.9092   2
   6   2   2 840.756 18.7440   1
   6   2   2 841.984 18.0373   6
  -6   2  -2 845.031 18.5045   8
  -8  -2  -2 401.725 11.4934   2
   8  -2   2 379.743 12.0757  11
  -8  -2  -2 375.992 11.9296   8
   8  -2   2 378.424 9.24545   6
  -8  -2  -2 385.147 12.1681   5
   8   2   2 375.678 12.8470  11
   8   2   2 369.554 10.9854   6
  -8   2  -2 376.944 11.2357   8
   8   2   2 398.222 11.6744   1
  -8   2  -2 386.135 12.8306   5
  10  -2   2 103.886 4.79186   6
 -10  -2  -2 107.864 6.33978   8
 -10   2  -2 104.867 7.37982   5
  10   2   2 105.498 6.21825   6
  11  -3  -2 53.0061 5.31243  11
 -11  -3   2 49.0506 4.67063   8
  11  -3  -2 46.1829 3.90135   6
  11   3  -2 46.0337 4.54302   1
 -11   3   2 47.5140 5.63144   5
  11   3  -2 47.0246 6.04116  11
  11   3  -2 50.9169 4.32316   6
  -9  -3   2 11.4375 2.32992   5
   9  -3  -2 12.3964 1.97968   6
  -9  -3   2 20.9440 3.09267   8
   9  -3  -2 13.8127 2.20383   1
  -9   3   2 13.7394 2.95454   3
  -9   3   2 13.6820 2.89281   5
   9   3  -2 12.3811 2.69966   1
   9   3  -2 10.4116 2.63842  11
   9   3  -2 14.8872 2.70881   6
   7  -3  -2 100.412 4.08899   6
  -7  -3   2 100.860 4.37092   5
  -7  -3   2 99.3953 4.25572   2
   7  -3  -2 101.459 4.40409   1
  -7  -3   2 99.5565 4.52695   8
   7  -3  -2 95.5161 6.10655  13
  -7   3   2 107.094 5.17124   5
   7   3  -2 105.335 5.49884   1
   7   3  -2 102.339 5.30181  11
  -7   3   2 104.448 5.32478   3
   7   3  -2 98.7070 4.73582   6
  -7   3   2 99.0231 3.75801   8
  -5  -3   2 83.7906 3.77982   1
  -5  -3   2 91.5157 3.73159   8
   5  -3  -2 88.9900 3.21719   6
   5  -3  -2 94.2969 3.71237   1
  -5  -3   2 90.6531 3.27036   5
  -5  -3   2 86.4550 3.37073  12
   5  -3  -2 93.1371 5.16831  13
   5   3  -2 89.3061 3.96696  11
  -5   3   2 86.3615 3.87936   5
  -5   3   2 85.2105 3.87871   3
  -5   3   2 85.0840 2.91008  12
  -5   3   2 87.5773 2.78873   8
   5   3  -2 85.6822 3.63162   6
   5   3  -2 91.4365 4.23777   1
   3  -3  -2 38.8231 2.02568   1
   3  -3  -2 30.8815 2.56209  13
  -3  -3   2 33.9395 1.52634  12
   3  -3  -2 30.3857 1.57951   6
   3  -3  -2 29.2671 2.56299  10
  -3  -3   2 35.1193 1.71530   6
   3   3  -2 31.5552 2.52159  10
  -3   3   2 34.3866 1.28494  12
  -3   3   2 34.4042 1.98571   3
   3   3  -2 30.5945 1.69892   6
   3   3  -2 30.7325 1.60384   4
   3   3  -2 30.0160 1.89960  11
   3   3  -2 27.5681 2.01728   1
   3   3  -2 28.2973 1.91606   7
  -3   3   2 30.2433 1.70723   9
  -3   3   2 30.3411 1.64992   1
   1  -3  -2 1280.36 24.5980  13
  -1  -3   2 1286.77 23.7281   1
   1  -3  -2 1283.00 25.1413  10
   1  -3  -2 1278.98 24.1627   1
  -1  -3   2 1235.99 25.8422  10
   1  -3  -2 1303.73 23.1041   2
  -1  -3   2 1311.49 22.7049  12
  -1  -3   2 1302.91 23.0793   6
   1  -3  -2 1292.36 23.3887   6
   1   3  -2 1323.03 29.2840  10
   1   3  -2 1267.17 23.4572   1
  -1   3   2 1323.04 23.4979   9
  -1   3   2 1310.04 23.6698   3
   1   3  -2 1325.93 24.1335   4
   1   3  -2 1328.91 23.4084  11
  -1   3   2 1280.26 23.9639   1
   1   3  -2 1309.79 23.7144  14
  -1   3   2 1289.83 22.4751  12
   1   3  -2 1298.37 24.2944   7
  -1   3   2 1312.12 25.3735  10
  -1   3   2 1298.15 24.0236   7
  -1   3   2 1303.00 23.4826  11
  -1  -3  -2 263.412 6.53246   1
  -1  -3  -2 261.949 5.77091  13
  -1  -3  -2 246.883 6.21254   2
   1  -3   2 257.534 5.32154   1
  -1  -3  -2 255.721 6.03982   8
   1  -3   2 256.913 7.22188  10
   1   3   2 259.588 6.12624  11
   1   3   2 259.256 8.21590  10
   1   3   2 258.405 6.74854   1
   1   3   2 253.161 6.02742   6
  -1   3  -2 262.748 6.30414   2
  -1   3  -2 255.600 6.71002   4
  -1   3  -2 259.451 6.89827   7
  -1   3  -2 261.057 5.83349   8
  -1   3  -2 253.339 6.32414  14
   1   3   2 258.361 6.18662   9
  -1   3  -2 255.679 6.33631   5
  -1   3  -2 265.185 5.92372   3
  -3  -3  -2 0.37876 0.69943   5
  -3  -3  -2 1.41076 0.67622   2
  -3  -3  -2 1.30875 0.67314   8
  -3   3  -2 2.12895 0.80122   2
  -3   3  -2 2.01126 0.66374   8
  -3   3  -2 0.89556 0.82217   3
   3   3   2 1.44407 0.76310   6
  -3   3  -2 1.10090 0.91914   5
  -3   3  -2 3.37737 1.16070   7
   3   3   2 0.63438 0.97336  11
  -3   3  -2 4.63854 1.12189   4
   3   3   2 0.85329 1.30513  10
  -3   3  -2 0.94678 0.68951  14
   3   3   2 1.86144 0.92201   1
  -5  -3  -2 0.25382 0.65600  14
  -5  -3  -2 2.79849 1.25448   2
  -5  -3  -2 1.31907 1.09802   5
  -5  -3  -2 0.70716 0.83835   8
   5  -3   2 1.24920 1.19341  13
   5   3   2 1.54927 1.14631   1
  -5   3  -2 0.65224 0.95408   8
  -5   3  -2 1.33979 1.39036   5
  -5   3  -2 0.45389 0.72830  14
   5   3   2 0.62813 0.94822   6
  -5   3  -2 0.30798 1.15506   3
   5   3   2 0.72553 1.42760  11
  -5   3  -2 4.32436 1.62103   7
  -5   3  -2 0.74560 0.87211   4
  -5   3  -2 0.90696 0.86824   2
   7  -3   2 104.989 3.27809   6
  -7  -3  -2 105.184 5.69557   8
  -7  -3  -2 99.6273 5.10997   2
  -7  -3  -2 99.4050 5.31563   5
  -7   3  -2 99.8175 5.52689   3
   7   3   2 99.0418 5.49336   1
  -7   3  -2 97.6185 5.70791   5
   7   3   2 107.979 6.10263  11
  -7   3  -2 102.612 4.77793   8
   7   3   2 99.1957 5.06212   6
   9  -3   2 2.01532 1.78514  11
  -9  -3  -2 -0.3999 2.15870   8
  -9  -3  -2 1.47349 1.77102   2
   9  -3   2 1.33632 1.07199   6
   9   3   2 -0.1530 1.57748   1
  -9   3  -2 2.56027 2.51022   5
   9   3   2 -0.0471 1.57206   6
   9   3   2 2.70355 2.91800  11
  10  -4  -2 15.0070 2.29797   1
  10  -4  -2 19.1090 2.70687   6
 -10  -4   2 18.0397 2.84507   8
 -10   4   2 16.4878 3.44709   5
 -10   4   2 14.6740 3.40872   3
  10   4  -2 19.0110 3.25050   6
  10   4  -2 15.6884 4.02433  11
  10   4  -2 19.5975 3.41274   1
   8  -4  -2 2061.45 38.4163   6
  -8  -4   2 2077.91 40.1874   8
  -8  -4   2 2122.66 39.5050   2
   8  -4  -2 2034.55 44.4507  13
   8  -4  -2 2041.74 39.0581   1
  -8   4   2 2099.50 41.3994   3
   8   4  -2 2030.51 41.9380   1
  -8   4   2 2002.57 40.9077   5
   8   4  -2 2019.54 42.0945  11
   8   4  -2 1979.05 40.2845   6
   6  -4  -2 293.614 10.8854  13
  -6  -4   2 287.164 7.44373   5
   6  -4  -2 304.748 8.19518   1
  -6  -4   2 284.733 8.61407   1
  -6  -4   2 305.115 8.42250   8
   6  -4  -2 290.069 7.44315   6
  -6   4   2 300.883 9.11885   3
  -6   4   2 283.734 8.56136   5
   6   4  -2 301.234 8.56739   6
   6   4  -2 295.588 9.14690  11
   6   4  -2 313.098 9.68146   1
  -4  -4   2 6331.13 116.035  12
   4  -4  -2 6685.66 117.983   6
  -4  -4   2 6194.85 112.030   6
   4  -4  -2 6791.48 128.365  13
   4  -4  -2 6371.21 113.327   1
  -4  -4   2 6335.30 114.518   5
  -4  -4   2 6544.15 122.105   1
   4   4  -2 6390.70 115.206   6
  -4   4   2 6271.64 115.987   1
  -4   4   2 6544.38 114.284  12
  -4   4   2 6581.81 121.227   9
   4   4  -2 6405.86 123.042   7
   4   4  -2 6212.44 115.797   4
  -4   4   2 6322.97 116.728   5
  -4   4   2 6612.63 121.817   3
   4   4  -2 6597.42 115.270  11
   4   4  -2 6400.69 112.484   1
  -2  -4   2 478.127 10.1493   6
   2  -4  -2 487.510 10.9734   1
   2  -4  -2 469.853 11.8721  10
  -2  -4   2 483.398 9.43730  12
   2  -4  -2 487.426 12.1457  13
  -2  -4   2 480.132 10.9335   1
   2  -4  -2 484.470 10.1661   6
   2   4  -2 474.464 10.6882  10
   2   4  -2 476.096 10.6017   4
  -2   4   2 557.434 12.3269  10
   2   4  -2 496.734 10.5813  11
   2   4  -2 493.968 10.8653   1
   2   4  -2 477.373 11.0919   7
  -2   4   2 484.343 10.5865   3
  -2   4   2 494.102 10.5445   1
  -2   4   2 484.065 11.5116   7
  -2   4   2 520.291 9.10464  12
  -2   4   2 482.079 10.1315   9
   0  -4   2 4631.64 85.4416   1
   0  -4  -2 4803.50 87.7354   8
   0  -4  -2 4667.68 88.6947   6
   0  -4   2 4982.41 90.4390  10
   0  -4  -2 4672.05 97.7124  10
   0  -4   2 4887.50 87.9935   6
   0  -4  -2 4873.53 94.4159  13
   0  -4   2 4839.83 84.2173  12
   0  -4  -2 4821.22 92.4430   1
   0   4  -2 4585.24 87.4348   7
   0   4  -2 4983.63 87.4541  11
   0   4  -2 4971.73 88.9357   5
   0   4   2 4925.62 89.6734   9
   0   4  -2 4740.22 83.8263   3
   0   4   2 4702.54 89.2933   7
   0   4   2 4852.32 88.8792   6
   0   4   2 4911.64 92.6172   1
   0   4  -2 4979.52 89.4475  14
   0   4   2 5002.45 102.348  10
   0   4  -2 4598.28 90.7684   4
   0   4   2 4999.99 88.0191  11
  -2  -4  -2 28.0464 1.95501   2
  -2  -4  -2 30.1211 1.95784   8
   2  -4   2 29.2710 2.54197  10
   2  -4   2 30.2775 1.31493   1
  -2  -4  -2 28.1666 2.01302   1
  -2  -4  -2 31.5686 1.35833  13
   2   4   2 29.2093 1.97724   6
  -2   4  -2 32.9816 2.41558   4
  -2   4  -2 30.5381 2.18916   5
  -2   4  -2 33.3780 2.21178  14
   2   4   2 31.7050 3.23465  10
  -2   4  -2 30.0242 2.00500   2
   2   4   2 33.0291 2.24986  11
  -2   4  -2 28.3435 1.66739   8
  -2   4  -2 34.8295 2.50816   7
   2   4   2 29.4016 2.26311   1
  -2   4  -2 32.9752 2.02423   3
   2   4   2 34.5762 2.14319   9
  -4  -4  -2 1455.35 29.5889   1
  -4  -4  -2 1582.27 30.4451   2
  -4  -4  -2 1588.15 30.3706   8
  -4  -4  -2 1551.30 29.1602  14
   4   4   2 1586.06 30.9666  11
  -4   4  -2 1551.31 29.7919  14
  -4   4  -2 1602.75 32.0251   7
  -4   4  -2 1547.74 29.2853   8
  -4   4  -2 1527.20 30.6013   4
   4   4   2 1572.86 30.2192   6
  -4   4  -2 1602.05 30.5021   3
   4   4   2 1578.18 36.5970  10
  -4   4  -2 1560.52 29.6788   2
   4   4   2 1580.33 31.3886   1
  -4   4  -2 1575.80 31.1859   5
   6  -4   2 49.4530 1.44741   6
  -6  -4  -2 53.8904 3.85398   2
  -6  -4  -2 47.5157 3.54615   8
   6  -4   2 47.8894 4.01466  13
  -6   4  -2 52.7391 3.78463   3
   6   4   2 47.0911 6.02143  10
   6   4   2 45.6583 3.53829   6
   6   4   2 51.8680 4.10437  11
   6   4   2 50.4995 4.09578   1
  -6   4  -2 42.5239 3.02180   8
  -6   4  -2 45.8665 4.05398   5
   8  -4   2 726.862 14.6112   6
  -8  -4  -2 743.477 18.4051   2
  -8  -4  -2 724.162 18.7870   8
  -8   4  -2 717.367 19.1336   3
   8   4   2 714.274 20.1610  11
  -8   4  -2 725.069 19.6435   5
   8   4   2 711.057 18.2788   6
   8   4   2 733.883 19.3380   1
  11  -5  -2 37.0585 4.92474  11
 -11  -5   2 44.4542 4.87438   8
  11  -5  -2 40.2091 3.59987   6
 -11   5   2 35.9945 5.03158   5
  11   5  -2 32.8417 4.73383   1
  11   5  -2 48.4412 6.63685  11
 -11   5   2 49.8191 4.92082   3
  -9  -5   2 390.682 12.0637   8
  -9  -5   2 369.443 11.1292   2
   9  -5  -2 357.649 14.6459  13
   9  -5  -2 384.883 10.3864   6
   9  -5  -2 375.843 10.6659   1
  -9   5   2 375.847 12.5954   3
   9   5  -2 366.085 13.0835   1
   9   5  -2 360.450 11.9861   6
   9   5  -2 377.918 13.5531  11
  -9   5   2 380.776 12.5514   5
   7  -5  -2 224.566 7.20892   1
   7  -5  -2 223.068 6.68831   6
   7  -5  -2 215.806 10.1329  13
  -7  -5   2 223.596 8.00609   1
  -7  -5   2 229.431 7.89504   8
   7   5  -2 230.540 8.80379  11
  -7   5   2 224.339 8.38806   3
  -7   5   2 220.734 8.12324   5
   7   5  -2 236.376 8.01179   6
   7   5  -2 235.082 8.98063   1
   5  -5  -2 459.425 10.9309   1
   5  -5  -2 457.083 10.2408   6
   5  -5  -2 441.407 13.7825  13
  -5  -5   2 435.774 11.6073   1
  -5  -5   2 445.384 10.9153   8
  -5   5   2 443.658 11.1346   5
   5   5  -2 425.871 10.8136   6
  -5   5   2 447.388 11.6051   3
   5   5  -2 443.004 11.6046   7
   5   5  -2 435.250 12.1641   1
   5   5  -2 450.518 11.8207  11
   3  -5  -2 1174.62 23.1557   1
  -3  -5   2 1150.41 22.3575   6
   3  -5  -2 1236.54 26.6518  10
  -3  -5   2 1195.72 23.7497   1
   3  -5  -2 1188.54 25.7197  13
  -3  -5   2 1145.45 21.4660  12
   3  -5  -2 1204.45 22.3624   6
   3   5  -2 1193.51 23.1917  11
  -3   5   2 1186.98 23.1202   3
  -3   5   2 1151.06 24.6666   7
  -3   5   2 1157.56 22.2649   1
  -3   5   2 1139.28 22.2134   5
   3   5  -2 1214.60 23.8078   1
   3   5  -2 1151.52 22.4353   4
   3   5  -2 1154.41 22.1998   6
  -3   5   2 1169.24 22.3200   9
   3   5  -2 1159.71 23.5717   7
   3   5  -2 1151.45 23.7961  10
   1  -5  -2 41.7877 2.18848   6
   1  -5  -2 46.7622 2.76962   1
  -1  -5   2 42.0613 2.46041   1
  -1  -5   2 41.6049 1.47044  12
  -1  -5   2 44.8307 2.16029   6
   1  -5  -2 37.5257 2.50745  10
   1  -5  -2 41.5917 2.82192  13
  -1   5   2 44.5136 2.45351   1
   1   5  -2 44.1039 2.61213   4
  -1   5   2 43.0543 2.77997  10
  -1   5   2 41.4714 2.66444   7
  -1   5   2 42.9636 2.41011   3
  -1   5   2 49.7442 2.55729  11
   1   5  -2 39.7409 2.15563   1
   1   5  -2 44.4702 2.45089  11
  -1   5   2 47.7111 2.13570   9
  -1  -5  -2 737.971 15.9233   1
   1  -5   2 728.809 14.4509  10
  -1  -5  -2 719.822 14.3147   8
   1  -5   2 761.223 13.6706   6
   1  -5   2 686.183 13.9908   6
  -1  -5  -2 703.725 14.5129   6
  -1  -5  -2 729.026 14.9472  13
   1  -5   2 732.702 14.4593   1
   1  -5   2 712.813 13.1003  12
  -1   5  -2 728.048 16.4494   7
   1   5   2 749.094 15.3232  11
   1   5   2 708.007 14.3131   7
   1   5   2 729.177 14.6627   9
   1   5   2 720.173 17.0585  10
  -1   5  -2 734.820 16.1034   4
  -1   5  -2 742.594 14.7422   3
   1   5   2 720.526 15.9292   1
  -1   5  -2 729.726 14.8180   5
   1   5   2 704.087 14.7657   6
  -3  -5  -2 116.507 4.54817   8
  -3  -5  -2 125.973 4.95252   2
  -3  -5  -2 118.737 4.82695   1
   3  -5   2 119.882 5.88516  10
   3  -5   2 121.559 3.38134   1
   3   5   2 132.761 4.88454   6
  -3   5  -2 122.564 5.04472   5
  -3   5  -2 126.036 4.80306   3
  -3   5  -2 121.802 5.36260   4
  -3   5  -2 120.128 3.93473   8
   3   5   2 122.931 5.51846   1
   3   5   2 118.783 4.90047  11
  -3   5  -2 120.826 4.76111  14
  -3   5  -2 124.795 5.82704   7
   3   5   2 125.704 7.07801  10
   3   5   2 126.913 4.75847   9
  -5  -5  -2 16.4925 2.46433   8
  -5  -5  -2 16.2448 2.23813   2
  -5  -5  -2 16.0670 1.86973  14
   5  -5   2 17.2605 3.07321  13
   5   5   2 25.4130 3.15089  11
  -5   5  -2 20.6164 2.98330   5
   5   5   2 25.2428 3.33049   1
   5   5   2 17.9076 2.47282   6
  -5   5  -2 19.9455 2.64365   3
   5   5   2 16.9312 3.74079  10
  -5   5  -2 17.8775 3.01238   7
  -7  -5  -2 139.960 6.63922   8
   7  -5   2 139.229 3.77758   6
  -7  -5  -2 135.040 6.62333   2
   7   5   2 132.781 6.55107   6
   7   5   2 135.560 7.30124   1
  -7   5  -2 132.783 7.09708   5
   7   5   2 136.786 7.79542  11
  -7   5  -2 137.257 6.94316   3
   9  -5   2 -1.3580 2.13200  11
  -9  -5  -2 1.45659 1.53200   2
   9  -5   2 2.16951 1.00212   6
  -9  -5  -2 1.02589 2.24359   8
   9   5   2 2.82131 2.23239   1
   9   5   2 -0.9272 2.92745  11
  -9   5  -2 1.61086 1.87188   3
  -9   5  -2 0.78030 2.29434   5
   9   5   2 1.55137 2.12421   6
 -10  -6   2 640.627 16.8868   2
 -10  -6   2 640.424 17.7751   8
  10  -6  -2 658.683 15.7436   6
  10   6  -2 626.936 19.4308   1
 -10   6   2 627.977 18.5477   3
  10   6  -2 671.331 20.8143  11
 -10   6   2 623.002 18.3539   5
   8  -6  -2 18.9238 2.41356   6
  -8  -6   2 17.7155 2.97163   8
   8  -6  -2 15.4824 2.20434   1
   8  -6  -2 16.0716 3.75596  13
  -8  -6   2 21.3240 3.02783   2
   8   6  -2 23.5272 3.76908  11
  -8   6   2 23.8614 3.68138   3
  -8   6   2 13.8591 2.68501   5
   8   6  -2 17.4083 3.58724   1
   6  -6  -2 1218.79 30.2049  13
  -6  -6   2 1305.30 27.1319   1
  -6  -6   2 1255.82 25.6474   8
   6  -6  -2 1253.07 25.3137   1
   6  -6  -2 1222.26 24.3308   6
  -6   6   2 1250.31 26.5647   3
   6   6  -2 1218.11 26.9120  11
   6   6  -2 1217.23 27.7691   1
  -6   6   2 1246.74 25.9831   5
   4  -6  -2 29.2977 2.17303   6
  -4  -6   2 28.8261 2.65488   1
   4  -6  -2 28.4511 3.30796  13
  -4  -6   2 33.0463 2.46342   8
   4  -6  -2 27.7756 2.46825   1
  -4  -6   2 25.7937 2.10542   6
  -4   6   2 30.2063 3.23976   7
   4   6  -2 30.0914 2.97694   1
   4   6  -2 30.3248 2.89785  11
   4   6  -2 28.5835 1.98203   4
  -4   6   2 30.4218 2.71762   3
  -4   6   2 28.1067 2.29088   5
  -4   6   2 27.7969 2.12386   9
   2  -6  -2 2957.30 52.8194   6
  -2  -6   2 2891.96 51.0441  12
  -2  -6   2 3033.63 52.8145   6
   2  -6  -2 2931.47 54.0840   1
   2  -6  -2 3031.37 56.1994  13
  -2  -6   2 2920.01 54.0724   1
   2   6  -2 2896.50 53.5148   1
   2   6  -2 3027.43 53.5684  11
   2   6  -2 3032.06 53.7384   4
  -2   6   2 2948.78 52.2715   9
  -2   6   2 2915.39 54.9363   7
   2   6  -2 2926.53 54.4437   7
  -2   6   2 3047.10 53.6711   3
  -2   6   2 2881.55 51.8444   5
   0  -6  -2 332.062 7.26457   8
   0  -6  -2 345.689 9.66237   1
   0  -6   2 353.259 8.92944   1
   0  -6  -2 366.215 9.80391  13
   0  -6  -2 350.563 8.56126   6
   0  -6   2 359.513 8.18333   6
   0   6  -2 341.827 9.71200   4
   0   6   2 342.082 9.03533   7
   0   6  -2 351.405 7.75423   5
   0   6   2 356.185 9.07918  11
   0   6   2 339.659 9.39789   1
   0   6  -2 357.871 10.1815   7
   0   6   2 349.859 9.73160  10
   0   6   2 349.431 8.20782   9
   0   6  -2 353.592 8.84659  11
   0   6  -2 345.201 8.49448   3
  -2  -6  -2 3689.13 65.9416   8
  -2  -6  -2 3622.66 65.5023  13
   2  -6   2 3691.46 65.4142   1
  -2  -6  -2 3744.17 67.8831   1
  -2  -6  -2 3719.77 66.8678   2
   2  -6   2 3616.14 68.6900   6
  -2   6  -2 3821.56 66.7632   5
  -2   6  -2 3739.88 66.3540   3
  -2   6  -2 3795.62 69.1330   7
   2   6   2 3828.25 68.6030   1
   2   6   2 3710.89 66.1531   9
  -2   6  -2 3760.16 68.5504   4
   2   6   2 3895.43 70.7527  10
   2   6   2 3749.37 67.2962  11
  -4  -6  -2 286.106 8.55474   8
   4  -6   2 278.005 5.91219   6
  -4  -6  -2 272.757 8.72999   1
  -4  -6  -2 285.731 8.79935   2
   4  -6   2 282.101 10.8047  13
   4   6   2 273.216 8.70855   6
   4   6   2 276.039 12.1201  10
  -4   6  -2 284.151 9.53762   4
  -4   6  -2 280.471 8.53611   3
   4   6   2 277.414 9.74655   1
   4   6   2 278.110 9.13347  11
  -4   6  -2 276.812 10.1819   7
  -4   6  -2 284.817 9.04038   5
   4   6   2 277.401 8.52431   9
  -6  -6  -2 1456.39 30.6395   2
  -6  -6  -2 1438.16 30.3838   8
   6  -6   2 1414.32 33.7735  13
   6   6   2 1408.75 30.6127   6
   6   6   2 1445.14 32.4176   1
  -6   6  -2 1468.54 30.7490   3
  -6   6  -2 1486.57 33.2645   7
  -6   6  -2 1450.76 31.2152   5
   6   6   2 1446.14 32.0392  11
  -8  -6  -2 32.8545 4.03437   2
  -8  -6  -2 35.6332 4.34264   8
   8  -6   2 34.8743 2.19211   6
  -8   6  -2 29.9508 4.27111   5
   8   6   2 44.3749 4.76866   6
   8   6   2 35.8359 5.14549  11
  -8   6  -2 34.3945 4.24408   3
   8   6   2 36.8715 4.85330   1
   9  -7  -2 26.0236 2.98036   6
  -9  -7   2 25.3705 3.54861   2
  -9  -7   2 29.0294 3.91390   8
  -9   7   2 38.8634 4.87560   5
   9   7  -2 28.4250 4.45696  11
   9   7  -2 23.1437 3.85733   1
  -9   7   2 29.8606 4.14140   3
   7  -7  -2 4.59150 1.46325   6
   7  -7  -2 11.9893 3.20167  13
  -7  -7   2 5.17848 2.00739   1
   7  -7  -2 5.40837 1.63482   1
  -7  -7   2 5.37994 1.68905   8
   7   7  -2 9.12614 2.72123   1
  -7   7   2 3.72745 2.09570   3
   7   7  -2 6.31278 2.71046  11
  -7   7   2 3.41261 1.88829   5
   5  -7  -2 3.77930 2.36879  13
  -5  -7   2 0.42845 1.39569   1
   5  -7  -2 0.62174 1.01817   6
   5  -7  -2 0.49560 1.07437   1
  -5  -7   2 1.18459 0.93254   8
   5   7  -2 1.84924 1.36636   7
  -5   7   2 4.20065 1.51632   5
   5   7  -2 4.96803 2.06771  11
   5   7  -2 0.13080 1.30062   1
  -5   7   2 1.20963 1.12161   3
   3  -7  -2 84.0799 4.24034   1
   3  -7  -2 84.5792 3.83029   6
   3  -7  -2 78.2291 5.52752  13
  -3  -7   2 77.0205 4.51991   1
  -3  -7   2 72.5325 3.67584   6
  -3   7   2 73.5817 3.28563   9
  -3   7   2 77.0270 3.42989   5
   3   7  -2 72.2822 4.15345   1
  -3   7   2 78.2995 4.01459   3
   3   7  -2 85.0924 4.26020  11
   3   7  -2 76.2876 3.80075   4
  -3   7   2 70.6616 4.91264   7
   1  -7  -2 12.4580 2.33710  13
   1  -7  -2 14.7513 2.21793   1
  -1  -7   2 17.0027 1.90123   6
  -1  -7   2 14.9891 2.14540   1
   1  -7  -2 14.1273 1.85371   6
  -1   7   2 22.1750 2.51935  10
   1   7  -2 21.0689 2.75684   7
  -1   7   2 16.1296 1.99681   1
  -1   7   2 23.4672 2.23875   3
  -1   7   2 17.5637 1.57452   9
   1   7  -2 13.4026 1.82467  11
   1   7  -2 15.9951 1.86896   1
   1   7  -2 14.6965 2.19596   4
  -1   7   2 12.9059 2.16785   7
   1   7  -2 12.8192 1.68043   3
  -1  -7  -2 168.956 5.55541   8
   1  -7   2 198.385 5.69772   6
  -1  -7  -2 218.572 7.68254   1
   1  -7   2 208.779 6.43369   1
  -1  -7  -2 208.968 6.90322  13
  -1  -7  -2 188.693 6.09510   6
   1   7   2 201.973 7.50154  10
  -1   7  -2 204.033 7.55066   4
  -1   7  -2 203.423 5.86855   5
  -1   7  -2 204.240 7.97869   7
   1   7   2 206.860 6.03582   9
   1   7   2 192.904 6.25529   7
   1   7   2 218.790 7.54460   1
  -1   7  -2 197.217 6.29250   3
   1   7   2 211.701 7.09822  11
   3  -7   2 50.5622 2.69019   1
  -3  -7  -2 50.4485 3.85449   1
  -3  -7  -2 49.5874 2.99491   8
   3  -7   2 53.7479 2.45312   6
  -3  -7  -2 48.8152 3.64435   2
   3   7   2 50.6705 4.64948  10
  -3   7  -2 54.8875 3.73897   5
  -3   7  -2 54.6352 4.66426   7
  -3   7  -2 53.1111 3.55847   3
   3   7   2 47.4855 3.49617   6
  -3   7  -2 47.6567 4.16569   4
   3   7   2 48.3581 3.99703  11
   3   7   2 47.9621 4.13063   1
   3   7   2 48.7818 3.20496   9
   5  -7   2 59.6104 5.62330  13
  -5  -7  -2 54.7385 4.15170   8
  -5  -7  -2 57.6618 4.45307   2
   5  -7   2 53.9749 2.38332   6
   5   7   2 53.8982 4.95016   1
  -5   7  -2 60.3130 5.47789   7
   5   7   2 54.4745 4.17655   9
  -5   7  -2 62.1458 4.60739   5
  -5   7  -2 54.3769 4.12848   3
   5   7   2 55.1849 4.17760   6
   5   7   2 49.2010 4.82927  11
   7  -7   2 126.651 4.11285   6
  -7  -7  -2 120.046 6.40809   8
  -7  -7  -2 128.598 6.89377   2
   7   7   2 118.164 6.81318   6
   7   7   2 125.893 6.66000   9
   7   7   2 122.697 7.86186  11
  -7   7  -2 124.665 7.17042   5
  -7   7  -2 137.461 7.11833   3
   7   7   2 119.655 7.70549   1
   8  -8  -2 184.441 6.91784   6
  -8  -8   2 190.814 8.39139   2
  -8  -8   2 191.780 8.33067   8
   8  -8  -2 165.910 10.7542  13
   8  -8  -2 190.533 7.25654   1
   8   8  -2 186.039 9.25572  11
  -8   8   2 184.757 8.44041   5
  -8   8   2 186.881 8.75343   3
   8   8  -2 187.909 10.0016   1
   6  -8  -2 1129.73 23.3869   6
   6  -8  -2 1067.64 29.4222  13
   6  -8  -2 1119.15 24.1208   1
  -6  -8   2 1103.28 24.0783   8
   6   8  -2 1091.81 25.8216  11
  -6   8   2 1120.28 25.4631   3
   6   8  -2 1155.06 27.3066   1
  -6   8   2 1101.30 24.2885   5
  -4  -8   2 485.935 11.7871   8
   4  -8  -2 455.229 15.7309  13
   4  -8  -2 471.419 11.8855   6
   4  -8  -2 475.642 12.8524   1
  -4  -8   2 472.864 13.7469   1
   4   8  -2 470.020 13.5996   1
  -4   8   2 463.904 12.8211   3
   4   8  -2 462.414 13.0078  11
  -4   8   2 472.341 11.7249   5
   4   8  -2 472.869 13.4793   7
  -4   8   2 465.815 15.1371   7
   2  -8  -2 1554.64 29.9872   6
   2  -8  -2 1507.82 31.3889   1
   2  -8  -2 1566.45 33.9208  13
  -2  -8   2 1554.59 29.9029   6
  -2  -8   2 1522.83 31.4659   1
   2   8  -2 1488.11 31.9347   7
  -2   8   2 1537.56 30.7388   3
   2   8  -2 1553.46 30.7192  11
   2   8  -2 1501.44 30.8361   4
  -2   8   2 1503.83 32.3694   7
   2   8  -2 1468.26 30.2035   1
  -2   8   2 1465.64 28.4528   9
   0  -8  -2 330.622 9.29727   6
   0  -8  -2 342.805 10.7067   1
   0  -8  -2 346.595 10.9321  13
   0  -8   2 344.586 9.94287   1
   0  -8   2 340.798 9.06684   6
   0   8   2 360.842 10.4131   3
   0   8   2 348.050 10.2851   1
   0   8  -2 335.091 10.7808   4
   0   8   2 333.836 10.0780   7
   0   8   2 330.214 8.33025   9
   0   8  -2 336.985 9.32900   3
   0   8   2 338.168 9.95792  11
   0   8  -2 339.486 11.2578   7
   2  -8   2 751.627 16.3943   1
  -2  -8  -2 734.642 17.2565   2
   2  -8   2 760.347 15.7258   6
  -2  -8  -2 734.056 18.3856   1
   2   8   2 735.468 15.9886   9
   2   8   2 741.694 18.6571   1
  -2   8  -2 728.964 16.8093   3
  -2   8  -2 742.878 19.6052   7
   2   8   2 707.417 17.5617  11
  -2   8  -2 723.956 18.8880   4
  -4  -8  -2 149.870 6.20818   8
   4  -8   2 150.757 8.75087  13
  -4  -8  -2 142.052 6.87862   1
  -4  -8  -2 151.747 6.90186   2
   4  -8   2 147.207 4.78304   6
  -4   8  -2 147.356 8.30034   7
  -4   8  -2 138.636 6.16618   3
  -4   8  -2 155.868 6.64085   5
   4   8   2 148.342 6.12617   9
   4   8   2 146.883 7.03320  11
   4   8   2 150.030 7.68836   1
  -6  -8  -2 321.247 10.7475   8
   6  -8   2 310.362 7.81735   6
   6  -8   2 296.864 13.2109  13
  -6  -8  -2 293.579 10.8641   2
   6   8   2 294.073 11.8259  11
   6   8   2 300.355 12.2670   1
  -6   8  -2 323.130 13.2898   7
  -6   8  -2 296.430 10.8524   5
  -6   8  -2 318.548 10.8762   3
  -8  -8  -2 132.412 7.11429   8
  -8  -8  -2 130.512 7.62305   2
   8  -8   2 128.166 4.54898   6
  -8   8  -2 130.130 7.15094   3
   8   8   2 137.084 8.73317   1
   8   8   2 128.915 8.17026  11
  -8   8  -2 128.827 7.80173   5
  -9  -9   2 1.03273 2.27289   8
   9  -9  -2 2.43381 1.59151   6
  -9  -9   2 3.24514 2.39560   2
   9   9  -2 1.10565 2.84149   1
  -9   9   2 4.05281 2.42646   5
   9   9  -2 5.71039 3.60629  11
  -9   9   2 -0.0140 2.55078   3
   7  -9  -2 7.70375 1.96101   1
   7  -9  -2 9.40713 3.13871  13
   7  -9  -2 7.91195 2.01524   6
  -7  -9   2 9.11566 2.48633   8
  -7  -9   2 6.83830 2.19438   1
   7   9  -2 9.63299 2.66169   1
   7   9  -2 9.12439 3.22030  11
  -7   9   2 12.3969 2.70132   5
  -7   9   2 7.03207 2.53215   3
   5  -9  -2 12.3528 2.38754   1
  -5  -9   2 10.8380 2.84243   1
   5  -9  -2 12.5652 2.32762   6
   5  -9  -2 15.4957 4.00192  13
  -5  -9   2 9.09968 2.05742   8
   5   9  -2 13.9170 2.88758  11
   5   9  -2 11.5917 2.79981   1
  -5   9   2 9.37450 2.51428   3
  -3  -9   2 3.80253 1.31079   6
   3  -9  -2 11.0578 2.30892   1
   3  -9  -2 2.36143 2.16778  13
  -3  -9   2 -0.8377 1.33256   1
   3  -9  -2 1.12277 1.26509   6
   3   9  -2 2.21479 1.67990   7
  -3   9   2 2.35914 2.04838   7
   3   9  -2 2.12355 1.95873  11
  -3   9   2 4.84168 1.93310   3
   3   9  -2 1.04509 1.39893   1
   1  -9  -2 96.1657 4.84389   6
  -1  -9   2 96.5547 4.68134   6
   1  -9  -2 94.6900 6.00590  13
  -1  -9   2 93.4966 5.36334   1
   1   9  -2 88.8553 5.77703   7
  -1   9   2 89.2931 5.19402   3
   1   9  -2 92.4484 4.77748   3
  -1   9   2 95.7160 5.65981   7
   1   9  -2 93.9380 5.54999   4
   1   9  -2 95.1276 4.99022  11
  -1  -9  -2 9.37775 2.44136   1
   1  -9   2 7.05581 1.59376   6
   1  -9   2 12.4087 2.19424   1
   1   9   2 5.01842 1.86304   1
  -1   9  -2 6.82080 1.60944   3
  -1   9  -2 5.69680 2.34933   4
  -1   9  -2 10.0707 2.51757   7
   1   9   2 9.38390 2.06778  11
   3  -9   2 63.2183 6.02766  13
   3  -9   2 62.2823 3.46478   6
  -3  -9  -2 73.3453 5.02482   1
   3  -9   2 64.5634 3.63615   1
  -3  -9  -2 63.4912 4.72133   2
   3   9   2 64.7681 5.07262   1
   3   9   2 59.1930 4.98025  11
  -3   9  -2 62.2484 4.35302   3
  -3   9  -2 60.9779 5.80920   7
   5  -9   2 69.1364 6.43627  13
  -5  -9  -2 62.5914 5.29575   2
   5  -9   2 74.7730 3.71204   6
  -5  -9  -2 68.2219 4.73102   8
   5   9   2 70.5028 5.81626   1
  -5   9  -2 71.3941 5.21653   3
  -5   9  -2 72.1245 5.09098   5
   5   9   2 71.7393 6.12255  11
  -5   9  -2 77.1171 6.37549   7
  -7  -9  -2 8.36929 2.68595   8
  -7  -9  -2 6.92253 2.74183   2
   7  -9   2 8.01381 1.54598   6
  -7   9  -2 7.59112 2.63993   3
  -7   9  -2 11.3274 2.96991   5
   7   9   2 6.24415 2.50315   1
   7   9   2 5.89456 2.66005  11
   8 -10  -2 379.746 11.3357   6
  -8 -10   2 375.176 13.1760   2
  -8 -10   2 369.440 12.3222   8
   8  10  -2 368.456 14.3670  11
  -8  10   2 343.015 12.6289   3
   8  10  -2 341.989 14.5183   1
  -6 -10   2 43.2554 5.26085   1
   6 -10  -2 32.2521 3.60464   6
   6 -10  -2 28.2641 3.48365   1
  -6 -10   2 30.1654 3.97153   8
  -6  10   2 29.7695 4.23484   3
   6  10  -2 30.8497 4.66159  11
   6  10  -2 28.7942 4.37022   1
   4 -10  -2 764.619 19.4034   1
   4 -10  -2 761.768 18.3236   6
   4 -10  -2 720.884 23.1576  13
  -4 -10   2 771.496 20.6987   1
  -4  10   2 756.710 19.3391   3
   4  10  -2 766.344 19.9581  11
   2 -10  -2 53.0012 4.66471   1
  -2 -10   2 51.0162 4.61017   1
   2 -10  -2 57.3312 4.06808   6
   2 -10  -2 52.1317 5.10219  13
  -2 -10   2 52.3326 3.69683   6
  -2  10   2 52.1040 4.69641   7
  -2  10   2 50.8148 4.45335   3
   2  10  -2 59.0864 4.30506   3
   2  10  -2 56.9723 4.76214  11
   2  10  -2 57.1555 4.82537   7
   0 -10   2 1247.24 26.6771   6
   0 -10  -2 1280.04 29.6792  13
   0 -10   2 1295.58 28.2264   1
   0  10  -2 1270.91 27.0463   3
   0  10   2 1267.86 28.3236   3
   0  10  -2 1297.44 30.6389   7
   2 -10   2 72.9325 4.45977   1
   2 -10   2 68.8635 6.49276  13
  -2 -10  -2 76.6169 4.86245   2
   2 -10   2 72.9331 4.17684   6
  -2 -10  -2 69.4246 5.21876   1
  -2  10  -2 70.0143 5.96982   7
   2  10   2 65.1578 5.34166   1
  -2  10  -2 64.3385 4.52987   3
   2  10   2 66.3755 5.33691  11
  -4 -10  -2 1092.91 26.0034   2
   4 -10   2 1093.06 30.6714  13
   4 -10   2 1142.92 23.3809   6
  -4  10  -2 1098.63 25.3648   3
  -4  10  -2 1157.55 29.7630   7
   4  10   2 1108.84 28.2925   1
   4  10   2 1113.71 27.3007  11
   6 -10   2 31.4782 2.80730   6
  -6 -10  -2 25.5541 4.09381   2
   6  10   2 30.2445 4.98319   1
  -6  10  -2 24.2821 3.62265   3
   6  10   2 31.0315 4.62255  11
  -6  10  -2 35.6242 5.74490   7
  -7 -11   2 86.9732 6.35706   2
   7 -11  -2 83.6436 5.49789   6
  -7  11   2 89.4148 6.67212   3
   7  11  -2 85.8745 6.58418  11
   7  11  -2 72.1775 6.85517   1
   5 -11  -2 99.4766 5.73391   6
   5 -11  -2 105.436 6.07934   1
  -5 -11   2 100.069 7.17961   1
  -5  11   2 95.7430 6.11108   3
   5  11  -2 105.006 7.15222  11
   3 -11  -2 84.4063 5.78636   1
  -3 -11   2 76.7269 5.81918   1
   3 -11  -2 76.6397 7.24677  13
   3 -11  -2 80.6936 5.21809   6
   3  11  -2 80.6593 5.57959   3
  -3  11   2 79.1973 5.74345   3
   3  11  -2 74.9909 5.85089  11
   3  11  -2 79.5380 6.17563   7
  -3  11   2 85.1107 7.07457   7
   1 -11  -2 163.488 9.15995  13
  -1 -11   2 168.879 7.26201   6
  -1 -11   2 162.647 8.12506   1
   1 -11  -2 175.005 8.72522   1
   1 -11  -2 166.920 7.29870   6
   1  11  -2 179.747 7.67931   3
  -1  11   2 177.983 8.24168   3
   1  11  -2 174.317 9.07083   7
  -1  11   2 170.127 8.68422   7
   1 -11   2 49.4468 4.43631   1
   1 -11   2 48.3790 5.91076  13
  -1 -11  -2 52.5958 4.52655   2
   1 -11   2 49.6808 3.93623   6
  -1  11  -2 65.8348 6.44178   7
   1  11   2 46.7280 4.48947  11
  -1  11  -2 52.4738 4.34594   3
   1  11   2 54.8970 5.06568   3
   3 -11   2 93.5465 5.20993   6
   3 -11   2 87.4900 5.14250   1
  -3 -11  -2 94.3406 6.27653   2
  -3  11  -2 90.6098 5.85768   3
  -3  11  -2 89.4936 7.86105   7
   3  11   2 87.1828 6.41397   1
   3  11   2 92.7532 6.85400  11
  -5 -11  -2 35.2847 4.75582   2
   5 -11   2 42.7216 3.40024   6
   5  11   2 31.6734 4.77192  11
  -5  11  -2 41.0265 4.69187   3
   5  11   2 37.8601 5.42952   1
  -5  11  -2 38.8203 5.74138   7
  -6 -12   2 485.729 16.8664   1
   6 -12  -2 476.626 13.9816   6
  -6  12   2 456.270 15.2132   3
   4 -12  -2 102.342 6.59273   1
   4 -12  -2 110.690 6.26638   6
  -4 -12   2 102.685 7.45048   1
   4  12  -2 84.7735 5.78994   3
   4  12  -2 95.6623 7.07379  11
  -4  12   2 89.7495 6.44279   3
  -2 -12   2 555.551 17.5148   1
   2 -12  -2 621.266 22.9651  13
   2 -12  -2 547.657 17.2219   1
   2 -12  -2 550.854 15.6588   6
  -2  12   2 524.254 18.1664   7
   2  12  -2 552.715 16.0034   3
  -2  12   2 562.993 16.5456   3
   2  12  -2 547.371 17.9181   7
   0 -12   2 107.277 6.06305   6
   0 -12   2 112.294 6.91486   1
   0 -12  -2 116.719 7.73251   1
   0  12  -2 114.350 6.44589   3
   0  12  -2 117.317 8.42707   7
   0  12   2 101.654 7.02489   3
  -2 -12  -2 332.353 11.7120   2
   2 -12   2 346.640 11.0736   6
  -2 -12  -2 337.236 13.5638   1
  -2  12  -2 334.128 11.4355   3
   2  12   2 336.070 12.8671  11
  -2  12  -2 341.399 14.4793   7
   2  12   2 319.653 12.6398   3
  -4 -12  -2 97.9940 6.91281   2
  -4 -12  -2 90.6548 7.07199   1
   4 -12   2 93.3371 5.26197   6
  -4  12  -2 93.8984 8.42003   7
   4  12   2 89.5263 7.28243  11
  -4  12  -2 86.7807 6.00355   3
   4  12   2 86.3540 6.85111   1
  -3 -13   2 2.07576 2.61305   1
   3 -13  -2 3.92809 2.15103   1
   3 -13  -2 2.63261 2.14227   6
   3  13  -2 0.95977 2.32199   3
  -3  13   2 4.10660 2.78058   3
  -1 -13   2 12.0271 2.47480   6
   1 -13  -2 13.0976 3.54402   1
  -1 -13   2 15.1367 3.20887   1
   1  13  -2 12.1746 3.03726   3
  -1  13   2 10.8197 3.29406   3
   1  13  -2 13.9930 4.06113   7
  -1 -13  -2 0.38338 2.49958   1
  -1  13  -2 2.83381 2.31733   3
  -1  13  -2 4.42915 2.70804   7
   1  13   2 4.70635 2.77933   3
  12   0  -3 2.63648 3.40480  11
 -12   0   3 1.42210 1.95793   8
 -12   0   3 0.78373 2.38739   5
  12   0  -3 1.48103 1.99141   1
  12   0  -3 2.44392 2.00742   6
  10   0  -3 4.05142 1.90430   6
 -10   0   3 -1.9065 1.73688   5
  10   0  -3 0.76603 1.54598   1
  10   0  -3 -3.0514 1.88541  11
 -10   0   3 0.51870 1.50156   8
   8   0  -3 -1.0401 1.10481   1
   8   0  -3 1.07485 1.18062   6
   8   0  -3 1.31200 1.33089  11
   8   0  -3 1.80072 1.51873  13
  -8   0   3 0.15374 1.49077   3
  -8   0   3 0.92231 0.89003   8
  -8   0   3 0.22486 1.35549   5
  -6   0   3 0.04482 0.59969   1
  -6   0   3 0.09597 0.85368   3
   6   0  -3 0.24855 0.76790  11
   6   0  -3 1.00957 0.82769   6
  -6   0   3 1.17923 0.63452  12
   6   0  -3 1.72795 1.29612  13
   6   0  -3 2.30499 1.10972   1
  -6   0   3 0.36566 0.76795   8
   4   0  -3 1.89010 0.68878   1
   4   0  -3 0.22424 0.49331   6
   4   0  -3 1.68805 1.03190  13
  -4   0   3 0.34762 0.54864   1
  -4   0   3 3.43932 0.81733   9
  -4   0   3 -0.0377 0.47332  12
   2   0  -3 4.01656 0.61885  14
  -2   0   3 2.17138 0.46140   6
   2   0  -3 3.99554 0.72644   1
  -2   0   3 0.66652 0.42951   9
  -2   0   3 2.58191 0.93369  10
   2   0  -3 1.03581 0.55883  13
   0   0  -3 5.83990 0.85432  14
   0   0  -3 2.48159 0.60135   8
   0   0  -3 4.34704 1.05496  10
   2   0   3 0.31707 1.07423  10
  -2   0  -3 0.20116 0.61658   2
   2   0   3 0.87361 0.52145  11
  -2   0  -3 0.89301 0.79492   5
  -2   0  -3 2.92006 0.76378  14
  -4   0  -3 0.43191 0.53369   4
  -4   0  -3 4.28099 1.33548   8
   4   0   3 -0.1437 0.54363   1
   4   0   3 1.35949 0.54662   6
  -4   0  -3 0.74223 0.70514  14
  -4   0  -3 0.09712 1.03704   5
   4   0   3 0.41316 0.89522  11
  -4   0  -3 0.53915 0.91568   2
   4   0   3 5.48549 2.34039  10
  -6   0  -3 1.27781 1.19422   2
  -6   0  -3 0.33798 1.53727   5
   6   0   3 1.98855 0.88160   1
   6   0   3 -0.1811 1.48984  11
  -6   0  -3 1.09545 1.03603   8
   6   0   3 0.74299 0.70134   6
   6   0   3 5.33819 2.90188  10
  -8   0  -3 3.20848 2.43511   5
  -8   0  -3 9.86458 2.20048   8
   8   0   3 2.04664 1.74078  11
   8   0   3 0.23050 1.07227   6
  -8   0  -3 1.99293 1.53624   2
  11  -1  -3 183.923 9.05925  11
 -11  -1   3 192.310 7.93500   8
  11  -1  -3 203.446 8.56042   1
  11  -1  -3 206.519 8.21217   6
 -11  -1   3 196.472 8.67484   5
  11   1  -3 207.486 9.11198   1
  11   1  -3 194.817 8.34010   6
  11   1  -3 194.830 10.0673  11
 -11   1   3 189.151 8.64526   5
  -9  -1   3 620.116 15.2078   8
  -9  -1   3 629.771 15.7980   5
   9  -1  -3 612.468 15.8493   1
   9  -1  -3 624.072 15.2127   6
   9  -1  -3 627.079 16.4854  11
  -9   1   3 619.031 14.6836   8
  -9   1   3 627.283 17.0033   3
   9   1  -3 637.472 17.2031  11
  -9   1   3 634.441 16.2414   5
   9   1  -3 621.127 15.5448   6
   9   1  -3 599.348 16.2484   1
   7  -1  -3 1099.40 25.7936  13
  -7  -1   3 1154.84 22.4982  12
  -7  -1   3 1126.25 22.6659   8
  -7  -1   3 1209.89 25.2038   1
  -7  -1   3 1141.62 23.2023   5
   7  -1  -3 1152.65 23.7241   1
   7  -1  -3 1131.64 22.6689   6
  -7  -1   3 1092.80 21.3767   2
   7   1  -3 1136.48 23.0454   6
   7   1  -3 1147.30 24.0253  11
  -7   1   3 1142.79 22.1994  12
  -7   1   3 1130.76 24.0271   3
  -7   1   3 1100.30 22.1249   8
   7   1  -3 1078.38 24.8423  13
   7   1  -3 1132.19 24.1595   1
  -7   1   3 1143.68 23.5472   5
  -5  -1   3 1255.46 24.3667   3
  -5  -1   3 1236.08 23.4874  12
   5  -1  -3 1306.32 23.8798   6
  -5  -1   3 1302.14 24.4913   1
   5  -1  -3 1284.72 24.7450   1
   5  -1  -3 1261.30 26.4676  13
  -5   1   3 1251.65 23.3274  12
   5   1  -3 1284.61 24.1359   6
  -5   1   3 1236.59 24.5029   3
  -5   1   3 1277.86 24.3313   9
  -5   1   3 1243.47 23.8847   1
   5   1  -3 1269.33 24.3453  11
   5   1  -3 1240.99 25.0063   1
   5   1  -3 1304.34 26.1989  13
   5   1  -3 1258.56 23.4236   4
   3  -1  -3 4928.19 87.7182  14
   3  -1  -3 4831.81 91.4055   1
  -3  -1   3 4963.84 87.5398   9
  -3  -1   3 4809.93 90.7096   1
  -3  -1   3 4879.33 88.5505  12
   3  -1  -3 4762.25 89.1706   6
   3  -1  -3 4970.69 99.2505  13
  -3  -1   3 4899.61 89.6691   6
   3  -1  -3 4899.54 100.065  10
  -3  -1   3 5004.49 106.130  10
   3   1  -3 4773.28 88.0052  11
  -3   1   3 4958.68 87.7783  12
   3   1  -3 4921.02 98.3218  10
  -3   1   3 4966.77 103.185  10
   3   1  -3 4759.83 88.3989   6
  -3   1   3 4926.50 92.7404   1
   3   1  -3 4807.33 88.3577  14
  -3   1   3 4828.21 89.1801   3
  -3   1   3 4834.43 90.4190   9
   3   1  -3 4741.82 93.5484   1
   3   1  -3 4885.81 90.1106   4
   3   1  -3 4984.36 98.8124  13
   1  -1  -3 1171.09 22.0364  13
  -1  -1   3 1126.45 21.0272   1
   1  -1  -3 1142.77 20.9254   2
   1  -1  -3 1139.93 21.3083   1
  -1  -1   3 1175.78 23.4035  10
   1  -1  -3 1109.20 23.1836  10
   1  -1  -3 1168.77 20.7896   8
  -1  -1   3 1137.80 20.4326   6
  -1  -1   3 1166.50 20.6530  12
  -1  -1   3 1152.17 20.5878   9
   1  -1  -3 1138.16 20.9379  14
  -1   1   3 1150.60 20.7400   6
  -1   1   3 1156.53 21.3787   1
  -1   1   3 1182.50 20.5983  12
  -1   1   3 1162.01 21.0816   9
   1   1  -3 1136.79 22.8302  10
   1   1  -3 1158.97 21.1311   2
   1   1  -3 1145.00 21.4002   7
   1   1  -3 1170.80 21.1486  14
   1   1  -3 1160.19 21.3269   4
  -1   1   3 1203.08 24.0455  10
  -1  -1  -3 3500.58 67.9900  14
  -1  -1  -3 3715.66 69.5977   5
  -1  -1  -3 3630.93 70.1503   2
  -1  -1  -3 3780.38 67.2398   8
  -1  -1  -3 3724.85 65.3337   4
   1  -1   3 3995.21 73.6860  10
   1  -1   3 3708.20 67.1293   1
  -1   1  -3 3626.16 67.0835   8
   1   1   3 3689.51 71.6412   1
  -1   1  -3 3661.19 67.8039   3
   1   1   3 3799.12 69.3242   6
  -1   1  -3 3586.56 68.7692   4
  -1   1  -3 3798.94 69.6370  14
  -1   1  -3 3814.45 70.5869   5
   1   1   3 3836.74 82.5854  10
   1   1   3 3685.26 66.4153  11
  -1   1  -3 3733.02 67.7292   2
  -1   1  -3 3721.06 70.2481   7
   3  -1   3 1325.54 30.2456  10
  -3  -1  -3 1256.67 25.0089   8
   3  -1   3 1283.20 23.0169   1
  -3  -1  -3 1270.26 23.3425   4
  -3  -1  -3 1265.70 24.0993  14
  -3  -1  -3 1285.47 24.9870   2
  -3  -1  -3 1272.57 25.2493   5
  -3   1  -3 1300.84 24.5855   7
  -3   1  -3 1321.83 25.0796   2
  -3   1  -3 1358.54 25.8441   5
   3   1   3 1306.04 23.5300   6
   3   1   3 1279.18 24.4803  11
   3   1   3 1281.66 30.4270  10
   3   1   3 1286.01 24.3902   1
  -3   1  -3 1282.14 24.4069  14
  -3   1  -3 1273.49 24.2604   4
  -3   1  -3 1280.57 24.7760   3
  -3   1  -3 1274.03 24.9468   8
   5  -1   3 704.812 22.0908  10
  -5  -1  -3 682.047 14.5941  14
   5  -1   3 708.086 15.8011  11
  -5  -1  -3 692.807 16.6092   5
  -5  -1  -3 719.830 16.2501   8
   5  -1   3 703.672 13.1227   6
   5  -1   3 686.744 13.9107   1
  -5  -1  -3 693.631 15.9242   2
  -5   1  -3 708.573 16.0527   8
  -5   1  -3 676.552 14.7548  14
   5   1   3 710.629 14.6311   6
   5   1   3 701.077 16.1571  11
   5   1   3 713.518 22.6860  10
   5   1   3 682.427 15.2267   1
  -5   1  -3 708.777 15.8616   2
  -5   1  -3 709.034 17.0037   5
  -7  -1  -3 623.358 15.9709   8
  -7  -1  -3 612.737 15.4041   2
   7  -1   3 605.745 13.0753   6
  -7  -1  -3 587.786 16.2915   5
   7  -1   3 588.975 15.6185  11
   7   1   3 632.909 14.4089   6
   7   1   3 581.893 14.4870   1
  -7   1  -3 621.431 16.8597   5
   7   1   3 602.712 16.3350  11
  -7   1  -3 617.570 15.6002   8
   9  -1   3 143.567 7.85339  11
  -9  -1  -3 145.472 7.56638   8
  -9  -1  -3 147.910 7.70890   5
   9  -1   3 148.588 5.75365   6
  -9   1  -3 159.094 8.60469   5
   9   1   3 137.564 8.04385  11
   9   1   3 148.328 6.48788   6
  -9   1  -3 145.243 6.99846   8
  12  -2  -3 81.1821 7.03391  11
 -12  -2   3 70.0542 5.52481   8
  12  -2  -3 78.2030 5.68068   6
  12  -2  -3 80.4387 5.50514   1
 -12   2   3 78.5921 6.50644   5
  12   2  -3 72.6012 6.61281  11
  12   2  -3 76.8948 5.80600   6
  10  -2  -3 188.825 7.40014   6
 -10  -2   3 196.468 8.01026   5
  10  -2  -3 188.161 8.62197  11
 -10  -2   3 190.302 7.79884   8
  10  -2  -3 196.228 7.89224   1
  10   2  -3 187.077 8.03007   6
  10   2  -3 191.579 8.70999   1
 -10   2   3 202.267 9.14921   3
  10   2  -3 194.300 9.13838  11
 -10   2   3 177.377 8.36358   5
  -8  -2   3 259.213 8.25814   5
   8  -2  -3 269.626 8.64088   1
  -8  -2   3 254.100 8.23497   8
  -8  -2   3 261.175 7.30825   2
   8  -2  -3 259.164 10.5652  13
   8  -2  -3 270.756 8.01150   6
  -8   2   3 262.214 9.16819   3
   8   2  -3 276.362 8.75160   6
  -8   2   3 260.118 7.44812   8
  -8   2   3 260.491 8.84232   5
   8   2  -3 267.381 9.33548  11
   8   2  -3 272.442 9.32757   1
   6  -2  -3 305.331 8.41754   1
  -6  -2   3 292.837 8.27766   1
  -6  -2   3 319.521 7.83894  12
  -6  -2   3 297.868 7.88116   5
   6  -2  -3 306.132 10.4089  13
   6  -2  -3 315.444 7.87394   6
  -6   2   3 303.907 7.24822   8
   6   2  -3 312.828 8.78323  11
   6   2  -3 308.339 8.25247   6
  -6   2   3 293.317 8.60462   3
  -6   2   3 310.477 8.55694   5
  -6   2   3 313.676 7.40431  12
   6   2  -3 298.140 9.01802   1
   6   2  -3 298.902 9.31299  13
   4  -2  -3 698.086 13.8532   6
   4  -2  -3 694.007 14.6812   1
  -4  -2   3 688.303 13.6468   6
  -4  -2   3 691.945 13.6254  12
   4  -2  -3 707.139 16.3715  13
  -4  -2   3 688.873 14.6416   1
  -4   2   3 700.920 14.2468   9
   4   2  -3 687.718 14.0617  11
  -4   2   3 694.506 13.2726  12
   4   2  -3 712.092 15.8101  13
   4   2  -3 696.129 14.0347   6
  -4   2   3 695.135 14.3187   3
   4   2  -3 709.753 13.7872   4
  -4   2   3 699.528 14.1227   1
   4   2  -3 694.552 15.0601   1
   2  -2  -3 461.459 9.43314   6
  -2  -2   3 468.680 9.30663   6
  -2  -2   3 475.739 11.4891  10
   2  -2  -3 477.502 10.9686  13
   2  -2  -3 452.830 11.8440  10
   2  -2  -3 472.891 10.2477   1
  -2  -2   3 495.939 8.87372   9
   2  -2  -3 455.195 8.88094   2
  -2  -2   3 463.745 9.15236  12
  -2  -2   3 459.065 9.91253   1
   2   2  -3 464.716 9.10518  11
  -2   2   3 457.070 8.92754  12
   2   2  -3 460.728 9.47048  14
  -2   2   3 459.858 9.30743   6
  -2   2   3 465.749 9.37926   3
   2   2  -3 451.997 11.1294  10
   2   2  -3 463.323 10.3437   7
  -2   2   3 476.411 10.0643   1
  -2   2   3 478.665 12.2032  10
   2   2  -3 467.722 9.88347   4
  -2   2   3 454.141 9.64691   9
   2   2  -3 466.628 9.87649   1
   0  -2  -3 680.924 16.0967  10
   0  -2   3 727.101 16.0139  10
   0  -2  -3 709.041 14.1294   1
   0  -2  -3 713.818 13.6686   8
   0  -2   3 717.437 13.1705   9
   0  -2  -3 704.790 13.9324   2
   0  -2   3 708.146 13.3021   1
   0  -2   3 721.683 13.3137  12
   0  -2   3 704.289 12.4947   6
   0  -2  -3 722.245 14.1817  13
   0  -2   3 721.844 12.5047   6
   0   2  -3 709.431 14.1002   5
   0   2  -3 718.252 14.3482   4
   0   2   3 718.584 14.3737   1
   0   2  -3 714.185 14.1677  14
   0   2  -3 683.265 15.2189  10
   0   2  -3 708.985 14.1544   2
   0   2   3 703.813 13.9903   9
   0   2   3 707.405 13.1104  11
   0   2  -3 717.053 14.2784   7
   0   2   3 706.735 13.5974   6
   0   2  -3 712.538 13.8338   8
   0   2   3 709.729 16.7925  10
   2  -2   3 669.445 17.2628  10
   2  -2   3 662.866 11.8092   1
  -2  -2  -3 659.906 13.4052  14
  -2  -2  -3 650.012 13.9517   2
  -2  -2  -3 658.258 13.9326   8
  -2  -2  -3 644.385 13.1896   1
  -2  -2  -3 644.895 12.6659   4
  -2  -2  -3 653.486 13.8119   5
   2   2   3 678.980 14.1307   1
   2   2   3 668.016 13.2401   6
  -2   2  -3 670.622 14.1578   7
  -2   2  -3 670.454 14.5299   5
  -2   2  -3 669.672 13.8301  14
   2   2   3 658.958 13.4131  11
  -2   2  -3 681.866 14.0963   2
  -2   2  -3 644.007 13.6902   8
  -2   2  -3 676.799 14.0371   4
   2   2   3 677.207 18.2000  10
  -2   2  -3 671.319 13.4604   3
  -4  -2  -3 277.776 8.16558   8
  -4  -2  -3 278.445 8.06266   2
   4  -2   3 275.045 11.7040  10
  -4  -2  -3 262.434 7.91748   5
  -4  -2  -3 266.896 7.01118  14
  -4   2  -3 279.665 7.99363   3
   4   2   3 272.463 7.20841   6
  -4   2  -3 279.635 8.70140   5
  -4   2  -3 275.483 7.84106   8
   4   2   3 264.875 7.91093  11
  -4   2  -3 268.660 7.32840  14
   4   2   3 288.517 8.03962   1
   4   2   3 275.077 12.1989  10
  -4   2  -3 288.996 7.90991   2
  -4   2  -3 277.275 8.10305   7
  -4   2  -3 265.893 7.36511   4
   6  -2   3 306.481 6.52964   6
  -6  -2  -3 302.509 9.47957   2
   6  -2   3 309.745 9.38533  11
   6  -2   3 296.263 14.1689  10
  -6  -2  -3 306.482 9.72027   8
  -6  -2  -3 310.207 9.86863   5
   6   2   3 308.367 9.32427   1
  -6   2  -3 298.876 8.84420   2
  -6   2  -3 304.203 10.3825   5
   6   2   3 289.732 9.80927  11
   6   2   3 303.518 8.67169   6
  -6   2  -3 306.396 9.18349   8
   8  -2   3 121.519 6.72055  11
  -8  -2  -3 134.890 6.55728   2
  -8  -2  -3 133.056 7.01289   5
   8  -2   3 124.910 4.55227   6
  -8  -2  -3 120.694 6.41338   8
  -8   2  -3 121.752 7.42750   5
  -8   2  -3 133.488 6.45680   8
   8   2   3 133.814 6.22332   1
   8   2   3 130.759 5.99982   6
  11  -3  -3 521.673 14.9577   1
  11  -3  -3 546.193 16.7121  11
 -11  -3   3 544.496 15.5931   8
  11  -3  -3 564.331 14.8985   6
 -11   3   3 558.010 16.8098   5
  11   3  -3 551.765 17.9885  11
  11   3  -3 564.741 17.2383   1
 -11   3   3 545.938 17.1970   3
  11   3  -3 551.248 16.0936   6
  -9  -3   3 49.0706 3.71133   8
   9  -3  -3 42.9392 5.04242  13
  -9  -3   3 45.7441 3.67652   5
   9  -3  -3 54.4069 3.70296   6
   9  -3  -3 59.3345 4.13135   1
   9   3  -3 42.7687 4.58194  11
  -9   3   3 49.5709 4.65853   3
   9   3  -3 50.9342 3.86988   6
  -9   3   3 44.6675 3.89497   5
   9   3  -3 44.9862 4.13737   1
  -7  -3   3 1921.94 35.7643  12
   7  -3  -3 1871.41 40.2541  13
   7  -3  -3 1903.42 36.5330   1
  -7  -3   3 1893.13 35.7733   5
   7  -3  -3 1906.69 35.7283   6
  -7  -3   3 1911.48 36.3440   8
  -7  -3   3 1872.24 36.5443   1
  -7   3   3 1913.26 37.4955   3
  -7   3   3 1927.86 37.0833   5
   7   3  -3 1929.98 37.7037  11
   7   3  -3 1932.22 38.3093   1
   7   3  -3 1899.21 36.7622   6
  -7   3   3 1857.12 34.5872   8
  -5  -3   3 162.451 4.80758  12
  -5  -3   3 172.886 5.80826   1
   5  -3  -3 169.705 7.16140  13
   5  -3  -3 164.292 4.99440   6
   5  -3  -3 169.132 5.63350   1
   5   3  -3 163.062 5.47004  11
  -5   3   3 171.569 5.68221   3
  -5   3   3 172.045 5.49138   9
   5   3  -3 169.608 6.14100   1
   5   3  -3 172.786 5.34678   6
   5   3  -3 160.587 4.51951   4
  -5   3   3 157.421 4.09159   8
  -5   3   3 159.812 4.38294  12
  -5   3   3 160.290 4.82005   1
   3  -3  -3 5595.97 109.777   1
   3  -3  -3 5840.12 114.127  13
  -3  -3   3 5852.39 105.970  12
  -3  -3   3 5831.38 107.001   6
  -3  -3   3 5713.69 109.555   1
   3  -3  -3 5906.84 108.307   6
  -3   3   3 5899.53 109.435   9
   3   3  -3 5846.65 107.466   1
   3   3  -3 5858.15 108.319  14
  -3   3   3 5981.20 124.814  10
   3   3  -3 5610.29 108.129   4
   3   3  -3 5979.08 118.204  10
  -3   3   3 5828.01 104.574   1
   3   3  -3 5859.50 113.590   7
  -3   3   3 5980.60 104.663  12
   3   3  -3 6118.21 102.368  11
  -3   3   3 6068.70 109.982   3
   1  -3  -3 735.704 13.5205   8
   1  -3  -3 746.589 15.4105  13
   1  -3  -3 716.557 16.5856  10
   1  -3  -3 718.454 14.0073   6
  -1  -3   3 725.335 13.5667  12
  -1  -3   3 743.934 13.6433   6
  -1  -3   3 741.001 15.6306  10
   1  -3  -3 795.164 14.1614   2
  -1  -3   3 719.973 14.3816   1
   1  -3  -3 702.916 14.9542   1
  -1   3   3 730.908 14.9126   1
   1   3  -3 726.155 15.1217  10
  -1   3   3 705.536 14.0456   6
   1   3  -3 725.390 15.0995   7
   1   3  -3 713.850 13.2685   3
  -1   3   3 732.014 14.4465   9
  -1   3   3 733.844 16.9954  10
  -1   3   3 731.508 13.4229  12
  -1   3   3 723.645 13.9054  11
   1   3  -3 715.483 13.7087  11
   1   3  -3 717.531 14.5084  14
   1   3  -3 742.971 15.0572   4
   1  -3   3 5243.38 96.5384   1
  -1  -3  -3 5315.90 98.9431   8
  -1  -3  -3 5159.97 100.141   2
  -1  -3  -3 5402.41 97.0549   1
   1  -3   3 5574.49 114.033  10
  -1  -3  -3 5319.56 98.8014  13
  -1   3  -3 5284.79 99.4468   7
  -1   3  -3 5569.23 98.2528   8
   1   3   3 5665.94 116.726  10
  -1   3  -3 5323.87 98.3034   3
   1   3   3 5344.04 98.4241  11
   1   3   3 5362.25 98.4085   9
  -1   3  -3 5263.30 92.9136   5
   1   3   3 5417.18 99.5058   6
  -1   3  -3 5178.40 98.3388   2
   1   3   3 5335.90 105.045   1
  -1   3  -3 5285.29 100.217   4
  -1   3  -3 5455.92 101.696  14
   3  -3   3 373.849 12.7255  10
  -3  -3  -3 374.971 9.39249   5
  -3  -3  -3 390.684 9.81516   8
  -3  -3  -3 394.989 9.13565  14
  -3  -3  -3 394.612 9.86828   2
  -3   3  -3 394.313 9.78814   2
   3   3   3 385.892 9.67107  11
  -3   3  -3 387.524 10.4003   5
   3   3   3 380.716 9.31154   6
  -3   3  -3 388.450 9.43852   3
  -3   3  -3 394.392 9.58740  14
  -3   3  -3 396.340 10.3530   7
  -3   3  -3 388.276 9.45918   8
   3   3   3 385.134 13.9235  10
  -3   3  -3 383.384 9.82860   4
   3   3   3 390.480 10.1735   1
  -5  -3  -3 1547.41 30.8374   8
  -5  -3  -3 1493.27 30.3246   5
   5  -3   3 1487.97 31.5397  13
   5  -3   3 1499.47 36.8242  10
  -5  -3  -3 1494.43 28.8445  14
  -5  -3  -3 1604.09 30.8272   2
  -5   3  -3 1550.00 31.3843   7
  -5   3  -3 1567.49 30.2362   8
  -5   3  -3 1575.26 30.7201   3
  -5   3  -3 1530.23 30.1036   2
  -5   3  -3 1537.54 31.7683   5
   5   3   3 1512.25 29.8873   6
  -5   3  -3 1483.10 29.7873   4
  -5   3  -3 1538.37 29.4483  14
   5   3   3 1501.50 31.0157  11
   5   3   3 1536.53 30.9851   1
   5   3   3 1499.32 38.3445  10
   7  -3   3 77.7535 2.76439   6
  -7  -3  -3 81.9483 4.90413   2
   7  -3   3 76.0625 4.99647  11
  -7  -3  -3 79.2625 4.97468   8
  -7  -3  -3 79.9830 5.12350   5
   7   3   3 81.0514 4.92214   6
   7   3   3 77.1175 5.72225  11
   7   3   3 78.4903 4.76119   1
  -7   3  -3 78.8072 4.50748   8
  -7   3  -3 79.8183 5.74552   5
  -9  -3  -3 335.806 11.3033   2
   9  -3   3 331.251 12.0158  11
   9  -3   3 346.522 8.88566   6
  -9  -3  -3 341.171 12.1767   8
   9   3   3 363.479 11.6246   6
   9   3   3 343.443 11.6043   1
  -9   3  -3 342.327 13.1552   5
  10  -4  -3 147.237 6.45263   6
 -10  -4   3 152.923 7.10948   8
  10  -4  -3 156.844 6.88912   1
  10   4  -3 164.395 9.13266  11
 -10   4   3 156.550 8.20301   3
  10   4  -3 155.338 7.37052   6
 -10   4   3 158.696 8.07404   5
  10   4  -3 159.597 8.56804   1
   8  -4  -3 237.413 7.49095   6
  -8  -4   3 247.785 8.24541   8
   8  -4  -3 234.974 10.6229  13
   8  -4  -3 228.752 7.93627   1
   8   4  -3 238.146 8.35006   6
   8   4  -3 236.793 9.42397  11
   8   4  -3 228.569 9.33285   1
  -8   4   3 235.156 8.70726   5
  -8   4   3 241.028 9.15238   3
   6  -4  -3 331.394 11.9813  13
  -6  -4   3 347.394 8.74700  12
  -6  -4   3 352.860 9.38801   8
   6  -4  -3 352.723 8.83957   6
  -6  -4   3 331.144 8.31191   5
  -6  -4   3 338.829 9.79888   1
   6  -4  -3 358.656 9.61225   1
  -6   4   3 358.387 9.79936   5
  -6   4   3 353.955 9.92413   3
   6   4  -3 338.918 9.81527  11
   6   4  -3 346.081 9.40505   6
   6   4  -3 342.488 10.5260   1
  -6   4   3 345.097 7.94422  12
  -4  -4   3 1208.85 23.2114   6
   4  -4  -3 1235.61 26.6323  13
   4  -4  -3 1235.28 23.2976   6
  -4  -4   3 1239.45 24.6379   1
  -4  -4   3 1235.79 22.8112  12
   4  -4  -3 1254.84 24.3799   1
   4   4  -3 1232.09 23.9443  11
   4   4  -3 1227.95 24.7894   1
   4   4  -3 1184.11 23.2533   6
  -4   4   3 1205.40 23.5642   9
   4   4  -3 1234.69 24.8942   7
  -4   4   3 1244.97 23.9869   3
   4   4  -3 1198.93 23.1990   4
  -4   4   3 1213.72 21.9724  12
  -2  -4   3 862.943 16.8488   6
  -2  -4   3 888.268 16.2922  12
   2  -4  -3 859.253 17.1112   6
   2  -4  -3 885.214 16.4237   2
   2  -4  -3 879.034 19.0553  13
  -2  -4   3 861.430 17.7256   1
   2  -4  -3 892.221 18.2388   1
  -2   4   3 891.376 19.9993  10
   2   4  -3 876.600 17.4949   1
  -2   4   3 871.102 15.8466  12
   2   4  -3 894.417 17.9370   4
   2   4  -3 886.542 17.9328  10
   2   4  -3 874.514 18.3602   7
   2   4  -3 887.436 17.3717  14
  -2   4   3 885.813 17.4277   3
  -2   4   3 890.455 17.2669   9
  -2   4   3 881.428 17.8112   1
   2   4  -3 879.013 17.0804  11
   0  -4   3 1243.85 23.1845   1
   0  -4  -3 1271.38 24.1594  13
   0  -4   3 1289.66 24.6596  10
   0  -4   3 1264.32 22.4551  12
   0  -4  -3 1235.65 24.4854   1
   0  -4  -3 1209.06 23.1121   6
   0  -4  -3 1227.15 22.8813   8
   0  -4   3 1251.93 22.3162   6
   0  -4  -3 1246.11 23.5996   2
   0   4  -3 1227.87 24.0672  14
   0   4   3 1238.62 23.4933   6
   0   4  -3 1293.69 24.8172   4
   0   4   3 1254.87 23.7152   9
   0   4  -3 1251.54 24.8697   7
   0   4   3 1264.11 24.6533   1
   0   4   3 1278.53 27.0385  10
   0   4   3 1251.25 23.4281  11
   0   4  -3 1266.41 23.5707   5
   0   4  -3 1245.51 22.7704   3
   2  -4   3 795.324 19.3776  10
  -2  -4  -3 797.973 17.0338   1
  -2  -4  -3 860.506 17.3131   2
   2  -4   3 789.794 14.7402   1
  -2  -4  -3 793.857 16.7279   8
  -2  -4  -3 767.935 15.3892  13
   2   4   3 795.944 16.7114  11
  -2   4  -3 828.629 17.0864   2
  -2   4  -3 808.688 18.0066   7
  -2   4  -3 801.724 17.5458   4
  -2   4  -3 806.315 17.4382   5
   2   4   3 814.867 16.7400   6
   2   4   3 852.272 21.7391  10
  -2   4  -3 832.142 16.4437   3
  -2   4  -3 810.797 16.3478   8
   2   4   3 815.990 17.0938   9
  -2   4  -3 791.100 16.9809  14
   2   4   3 843.611 18.0447   1
  -4  -4  -3 206.767 6.52738   5
  -4  -4  -3 211.078 7.21928   2
   4  -4   3 213.303 9.79118  10
  -4  -4  -3 225.344 6.53596  14
  -4  -4  -3 224.635 7.39958   8
   4   4   3 226.005 7.24042   6
  -4   4  -3 221.909 8.00314   7
   4   4   3 217.430 7.75059   1
  -4   4  -3 232.354 7.13363   3
  -4   4  -3 219.189 6.76086   8
   4   4   3 216.927 7.38111  11
  -4   4  -3 222.702 6.97518  14
   4   4   3 217.392 11.0969  10
  -4   4  -3 220.432 7.87837   5
  -4   4  -3 222.005 7.08353   2
  -4   4  -3 217.367 7.27825   4
   6  -4   3 177.518 10.4404  10
  -6  -4  -3 198.854 7.86742   8
  -6  -4  -3 187.021 7.60501   2
   6   4   3 203.726 8.19989   1
  -6   4  -3 192.116 7.62622   3
  -6   4  -3 198.045 7.04334   8
   6   4   3 188.032 8.29555  11
   6   4   3 198.211 7.47868   6
  -6   4  -3 195.706 8.35125   5
  -8  -4  -3 63.4955 5.03274   2
   8  -4   3 60.1007 2.62458   6
  -8  -4  -3 60.0259 4.78073   8
   8  -4   3 61.2352 5.06039  11
   8   4   3 64.0735 5.09111   1
   8   4   3 67.3488 4.95030   6
   8   4   3 65.7131 6.36628  11
  -8   4  -3 60.3087 5.70435   5
  11  -5  -3 204.061 7.95458   6
 -11  -5   3 202.947 9.02162   8
 -11   5   3 215.744 10.1063   3
  11   5  -3 186.691 10.2069  11
  11   5  -3 200.461 10.2516   1
 -11   5   3 196.112 9.54377   5
   9  -5  -3 547.468 19.1197  13
   9  -5  -3 585.464 14.9730   1
  -9  -5   3 575.588 14.7630   2
  -9  -5   3 574.106 15.5378   8
   9  -5  -3 575.470 14.2582   6
  -9   5   3 580.961 16.5138   3
   9   5  -3 581.249 17.3508  11
  -9   5   3 578.949 16.3681   5
   9   5  -3 590.245 17.5615   1
   7  -5  -3 765.375 17.5257   1
   7  -5  -3 774.820 16.7232   6
  -7  -5   3 759.315 17.5676   8
  -7  -5   3 782.135 18.4065   1
   7  -5  -3 762.261 21.8120  13
   7   5  -3 760.671 18.8243  11
   7   5  -3 750.210 18.4945   7
   7   5  -3 767.788 19.5000   1
  -7   5   3 770.491 18.0527   5
   7   5  -3 742.462 17.7404   6
  -7   5   3 759.728 18.3407   3
   5  -5  -3 1361.27 27.3702   1
  -5  -5   3 1414.52 26.1214  12
   5  -5  -3 1374.01 26.4545   6
   5  -5  -3 1386.05 31.0713  13
  -5  -5   3 1385.24 28.1234   1
   5   5  -3 1427.99 27.8235  11
   5   5  -3 1373.00 28.6050   1
  -5   5   3 1381.95 27.0942   5
  -5   5   3 1312.60 24.7394  12
  -5   5   3 1403.46 27.6920   3
   5   5  -3 1356.02 28.2132   7
  -5   5   3 1336.65 26.8306   9
  -3  -5   3 1220.90 24.3293   1
  -3  -5   3 1202.32 23.0152   6
  -3  -5   3 1192.46 22.0383  12
   3  -5  -3 1193.17 24.2205   1
   3  -5  -3 1222.94 26.2989  13
   3  -5  -3 1068.35 21.5071   2
   3  -5  -3 1188.67 23.0211   6
  -3   5   3 1166.55 23.3291   1
  -3   5   3 1237.34 23.7222   3
  -3   5   3 1213.57 23.1128   9
   3   5  -3 1198.48 23.9920   1
   3   5  -3 1242.98 23.5655  11
   3   5  -3 1272.36 24.8134   7
  -3   5   3 1174.93 21.1343  12
  -3   5   3 1203.38 26.1263  10
   3   5  -3 1209.35 23.6414   4
   1  -5  -3 1311.83 25.9590   1
   1  -5  -3 1273.06 24.2066   2
   1  -5  -3 1365.36 26.3814  13
  -1  -5   3 1292.33 24.9616   1
   1  -5  -3 1227.86 24.3340   6
   1  -5  -3 1293.63 22.9582   8
  -1  -5   3 1341.37 24.0706   6
  -1  -5   3 1299.10 23.1412  12
   1   5  -3 1318.96 24.5118  11
  -1   5   3 1321.36 24.6519   9
   1   5  -3 1289.71 26.0161   7
   1   5  -3 1304.26 23.9211   3
  -1   5   3 1260.35 22.8668  12
  -1   5   3 1308.01 27.4181  10
  -1   5   3 1261.88 24.2024   6
  -1   5   3 1306.48 25.6178   1
   1   5  -3 1242.60 23.9355   1
   1   5  -3 1308.37 25.7743   4
   1   5  -3 1316.85 25.2321  14
  -1   5   3 1310.23 25.0798   3
  -1   5   3 1264.14 24.6130  11
   1  -5   3 826.378 15.5204  12
   1  -5   3 826.378 16.1332   1
   1  -5   3 822.930 15.2697   6
  -1  -5  -3 816.031 16.5211   8
  -1  -5  -3 859.093 16.7698  13
  -1  -5  -3 839.254 17.3191   2
   1  -5   3 818.970 17.8829  10
   1   5   3 826.647 20.5457  10
  -1   5  -3 876.716 18.5252   4
  -1   5  -3 824.613 17.7313  14
   1   5   3 826.073 18.3645   1
  -1   5  -3 836.525 18.6334   7
   1   5   3 814.084 17.1336  11
  -1   5  -3 824.779 16.4474   3
   1   5   3 816.306 17.0261   6
  -1   5  -3 812.605 17.1716   5
   1   5   3 850.242 17.2397   9
   3  -5   3 860.638 21.8024  10
  -3  -5  -3 884.483 18.8176   8
  -3  -5  -3 911.097 19.3104   2
  -3   5  -3 883.755 19.1132  14
   3   5   3 873.048 20.3042   1
   3   5   3 884.432 24.2903  10
   3   5   3 898.391 19.2773   9
  -3   5  -3 869.654 19.4771   5
   3   5   3 860.568 19.0490  11
  -3   5  -3 895.306 18.5918   3
  -3   5  -3 869.331 18.8575   2
  -3   5  -3 891.623 19.8580   4
  -3   5  -3 880.751 20.4175   7
   3   5   3 895.964 18.9499   6
  -3   5  -3 873.108 18.0053   8
   5  -5   3 446.749 14.2476  13
  -5  -5  -3 459.286 12.5704   8
  -5  -5  -3 458.037 12.6124   2
  -5  -5  -3 440.607 11.0653  14
  -5   5  -3 453.475 13.2380   5
  -5   5  -3 454.938 13.7204   7
   5   5   3 454.079 12.4890   6
  -5   5  -3 451.480 11.8273  14
  -5   5  -3 454.713 11.4894   8
  -5   5  -3 457.068 11.8554   2
  -5   5  -3 453.936 12.2063   3
   5   5   3 457.787 13.5181   1
   5   5   3 450.108 12.9679   9
  -5   5  -3 456.288 12.6678   4
   5   5   3 447.880 13.0999  11
   5   5   3 435.042 18.0568  10
  -7  -5  -3 496.999 14.5456   2
   7  -5   3 512.842 9.89983   6
  -7  -5  -3 531.938 15.0555   8
   7   5   3 520.227 15.7245   1
  -7   5  -3 545.975 15.0954   3
   7   5   3 491.512 14.3923   6
   7   5   3 484.543 15.6124  11
  -7   5  -3 506.517 15.5921   5
   9  -5   3 177.104 5.15581   6
  -9  -5  -3 173.951 8.68522   8
  -9  -5  -3 172.918 8.01882   2
   9  -5   3 170.281 8.26566  11
   9   5   3 173.660 8.67317   1
  -9   5  -3 177.721 9.29653   5
   9   5   3 174.153 8.36409   6
   9   5   3 178.069 9.31394   9
   9   5   3 163.671 8.85621  11
  10  -6  -3 46.1553 3.86400   1
 -10  -6   3 54.2912 5.11122   8
  10  -6  -3 48.0761 3.82947   6
  10   6  -3 47.3380 5.61582   1
 -10   6   3 53.6879 5.62041   5
  10   6  -3 41.7916 5.76020  11
 -10   6   3 46.4343 5.31618   3
   8  -6  -3 188.771 6.78304   6
  -8  -6   3 181.333 7.64443   8
  -8  -6   3 200.777 9.75272   1
   8  -6  -3 189.422 7.18319   1
   8  -6  -3 180.440 10.4455  13
   8   6  -3 190.508 9.20282   1
  -8   6   3 191.383 8.18972   3
  -8   6   3 185.831 7.99091   5
   8   6  -3 197.610 9.12988  11
   6  -6  -3 500.288 16.4873  13
  -6  -6   3 523.558 13.0345   8
   6  -6  -3 514.394 12.3105   6
  -6  -6   3 511.100 13.9992   1
   6  -6  -3 521.348 13.1841   1
   6   6  -3 476.494 13.5566   7
   6   6  -3 519.559 14.6825   1
  -6   6   3 523.980 13.2663   5
   6   6  -3 493.200 13.6847  11
  -6   6   3 517.982 13.7613   3
  -4  -6   3 308.363 7.53955  12
   4  -6  -3 327.087 8.55063   6
  -4  -6   3 292.132 8.21297   6
   4  -6  -3 325.042 11.5664  13
   4  -6  -3 316.352 9.28907   1
  -4  -6   3 328.926 9.73704   1
   4   6  -3 331.359 9.25354  11
   4   6  -3 325.701 9.80028   7
  -4   6   3 302.693 8.29727   9
  -4   6   3 319.919 8.39723   5
   4   6  -3 306.906 9.49768   1
  -4   6   3 327.859 9.19573   3
   4   6  -3 334.547 8.62880   4
   2  -6  -3 1030.90 20.2297   2
   2  -6  -3 1074.93 22.5415   1
   2  -6  -3 1077.18 21.2343   6
  -2  -6   3 1079.82 20.9751   6
  -2  -6   3 1053.61 22.0393   1
  -2  -6   3 1028.79 19.3953  12
   2  -6  -3 1072.53 23.7618  13
   2   6  -3 1063.44 21.3614  11
   2   6  -3 1048.40 22.1093   4
  -2   6   3 1090.16 22.0020   1
   2   6  -3 1051.94 21.2954   1
   2   6  -3 1078.88 22.8472   7
  -2   6   3 1081.88 21.7872   3
  -2   6   3 1054.30 23.3396  10
  -2   6   3 1064.24 20.8739   9
   0  -6  -3 579.096 13.0128   6
   0  -6   3 627.635 12.5919   6
   0  -6  -3 582.797 12.0030   8
   0  -6  -3 606.963 14.1658  13
   0  -6  -3 614.033 14.6672   1
   0  -6   3 614.520 13.3793   1
   0  -6  -3 605.876 13.4056   2
   0   6   3 615.120 14.6729   1
   0   6  -3 608.524 14.8351   4
   0   6  -3 594.839 12.7679   3
   0   6   3 588.256 13.1585   6
   0   6   3 577.609 13.4827  11
   0   6  -3 611.991 15.1527   7
   0   6   3 613.102 13.2697   9
   0   6   3 611.293 16.0091  10
  -2  -6  -3 274.795 8.24406   2
   2  -6   3 269.667 6.07274   6
   2  -6   3 268.223 6.66878   1
  -2  -6  -3 267.421 7.57546   8
   2   6   3 278.157 8.34016  11
   2   6   3 268.542 9.10837   1
  -2   6  -3 258.414 7.99925   5
  -2   6  -3 280.247 9.16908   4
  -2   6  -3 279.357 8.49947  14
  -2   6  -3 274.375 9.41808   7
   2   6   3 274.870 11.0208  10
  -2   6  -3 268.640 7.62961   3
   2   6   3 267.817 7.93723   6
   2   6   3 272.129 8.02654   9
   4  -6   3 417.831 7.86496   6
  -4  -6  -3 427.890 11.5979   8
  -4  -6  -3 422.387 10.8571  14
  -4  -6  -3 424.288 11.9095   2
   4   6   3 413.400 16.4506  10
   4   6   3 408.483 12.0367  11
  -4   6  -3 416.238 12.1763   5
  -4   6  -3 429.936 12.5823   4
   4   6   3 412.103 11.7204   6
  -4   6  -3 434.294 11.4844   3
   4   6   3 405.666 12.8839   1
   4   6   3 426.120 12.0243   9
  -4   6  -3 427.551 13.1904   7
   6  -6   3 41.0624 1.56213   6
   6  -6   3 40.5576 4.73086  13
  -6  -6  -3 40.1657 4.17121   8
  -6  -6  -3 39.3657 4.15464   2
   6   6   3 50.2545 4.88803   1
  -6   6  -3 44.9307 4.97872   7
   6   6   3 40.0051 4.04752   6
  -6   6  -3 43.0076 4.10780   3
   6   6   3 46.7985 4.76794  11
   6   6   3 43.8800 4.59809   9
  -6   6  -3 39.5233 4.56392   5
   8  -6   3 60.3534 2.50344   6
  -8  -6  -3 61.8427 5.33628   2
  -8  -6  -3 68.0419 5.21033   8
  -8   6  -3 67.6888 6.05959   5
   8   6   3 54.7365 5.29775  11
  -8   6  -3 62.7232 5.28875   3
   8   6   3 51.1193 5.34327   9
   8   6   3 70.6360 5.97335   1
   8   6   3 60.5627 5.27793   6
  -9  -7   3 448.765 13.8041   8
   9  -7  -3 442.714 12.7435   1
   9  -7  -3 425.074 20.4450  13
   9  -7  -3 470.637 12.7899   6
  -9  -7   3 447.506 13.3942   2
   9   7  -3 451.830 15.8654   1
  -9   7   3 446.588 14.6667   3
   9   7  -3 444.883 15.4072  11
  -9   7   3 453.060 14.2728   5
   7  -7  -3 56.2850 3.67660   6
  -7  -7   3 46.1057 4.34345   1
   7  -7  -3 49.4370 3.83840   1
  -7  -7   3 47.3078 3.99296   8
   7  -7  -3 49.2476 5.50137  13
   7   7  -3 41.0384 4.29843  11
  -7   7   3 49.3996 4.45277   3
   7   7  -3 44.8389 4.46097   1
  -7   7   3 49.6362 4.10041   5
   5  -7  -3 1294.85 26.8976   1
   5  -7  -3 1251.95 30.9572  13
   5  -7  -3 1284.47 25.7310   6
  -5  -7   3 1285.07 25.9183   8
  -5  -7   3 1270.62 27.8498   1
  -5   7   3 1245.98 25.5110   9
   5   7  -3 1264.57 27.9496   1
   5   7  -3 1284.87 27.1197  11
  -5   7   3 1258.47 26.7954   3
  -5   7   3 1283.76 25.9179   5
   5   7  -3 1260.77 27.6366   7
   3  -7  -3 354.541 9.49257   6
  -3  -7   3 370.025 10.7478   1
  -3  -7   3 349.282 9.30872   6
   3  -7  -3 355.835 10.4640   1
   3  -7  -3 349.942 12.1029  13
   3   7  -3 349.482 9.95347   4
   3   7  -3 355.478 10.0318   1
  -3   7   3 334.472 9.34854   1
  -3   7   3 354.405 10.0255   3
   3   7  -3 352.544 10.6839   7
  -3   7   3 339.753 8.60157   5
   3   7  -3 363.561 9.92306  11
  -1  -7   3 2471.52 47.3959   1
   1  -7  -3 2605.97 49.2345  13
   1  -7  -3 2641.16 48.9089   1
  -1  -7   3 2617.99 46.4420   6
   1  -7  -3 2510.99 46.6892   6
   1  -7  -3 2537.63 46.3893   2
  -1   7   3 2476.02 47.7118   1
  -1   7   3 2473.37 47.7083   7
  -1   7   3 2542.51 48.9861  10
   1   7  -3 2534.16 46.9333  11
   1   7  -3 2527.12 48.5602   4
  -1   7   3 2552.94 46.2683   9
   1   7  -3 2512.50 46.1838   3
  -1   7   3 2630.87 47.8395   3
   1   7  -3 2619.70 49.3589   7
   1  -7   3 477.348 11.2749   1
  -1  -7  -3 462.778 10.5745   8
   1  -7   3 478.410 10.5018   6
  -1  -7  -3 476.782 11.8803   2
   1   7   3 456.946 14.2111  10
  -1   7  -3 462.232 11.1576   3
   1   7   3 468.504 11.4499   9
  -1   7  -3 476.883 13.2927   4
  -1   7  -3 477.437 13.6106   7
  -1   7  -3 442.125 11.1179   5
   1   7   3 476.806 13.1675   1
   1   7   3 459.839 12.1751  11
  -3  -7  -3 1541.59 31.2536   2
  -3  -7  -3 1506.61 30.2213   8
   3  -7   3 1510.04 27.7333   6
  -3   7  -3 1544.85 33.5666   7
   3   7   3 1514.90 30.9775   6
   3   7   3 1557.59 30.9043   9
   3   7   3 1489.03 31.4043  11
  -3   7  -3 1537.70 30.3859   3
   3   7   3 1487.55 32.9515   1
  -3   7  -3 1575.99 31.3560   5
   3   7   3 1495.91 36.3084  10
  -3   7  -3 1560.92 32.6974   4
   5  -7   3 90.7015 6.83761  13
   5  -7   3 96.5763 3.01008   6
  -5  -7  -3 86.4424 4.43460  14
  -5  -7  -3 90.2035 5.34323   2
  -5  -7  -3 89.6957 5.32115   8
   5   7   3 96.6357 6.29034   1
  -5   7  -3 91.2782 5.77654   5
  -5   7  -3 99.0060 6.44824   7
   5   7   3 94.8682 5.55544   6
   5   7   3 83.4837 5.50702   9
  -5   7  -3 102.796 5.29344   3
   5   7   3 87.8171 6.09515  11
   7  -7   3 383.449 8.16490   6
  -7  -7  -3 384.482 12.6691   8
  -7  -7  -3 370.729 12.6988   2
   7   7   3 375.652 12.8459   6
  -7   7  -3 368.442 13.2188   5
  -7   7  -3 377.032 12.4171   3
   7   7   3 368.211 13.7087  11
   7   7   3 361.303 13.8417   1
   7   7   3 376.069 13.0968   9
 -10  -8   3 35.6849 4.23689   8
  10  -8  -3 37.7544 3.77966   6
 -10  -8   3 34.1437 4.17095   2
  10   8  -3 26.8903 4.62856  11
 -10   8   3 37.8366 4.90820   3
 -10   8   3 32.6699 4.46832   5
  10   8  -3 35.8954 5.49023   1
   8  -8  -3 112.700 5.55637   6
   8  -8  -3 106.870 5.54395   1
   8  -8  -3 98.4865 8.53970  13
  -8  -8   3 104.540 6.14459   8
  -8  -8   3 104.100 6.28046   1
   8   8  -3 90.8125 6.67111   1
  -8   8   3 102.645 6.16104   5
  -8   8   3 104.333 6.66694   3
   8   8  -3 99.5187 7.25133  11
  -6  -8   3 218.714 9.18804   1
   6  -8  -3 203.067 7.91690   1
  -6  -8   3 204.842 7.72550   8
   6  -8  -3 212.392 7.43438   6
   6  -8  -3 200.034 10.9511  13
  -6   8   3 203.460 7.65728   5
   6   8  -3 224.020 9.50297   1
   6   8  -3 214.047 8.82078  11
  -6   8   3 212.868 8.50460   3
   6   8  -3 201.135 8.55594   7
  -4  -8   3 40.7057 3.18738   6
   4  -8  -3 40.9143 3.37836   1
  -4  -8   3 27.9855 3.48701   1
   4  -8  -3 34.4215 4.20786  13
   4  -8  -3 33.1258 2.91723   6
  -4   8   3 33.6295 3.12632   3
   4   8  -3 33.5144 3.15140  11
   4   8  -3 35.5459 3.48091   1
  -4   8   3 36.9835 2.71806   9
   4   8  -3 40.2060 3.91369   7
   4   8  -3 31.4271 2.88153   4
  -2  -8   3 313.682 8.85854   6
   2  -8  -3 309.281 11.2178  13
   2  -8  -3 303.547 10.1375   1
   2  -8  -3 298.679 8.89619   6
  -2  -8   3 307.773 9.88232   1
  -2   8   3 288.327 10.1573   7
  -2   8   3 296.068 9.17970   1
   2   8  -3 292.742 9.72536   4
  -2   8   3 310.407 9.64240   3
   2   8  -3 306.949 9.28621  11
   2   8  -3 306.874 8.64741   3
  -2   8   3 308.742 8.30858   9
   2   8  -3 301.583 10.5349   7
   0  -8  -3 140.147 6.30648  13
   0  -8  -3 130.626 6.40555   1
   0  -8  -3 122.381 5.25030   2
   0  -8   3 132.135 5.04131   6
   0  -8   3 138.974 5.66538   1
   0   8  -3 129.808 5.13910   3
   0   8  -3 133.050 6.46722   4
   0   8   3 128.366 6.05411   3
   0   8   3 134.735 5.73866  11
   0   8   3 122.623 5.89333   1
   0   8   3 124.078 4.89900   9
   0   8  -3 125.942 6.68578   7
   2  -8   3 98.4736 3.91376   6
  -2  -8  -3 96.2769 5.16308   2
   2  -8   3 97.1625 4.24953   1
  -2   8  -3 97.0123 4.52307   3
   2   8   3 92.1736 4.64990   9
   2   8   3 93.5220 5.35892  11
  -2   8  -3 97.2310 5.80852   4
  -2   8  -3 103.360 4.86822   5
  -2   8  -3 98.6301 6.35767   7
   2   8   3 102.162 5.91141   1
   4  -8   3 264.890 6.90103   6
   4  -8   3 269.063 12.0530  13
  -4  -8  -3 263.523 8.91475   8
  -4  -8  -3 264.004 9.57330   2
   4   8   3 263.993 11.0172   1
   4   8   3 259.757 9.86269  11
  -4   8  -3 268.644 9.54933   5
  -4   8  -3 264.827 9.09638   3
   4   8   3 268.805 9.27676   9
  -4   8  -3 275.730 11.2144   7
  -6  -8  -3 65.0254 4.71777   8
  -6  -8  -3 61.6429 5.27223   2
  -6   8  -3 59.8988 6.23305   7
   6   8   3 66.4765 4.99726   9
   6   8   3 65.1729 6.06543   1
   6   8   3 66.9780 6.38964  11
  -6   8  -3 65.2824 4.98105   3
  -6   8  -3 58.9532 5.21585   5
   9  -9  -3 136.424 10.2663   1
  -9  -9   3 165.110 8.00095   2
  -9  -9   3 167.973 7.95745   8
   9  -9  -3 176.980 7.55844   6
  -9   9   3 183.474 8.76269   5
   9   9  -3 175.051 9.74852   1
  -9   9   3 171.299 8.65930   3
   9   9  -3 173.684 9.85726  11
   7  -9  -3 732.748 18.5579   1
   7  -9  -3 695.052 23.9099  13
  -7  -9   3 740.976 20.3083   1
   7  -9  -3 749.203 18.0545   6
  -7  -9   3 762.350 18.6987   8
  -7   9   3 711.035 18.2593   5
   7   9  -3 727.674 20.2278  11
  -7   9   3 740.672 19.8122   3
   7   9  -3 768.248 21.5681   1
  -5  -9   3 295.091 9.20816   8
  -5  -9   3 290.612 11.1519   1
   5  -9  -3 307.586 13.8131  13
   5  -9  -3 308.977 10.5460   1
   5  -9  -3 305.058 9.70455   6
   5   9  -3 302.777 10.7697  11
  -5   9   3 301.603 10.3136   3
   5   9  -3 292.452 10.9856   1
   3  -9  -3 713.348 17.2908   6
   3  -9  -3 744.369 18.8654   1
  -3  -9   3 765.900 17.5038   6
   3  -9  -3 736.943 21.2529  13
  -3  -9   3 728.714 18.9252   1
  -3   9   3 729.489 18.2293   3
   3   9  -3 734.983 19.5433   7
   3   9  -3 731.994 18.1102   4
   3   9  -3 734.283 17.2994   3
   3   9  -3 748.590 18.1386  11
   1  -9  -3 148.581 5.88542   2
  -1  -9   3 157.020 6.86106   1
  -1  -9   3 154.830 6.11313   6
   1  -9  -3 164.746 7.62807   1
   1  -9  -3 165.525 7.93185  13
   1  -9  -3 159.238 6.24628   6
  -1   9   3 149.008 6.68901   1
   1   9  -3 149.108 5.99376   3
   1   9  -3 158.769 7.90437   7
   1   9  -3 150.839 7.36443   4
  -1   9   3 167.863 7.16175   3
  -1   9   3 144.934 6.85852   7
  -1  -9  -3 502.337 13.4465   2
  -1  -9  -3 507.296 15.0599   1
   1  -9   3 504.957 13.0951   1
   1  -9   3 509.233 12.5332   6
  -1   9  -3 504.449 12.8949   3
   1   9   3 513.742 15.1430   1
  -1   9  -3 494.326 15.6592   7
   1   9   3 495.210 14.0788  11
  -1   9  -3 524.078 15.6565   4
   3  -9   3 125.243 4.90835   6
  -3  -9  -3 119.046 6.76610   1
  -3  -9  -3 125.476 6.54776   2
  -3   9  -3 122.207 5.93821   3
   3   9   3 137.888 7.20442  11
  -3   9  -3 129.772 8.10372   7
  -3   9  -3 119.588 7.49082   4
   3   9   3 123.617 7.27868   1
  -5  -9  -3 486.248 14.9319   2
   5  -9   3 490.727 11.3057   6
  -5  -9  -3 472.431 13.2905  14
  -5   9  -3 490.302 17.0227   7
   5   9   3 473.768 16.6168   1
  -5   9  -3 492.935 14.1592   3
  -5   9  -3 495.578 14.7245   5
   5   9   3 467.908 15.4461  11
   8 -10  -3 1.33253 1.77545   6
   8 -10  -3 2.07613 1.70088   1
  -8 -10   3 5.62795 2.41461   8
   8  10  -3 2.09717 2.18421  11
  -8  10   3 0.64206 2.55280   3
   8  10  -3 1.41791 2.46815   1
  -6 -10   3 34.9249 3.83619   8
   6 -10  -3 40.3277 3.88877   6
   6 -10  -3 37.8428 3.71007   1
  -6 -10   3 30.7530 4.19994   1
   6  10  -3 30.9185 4.06212  11
  -6  10   3 39.3420 4.78730   3
   6  10  -3 33.8037 4.24743   1
   4 -10  -3 7.24873 1.83136   6
   4 -10  -3 6.83470 2.73361  13
   4 -10  -3 8.26873 2.49127   1
  -4 -10   3 7.39448 2.59360   1
   4  10  -3 6.01711 2.10295  11
   4  10  -3 4.89956 2.17817   7
  -4  10   3 5.30859 2.20800   3
   2 -10  -3 62.5776 5.79638  13
   2 -10  -3 61.7290 4.14252   6
  -2 -10   3 66.2096 4.37554   6
  -2 -10   3 72.5215 5.00378   1
   2 -10  -3 73.3505 5.43377   1
   2  10  -3 61.9704 4.23634   3
   2  10  -3 62.1990 4.48261  11
   2  10  -3 59.2861 4.95950   4
   2  10  -3 66.0441 5.59714   7
  -2  10   3 68.3964 5.10288   3
   0 -10  -3 3.54807 1.72697   2
   0 -10   3 1.84939 1.58749   1
   0 -10   3 4.62644 1.74937   6
   0 -10  -3 5.80027 2.03100   1
   0  10   3 8.23482 2.18186   3
   0  10  -3 7.03769 2.80863   7
   0  10  -3 5.07798 1.76470   3
   0  10  -3 15.6087 3.30926   4
   0  10   3 7.94290 1.96727   1
   2 -10   3 2.27538 1.44780   6
  -2 -10  -3 2.14883 1.90743   2
  -2 -10  -3 0.09552 1.28911   1
   2 -10   3 6.49673 1.71991   1
   2  10   3 1.99643 1.66384  11
  -2  10  -3 2.17710 1.28228   3
   2  10   3 1.77356 1.98803   1
  -2  10  -3 1.98419 2.71183   7
   4 -10   3 34.4765 2.80652   6
  -4 -10  -3 38.7515 4.61098   2
   4  10   3 33.2976 4.79709   1
  -4  10  -3 31.7179 3.72105   3
   4  10   3 27.9051 4.32485  11
  -4  10  -3 34.9047 5.33305   7
   6 -10   3 15.6476 2.02588   6
  -6 -10  -3 15.0835 3.07046   2
  -6  10  -3 18.1719 4.61031   7
   6  10   3 16.2716 3.60043   1
   6  10   3 16.1946 3.92686  11
  -7 -11   3 81.0137 6.47481   1
   7 -11  -3 76.1678 5.34837   6
   7 -11  -3 78.4912 5.48808   1
   7  11  -3 76.9968 6.68573  11
  -7  11   3 75.1793 6.22817   3
   5 -11  -3 274.261 9.98276   6
   5 -11  -3 277.092 10.8930   1
  -5 -11   3 286.066 12.1567   1
  -5  11   3 275.896 10.8686   3
   5  11  -3 284.303 11.2516  11
   3 -11  -3 264.753 12.8724  13
   3 -11  -3 251.898 9.39976   6
   3 -11  -3 266.501 10.9063   1
  -3 -11   3 261.419 10.8182   1
   3  11  -3 256.701 9.43296   3
  -3  11   3 250.765 9.97503   3
   3  11  -3 271.345 10.2055  11
  -1 -11   3 644.509 16.8120   6
   1 -11  -3 639.083 18.9632   1
  -1 -11   3 672.608 18.4290   1
   1  11  -3 649.747 20.0307   7
  -1  11   3 686.265 18.4896   3
   1  11  -3 659.078 16.7757   3
   1 -11   3 396.966 11.6202   6
  -1 -11  -3 396.345 14.2937   1
  -1 -11  -3 387.162 12.3415   2
   1 -11   3 391.068 12.1824   1
  -1  11  -3 403.835 15.3528   7
   1  11   3 362.879 13.1625   1
   1  11   3 379.649 13.5024   3
   1  11   3 372.008 13.0243  11
  -3 -11  -3 398.169 14.3970   1
   3 -11   3 422.394 11.4691   6
  -3 -11  -3 397.789 13.3975   2
  -3  11  -3 376.523 12.1985   3
   3  11   3 385.376 13.8471  11
  -3  11  -3 396.823 15.5993   7
  -5 -11  -3 149.552 8.35517   2
   5 -11   3 145.043 5.96249   6
  -5  11  -3 153.507 10.0546   7
   5  11   3 146.919 9.16381   1
   5  11   3 128.431 8.30351  11
   6 -12  -3 38.0626 4.16175   6
  -6 -12   3 33.3148 4.90508   1
   6  12  -3 33.3844 5.00722  11
  -6  12   3 31.9743 4.51884   3
   4 -12  -3 214.318 9.08227   6
   4 -12  -3 221.792 10.0152   1
  -4 -12   3 209.734 10.5691   1
  -4  12   3 211.969 9.83310   3
   4  12  -3 196.362 9.59830  11
   4  12  -3 198.469 8.56599   3
   2 -12  -3 51.4465 5.76897   1
  -2 -12   3 40.1897 4.26808   6
  -2 -12   3 43.7090 4.54958   1
  -2  12   3 48.4321 5.38714   3
   2  12  -3 43.0364 4.24533   3
   2  12  -3 54.5687 6.46835   7
   0 -12  -3 123.577 7.79525   1
   0 -12   3 119.098 6.31699   6
   0 -12   3 122.114 6.78113   1
   0  12   3 122.344 7.66280   3
   0  12  -3 127.524 8.95536   7
   0  12  -3 112.407 6.19135   3
  -2 -12  -3 122.679 8.21438   1
  -2 -12  -3 117.785 7.07708   2
   2 -12   3 117.370 6.12769   6
   2  12   3 116.279 7.68444  11
  -2  12  -3 119.719 9.09788   7
   2  12   3 123.524 8.03391   3
   3 -13  -3 12.1248 3.49579   1
  -3 -13   3 7.86350 2.59024   1
  -3  13   3 4.90604 2.81349   3
   1 -13  -3 470.256 16.4808   1
  -1 -13   3 435.103 13.9187   6
   1  13  -3 443.789 16.9693   7
  -1  13   3 443.393 15.0596   3
   1 -13   3 2.18508 1.98148   6
   1 -13   3 3.28696 1.93318   1
  -1 -13  -3 6.47378 2.95638   1
  -1  13  -3 3.40754 2.54862   7
   1  13   3 -0.6351 2.31180   3
 -12   0   4 1139.30 27.0609   5
  12   0  -4 1108.09 26.2313   6
  12   0  -4 1111.40 26.8730   1
  12   0  -4 1128.64 28.4737  11
 -10   0   4 58.7663 4.40982   5
  10   0  -4 56.1460 4.70657   1
 -10   0   4 60.2861 3.91918   8
  10   0  -4 58.9353 4.42461   6
  10   0  -4 56.4995 5.25518  11
  -8   0   4 2955.34 55.9976   3
  -8   0   4 3023.10 53.9454  12
   8   0  -4 3018.21 54.9097   6
   8   0  -4 2804.92 58.0331  13
  -8   0   4 3013.79 55.3238   5
   8   0  -4 2982.90 56.1093   1
  -8   0   4 2967.26 54.0222   8
   8   0  -4 2996.41 55.8598  11
  -6   0   4 93.2667 3.50338  12
   6   0  -4 94.1757 5.32932  13
  -6   0   4 88.9283 3.89010   3
  -6   0   4 88.9858 3.87028   1
   6   0  -4 98.8086 4.51264   1
   6   0  -4 96.0258 3.97144  11
   6   0  -4 96.2553 3.95458   6
  -4   0   4 3179.71 56.4953   6
   4   0  -4 3316.89 59.7132  13
   4   0  -4 3285.67 56.4882  11
   4   0  -4 3155.19 57.9447  14
  -4   0   4 3369.21 57.8337   1
  -4   0   4 3290.53 57.1066   9
  -4   0   4 3369.62 62.1029  10
   4   0  -4 3169.12 57.9979   1
  -4   0   4 3257.60 56.5264  12
   4   0  -4 3250.68 56.9288   6
  -4   0   4 3104.15 56.4277   3
   2   0  -4 31.6051 1.91588   4
   2   0  -4 34.9401 1.79769  14
   2   0  -4 33.5568 2.48865  13
  -2   0   4 33.2656 1.78054   9
  -2   0   4 35.1408 1.94955   1
   2   0  -4 38.2123 1.73339   2
  -2   0   4 31.4089 2.99502  10
   2   0  -4 33.4449 1.92061   1
  -2   0   4 32.3001 1.62333   6
  -2   0   4 40.3356 1.71097  12
   0   0   4 2807.82 48.5342   6
   0   0  -4 2713.96 48.1182   8
   0   0   4 2803.22 52.6306  10
   0   0  -4 2669.72 47.4311   7
   0   0   4 2765.37 48.0762   9
   0   0   4 2687.08 47.9255   1
   0   0  -4 2621.69 48.3508   2
   0   0  -4 2690.12 48.0841   4
   0   0  -4 2723.39 48.0959  14
   2   0   4 495.308 9.55665   6
  -2   0  -4 497.885 10.9709  14
   2   0   4 494.596 15.6518  10
   2   0   4 476.914 9.42197   6
  -2   0  -4 481.036 10.6199   4
   2   0   4 479.778 10.1305  11
   2   0   4 496.863 10.4659   1
  -2   0  -4 472.066 11.6741   5
  -2   0  -4 512.116 11.7016   2
  -2   0  -4 484.768 11.3990   8
  -2   0  -4 494.213 10.1225   7
   4   0   4 2264.91 50.4934  10
   4   0   4 2262.31 41.8559  11
  -4   0  -4 2246.31 43.5358   5
   4   0   4 2242.26 40.0653   6
   4   0   4 2273.19 41.0108   1
  -4   0  -4 2186.82 41.4521  14
  -4   0  -4 2343.47 43.0480   8
  -4   0  -4 2310.03 42.8715   2
  -6   0  -4 291.296 9.75840   8
  -6   0  -4 288.868 9.42667   2
   6   0   4 294.885 7.79157   6
   6   0   4 288.652 9.37060  11
  -6   0  -4 291.537 10.3895   5
   8   0   4 838.766 18.6396   6
  -8   0  -4 845.436 20.9935   8
  -8   0  -4 845.054 22.1259   5
  11  -1  -4 53.8418 4.51605   6
  11  -1  -4 53.7948 4.79248   1
 -11  -1   4 46.6471 3.89247   8
  11  -1  -4 53.5316 4.95139  11
 -11  -1   4 53.9317 4.88031   5
  11   1  -4 48.9989 5.60144  11
 -11   1   4 49.0419 4.59085   5
 -11   1   4 48.0022 3.93659   8
  11   1  -4 49.2072 4.57730   6
  11   1  -4 45.8944 4.84655   1
   9  -1  -4 24.3811 3.00785   1
  -9  -1   4 27.6401 3.05099   8
   9  -1  -4 23.0476 2.87266   6
  -9  -1   4 29.8572 3.36745   5
   9  -1  -4 27.4646 3.32995  11
   9  -1  -4 25.0901 4.01103  13
  -9   1   4 25.2992 3.33043   5
   9   1  -4 23.1640 3.08984   1
  -9   1   4 26.4308 2.39080   8
   9   1  -4 27.8066 3.42522  11
  -9   1   4 22.9890 3.29374   3
   9   1  -4 29.5165 3.25321   6
   7  -1  -4 480.891 12.5996   1
  -7  -1   4 479.023 11.1627  12
  -7  -1   4 474.416 11.7542   1
   7  -1  -4 487.587 11.7125   6
   7  -1  -4 484.227 14.7417  13
  -7   1   4 476.029 10.9574   8
   7   1  -4 479.733 12.2316  11
  -7   1   4 479.726 12.3861   3
   7   1  -4 450.788 13.6897  13
  -7   1   4 496.920 11.0470  12
   7   1  -4 475.868 11.8654   6
   7   1  -4 473.299 12.8362   1
  -5  -1   4 8.00881 1.08783   6
   5  -1  -4 7.26676 0.67790  14
  -5  -1   4 6.91036 1.13502  12
   5  -1  -4 7.51544 1.46263   1
  -5  -1   4 7.21864 1.26939   1
   5  -1  -4 8.68705 2.06802  13
  -5  -1   4 6.62353 1.18865   9
   5   1  -4 7.61894 1.25287   4
   5   1  -4 7.09728 1.48207   1
   5   1  -4 10.1065 2.05167  13
  -5   1   4 8.06010 1.03478  12
  -5   1   4 7.16960 1.18445   1
   5   1  -4 6.78765 1.12912  11
  -5   1   4 11.7865 1.46002   9
   5   1  -4 8.05345 1.28934   6
  -5   1   4 6.47256 1.21785   3
   3  -1  -4 328.431 7.59036   6
   3  -1  -4 347.405 7.10669   2
  -3  -1   4 335.395 7.55615   6
   3  -1  -4 354.076 7.51504  14
   3  -1  -4 340.860 8.47339   1
  -3  -1   4 345.612 7.59398   9
  -3  -1   4 352.962 10.6593  10
  -3  -1   4 338.559 8.30532   1
  -3  -1   4 343.540 7.52443  12
  -3   1   4 349.186 7.46570  12
  -3   1   4 344.671 7.58234   6
  -3   1   4 352.796 10.9534  10
   3   1  -4 348.421 7.10359  11
  -3   1   4 347.899 7.38424   3
   3   1  -4 362.895 9.70744  13
   3   1  -4 346.253 8.13053   4
  -3   1   4 351.760 7.98718   9
   3   1  -4 347.140 7.54774  14
   3   1  -4 349.911 8.45136   1
  -3   1   4 343.479 8.36900   1
   1  -1  -4 276.624 6.56821  14
   1  -1  -4 271.691 6.64477   2
  -1  -1   4 268.771 6.25985   9
  -1  -1   4 312.792 6.16825   6
  -1  -1   4 278.986 6.30486  12
   1  -1  -4 278.754 7.54796  13
  -1  -1   4 284.508 6.69106   1
   1  -1  -4 271.441 6.42490   8
   1  -1  -4 274.390 6.75289   1
  -1  -1   4 280.238 9.06161  10
  -1   1   4 280.791 6.72325   9
  -1   1   4 291.322 9.55031  10
  -1   1   4 271.559 6.31082   6
   1   1  -4 281.227 9.35308  10
   1   1  -4 269.572 6.70374  14
  -1   1   4 275.889 6.96195   1
   1   1  -4 264.531 6.21632   1
   1   1  -4 276.588 6.90145   4
   1   1  -4 276.102 6.85217   7
   1   1  -4 269.741 6.75975   2
  -1   1   4 272.113 6.20895  12
   1  -1   4 80.9353 2.04464   6
  -1  -1  -4 81.1949 3.48152   2
   1  -1   4 87.2720 2.07513   6
   1  -1   4 82.7450 2.79111   1
   1  -1   4 78.5960 5.03673  10
  -1  -1  -4 83.4944 3.17262  14
  -1  -1  -4 85.3518 3.45378   8
  -1  -1  -4 86.2822 3.09149   4
   1   1   4 82.8853 5.35480  10
   1   1   4 80.3288 3.20112   1
   1   1   4 81.3927 2.51368  11
   1   1   4 86.7140 3.52929   9
  -1   1  -4 83.9120 3.29887  14
  -1   1  -4 81.0462 3.30548   4
  -1   1  -4 82.6257 3.69141   5
  -1   1  -4 80.9280 3.04945   7
  -1   1  -4 80.8683 3.35979   8
   1   1   4 83.3801 2.81924   6
  -1   1  -4 85.2562 3.63238   2
  -3  -1  -4 356.002 9.59588   2
   3  -1   4 362.452 13.6545  10
   3  -1   4 349.504 6.59032   6
  -3  -1  -4 340.144 9.66056   5
  -3  -1  -4 356.725 8.79343  14
   3  -1   4 362.063 6.63918   6
   3  -1   4 353.149 7.79668   1
  -3  -1  -4 375.577 9.69326   8
   3  -1   4 342.695 8.43626  11
   3   1   4 366.437 8.22893   6
  -3   1  -4 392.264 10.4014   5
  -3   1  -4 360.002 9.51921   8
  -3   1  -4 359.317 8.77145   7
  -3   1  -4 368.373 9.10925  14
   3   1   4 343.689 13.8686  10
   3   1   4 350.488 8.84039   1
   3   1   4 364.296 8.82982  11
  -3   1  -4 368.252 8.92384   4
  -3   1  -4 365.174 9.61545   2
   5  -1   4 2.68246 1.34236  11
  -5  -1  -4 4.20025 1.65829   8
   5  -1   4 3.60950 2.43192  10
  -5  -1  -4 4.21059 1.19790  14
  -5  -1  -4 3.52593 1.54406   2
   5  -1   4 4.11633 0.78795   6
  -5  -1  -4 4.06414 1.81118   5
  -5   1  -4 5.34371 1.59640   2
  -5   1  -4 3.69861 1.21682  14
   5   1   4 4.68662 1.31428   6
  -5   1  -4 6.15330 1.78346   8
   5   1   4 5.39363 1.70850  11
  -5   1  -4 4.35450 1.94874   5
   5   1   4 3.80215 1.15463   1
   7  -1   4 26.3597 2.26271   6
  -7  -1  -4 21.9256 3.60198   5
   7  -1   4 21.8699 3.14399  11
  -7  -1  -4 21.6008 3.05446   2
  -7  -1  -4 30.2658 3.77270   8
  -7   1  -4 24.0799 2.99348   2
   7   1   4 19.9456 2.40488   6
  -7   1  -4 29.8226 3.61396   8
  -7   1  -4 25.6464 4.01029   5
  -9  -1  -4 42.5850 4.92211   8
   9  -1   4 46.1137 3.38607   6
  -9  -1  -4 42.1942 5.05624   5
  -9   1  -4 37.1301 4.24793   8
   9   1   4 48.5093 3.86151   6
  -9   1  -4 34.8216 4.78627   5
 -12  -2   4 88.4738 5.91400   8
  12  -2  -4 85.5751 5.80819   1
  12  -2  -4 100.751 6.87949  11
  12   2  -4 80.8171 5.95601   6
 -12   2   4 77.9085 6.52665   5
  12   2  -4 88.8720 7.59885  11
  12   2  -4 83.9635 6.47340   1
  10  -2  -4 235.357 9.62641  11
  10  -2  -4 227.387 8.97063   1
 -10  -2   4 244.249 8.81243   8
  10  -2  -4 245.266 8.73890   6
 -10  -2   4 243.452 8.89565   5
  10   2  -4 231.824 9.95755  11
  10   2  -4 233.274 9.03995   6
 -10   2   4 231.556 9.35208   5
 -10   2   4 252.366 10.0388   3
  10   2  -4 236.937 9.93688   1
  -8  -2   4 276.430 8.46157   8
  -8  -2   4 269.302 8.09544  12
   8  -2  -4 259.664 8.92387   1
   8  -2  -4 297.065 8.63154   6
   8  -2  -4 274.354 11.3284  13
  -8  -2   4 279.931 8.56481   5
   8   2  -4 277.368 8.89457   6
  -8   2   4 273.488 9.31508   3
  -8   2   4 264.680 8.87660   5
   8   2  -4 288.356 9.61529  11
   8   2  -4 264.115 9.51108   1
  -8   2   4 270.988 7.55864   8
  -8   2   4 274.476 7.68145  12
   6  -2  -4 2045.36 38.3437   1
  -6  -2   4 2006.64 37.9271   1
  -6  -2   4 2039.12 36.6042  12
   6  -2  -4 2027.20 37.2014   6
   6  -2  -4 2020.94 41.0698  13
  -6   2   4 1964.14 37.4689   9
   6   2  -4 2007.76 38.9557   1
  -6   2   4 1999.56 37.7970   3
   6   2  -4 2024.34 37.3552   6
   6   2  -4 1999.95 37.5871  11
  -6   2   4 1953.47 36.9114   1
  -6   2   4 1999.54 36.1258  12
   6   2  -4 1945.69 36.2893   4
   6   2  -4 1975.31 39.7243  13
  -4  -2   4 1746.77 31.7129  12
  -4  -2   4 1759.60 31.8935   6
   4  -2  -4 1773.39 31.3772  14
  -4  -2   4 1731.61 31.6910   9
   4  -2  -4 1778.52 35.0825  13
   4  -2  -4 1785.48 33.3184   1
   4  -2  -4 1764.56 32.2304   6
  -4  -2   4 1743.70 33.1312   1
  -4   2   4 1763.70 32.2652   3
   4   2  -4 1757.57 31.8468  11
  -4   2   4 1762.47 31.4080  12
   4   2  -4 1770.46 31.2849  14
   4   2  -4 1748.08 32.0075   6
  -4   2   4 1798.82 37.0765  10
  -4   2   4 1727.03 32.6624   1
  -4   2   4 1745.07 32.4329   9
   4   2  -4 1784.44 33.3513   1
   4   2  -4 1769.60 34.7627  13
   4   2  -4 1747.92 32.3499   4
   2  -2  -4 7738.01 148.717   1
  -2  -2   4 8344.23 164.043  10
   2  -2  -4 7557.73 142.241   2
  -2  -2   4 8148.73 140.399   9
  -2  -2   4 7999.96 143.588   6
   2  -2  -4 7850.08 144.829   6
  -2  -2   4 8148.51 144.226  12
  -2  -2   4 7784.36 147.270   1
   2  -2  -4 8062.81 156.929  13
   2  -2  -4 7673.41 144.362  14
  -2   2   4 7980.22 142.377  12
   2   2  -4 7900.13 149.964   4
  -2   2   4 8014.90 146.476   9
   2   2  -4 7773.62 142.651   1
   2   2  -4 8067.98 158.844  10
  -2   2   4 8180.87 150.016   1
  -2   2   4 8167.29 167.407  10
  -2   2   4 7990.89 145.523   6
   2   2  -4 7778.18 143.569  14
  -2   2   4 8082.07 141.028   3
   2   2  -4 7899.01 152.143   7
   2   2  -4 8088.55 140.539  11
   0  -2   4 1339.99 22.9267   6
   0  -2   4 1280.00 23.7531   9
   0  -2  -4 1325.43 24.7659   2
   0  -2   4 1335.39 23.8838  12
   0  -2  -4 1270.28 24.2260   8
   0  -2  -4 1297.11 24.3944  14
   0  -2   4 1268.14 23.7615   1
   0  -2  -4 1339.03 24.9374  13
   0  -2  -4 1273.96 24.4778   1
   0  -2   4 1333.47 27.9974  10
   0  -2   4 1299.87 22.9133   6
   0   2  -4 1284.87 24.8677   2
   0   2   4 1287.00 24.0219   6
   0   2  -4 1320.08 24.8171  14
   0   2  -4 1294.52 24.9367   4
   0   2   4 1348.25 29.0683  10
   0   2  -4 1307.78 24.5324   8
   0   2   4 1306.56 25.0115   1
   0   2   4 1283.70 23.1141  11
   0   2  -4 1305.53 24.7495   7
   0   2  -4 1292.34 22.9526   3
   0   2   4 1306.36 24.7153   9
   2  -2   4 3404.03 66.4313  10
  -2  -2  -4 3335.37 59.5973   4
   2  -2   4 3351.26 61.0786   1
  -2  -2  -4 3467.05 60.4594  14
  -2  -2  -4 3470.77 61.3155   2
  -2  -2  -4 3350.35 61.0432   8
  -2   2  -4 3418.93 61.8860   5
   2   2   4 3472.97 61.4855   9
   2   2   4 3420.00 60.0660   6
   2   2   4 3490.59 61.2240   1
   2   2   4 3541.08 68.2207  10
  -2   2  -4 3424.49 60.0793   3
  -2   2  -4 3451.90 61.0390   8
  -2   2  -4 3385.38 60.8240  14
  -2   2  -4 3463.38 60.9669   7
  -2   2  -4 3389.61 60.9592   4
  -2   2  -4 3375.37 61.3137   2
   2   2   4 3388.68 59.9791  11
  -4  -2  -4 93.5790 3.95285  14
  -4  -2  -4 90.6982 4.74211   5
  -4  -2  -4 92.6082 4.69961   2
  -4  -2  -4 94.6061 4.77243   8
   4  -2   4 96.8050 7.25784  10
   4   2   4 95.1591 4.43577   1
  -4   2  -4 89.1391 4.04545   4
   4   2   4 87.2302 7.41082  10
  -4   2  -4 94.8868 4.50968   3
   4   2   4 119.030 4.90161  11
  -4   2  -4 100.791 4.75262   8
  -4   2  -4 91.7659 4.10221  14
  -4   2  -4 92.5421 4.52789   2
  -4   2  -4 96.3359 5.06967   5
   4   2   4 90.9758 3.93079   6
  -4   2  -4 95.4460 4.39893   7
  -6  -2  -4 586.344 15.4213   8
   6  -2   4 594.720 11.6148   6
  -6  -2  -4 587.091 15.2258   2
  -6  -2  -4 555.005 15.4550   5
   6  -2   4 580.101 14.5981  11
  -6   2  -4 590.334 15.0685   8
  -6   2  -4 590.061 16.4821   5
   6   2   4 570.211 14.5709   1
   6   2   4 556.453 15.1671  11
   6   2   4 596.941 14.2282   6
  -8  -2  -4 29.4502 3.77779   8
   8  -2   4 27.5570 2.27025   6
  -8  -2  -4 19.4928 3.44024   5
  -8  -2  -4 24.1383 3.41562   2
   8   2   4 26.0824 2.97888   6
  -8   2  -4 23.6576 4.14255   5
  -8   2  -4 25.8464 3.60296   8
  11  -3  -4 15.6731 2.89918   6
  11  -3  -4 20.5477 3.15503   1
 -11  -3   4 16.0493 2.79672   8
  11  -3  -4 19.5885 3.45577  11
  11   3  -4 15.5930 3.15170   1
  11   3  -4 15.1606 3.54577  11
 -11   3   4 12.9312 2.98365   3
 -11   3   4 9.77506 3.25700   5
  11   3  -4 16.5700 3.19556   6
   9  -3  -4 57.5283 4.01026   6
  -9  -3   4 61.7921 4.36372   8
  -9  -3   4 53.2775 3.86885   5
   9  -3  -4 54.7010 4.21874   1
   9  -3  -4 56.7292 5.54702  13
   9   3  -4 60.0961 4.69092   1
   9   3  -4 63.3515 4.54682   6
  -9   3   4 78.1916 5.33766   3
   9   3  -4 66.6377 5.40922  11
  -9   3   4 60.5134 4.65846   5
  -7  -3   4 47.7726 2.88385  12
   7  -3  -4 52.4071 3.64729   1
  -7  -3   4 50.6024 3.36279   1
   7  -3  -4 56.6650 3.34300   6
  -7  -3   4 49.1182 3.19337   5
   7  -3  -4 49.6904 4.94620  13
  -7   3   4 54.6415 2.83369  12
  -7   3   4 53.8197 3.58470   3
  -7   3   4 59.5197 2.64646   8
  -7   3   4 50.9709 3.64411   5
   7   3  -4 50.5940 3.79019   1
   7   3  -4 47.8216 3.45698  11
   7   3  -4 48.1219 3.41470   6
  -5  -3   4 119.686 4.81242   1
   5  -3  -4 119.879 4.90443   1
   5  -3  -4 111.782 4.10734   6
   5  -3  -4 109.609 5.97900  13
  -5  -3   4 103.512 3.74574  12
  -5  -3   4 111.217 3.89972   6
  -5   3   4 109.012 4.29074   9
  -5   3   4 117.182 4.25582   1
   5   3  -4 110.488 4.21847  11
   5   3  -4 115.816 5.05109   1
   5   3  -4 113.629 4.17435   6
   5   3  -4 112.446 4.04629   4
  -5   3   4 113.449 3.53888  12
  -5   3   4 110.888 4.44043   3
  -3  -3   4 145.395 4.16872  12
  -3  -3   4 145.407 4.36654   6
   3  -3  -4 147.580 6.02269  13
   3  -3  -4 156.952 3.66755   2
  -3  -3   4 151.683 3.78804   9
   3  -3  -4 143.539 4.44125   6
  -3  -3   4 144.595 4.93684   1
  -3  -3   4 148.991 6.27503  10
   3  -3  -4 159.670 5.33874   1
   3   3  -4 152.425 4.91789   4
  -3   3   4 159.881 7.05229  10
   3   3  -4 146.042 4.36632  14
  -3   3   4 150.876 4.99048   1
   3   3  -4 152.578 4.29146  11
  -3   3   4 146.498 4.70777   9
   3   3  -4 150.280 4.93449   1
  -3   3   4 150.677 3.92715  12
  -3   3   4 148.515 4.48318   3
   3   3  -4 150.645 5.46418   7
  -3   3   4 143.199 4.15939   6
   1  -3  -4 220.771 6.66202  13
   1  -3  -4 223.570 5.73474   6
   1  -3  -4 216.459 5.75189   2
  -1  -3   4 211.909 7.38962  10
  -1  -3   4 215.096 4.79675   9
   1  -3  -4 210.404 6.28796   1
  -1  -3   4 206.607 5.68832   1
  -1  -3   4 218.041 5.14032   6
   1  -3  -4 215.620 5.31992   8
  -1  -3   4 221.374 5.28925  12
   1   3  -4 217.544 4.99802  11
   1   3  -4 227.074 6.51388   4
  -1   3   4 211.939 6.33692   1
  -1   3   4 215.938 6.01405   9
  -1   3   4 205.519 5.09515  12
   1   3  -4 211.800 6.80254  10
  -1   3   4 212.421 5.65494   6
   1   3  -4 226.634 6.52452   7
  -1   3   4 222.615 8.55195  10
  -1   3   4 213.941 5.16631  11
   1   3  -4 239.713 6.38155   2
   1   3  -4 216.400 6.12910  14
  -1  -3  -4 23.1208 1.80314  14
  -1  -3  -4 28.7172 2.03059   1
   1  -3   4 22.2114 2.86228  10
  -1  -3  -4 24.2631 1.96790   8
  -1  -3  -4 29.6720 1.83725  13
  -1  -3  -4 28.0380 2.24079   2
   1  -3   4 33.5127 1.47474   1
   1   3   4 28.3227 2.33846   9
  -1   3  -4 26.1504 2.13693   5
   1   3   4 23.9566 2.24657   1
  -1   3  -4 25.3550 2.07366   2
  -1   3  -4 25.8656 2.02633  14
  -1   3  -4 23.8754 1.52923   3
  -1   3  -4 27.9685 2.31699   4
  -1   3  -4 32.9192 2.27609   7
   1   3   4 24.9207 3.46872  10
   1   3   4 24.7432 1.77327   6
  -1   3  -4 24.5045 1.86241   8
   1   3   4 23.3702 1.67013  11
   3  -3   4 187.311 9.36066  10
  -3  -3  -4 195.617 6.72337   2
  -3  -3  -4 205.376 6.10006  14
  -3  -3  -4 181.404 6.39792   8
   3   3   4 190.228 6.10330   6
  -3   3  -4 192.986 6.57160   2
  -3   3  -4 200.038 6.43189  14
  -3   3  -4 189.328 5.97500   3
  -3   3  -4 200.658 6.52461   8
  -3   3  -4 192.321 6.49424   4
   3   3   4 193.788 10.2861  10
  -3   3  -4 189.580 6.59908   7
   3   3   4 198.036 7.01878   9
   3   3   4 192.460 6.78040   1
  -3   3  -4 196.831 7.16960   5
   3   3   4 190.873 6.22062  11
  -5  -3  -4 0.56798 1.55405   8
   5  -3   4 0.61726 1.87249  10
  -5  -3  -4 2.39021 1.60738   5
  -5  -3  -4 -0.0995 1.01491  14
  -5  -3  -4 6.49503 1.82728   2
  -5   3  -4 1.57623 1.70637   5
  -5   3  -4 2.17061 1.18274  14
   5   3   4 6.68710 3.24205  10
   5   3   4 1.39933 1.62899  11
  -5   3  -4 0.26169 1.35327   3
  -5   3  -4 0.73039 1.33171   8
   5   3   4 1.71858 1.30983   1
  -5   3  -4 2.91023 1.42326   2
   5   3   4 3.71886 1.40312   6
   7  -3   4 2.47777 0.81765   6
  -7  -3  -4 2.96638 3.31562   5
  -7  -3  -4 4.00538 2.26746   8
  -7  -3  -4 4.32335 1.75684   2
   7  -3   4 1.84159 1.85504  11
  -7   3  -4 1.80511 1.70468   8
   7   3   4 2.81192 1.66976   1
   7   3   4 1.39276 1.64915   6
  -7   3  -4 3.13397 2.41907   5
   7   3   4 9.54952 2.86404  11
  10  -4  -4 1111.95 24.7329   6
  10  -4  -4 1130.63 25.7707   1
  10  -4  -4 1021.63 29.8258  13
 -10  -4   4 1136.72 25.4958   8
 -10   4   4 1172.68 27.3762   3
  10   4  -4 1156.25 28.0528   1
 -10   4   4 1142.07 26.6940   5
  10   4  -4 1157.51 27.9334  11
   8  -4  -4 190.257 9.84163  13
  -8  -4   4 179.701 7.00241   8
  -8  -4   4 179.233 6.52986  12
   8  -4  -4 183.983 7.19677   1
  -8  -4   4 181.697 7.26603   1
   8  -4  -4 181.588 6.63680   6
  -8   4   4 173.500 7.30944   5
   8   4  -4 175.451 8.18749   1
  -8   4   4 189.638 7.77962   3
   8   4  -4 180.411 7.25377   6
   8   4  -4 197.650 8.15492  11
  -6  -4   4 2442.39 43.8397  12
   6  -4  -4 2467.69 45.6160   1
  -6  -4   4 2416.69 45.8158   1
   6  -4  -4 2460.98 49.6631  13
   6  -4  -4 2437.24 44.3268   6
  -6   4   4 2336.25 45.1383   3
  -6   4   4 2385.86 44.8363   9
   6   4  -4 2412.63 45.1530  11
   6   4  -4 2349.96 44.4605   6
   6   4  -4 2410.30 46.5100   1
  -6   4   4 2367.93 42.7770  12
  -4  -4   4 15.0157 1.90077   1
  -4  -4   4 12.9634 1.58641   6
   4  -4  -4 17.0291 2.63248  13
  -4  -4   4 15.7165 1.48888  12
   4  -4  -4 13.9281 1.66623   6
   4   4  -4 12.6010 1.92558   1
   4   4  -4 12.9379 1.69685   4
  -4   4   4 16.8442 1.94677   3
   4   4  -4 13.0687 1.57905  11
  -4   4   4 23.1996 3.06294  10
  -4   4   4 14.1588 1.54267   1
  -4   4   4 15.0819 1.15843  12
  -4   4   4 13.7303 1.76259   9
   2  -4  -4 3137.56 57.1637   1
  -2  -4   4 3187.97 56.5315   1
   2  -4  -4 3067.01 55.7072   6
  -2  -4   4 3224.61 55.5277   6
   2  -4  -4 3086.69 55.1897   2
   2  -4  -4 3268.84 58.2245  13
  -2  -4   4 3155.50 58.0285  10
  -2  -4   4 3202.03 55.0169  12
   2   4  -4 3219.76 55.3520  11
   2   4  -4 3112.63 54.4841   3
  -2   4   4 3126.57 54.6042  12
   2   4  -4 3027.90 56.9507  10
  -2   4   4 3302.78 60.7130  10
   2   4  -4 3160.96 56.3046  14
  -2   4   4 3185.50 56.0062   3
   2   4  -4 3196.35 57.0493   4
   2   4  -4 3169.39 57.4173   7
  -2   4   4 3214.81 56.9945   1
  -2   4   4 3199.71 56.2362   9
  -2   4   4 3068.19 55.4660   6
   2   4  -4 3106.86 55.7492   1
   0  -4   4 9.86469 1.20389   1
   0  -4   4 7.31390 0.82117   9
   0  -4  -4 5.73955 1.11200   2
   0  -4  -4 5.60955 1.23800  13
   0  -4  -4 9.16873 1.24021   8
   0  -4   4 9.99623 1.19687  12
   0  -4   4 7.92245 0.86943   6
   0   4  -4 7.87150 1.42729   2
   0   4  -4 11.8621 1.74500   7
   0   4   4 5.58693 1.15978   9
   0   4  -4 7.21280 1.58968   4
   0   4   4 10.8570 1.43488   6
   0   4  -4 4.99455 1.11051  14
   0   4   4 8.77927 1.22815  11
   0   4   4 8.59069 1.61817   1
   0   4  -4 6.26277 0.90041   3
   0   4   4 7.38930 2.16092  10
  -2  -4  -4 3057.73 54.7424  14
  -2  -4  -4 3030.78 55.0944   8
   2  -4   4 2930.46 59.3123  10
  -2  -4  -4 3100.27 55.4851   2
   2  -4   4 2974.60 52.3753   1
  -2  -4  -4 2937.03 54.7873   1
  -2   4  -4 3122.98 54.2336   3
   2   4   4 3035.27 56.3398   1
   2   4   4 3062.24 55.6765   9
  -2   4  -4 3080.85 56.3023   7
  -2   4  -4 3081.81 56.1184   5
  -2   4  -4 3072.07 55.4908  14
   2   4   4 3074.38 62.2997  10
   2   4   4 3008.59 54.6212  11
  -2   4  -4 3031.54 55.9599   4
  -2   4  -4 3002.05 54.7768   8
  -2   4  -4 3102.50 55.7429   2
   2   4   4 3123.44 55.0376   6
   4  -4   4 96.8840 7.19779  10
  -4  -4  -4 102.862 5.26738   8
  -4  -4  -4 120.344 5.37155   2
   4   4   4 108.321 5.08350  11
  -4   4  -4 105.732 5.72492   5
   4   4   4 113.724 5.73665   9
   4   4   4 98.6423 5.26654   1
  -4   4  -4 109.773 4.92761  14
  -4   4  -4 109.782 5.24530   4
  -4   4  -4 110.981 5.25673   2
   4   4   4 104.153 4.91712   6
  -4   4  -4 120.907 5.16936   3
  -4   4  -4 111.131 5.61423   7
  -4   4  -4 114.206 5.01773   8
   4   4   4 105.745 8.37187  10
  -6  -4  -4 1485.71 31.8544   2
  -6  -4  -4 1522.63 31.9542   8
  -6   4  -4 1479.06 33.0722   5
   6   4   4 1495.98 31.3336   6
  -6   4  -4 1470.39 30.8636   8
   6   4   4 1511.59 32.4317   1
  -6   4  -4 1530.17 31.7515   3
  -8  -4  -4 84.9785 5.88160   2
  -8  -4  -4 79.4928 5.52183   8
   8  -4   4 75.5654 2.96805   6
   8   4   4 72.7742 5.84538   9
   8   4   4 65.5222 5.15933   1
  -8   4  -4 80.3762 6.56387   5
   8   4   4 83.5153 5.55968   6
  11  -5  -4 23.0885 3.37216   1
  11  -5  -4 19.9197 3.08392   6
 -11  -5   4 21.1974 3.31671   8
  11   5  -4 24.3547 4.89797  11
 -11   5   4 20.9678 3.87855   5
  11   5  -4 22.6945 4.20458   1
 -11   5   4 19.8250 3.84299   3
   9  -5  -4 129.958 6.37322   1
   9  -5  -4 126.268 5.84820   6
  -9  -5   4 125.590 6.42856   8
   9  -5  -4 114.663 8.70186  13
   9   5  -4 123.735 7.26409   1
  -9   5   4 113.545 6.72305   3
   9   5  -4 123.019 7.47935  11
  -9   5   4 114.436 6.56215   5
  -7  -5   4 16.1993 2.31091   8
   7  -5  -4 15.6203 2.40442   1
   7  -5  -4 16.3925 3.46468  13
  -7  -5   4 16.5171 2.60892   1
  -7  -5   4 20.4257 2.35265  12
   7  -5  -4 17.9321 2.30276   6
  -7   5   4 16.8300 2.69389   5
  -7   5   4 18.6440 2.15711  12
   7   5  -4 19.8104 3.12626   7
   7   5  -4 25.5791 3.33321   1
  -7   5   4 17.4266 2.78041   3
   7   5  -4 16.3371 2.76064  11
   5  -5  -4 567.148 13.0398   6
  -5  -5   4 562.277 12.2772  12
   5  -5  -4 567.755 16.6362  13
  -5  -5   4 548.125 12.7251   6
   5  -5  -4 574.288 14.0718   1
  -5  -5   4 573.420 14.3928   1
  -5   5   4 563.329 11.2497  12
  -5   5   4 540.269 12.7453   1
   5   5  -4 559.809 12.7948   4
  -5   5   4 594.257 13.4073   9
  -5   5   4 563.452 13.5747   3
   5   5  -4 574.511 14.7707   7
   5   5  -4 576.052 13.5444  11
   5   5  -4 556.300 14.3657   1
  -3  -5   4 250.929 7.66786   1
   3  -5  -4 255.382 6.23169   2
   3  -5  -4 248.648 8.93012  13
  -3  -5   4 241.941 6.06327  12
   3  -5  -4 254.735 7.96134   1
  -3  -5   4 247.485 6.74509   6
   3  -5  -4 248.214 6.86091   6
   3   5  -4 249.793 6.79525  11
   3   5  -4 256.728 7.63837   4
  -3   5   4 246.854 7.15449   3
  -3   5   4 239.100 5.46461  12
   3   5  -4 243.837 8.05089   7
   3   5  -4 246.216 7.25700   1
  -3   5   4 238.976 6.91113   9
  -3   5   4 245.674 7.39937   1
  -3   5   4 247.284 9.38386  10
  -1  -5   4 367.440 8.15247   6
   1  -5  -4 344.610 8.36381   6
   1  -5  -4 334.767 7.50629   8
   1  -5  -4 354.289 9.82990  13
  -1  -5   4 351.614 7.63538  12
  -1  -5   4 352.242 8.83658   1
  -1  -5   4 331.720 9.09909  10
   1  -5  -4 356.572 9.81396   1
   1  -5  -4 338.974 8.44965   2
  -1   5   4 344.177 7.44819  12
  -1   5   4 347.702 11.5455  10
   1   5  -4 357.711 8.29989  11
  -1   5   4 335.827 8.50848   6
   1   5  -4 349.495 9.29408  14
  -1   5   4 347.918 8.50635  11
   1   5  -4 347.954 7.66267   3
   1   5  -4 339.701 9.74057   7
  -1   5   4 354.424 8.93225   9
  -1   5   4 357.162 9.70234   1
   1   5  -4 359.631 9.88038   4
   1  -5   4 969.533 17.7008   6
  -1  -5  -4 959.994 19.1799  13
  -1  -5  -4 945.176 20.4854   1
   1  -5   4 945.617 18.4145  12
  -1  -5  -4 950.911 19.3855   8
   1  -5   4 931.760 21.8780  10
   1  -5   4 952.378 18.4898   1
  -1  -5  -4 985.872 20.1757   2
  -1   5  -4 984.074 18.9803   3
  -1   5  -4 999.128 20.7931  14
  -1   5  -4 985.022 21.2596   4
   1   5   4 972.627 21.4043   1
   1   5   4 964.077 20.1896   9
  -1   5  -4 995.258 21.4994   7
   1   5   4 941.211 19.5702  11
   1   5   4 965.610 24.7656  10
  -1   5  -4 978.563 20.4377   5
   1   5   4 974.979 19.9341   6
  -3  -5  -4 114.456 4.75864  14
   3  -5   4 129.330 8.49020  10
  -3  -5  -4 118.877 5.28545   2
  -3  -5  -4 111.324 5.10274   8
   3   5   4 129.728 6.12026   1
  -3   5  -4 123.525 5.74437   4
  -3   5  -4 123.818 5.45448  14
  -3   5  -4 118.912 5.94825   7
  -3   5  -4 113.824 4.82026   8
   3   5   4 118.524 5.47211   9
  -3   5  -4 121.222 5.45383   2
   3   5   4 126.317 5.44278  11
   3   5   4 119.671 5.25782   6
  -3   5  -4 114.542 4.77065   3
   5  -5   4 377.503 13.0342  13
  -5  -5  -4 372.626 10.1512  14
  -5  -5  -4 388.125 11.7559   8
  -5  -5  -4 364.512 11.5689   2
   5   5   4 376.284 11.4885   6
  -5   5  -4 380.894 10.7199   8
  -5   5  -4 376.654 10.8954  14
  -5   5  -4 386.897 11.6146   4
  -5   5  -4 404.125 12.6323   7
   5   5   4 364.116 11.7962  11
  -5   5  -4 372.415 12.3180   5
  -5   5  -4 376.692 10.9993   3
  -5   5  -4 370.615 10.9103   2
   5   5   4 361.899 12.1424   9
   5   5   4 378.090 12.3851   1
   7  -5   4 102.186 2.70681   6
  -7  -5  -4 95.1224 6.29101   8
  -7  -5  -4 99.2837 6.03232   2
  -7   5  -4 107.752 7.08749   5
  -7   5  -4 102.632 6.24706   3
   7   5   4 92.4606 6.78558   9
   7   5   4 101.570 6.46570   1
   7   5   4 86.7206 7.11404  11
   7   5   4 94.2878 6.00320   6
  10  -6  -4 7.92868 2.25653   1
 -10  -6   4 6.70486 2.15785   2
  10  -6  -4 7.38599 2.18928   6
 -10  -6   4 5.75596 2.67092   8
  10   6  -4 5.46191 2.89131   1
 -10   6   4 5.97307 2.75022   5
  10   6  -4 4.20150 3.31433  11
 -10   6   4 8.60068 3.08161   3
   8  -6  -4 913.709 26.9326  13
  -8  -6   4 941.893 21.6785   8
   8  -6  -4 982.737 21.2087   6
   8  -6  -4 924.308 21.8473   1
  -8  -6   4 942.097 22.7858   1
   8   6  -4 916.575 22.8544  11
  -8   6   4 976.919 22.4631   5
   8   6  -4 944.959 23.9968   1
  -8   6   4 957.757 22.6905   3
   6  -6  -4 123.250 5.79469   1
  -6  -6   4 121.131 4.81300  12
   6  -6  -4 129.624 8.07753  13
  -6  -6   4 121.974 6.02328   1
   6  -6  -4 130.454 5.37348   6
  -6   6   4 132.962 6.11537   3
  -6   6   4 128.684 5.65371   5
   6   6  -4 135.559 6.70773   1
   6   6  -4 134.332 6.64287   7
   6   6  -4 123.679 5.88752  11
  -4  -6   4 2907.28 55.1349   1
   4  -6  -4 2987.66 53.6333   6
  -4  -6   4 2868.52 53.3720   6
   4  -6  -4 2955.74 55.1750   1
   4  -6  -4 3033.43 58.4071  13
  -4  -6   4 2873.34 52.0642  12
   4   6  -4 2917.12 55.5181   7
   4   6  -4 2942.62 54.7658   1
  -4   6   4 2936.36 53.8569   1
  -4   6   4 3014.34 54.3947   3
   4   6  -4 2994.38 53.9208  11
  -4   6   4 2959.31 53.5757   9
   2  -6  -4 569.996 14.9272  13
   2  -6  -4 554.746 12.1284   2
   2  -6  -4 534.508 12.6073   6
  -2  -6   4 548.552 11.3491  12
   2  -6  -4 579.155 14.4646   1
  -2  -6   4 552.795 13.5509   1
  -2  -6   4 569.681 12.6223   6
   2   6  -4 571.626 14.5256   7
   2   6  -4 573.406 11.9459   3
   2   6  -4 579.495 12.7447  11
  -2   6   4 578.595 13.4255   3
  -2   6   4 585.799 14.0615   1
  -2   6   4 549.658 15.7905  10
  -2   6   4 562.431 12.9392   9
   2   6  -4 574.341 14.1127   4
   0  -6  -4 3026.02 54.8401   8
   0  -6   4 3176.83 54.9658   6
   0  -6  -4 3046.92 56.8461  13
   0  -6  -4 3126.47 56.4382   2
   0  -6  -4 3161.14 57.9393   1
   0  -6   4 3062.60 55.8059   1
   0   6   4 3169.06 61.4648  10
   0   6  -4 3098.96 57.3373  14
   0   6  -4 3154.95 58.5282   7
   0   6  -4 3165.95 58.2863   4
   0   6   4 3129.76 56.3143  11
   0   6  -4 3085.81 55.0770   3
   0   6   4 3217.79 58.3066   1
   0   6   4 3017.21 56.1348   6
   0   6   4 3145.39 56.6816   9
  -2  -6  -4 159.217 6.26988   2
  -2  -6  -4 155.576 5.70836   8
   2  -6   4 157.069 4.07058   6
  -2  -6  -4 148.105 6.19548   1
   2  -6   4 151.804 4.50269   1
  -2   6  -4 155.377 6.63990   4
   2   6   4 153.280 7.03394   1
  -2   6  -4 190.470 6.72482   5
   2   6   4 170.920 6.26579  11
   2   6   4 158.717 9.01839  10
   2   6   4 148.521 5.99417   6
  -2   6  -4 164.098 6.56257  14
  -2   6  -4 161.601 5.51671   3
   2   6   4 153.710 6.16784   9
  -2   6  -4 155.744 6.91092   7
  -4  -6  -4 1096.93 23.0526  14
  -4  -6  -4 1088.95 23.9413   8
  -4  -6  -4 1061.49 24.1592   2
   4  -6   4 1072.65 18.7625   6
  -4   6  -4 1120.17 24.9626   4
   4   6   4 1102.21 24.3943   6
  -4   6  -4 1128.29 25.8461   7
  -4   6  -4 1063.28 23.0370   3
   4   6   4 1077.71 24.3583  11
  -4   6  -4 1146.07 25.2272   5
   4   6   4 1082.71 25.8083   1
   4   6   4 1022.77 31.2019  10
  -4   6  -4 1106.16 24.0453  14
   4   6   4 1080.46 24.7553   9
  -6  -6  -4 7.11852 2.07791   8
  -6  -6  -4 14.5374 2.78044   2
   6   6   4 8.57967 2.84732  11
  -6   6  -4 8.13106 2.92007   5
  -6   6  -4 8.51679 2.01037   3
   6   6   4 5.08367 2.09463   6
  -6   6  -4 7.48299 2.29973   7
   6   6   4 5.86372 2.47397   1
   6   6   4 4.15800 2.41459   9
  -8  -6  -4 310.703 11.7964   8
   8   6   4 315.168 11.7759   6
  -8   6  -4 329.756 12.9240   5
  -9  -7   4 92.0017 6.03896   8
   9  -7  -4 91.5342 5.39694   1
   9  -7  -4 90.5012 5.33900   6
  -9   7   4 97.0217 6.33519   5
   9   7  -4 94.6515 7.05245  11
  -9   7   4 91.2723 6.46789   3
   9   7  -4 90.0219 7.13634   1
   7  -7  -4 3.56962 1.62610   6
   7  -7  -4 2.16400 1.64371   1
  -7  -7   4 11.6045 2.47748   1
  -7  -7   4 5.67121 2.02215   8
   7  -7  -4 4.90287 3.08642  13
  -7   7   4 3.14055 1.76193   5
   7   7  -4 5.24723 2.14071   7
  -7   7   4 5.77739 2.27435   3
   7   7  -4 5.90710 1.99967  11
   7   7  -4 6.29165 2.50790   1
   5  -7  -4 154.467 8.71027  13
   5  -7  -4 137.981 5.70325   6
  -5  -7   4 141.921 6.68683   1
   5  -7  -4 147.492 6.63789   1
  -5  -7   4 135.892 4.89247  12
   5   7  -4 147.422 6.82731   1
   5   7  -4 138.110 5.96707  11
  -5   7   4 154.898 6.49875   3
  -5   7   4 148.370 5.84090   9
  -5   7   4 147.108 5.78172   5
   5   7  -4 142.612 6.97420   7
  -3  -7   4 1.92587 1.41408   1
  -3  -7   4 2.60455 1.23442   6
   3  -7  -4 8.99244 2.55518  13
   3  -7  -4 2.02603 1.22678   6
   3  -7  -4 3.09747 1.33089   1
  -3   7   4 2.86209 1.23114   9
  -3   7   4 2.10745 1.31347   1
  -3   7   4 5.73685 1.67484   3
   3   7  -4 2.79049 1.06810   1
   3   7  -4 5.96584 1.97151   7
   3   7  -4 4.31075 1.55490   4
  -3   7   4 3.47492 1.53341  10
   3   7  -4 3.97268 1.25606  11
   1  -7  -4 0.04727 0.85130   2
  -1  -7   4 0.08815 0.82698   6
  -1  -7   4 0.80297 1.00776   1
   1  -7  -4 0.65534 1.28752  13
   1  -7  -4 0.58877 0.95078   1
   1  -7  -4 -0.2704 0.87747   6
  -1   7   4 1.12670 1.13171   9
   1   7  -4 1.60883 1.50945   4
   1   7  -4 2.35037 1.37006   7
  -1   7   4 3.93536 1.61254   3
   1   7  -4 1.37430 0.85033   3
  -1   7   4 0.60646 0.94149   1
  -1   7   4 0.21706 1.12278  10
   1  -7   4 36.7532 2.24627   6
   1  -7   4 38.7534 2.53673   1
  -1  -7  -4 36.9587 2.44560   8
  -1  -7  -4 38.0838 3.25668   2
  -1  -7  -4 41.4039 3.69187   1
   1   7   4 33.4486 4.15829  10
  -1   7  -4 33.1202 2.88431   5
  -1   7  -4 34.7879 3.98808   7
  -1   7  -4 34.5274 2.52679   3
   1   7   4 34.6848 2.86603   9
  -1   7  -4 34.5389 3.91534   4
   1   7   4 34.6948 3.00321  11
   1   7   4 37.9003 3.50358   1
  -3  -7  -4 17.4975 2.47239   8
   3  -7   4 18.2799 1.50518   6
  -3  -7  -4 16.6093 2.74354   2
  -3   7  -4 18.3605 3.26136   4
   3   7   4 16.7882 2.85679  11
  -3   7  -4 15.7215 3.11458   7
   3   7   4 20.6455 4.08442  10
   3   7   4 14.3802 2.39952   6
  -3   7  -4 15.8214 2.31129   3
   3   7   4 16.3866 2.82156   9
   3   7   4 21.1729 3.49611   1
  -3   7  -4 15.7712 2.67796   5
  -5  -7  -4 16.8993 3.15867   2
  -5  -7  -4 11.8929 2.25187  14
   5  -7   4 11.8887 1.07739   6
  -5  -7  -4 11.3620 2.37588   8
   5  -7   4 13.9911 3.45128  13
   5   7   4 17.5081 3.32410   9
   5   7   4 12.3352 2.62110   6
   5   7   4 15.1541 3.19156  11
   5   7   4 14.1502 2.98494   1
  -5   7  -4 10.6764 2.81783   5
  -5   7  -4 11.9437 2.74317   7
  -5   7  -4 11.6960 2.92599   4
  -5   7  -4 13.9253 2.51263   3
  -7  -7  -4 5.10643 2.64121   8
   7  -7   4 3.12715 0.88711   6
  -7  -7  -4 3.49931 2.51469   2
   7   7   4 -1.1892 2.41764   9
   7   7   4 2.63053 2.18387   6
   7   7   4 3.01951 2.53635   1
  -7   7  -4 -1.0427 2.45279   5
 -10  -8   4 231.585 9.46701   2
  10  -8  -4 217.735 8.71029   6
 -10  -8   4 226.712 9.80207   8
  10   8  -4 241.853 11.2413  11
 -10   8   4 235.024 10.5393   3
 -10   8   4 245.598 10.3630   5
  10   8  -4 225.808 11.1711   1
  -8  -8   4 535.029 16.1747   1
   8  -8  -4 510.069 14.7727   1
  -8  -8   4 534.908 14.9811   8
   8  -8  -4 511.305 13.9855   6
   8  -8  -4 481.862 19.5390  13
   8   8  -4 515.007 16.8943   1
   8   8  -4 514.157 15.9048  11
  -8   8   4 501.120 14.7840   5
  -8   8   4 502.345 15.5119   3
  -6  -8   4 276.003 10.3899   1
   6  -8  -4 264.602 9.61659   1
   6  -8  -4 268.450 8.85801   6
  -6  -8   4 264.747 8.83740   8
   6  -8  -4 249.627 12.4010  13
   6   8  -4 255.651 10.1476   7
   6   8  -4 251.239 9.64281  11
  -6   8   4 253.007 8.66627   5
  -6   8   4 278.526 9.99932   3
   6   8  -4 264.131 10.0787   1
  -4  -8   4 677.986 17.7416   1
   4  -8  -4 691.109 20.3817  13
   4  -8  -4 678.735 16.1088   6
  -4  -8   4 710.787 16.3767   6
   4  -8  -4 683.792 17.6032   1
  -4   8   4 688.212 16.9864   3
   4   8  -4 666.401 16.5333   4
  -4   8   4 684.724 15.8404   9
   4   8  -4 699.875 16.7635  11
   4   8  -4 661.193 16.8363   1
   4   8  -4 679.682 18.1634   7
   2  -8  -4 161.407 6.25565   6
   2  -8  -4 174.090 7.60987   1
  -2  -8   4 172.365 6.25799   6
   2  -8  -4 164.750 7.84874  13
  -2   8   4 172.399 6.16270   9
  -2   8   4 165.958 6.93921   3
   2   8  -4 173.122 5.83858   3
   2   8  -4 177.372 6.63285  11
   2   8  -4 166.732 7.24907   4
  -2   8   4 158.476 6.80031   1
   2   8  -4 178.736 8.08413   7
   0  -8   4 756.826 17.1877   1
   0  -8  -4 733.695 18.8646   1
   0  -8   4 742.102 16.2589   6
   0  -8  -4 756.909 17.3008   2
   0   8   4 767.963 17.2042   9
   0   8   4 722.203 17.4895  11
   0   8  -4 755.327 19.7223   7
   0   8  -4 744.134 16.2132   3
   0   8   4 762.896 19.1060   1
   0   8  -4 745.340 19.1007   4
  -2  -8  -4 204.129 8.24323   1
   2  -8   4 169.524 5.43345   6
   2  -8   4 165.088 5.61775   1
  -2  -8  -4 172.886 7.17480   2
   2   8   4 164.158 7.27629  11
  -2   8  -4 181.015 8.40041   4
  -2   8  -4 172.267 6.35763   3
  -2   8  -4 168.662 6.87598   5
  -2   8  -4 154.431 8.02745   7
   2   8   4 157.954 7.90368   1
   2   8   4 176.789 7.05783   9
  -4  -8  -4 653.300 17.6999   2
   4  -8   4 674.648 21.1467  13
  -4  -8  -4 683.670 17.0485   8
  -4  -8  -4 676.658 16.7364  14
   4  -8   4 670.400 13.7904   6
  -4   8  -4 710.453 20.2003   7
  -4   8  -4 694.425 18.1523   5
   4   8   4 666.066 19.8472   1
  -4   8  -4 699.768 19.1704   4
   4   8   4 658.089 18.0702  11
   4   8   4 642.401 17.5407   9
  -6  -8  -4 161.740 7.81307   8
  -6  -8  -4 162.816 8.00027   2
   6   8   4 146.279 8.28458   9
   6   8   4 147.197 8.37706  11
   6   8   4 164.795 9.41023   1
  -6   8  -4 150.996 8.20300   5
  -6   8  -4 159.194 9.27130   7
   9  -9  -4 9.32818 2.49842   1
   9  -9  -4 10.6989 2.85125   6
  -9  -9   4 8.86720 3.00266   8
  -9   9   4 8.55148 2.71237   5
   9   9  -4 5.70463 2.60744   1
   9   9  -4 9.51070 3.00760  11
  -9   9   4 9.70705 2.73554   3
   7  -9  -4 70.1473 7.17048  13
  -7  -9   4 71.0253 5.97189   1
  -7  -9   4 64.8549 4.88158   8
   7  -9  -4 68.5340 5.09765   1
   7  -9  -4 70.0586 4.81172   6
   7   9  -4 66.4707 5.29473  11
  -7   9   4 70.7611 5.73502   3
   7   9  -4 71.8974 6.15966   1
   5  -9  -4 2.31183 1.76473   1
  -5  -9   4 -1.0811 1.63208   1
  -5  -9   4 0.58765 1.36481   8
   5  -9  -4 7.23623 2.08100   6
   5  -9  -4 0.64976 1.81381  13
   5   9  -4 0.19935 1.82395  11
  -5   9   4 0.70859 1.22107   9
   5   9  -4 10.7832 2.97196   7
  -5   9   4 1.46834 1.41063   3
  -3  -9   4 25.6398 3.46662   1
   3  -9  -4 34.5947 3.31387   6
   3  -9  -4 27.8652 4.41442  13
  -3  -9   4 22.4900 2.77843   6
   3  -9  -4 28.5152 3.83338   1
   3   9  -4 29.5759 2.81980   3
   3   9  -4 45.1951 4.70958   7
   3   9  -4 31.9448 3.52204  11
  -3   9   4 25.4254 3.52115   3
   3   9  -4 28.6685 3.64402   4
  -3   9   4 24.4506 2.64842   9
   1  -9  -4 10.5629 1.99899   2
  -1  -9   4 13.0643 2.18281   6
   1  -9  -4 8.62713 2.14915   1
   1  -9  -4 12.4087 2.72023  13
  -1  -9   4 9.45741 2.01223   1
   1   9  -4 8.27932 1.77263   3
  -1   9   4 7.66578 2.14636   1
   1   9  -4 7.98738 2.69768   7
  -1   9   4 9.94589 2.47159   3
   1   9  -4 9.86095 2.38091   4
  -1   9   4 11.1784 2.03951   9
  -1  -9  -4 1.21945 1.82450   1
   1  -9   4 4.99356 1.48412   1
  -1  -9  -4 4.07180 1.54471   2
   1  -9   4 3.56444 1.32562   6
  -1   9  -4 5.13020 2.57045   7
  -1   9  -4 2.73215 1.44114   3
   1   9   4 6.15373 2.38244   1
   1   9   4 8.17497 1.94992   9
  -1   9  -4 6.59808 2.66402   4
   1   9   4 3.72206 1.91569  11
  -3  -9  -4 33.8467 3.78939   2
   3  -9   4 32.9654 2.64443   6
  -3   9  -4 30.7792 4.80081   7
   3   9   4 32.0970 4.21836  11
   3   9   4 31.6202 4.36837   1
   3   9   4 30.7132 3.73060   9
  -3   9  -4 35.0254 4.73188   4
  -5  -9  -4 5.24469 2.13642   2
  -5  -9  -4 0.62058 1.64306  14
   5  -9   4 5.17738 1.19753   6
  -5   9  -4 3.99477 2.89240   7
   5   9   4 5.99452 3.13122   1
   5   9   4 1.94907 2.38586  11
  -5   9  -4 1.92309 2.15724   5
   8 -10  -4 6.07994 2.36969   1
   8 -10  -4 5.70639 2.24315   6
  -8 -10   4 7.45896 2.91333   1
  -8 -10   4 7.42979 2.62547   8
  -8  10   4 7.92381 3.18131   3
   8  10  -4 7.05590 3.17313  11
   8  10  -4 3.36651 2.70554   1
  -6 -10   4 893.777 23.9435   1
  -6 -10   4 858.210 20.7028   8
   6 -10  -4 887.500 22.4929   1
   6 -10  -4 905.671 21.5583   6
  -6  10   4 905.310 22.8967   3
   6  10  -4 871.693 22.6068  11
  -4 -10   4 73.3481 5.72492   1
   4 -10  -4 72.5644 4.83628   6
   4 -10  -4 73.1912 5.33336   1
   4 -10  -4 79.6890 6.85025  13
   4  10  -4 72.9308 5.43518  11
   4  10  -4 69.3148 5.94284   7
  -4  10   4 78.5881 5.59799   3
   4  10  -4 71.6115 4.57064   3
  -2 -10   4 1297.54 26.7852   6
   2 -10  -4 1211.69 28.9766   1
   2 -10  -4 1221.07 30.1809  13
  -2 -10   4 1189.16 27.7607   1
   2  10  -4 1199.18 28.4809   4
  -2  10   4 1216.17 27.6785   3
   0 -10   4 132.710 6.31107   1
   0 -10   4 123.720 5.74649   6
   0 -10  -4 127.436 6.25930   2
   0 -10  -4 131.179 7.63930   1
   0  10   4 125.712 6.95901   1
   0  10  -4 122.451 7.95919   7
   0  10   4 137.930 7.28334   3
   0  10  -4 129.636 7.49713   4
   2 -10   4 759.787 17.4954   6
  -2 -10  -4 760.569 20.9808   1
  -2 -10  -4 770.743 19.5584   2
  -2  10  -4 795.841 21.9881   4
  -2  10  -4 774.568 22.6851   7
   2  10   4 752.079 20.1923  11
   2  10   4 780.228 21.8107   1
   4 -10   4 49.2976 3.10298   6
  -4 -10  -4 56.5242 4.71434  14
  -4 -10  -4 56.0918 5.28516   2
   4  10   4 48.8259 5.42669  11
  -4  10  -4 55.0149 6.66476   7
   4  10   4 40.2113 5.43704   1
   7 -11  -4 91.2365 6.25884   1
  -7 -11   4 97.9580 7.08196   1
   7 -11  -4 100.116 6.17358   6
   7  11  -4 95.1872 7.14066  11
  -7  11   4 97.1595 6.97840   3
  -5 -11   4 60.5468 5.90450   1
   5 -11  -4 61.0409 4.91791   6
   5 -11  -4 58.4565 5.04999   1
  -5  11   4 56.1384 5.38004   3
   5  11  -4 60.2112 5.51592  11
   5  11  -4 59.4507 5.89149   7
   3 -11  -4 149.781 9.50457  13
  -3 -11   4 150.351 8.20461   1
   3 -11  -4 144.667 8.25970   1
  -3 -11   4 129.133 6.56870   6
   3  11  -4 146.758 8.79462   7
  -3  11   4 146.296 7.77450   3
   3  11  -4 149.722 7.62085  11
  -1 -11   4 128.694 6.36596   6
  -1 -11   4 134.335 6.95357   1
   1 -11  -4 131.964 7.98732   1
  -1  11   4 119.206 7.33047   3
   1  11  -4 126.478 7.94659   4
   1  11  -4 117.009 8.18690   7
  -1 -11  -4 86.1213 5.38918   2
  -1 -11  -4 83.5537 6.26096   1
   1 -11   4 87.0059 5.23044   1
   1 -11   4 79.9588 4.78602   6
   1  11   4 75.8043 6.24907   1
   1  11   4 85.9901 6.61056   3
  -1  11  -4 80.8654 6.77266   7
   3 -11   4 116.761 5.37165   6
  -3 -11  -4 106.503 6.85569   2
   3  11   4 100.457 7.14149  11
   3  11   4 120.428 8.29278   1
  -3  11  -4 124.008 9.06414   7
   6 -12  -4 92.9154 6.19886   6
   6 -12  -4 93.0653 6.62562   1
  -6 -12   4 96.4534 7.52118   1
   6  12  -4 88.1115 6.94356  11
  -6  12   4 84.6636 6.80264   3
  -4 -12   4 399.704 14.5685   1
   4 -12  -4 375.573 13.8557   1
  -4  12   4 368.023 13.4445   3
   4  12  -4 370.500 14.7577   7
   4  12  -4 358.363 12.7572  11
   2 -12  -4 55.3451 5.85826   1
  -2 -12   4 52.8933 4.58234   6
  -2 -12   4 53.3011 5.22691   1
   2  12  -4 56.4993 6.33603   7
  -2  12   4 56.6297 5.55292   3
   0 -12   4 391.184 13.1642   1
   0 -12  -4 415.365 15.3206   1
   0 -12   4 433.588 12.9147   6
   0  12  -4 418.657 16.3639   7
   0  12   4 394.837 14.3932   3
  -2 -12  -4 36.1195 4.48008   2
   2 -12   4 34.4217 3.53527   6
  -2 -12  -4 35.6653 4.60597   1
  -2  12  -4 35.4085 5.70904   7
   2  12   4 41.2606 5.47220   1
   2  12   4 54.1507 6.30757   3
  -3 -13   4 7.80395 3.05910   1
   3 -13  -4 3.14080 2.04579   1
   3  13  -4 4.91555 3.04997   7
  -3  13   4 3.55350 2.63152   3
   1 -13  -4 1.18798 2.78397   1
  -1 -13   4 1.13589 1.86793   6
  -1 -13   4 2.83112 2.21275   1
   1  13  -4 2.91969 3.16915   7
  -1  13   4 2.54563 2.77770   3
 -12   0   5 0.83109 1.79132   8
  12   0  -5 -1.5283 2.92807  11
  12   0  -5 2.28788 2.23101   6
  12   0  -5 0.13476 2.17615   1
 -12   0   5 3.03093 2.68404   5
 -10   0   5 0.11648 1.50147   8
  10   0  -5 3.38445 1.84893   1
  10   0  -5 0.20221 1.59140  11
  10   0  -5 0.46211 1.64627   6
 -10   0   5 1.10300 1.93559   5
  -8   0   5 0.95330 1.33269   3
  -8   0   5 1.52894 0.90151   8
   8   0  -5 -0.2920 1.75716  13
  -8   0   5 3.19502 1.29937  12
   8   0  -5 1.70685 1.57921   1
   8   0  -5 0.22722 1.23587   6
   8   0  -5 0.68237 0.99327  11
  -6   0   5 -0.2482 0.57603  12
   6   0  -5 2.30032 1.09677   1
   6   0  -5 -0.2929 1.33192  13
  -6   0   5 0.25403 0.85766   1
   6   0  -5 0.94593 0.96035   6
  -6   0   5 0.15011 0.90358   9
   6   0  -5 0.28518 0.84313  11
  -6   0   5 -0.0754 0.64982   3
   4   0  -5 0.94325 1.15586  13
   4   0  -5 -0.0861 0.47474  14
   4   0  -5 0.27893 0.55813   6
  -4   0   5 1.26177 0.45895   3
  -4   0   5 0.00834 0.66747   9
  -4   0   5 2.28473 0.80869  12
  -4   0   5 2.27669 0.98321   1
   4   0  -5 0.53370 0.45265  11
  -4   0   5 1.47275 1.37458  10
   4   0  -5 -0.0706 0.48409   1
  -4   0   5 1.45272 0.67682   6
  -2   0   5 0.67776 1.19950  10
   2   0  -5 0.24328 0.69047   4
  -2   0   5 8.66622 1.27118   9
   2   0  -5 3.43823 0.93980  14
   0   0   5 0.57063 0.58719   9
   0   0   5 0.99565 0.68199   1
   0   0  -5 1.34471 0.70369   2
   0   0  -5 0.69517 0.58798  14
   0   0   5 0.80803 1.36838  10
   0   0   5 0.27565 0.45930   6
   0   0  -5 0.97038 0.81744   8
   0   0  -5 3.52323 0.77621   7
   0   0  -5 0.83468 0.74133   4
   2   0   5 1.22540 1.79393  10
   2   0   5 2.82743 0.75854   6
   2   0   5 0.91357 0.62791   1
  -2   0  -5 0.43590 1.14824   5
   2   0   5 0.40413 1.00730   9
  -2   0  -5 8.44036 1.54812  14
  -2   0  -5 -0.0806 1.00354   2
  -2   0  -5 0.30435 0.71742   4
   4   0   5 1.82388 0.92519   1
  -4   0  -5 5.78430 1.73338   2
  -4   0  -5 -0.0064 1.09199   5
   4   0   5 0.74479 0.82408   6
  -4   0  -5 0.58442 0.77421  14
   4   0   5 1.48564 2.09651  10
  -4   0  -5 2.90871 1.59609   8
  -6   0  -5 1.42230 2.08400   5
  -6   0  -5 0.10793 1.77834   8
  -6   0  -5 0.29508 1.60897   2
   6   0   5 0.40364 1.13849   6
  -8   0  -5 -1.7854 2.32430   5
   8   0   5 0.80993 1.43891   6
  -8   0  -5 1.43808 1.72613   8
  11  -1  -5 795.782 20.6996   1
  11  -1  -5 753.869 20.5026  11
 -11  -1   5 763.085 19.4968   5
 -11  -1   5 763.202 18.7748   8
  11   1  -5 757.340 20.7515   1
  11   1  -5 727.004 19.4799   6
 -11   1   5 756.522 19.8181   5
 -11   1   5 759.705 18.0167   8
  11   1  -5 723.552 20.7502  11
   9  -1  -5 104.377 5.41264   6
  -9  -1   5 96.7022 4.90009   8
  -9  -1   5 113.724 5.15629  12
  -9  -1   5 100.014 5.37552   5
   9  -1  -5 89.8567 6.87700  13
   9  -1  -5 106.432 5.99600   1
   9  -1  -5 101.335 5.68308  11
  -9   1   5 97.4761 4.54462   8
  -9   1   5 96.5601 5.59838   3
  -9   1   5 95.5233 4.65505  12
   9   1  -5 104.373 6.00886  11
   9   1  -5 97.8608 6.08155   1
   9   1  -5 96.9112 5.16960   6
  -9   1   5 101.332 5.65013   5
   7  -1  -5 1968.20 41.6931  13
   7  -1  -5 2038.46 37.7583   6
   7  -1  -5 1977.34 38.9785   1
  -7  -1   5 1959.60 36.6678  12
  -7  -1   5 1944.98 37.9826   1
  -7   1   5 1936.87 37.8146   3
   7   1  -5 1996.00 37.7074   6
   7   1  -5 1985.41 37.7407  11
  -7   1   5 2026.91 36.5598  12
   7   1  -5 1959.99 36.9613   4
   7   1  -5 1958.03 39.2039   1
   7   1  -5 1978.88 41.2968  13
  -5  -1   5 410.561 9.55795   6
   5  -1  -5 414.268 8.89461  14
  -5  -1   5 450.874 10.9895   1
   5  -1  -5 434.165 12.6678  13
  -5  -1   5 426.720 9.66954  12
  -5  -1   5 427.264 9.88577   9
   5  -1  -5 438.737 10.1496   6
   5  -1  -5 430.491 11.1372   1
   5   1  -5 434.056 12.6214  13
  -5   1   5 433.396 10.3207   9
  -5   1   5 428.908 14.3117  10
   5   1  -5 437.263 11.2653   1
   5   1  -5 430.995 9.61045  11
  -5   1   5 425.149 9.49043  12
  -5   1   5 419.587 10.4854   1
   5   1  -5 426.308 9.96572   6
   5   1  -5 434.936 10.4260   4
  -5   1   5 425.591 9.81794   3
   5   1  -5 426.156 8.86749  14
  -3  -1   5 3234.85 56.7986   6
  -3  -1   5 3233.19 56.6315  12
   3  -1  -5 3214.95 58.0154   1
  -3  -1   5 3164.59 57.9002   1
   3  -1  -5 3378.15 59.9948  13
   3  -1  -5 3192.83 56.3370   2
   3  -1  -5 3096.61 56.4960   6
  -3  -1   5 3315.86 62.2014  10
  -3  -1   5 3330.06 56.7798   9
   3  -1  -5 3288.46 56.8850  14
   3   1  -5 3329.68 60.0425  13
  -3   1   5 3245.33 57.2872   9
   3   1  -5 3179.84 56.9733  14
   3   1  -5 3252.91 57.7473   1
  -3   1   5 3228.36 56.7933   6
  -3   1   5 3286.86 62.6080  10
   3   1  -5 3176.58 56.8475  11
  -3   1   5 3134.56 57.0752   3
  -3   1   5 3288.11 58.0621   1
   3   1  -5 3262.96 57.6924   4
   3   1  -5 3206.64 56.9242   2
  -3   1   5 3240.24 56.5336  12
   1  -1  -5 1228.53 23.7833   2
  -1  -1   5 1217.84 23.6491   1
   1  -1  -5 1209.16 23.4381   1
  -1  -1   5 1241.14 23.1647  12
  -1  -1   5 1285.59 22.8342   6
  -1  -1   5 1254.84 28.1721  10
   1  -1  -5 1274.37 25.1296  13
   1  -1  -5 1232.86 23.5903  14
   1  -1  -5 1241.17 23.8300   4
   1  -1  -5 1248.45 23.5169   8
  -1  -1   5 1233.12 23.2575   9
  -1   1   5 1263.18 28.7319  10
  -1   1   5 1234.66 23.7715   9
  -1   1   5 1257.74 23.1242  12
   1   1  -5 1192.91 22.7031   1
   1   1  -5 1224.69 23.9611   2
   1   1  -5 1228.28 23.9777   4
  -1   1   5 1254.78 23.2175   6
  -1   1   5 1250.26 24.2453   1
   1   1  -5 1221.11 23.7966  14
   1   1  -5 1219.71 23.7225   7
   1  -1   5 1806.51 34.4579   9
   1  -1   5 1861.15 40.7782  10
  -1  -1  -5 1862.99 35.1823   2
  -1  -1  -5 1821.10 34.4543  14
   1  -1   5 1868.77 32.6576   6
  -1  -1  -5 1846.85 34.1036   4
  -1  -1  -5 1799.62 34.7059   8
   1  -1   5 1863.83 33.7325   1
  -1   1  -5 1862.35 33.9762   7
  -1   1  -5 1855.90 34.9549   8
   1   1   5 1861.05 41.3187  10
  -1   1  -5 1872.23 34.6954   4
  -1   1  -5 1874.65 34.7407  14
   1   1   5 1870.04 35.0411   9
   1   1   5 1894.87 33.6429   6
   1   1   5 1817.32 34.5986   1
  -1   1  -5 1887.85 35.3370   2
   3  -1   5 754.261 14.4002   6
  -3  -1  -5 771.680 16.6132  14
   3  -1   5 803.374 15.3746   1
  -3  -1  -5 744.774 17.8360   5
  -3  -1  -5 734.212 15.7737   4
  -3  -1  -5 760.133 17.5465   8
  -3  -1  -5 766.324 17.6384   2
   3  -1   5 773.303 23.7094  10
  -3   1  -5 878.317 17.9223   8
   3   1   5 777.184 24.2615  10
   3   1   5 757.181 16.5648   1
  -3   1  -5 750.194 18.2145   5
   3   1   5 746.519 15.6758   6
  -3   1  -5 740.624 16.3736   4
  -3   1  -5 759.106 16.7242  14
  -3   1  -5 771.145 17.6325   2
  -5  -1  -5 534.622 13.1879  14
  -5  -1  -5 553.916 14.6551   2
  -5  -1  -5 539.077 14.7184   8
   5  -1   5 554.857 11.6101   6
  -5  -1  -5 552.764 15.4751   5
   5   1   5 541.449 13.2474   1
  -5   1  -5 536.436 14.3765   2
  -5   1  -5 544.178 13.4187  14
  -5   1  -5 542.736 15.5459   5
   5   1   5 551.619 12.8649   6
  -5   1  -5 581.552 15.0089   8
  -7  -1  -5 263.707 10.7978   5
  -7  -1  -5 261.201 9.79064   2
  -7  -1  -5 262.764 9.88017   8
   7  -1   5 258.521 7.43124   6
  -7   1  -5 249.895 9.31785   2
   7   1   5 262.780 8.49716   6
  -7   1  -5 244.134 10.7750   5
  -7   1  -5 251.135 9.73799   8
  12  -2  -5 164.825 8.31646   1
 -12  -2   5 152.988 7.56044   8
  12  -2  -5 155.365 8.48936  11
  12  -2  -5 173.024 8.05450   6
  12   2  -5 163.584 9.18762  11
 -12   2   5 165.986 8.90494   5
  12   2  -5 165.782 8.78834   1
  10  -2  -5 357.426 14.7232  13
  10  -2  -5 371.921 11.5796   6
  10  -2  -5 376.428 12.3539  11
  10  -2  -5 379.049 12.4012   1
 -10  -2   5 365.986 11.4296   5
 -10  -2   5 358.239 11.2484   8
  10   2  -5 392.229 13.1999  11
 -10   2   5 360.962 12.1849   5
 -10   2   5 379.100 12.3823   3
  10   2  -5 367.502 13.0056   1
  10   2  -5 389.984 12.1150   6
  -8  -2   5 480.387 11.6707  12
   8  -2  -5 467.280 12.3066   6
   8  -2  -5 451.044 15.8820  13
  -8  -2   5 461.633 12.5302   1
   8  -2  -5 474.673 13.3309   1
  -8   2   5 462.068 11.0095   8
   8   2  -5 481.528 13.9470   1
   8   2  -5 498.700 13.2003  11
   8   2  -5 443.975 14.6493  13
  -8   2   5 471.755 12.8288   5
  -8   2   5 464.785 12.8588   3
   8   2  -5 464.616 12.5752   6
  -8   2   5 478.757 11.3153  12
  -6  -2   5 866.223 18.9521   1
  -6  -2   5 859.130 17.4653  12
   6  -2  -5 857.031 19.3023   1
   6  -2  -5 856.729 21.7715  13
   6  -2  -5 855.333 18.0496   6
  -6   2   5 872.941 18.3278   9
  -6   2   5 855.843 17.1034  12
   6   2  -5 859.587 17.8794   4
  -6   2   5 844.117 18.3343   1
  -6   2   5 836.496 18.1863   3
   6   2  -5 855.128 20.9895  13
   6   2  -5 849.008 17.8923  11
   6   2  -5 899.384 19.7950   1
   6   2  -5 843.699 17.9490   6
  -4  -2   5 1115.22 26.0724  10
  -4  -2   5 1105.34 20.9556   9
  -4  -2   5 1101.46 21.1365  12
  -4  -2   5 1084.22 21.2795   6
   4  -2  -5 1127.42 24.6106  13
  -4  -2   5 1119.86 22.5860   1
   4  -2  -5 1105.51 20.9992  14
   4  -2  -5 1091.59 19.9858   2
   4  -2  -5 1116.70 22.8091   1
   4  -2  -5 1088.71 21.4372   6
   4   2  -5 1113.98 20.7146  11
   4   2  -5 1133.58 22.5993   1
  -4   2   5 1136.26 22.5134   1
  -4   2   5 1108.65 21.8757   9
  -4   2   5 1116.20 26.6354  10
  -4   2   5 1097.47 21.1865   3
   4   2  -5 1108.58 22.0692   4
   4   2  -5 1132.91 22.3099   6
  -4   2   5 1111.90 20.8340  12
   4   2  -5 1094.55 20.9753  14
   4   2  -5 1134.26 24.5885  13
  -4   2   5 1075.99 21.0133   6
   2  -2  -5 901.255 19.3473  13
  -2  -2   5 891.301 16.7611   9
   2  -2  -5 859.567 17.1553   2
  -2  -2   5 880.426 16.9670   6
  -2  -2   5 886.124 17.0287  12
   2  -2  -5 886.184 17.4573  14
  -2  -2   5 822.033 17.6131   1
  -2  -2   5 892.250 21.3824  10
   2  -2  -5 879.055 18.1247   1
   2   2  -5 887.291 18.3373   7
  -2   2   5 888.517 22.0741  10
  -2   2   5 900.219 17.8772   9
   2   2  -5 878.329 17.8005   2
   2   2  -5 879.189 18.1397   4
   2   2  -5 867.303 17.2106   1
   2   2  -5 871.205 17.6768  14
  -2   2   5 879.221 16.8394  12
   2   2  -5 866.573 15.6543  11
  -2   2   5 847.687 17.1448   6
  -2   2   5 876.437 16.5547   3
  -2   2   5 901.423 18.4454   1
   0  -2   5 943.907 18.4240   1
   0  -2   5 896.118 18.3349  12
   0  -2   5 939.303 18.4903   9
   0  -2  -5 967.660 18.9257   4
   0  -2  -5 909.626 18.6995   1
   0  -2  -5 945.518 18.9880  14
   0  -2  -5 956.558 19.4035   2
   0  -2   5 975.377 17.5428   6
   0  -2   5 966.647 23.5381  10
   0  -2  -5 967.435 19.5478  13
   0  -2  -5 934.980 18.9552   8
   0   2  -5 929.892 19.1074   7
   0   2   5 947.552 19.6566   1
   0   2  -5 961.738 19.3096   8
   0   2   5 973.479 24.5386  10
   0   2   5 901.025 17.3422  11
   0   2  -5 973.073 19.6558   4
   0   2  -5 971.564 19.5108  14
   0   2  -5 947.448 19.6453   2
   0   2   5 968.347 19.5493   9
   0   2   5 961.315 18.6689   6
  -2  -2  -5 426.286 10.9955   2
  -2  -2  -5 406.949 9.53084   4
   2  -2   5 409.579 15.0010  10
  -2  -2  -5 421.647 10.8905   8
   2  -2   5 406.295 7.70877   6
  -2  -2  -5 426.750 10.3157  14
   2  -2   5 413.659 8.86923   1
   2  -2   5 424.950 7.78821   6
   2   2   5 422.999 11.2290   9
   2   2   5 417.349 9.90106   6
  -2   2  -5 408.708 10.5056  14
   2   2   5 351.552 10.0024  11
  -2   2  -5 417.443 10.3433   7
   2   2   5 426.046 10.8615   1
  -2   2  -5 439.915 10.9510   8
   2   2   5 435.401 16.1425  10
  -2   2  -5 420.069 11.6206   5
  -2   2  -5 414.754 10.5471   4
  -2   2  -5 412.121 10.9846   2
   4  -2   5 253.967 12.7515  10
  -4  -2  -5 275.262 9.01769   2
  -4  -2  -5 268.167 8.85806   8
  -4  -2  -5 257.735 9.05460   5
  -4  -2  -5 272.117 8.01604  14
   4  -2   5 271.250 5.55897   6
   4   2   5 282.311 9.65404   9
   4   2   5 273.811 7.93734   6
  -4   2  -5 274.158 8.26347  14
  -4   2  -5 259.063 9.58666   5
  -4   2  -5 256.903 7.90078   4
  -4   2  -5 271.550 8.92405   8
   4   2   5 256.812 13.7889  10
   4   2   5 275.407 8.52944   1
  -4   2  -5 263.836 8.76572   2
  -6  -2  -5 154.699 7.06077   2
  -6  -2  -5 155.646 7.68826   5
  -6  -2  -5 149.134 7.29565   8
   6  -2   5 160.236 4.58011   6
  -6   2  -5 156.703 7.18107   8
   6   2   5 164.845 6.48096   6
   6   2   5 155.660 6.62754   1
  -6   2  -5 149.866 8.00879   5
  -6   2  -5 151.199 6.87700   2
  -8  -2  -5 52.9505 4.73676   8
  -8  -2  -5 61.4001 5.16647   2
   8  -2   5 59.8351 3.23172   6
   8   2   5 59.8842 5.42088   9
  -8   2  -5 53.0235 4.87370   8
   8   2   5 58.8992 4.32754   6
  -8   2  -5 55.9591 5.47636   5
  11  -3  -5 123.537 6.99670  11
  11  -3  -5 133.472 7.17701   1
 -11  -3   5 126.051 6.71943   8
  11  -3  -5 118.907 6.27437   6
 -11   3   5 130.501 7.59265   3
  11   3  -5 129.848 8.41798  11
 -11   3   5 124.555 7.36300   5
  11   3  -5 121.740 7.50751   1
   9  -3  -5 781.473 18.0014   6
   9  -3  -5 709.458 22.2590  13
  -9  -3   5 730.763 17.0801  12
  -9  -3   5 713.252 17.2057   5
  -9  -3   5 759.836 17.8544   8
   9  -3  -5 741.747 18.7231   1
   9   3  -5 760.936 19.1842  11
  -9   3   5 763.524 16.4446  12
  -9   3   5 731.479 18.7864   3
   9   3  -5 724.374 19.8124   1
   9   3  -5 708.622 18.0613   6
  -9   3   5 734.182 18.5957   5
  -7  -3   5 532.423 12.5795  12
   7  -3  -5 536.872 14.1673   1
   7  -3  -5 525.672 16.8299  13
   7  -3  -5 547.499 13.2652   6
  -7  -3   5 574.298 14.2925   1
   7   3  -5 543.854 14.8374   1
  -7   3   5 534.169 11.9342  12
   7   3  -5 534.591 13.2958   6
   7   3  -5 547.495 13.6183  11
  -7   3   5 537.303 13.4982   9
  -7   3   5 531.219 13.6599   3
   5  -3  -5 2267.81 45.3102  13
   5  -3  -5 2172.37 40.1132  14
   5  -3  -5 2235.13 42.6757   1
  -5  -3   5 2281.50 42.5583   1
  -5  -3   5 2274.99 40.6474  12
   5  -3  -5 2279.44 41.4079   6
  -5  -3   5 2226.24 40.8459   6
  -5   3   5 2227.20 41.3523   3
  -5   3   5 2262.45 47.3727  10
   5   3  -5 2218.22 40.0442  14
   5   3  -5 2228.36 42.6697   1
   5   3  -5 2222.74 41.4885   4
  -5   3   5 2223.11 41.7285   1
  -5   3   5 2278.94 40.0793  12
   5   3  -5 2239.19 40.8736  11
  -5   3   5 2281.50 41.7197   9
   3  -3  -5 1055.77 20.2836  14
  -3  -3   5 1024.32 20.0281   6
   3  -3  -5 1038.45 19.3458   2
  -3  -3   5 1038.00 21.2034   1
   3  -3  -5 1033.29 21.5471   1
   3  -3  -5 993.016 20.0895   6
  -3  -3   5 1018.79 19.1449   9
   3  -3  -5 1076.95 23.1182  13
  -3  -3   5 1028.61 19.8109  12
  -3  -3   5 1043.12 24.0316  10
  -3   3   5 1014.80 20.0038   6
   3   3  -5 1067.51 21.9169   7
   3   3  -5 1046.35 20.7133   1
  -3   3   5 1040.79 19.4956  12
  -3   3   5 1033.86 20.7749   9
   3   3  -5 1033.33 19.3021  11
  -3   3   5 1046.83 25.2745  10
   3   3  -5 1028.47 20.4303  14
  -3   3   5 1031.02 19.9590   3
  -3   3   5 1067.66 21.5194   1
   3   3  -5 1042.02 21.1238   4
  -1  -3   5 2779.67 51.1252   1
   1  -3  -5 2869.67 50.7575   8
  -1  -3   5 2814.75 50.0202   9
   1  -3  -5 2870.11 52.6068  13
  -1  -3   5 2896.25 50.5836  12
   1  -3  -5 2887.45 51.3901  14
  -1  -3   5 2892.15 55.4860  10
  -1  -3   5 2916.26 50.2257   6
   1  -3  -5 2838.57 51.3199   2
   1  -3  -5 2771.90 51.8864   1
   1   3  -5 2918.87 52.2960   4
   1   3  -5 2910.11 51.9301  14
  -1   3   5 2843.38 50.4059  12
  -1   3   5 2876.39 52.5422   1
  -1   3   5 2850.22 51.0690   6
  -1   3   5 2892.44 57.2769  10
   1   3  -5 2833.16 52.1542   7
  -1   3   5 2967.57 51.9358   9
   1   3  -5 2846.31 51.9838   2
   1  -3   5 299.961 6.06896   6
   1  -3   5 289.399 6.92994   1
  -1  -3  -5 298.870 8.27953   8
  -1  -3  -5 309.989 8.66788   2
  -1  -3  -5 295.564 7.87121   1
  -1  -3  -5 307.154 8.16574  14
   1  -3   5 308.039 6.13411   6
  -1  -3  -5 303.366 7.71062   4
   1  -3   5 297.418 7.61111   9
  -1   3  -5 293.158 6.89144   3
  -1   3  -5 301.537 8.83292   2
  -1   3  -5 307.892 8.76836   4
  -1   3  -5 307.369 8.54517  14
  -1   3  -5 304.482 8.98655   5
   1   3   5 302.378 8.79801   9
  -1   3  -5 304.507 8.40897   8
   1   3   5 301.818 12.2990  10
   1   3   5 300.641 8.92940   1
  -1   3  -5 293.483 8.45671   7
   1   3   5 292.257 7.15316  11
   1   3   5 307.017 8.05667   6
   3  -3   5 1441.31 36.0139  10
  -3  -3  -5 1485.19 29.8918   8
  -3  -3  -5 1460.27 30.0019   2
  -3  -3  -5 1463.41 28.7726  14
  -3   3  -5 1432.48 29.5121   7
   3   3   5 1595.28 30.1483  11
   3   3   5 1437.80 30.3994   9
  -3   3  -5 1500.31 29.5214  14
  -3   3  -5 1423.06 30.6354   5
   3   3   5 1449.23 30.0749   1
   3   3   5 1464.84 38.0407  10
  -3   3  -5 1499.21 30.1414   2
  -3   3  -5 1483.39 29.7308   8
   3   3   5 1490.79 29.0248   6
  -3   3  -5 1472.16 29.5378   4
  -3   3  -5 1451.54 28.5242   3
  -5  -3  -5 57.1317 3.45260  14
  -5  -3  -5 54.9170 4.44336   2
   5  -3   5 55.1001 1.63627   6
  -5  -3  -5 68.7416 4.90369   8
  -5   3  -5 48.5371 4.36022   5
  -5   3  -5 57.4157 4.24786   2
  -5   3  -5 53.1559 3.89790   8
   5   3   5 53.2934 4.84244   9
  -5   3  -5 55.6174 3.75404  14
   5   3   5 63.1198 4.03079   6
   5   3   5 57.1934 4.16102   1
   7  -3   5 573.086 11.8453   6
  -7  -3  -5 576.902 16.5839   8
  -7  -3  -5 578.701 16.4249   2
   7   3   5 568.825 17.5651   9
   7   3   5 577.683 15.4766   6
  -7   3  -5 545.875 17.3657   5
  -7   3  -5 594.764 16.0647   8
  12  -4  -5 3.54256 2.14641   6
 -12  -4   5 6.24740 2.72510   8
  12  -4  -5 5.04153 2.30751   1
  12  -4  -5 0.98492 2.71922  11
 -12   4   5 4.56727 2.39089   5
  12   4  -5 4.65641 2.94628   1
 -12   4   5 4.70603 3.12379   3
  12   4  -5 6.02868 2.98128  11
  10  -4  -5 36.4434 3.87548   6
  10  -4  -5 24.6606 4.87289  13
  10  -4  -5 41.9203 4.22654   1
 -10  -4   5 35.6216 3.85784   8
  10   4  -5 30.0259 4.16504   1
 -10   4   5 39.3712 4.69834   5
  10   4  -5 50.0095 5.47965  11
 -10   4   5 36.8440 4.50017   3
  -8  -4   5 9.72819 1.98102   1
   8  -4  -5 5.53813 2.87626  13
  -8  -4   5 4.00312 1.41212  12
  -8  -4   5 3.26293 1.75304   8
  -8  -4   5 2.48883 1.28897   5
   8  -4  -5 2.93297 1.61216   1
  -8   4   5 3.08692 1.90347   5
  -8   4   5 4.59400 1.96003   3
   8   4  -5 2.03421 1.88544  11
  -8   4   5 3.41209 1.23687  12
  -6  -4   5 70.3153 4.36812   1
   6  -4  -5 64.8652 5.53269  13
   6  -4  -5 63.3957 3.70275   6
   6  -4  -5 66.3231 4.24642   1
  -6  -4   5 66.5288 3.37113  12
  -6   4   5 72.1366 3.88373   9
   6   4  -5 67.2739 3.63283  11
   6   4  -5 65.0420 4.64542   7
  -6   4   5 63.9644 2.85780  12
  -6   4   5 65.2143 3.83930   3
   6   4  -5 60.6946 3.35714   4
  -6   4   5 69.7557 3.57093   1
   6   4  -5 67.0054 4.29446   1
  -4  -4   5 110.876 4.21105   6
   4  -4  -5 113.985 5.15075   1
   4  -4  -5 103.239 4.15350   6
  -4  -4   5 109.800 4.95971   1
   4  -4  -5 116.242 6.21771  13
  -4  -4   5 107.160 3.83825  12
  -4   4   5 114.008 4.34825   3
   4   4  -5 116.179 4.09092  11
  -4   4   5 110.928 4.47524   9
  -4   4   5 118.152 6.88382  10
   4   4  -5 114.146 4.76537   4
   4   4  -5 108.327 5.29425   7
   4   4  -5 113.177 4.75731   1
   4   4  -5 107.869 4.07656  14
  -4   4   5 107.617 3.39105  12
  -4   4   5 109.459 4.60695   1
  -2  -4   5 52.8625 2.59085   6
   2  -4  -5 56.7708 2.67877   2
  -2  -4   5 56.1960 3.98073  10
  -2  -4   5 52.9361 2.50414  12
  -2  -4   5 60.8224 3.20595   1
   2  -4  -5 57.7213 3.80076  13
   2  -4  -5 58.2617 3.39216   1
   2  -4  -5 64.2502 2.82459   6
   2   4  -5 59.1833 3.49597   7
   2   4  -5 59.5255 3.55032   4
  -2   4   5 52.5616 2.25019  12
   2   4  -5 52.0599 2.53136   1
  -2   4   5 56.6758 3.10495   9
  -2   4   5 52.8534 4.70218  10
  -2   4   5 57.8418 2.84817   3
  -2   4   5 55.5263 2.77540   6
  -2   4   5 56.9149 3.34662   1
   2   4  -5 60.2237 3.22808  14
   0  -4   5 355.367 8.33876  12
   0  -4   5 355.077 7.69627   6
   0  -4  -5 346.259 9.46467   1
   0  -4  -5 341.206 9.02874  14
   0  -4  -5 352.194 9.37604  13
   0  -4   5 404.069 8.85875   9
   0  -4   5 340.853 11.5848  10
   0  -4   5 349.794 8.40451   1
   0  -4  -5 349.426 9.29600   2
   0  -4  -5 347.232 8.67900   8
   0   4  -5 350.822 9.98212   7
   0   4  -5 359.898 9.78130  14
   0   4  -5 355.621 9.98608   4
   0   4   5 351.656 10.1016   1
   0   4   5 351.317 9.59252   9
   0   4  -5 356.269 9.79473   2
   0   4   5 348.219 9.04230   6
   0   4   5 334.770 8.09318  11
   0   4   5 362.626 13.4748  10
   2  -4   5 174.376 3.35862   6
   2  -4   5 172.902 3.35179   6
  -2  -4  -5 174.757 6.32653   8
   2  -4   5 171.172 8.97953  10
  -2  -4  -5 179.900 6.66424   2
  -2  -4  -5 179.305 6.17516  14
   2   4   5 185.899 7.09600   9
  -2   4  -5 177.723 6.56612  14
   2   4   5 166.958 5.68326  11
   2   4   5 181.369 6.32495   6
  -2   4  -5 177.468 5.48525   3
  -2   4  -5 181.504 6.33148   8
   2   4   5 175.886 10.2493  10
  -2   4  -5 179.771 7.18260   5
   2   4   5 175.074 7.05952   1
  -2   4  -5 178.964 6.86870   7
  -2   4  -5 182.802 6.81411   4
  -2   4  -5 175.017 6.76112   2
   4  -4   5 119.349 8.41851  10
  -4  -4  -5 129.602 5.32785  14
  -4  -4  -5 131.564 6.27213   8
  -4  -4  -5 132.389 6.32595   2
  -4   4  -5 136.330 6.23849   2
  -4   4  -5 131.209 6.26821   7
  -4   4  -5 134.242 5.51522   3
   4   4   5 145.241 7.11800   9
  -4   4  -5 135.121 6.00470   8
  -4   4  -5 129.368 5.96116   4
  -4   4  -5 120.940 6.65627   5
   4   4   5 129.477 6.26101   1
  -4   4  -5 126.792 5.59073  14
   4   4   5 124.610 5.73705   6
  -6  -4  -5 162.855 7.83428   2
   6  -4   5 163.926 3.61116   6
  -6  -4  -5 170.731 8.08845   8
  -6   4  -5 173.099 9.13200   2
   6   4   5 169.183 8.69769   9
  -6   4  -5 163.839 8.57717   5
   6   4   5 166.788 7.37502   6
   6   4   5 163.761 7.53767   1
  11  -5  -5 384.280 12.3343   6
  11  -5  -5 395.768 13.1418   1
 -11  -5   5 380.978 12.8805   8
 -11   5   5 388.059 13.6788   3
  11   5  -5 410.971 15.1452   1
 -11   5   5 419.220 14.1904   5
  11   5  -5 403.437 15.0729  11
   9  -5  -5 263.292 9.03006   6
  -9  -5   5 267.521 11.6037   1
   9  -5  -5 249.760 9.49670   1
  -9  -5   5 246.670 9.14611   8
   9  -5  -5 234.709 12.4583  13
   9   5  -5 240.289 10.5526   7
  -9   5   5 247.467 9.71932   3
  -9   5   5 246.884 9.67657   5
   9   5  -5 266.538 11.0812   1
   9   5  -5 253.102 10.2652  11
  -7  -5   5 707.861 17.9627   1
   7  -5  -5 700.843 21.4584  13
   7  -5  -5 717.641 16.7702   6
   7  -5  -5 704.611 17.6188   1
  -7  -5   5 695.209 15.7466  12
  -7   5   5 758.751 17.2580   9
  -7   5   5 709.958 14.7093  12
   7   5  -5 700.096 17.2802  11
   7   5  -5 727.805 18.7608   1
  -7   5   5 706.560 17.4209   3
   7   5  -5 706.330 18.8005   7
  -7   5   5 707.656 17.1452   5
   5  -5  -5 400.592 10.2952   6
  -5  -5   5 396.123 9.50914  12
   5  -5  -5 387.060 13.3113  13
  -5  -5   5 388.023 10.0209   6
  -5  -5   5 390.693 11.4114   1
   5  -5  -5 407.475 11.5368   1
  -5   5   5 381.041 10.3657   1
   5   5  -5 408.832 11.9704   7
  -5   5   5 399.147 10.5887   9
   5   5  -5 392.610 10.1324  11
   5   5  -5 382.999 11.1722   1
  -5   5   5 408.051 10.6553   3
   5   5  -5 381.274 10.3705   4
  -5   5   5 404.033 8.69117  12
   3  -5  -5 1216.88 25.0704   1
   3  -5  -5 1197.08 26.3132  13
  -3  -5   5 1160.70 24.3043   1
  -3  -5   5 1210.53 23.1939   6
  -3  -5   5 1154.66 22.2076  12
   3  -5  -5 1137.34 23.1050   6
   3   5  -5 1160.86 23.5678  14
  -3   5   5 1153.64 21.6504  12
   3   5  -5 1193.80 25.1575   7
  -3   5   5 1179.17 28.2213  10
   3   5  -5 1131.15 23.3227   1
   3   5  -5 1166.90 24.4304   4
  -3   5   5 1184.57 23.4974   3
  -3   5   5 1155.91 23.6367   9
   3   5  -5 1195.59 22.7553  11
  -3   5   5 1176.71 24.4750   1
   1  -5  -5 863.545 19.2476  13
   1  -5  -5 836.365 17.7745   2
  -1  -5   5 861.492 16.9644   6
   1  -5  -5 829.653 16.7399   8
  -1  -5   5 831.928 19.8625  10
   1  -5  -5 846.577 19.0552   1
  -1  -5   5 837.034 16.7326  12
  -1  -5   5 872.053 18.0165   1
   1   5  -5 854.804 18.7250  14
   1   5  -5 894.853 19.5143   7
  -1   5   5 823.904 17.7801   6
  -1   5   5 854.577 18.4181   9
  -1   5   5 874.945 23.0464  10
  -1   5   5 847.223 19.2928   1
   1   5  -5 883.734 19.4689   4
   1  -5   5 1119.39 21.3990   1
  -1  -5  -5 1092.85 23.4167   1
   1  -5   5 1099.61 21.7375  12
   1  -5   5 1081.14 26.4759  10
  -1  -5  -5 1117.88 22.7000   8
  -1  -5  -5 1148.96 23.5341   2
  -1  -5  -5 1134.89 23.1398  14
   1  -5   5 1131.59 20.6337   6
   1   5   5 1078.67 22.2842  11
   1   5   5 1131.49 24.8861   1
   1   5   5 1131.44 29.6080  10
  -1   5  -5 1141.74 23.9306   5
  -1   5  -5 1134.64 24.5471   7
  -1   5  -5 1138.92 23.9027  14
   1   5   5 1119.70 23.1945   6
  -1   5  -5 1137.12 24.4469   4
   1   5   5 1148.21 23.9979   9
  -3  -5  -5 701.605 17.3082   2
  -3  -5  -5 686.654 16.8024   8
  -3  -5  -5 703.993 16.2599  14
  -3   5  -5 730.768 18.2767   5
   3   5   5 695.730 24.0575  10
  -3   5  -5 714.161 17.4223   2
   3   5   5 694.375 16.8914   6
   3   5   5 682.688 16.3409  11
   3   5   5 707.738 17.8279   9
  -3   5  -5 719.848 17.1058  14
  -3   5  -5 709.387 17.4901   4
  -3   5  -5 697.080 17.7805   7
   3   5   5 732.003 18.5308   1
  -5  -5  -5 484.696 14.0839   8
  -5  -5  -5 467.091 12.4108  14
  -5  -5  -5 472.180 14.1077   2
  -5   5  -5 488.491 13.6735   4
   5   5   5 464.304 14.6104   1
   5   5   5 502.040 15.2090   9
  -5   5  -5 484.807 15.0371   5
  -5   5  -5 481.294 13.2640  14
  -5   5  -5 465.732 14.6809   7
  -5   5  -5 467.991 13.1354   8
  -5   5  -5 452.774 13.2356   2
   5   5   5 475.131 13.7486   6
  -7  -5  -5 192.733 8.63606   8
  -7  -5  -5 187.120 8.53578   2
   7   5   5 196.308 9.09395   1
   7   5   5 184.133 9.69208   9
   7   5   5 192.041 8.61466   6
  -7   5  -5 194.929 9.80804   5
 -10  -6   5 0.27155 1.47007   8
  10  -6  -5 2.61882 1.92988   6
  10  -6  -5 0.81710 1.73729   1
 -10   6   5 4.85306 2.68683   3
  10   6  -5 0.18096 2.40579   1
 -10   6   5 2.29523 2.41795   5
  10   6  -5 6.00092 3.25252  11
   8  -6  -5 52.2520 4.06114   6
  -8  -6   5 52.9980 4.69752   1
  -8  -6   5 50.5817 3.44752  12
   8  -6  -5 42.9865 4.10015   1
  -8  -6   5 45.0649 3.83964   8
   8  -6  -5 51.0621 6.34511  13
   8   6  -5 46.0009 4.96051   7
  -8   6   5 47.4266 4.04615   3
   8   6  -5 46.7833 4.98942   1
  -8   6   5 49.6572 4.38544   5
   8   6  -5 41.7519 4.34105  11
   6  -6  -5 8.94460 2.21256   1
  -6  -6   5 9.99225 2.13520   1
  -6  -6   5 9.16446 1.63761  12
   6  -6  -5 16.4713 3.62352  13
   6  -6  -5 13.4547 2.21014   6
   6   6  -5 13.1341 2.83729   7
  -6   6   5 7.97288 1.90715   9
  -6   6   5 9.05510 2.19997   3
   6   6  -5 10.6163 2.50061   1
   6   6  -5 13.3144 2.41730  11
  -4  -6   5 30.7717 2.93979   1
   4  -6  -5 35.5632 4.13270  13
  -4  -6   5 31.2563 2.18519  12
   4  -6  -5 31.4790 2.69297   6
   4  -6  -5 33.2564 3.33747   1
  -4  -6   5 28.9210 2.38840   6
  -4   6   5 30.8011 2.80032   1
   4   6  -5 36.0833 3.14064   4
  -4   6   5 29.9958 3.88916  10
   4   6  -5 34.4578 2.54969  11
   4   6  -5 33.3971 3.52466   7
  -4   6   5 42.6669 3.22455   3
  -4   6   5 33.1429 2.93705   9
   4   6  -5 34.7798 2.97988   1
   2  -6  -5 235.786 8.32421   1
  -2  -6   5 229.624 6.78261   6
   2  -6  -5 225.646 6.60404   2
  -2  -6   5 226.243 7.55745   1
  -2  -6   5 224.798 6.00948  12
   2  -6  -5 238.978 8.73382  13
  -2   6   5 226.069 5.64789  12
   2   6  -5 236.315 8.45468   7
   2   6  -5 232.810 7.64280  14
   2   6  -5 236.956 6.73520  11
  -2   6   5 235.233 7.47644   3
  -2   6   5 237.421 8.19611   1
  -2   6   5 225.116 10.0140  10
   2   6  -5 239.160 8.41555   4
  -2   6   5 238.771 7.47154   9
   0  -6  -5 42.9237 3.48453   1
   0  -6   5 44.9496 2.52905   6
   0  -6  -5 42.7191 2.53775   8
   0  -6   5 43.8808 2.32347  12
   0  -6   5 43.7520 2.75188   1
   0  -6  -5 42.2212 3.08406  13
   0  -6  -5 47.5031 3.08290   2
   0   6   5 45.0875 2.97648  11
   0   6   5 45.2493 4.90078  10
   0   6   5 41.9731 3.02463   6
   0   6  -5 45.0069 3.64396   7
   0   6  -5 59.8121 4.31760   4
   0   6  -5 46.2104 3.43911  14
   0   6   5 45.7292 2.39928  12
   0   6   5 48.2768 3.56425   9
   0   6   5 47.8554 3.70794   1
  -2  -6  -5 237.102 8.27598   2
  -2  -6  -5 234.198 7.68618   8
  -2  -6  -5 235.260 7.87538  14
   2  -6   5 235.693 5.59596   6
   2   6   5 220.338 7.62332  11
  -2   6  -5 254.450 8.86638   5
  -2   6  -5 231.109 8.83536   4
   2   6   5 225.299 8.22633   9
  -2   6  -5 237.475 8.98632   7
  -2   6  -5 233.352 8.51162  14
   2   6   5 227.860 8.02566   6
   2   6   5 234.746 9.34182   1
   2   6   5 229.976 12.1384  10
  -4  -6  -5 128.947 6.50114   2
   4  -6   5 130.016 2.96457   6
  -4  -6  -5 132.446 5.76886  14
  -4  -6  -5 131.328 6.51309   8
  -4   6  -5 129.718 7.18873   7
   4   6   5 135.534 7.47588   1
  -4   6  -5 139.978 6.58993  14
  -4   6  -5 126.328 7.13368   5
   4   6   5 135.453 7.30663   9
   4   6   5 134.990 6.64188   6
  -4   6  -5 141.652 6.90339   4
  -6  -6  -5 63.4885 5.36559   8
  -6  -6  -5 61.0356 5.03447   2
  -6   6  -5 65.3537 5.98673   5
   6   6   5 56.5019 5.11617   6
   6   6   5 63.2350 6.07215   9
   6   6   5 66.9648 5.77194   1
  -9  -7   5 127.396 7.35214   1
  -9  -7   5 124.438 6.54665   8
   9  -7  -5 145.424 7.34556   1
   9  -7  -5 137.821 6.52506   6
  -9   7   5 137.611 7.35933   5
   9   7  -5 132.436 7.81662  11
  -9   7   5 136.410 7.67823   3
   9   7  -5 147.372 8.42340   1
   7  -7  -5 918.270 27.1590  13
   7  -7  -5 939.792 21.4548   6
  -7  -7   5 967.689 23.6817   1
   7  -7  -5 965.695 22.9342   1
  -7  -7   5 914.417 20.2057  12
   7   7  -5 958.438 23.8680   7
   7   7  -5 939.454 23.8279   1
  -7   7   5 985.678 22.8691   3
  -7   7   5 949.331 21.7321   5
  -7   7   5 943.954 21.6339   9
   7   7  -5 950.563 22.4279  11
  -5  -7   5 474.112 14.0826   1
   5  -7  -5 504.665 14.2455   1
  -5  -7   5 488.072 12.5899   6
   5  -7  -5 502.521 16.9088  13
  -5  -7   5 473.638 11.2721  12
   5  -7  -5 478.849 12.7154   6
  -5   7   5 497.178 12.8523   9
   5   7  -5 493.592 13.6538   1
  -5   7   5 509.434 13.5131   3
   5   7  -5 492.718 12.9181  11
   5   7  -5 477.057 14.3713   7
   5   7  -5 469.809 12.7674   4
   3  -7  -5 1510.54 33.5344  13
   3  -7  -5 1490.98 31.9328   1
  -3  -7   5 1470.64 31.0962   1
  -3  -7   5 1555.19 29.8732   6
   3  -7  -5 1480.38 29.8414   6
  -3   7   5 1513.37 30.5750   3
  -3   7   5 1474.98 31.0749   1
   3   7  -5 1511.65 29.5846  11
   3   7  -5 1512.66 32.3054   7
   3   7  -5 1535.47 31.6048   4
  -3   7   5 1475.23 34.4201  10
  -3   7   5 1543.59 30.1797   9
   1  -7  -5 360.741 9.78097   2
  -1  -7   5 356.052 9.28793   6
   1  -7  -5 357.747 11.1787  13
  -1  -7   5 365.988 10.1180   1
   1  -7  -5 340.317 11.1579   1
  -1   7   5 343.268 13.2005  10
   1   7  -5 361.338 11.4654   4
   1   7  -5 348.398 11.6628   7
  -1   7   5 366.944 10.6786   3
  -1   7   5 357.996 10.2432   9
  -1   7   5 345.858 11.1708   1
   1  -7   5 815.019 16.6615   6
   1  -7   5 815.807 17.2274   1
  -1  -7  -5 819.529 18.9742   2
  -1  -7  -5 812.691 19.7566   1
   1   7   5 825.483 19.2822   9
   1   7   5 802.690 20.6125   1
   1   7   5 804.870 24.2770  10
  -1   7  -5 855.173 20.7185   4
  -1   7  -5 819.991 19.8262  14
  -1   7  -5 799.065 20.4839   7
  -3  -7  -5 70.2188 4.61461  14
  -3  -7  -5 74.5155 4.80274   2
  -3  -7  -5 73.0083 4.33332   8
   3  -7   5 77.3474 2.88955   6
   3   7   5 72.2866 5.48016   1
  -3   7  -5 79.6223 5.49635   5
  -3   7  -5 73.7609 5.81450   7
  -3   7  -5 80.5390 5.73166   4
   3   7   5 73.0241 4.88790  11
   3   7   5 70.8030 5.22732   9
   3   7   5 66.5740 4.72086   6
  -3   7  -5 78.4988 5.21937  14
  -5  -7  -5 352.920 12.4389   2
  -5  -7  -5 354.514 10.9415  14
  -5  -7  -5 392.195 12.4076   8
   5  -7   5 365.544 7.50254   6
   5   7   5 365.532 12.4821   6
   5   7   5 376.542 13.7671   1
  -5   7  -5 370.618 13.4971   7
  -5   7  -5 380.693 13.4319   5
  -5   7  -5 380.398 12.7911   4
   5   7   5 357.163 12.9321   9
  10  -8  -5 115.633 6.45800   6
 -10  -8   5 108.806 6.45361   8
  10  -8  -5 111.145 6.62197   1
 -10   8   5 108.604 6.71673   5
 -10   8   5 101.631 6.83534   3
  10   8  -5 110.152 7.41662  11
  10   8  -5 106.975 8.07348   1
   8  -8  -5 432.263 13.6925   1
   8  -8  -5 442.552 12.8603   6
  -8  -8   5 427.735 13.0556   8
  -8  -8   5 432.270 14.5169   1
   8  -8  -5 441.022 21.1888  13
   8   8  -5 409.788 14.9442   1
   8   8  -5 419.945 13.7561  11
   8   8  -5 385.346 14.9137   7
  -8   8   5 401.154 12.8553   5
  -8   8   5 419.289 13.8518   3
  -6  -8   5 301.819 11.2982   1
   6  -8  -5 288.410 10.6715   1
   6  -8  -5 291.515 13.6540  13
   6  -8  -5 302.860 9.80607   6
   6   8  -5 287.540 10.0670  11
  -6   8   5 277.527 9.93051   3
   6   8  -5 290.205 10.7843   1
  -6   8   5 278.013 9.19694   5
   6   8  -5 287.612 11.2825   7
   4  -8  -5 334.682 10.0837   6
   4  -8  -5 326.464 12.9472  13
  -4  -8   5 322.763 11.1349   1
  -4  -8   5 333.839 9.90492   6
   4  -8  -5 312.630 11.0357   1
  -4   8   5 316.878 9.70896   9
  -4   8   5 314.238 10.3309   3
   4   8  -5 320.263 10.5894   4
   4   8  -5 324.183 9.96963  11
   4   8  -5 318.729 11.3671   7
  -2  -8   5 539.156 14.4405   1
   2  -8  -5 547.371 15.4931   1
  -2  -8   5 534.717 13.2866   6
   2  -8  -5 522.263 15.6710  13
  -2   8   5 545.841 13.7133   9
   2   8  -5 537.566 13.3678  11
   2   8  -5 523.865 15.2093   4
  -2   8   5 530.264 14.7210   1
  -2   8   5 539.256 14.4308   3
   2   8  -5 536.593 15.9561   7
   0  -8   5 114.493 5.13757   1
   0  -8   5 106.116 4.63966   6
   0  -8  -5 116.259 5.51555   2
   0  -8  -5 115.169 6.47510   1
   0   8   5 112.461 5.47274   9
   0   8  -5 127.717 6.97516   4
   0   8   5 119.699 6.25052   3
   0   8   5 107.411 5.40690  11
   0   8  -5 114.101 6.91578   7
   0   8   5 109.391 6.18834   1
   2  -8   5 199.875 6.10905   6
  -2  -8  -5 205.194 8.26925   2
  -2   8  -5 211.341 9.51563   7
  -2   8  -5 208.519 9.37465   4
   2   8   5 185.230 7.72300  11
   2   8   5 201.283 9.55560   1
   2   8   5 204.355 8.35877   9
  -4  -8  -5 115.646 6.00557  14
  -4  -8  -5 110.518 6.07251   8
  -4  -8  -5 113.039 6.78660   2
   4  -8   5 114.310 3.89272   6
  -4   8  -5 114.128 7.33893   7
  -4   8  -5 117.327 7.35608   4
   4   8   5 121.320 7.91404   1
  -4   8  -5 114.780 6.97214   5
   4   8   5 107.061 6.86557   9
  -6  -8  -5 10.4530 2.74470   2
  -6   8  -5 9.83822 3.33344   5
   6   8   5 12.2202 3.52087   1
   6   8   5 13.3446 3.01668   9
   9  -9  -5 571.101 16.9410   1
   9  -9  -5 621.530 16.7120   6
  -9   9   5 603.899 17.8378   3
  -9   9   5 578.799 16.7615   5
   9   9  -5 572.368 17.9439  11
   9   9  -5 546.342 18.8450   1
  -7  -9   5 14.6308 2.83061   8
   7  -9  -5 7.15640 2.32480   6
   7  -9  -5 11.2349 2.53297   1
  -7  -9   5 10.5733 3.09908   1
   7   9  -5 16.2640 3.47786   7
   7   9  -5 9.37507 2.78811  11
  -7   9   5 11.1411 3.06216   3
   7   9  -5 13.4585 2.89602   1
   5  -9  -5 730.141 23.1603  13
  -5  -9   5 736.339 20.3456   1
   5  -9  -5 736.846 19.9127   1
   5  -9  -5 740.990 18.3791   6
  -5   9   5 736.797 19.2407   3
   5   9  -5 763.023 18.9473  11
  -5   9   5 764.913 18.0380   9
   5   9  -5 735.158 20.7572   7
  -3  -9   5 20.1328 2.65778   6
   3  -9  -5 27.8139 3.87285   1
  -3  -9   5 22.2559 3.34104   1
   3  -9  -5 23.1026 4.14978  13
  -3   9   5 22.3497 2.81511   9
  -3   9   5 22.4360 3.16047   3
   3   9  -5 33.4535 3.89598   4
   3   9  -5 36.7709 4.61940   7
   3   9  -5 24.1872 2.88494  11
  -1  -9   5 988.197 21.5568   6
  -1  -9   5 992.665 22.5122   1
   1  -9  -5 999.299 24.4663   1
  -1   9   5 957.093 23.9364   1
   1   9  -5 978.588 24.3916   4
   1   9  -5 967.919 24.9553   7
  -1   9   5 984.414 23.3016   3
  -1   9   5 971.348 21.8756   9
  -1  -9  -5 169.222 8.07030   1
   1  -9   5 170.866 6.11624   6
  -1  -9  -5 157.153 7.14875   2
   1  -9   5 159.123 6.14684   1
  -1   9  -5 154.428 8.70249   7
  -1   9  -5 161.668 8.34844   4
   1   9   5 162.288 7.23913   9
   1   9   5 160.988 8.37076   1
   1   9   5 146.472 7.03764  11
  -3  -9  -5 751.957 19.8503   2
  -3  -9  -5 768.827 19.1171  14
   3  -9   5 767.139 16.3024   6
   3   9   5 728.142 21.9865   1
  -3   9  -5 769.813 21.5312   4
   3   9   5 756.299 19.8302   9
  -3   9  -5 779.990 22.3947   7
   5  -9   5 144.156 4.62982   6
  -5  -9  -5 143.443 7.75214   2
  -5   9  -5 136.102 8.38033   7
   5   9   5 147.727 9.18520   1
  -5   9  -5 114.941 8.64610   5
   8 -10  -5 5.28580 2.37248   6
  -8 -10   5 4.97132 2.26905   1
  -8 -10   5 7.54565 2.22570   8
   8 -10  -5 8.18131 2.80163   1
  -8  10   5 6.90715 3.04209   3
   8  10  -5 7.18155 3.09448  11
   6 -10  -5 9.84187 2.57281   6
  -6 -10   5 10.8148 2.52993   8
   6 -10  -5 9.52070 2.92240   1
  -6 -10   5 6.17256 2.83539   1
   6  10  -5 4.51154 2.57180   7
   6  10  -5 5.26834 2.66481  11
  -6  10   5 10.2119 2.66204   3
   4 -10  -5 2.10055 2.70367  13
   4 -10  -5 1.81757 2.07882   1
  -4 -10   5 1.13810 2.16758   1
  -4 -10   5 3.28294 1.88302   6
   4  10  -5 -0.1302 1.72957   4
   4  10  -5 6.34855 2.80502   7
   4  10  -5 2.25581 2.07403  11
  -4  10   5 12.6559 2.98194   3
  -2 -10   5 37.9823 3.69489   6
  -2 -10   5 29.3326 3.87351   1
   2 -10  -5 31.0848 4.48815   1
   2  10  -5 28.8753 4.23129   4
   2  10  -5 33.5423 4.49282   7
  -2  10   5 26.7474 3.79378   3
   0 -10  -5 11.8930 3.02190   1
   0 -10   5 7.85345 1.97086   1
   0 -10   5 9.53845 2.05489   6
   0 -10  -5 8.28682 2.17953   2
   0  10   5 7.83671 2.36520   3
   0  10  -5 10.7786 3.32109   4
   0  10  -5 8.27798 3.17868   7
   0  10   5 10.2550 2.94412   1
  -2 -10  -5 28.1644 3.97099   2
   2 -10   5 32.0027 2.90442   6
  -2  10  -5 23.8221 4.27211   4
  -2  10  -5 27.2770 4.70196   7
   2  10   5 23.6118 3.68726  11
   2  10   5 25.3400 4.43192   1
   4 -10   5 6.49874 1.52530   6
  -4 -10  -5 2.72405 2.12634  14
  -4 -10  -5 4.09300 2.64446   2
  -4  10  -5 6.42584 3.24907   7
   4  10   5 12.2644 3.17920   1
   7 -11  -5 151.730 8.06064   1
  -7 -11   5 158.427 9.01402   1
   7  11  -5 165.022 8.84213  11
  -7  11   5 152.416 8.58507   3
  -5 -11   5 610.317 18.8691   1
   5 -11  -5 607.498 18.5079   1
  -5  11   5 585.057 17.4669   3
   5  11  -5 576.584 16.9692  11
   5  11  -5 581.878 19.0971   7
   3 -11  -5 216.591 11.8413  13
  -3 -11   5 303.664 11.6499   1
   3 -11  -5 269.060 11.7044   1
  -3 -11   5 274.867 10.0428   6
   3  11  -5 284.055 12.5261   7
  -3  11   5 286.678 10.8833   3
   3  11  -5 271.449 11.2050   4
   1 -11  -5 382.596 14.3379   1
  -1 -11   5 361.786 12.2690   1
  -1 -11   5 372.278 11.7437   6
   1  11  -5 383.636 14.4157   4
  -1  11   5 367.419 13.2967   3
   1  11  -5 370.189 14.9590   7
  -1 -11  -5 134.437 7.19341   2
  -1 -11  -5 141.140 8.20627   1
   1 -11   5 146.890 6.46350   6
   1  11   5 155.573 8.96562   1
  -1  11  -5 147.127 9.43776   7
  -1  11  -5 141.761 8.99908   4
   1  11   5 139.107 8.32255   3
   3 -11   5 100.283 5.01988   6
  -3 -11  -5 95.2016 6.23642   2
  -3 -11  -5 91.5962 5.80955  14
   3  11   5 84.1290 7.37248   1
  -3  11  -5 95.5538 8.11351   7
   4 -12  -5 128.899 8.26309   1
  -4 -12   5 124.857 7.75457   1
  -4  12   5 126.735 7.38106   3
   4  12  -5 130.444 8.76678   7
  -2 -12   5 48.0495 4.47550   6
  -2 -12   5 51.3662 5.10664   1
   2 -12  -5 57.5445 6.33384   1
   2  12  -5 45.8225 6.03653   7
  -2  12   5 48.2250 5.67108   3
   0 -12   5 199.187 8.62738   1
   0 -12  -5 206.734 10.3931   1
   0 -12   5 201.260 8.21150   6
   0  12  -5 205.823 11.4898   7
   0  12   5 207.786 10.2622   3
  12   0  -6 2.62579 2.15919   6
  12   0  -6 1.13428 2.67391  11
 -12   0   6 5.33014 2.06151   8
 -12   0   6 3.44991 2.51093   5
  12   0  -6 4.91443 2.10911   1
  10   0  -6 1304.04 28.8396   6
 -10   0   6 1314.91 27.4919   8
  10   0  -6 1337.61 29.7356  11
 -10   0   6 1323.32 29.1199   5
 -10   0   6 1339.77 27.5811  12
  10   0  -6 1332.94 30.5502   1
   8   0  -6 121.843 6.28750   1
   8   0  -6 128.765 5.68909  11
   8   0  -6 122.125 5.51427   6
  -8   0   6 122.025 5.54790   1
  -8   0   6 131.519 5.11328  12
  -8   0   6 129.916 5.63887   3
   8   0  -6 126.089 7.50599  13
   8   0  -6 132.878 5.64387   4
   6   0  -6 3298.32 58.9317  11
  -6   0   6 3366.60 60.9642   1
   6   0  -6 3401.29 61.8209   1
  -6   0   6 3386.22 59.1549  12
  -6   0   6 3123.20 58.6715   3
  -6   0   6 3341.51 59.9527   9
   6   0  -6 3371.33 64.3554  13
   6   0  -6 3316.23 60.4124   4
   6   0  -6 3323.18 59.7764   6
   4   0  -6 75.8159 2.37368  11
  -4   0   6 77.4300 3.26372  12
   4   0  -6 79.7042 4.96884  13
  -4   0   6 78.4974 4.00300   1
   4   0  -6 79.5663 3.86156   1
  -4   0   6 77.0185 3.49326   9
  -4   0   6 83.7949 3.42700   6
   4   0  -6 80.0925 3.80880   4
  -4   0   6 73.0546 5.66398  10
   4   0  -6 81.7844 3.32657  14
  -2   0   6 7022.42 126.965   6
  -2   0   6 6762.96 121.367   9
   2   0  -6 6945.41 123.502   1
  -2   0   6 7153.37 145.314  10
  -2   0   6 6878.78 123.621  12
   2   0  -6 6995.36 129.631   4
   2   0  -6 6421.08 118.391   2
  -2   0   6 6710.82 126.810   1
   2   0  -6 6919.66 136.455  13
   2   0  -6 6845.29 126.275  14
   0   0   6 112.900 7.52406  10
   0   0  -6 111.344 4.67276   8
   0   0   6 114.307 4.70648   9
   0   0  -6 116.791 4.95382   2
   0   0  -6 122.168 4.76188  14
   0   0  -6 115.790 3.96387   7
   0   0  -6 122.109 4.60044   4
   0   0   6 114.608 4.51556   1
   0   0   6 117.100 3.98291   6
   2   0   6 4033.07 70.5483   1
  -2   0  -6 4087.18 72.3374   2
   2   0   6 3952.98 72.0637   9
  -2   0  -6 3937.00 71.9522   8
   2   0   6 4055.41 69.5144   6
   2   0   6 3941.76 81.2404  10
  -2   0  -6 3760.20 70.3757   4
  -2   0  -6 3975.17 71.1379  14
   4   0   6 48.7786 3.99427   9
   4   0   6 49.5894 2.98341   6
  -4   0  -6 47.6211 3.57913  14
  -4   0  -6 48.3349 4.57306   5
  -4   0  -6 45.9648 4.06746   8
   4   0   6 59.4930 3.17136   1
  -4   0  -6 46.8223 3.75225   2
   6   0   6 822.592 18.0222   6
  -6   0  -6 833.560 20.6025   2
  -6   0  -6 835.537 22.1517   5
   6   0   6 832.759 21.6777   9
  -6   0  -6 821.673 20.8194   8
  11  -1  -6 3.70035 2.15226   6
 -11  -1   6 5.86842 2.26992   8
  11  -1  -6 5.01603 2.14128   1
 -11  -1   6 7.99179 2.61537   5
  11  -1  -6 2.25541 2.51202  11
  11   1  -6 9.28808 3.12407  11
  11   1  -6 4.11003 2.35796   6
  11   1  -6 2.29917 2.45669   1
 -11   1   6 4.67617 2.07267   8
 -11   1   6 8.61224 2.88138   5
   9  -1  -6 214.801 8.91541   1
  -9  -1   6 200.068 7.01374  12
  -9  -1   6 200.687 7.24747   8
   9  -1  -6 204.101 10.6240  13
   9  -1  -6 214.099 8.22756  11
   9  -1  -6 213.705 7.94287   6
  -9   1   6 214.105 7.12579   8
   9   1  -6 210.735 8.08656   6
   9   1  -6 228.004 9.23175   1
   9   1  -6 209.351 8.31917  11
  -9   1   6 206.881 8.00636   3
   9   1  -6 211.806 10.3257  13
  -9   1   6 211.528 7.11099  12
   7  -1  -6 194.992 6.81223   6
   7  -1  -6 206.885 6.64615  11
   7  -1  -6 210.089 7.99847   1
  -7  -1   6 215.075 6.52808  12
   7  -1  -6 205.776 9.51500  13
  -7  -1   6 197.870 7.27584   1
   7   1  -6 194.506 6.73502   6
  -7   1   6 193.159 6.60711   3
  -7   1   6 200.380 6.13162  12
   7   1  -6 207.072 9.33834  13
   7   1  -6 206.223 8.05114   1
  -7   1   6 187.002 6.91871   1
   7   1  -6 199.709 6.59642  11
   7   1  -6 205.380 6.91697   4
  -7   1   6 203.563 7.08961   9
   5  -1  -6 44.4563 3.87052  13
   5  -1  -6 37.9342 2.91917   1
  -5  -1   6 48.1391 2.51088  12
  -5  -1   6 37.0662 2.47859   9
  -5  -1   6 37.4408 2.80329   1
  -5  -1   6 40.6998 2.43024   6
   5  -1  -6 37.1914 2.42087   6
   5  -1  -6 37.6435 2.12087  14
  -5  -1   6 34.9442 3.99055  10
   5   1  -6 40.9986 3.91230  13
  -5   1   6 40.2831 3.04604   1
  -5   1   6 36.4246 2.13224   3
  -5   1   6 41.5919 4.60883  10
   5   1  -6 40.1415 2.16845  14
   5   1  -6 36.8416 1.99561  11
  -5   1   6 34.8612 2.21969   6
  -5   1   6 38.7145 2.27306  12
  -5   1   6 39.3048 2.73596   9
   5   1  -6 36.2840 2.77982   4
   5   1  -6 38.1173 2.98991   1
  -3  -1   6 906.511 17.9146   6
   3  -1  -6 890.828 18.9082   1
   3  -1  -6 915.313 20.7643  13
  -3  -1   6 863.861 18.9527   1
   3  -1  -6 913.213 18.1960  14
  -3  -1   6 893.839 23.1943  10
  -3  -1   6 882.694 17.8732   9
   3  -1  -6 893.688 17.7218   2
  -3  -1   6 904.221 17.8055  12
  -3   1   6 892.911 19.1964   1
  -3   1   6 888.136 17.6839  12
   3   1  -6 903.710 20.9950  13
  -3   1   6 916.864 23.7757  10
   3   1  -6 887.507 18.2666  14
   3   1  -6 892.341 18.8456   4
  -3   1   6 892.699 18.4152   9
   3   1  -6 895.698 18.1780   2
  -3   1   6 890.467 17.9467   6
   3   1  -6 907.017 18.6312   1
   1  -1  -6 30.2711 2.28263   8
   1  -1  -6 25.0153 1.80246   7
  -1  -1   6 27.3927 2.14117   9
   1  -1  -6 27.7411 2.30471  14
  -1  -1   6 23.9424 2.04516  12
  -1  -1   6 32.5652 4.07322  10
  -1  -1   6 25.8617 2.16287   1
   1  -1  -6 28.4274 2.35634   2
   1  -1  -6 27.6723 2.32602   4
   1  -1  -6 27.6047 1.95008   1
  -1  -1   6 28.1240 1.87665   6
  -1   1   6 28.2925 2.45137   1
  -1   1   6 26.6940 2.07609  12
   1   1  -6 26.2908 2.32434   4
  -1   1   6 25.7349 1.99467   6
  -1   1   6 27.1392 2.40521   9
   1   1  -6 27.3485 2.26095   2
  -1   1   6 25.8129 3.88935  10
   1   1  -6 24.4045 2.02404   7
   1   1  -6 28.0511 2.36627  14
  -1  -1  -6 197.504 6.93328   2
  -1  -1  -6 198.547 6.80442   8
   1  -1   6 192.746 5.15404   6
   1  -1   6 184.287 6.39759   9
  -1  -1  -6 189.707 6.03116   4
   1  -1   6 185.550 5.72031   1
   1  -1   6 192.843 10.0926  10
  -1  -1  -6 190.277 6.32267  14
  -1   1  -6 176.649 5.56985   7
  -1   1  -6 198.167 6.98918   2
  -1   1  -6 198.331 6.58296  14
  -1   1  -6 183.171 6.26434   4
  -1   1  -6 192.417 6.64104   8
   1   1   6 183.444 6.62041   9
   1   1   6 177.674 5.56704   6
   1   1   6 187.351 10.1956  10
   1   1   6 190.309 6.30687   1
  -3  -1  -6 182.381 7.17787   2
   3  -1   6 182.176 5.15412   6
  -3  -1  -6 197.653 7.53047   8
   3  -1   6 180.869 5.54923   1
   3  -1   6 182.608 7.25726   9
   3  -1   6 177.964 11.2344  10
  -3  -1  -6 184.353 6.66952  14
  -3   1  -6 186.390 7.80648   5
  -3   1  -6 196.251 7.49895   2
   3   1   6 192.330 6.04216   6
  -3   1  -6 181.781 6.69344  14
   3   1   6 178.236 6.41190   1
   3   1   6 180.508 11.3997  10
  -3   1  -6 184.247 6.43237   4
   3   1   6 190.186 7.54106   9
  -3   1  -6 196.470 7.55079   8
  -5  -1  -6 6.26529 1.79034  14
   5  -1   6 4.69893 1.17145   6
  -5  -1  -6 7.77568 2.17384   8
  -5  -1  -6 1.56425 1.85539   2
   5   1   6 6.39178 1.57281   6
  -5   1  -6 4.67256 1.65910  14
   5   1   6 3.97442 1.36793   1
   5   1   6 4.68766 2.40225   9
  -5   1  -6 5.88201 2.28801   8
  -5   1  -6 4.97427 2.11814   5
  -5   1  -6 4.83692 2.10516   2
   7  -1   6 69.4323 3.73335   6
  -7  -1  -6 72.4554 5.61142   2
   7  -1   6 74.9694 6.09517   9
  -7  -1  -6 70.7907 5.69534   8
  -7   1  -6 69.4026 6.48104   5
  -7   1  -6 75.2069 5.39637   2
   7   1   6 77.4465 5.92098   9
   7   1   6 76.9360 4.67836   6
  -7   1  -6 72.5367 5.63648   8
  12  -2  -6 240.554 9.89777   6
  12  -2  -6 250.383 10.6554   1
 -12  -2   6 248.783 9.72422   8
  12  -2  -6 236.763 10.8566  11
  12   2  -6 254.756 11.6627  11
 -12   2   6 258.569 10.8406   5
  12   2  -6 268.312 11.7981   1
 -10  -2   6 494.293 13.0401  12
  10  -2  -6 449.840 17.4451  13
  10  -2  -6 499.114 14.4312  11
  10  -2  -6 473.036 13.8362   6
  10  -2  -6 481.685 14.9156   1
 -10  -2   6 478.064 13.3250   8
 -10  -2   6 480.103 13.6556   5
 -10   2   6 465.675 14.1999   3
 -10   2   6 478.547 12.5353  12
 -10   2   6 488.901 14.5240   5
  10   2  -6 494.358 14.9048  11
  10   2  -6 465.926 15.1690   1
  -8  -2   6 1012.27 21.2107  12
  -8  -2   6 1016.22 22.7707   1
   8  -2  -6 970.733 23.3378   1
   8  -2  -6 1002.41 22.1161   6
   8  -2  -6 1006.03 26.7087  13
   8   2  -6 1058.42 24.4767   1
  -8   2   6 1008.68 22.3234   3
   8   2  -6 1008.70 22.1579  11
  -8   2   6 1043.85 20.8691  12
   8   2  -6 982.969 25.6809  13
  -6  -2   6 1781.34 32.9227  12
   6  -2  -6 1774.21 35.2815   1
   6  -2  -6 1750.44 33.7117   6
   6  -2  -6 1773.31 38.0968  13
  -6  -2   6 1749.03 33.0419   9
  -6  -2   6 1798.04 34.9366   1
  -6   2   6 1685.71 33.1371   3
  -6   2   6 1796.12 33.9791   9
   6   2  -6 1761.31 35.2821   1
   6   2  -6 1753.30 33.8099   4
  -6   2   6 1764.49 32.4989  12
   6   2  -6 1725.38 37.3704  13
   6   2  -6 1701.81 32.7047  11
  -6   2   6 1698.68 33.9293   1
  -4  -2   6 1412.00 26.2433  12
   4  -2  -6 1418.93 30.0106  13
   4  -2  -6 1396.13 25.3936   2
  -4  -2   6 1399.77 26.4209   6
  -4  -2   6 1410.70 32.2657  10
   4  -2  -6 1371.88 27.8686   1
  -4  -2   6 1412.46 27.8556   1
  -4  -2   6 1383.80 25.9873   9
   4  -2  -6 1330.68 26.2739   6
   4  -2  -6 1373.94 26.2590  14
  -4   2   6 1413.10 26.0018  12
   4   2  -6 1411.01 27.5054   4
   4   2  -6 1374.88 26.3229  14
  -4   2   6 1341.85 26.1655   6
  -4   2   6 1325.80 25.6607   3
  -4   2   6 1397.37 32.7621  10
   4   2  -6 1366.01 25.0101  11
  -4   2   6 1380.31 27.0471   9
   4   2  -6 1361.69 27.3459   1
  -4   2   6 1388.36 27.8221   1
  -2  -2   6 1223.04 23.7229   9
   2  -2  -6 1254.32 24.4724  14
   2  -2  -6 1317.18 26.7353  13
  -2  -2   6 1253.38 23.9769  12
   2  -2  -6 1241.07 24.9624   1
   2  -2  -6 1244.42 24.2843   2
  -2  -2   6 1268.88 25.0286   1
  -2  -2   6 1293.66 23.9391   6
  -2  -2   6 1258.51 29.6325  10
  -2   2   6 1235.08 30.2459  10
   2   2  -6 1265.33 25.2524   4
   2   2  -6 1248.09 24.9084   2
   2   2  -6 1244.26 24.8323  14
  -2   2   6 1240.90 25.5130   1
  -2   2   6 1255.13 24.2045   6
   2   2  -6 1291.46 25.3985   7
  -2   2   6 1256.57 23.0577   3
  -2   2   6 1281.30 24.9666   9
   2   2  -6 1186.49 23.6893   1
  -2   2   6 1267.79 23.8442  12
   0  -2   6 587.487 13.3198   9
   0  -2  -6 599.173 14.1974   2
   0  -2  -6 594.860 13.7910   8
   0  -2   6 611.251 12.3509   6
   0  -2  -6 614.253 13.7885  14
   0  -2   6 619.424 13.2667   1
   0  -2   6 593.584 13.2697  12
   0  -2  -6 604.762 13.6068   4
   0  -2   6 592.650 18.6439  10
   0   2  -6 606.220 14.2371   4
   0   2   6 612.653 13.4707   6
   0   2   6 596.928 19.4175  10
   0   2  -6 620.282 14.5396   2
   0   2  -6 598.603 13.6397   7
   0   2  -6 639.587 14.3217  14
   0   2   6 600.088 14.2291   9
   0   2   6 597.698 14.4606   1
   2  -2   6 278.356 13.0150  10
   2  -2   6 290.426 6.45155   6
  -2  -2  -6 261.391 7.52722   4
   2  -2   6 273.783 8.42465   9
  -2  -2  -6 282.809 8.27878  14
  -2  -2  -6 312.027 9.25425   8
   2  -2   6 273.313 7.08280   1
  -2  -2  -6 278.368 8.95883   2
  -2   2  -6 273.226 8.46260   4
  -2   2  -6 276.812 8.13595   7
   2   2   6 284.807 9.46836   9
   2   2   6 286.193 8.07149   6
   2   2   6 292.776 8.90844   1
   2   2   6 285.066 13.8328  10
  -2   2  -6 282.851 8.91779   8
  -2   2  -6 296.269 9.39348   2
  -4  -2  -6 451.911 13.1703   8
  -4  -2  -6 458.740 12.0873  14
  -4  -2  -6 432.019 12.9016   2
   4  -2   6 459.343 9.63708   6
  -4   2  -6 465.621 13.1500   2
   4   2   6 460.861 13.8458   9
   4   2   6 448.088 12.4325   1
  -4   2  -6 459.922 13.1752   8
  -4   2  -6 458.003 12.1938  14
   4   2   6 453.362 11.8150   6
  -4   2  -6 446.313 14.1298   5
   6  -2   6 162.053 5.13319   6
  -6  -2  -6 172.231 8.12072   2
  -6  -2  -6 168.266 8.18710   8
   6   2   6 167.991 6.88264   6
  -6   2  -6 158.562 7.54471   2
   6   2   6 156.324 6.77381   1
  -6   2  -6 172.645 9.11932   5
  -6   2  -6 170.200 7.95994   8
   6   2   6 174.234 8.92625   9
  11  -3  -6 74.6249 5.42266   6
 -11  -3   6 69.6598 5.24898   8
  11  -3  -6 72.7479 5.82166   1
  11  -3  -6 72.9984 5.83688  11
 -11   3   6 75.3305 5.85423   3
  11   3  -6 73.2045 5.85943  11
  11   3  -6 76.4294 6.48893   1
 -11   3   6 78.7519 5.65967   5
   9  -3  -6 5.14232 1.80268   1
   9  -3  -6 3.67211 1.83268   6
  -9  -3   6 2.24899 1.58442   5
  -9  -3   6 4.84725 1.85294  12
   9  -3  -6 4.95044 3.04637  13
  -9  -3   6 3.87243 1.50293   1
  -9  -3   6 3.07497 1.85535   8
  -9   3   6 8.98272 2.39475   3
  -9   3   6 5.56044 1.62206  12
   9   3  -6 1.47017 2.01824   1
  -9   3   6 4.63225 2.13951   5
   9   3  -6 3.23403 2.13840  11
   7  -3  -6 47.1753 3.74033   1
   7  -3  -6 43.1451 4.63892  13
  -7  -3   6 46.8496 3.84945   1
  -7  -3   6 40.2162 2.78345  12
   7  -3  -6 40.1774 3.26366   6
  -7   3   6 46.9345 3.42138   9
   7   3  -6 46.8037 3.38957  11
  -7   3   6 63.9587 3.87704   3
   7   3  -6 38.9100 2.93718   4
   7   3  -6 49.0788 4.23892   1
  -7   3   6 48.1881 3.33469   1
  -7   3   6 45.6337 2.79148  12
  -5  -3   6 291.215 8.96373   1
  -5  -3   6 287.280 7.61970  12
  -5  -3   6 289.670 7.31047   9
   5  -3  -6 282.562 7.41899  14
  -5  -3   6 271.242 7.65387   6
   5  -3  -6 284.377 10.6087  13
   5  -3  -6 293.899 9.26357   1
   5  -3  -6 271.465 7.87423   6
  -5   3   6 291.904 12.2159  10
   5   3  -6 281.400 7.33613  14
  -5   3   6 280.875 8.28580   9
  -5   3   6 289.444 7.23176  12
  -5   3   6 281.827 7.78725   3
   5   3  -6 281.954 8.76054   1
   5   3  -6 291.053 7.39572  11
   5   3  -6 282.286 8.46972   4
  -5   3   6 288.231 8.70935   1
  -3  -3   6 3.91240 0.82956   9
  -3  -3   6 7.29284 2.21799  10
  -3  -3   6 6.63400 1.23388   6
  -3  -3   6 5.36691 1.20536  12
   3  -3  -6 4.98969 1.00995   2
   3  -3  -6 6.39322 1.18791  14
   3  -3  -6 4.42243 1.35238   1
   3  -3  -6 12.7763 2.39439  13
  -3  -3   6 3.44082 1.26652   1
   3   3  -6 5.01962 1.17071   1
  -3   3   6 4.29011 1.37567   9
   3   3  -6 4.43831 1.09323  14
   3   3  -6 4.39086 0.77443  11
  -3   3   6 5.55957 1.03651   3
  -3   3   6 5.52432 1.08255  12
  -3   3   6 4.14959 1.08940   6
   3   3  -6 4.32072 1.38158   4
  -3   3   6 3.81534 1.31213   1
   3   3  -6 4.92803 1.55348   7
  -3   3   6 3.93544 2.05085  10
  -1  -3   6 275.307 7.36637  12
   1  -3  -6 289.907 8.87155  13
   1  -3  -6 287.128 8.13517   2
  -1  -3   6 285.565 11.2460  10
   1  -3  -6 284.423 7.94520  14
  -1  -3   6 277.370 7.73171   1
  -1  -3   6 294.650 7.13521   6
   1  -3  -6 277.639 7.58558   8
   1  -3  -6 285.076 8.19403   1
  -1  -3   6 275.603 7.07923   9
  -1   3   6 282.446 7.82266   6
   1   3  -6 299.118 8.63047   7
  -1   3   6 282.842 7.37022  12
   1   3  -6 291.882 8.65208   2
   1   3  -6 292.209 8.68618   4
  -1   3   6 284.513 12.1827  10
  -1   3   6 289.558 8.52078   9
  -1   3   6 291.799 8.92742   1
   1   3  -6 289.016 8.46783  14
   1  -3   6 37.8530 1.86488   6
  -1  -3  -6 37.9612 2.57103   4
   1  -3   6 30.6015 2.46636  12
  -1  -3  -6 35.9651 2.93649   8
   1  -3   6 33.6064 2.12323   1
  -1  -3  -6 34.1454 3.05439   2
  -1  -3  -6 35.6784 2.66211  14
   1  -3   6 31.5300 2.45455   9
  -1   3  -6 41.3339 3.21967  14
  -1   3  -6 36.3910 2.73172   7
   1   3   6 34.2425 5.01123  10
   1   3   6 37.7881 3.21255   1
   1   3   6 31.7886 2.68239   6
   1   3   6 37.9532 3.70063   9
  -1   3  -6 38.0082 3.19965   4
  -1   3  -6 38.7126 3.12209   2
   3  -3   6 1.62524 2.19019  10
  -3  -3  -6 3.68772 1.55215  14
  -3  -3  -6 1.80331 1.65413   2
   3  -3   6 1.60882 1.26603   9
  -3  -3  -6 3.09230 1.76408   8
   3  -3   6 1.91894 0.56148   6
  -3   3  -6 1.72673 1.50230   2
  -3   3  -6 0.94314 1.27832   4
   3   3   6 1.72266 1.17026   1
   3   3   6 1.69895 2.76711  10
  -3   3  -6 1.08299 1.14126   8
  -3   3  -6 0.54211 1.74179   5
   3   3   6 0.18230 1.67644   9
   3   3   6 0.84392 1.21781   6
  -3   3  -6 -0.6182 1.18926  14
  -5  -3  -6 59.3403 4.95774   8
  -5  -3  -6 61.1115 4.13698  14
   5  -3   6 58.8769 2.34386   6
  -5  -3  -6 66.0598 5.18497   2
   5   3   6 58.9238 5.07850   9
  -5   3  -6 63.0103 4.73236   2
   5   3   6 62.2664 4.32499   6
  -5   3  -6 56.9644 4.10258  14
  -5   3  -6 63.2431 5.74246   5
  -5   3  -6 57.6988 4.69373   8
   5   3   6 57.4638 4.39920   1
   7  -3   6 9.46596 2.68779   9
  -7  -3  -6 12.5635 3.10804   2
   7  -3   6 11.3987 1.45157   6
  -7  -3  -6 9.85140 3.14873   8
  -7   3  -6 11.0902 3.12189   5
   7   3   6 6.69534 2.58598   9
  -7   3  -6 5.95676 2.03296   8
   7   3   6 9.81269 2.60786   6
  12  -4  -6 476.440 15.6464  11
  12  -4  -6 494.207 15.5471   1
 -12  -4   6 473.738 14.5499   8
  12  -4  -6 475.225 14.6808   6
 -12   4   6 485.426 15.9062   5
  12   4  -6 471.488 16.7761  11
  12   4  -6 474.111 16.6543   1
 -12   4   6 488.091 15.9753   3
 -10  -4   6 40.6781 4.38150   8
  10  -4  -6 28.4914 5.61172  13
  10  -4  -6 37.4372 3.95545   6
  10  -4  -6 34.1914 4.26635   1
 -10  -4   6 32.8034 3.60666  12
 -10   4   6 32.4551 4.28030   5
  10   4  -6 38.8495 4.79113  11
  10   4  -6 28.1921 4.35768   1
 -10   4   6 34.3305 4.36489   3
   8  -4  -6 841.242 19.6564   1
   8  -4  -6 725.450 22.7649  13
  -8  -4   6 733.551 18.8070   1
   8  -4  -6 733.113 17.6909   6
  -8  -4   6 735.986 16.8467  12
  -8   4   6 751.257 18.2788   3
  -8   4   6 716.062 15.8343  12
   8   4  -6 743.738 19.8449   1
   8   4  -6 731.647 17.9531  11
  -8   4   6 735.332 18.0906   9
  -6  -4   6 64.8412 4.24744   1
   6  -4  -6 80.5805 4.84018   1
  -6  -4   6 68.0663 3.54807  12
   6  -4  -6 67.4440 5.74334  13
  -6   4   6 63.7000 3.75737   1
  -6   4   6 62.6561 3.01547  12
   6   4  -6 75.2865 5.13736   7
   6   4  -6 68.3618 4.38163   1
  -6   4   6 69.9623 3.95365   3
  -6   4   6 68.0000 4.14873   9
   6   4  -6 65.0070 3.61809  11
   4  -4  -6 1721.34 33.4469   6
   4  -4  -6 1779.71 35.3008   1
  -4  -4   6 1781.51 34.9741   1
   4  -4  -6 1788.34 33.4484  14
   4  -4  -6 1799.99 37.4974  13
  -4  -4   6 1770.45 33.4239   6
  -4  -4   6 1739.74 32.8633  12
  -4  -4   6 1741.84 38.1951  10
  -4   4   6 1810.92 35.0651   1
   4   4  -6 1724.27 33.4331  14
   4   4  -6 1698.78 34.0118   1
   4   4  -6 1801.38 32.5340  11
  -4   4   6 1808.60 34.3004   9
   4   4  -6 1815.72 35.8197   7
  -4   4   6 1773.48 33.3115   3
  -4   4   6 1754.39 32.2769  12
  -4   4   6 1778.13 40.0718  10
   4   4  -6 1769.33 34.6789   4
   2  -4  -6 459.694 11.2644  14
  -2  -4   6 450.771 10.4707   6
   2  -4  -6 450.034 10.8191   2
   2  -4  -6 456.417 12.7398  13
  -2  -4   6 454.682 11.4200   1
  -2  -4   6 443.218 14.1144  10
   2  -4  -6 455.813 12.0055   1
  -2  -4   6 446.623 10.4134  12
  -2   4   6 475.963 12.4971   1
  -2   4   6 468.485 15.9791  10
   2   4  -6 464.062 12.2242   4
   2   4  -6 461.356 12.2641   7
   2   4  -6 448.492 11.5843  14
  -2   4   6 450.262 10.1549  12
  -2   4   6 453.517 10.9542   6
  -2   4   6 453.125 10.6625   3
  -2   4   6 465.299 11.7397   9
   0  -4   6 2685.30 48.2804   1
   0  -4   6 2698.10 47.3999   6
   0  -4  -6 2701.41 49.4227  14
   0  -4   6 2522.70 54.3507  10
   0  -4   6 2667.62 48.4228  12
   0  -4  -6 2536.54 49.3568   1
   0  -4  -6 2742.45 49.7442  13
   0  -4  -6 2590.75 48.9106   8
   0  -4  -6 2723.22 49.7937   2
   0   4   6 2718.46 51.1030   1
   0   4   6 2728.98 57.9624  10
   0   4  -6 2728.05 50.5482   7
   0   4   6 2692.22 49.4009   6
   0   4  -6 2668.95 50.1980  14
   0   4  -6 2694.81 50.5474   4
   0   4  -6 2681.78 50.5904   2
   0   4   6 2742.51 50.4258   9
   2  -4   6 302.651 8.72058   9
  -2  -4  -6 321.544 9.82752   8
   2  -4   6 317.739 6.77146   6
   2  -4   6 299.347 8.57181  12
  -2  -4  -6 320.368 9.34436  14
   2  -4   6 291.541 13.2569  10
  -2  -4  -6 318.229 9.89065   2
  -2   4  -6 335.044 10.3198   4
  -2   4  -6 310.964 9.94656   7
  -2   4  -6 327.162 10.4017   2
  -2   4  -6 330.446 9.95689  14
   2   4   6 309.310 10.2895   1
   2   4   6 307.501 14.8745  10
  -2   4  -6 327.529 10.7303   5
   2   4   6 315.972 9.48984   6
   4  -4   6 1186.13 21.3858   6
  -4  -4  -6 1200.68 27.1622   2
   4  -4   6 1161.54 25.7985   9
  -4  -4  -6 1234.18 27.0976   8
  -4  -4  -6 1206.88 25.6746  14
  -4   4  -6 1268.99 26.9494   8
  -4   4  -6 1225.08 26.4796   4
   4   4   6 1204.47 26.4537   6
  -4   4  -6 1267.08 28.8760   5
  -4   4  -6 1216.09 26.3034  14
  -4   4  -6 1243.69 27.3249   2
   4   4   6 1211.79 28.3946   9
   4   4   6 1208.73 27.5308   1
  -6  -4  -6 38.1162 4.68671   8
  -6  -4  -6 33.0129 4.36306   2
   6  -4   6 32.3419 1.60695   6
  -6   4  -6 32.7880 4.86096   5
   6   4   6 33.9459 4.85275   9
  -6   4  -6 27.5329 3.56476   8
   6   4   6 32.7288 3.90174   6
   6   4   6 36.2369 4.28472   1
  11  -5  -6 80.0565 5.64511   6
  11  -5  -6 84.8800 6.16989   1
 -11  -5   6 79.3096 5.47624   8
 -11   5   6 86.0319 6.51453   5
  11   5  -6 84.7908 7.18610   1
  11   5  -6 85.0504 7.15347  11
  -9  -5   6 2.38635 1.45766   1
   9  -5  -6 5.89589 3.37983  13
   9  -5  -6 1.70924 1.39255   1
   9  -5  -6 5.25206 2.00098   6
  -9  -5   6 2.86487 2.06498   8
  -9  -5   6 1.83675 1.72932  12
   9   5  -6 2.67402 2.30451   1
   9   5  -6 5.41900 2.61202   7
  -9   5   6 4.49679 2.35010   5
   9   5  -6 2.41134 2.30698  11
  -9   5   6 2.31500 2.03204   3
   7  -5  -6 14.7840 2.74775   1
   7  -5  -6 27.3207 4.58707  13
  -7  -5   6 12.7329 1.88807  12
   7  -5  -6 15.7941 2.50876   6
  -7  -5   6 10.5890 2.24915   1
   7   5  -6 10.0968 2.24937   1
   7   5  -6 12.0407 2.06482  11
  -7   5   6 12.9813 2.45100   3
  -7   5   6 8.21867 2.16966   9
  -7   5   6 14.4353 1.73431  12
   7   5  -6 12.7092 2.68059   7
  -5  -5   6 87.4943 4.87854   1
   5  -5  -6 86.8083 4.32212   6
   5  -5  -6 88.9137 4.12903  14
   5  -5  -6 92.0143 6.12266  13
   5  -5  -6 81.3645 4.79585   1
  -5  -5   6 93.5138 3.96663  12
  -5  -5   6 81.5319 3.99080   6
  -5   5   6 84.8229 4.36454   9
  -5   5   6 83.4468 4.54028   1
  -5   5   6 90.1345 3.36833  12
   5   5  -6 91.6772 4.65892   4
  -5   5   6 82.5766 6.38799  10
   5   5  -6 88.1326 5.52816   7
   5   5  -6 81.3611 3.79841  11
   5   5  -6 87.0268 4.73389   1
  -5   5   6 90.3817 4.27371   3
   3  -5  -6 26.2079 2.51812  14
  -3  -5   6 24.7711 2.81008   1
   3  -5  -6 25.6059 3.00607  13
  -3  -5   6 27.6793 3.21422  10
  -3  -5   6 25.8971 2.08953  12
   3  -5  -6 28.3756 2.00071   2
  -3  -5   6 28.7850 2.37058   6
   3  -5  -6 27.6711 2.99500   1
  -3   5   6 29.2977 1.88818  12
  -3   5   6 25.4604 2.34734   3
   3   5  -6 25.3607 3.14393   7
  -3   5   6 25.6981 3.90514  10
   3   5  -6 25.0619 1.87503  11
  -3   5   6 30.1849 2.63863   9
  -3   5   6 24.9319 2.60616   1
   3   5  -6 27.8858 3.20229   4
   3   5  -6 21.5170 2.50299  14
   1  -5  -6 125.921 5.14061   2
  -1  -5   6 121.973 4.34244  12
   1  -5  -6 115.991 4.28659   8
   1  -5  -6 115.416 5.31635   1
  -1  -5   6 99.3869 6.75837  10
   1  -5  -6 118.293 5.51863  13
  -1  -5   6 118.704 4.23045   6
   1  -5  -6 119.137 4.98961  14
  -1  -5   6 116.968 4.65249   1
  -1   5   6 111.170 5.78047   1
  -1   5   6 120.076 7.85887  10
   1   5  -6 117.926 5.48716  14
  -1   5   6 109.168 4.75801   3
  -1   5   6 121.117 5.49597   9
   1   5  -6 121.452 5.85538   7
  -1   5   6 111.345 4.05617  12
  -1   5   6 111.957 4.78220   6
   1   5  -6 119.596 5.67464   4
  -1  -5  -6 16.8744 2.37522   2
   1  -5   6 14.8116 1.89036  12
   1  -5   6 14.6007 1.48730   1
  -1  -5  -6 13.3209 2.09232   8
  -1  -5  -6 15.1465 2.33845  14
  -1   5  -6 13.9786 2.40017   4
   1   5   6 14.9076 2.62113   9
  -1   5  -6 11.8185 2.17977   2
   1   5   6 15.2322 2.80320   1
  -1   5  -6 20.1080 2.92161   7
  -1   5  -6 17.1865 2.44223  14
   1   5   6 12.4290 3.27820  10
   1   5   6 14.4756 2.25348   6
  -3  -5  -6 18.5166 2.88609   8
  -3  -5  -6 20.2228 2.93812   2
   3  -5   6 21.2680 1.25638   6
  -3  -5  -6 25.6925 2.87226  14
   3  -5   6 19.7882 2.39575  12
   3   5   6 21.5526 3.45619   1
  -3   5  -6 19.3429 3.04012   7
  -3   5  -6 21.0192 3.50280   5
  -3   5  -6 25.0112 3.30225   2
  -3   5  -6 24.0329 3.23855  14
   3   5   6 17.9738 3.29781   9
  -3   5  -6 22.7113 3.25450   4
   3   5   6 19.9510 2.90986   6
  -5  -5  -6 88.0855 5.61369   8
  -5  -5  -6 80.4062 4.63453  14
  -5  -5  -6 97.3378 6.22746   2
  -5   5  -6 90.4394 5.39403  14
   5   5   6 84.9613 5.62028   6
  -5   5  -6 91.7059 5.68198   2
   5   5   6 82.8351 6.15614   9
   5   5   6 86.3930 5.83411   1
  -5   5  -6 94.8707 6.80543   5
  10  -6  -6 847.862 21.0798   6
  10  -6  -6 834.968 21.8200   1
 -10  -6   6 829.305 21.1369   8
  10   6  -6 889.728 22.9416  11
 -10   6   6 871.478 22.3190   3
  10   6  -6 862.290 24.3496   1
 -10   6   6 866.216 22.1964   5
  10   6  -6 772.407 24.0767   7
   8  -6  -6 142.544 6.68689   6
   8  -6  -6 133.477 9.22273  13
  -8  -6   6 140.029 5.95136  12
   8  -6  -6 153.836 7.38492   1
  -8   6   6 143.390 7.14124   3
   8   6  -6 147.227 8.05792   1
  -8   6   6 143.717 7.03814   5
   8   6  -6 143.660 6.99498  11
   8   6  -6 142.967 8.19895   7
  -6  -6   6 2043.30 40.6848   1
   6  -6  -6 1945.39 40.2629   1
  -6  -6   6 1931.42 36.9608  12
   6  -6  -6 2007.68 44.6616  13
   6  -6  -6 1954.16 38.4014   6
   6   6  -6 1995.77 38.2444  11
   6   6  -6 1963.39 41.0504   7
  -6   6   6 1986.68 38.9848   3
   6   6  -6 1953.90 39.8842   1
  -6   6   6 1927.14 38.5572   9
   6   6  -6 1876.79 38.2639   4
   4  -6  -6 178.843 8.77118  13
  -4  -6   6 172.245 6.27580   6
   4  -6  -6 163.057 7.16329   1
  -4  -6   6 167.098 7.03880   1
  -4  -6   6 164.994 5.48572  12
   4  -6  -6 171.764 6.27963   6
   4   6  -6 180.023 7.15346   4
  -4   6   6 163.906 9.21489  10
  -4   6   6 185.117 6.85700   9
  -4   6   6 173.272 6.49589   3
  -4   6   6 173.913 7.04062   1
   4   6  -6 174.859 5.91012  11
   4   6  -6 183.508 7.70367   7
   2  -6  -6 1694.98 35.3247  13
   2  -6  -6 1645.06 32.3225   2
   2  -6  -6 1728.49 34.8934   1
  -2  -6   6 1661.27 32.1811   6
  -2  -6   6 1704.35 33.4653   1
  -2  -6   6 1636.11 31.3153  12
  -2   6   6 1723.87 33.6451   9
   2   6  -6 1688.01 35.0058   7
  -2   6   6 1670.59 39.4044  10
  -2   6   6 1676.74 34.7778   1
   2   6  -6 1742.44 34.8652   4
  -2   6   6 1641.88 32.9211   3
   2   6  -6 1688.34 33.9363  14
   0  -6  -6 32.1763 3.08624   2
   0  -6  -6 32.7600 3.05969   1
   0  -6   6 32.2770 2.45274   1
   0  -6  -6 36.7276 2.64738   8
   0  -6   6 32.1003 2.34107  12
   0  -6  -6 36.9377 3.02346  14
   0   6   6 36.4014 3.56667   1
   0   6  -6 44.7991 4.11111   7
   0   6  -6 36.5410 3.80676  14
   0   6   6 33.2315 4.88306  10
   0   6   6 38.0903 3.65811   9
   0   6   6 33.3736 2.24629  12
   0   6   6 30.4667 2.92950   6
   0   6  -6 30.9951 3.68570   4
  -2  -6  -6 740.576 18.1351   8
  -2  -6  -6 768.832 18.9591   2
  -2  -6  -6 782.440 18.2956  14
   2  -6   6 776.812 15.3350   6
  -2   6  -6 792.907 19.3936  14
   2   6   6 793.053 20.6664   1
   2   6   6 793.276 19.9214   9
   2   6   6 771.575 18.8106   6
  -2   6  -6 799.308 20.0806   7
  -2   6  -6 778.202 19.8169   4
   4  -6   6 25.7436 1.35753   6
  -4  -6  -6 31.5468 3.77600   2
  -4  -6  -6 23.8908 3.49777   8
  -4  -6  -6 25.0598 2.88932  14
  -4   6  -6 23.2304 3.32389   7
   4   6   6 22.2332 3.28889   6
  -4   6  -6 28.6799 3.83897   4
   4   6   6 26.0551 4.02749   1
   4   6   6 29.0547 4.30540   9
  -4   6  -6 29.7565 4.39991   5
  -4   6  -6 26.1586 3.21544  14
  -6  -6  -6 432.264 14.0950   2
   6   6   6 425.221 14.8483   1
   6   6   6 435.923 15.6078   9
  -6   6  -6 424.635 15.1538   5
  -9  -7   6 59.3080 5.57223   1
  -9  -7   6 51.6182 5.05206   8
   9  -7  -6 48.9208 4.45469   6
   9  -7  -6 55.8534 4.73886   1
   9   7  -6 51.8041 5.18837  11
  -9   7   6 51.8633 4.99841   5
   9   7  -6 43.8326 5.36770   7
   9   7  -6 54.7011 6.09311   1
  -9   7   6 49.9531 5.20095   3
  -7  -7   6 140.927 7.64129   1
   7  -7  -6 137.769 9.71973  13
  -7  -7   6 132.855 5.63203  12
   7  -7  -6 137.442 6.55906   6
   7  -7  -6 137.137 7.37345   1
   7   7  -6 146.677 6.85907  11
  -7   7   6 141.148 7.04604   3
   7   7  -6 137.182 7.31132   1
   7   7  -6 140.244 7.96001   7
  -7   7   6 138.335 6.70630   9
  -7   7   6 155.837 6.89972   5
  -5  -7   6 332.981 11.4318   1
  -5  -7   6 314.123 8.66988  12
  -5  -7   6 340.046 9.92912   6
   5  -7  -6 325.226 10.0072   6
   5  -7  -6 347.636 11.5979   1
   5  -7  -6 350.041 13.6789  13
   5   7  -6 322.182 11.7633   7
   5   7  -6 318.921 9.61123  11
  -5   7   6 323.570 10.4260   3
  -5   7   6 327.427 10.1895   9
   5   7  -6 336.665 10.7066   4
  -3  -7   6 88.1946 5.15044   1
   3  -7  -6 83.6404 5.26825   1
  -3  -7   6 90.8560 4.56271   6
   3  -7  -6 81.0613 5.90705  13
   3   7  -6 87.9686 5.80031   7
   3   7  -6 81.4344 4.06925  11
  -3   7   6 81.3691 6.54566  10
  -3   7   6 89.1210 4.87907   3
  -3   7   6 86.6712 5.33682   1
  -3   7   6 81.6893 4.71225   9
   3   7  -6 81.9794 5.31700   4
  -1  -7   6 302.854 8.65427   6
  -1  -7   6 313.881 9.38587   1
   1  -7  -6 321.705 9.48172   2
   1  -7  -6 315.018 10.7401   1
   1   7  -6 306.777 11.0072   7
  -1   7   6 308.999 11.0795   1
  -1   7   6 313.191 10.1053   9
   1   7  -6 304.915 10.3870  14
   1   7  -6 323.377 11.1700   4
  -1   7   6 303.811 13.4102  10
  -1   7   6 303.488 9.81305   3
   1  -7   6 84.4677 3.66394   6
  -1  -7  -6 85.7125 5.01467   2
  -1  -7  -6 96.3705 5.35236  14
  -1   7  -6 92.1354 6.09488   4
  -1   7  -6 84.1479 5.85545   7
   1   7   6 85.1090 5.56564   9
   1   7   6 107.647 6.67791   1
   1   7   6 87.8678 7.84164  10
  -1   7  -6 82.5046 5.54875  14
  -3  -7  -6 28.9393 3.52771   8
   3  -7   6 22.1848 1.69291   6
  -3  -7  -6 20.8524 3.49068   2
  -3  -7  -6 20.2002 2.75127  14
  -3   7  -6 23.0860 3.87455   7
   3   7   6 29.7147 4.08840   9
  -3   7  -6 29.8877 4.05961   4
   3   7   6 24.8941 4.07722   1
  -3   7  -6 24.0383 3.47007  14
   3   7   6 21.5521 3.33291   6
   5  -7   6 69.9035 2.31386   6
  -5  -7  -6 58.3924 4.48243  14
  -5  -7  -6 72.3950 6.00539   2
  -5   7  -6 75.6195 5.97750   5
   5   7   6 68.4091 6.24467   1
  -5   7  -6 75.7608 5.77171   4
   5   7   6 71.9913 5.63832   6
   5   7   6 58.6541 5.91951   9
  10  -8  -6 202.570 8.80335   6
 -10  -8   6 188.294 8.98496   8
  10   8  -6 179.898 9.22040  11
  10   8  -6 199.010 10.8861   1
 -10   8   6 191.147 9.12995   5
 -10   8   6 198.550 9.77588   3
   8  -8  -6 168.053 7.69683   6
  -8  -8   6 146.198 7.14254   8
  -8  -8   6 159.615 8.71056   1
   8  -8  -6 159.731 8.16809   1
  -8   8   6 144.392 7.76504   3
   8   8  -6 136.416 7.53202  11
   8   8  -6 150.794 8.34602   1
   8   8  -6 156.019 8.94225   7
  -8   8   6 152.666 7.53662   5
  -6  -8   6 299.474 11.5612   1
   6  -8  -6 309.358 14.1628  13
   6  -8  -6 303.069 11.3201   1
   6  -8  -6 297.435 10.0849   6
  -6   8   6 285.954 10.3053   3
  -6   8   6 296.891 9.63460   5
   6   8  -6 296.922 11.6604   7
   6   8  -6 297.542 10.0810  11
  -6   8   6 299.189 9.98997   9
   4  -8  -6 340.008 13.5248  13
   4  -8  -6 347.130 12.1049   1
  -4  -8   6 337.844 10.3561   6
  -4  -8   6 340.013 11.6260   1
   4   8  -6 338.858 12.1106   7
   4   8  -6 339.183 9.98063  11
  -4   8   6 312.309 10.7744   1
  -4   8   6 339.481 10.7583   3
   4   8  -6 342.700 11.5545   4
  -4   8   6 345.849 10.6485   9
   2  -8  -6 563.800 16.3380   1
   2  -8  -6 557.413 16.4364  13
  -2  -8   6 562.601 15.0210   1
  -2  -8   6 559.446 14.0777   6
  -2   8   6 580.520 15.0292   9
   2   8  -6 567.009 16.4263   4
   2   8  -6 562.359 16.9271   7
  -2   8   6 559.648 16.0349   1
  -2   8   6 564.407 15.2069   3
   0  -8  -6 518.626 14.1343   2
   0  -8   6 515.969 12.6853   6
   0  -8   6 520.344 13.2263   1
   0  -8  -6 534.696 15.4176   1
   0   8   6 516.414 14.6424   9
   0   8  -6 549.391 16.1815   4
   0   8   6 524.578 16.0476   1
   0   8   6 495.898 14.5411   3
   0   8  -6 514.900 16.0672   7
  -2  -8  -6 524.572 14.6126  14
  -2  -8  -6 516.455 14.9662   2
   2  -8   6 511.655 11.9502   6
  -2   8  -6 539.237 16.9053   7
   2   8   6 518.724 15.5640   9
  -2   8  -6 525.563 16.3126   4
   2   8   6 502.985 16.8602   1
  -4  -8  -6 259.575 10.4601   2
  -4  -8  -6 262.123 9.56238  14
   4  -8   6 269.655 6.77572   6
   4   8   6 265.550 11.4136   9
   4   8   6 278.320 12.2476   1
  -4   8  -6 278.332 11.3850   4
   9  -9  -6 68.7605 5.52251   6
  -9  -9   6 66.7160 5.59998   8
   9  -9  -6 69.4522 5.83805   1
  -9  -9   6 69.9226 6.47710   1
   9   9  -6 68.6980 9.29264   1
  -9   9   6 62.6308 5.25369   5
   9   9  -6 68.9207 6.10673  11
  -7  -9   6 65.3675 6.07570   1
   7  -9  -6 68.0047 5.39808   1
  -7  -9   6 67.8591 4.81338   8
   7  -9  -6 60.6828 4.59016   6
   7   9  -6 71.6377 5.12356  11
  -7   9   6 68.5289 5.25214   3
  -7   9   6 66.1208 4.62733   9
   7   9  -6 68.8957 6.31315   7
   5  -9  -6 49.1786 6.13729  13
  -5  -9   6 44.2890 3.74991   6
   5  -9  -6 49.9256 4.98463   1
  -5  -9   6 40.0164 4.71588   1
   5   9  -6 45.8367 4.15284  11
   5   9  -6 41.5349 4.54382   4
   5   9  -6 46.8003 5.35544   7
  -5   9   6 47.3598 4.21325   3
  -5   9   6 49.3311 4.20492   9
   3  -9  -6 154.111 8.86787  13
   3  -9  -6 146.484 7.86089   1
  -3  -9   6 158.239 7.55433   1
  -3  -9   6 155.924 6.66357   6
   3   9  -6 148.699 7.95990   4
  -3   9   6 159.175 7.51148   1
  -3   9   6 160.347 7.03151   9
   3   9  -6 167.223 8.94554   7
  -3   9   6 162.678 7.33454   3
  -1  -9   6 20.1534 2.80898   1
  -1  -9   6 22.9698 2.80613   6
   1  -9  -6 20.2052 3.24099   1
  -1   9   6 17.8541 2.93449   9
  -1   9   6 19.2660 3.25551   1
  -1   9   6 14.2592 3.06577   3
   1   9  -6 14.7790 3.13467   4
   1   9  -6 23.5414 3.81420   7
  -1  -9  -6 53.4072 4.70406   2
  -1  -9  -6 65.3032 5.11795  14
   1  -9   6 60.0501 3.80950   6
   1   9   6 57.3760 5.01394   9
   1   9   6 55.7772 5.28851   1
  -1   9  -6 58.5867 5.93215   7
  -1   9  -6 56.2003 5.68889   4
   3  -9   6 16.3172 1.99188   6
  -3  -9  -6 17.3935 3.16010  14
  -3  -9  -6 15.8874 3.37581   2
  -3   9  -6 16.6345 3.40930   7
   3   9   6 13.4996 3.58743   1
  -3   9  -6 17.3807 3.84122   4
   3   9   6 17.8788 3.56459   9
  -8 -10   6 823.408 21.1816   8
  -8 -10   6 869.662 24.0263   1
   8 -10  -6 840.642 21.4510   6
   8  10  -6 807.418 21.8597  11
  -8  10   6 873.924 22.8459   3
  -6 -10   6 8.65397 2.42565   8
   6 -10  -6 7.66397 2.45727   1
  -6 -10   6 9.06760 2.64947   1
   6  10  -6 10.5237 3.07135   7
   6  10  -6 10.7247 2.73701  11
  -6  10   6 12.1065 2.38575   9
  -6  10   6 10.0277 2.83636   3
  -4 -10   6 1258.49 29.9754   1
  -4 -10   6 1226.99 27.9451   6
   4 -10  -6 1303.79 31.0710   1
   4  10  -6 1264.26 31.5755   7
   4  10  -6 1260.74 29.7388   4
   4  10  -6 1280.72 27.7696  11
  -4  10   6 1260.48 29.0072   3
  -4  10   6 1271.02 27.5708   9
  -2 -10   6 3.85853 1.65789   1
   2 -10  -6 4.48309 2.05768   1
  -2 -10   6 1.74341 1.71128   6
  -2  10   6 0.96463 2.18956   3
   2  10  -6 4.91661 2.32621   7
  -2  10   6 6.03260 2.51997   1
  -2  10   6 6.89111 1.84622   9
   2  10  -6 3.12212 2.47022   4
   0 -10   6 887.439 20.8254   1
   0 -10  -6 864.572 21.4430   2
   0  10   6 876.985 21.5142   9
   0  10  -6 924.755 25.2190   7
   0  10   6 856.971 24.1675   1
   0  10   6 883.038 22.9285   3
   0  10  -6 905.292 24.4431   4
  -2 -10  -6 5.71877 2.11171   2
  -2 -10  -6 5.81311 2.04125  14
   2 -10   6 4.33158 1.57567   6
  -2  10  -6 2.48181 2.11031   7
  -2  10  -6 3.88394 2.43903   4
   2  10   6 2.85177 2.68506   1
  -7 -11   6 39.6617 5.45135   1
   7  11  -6 37.5151 4.40267  11
  -7  11   6 48.3506 5.64266   3
  -5 -11   6 31.3732 4.37820   1
   5 -11  -6 45.3532 5.49606   1
   5  11  -6 31.9392 5.05678   7
  -5  11   6 33.8651 4.30075   3
   5  11  -6 35.0505 4.37284  11
   3 -11  -6 96.0285 7.32725   1
  -3 -11   6 94.3761 5.91670   6
  -3 -11   6 106.473 6.90953   1
   3  11  -6 105.239 8.03147   7
   3  11  -6 102.215 6.87741   4
  -3  11   6 93.7389 6.23123   3
  -1 -11   6 33.7742 3.67003   6
   1 -11  -6 37.8084 5.26575   1
  -1 -11   6 39.0805 4.06627   1
  -1  11   6 40.3992 5.08555   1
  -1  11   6 46.9982 5.44052   3
   1  11  -6 33.5592 5.52666   7
   1  11  -6 40.1618 5.59351   4
   1 -11   6 83.3941 4.99267   6
  -1 -11  -6 73.3891 5.50181  14
   1  11   6 72.9023 6.78913   1
  -1  11  -6 84.6767 6.81740   4
   1  11   6 75.3039 6.01581   3
  -1  11  -6 75.9969 7.34034   7
  -4 -12   6 157.210 8.94746   1
   4 -12  -6 173.857 9.93723   1
  -4  12   6 151.226 8.13682   3
  -2 -12   6 185.333 8.40950   6
   2 -12  -6 192.919 10.4776   1
  -2 -12   6 192.188 9.12583   1
   2  12  -6 183.589 10.1707   4
   2  12  -6 197.305 11.2499   7
  -2  12   6 185.598 9.44823   3
   0  12  -6 173.225 10.2826   4
 -12   0   7 0.74843 1.71632   8
  12   0  -7 3.11842 2.86872  11
 -12   0   7 0.27037 2.20712   5
  12   0  -7 -1.2407 2.23788   1
 -10   0   7 3.81169 1.48397  12
 -10   0   7 0.63995 1.96216   5
  10   0  -7 2.32083 2.60186  13
  10   0  -7 2.85778 1.70095  11
 -10   0   7 0.03626 1.48674   8
  10   0  -7 -0.2850 1.90477   1
   8   0  -7 0.99176 1.67072   1
   8   0  -7 2.89066 1.39727  11
  -8   0   7 2.03724 1.36926  12
   8   0  -7 -0.3594 1.99255  13
   8   0  -7 0.82334 1.40735   4
  -8   0   7 -0.2154 1.25935   1
   6   0  -7 -0.3783 0.75840   1
   6   0  -7 0.31864 1.79291  13
  -6   0   7 -0.3570 0.99982   9
  -6   0   7 2.41431 2.12148  10
  -6   0   7 -0.1897 0.74158   1
   6   0  -7 -0.1039 0.87145   4
   6   0  -7 1.45251 0.79534  11
  -6   0   7 4.79243 1.36136  12
   4   0  -7 2.67413 1.01953   1
   4   0  -7 -0.8403 1.04161   4
   4   0  -7 -0.4354 0.45603   2
  -4   0   7 0.41430 0.92190   9
  -4   0   7 1.38613 0.80315  12
   4   0  -7 -0.4540 0.82459  13
   4   0  -7 0.76998 0.86558  14
  -4   0   7 -0.0845 1.59851  10
  -4   0   7 0.95739 1.07673   1
  -4   0   7 0.46424 0.86223   6
  -2   0   7 2.31371 2.03082  10
  -2   0   7 -0.3017 0.92691   1
  -2   0   7 1.33674 0.92439   6
  -2   0   7 0.38042 0.95517  12
  -2   0   7 -1.3557 0.82058   9
   2   0  -7 0.26809 0.71018   2
   2   0  -7 1.08606 0.86684   4
   2   0  -7 -0.7572 0.91014  14
   2   0  -7 1.10852 0.61005   1
   2   0  -7 -0.3978 0.81004   7
   0   0   7 4.57578 1.18425   6
   0   0   7 1.57661 1.68772  10
   0   0  -7 0.18760 1.16627   8
   0   0   7 0.49084 1.17400   9
   0   0  -7 1.42649 1.30272   2
   2   0   7 0.65073 0.88134   6
  -2   0  -7 1.33915 1.13415   4
   2   0   7 2.69301 2.12135  10
  -2   0  -7 -0.1697 1.47832   8
   2   0   7 0.61727 0.95958   1
  -2   0  -7 0.21851 1.43584   2
   2   0   7 5.77498 2.06666   9
  -2   0  -7 0.17375 1.27269  14
  -4   0  -7 -0.1020 1.37131   8
   4   0   7 3.38583 1.22383   6
   4   0   7 0.90373 1.59232   9
  -4   0  -7 1.23642 1.41873  14
  -4   0  -7 1.94595 1.95038   2
   6   0   7 1.47423 2.45116   9
   6   0   7 -0.3409 1.26650   6
  -6   0  -7 0.86657 1.63875   8
  -6   0  -7 1.95754 2.06611   2
  11  -1  -7 195.765 8.95928  11
  11  -1  -7 191.493 9.24832   1
 -11  -1   7 187.496 7.73116   8
 -11  -1   7 183.303 8.35517   5
 -11  -1   7 179.634 7.58791  12
  11   1  -7 197.092 9.81191   1
 -11   1   7 183.256 7.39694  12
  11   1  -7 194.833 9.14258  11
 -11   1   7 187.720 8.73554   5
   9  -1  -7 678.431 21.7350  13
  -9  -1   7 668.583 17.2876   1
   9  -1  -7 677.404 16.9434   6
   9  -1  -7 680.965 16.8098  11
   9  -1  -7 623.270 16.8559   4
  -9  -1   7 672.541 15.9326  12
   9  -1  -7 674.482 18.5283   1
  -9   1   7 649.594 16.4919   3
  -9   1   7 689.559 15.7941  12
   9   1  -7 692.588 16.9883  11
   9   1  -7 697.904 19.0216   1
   9   1  -7 642.572 20.6081  13
  -7  -1   7 307.430 9.95879   1
   7  -1  -7 302.773 12.4070  13
  -7  -1   7 301.825 8.51306  12
   7  -1  -7 294.805 8.19869  11
  -7  -1   7 301.438 8.92569   9
   7  -1  -7 312.156 10.5043   1
   7   1  -7 305.242 9.41337   4
   7   1  -7 301.835 11.9747  13
  -7   1   7 293.699 8.20742  12
   7   1  -7 316.773 10.5100   1
   7   1  -7 293.248 8.21948  11
  -7   1   7 313.591 9.83259   1
  -7   1   7 301.826 9.11842   9
   5  -1  -7 1939.59 38.2790   1
   5  -1  -7 1949.44 36.0632  14
  -5  -1   7 1903.29 36.2416   6
  -5  -1   7 1892.84 43.4941  10
  -5  -1   7 1960.37 36.1382  12
   5  -1  -7 1964.72 40.8892  13
  -5  -1   7 1977.76 36.5137   9
  -5  -1   7 1955.19 38.3047   1
  -5   1   7 1851.34 36.0558   6
  -5   1   7 1980.84 37.1031   9
  -5   1   7 1955.11 36.0213  12
  -5   1   7 1967.89 38.2214   1
   5   1  -7 1928.85 40.8363  13
   5   1  -7 1928.56 37.5341   4
   5   1  -7 1955.05 37.9796   1
  -5   1   7 1940.53 44.2872  10
   3  -1  -7 375.687 11.7305  13
   3  -1  -7 368.441 9.36226   2
  -3  -1   7 363.263 9.37030   9
   3  -1  -7 383.474 10.3872   4
  -3  -1   7 378.760 14.3682  10
  -3  -1   7 378.623 9.43343   6
  -3  -1   7 375.999 9.31051  12
   3  -1  -7 367.529 9.94530   1
  -3  -1   7 379.399 10.5285   1
   3  -1  -7 380.975 9.74699  14
  -3   1   7 377.172 9.27798  12
  -3   1   7 369.935 10.5296   1
   3   1  -7 378.810 10.3174   4
  -3   1   7 370.439 9.44757   6
   3   1  -7 372.844 9.88199  14
  -3   1   7 376.644 9.87942   9
   3   1  -7 383.638 10.4599   7
   3   1  -7 361.342 9.47397   1
  -3   1   7 369.190 14.4911  10
   3   1  -7 367.845 9.67815   2
  -1  -1   7 2311.38 42.1664  12
  -1  -1   7 2259.58 41.4626   6
  -1  -1   7 2222.60 42.2842   9
   1  -1  -7 2296.87 42.7526   4
  -1  -1   7 2263.43 50.1811  10
   1  -1  -7 2281.82 42.6327  14
   1  -1  -7 2218.84 41.2587   7
   1  -1  -7 2322.30 43.0950   2
  -1  -1   7 2209.52 42.5938   1
  -1   1   7 2278.84 43.3697   1
   1   1  -7 2207.67 42.0855   7
  -1   1   7 2297.49 41.9870   6
  -1   1   7 2323.90 42.0919  12
   1   1  -7 2319.35 43.4085   2
  -1   1   7 2312.48 43.0886   9
   1   1  -7 2337.79 43.2163   4
  -1   1   7 2244.94 50.6672  10
   1   1  -7 2289.77 42.9423  14
  -1  -1  -7 196.449 6.58836   4
  -1  -1  -7 195.714 7.48437   2
  -1  -1  -7 191.159 6.88084  14
   1  -1   7 194.600 6.35400   1
   1  -1   7 191.688 7.16498   9
  -1  -1  -7 192.226 7.17922   8
   1  -1   7 180.424 11.0482  10
   1  -1   7 186.586 5.72765   6
  -1   1  -7 206.806 7.62871   2
  -1   1  -7 190.286 7.17927   8
  -1   1  -7 191.575 6.87874   4
   1   1   7 189.186 11.3464  10
   1   1   7 197.012 7.02055   1
  -1   1  -7 196.531 7.13099  14
   1   1   7 186.412 7.30065   9
   1   1   7 190.425 6.28721   6
   3  -1   7 968.168 19.5692   6
  -3  -1  -7 986.842 21.6221  14
  -3  -1  -7 976.943 22.7842   8
  -3  -1  -7 969.049 22.7267   2
   3  -1   7 970.299 22.6934   9
   3   1   7 965.463 20.5854   6
  -3   1  -7 974.162 22.7230   2
   3   1   7 958.648 21.2216   1
  -3   1  -7 942.640 21.5433  14
  -3   1  -7 968.279 22.6737   8
   3   1   7 982.418 23.4238   9
   5  -1   7 84.0329 6.12279   9
  -5  -1  -7 79.5054 5.78048   2
  -5  -1  -7 75.5437 5.71812   8
  -5  -1  -7 81.4430 4.88528  14
   5  -1   7 82.1090 3.96533   6
   5   1   7 88.2390 4.83257   6
   5   1   7 93.6083 6.70102   9
  -5   1  -7 83.6149 5.73005   2
  -5   1  -7 89.8736 6.06722   8
  -5   1  -7 86.1738 5.01785  14
 -12  -2   7 116.966 6.57574   8
  12  -2  -7 109.932 6.92008  11
 -12  -2   7 95.2578 6.43535   5
  12  -2  -7 109.308 7.42189   1
  12   2  -7 105.476 7.73634   1
  12   2  -7 106.254 7.64638  11
 -12   2   7 107.165 7.33057   5
  10  -2  -7 196.505 8.35866  11
 -10  -2   7 181.568 7.67270   8
  10  -2  -7 196.125 8.29093   6
  10  -2  -7 188.921 8.83332   1
  10  -2  -7 177.008 10.6226  13
 -10  -2   7 186.769 7.88609   5
 -10  -2   7 194.674 7.57077  12
  10   2  -7 186.221 8.39425  11
  10   2  -7 198.560 9.41279   1
 -10   2   7 179.506 7.97405   3
 -10   2   7 188.884 7.19799  12
 -10   2   7 188.880 8.51305   5
  -8  -2   7 288.232 8.64146  12
   8  -2  -7 280.165 10.4006   1
   8  -2  -7 287.883 8.82111  11
   8  -2  -7 274.867 12.4623  13
   8  -2  -7 278.972 9.22992   6
  -8  -2   7 294.878 10.0086   1
   8   2  -7 277.751 12.1019  13
  -8   2   7 265.674 9.03398   1
   8   2  -7 300.113 10.8986   1
  -8   2   7 287.445 8.25215  12
  -8   2   7 270.019 8.82246   3
  -8   2   7 289.515 9.52473   9
   8   2  -7 282.616 8.85263  11
  -6  -2   7 606.835 13.6261  12
   6  -2  -7 588.192 17.7444  13
  -6  -2   7 601.281 15.3715   1
   6  -2  -7 579.801 15.4713   1
  -6  -2   7 584.327 13.6395   9
   6   2  -7 592.620 17.7026  13
   6   2  -7 631.526 15.5961  14
  -6   2   7 590.420 15.0738   1
   6   2  -7 609.631 14.8338   4
   6   2  -7 602.757 15.4817   1
   6   2  -7 590.676 12.8481  11
  -6   2   7 578.576 19.7876  10
  -6   2   7 573.392 13.1351  12
  -6   2   7 608.243 14.6314   9
  -6   2   7 584.351 14.3442   3
   4  -2  -7 579.178 13.2863  14
  -4  -2   7 570.619 13.1585   6
  -4  -2   7 581.791 18.3919  10
  -4  -2   7 590.752 14.6489   1
  -4  -2   7 588.232 13.0593  12
   4  -2  -7 580.701 14.5127   1
   4  -2  -7 600.848 16.6097  13
   4  -2  -7 571.332 12.4241   2
  -4  -2   7 580.230 12.8882   9
   4   2  -7 566.138 13.7381   1
  -4   2   7 586.307 19.0896  10
  -4   2   7 566.493 13.1409   6
   4   2  -7 578.599 14.2693   4
  -4   2   7 590.619 13.9116   9
   4   2  -7 589.279 14.8831   7
  -4   2   7 587.710 12.8436  12
   4   2  -7 579.788 13.4572  14
  -4   2   7 584.246 14.6380   1
   2  -2  -7 666.583 15.5636   1
  -2  -2   7 687.907 20.9002  10
   2  -2  -7 688.287 15.5655   2
  -2  -2   7 706.100 15.2318  12
   2  -2  -7 705.887 15.7216  14
  -2  -2   7 686.891 15.0129   9
   2  -2  -7 712.262 17.5615  13
  -2  -2   7 710.194 16.1113   1
   2  -2  -7 725.317 16.2036   4
  -2  -2   7 682.795 14.9110   6
  -2   2   7 723.541 16.2364   9
  -2   2   7 695.226 15.0194  12
   2   2  -7 714.018 16.2888   2
  -2   2   7 676.534 21.4290  10
  -2   2   7 701.372 16.8098   1
  -2   2   7 701.080 15.3488   6
   2   2  -7 709.697 16.2998   7
   2   2  -7 703.844 16.0788  14
   2   2  -7 711.279 16.3791   4
   0  -2   7 627.412 14.2926   1
   0  -2   7 604.913 14.4914   9
   0  -2  -7 628.139 15.4745   2
   0  -2  -7 645.945 15.0499  14
   0  -2  -7 630.112 14.6551   4
   0  -2   7 635.493 14.4208  12
   0  -2  -7 621.890 15.0284   8
   0  -2   7 633.426 13.5095   6
   0  -2   7 622.633 20.7620  10
   0   2  -7 639.982 15.3317  14
   0   2   7 628.933 15.6475   1
   0   2   7 637.110 21.8795  10
   0   2   7 625.422 14.4326  12
   0   2  -7 619.464 14.5880   7
   0   2  -7 633.275 15.8069   2
   0   2  -7 662.227 15.5154   4
   0   2   7 638.867 14.5600   6
   0   2   7 653.901 15.8298   9
  -2  -2  -7 373.811 11.3224   8
   2  -2   7 344.293 16.1773  10
   2  -2   7 345.729 10.6273   9
  -2  -2  -7 363.599 11.1997   2
   2  -2   7 367.087 8.69976   6
  -2  -2  -7 363.270 10.4773  14
   2  -2   7 356.371 9.24286   1
  -2   2  -7 361.989 11.1300   8
   2   2   7 380.226 10.2640   6
  -2   2  -7 388.253 11.7689   2
  -2   2  -7 354.221 10.5643   4
   2   2   7 360.036 10.8269   1
   2   2   7 361.127 11.6348   9
  -2   2  -7 368.388 10.7621  14
   2   2   7 356.881 19.8169  10
   4  -2   7 263.991 7.02642   6
  -4  -2  -7 266.968 9.98618   8
   4  -2   7 261.212 9.86686   9
  -4  -2  -7 285.746 10.3628   2
  -4  -2  -7 262.765 9.03207  14
  -4   2  -7 253.518 9.05476  14
   4   2   7 252.669 8.94926   1
  -4   2  -7 292.240 10.4198   2
   4   2   7 271.562 10.9725   9
   4   2   7 269.277 8.82630   6
  -4   2  -7 271.320 9.96814   8
  -6  -2  -7 127.816 7.40553   2
   6  -2   7 132.378 7.57689   9
   6  -2   7 132.781 4.84989   6
  -6  -2  -7 144.001 7.85092   8
   6   2   7 130.914 8.32983   9
  -6   2  -7 141.960 7.30276   8
   6   2   7 142.391 6.69954   6
  -6   2  -7 127.259 7.04097   2
 -11  -3   7 691.024 18.1846   8
 -11  -3   7 712.604 17.7579  12
  11  -3  -7 711.694 19.0164  11
  11  -3  -7 691.615 19.9909   1
  11   3  -7 698.619 19.6882  11
 -11   3   7 662.282 18.8248   3
  11   3  -7 717.803 21.1201   1
 -11   3   7 708.654 19.4507   5
  -9  -3   7 157.968 7.52435   1
   9  -3  -7 154.569 6.83814   6
  -9  -3   7 156.078 6.44209  12
   9  -3  -7 144.752 9.77776  13
   9  -3  -7 152.747 7.62441   1
   9   3  -7 145.470 6.64695  11
   9   3  -7 157.470 8.32234   1
  -9   3   7 146.511 6.85466   3
  -9   3   7 169.671 6.12847  12
  -7  -3   7 1279.62 27.8892   1
   7  -3  -7 1235.26 31.2832  13
   7  -3  -7 1320.36 28.3813   1
  -7  -3   7 1263.14 25.5322  12
  -7   3   7 1233.94 24.7047  12
   7   3  -7 1284.08 26.6118   4
   7   3  -7 1295.72 28.3284   1
  -7   3   7 1239.16 26.7939   1
  -7   3   7 1225.35 25.8839   3
  -7   3   7 1262.08 26.7907   9
   7   3  -7 1228.68 25.2776  11
  -5  -3   7 380.729 9.56632  12
   5  -3  -7 385.093 13.1514  13
  -5  -3   7 372.633 9.86589   6
   5  -3  -7 380.472 9.62401  14
  -5  -3   7 359.077 13.9603  10
  -5  -3   7 374.209 11.0797   1
   5  -3  -7 387.382 11.4470   1
  -5  -3   7 362.342 9.05535   9
   5   3  -7 373.023 9.51442  14
   5   3  -7 355.499 10.4736   1
  -5   3   7 363.674 14.8027  10
  -5   3   7 382.402 11.0713   1
  -5   3   7 373.532 10.5599   9
   5   3  -7 391.359 11.8439   7
  -5   3   7 368.025 9.40837   3
  -5   3   7 360.708 9.05642  12
   5   3  -7 390.781 10.9080   4
   3  -3  -7 1260.39 25.3073  14
  -3  -3   7 1248.50 24.8980   6
   3  -3  -7 1288.10 28.1948  13
   3  -3  -7 1243.00 26.3519   1
  -3  -3   7 1235.80 30.7798  10
   3  -3  -7 1213.77 24.4914   2
  -3  -3   7 1285.11 24.7915  12
  -3  -3   7 1269.47 26.2528   1
   3   3  -7 1290.78 26.9274   7
  -3   3   7 1278.58 24.4904  12
  -3   3   7 1268.96 26.0223   9
  -3   3   7 1254.55 25.0939   6
   3   3  -7 1269.40 25.7922  14
  -3   3   7 1241.92 26.8114   1
   3   3  -7 1287.91 26.3986   4
  -3   3   7 1280.39 32.6260  10
   1  -3  -7 419.449 11.0396  14
   1  -3  -7 395.853 10.7393   1
   1  -3  -7 429.526 11.3342   2
  -1  -3   7 439.132 10.6417  12
  -1  -3   7 399.374 10.4866   1
  -1  -3   7 408.165 10.1247   9
   1  -3  -7 431.134 12.0896  13
   1  -3  -7 400.688 10.6089   8
  -1  -3   7 403.781 15.2033  10
  -1  -3   7 421.551 9.98583   6
   1  -3  -7 427.229 11.1334   4
  -1   3   7 421.443 10.8409   6
   1   3  -7 435.510 11.8446   4
  -1   3   7 419.855 11.6351   9
   1   3  -7 420.812 11.7358   2
  -1   3   7 435.474 12.2718   1
   1   3  -7 421.376 11.5036  14
  -1   3   7 416.021 10.3520  12
   1   3  -7 435.796 11.4916   7
  -1   3   7 410.676 16.4586  10
  -1  -3  -7 860.737 20.1162   2
  -1  -3  -7 862.038 18.6720   4
   1  -3   7 859.712 17.7931   1
   1  -3   7 877.123 17.2542   6
  -1  -3  -7 890.163 19.9663   8
   1  -3   7 812.117 18.7472   9
  -1  -3  -7 888.628 19.4332  14
   1  -3   7 867.330 18.9202  12
   1  -3   7 832.572 25.9782  10
   1   3   7 828.308 20.2490   9
  -1   3  -7 908.581 20.9924   2
  -1   3  -7 886.042 20.0062  14
   1   3   7 889.979 20.5830   1
  -1   3  -7 852.933 19.3614   7
   1   3   7 847.554 27.5690  10
  -1   3  -7 884.720 20.1258   4
   1   3   7 881.797 19.3534   6
   3  -3   7 225.386 8.47804   9
  -3  -3  -7 248.222 8.37782  14
   3  -3   7 241.453 6.23343   6
  -3  -3  -7 248.310 9.44138   2
  -3  -3  -7 231.167 9.11545   8
   3   3   7 251.371 8.59719   6
   3   3   7 233.618 8.74542   1
  -3   3  -7 251.044 9.18005   8
   3   3   7 246.017 10.0833   9
  -3   3  -7 255.284 9.59136   2
  -3   3  -7 244.420 8.70867   4
  -3   3  -7 244.250 8.66296  14
  -5  -3  -7 432.568 14.0826   8
  -5  -3  -7 457.573 14.2519   2
   5  -3   7 452.746 10.0170   6
   5   3   7 487.583 16.0478   9
   5   3   7 450.912 13.1427   6
  -5   3  -7 470.678 14.2239   8
  -5   3  -7 439.986 13.7746   2
  -5   3  -7 425.182 12.6719  14
  12  -4  -7 90.5896 6.24490   6
  12  -4  -7 97.2861 6.81865  11
  12  -4  -7 91.4603 6.81639   1
 -12  -4   7 79.0729 5.97669   8
  12   4  -7 85.5721 7.15515  11
  12   4  -7 84.1772 6.83963   1
 -12   4   7 85.5118 6.45796   3
 -12   4   7 87.5626 6.94763   5
 -10  -4   7 92.4441 5.53381   8
  10  -4  -7 95.4114 6.58076   1
  10  -4  -7 88.1816 5.73296   6
  10  -4  -7 97.0020 8.67276  13
 -10  -4   7 100.347 5.33865  12
  10   4  -7 93.7715 7.26658   1
 -10   4   7 83.1533 5.86479   3
  10   4  -7 92.8019 5.85710  11
 -10   4   7 90.9673 4.72782  12
  10   4  -7 93.9603 7.46971   7
 -10   4   7 91.2585 6.29629   5
   8  -4  -7 65.5887 4.60778   6
  -8  -4   7 62.6525 4.95750   1
   8  -4  -7 64.9419 4.78034   1
  -8  -4   7 59.6670 3.96654  12
   8  -4  -7 70.6539 7.00574  13
  -8   4   7 61.4725 4.34143   3
  -8   4   7 70.1595 3.62271  12
   8   4  -7 58.8868 5.16316   1
  -8   4   7 66.5128 4.75605   9
   8   4  -7 61.4398 5.20308   7
   8   4  -7 64.9756 4.40645  11
   6  -4  -7 146.757 5.44536  14
  -6  -4   7 149.217 7.08384   1
  -6  -4   7 150.728 5.89087   6
   6  -4  -7 164.018 9.08798  13
  -6  -4   7 167.277 5.91921  12
   6  -4  -7 166.800 7.24620   1
   6  -4  -7 163.574 6.27824   6
  -6   4   7 152.310 9.63250  10
   6   4  -7 160.652 5.52068  11
  -6   4   7 165.850 6.72845   9
  -6   4   7 155.117 6.00144   3
   6   4  -7 161.576 6.56366   4
  -6   4   7 153.205 6.62963   1
   6   4  -7 165.316 7.63989   7
  -6   4   7 164.756 5.34798  12
   6   4  -7 166.850 7.00885   1
   6   4  -7 159.884 5.42551  14
  -4  -4   7 33.8209 2.60281  12
  -4  -4   7 32.0831 2.50063   6
  -4  -4   7 32.6398 3.20271   1
  -4  -4   7 32.7285 4.10677  10
   4  -4  -7 29.9031 3.82072  13
   4  -4  -7 37.8983 3.27879   1
   4  -4  -7 31.7776 2.67121  14
   4   4  -7 30.9265 2.53178  14
  -4   4   7 30.9650 2.48906   3
  -4   4   7 31.8892 3.29984   9
  -4   4   7 37.3454 3.42451   1
   4   4  -7 30.4604 3.19864   7
  -4   4   7 30.5578 2.27088  12
   4   4  -7 32.8921 3.30047   4
  -4   4   7 32.5901 4.38158  10
  -2  -4   7 41.5964 2.82236  12
  -2  -4   7 42.2133 3.00540   1
   2  -4  -7 45.3866 3.07277  14
   2  -4  -7 40.7028 3.26450   1
   2  -4  -7 41.0367 2.94692   2
  -2  -4   7 47.2143 4.81432  10
  -2  -4   7 44.3317 2.84901   6
   2  -4  -7 47.9296 3.97994  13
  -2   4   7 44.2963 3.37570   9
   2   4  -7 47.1722 3.81817   4
   2   4  -7 45.5567 3.75198   7
  -2   4   7 41.6492 2.63600   3
  -2   4   7 44.9960 5.09595  10
  -2   4   7 42.1973 2.86455   6
  -2   4   7 42.9639 2.72367  12
   2   4  -7 40.1033 3.43548  14
  -2   4   7 46.1798 3.89697   1
   0  -4   7 63.9552 3.10742   6
   0  -4  -7 60.8383 3.77416   8
   0  -4   7 56.1886 5.67901  10
   0  -4  -7 59.4578 3.69960  14
   0  -4  -7 61.2769 3.58650   4
   0  -4   7 61.1480 3.38623  12
   0  -4   7 64.2050 3.32231   1
   0  -4  -7 69.1221 4.32189   2
   0   4   7 61.2772 3.90643   6
   0   4   7 65.3299 3.64123  12
   0   4   7 60.7402 4.37236   1
   0   4  -7 67.0854 4.48692   4
   0   4   7 63.7635 6.85752  10
   0   4  -7 60.8676 4.22531   7
   0   4  -7 73.0282 4.55959  14
   0   4  -7 65.9334 4.35427   2
   0   4   7 62.9410 4.26868   9
  -2  -4  -7 1.84289 1.35157   2
   2  -4   7 6.39862 1.81486  12
  -2  -4  -7 2.09984 1.57565  14
  -2  -4  -7 5.36673 1.91278   8
   2  -4   7 3.13006 0.88701   6
   2   4   7 12.2135 2.59704   1
  -2   4  -7 5.24900 1.92910   4
  -2   4  -7 1.35179 1.40235   7
   2   4   7 4.08413 2.23178   9
   2   4   7 1.83557 1.59415   6
  -2   4  -7 3.86189 1.52481  14
  -2   4  -7 2.11790 1.46640   2
  -4  -4  -7 37.5763 3.81701  14
  -4  -4  -7 38.8575 4.53104   2
  -4  -4  -7 41.5966 4.35418   8
   4  -4   7 38.6356 2.01993   6
  -4   4  -7 40.8889 4.01093  14
  -4   4  -7 47.4371 4.81699   8
  -4   4  -7 45.7456 4.70463   2
   4   4   7 32.9382 3.65005   6
   4   4   7 40.6784 4.79615   9
   4   4   7 38.2086 3.80849   1
  -6  -4  -7 6.31157 2.79367   8
  -6  -4  -7 7.02300 2.23915   2
   6  -4   7 8.24434 1.17140   6
   6   4   7 8.45382 2.54058   6
   6   4   7 4.77625 3.10567   9
  -6   4  -7 8.33038 2.59062   8
 -11  -5   7 122.651 7.07345   8
  11  -5  -7 126.487 7.11075   6
  11  -5  -7 123.271 7.68459   1
  11  -5  -7 123.224 7.21071  11
 -11   5   7 114.628 7.27704   3
  11   5  -7 126.400 8.19244   1
 -11   5   7 131.215 7.87815   5
  11   5  -7 118.457 8.58357   7
  11   5  -7 123.806 7.91751  11
   9  -5  -7 358.564 12.4958   1
  -9  -5   7 351.007 10.6261  12
  -9  -5   7 351.887 12.5160   1
   9  -5  -7 362.412 11.8729   6
   9  -5  -7 349.732 16.2471  13
  -9   5   7 379.347 12.4083   5
   9   5  -7 358.709 11.7351  11
   9   5  -7 356.671 13.4677   1
   9   5  -7 366.072 13.9589   7
  -9   5   7 351.491 11.9241   3
   7  -5  -7 292.570 9.52836   6
  -7  -5   7 281.550 8.63380  12
  -7  -5   7 290.237 10.5718   1
   7  -5  -7 303.663 10.8366   1
   7  -5  -7 286.949 13.1714  13
   7   5  -7 285.603 10.6362   1
  -7   5   7 284.404 9.78870   9
   7   5  -7 282.678 11.2585   7
   7   5  -7 283.762 8.86849  11
  -7   5   7 279.188 7.70108  12
  -7   5   7 277.114 9.33778   3
   5  -5  -7 1081.80 27.1324  13
   5  -5  -7 1108.78 25.0104   1
  -5  -5   7 1056.38 24.4285   1
  -5  -5   7 1053.98 21.7783  12
   5  -5  -7 1078.00 22.4192  14
  -5  -5   7 1064.72 22.5362   6
  -5   5   7 1035.18 29.0980  10
  -5   5   7 1092.82 23.5893   9
   5   5  -7 1089.11 25.3345   7
   5   5  -7 1021.25 22.2176  14
  -5   5   7 1064.48 20.9943  12
  -5   5   7 1076.14 23.9920   1
  -5   5   7 1055.98 22.4121   3
   5   5  -7 1071.60 23.9919   4
   5   5  -7 1059.40 23.5278   1
   3  -5  -7 611.211 14.4004  14
  -3  -5   7 581.077 14.7681   1
   3  -5  -7 586.876 16.5420  13
  -3  -5   7 586.338 13.7846   6
  -3  -5   7 568.685 13.1942  12
   3  -5  -7 537.871 13.0962   2
   3  -5  -7 594.345 15.6075   1
  -3   5   7 573.610 19.7599  10
  -3   5   7 566.168 12.6723  12
   3   5  -7 574.297 14.5953  14
  -3   5   7 577.497 13.6434   3
  -3   5   7 586.834 14.7370   9
   3   5  -7 574.576 15.3247   4
   3   5  -7 603.543 15.8575   7
  -3   5   7 580.797 15.5378   1
   1  -5  -7 1185.26 24.9526  14
   1  -5  -7 1147.37 23.7822   8
   1  -5  -7 1168.57 25.7980  13
   1  -5  -7 1203.35 24.9974   2
  -1  -5   7 1194.95 24.3458   1
   1  -5  -7 1179.84 25.5268   1
  -1  -5   7 1208.26 23.5864   6
  -1  -5   7 1188.03 23.8116  12
  -1   5   7 1162.00 24.3466   3
  -1   5   7 1190.97 24.8334   6
   1   5  -7 1176.30 26.3184   7
  -1   5   7 1174.85 26.7935   1
   1   5  -7 1182.93 25.8340  14
   1   5  -7 1200.57 26.4201   4
  -1   5   7 1186.86 25.8400   9
  -1   5   7 1211.92 23.7176  12
  -1   5   7 1172.31 32.5420  10
  -1  -5  -7 372.747 10.9355  14
   1  -5   7 370.399 10.1009  12
  -1  -5  -7 354.417 10.6499   8
  -1  -5  -7 369.605 11.4065   2
   1  -5   7 374.286 8.89811   6
  -1   5  -7 354.756 11.5507   7
  -1   5  -7 383.215 12.1349   2
  -1   5  -7 356.366 11.6513   4
   1   5   7 374.559 12.0504   9
   1   5   7 364.293 11.1799   6
  -1   5  -7 373.467 11.6611  14
   1   5   7 370.189 12.4045   1
  -3  -5  -7 419.758 13.1942   2
   3  -5   7 403.198 11.4249  12
  -3  -5  -7 424.927 12.1886  14
  -3  -5  -7 421.110 12.8821   8
   3  -5   7 413.722 9.06394   6
  -3   5  -7 419.020 13.1009   4
  -3   5  -7 420.086 12.8128  14
   3   5   7 407.284 12.7675   6
   3   5   7 408.652 13.7668   1
   3   5   7 418.630 14.1289   9
  -3   5  -7 417.902 13.4201   2
   5  -5   7 107.494 3.20110   6
  -5  -5  -7 121.412 6.71414   8
  -5  -5  -7 112.360 7.11999   2
   5   5   7 120.216 8.18540   9
   5   5   7 115.283 6.64395   6
   5   5   7 116.800 7.08981   1
  -5   5  -7 105.374 6.49723   2
 -10  -6   7 59.1079 4.55559  12
  10  -6  -7 64.2152 5.27874   6
  10  -6  -7 61.1135 5.69624   1
 -10  -6   7 58.4299 5.32704   8
 -10   6   7 66.7224 5.73652   5
  10   6  -7 65.8462 6.52606   1
  10   6  -7 58.8957 5.93668   7
 -10   6   7 57.0696 5.38556   3
  10   6  -7 57.0191 5.44561  11
  -8  -6   7 107.793 5.36620  12
  -8  -6   7 115.500 7.08717   1
   8  -6  -7 102.816 8.83059  13
   8  -6  -7 123.578 7.15730   1
   8  -6  -7 118.109 6.25098   6
   8   6  -7 115.614 7.71191   7
  -8   6   7 102.115 6.08436   3
   8   6  -7 101.702 5.54447  11
  -8   6   7 108.362 6.27201   9
   8   6  -7 114.497 7.11619   1
   6  -6  -7 8.91368 1.70973  14
   6  -6  -7 8.55536 2.52529   1
  -6  -6   7 14.9465 2.18757  12
   6  -6  -7 11.5221 3.21112  13
  -6  -6   7 10.6805 2.32973   1
   6   6  -7 16.7372 2.15070  11
  -6   6   7 12.4088 2.20665   3
  -6   6   7 10.7798 2.09085   1
   6   6  -7 13.3000 2.58814   1
   6   6  -7 13.7246 2.82473   7
  -6   6   7 7.77610 1.97713   9
   6   6  -7 8.41544 2.23435   4
   4  -6  -7 81.1976 6.17545  13
  -4  -6   7 75.3698 4.75006   1
   4  -6  -7 74.4432 4.43382  14
  -4  -6   7 74.1435 4.21064   6
   4  -6  -7 91.2592 5.47796   1
  -4  -6   7 75.0268 3.75398  12
  -4   6   7 74.5116 6.79632  10
   4   6  -7 73.4256 5.04987   4
  -4   6   7 79.8721 5.12439   1
  -4   6   7 79.7724 4.38908   3
  -4   6   7 77.2073 4.60966   9
   4   6  -7 76.5536 5.20191   7
   4   6  -7 79.7169 4.44616  14
  -2  -6   7 17.7046 2.14493  12
   2  -6  -7 17.2872 2.98096  13
   2  -6  -7 17.8504 2.83363   1
  -2  -6   7 16.2050 2.13198   6
  -2  -6   7 17.1588 2.52362   1
   2  -6  -7 13.7312 1.99264   2
   2  -6  -7 20.4574 2.59231  14
  -2   6   7 17.6025 1.95243  12
  -2   6   7 21.1069 2.62418   3
  -2   6   7 19.6174 3.01098   9
   2   6  -7 17.7924 3.07778   4
  -2   6   7 11.9733 3.45180  10
   2   6  -7 27.6167 3.63498   7
  -2   6   7 15.3143 2.65665   1
   2   6  -7 13.4571 2.55563  14
   0  -6   7 4.29816 1.24067   6
   0  -6  -7 0.77681 1.52940  14
   0  -6  -7 2.81705 1.34941   8
   0  -6   7 1.58231 1.16666  12
   0  -6  -7 2.90718 1.66724   2
   0  -6   7 6.34224 1.41662   1
   0   6   7 3.20459 2.66455  10
   0   6   7 0.26216 1.37775   9
   0   6  -7 1.64224 1.81055   7
   0   6   7 3.60515 1.61841   6
   0   6   7 2.28132 1.82479   1
   0   6  -7 3.00888 2.08752   4
   0   6   7 4.75955 1.44733  12
   0   6  -7 2.63153 1.76698  14
  -2  -6  -7 37.9006 3.46466  14
  -2  -6  -7 32.7622 3.97769   2
  -2  -6  -7 38.2377 3.88480   8
   2  -6   7 36.6987 2.31613   6
  -2   6  -7 32.3356 4.16647   7
   2   6   7 37.1031 4.04092   1
   2   6   7 37.8535 4.60904   9
  -2   6  -7 36.5619 4.35935   4
  -2   6  -7 39.2160 4.26366  14
   2   6   7 38.4066 3.91467   6
   4  -6   7 3.20602 0.86064   6
  -4  -6  -7 2.57458 2.09182   8
  -4  -6  -7 1.80362 1.87708  14
  -4  -6  -7 1.61622 2.17163   2
   4   6   7 2.99353 2.76885   9
   4   6   7 0.62750 1.90950   6
  -4   6  -7 1.90323 2.03265   4
  -4   6  -7 1.04970 1.82399  14
   4   6   7 4.50255 2.11532   1
   9  -7  -7 757.392 20.7352   1
  -9  -7   7 719.584 17.8167  12
  -9  -7   7 740.824 20.8602   1
  -9  -7   7 718.866 19.2790   8
   9  -7  -7 724.298 19.1224   6
  -9   7   7 738.372 19.6283   5
   9   7  -7 709.866 19.2558  11
   9   7  -7 733.183 21.8536   7
   9   7  -7 737.699 21.5149   1
   7  -7  -7 118.651 9.43734   6
   7  -7  -7 144.722 7.84418   1
  -7  -7   7 139.001 5.89198  12
  -7  -7   7 157.162 8.22307   1
   7  -7  -7 153.142 10.2757  13
   7   7  -7 147.456 8.09587   7
   7   7  -7 138.758 6.53885  11
  -7   7   7 150.699 7.12095   9
  -7   7   7 149.051 7.22370   3
   5  -7  -7 819.993 23.6582  13
  -5  -7   7 790.648 17.6154  12
   5  -7  -7 846.507 19.3733  14
   5  -7  -7 827.624 21.2525   1
  -5  -7   7 840.515 19.2848   6
  -5  -7   7 827.474 21.1235   1
   5   7  -7 837.287 21.9633   7
   5   7  -7 801.510 20.4771   4
  -5   7   7 811.616 19.5182   3
  -5   7   7 835.246 20.3739   1
  -5   7   7 806.216 25.7279  10
  -5   7   7 785.280 19.3567   9
   3  -7  -7 94.5819 6.02165   1
  -3  -7   7 89.8982 4.80758   6
   3  -7  -7 96.0916 5.37244  14
  -3  -7   7 97.7660 5.56630   1
   3  -7  -7 102.163 6.59347  13
  -3   7   7 100.138 5.30312   3
   3   7  -7 99.6516 6.07732   7
   3   7  -7 102.623 6.31276   4
  -3   7   7 112.953 6.17182   1
  -3   7   7 106.041 5.77612   9
   3   7  -7 97.4899 5.67841  14
  -3   7   7 92.2138 7.61442  10
   1  -7  -7 615.903 16.6921   1
   1  -7  -7 602.973 15.3384   2
   1  -7  -7 605.679 15.6072  14
  -1  -7   7 604.352 14.3107   6
  -1  -7   7 600.057 14.9718   1
  -1   7   7 568.800 15.3749   3
   1   7  -7 606.045 16.5616  14
  -1   7   7 602.678 16.3147   9
   1   7  -7 607.399 17.2276   4
  -1   7   7 568.911 21.2451  10
   1   7  -7 639.413 17.7231   7
  -1   7   7 597.652 17.5377   1
  -1  -7  -7 121.571 6.13001  14
  -1  -7  -7 133.828 6.85086   2
   1  -7   7 122.246 4.77190   6
  -1   7  -7 121.712 6.99126   4
   1   7   7 125.887 7.61931   1
   1   7   7 151.034 7.83738   9
   1   7   7 126.374 5.41103  12
  -1   7  -7 127.153 7.10665  14
  -1   7  -7 134.206 7.60710   7
  -3  -7  -7 454.818 13.5895   8
  -3  -7  -7 428.875 13.1220  14
  -3  -7  -7 456.858 14.3701   2
   3  -7   7 434.541 9.96869   6
  -3   7  -7 448.493 14.9858   7
   3   7   7 436.398 15.1599   9
   3   7   7 431.781 15.3312   1
   3   7   7 428.136 14.0626   6
  -3   7  -7 447.428 14.1313  14
  -3   7  -7 446.355 14.5940   4
  10  -8  -7 89.7455 6.21451   6
 -10  -8   7 87.2265 6.34087   8
  10  -8  -7 77.0411 6.32520   1
  10   8  -7 88.2531 6.58623  11
  10   8  -7 88.8318 7.04144   1
 -10   8   7 95.1739 6.86290   3
  -8  -8   7 253.893 11.3365   1
   8  -8  -7 245.444 10.7063   1
   8   8  -7 242.654 11.5788   7
   8   8  -7 232.782 9.47660  11
  -8   8   7 247.583 9.65463   5
  -8   8   7 252.702 10.2416   3
  -8   8   7 242.946 9.53120   9
   6  -8  -7 108.763 7.12172  14
   6  -8  -7 147.374 7.79554   1
   6  -8  -7 147.693 9.85893  13
  -6  -8   7 146.742 8.04044   1
  -6   8   7 135.159 6.85383   3
   6   8  -7 135.579 7.90343   7
   6   8  -7 144.683 6.49080  11
  -6   8   7 136.958 6.67857   9
   4  -8  -7 485.073 15.3523   1
   4  -8  -7 474.129 16.5503  13
  -4  -8   7 485.219 14.6996   1
  -4  -8   7 459.768 13.1487   6
  -4   8   7 469.765 14.4360   1
  -4   8   7 469.534 13.6377   3
  -4   8   7 475.986 13.7850   9
   4   8  -7 464.489 15.3897   7
   4   8  -7 485.658 14.8919   4
   2  -8  -7 357.084 11.3973  14
  -2  -8   7 363.808 10.6909   6
  -2  -8   7 366.832 11.4402   1
   2  -8  -7 364.798 12.7961   1
  -2   8   7 351.067 11.6065   9
  -2   8   7 354.913 12.8531   1
  -2   8   7 356.662 11.5811   3
   2   8  -7 377.145 13.0379   4
   2   8  -7 345.542 12.8491   7
   0  -8  -7 223.350 8.79866  14
   0  -8   7 213.413 7.30234   6
   0  -8  -7 216.643 8.45691   2
   0  -8   7 213.796 7.49520   1
   0   8  -7 205.780 9.74337   7
   0   8  -7 214.150 9.75870   4
   0   8   7 216.003 9.03753   9
   0   8   7 216.179 10.0973   1
   0   8   7 208.579 8.73262   3
  -2  -8  -7 342.951 11.4372  14
  -2  -8  -7 357.316 12.4939   2
   2  -8   7 346.458 9.21067   6
   2   8   7 351.833 13.7718   1
   2   8   7 365.905 13.3788   9
  -2   8  -7 362.556 13.3314   4
  -2   8  -7 356.088 13.5097   7
  -4  -8  -7 60.0275 4.51191  14
  -4  -8  -7 66.0806 5.45659   2
   4  -8   7 68.2140 2.96815   6
   4   8   7 72.8043 6.70624   9
  -4   8  -7 74.8820 6.23766   4
   4   8   7 68.2103 5.99422   1
  -9  -9   7 27.4499 4.10700   8
  -9  -9   7 22.5426 4.13721   1
  -9   9   7 37.6863 4.99049   3
   9   9  -7 27.4455 4.99952   7
   9   9  -7 29.0728 3.87792  11
   7  -9  -7 498.090 16.3183   1
  -7  -9   7 503.917 16.8328   1
  -7   9   7 508.665 14.9177   9
  -7   9   7 487.366 15.3194   3
   7   9  -7 482.868 16.9917   7
   7   9  -7 475.845 14.3428  11
  -5  -9   7 94.7694 5.66659   6
  -5  -9   7 94.2358 6.38401   1
   5  -9  -7 95.5223 6.98719   1
   5  -9  -7 93.2398 7.94438  13
  -5   9   7 110.217 6.19651   9
   5   9  -7 116.526 7.85233   7
   5   9  -7 99.4789 6.50420   4
  -5   9   7 90.3433 5.73211   3
  -3  -9   7 1029.27 23.6003   6
   3  -9  -7 1087.79 26.8774   1
  -3  -9   7 1073.13 25.2139   1
   3   9  -7 987.692 26.7154   7
  -3   9   7 1038.77 24.1872   9
   3   9  -7 1041.22 26.0488   4
  -3   9   7 1035.28 24.6227   3
  -1  -9   7 110.048 5.78832   1
   1  -9  -7 117.914 6.98779   1
  -1  -9   7 122.220 5.80787   6
   1  -9  -7 116.621 6.63063  14
   1   9  -7 107.783 7.37563   4
  -1   9   7 118.288 6.79869   3
  -1   9   7 118.593 6.71243   9
   1   9  -7 110.306 7.75316   7
  -1   9   7 113.721 7.44116   1
   1  -9   7 765.456 17.1103   6
  -1  -9  -7 760.447 19.5922  14
  -1   9  -7 748.266 21.9132   7
  -1   9  -7 756.621 21.4895   4
   1   9   7 723.209 20.3113   3
   1   9   7 722.972 20.0180   9
   1   9   7 714.748 21.6639   1
  -3  -9  -7 25.3669 3.55335  14
  -3  -9  -7 23.4017 3.60637   2
   3  -9   7 22.5273 2.27915   6
   3   9   7 25.3925 4.31204   9
  -3   9  -7 20.7277 3.99117   7
   3   9   7 25.7146 4.80222   1
  -3   9  -7 16.3635 3.84634   4
  -8 -10   7 3.51184 2.39716   8
   8 -10  -7 9.10693 3.21552   1
  -8 -10   7 4.32135 3.06320   1
  -8  10   7 4.29945 2.14361   3
   8  10  -7 4.99126 3.07247   7
   8  10  -7 8.97166 2.72333  11
  -6 -10   7 28.8147 4.61483   1
   6 -10  -7 34.2521 4.94981   1
  -6  10   7 24.9832 3.29040   9
  -6  10   7 27.4111 3.98232   3
   6  10  -7 28.3456 4.55679   7
  -4 -10   7 1.43553 1.37987   6
   4 -10  -7 6.51820 2.97885   1
   4 -10  -7 1.00193 2.69531  13
  -4 -10   7 -0.5563 1.89125   1
  -4  10   7 0.60827 1.86969   9
   4  10  -7 3.58802 2.05621   4
   4  10  -7 10.8903 3.65634   7
  -4  10   7 6.02205 2.55806   3
  -2 -10   7 5.55825 2.06814   6
   2 -10  -7 4.53296 2.62985   1
  -2 -10   7 5.74073 2.10053   1
   2 -10  -7 5.78473 2.52256  14
  -2  10   7 3.71323 2.37499   3
   2  10  -7 6.59868 3.16677   4
   2  10  -7 4.99438 3.09190   7
  -2  10   7 7.13131 2.81952   1
  -2  10   7 6.51043 2.08407   9
   0 -10  -7 12.7057 3.06194  14
   0 -10   7 13.5737 2.56934   6
   0  10   7 11.5848 3.28716   3
   0  10  -7 14.5650 3.53606   7
   0  10   7 16.2855 3.93367   1
   0  10   7 10.9142 2.78883   9
   0  10  -7 8.92274 3.38220   4
  -2 -10  -7 1.42726 2.20831  14
   2 -10   7 2.41754 1.47438   6
  -2 -10  -7 6.12411 2.77972   2
  -2  10  -7 6.14400 3.20353   4
  -2  10  -7 3.31119 2.91768   7
   2  10   7 4.44552 2.40374   1
   2  10   7 4.35127 2.92224   3
   2  10   7 0.61901 2.76717   9
  -5 -11   7 100.412 7.42432   1
   5 -11  -7 103.128 7.75952   1
  -5  11   7 98.5971 6.41544   3
  -3 -11   7 212.921 9.87289   1
  -3 -11   7 227.770 9.36627   6
   3 -11  -7 240.751 11.4682   1
   3  11  -7 219.719 11.5888   7
  -3  11   7 235.956 10.2114   3
   3  11  -7 211.801 10.6017   4
   1 -11  -7 40.6243 5.25076   1
  -1 -11   7 43.4693 4.13800   1
   1 -11  -7 47.1045 5.31298  14
  -1 -11   7 40.3048 3.96026   6
  -1  11   7 46.0775 5.74339   1
   1  11  -7 45.2352 6.00603   4
   1  11  -7 50.7735 6.59626   7
  -1  11   7 41.8256 5.05896   3
  12   0  -8 278.297 11.9060   1
 -12   0   8 266.189 10.8750   5
 -12   0   8 281.075 9.78255  12
  12   0  -8 284.582 11.4821  11
  10   0  -8 38.0194 4.97725   1
  10   0  -8 28.6178 3.51117  11
  10   0  -8 31.5295 5.30483  13
 -10   0   8 37.5361 3.61516  12
  -8   0   8 1280.83 27.0318   9
   8   0  -8 1209.01 31.8768  13
   8   0  -8 1286.02 27.7922   4
   8   0  -8 1288.06 29.3602   1
  -8   0   8 1290.25 26.0079  12
  -8   0   8 1240.29 27.8371   1
  -6   0   8 275.866 8.65179   9
  -6   0   8 282.848 8.18263  12
   6   0  -8 265.652 7.62488  14
   6   0  -8 261.567 9.50976   1
  -6   0   8 286.077 9.74539   1
  -6   0   8 264.683 13.2059  10
   6   0  -8 288.927 11.7416  13
   6   0  -8 285.754 9.32843   4
   4   0  -8 3149.79 57.1100   2
  -4   0   8 3198.46 59.3609   1
  -4   0   8 3161.04 57.2131   6
  -4   0   8 3041.10 66.0517  10
  -4   0   8 3171.74 57.6390   9
   4   0  -8 3244.09 57.6730  14
   4   0  -8 3097.44 58.0487   1
  -4   0   8 3103.21 56.9003  12
   4   0  -8 3173.40 58.6011   4
   4   0  -8 3155.78 61.7654  13
   2   0  -8 168.281 6.56037   2
  -2   0   8 176.688 6.12799   6
  -2   0   8 176.809 6.94977   1
   2   0  -8 166.756 6.50812  14
   2   0  -8 173.708 6.17385   7
  -2   0   8 160.363 10.1277  10
   2   0  -8 169.845 6.65928   4
  -2   0   8 169.220 6.46017   9
  -2   0   8 182.840 6.27394  12
   0   0  -8 2232.17 42.3543  14
   0   0   8 2177.57 42.6971   9
   0   0  -8 2154.06 41.9704   4
   0   0   8 2239.86 41.9030  12
   0   0   8 2096.14 52.0839  10
   0   0   8 2200.95 41.0720   6
   0   0  -8 2184.91 42.9178   2
   0   0   8 2181.00 42.2010   1
   0   0  -8 2173.65 42.7624   8
  -2   0  -8 10.1121 2.55683   2
   2   0   8 7.90632 1.73549   1
   2   0   8 6.37240 1.79565   6
  -2   0  -8 6.73666 1.98519   8
  -2   0  -8 4.57633 1.88338  14
   2   0   8 6.67828 2.11813   9
  -2   0  -8 5.39255 1.73921   4
   4   0   8 738.075 17.1195   6
  -4   0  -8 741.707 19.7151   2
  -4   0  -8 737.086 18.4031  14
  -4   0  -8 760.839 20.0732   8
   4   0   8 723.003 20.0959   9
 -11  -1   8 3.87279 2.17783  12
 -11  -1   8 5.93819 2.25289   8
  11  -1  -8 7.31906 2.72573   1
 -11  -1   8 6.43498 2.66314   5
  11  -1  -8 5.59372 2.04308  11
  11   1  -8 5.12031 2.35316   1
 -11   1   8 3.73227 2.65237   5
 -11   1   8 5.53720 2.14854  12
  11   1  -8 6.27253 2.62764  11
   9  -1  -8 166.708 8.52885   1
   9  -1  -8 151.241 9.90946  13
  -9  -1   8 176.807 6.83572  12
  -9  -1   8 157.189 7.53523   1
   9  -1  -8 173.692 7.75293   4
   9   1  -8 169.177 8.66938   1
  -9   1   8 169.587 6.40176  12
   9   1  -8 154.771 9.82594  13
  -7  -1   8 3.58187 1.77231   1
   7  -1  -8 3.20633 1.77483   4
   7  -1  -8 4.72371 2.18041  13
   7  -1  -8 11.0086 2.38395   1
  -7  -1   8 2.65481 1.13406   9
   7   1  -8 1.52921 2.25880  13
  -7   1   8 2.81836 1.36061   1
  -7   1   8 1.91440 1.21840   9
   7   1  -8 1.66245 1.62445   4
   7   1  -8 3.85104 1.91935   1
  -7   1   8 2.49440 1.11756  12
  -5  -1   8 147.335 5.47340   6
  -5  -1   8 149.358 5.60456   9
   5  -1  -8 139.304 6.34555   1
  -5  -1   8 151.948 6.78855   1
   5  -1  -8 159.711 6.69751   4
  -5  -1   8 142.386 9.17629  10
   5  -1  -8 142.284 7.67298  13
   5  -1  -8 150.303 5.60090  14
  -5  -1   8 149.754 5.48631  12
  -5   1   8 136.443 9.24196  10
  -5   1   8 146.867 6.55467   1
   5   1  -8 139.398 6.08805   1
   5   1  -8 145.988 7.80382  13
  -5   1   8 141.075 5.42296   6
   5   1  -8 152.299 6.37300   4
  -5   1   8 151.623 5.96011   9
  -5   1   8 145.420 5.31768  12
   5   1  -8 143.395 5.44703  14
   3  -1  -8 177.310 6.45382  14
  -3  -1   8 169.203 9.97347  10
   3  -1  -8 166.092 6.03402   2
   3  -1  -8 164.920 6.50551   4
  -3  -1   8 171.088 6.04800   6
  -3  -1   8 166.570 6.09867   9
  -3  -1   8 165.379 6.83343   1
   3  -1  -8 162.306 6.10623   1
   3  -1  -8 166.187 7.93294  13
  -3  -1   8 171.252 6.05430  12
   3   1  -8 163.968 6.66183   4
  -3   1   8 168.567 10.1303  10
  -3   1   8 185.990 7.29793   1
  -3   1   8 164.095 6.01614   6
  -3   1   8 168.705 5.81206  12
   3   1  -8 173.390 6.69822   7
   3   1  -8 173.726 6.48658  14
   3   1  -8 163.716 6.29256   2
  -3   1   8 162.886 6.41940   9
  -1  -1   8 9.78108 1.61602   6
   1  -1  -8 12.6539 2.11509   2
  -1  -1   8 8.99617 1.71539  12
   1  -1  -8 11.0207 2.12945  14
  -1  -1   8 10.2384 3.10954  10
  -1  -1   8 7.74615 1.65968   9
   1  -1  -8 7.36345 1.79042   4
  -1  -1   8 9.29261 1.87909   1
   1   1  -8 5.88773 1.81210   2
  -1   1   8 10.0542 3.51934  10
  -1   1   8 8.15524 2.08951   9
  -1   1   8 5.95785 1.65779  12
  -1   1   8 7.85258 1.75762   1
  -1   1   8 9.53452 1.72516   6
   1   1  -8 9.28085 1.71001   7
   1   1  -8 8.01414 2.00714  14
   1   1  -8 10.2405 2.03922   4
   1  -1   8 204.073 13.1284  10
  -1  -1  -8 217.750 8.41675   8
   1  -1   8 206.772 7.47009  12
  -1  -1  -8 206.513 8.37581   2
  -1  -1  -8 204.157 7.67103  14
   1  -1   8 210.690 7.13949   1
   1  -1   8 211.008 8.09899   9
  -1  -1  -8 209.411 7.32501   4
   1  -1   8 217.348 6.86950   6
   1   1   8 205.581 7.18476   6
  -1   1  -8 216.527 8.65662   2
   1   1   8 209.570 8.48559   9
   1   1   8 217.719 8.04955   1
  -1   1  -8 211.000 7.81640  14
   1   1   8 200.233 7.58727  12
  -1   1  -8 229.143 8.52388   8
  -1   1  -8 213.488 7.71253   4
  -3  -1  -8 23.8795 3.57843   2
  -3  -1  -8 22.5464 3.15904  14
   3  -1   8 26.6665 2.66277   6
   3  -1   8 23.8390 3.64842   9
  -3  -1  -8 18.8607 3.04638   8
   3   1   8 19.6977 2.66797   6
   3   1   8 18.7178 2.59952   1
  -3   1  -8 21.2038 3.59721   8
  -3   1  -8 16.4617 2.79772  14
  -3   1  -8 15.3157 3.15854   2
   3   1   8 14.5224 3.47177   9
   5  -1   8 26.7953 4.31984   9
   5  -1   8 22.2064 2.58054   6
  -5  -1  -8 25.8355 4.02096   2
  -5  -1  -8 20.0575 3.76525   8
   5   1   8 24.3912 4.37005   9
  -5   1  -8 18.1912 3.58956   8
   5   1   8 26.2263 3.16251   6
  -5   1  -8 33.2959 4.35827   2
 -12  -2   8 119.081 7.02975   5
  12  -2  -8 111.121 7.37951   1
  12  -2  -8 105.579 7.61550  11
 -12   2   8 122.718 7.63733   5
  12   2  -8 142.880 8.88533   1
 -10  -2   8 921.145 20.9398  12
  10  -2  -8 906.097 24.8907  11
  10  -2  -8 929.177 24.1200   1
  10  -2  -8 881.681 27.6792  13
 -10   2   8 920.902 20.3597  12
  10   2  -8 867.715 21.8369  11
  10   2  -8 911.080 24.4355   1
  -8  -2   8 115.072 6.44175   1
   8  -2  -8 111.631 8.34932  13
  -8  -2   8 117.807 5.24636  12
   8  -2  -8 120.213 6.73887   1
  -8   2   8 113.034 5.09232  12
   8   2  -8 119.048 6.01591   4
  -8   2   8 112.557 6.06235   9
  -8   2   8 145.677 6.72728   1
   8   2  -8 126.214 6.96642   1
  -6  -2   8 884.791 19.4878   6
  -6  -2   8 872.140 19.2701   9
   6  -2  -8 917.420 21.7753   1
  -6  -2   8 897.591 19.3712  12
  -6  -2   8 911.905 21.6147   1
   6  -2  -8 932.666 24.7207  13
   6  -2  -8 867.805 18.8522  14
  -6   2   8 925.128 20.5304   9
   6   2  -8 885.831 21.1629   1
  -6   2   8 909.687 19.0844  12
  -6   2   8 880.756 27.1667  10
   6   2  -8 916.150 20.9695   4
  -6   2   8 945.091 21.6642   1
  -4  -2   8 131.333 8.70651  10
   4  -2  -8 136.755 5.47282  14
  -4  -2   8 133.020 5.34024  12
   4  -2  -8 146.940 7.45105  13
   4  -2  -8 132.444 5.99696   1
  -4  -2   8 130.747 6.13229   1
   4  -2  -8 131.532 6.12723   4
   4  -2  -8 131.828 4.86883   2
  -4  -2   8 132.847 5.06590   9
   4   2  -8 129.196 6.04771   4
  -4   2   8 137.967 5.18404  12
   4   2  -8 141.216 5.72688  14
  -4   2   8 132.135 5.73989   9
  -4   2   8 138.480 5.39941   6
  -4   2   8 127.206 6.21968   1
   4   2  -8 128.664 6.10267   7
  -4   2   8 128.740 8.84618  10
   2  -2  -8 738.641 17.1397  14
  -2  -2   8 748.980 16.7228  12
   2  -2  -8 742.111 17.1664   2
  -2  -2   8 724.617 23.3951  10
   2  -2  -8 778.934 19.3465  13
  -2  -2   8 740.419 16.5680   9
  -2  -2   8 722.289 16.3058   6
  -2  -2   8 757.109 17.6507   1
   2  -2  -8 764.848 17.6777   4
   2   2  -8 752.793 17.8904   2
  -2   2   8 749.700 18.4412   1
   2   2  -8 730.294 17.3350   7
  -2   2   8 731.567 16.4337  12
   2   2  -8 751.489 17.5481  14
  -2   2   8 771.621 16.9527   6
  -2   2   8 746.941 17.7677   9
   2   2  -8 738.108 17.7275   4
  -2   2   8 723.218 23.9007  10
   0  -2   8 370.837 9.69197   6
   0  -2  -8 381.493 10.7810   4
   0  -2  -8 392.373 11.3919   8
   0  -2   8 389.794 10.4408   1
   0  -2   8 386.711 10.8464  12
   0  -2  -8 380.579 11.5915   2
   0  -2   8 359.817 10.6050   9
   0  -2  -8 384.336 11.0300  14
   0  -2   8 362.839 16.5313  10
   0   2  -8 369.606 10.4602   7
   0   2   8 382.068 10.7310  12
   0   2   8 379.664 11.9148   9
   0   2   8 391.963 11.9837   1
   0   2  -8 383.729 11.9629   2
   0   2  -8 404.715 11.5262  14
   0   2   8 380.290 17.6537  10
   0   2   8 398.634 10.9427   6
   0   2  -8 396.202 11.5434   4
  -2  -2  -8 657.505 17.2503   2
   2  -2   8 604.367 16.3461   9
   2  -2   8 638.940 14.1573   6
   2  -2   8 637.040 15.9287  12
  -2  -2  -8 615.459 15.9538  14
  -2  -2  -8 613.736 16.7266   8
  -2   2  -8 634.145 16.4161  14
   2   2   8 613.517 16.2812   1
   2   2   8 625.865 15.6781   6
  -2   2  -8 644.338 17.1040   8
  -2   2  -8 618.437 16.0785   4
  -2   2  -8 631.368 17.1210   2
   2   2   8 613.754 17.6754   9
  -4  -2  -8 360.978 11.4362  14
  -4  -2  -8 360.143 12.6297   2
  -4  -2  -8 354.176 12.6166   8
   4  -2   8 357.969 12.4298   9
   4  -2   8 362.088 9.51509   6
  -4   2  -8 359.969 11.5781  14
  -4   2  -8 354.748 12.4616   2
   4   2   8 345.012 11.2218   1
   4   2   8 355.591 11.1502   6
  -4   2  -8 388.969 12.9186   8
   4   2   8 363.293 13.6170   9
 -11  -3   8 1.91064 1.46606  12
  11  -3  -8 1.29834 2.01164  11
  11  -3  -8 2.17271 2.48230   1
 -11  -3   8 -0.3448 1.43376   8
  11   3  -8 -1.4185 1.48839   1
 -11   3   8 0.61896 2.47246   5
 -11   3   8 1.62761 1.67079  12
  11   3  -8 3.97859 2.53159  11
  -9  -3   8 77.3483 5.61728   1
   9  -3  -8 70.2477 5.43259   1
   9  -3  -8 69.6071 6.88287  13
  -9  -3   8 71.2945 4.57555  12
   9   3  -8 68.3734 5.54236   1
  -9   3   8 70.0574 4.11219  12
  -9   3   8 63.1244 5.00752   9
   7  -3  -8 13.3479 2.76997   1
  -7  -3   8 15.0250 2.31200  12
   7  -3  -8 16.2017 3.98143  13
  -7  -3   8 12.6812 2.49629   1
  -7   3   8 16.9874 2.73788   1
  -7   3   8 15.1518 2.69470   9
   7   3  -8 26.2997 3.37800   4
   7   3  -8 17.0760 3.03668   1
  -7   3   8 12.3597 1.97139  12
  -5  -3   8 15.5589 3.46796  10
  -5  -3   8 22.8571 2.61890   6
  -5  -3   8 18.9604 2.37328  12
  -5  -3   8 19.0457 2.70448   1
   5  -3  -8 17.7966 3.23421  13
   5  -3  -8 20.6008 2.90339   1
   5  -3  -8 18.8041 2.32406  14
  -5   3   8 22.5675 3.02339   9
   5   3  -8 22.0454 2.55248  14
   5   3  -8 22.9942 2.83775   1
   5   3  -8 23.8696 3.40826   7
   5   3  -8 21.4746 2.95699   4
  -5   3   8 21.5033 2.92377   1
  -5   3   8 18.5315 2.25128  12
  -5   3   8 17.4911 4.03187  10
   3  -3  -8 6.61523 1.58625  14
   3  -3  -8 7.80334 2.39240  13
   3  -3  -8 13.8294 2.12368   1
  -3  -3   8 3.33112 2.21873  10
  -3  -3   8 8.23369 1.62359  12
  -3  -3   8 4.89494 1.44444   6
  -3   3   8 8.44635 1.73890   6
  -3   3   8 5.77542 1.30006  12
   3   3  -8 7.55617 2.05390   4
  -3   3   8 9.73456 3.38183  10
  -3   3   8 6.91289 1.93891   1
   3   3  -8 15.8936 2.47246   7
   3   3  -8 7.12833 1.83819  14
  -3   3   8 8.06764 1.85940   9
  -1  -3   8 54.3782 6.07630  10
  -1  -3   8 76.9805 3.84370   6
  -1  -3   8 57.9620 3.52809  12
   1  -3  -8 62.1350 4.04489   4
   1  -3  -8 61.0997 4.18923   2
   1  -3  -8 63.9527 3.94025  14
   1  -3  -8 61.1231 4.40226  13
  -1  -3   8 62.9363 3.75999   1
   1   3  -8 56.4071 4.22947  14
  -1   3   8 56.2941 4.25764   9
  -1   3   8 58.0771 4.61169   1
   1   3  -8 62.1674 4.19504   4
  -1   3   8 56.3713 3.67869  12
  -1   3   8 54.5036 6.33659  10
  -1   3   8 53.5495 3.72532   6
   1   3  -8 62.7522 4.32456   2
   1   3  -8 64.6123 4.19514   7
  -1  -3  -8 10.2690 2.23754  14
  -1  -3  -8 11.2672 2.02844   4
  -1  -3  -8 12.1489 2.60378   2
   1  -3   8 8.93567 2.16452  12
   1  -3   8 12.2163 2.21032   9
   1  -3   8 14.4642 4.25772  10
   1  -3   8 11.6022 1.73398   1
   1  -3   8 9.43136 1.49535   6
  -1  -3  -8 10.5242 2.18356   8
   1   3   8 14.2915 2.44478   6
  -1   3  -8 14.7246 2.98787   2
   1   3   8 9.92505 2.45355   9
  -1   3  -8 17.9593 2.88328   4
   1   3   8 9.44919 2.24561  12
   1   3   8 11.1283 2.59257   1
  -1   3  -8 12.0308 2.53048  14
   3  -3   8 40.5579 3.96750  12
  -3  -3  -8 39.7658 4.33602   2
  -3  -3  -8 31.9715 4.14518   8
   3  -3   8 38.5284 2.56233   6
  -3  -3  -8 39.9630 3.92607  14
  -3   3  -8 33.3221 4.22255   2
   3   3   8 36.7734 3.67114   1
   3   3   8 37.4789 3.75809   6
  -3   3  -8 36.3163 3.88320  14
  -3   3  -8 39.2799 3.53879   4
   3   3   8 41.0479 4.79194   9
  -5  -3  -8 8.51800 3.06961   8
  -5  -3  -8 7.83566 2.89059   2
   5  -3   8 3.91684 2.02810  12
   5  -3   8 7.00870 1.36054   6
   5   3   8 6.63469 2.68129   9
   5   3   8 5.59496 2.11965   6
   5   3   8 6.25680 2.14161   1
  -5   3  -8 8.78082 2.76212   2
  -5   3  -8 3.18195 1.97474   8
  10  -4  -8 750.934 20.9847   1
 -10  -4   8 720.942 18.1069  12
 -10  -4   8 694.159 19.9006   1
 -10   4   8 753.666 20.1368   5
  10   4  -8 754.200 22.7392   7
  10   4  -8 734.396 21.5893   1
 -10   4   8 748.056 17.1945  12
   8  -4  -8 39.5223 5.94638  13
  -8  -4   8 41.0079 4.09564   1
  -8  -4   8 43.5562 3.35182  12
   8  -4  -8 41.6265 4.67183   1
   8   4  -8 57.7758 5.23494   7
   8   4  -8 43.2729 4.87191   1
  -8   4   8 39.9306 4.31211   9
  -8   4   8 40.6646 2.88051  12
  -6  -4   8 1937.84 39.8838   1
   6  -4  -8 1913.77 36.8138  14
   6  -4  -8 1945.12 40.2012   1
  -6  -4   8 1917.06 37.5057   6
  -6  -4   8 1931.26 37.0036  12
   6  -4  -8 1915.95 43.1086  13
  -6   4   8 1935.07 39.2297   1
   6   4  -8 1870.35 36.6323  14
  -6   4   8 1927.22 47.0435  10
  -6   4   8 1932.66 36.1721  12
   6   4  -8 1925.15 40.5667   7
  -6   4   8 1929.98 38.5995   9
   6   4  -8 1928.63 39.0165   4
   6   4  -8 1907.72 38.7637   1
   4  -4  -8 286.613 8.77179  14
  -4  -4   8 277.907 8.17800  12
  -4  -4   8 267.970 9.55687   1
   4  -4  -8 284.526 11.2026  13
   4  -4  -8 282.365 9.86176   1
  -4  -4   8 279.676 8.58726   6
  -4  -4   8 255.732 12.0430  10
  -4   4   8 256.469 13.0968  10
  -4   4   8 279.798 7.85149  12
   4   4  -8 260.525 9.65326   7
  -4   4   8 273.777 9.74375   1
   4   4  -8 271.882 8.84408  14
   4   4  -8 278.750 9.68214   4
  -4   4   8 277.963 9.37583   9
  -2  -4   8 1889.11 36.0165  12
  -2  -4   8 1907.80 35.9569   6
   2  -4  -8 1861.90 36.5632   2
   2  -4  -8 1841.57 37.2136   1
   2  -4  -8 1897.10 36.8751  14
  -2  -4   8 1867.91 36.9483   1
   2  -4  -8 1891.24 38.9815  13
  -2  -4   8 1770.66 43.1765  10
  -2   4   8 1844.67 36.4631   6
  -2   4   8 1878.59 37.9324   9
  -2   4   8 1827.72 38.6141   1
   2   4  -8 1874.71 37.9595   7
  -2   4   8 1776.76 45.4699  10
   2   4  -8 1935.42 37.8570  14
  -2   4   8 1930.00 35.7459  12
   2   4  -8 1921.23 38.2949   4
   0  -4   8 129.603 5.04588   6
   0  -4   8 131.900 5.26700   1
   0  -4  -8 129.642 5.99895   8
   0  -4  -8 141.695 6.72645   2
   0  -4  -8 141.975 5.98635   4
   0  -4   8 125.034 5.47223  12
   0  -4  -8 142.808 6.15554  14
   0   4   8 131.346 6.20931   6
   0   4   8 132.843 5.64839  12
   0   4   8 133.221 7.05722   1
   0   4  -8 136.726 6.45827  14
   0   4  -8 134.588 6.40459   7
   0   4  -8 145.425 6.74699   4
   0   4  -8 142.876 7.13183   2
   0   4   8 131.184 7.03343   9
   2  -4   8 646.100 13.9904   6
  -2  -4  -8 634.707 16.5736  14
  -2  -4  -8 626.157 17.2143   8
   2  -4   8 660.152 16.3175  12
  -2  -4  -8 663.206 17.7536   2
  -2   4  -8 650.470 18.0957   2
   2   4   8 651.716 18.2085   1
  -2   4  -8 629.544 17.1625  14
   2   4   8 654.365 17.1590   6
   2   4   8 664.197 18.9402   9
  -2   4  -8 655.581 17.4052   4
  -4  -4  -8 25.2769 4.00213   2
   4  -4   8 19.9552 3.02780  12
  -4  -4  -8 18.9775 3.06962  14
   4  -4   8 19.9185 1.87533   6
  -4  -4  -8 24.4991 3.64298   8
  -4   4  -8 22.9456 3.67068   2
  -4   4  -8 19.9689 3.18266  14
   4   4   8 19.3474 3.24872   1
   4   4   8 20.6824 3.41519   6
   4   4   8 15.8977 3.97352   9
 -11  -5   8 187.316 8.70859   8
 -11  -5   8 190.417 7.94875  12
  11  -5  -8 194.500 9.56774   1
 -11   5   8 194.702 9.50140   5
  11   5  -8 198.369 10.6424   1
  11   5  -8 191.704 10.6323   7
  -9  -5   8 83.8590 6.35964   1
   9  -5  -8 83.5267 6.33853   1
  -9  -5   8 83.1933 5.10255  12
   9  -5  -8 75.5483 7.58379  13
  -9   5   8 75.9201 5.29730   9
   9   5  -8 91.3455 6.82852   1
   9   5  -8 86.2819 7.24937   7
  -9   5   8 99.1654 6.96869   3
  -7  -5   8 367.002 10.5090  12
  -7  -5   8 383.045 13.0073   1
   7  -5  -8 390.607 13.2686   1
   7  -5  -8 369.919 15.2633  13
  -7   5   8 378.631 11.9816   9
   7   5  -8 372.737 13.3565   7
  -7   5   8 377.495 9.75585  12
   7   5  -8 382.428 12.6110   1
  -7   5   8 368.483 11.9050   1
   7   5  -8 380.148 12.0853   4
  -5  -5   8 133.724 6.97426   1
  -5  -5   8 134.996 5.97662   6
   5  -5  -8 144.447 7.30178   1
  -5  -5   8 126.329 5.43002  12
   5  -5  -8 142.099 8.44392  13
   5  -5  -8 139.498 5.83162  14
   5   5  -8 140.565 7.11778   7
  -5   5   8 133.568 9.47470  10
  -5   5   8 142.761 5.13318  12
  -5   5   8 148.370 7.12575   1
   5   5  -8 140.722 6.03552  14
   5   5  -8 141.275 7.01197   4
  -5   5   8 134.335 6.31072   9
   3  -5  -8 99.4978 6.39071  13
  -3  -5   8 106.048 5.45113   1
   3  -5  -8 113.315 5.94107   1
  -3  -5   8 109.211 5.05022   6
  -3  -5   8 100.746 4.76374  12
   3  -5  -8 104.036 5.35383  14
   3   5  -8 110.140 6.00227   4
   3   5  -8 103.984 6.00091   7
  -3   5   8 106.318 6.08654   1
   3   5  -8 113.087 5.82310  14
  -3   5   8 105.561 4.48272  12
  -3   5   8 108.500 5.93030   9
  -3   5   8 104.755 8.39613  10
  -1  -5   8 187.708 6.57008   6
   1  -5  -8 182.796 7.21623  14
   1  -5  -8 191.914 7.62060   2
  -1  -5   8 182.838 6.74846  12
  -1  -5   8 177.911 6.69806   1
   1   5  -8 190.440 7.89417  14
  -1   5   8 204.132 8.23597   9
  -1   5   8 187.839 8.68726   1
  -1   5   8 187.043 6.70697  12
  -1   5   8 176.793 7.18484   6
   1   5  -8 192.903 8.36678   4
   1   5  -8 198.641 8.19802   7
   1  -5   8 6.73243 1.49934   6
  -1  -5  -8 4.18871 2.06581   2
  -1  -5  -8 4.53946 1.93860   8
  -1  -5  -8 3.00805 1.89451  14
   1  -5   8 4.80366 1.69294  12
  -1   5  -8 8.29594 2.63426   4
  -1   5  -8 6.91421 2.15235   7
  -1   5  -8 5.61387 2.43315   2
  -1   5  -8 9.09366 2.54997  14
   1   5   8 4.79880 2.53081   9
   1   5   8 6.36407 1.96279  12
   1   5   8 9.42800 2.38840   6
   1   5   8 6.02193 2.51376   1
   3  -5   8 37.4786 3.78779  12
  -3  -5  -8 43.3478 3.82829  14
   3  -5   8 40.6025 2.52587   6
  -3  -5  -8 42.3027 4.85267   2
  -3  -5  -8 39.8937 4.70285   8
   3   5   8 43.0844 4.92211   1
   3   5   8 47.5457 4.56644   6
  -3   5  -8 39.5713 4.63737   2
   3   5   8 46.5678 5.67412   9
  -3   5  -8 46.1546 4.75495  14
  -3   5  -8 44.6075 4.56478   4
  10  -6  -8 59.2447 5.83181   1
 -10  -6   8 61.9101 5.48200   8
 -10  -6   8 57.6522 4.71652  12
 -10  -6   8 56.9915 5.63798   1
  10   6  -8 61.9622 6.72938   7
  10   6  -8 60.8952 5.74243   1
 -10   6   8 48.3081 6.21196   3
 -10   6   8 62.0981 5.79779   5
   8  -6  -8 901.924 28.2541  13
  -8  -6   8 872.970 20.2845  12
   8  -6  -8 882.917 23.4795   1
  -8  -6   8 906.171 23.5881   1
   8   6  -8 893.621 23.1300   1
  -8   6   8 918.204 22.2830   9
   8   6  -8 862.102 24.2623   7
  -6  -6   8 14.6853 3.12035   1
  -6  -6   8 10.5475 2.30296   6
   6  -6  -8 8.90983 3.46220  13
   6  -6  -8 6.62603 2.58082   1
   6  -6  -8 8.97152 2.04780  14
  -6  -6   8 14.6665 2.34564  12
   6   6  -8 21.7111 3.61041   7
  -6   6   8 7.59294 2.35352   1
   6   6  -8 9.08190 2.51221   4
  -6   6   8 11.1741 2.55310   9
  -6   6   8 7.76862 2.03677   3
  -4  -6   8 1012.58 22.4991   6
  -4  -6   8 1016.30 21.4710  12
  -4  -6   8 1011.41 23.9762   1
   4  -6  -8 1004.21 26.1082  13
   4  -6  -8 1064.85 24.9640   1
   4  -6  -8 1034.18 22.7904  14
  -4   6   8 1046.08 24.8471   1
   4   6  -8 1013.50 23.2670  14
  -4   6   8 1027.03 23.6261   9
   4   6  -8 1050.34 24.5968   4
  -4   6   8 901.825 22.0066   3
   4   6  -8 1041.78 25.1423   7
  -2  -6   8 13.4761 2.16341   6
  -2  -6   8 9.36935 1.92127  12
   2  -6  -8 8.25264 1.74054   2
   2  -6  -8 6.42174 2.10309  14
   2  -6  -8 9.53079 2.33942   1
  -2  -6   8 8.02045 1.79488   1
  -2   6   8 11.9576 2.82059   9
  -2   6   8 6.91965 1.64465  12
  -2   6   8 20.2892 3.53674   1
   2   6  -8 11.9704 2.93418   7
   2   6  -8 6.94324 2.06540  14
   2   6  -8 7.39062 2.52534   4
   0  -6  -8 990.703 22.7628  14
   0  -6  -8 928.396 21.5995   8
   0  -6  -8 975.201 22.0339   4
   0  -6   8 979.802 20.7089   6
   0  -6  -8 996.511 23.2080   2
   0   6   8 1001.98 24.3069   9
   0   6   8 988.226 21.4544  12
   0   6   8 949.330 22.7498   6
   0   6   8 990.088 25.2885   1
   0   6  -8 994.100 24.2226   7
   0   6  -8 988.380 24.3356   4
   0   6  -8 1041.42 24.1961  14
  -2  -6  -8 53.6773 4.65058  14
  -2  -6  -8 56.2206 5.13352   2
  -2  -6  -8 61.1937 4.86365   8
   2  -6   8 52.1561 2.99640   6
   2   6   8 52.1120 4.78262   6
   2   6   8 56.7583 4.30768  12
   2   6   8 57.6761 6.07912   9
   2   6   8 53.1800 4.97069   1
  -2   6  -8 46.6817 4.71913   7
  -2   6  -8 51.8402 5.09268  14
  -2   6  -8 50.9853 4.70960   4
   4  -6   8 582.875 12.3861   6
  -4  -6  -8 616.611 17.6828   8
  -4  -6  -8 593.675 16.1777  14
  -4  -6  -8 581.600 17.7397   2
   4   6   8 633.498 18.7690   1
  -4   6  -8 614.641 17.1628  14
   4   6   8 587.409 19.2820   9
   9  -7  -8 5.31086 2.80495   1
  -9  -7   8 4.26071 2.14535  12
  -9  -7   8 4.37595 2.69583   1
  -9   7   8 3.42021 2.63801   5
   9   7  -8 12.4753 3.93017   7
  -9   7   8 3.64104 2.24839   3
  -7  -7   8 34.8128 3.37956  12
  -7  -7   8 51.4349 4.96586   1
   7  -7  -8 42.3092 6.03357  13
   7  -7  -8 35.3956 4.70233   1
   7   7  -8 33.1908 4.68072   7
  -7   7   8 41.2770 4.28019   9
  -7   7   8 37.7480 4.22260   3
   5  -7  -8 6.19849 2.24397   1
   5  -7  -8 6.96495 2.61495  13
  -5  -7   8 8.18518 1.81625  12
  -5  -7   8 5.39800 2.37868   1
   5  -7  -8 6.59836 2.04863  14
  -5  -7   8 6.66883 2.05535   6
  -5   7   8 13.2616 3.00838   1
  -5   7   8 4.58974 2.34158   9
   5   7  -8 8.24384 2.94931   7
   5   7  -8 5.32922 2.37905   4
  -5   7   8 5.25911 1.87399   3
   3  -7  -8 26.0108 3.41164  14
   3  -7  -8 28.9614 3.95096   1
  -3  -7   8 26.3767 3.14762   6
  -3  -7   8 25.4105 3.42489   1
   3  -7  -8 26.4175 4.07377  13
  -3   7   8 27.9384 3.73617   1
   3   7  -8 27.9850 3.84299   7
   3   7  -8 39.0183 4.19131  14
  -3   7   8 25.5113 3.40122   9
   3   7  -8 22.5459 3.82802   4
  -3   7   8 31.2041 3.53866   3
  -1  -7   8 121.127 5.37660   6
   1  -7  -8 121.815 6.42092  14
  -1  -7   8 118.736 5.60136   1
   1  -7  -8 119.437 6.16225   2
   1   7  -8 118.689 7.19917   4
  -1   7   8 114.150 6.58674   9
   1   7  -8 112.618 7.21243   7
  -1   7   8 105.902 6.66235   3
  -1   7   8 114.815 7.43746   1
   1   7  -8 115.593 6.94513  14
  -1  -7  -8 11.2645 2.76856   2
  -1  -7  -8 13.6601 2.59579  14
   1  -7   8 14.2595 2.05398   6
  -1   7  -8 14.3298 3.06468   4
  -1   7  -8 18.5663 3.62721  14
   1   7   8 11.0460 2.02803  12
  -1   7  -8 8.62327 2.83032   7
   1   7   8 12.3804 3.49808   9
   1   7   8 12.8264 3.50877   1
   3  -7   8 84.7053 3.59341   6
  -3  -7  -8 89.0137 5.97915  14
  -3  -7  -8 83.7620 6.53476   2
  -3  -7  -8 76.2757 5.72865   8
   3   7   8 82.7232 5.34781  12
  -3   7  -8 89.5489 6.55116   4
   3   7   8 89.6654 7.01327   1
   3   7   8 80.8204 7.16415   9
  -3   7  -8 90.4453 6.36128  14
   8  -8  -8 482.291 16.0702   1
  -8  -8   8 454.179 15.8955   1
   8   8  -8 438.068 16.5292   7
  -8   8   8 465.549 14.6123   9
   6  -8  -8 184.194 9.56987   1
  -6  -8   8 189.688 9.40900   1
   6  -8  -8 182.674 11.1065  13
   6  -8  -8 150.170 8.31286  14
   6   8  -8 200.197 10.0317   7
   6   8  -8 179.906 8.64237   4
  -6   8   8 195.330 8.65362   9
  -6   8   8 186.725 7.94730   3
  -4  -8   8 762.302 20.3886   1
   4  -8  -8 793.654 21.5251   1
   4  -8  -8 753.815 22.5910  13
   4  -8  -8 760.351 19.3264  14
  -4  -8   8 751.230 18.9107   6
  -4   8   8 782.776 19.9343   9
   4   8  -8 781.107 21.7204   7
  -4   8   8 769.464 20.7907   1
   4   8  -8 768.317 20.9074   4
  -4   8   8 748.480 19.0347   3
   2  -8  -8 255.101 10.6715   1
   2  -8  -8 252.137 9.78587  14
  -2  -8   8 286.545 9.80709   1
  -2  -8   8 264.806 9.09570   6
  -2   8   8 266.226 10.4131   9
  -2   8   8 243.107 9.44712   3
   2   8  -8 256.342 11.3028   7
   2   8  -8 274.837 11.1141   4
  -2   8   8 265.917 11.4941   1
   0  -8  -8 484.817 14.3441  14
   0  -8  -8 448.140 13.9351   2
   0  -8   8 465.105 12.2612   6
   0   8  -8 464.714 15.7094   7
   0   8   8 486.542 15.5213   9
   0   8  -8 466.504 15.0967  14
   0   8   8 436.669 14.1311   3
   0   8  -8 491.450 16.0172   4
   0   8   8 472.254 16.2958   1
  -2  -8  -8 113.277 6.74333  14
   2  -8   8 115.714 4.77038   6
  -2  -8  -8 121.640 7.32760   2
  -2   8  -8 113.317 7.66316   4
   2   8   8 125.654 8.50789   1
  -2   8  -8 115.770 7.70620   7
   2   8   8 111.576 7.47162   9
  -7  -9   8 -1.3321 2.14375   1
   7  -9  -8 2.40375 2.65949   1
   7   9  -8 2.22815 2.87867   7
  -7   9   8 0.82579 2.00430   3
  -7   9   8 3.80395 2.46890   9
  -5  -9   8 30.6097 4.30754   1
   5  -9  -8 35.0565 4.15252  14
  -5  -9   8 27.5799 3.60642   6
   5  -9  -8 39.9140 5.16007   1
   5   9  -8 40.3506 5.08412   4
  -5   9   8 33.2808 4.17184   3
  -5   9   8 32.1087 4.02674   9
   5   9  -8 35.5260 5.12773   7
  -3  -9   8 30.2841 3.68112   6
   3  -9  -8 30.4240 4.20133   1
  -3  -9   8 28.4159 3.72083   1
   3  -9  -8 27.8441 3.92618  14
  -3   9   8 28.0002 3.86573   3
  -3   9   8 30.3856 4.14447   9
  -3   9   8 22.7556 3.91865   1
   3   9  -8 31.0652 4.84614   4
   3   9  -8 29.6361 4.76990   7
  -1  -9   8 19.9914 2.83079   6
   1  -9  -8 16.3826 3.26488  14
  -1  -9   8 17.5966 2.77442   1
  -1   9   8 18.3140 3.53876   1
   1   9  -8 13.3670 3.62152   7
  -1   9   8 21.6945 3.71421   9
  -1   9   8 14.4321 3.22727   3
   1   9  -8 17.0093 3.87902   4
  -1  -9  -8 60.7181 4.91918   2
   1  -9   8 59.0732 3.81096   6
  -1  -9  -8 55.3607 5.21022  14
  -1   9  -8 55.6408 5.67766   7
   1   9   8 57.8219 5.89704   9
   1   9   8 68.0548 6.77092   1
  -1   9  -8 53.3368 5.92976   4
  -6 -10   8 470.522 16.3249   1
   6 -10  -8 450.632 16.1451   1
   6  10  -8 444.111 16.6613   7
  -6  10   8 429.189 14.1514   3
  -6  10   8 459.938 14.4187   9
   4 -10  -8 14.7925 3.24849   1
  -4 -10   8 18.2357 3.22609   1
  -4 -10   8 16.7407 3.09875   6
   4 -10  -8 8.59629 2.72499  14
  -4  10   8 12.2145 2.88057   9
   4  10  -8 13.7565 3.81907   7
  -4  10   8 11.2925 2.87287   3
   4  10  -8 15.6537 3.33769   4
  -2 -10   8 513.811 15.1646   1
  -2 -10   8 516.669 14.7513   6
   2 -10  -8 513.909 15.7869  14
   2 -10  -8 504.786 16.9182   1
  -2  10   8 490.917 15.6844   3
  -2  10   8 499.709 15.5653   9
   2  10  -8 512.163 18.0156   7
  -2  10   8 507.383 17.1249   1
   2  10  -8 555.066 18.0026   4
   0 -10  -8 7.64127 2.68554  14
   0 -10   8 8.86155 2.24301   6
   0  10   8 8.59730 3.31527   1
   0  10   8 4.71566 2.70283   9
   0  10   8 9.80641 3.12766   3
   0  10  -8 13.1153 3.87498   4
   0  10  -8 11.6121 3.69884   7
   3 -11  -8 31.9991 4.07332  14
   3 -11  -8 27.9029 4.41963   1
  -3 -11   8 26.3777 3.56235   6
  -3 -11   8 29.9769 4.11501   1
   3  11  -8 27.4100 4.55620   7
  -3  11   8 25.3365 3.75381   3
   3  11  -8 32.0651 4.65790   4
 -12   0   9 0.09597 2.41136   5
  12   0  -9 -0.1400 2.47634   1
 -12   0   9 1.96011 2.01924  12
 -10   0   9 1.48740 1.80159  12
  10   0  -9 -0.0584 2.75671  13
  10   0  -9 1.11476 2.34402   1
   8   0  -9 1.40981 1.53122   1
  -8   0   9 -0.4588 1.35963  12
   8   0  -9 0.66823 1.28618   4
   8   0  -9 0.15595 2.44671  13
  -8   0   9 1.02588 1.59206   9
  -8   0   9 -1.0857 1.48597   1
  -6   0   9 13.6530 2.40719   9
  -6   0   9 1.92385 1.78041   1
   6   0  -9 -0.0260 1.00746   1
   6   0  -9 2.02624 1.77671   4
  -6   0   9 2.21588 1.43847  12
  -6   0   9 -0.6343 2.20415  10
   6   0  -9 3.56203 2.05161  13
   6   0  -9 0.82737 0.79916  14
   4   0  -9 -0.2011 1.39816   4
  -4   0   9 2.33050 1.48669  12
   4   0  -9 1.82080 1.50865   7
  -4   0   9 1.39443 1.36679   9
  -4   0   9 0.72712 1.25764   6
   4   0  -9 6.38034 1.50713   2
  -4   0   9 1.51599 1.53892   1
  -4   0   9 3.51901 2.67635  10
   4   0  -9 -0.1832 1.23864  14
  -2   0   9 3.94926 1.74803  12
   2   0  -9 -0.3549 0.86048   2
  -2   0   9 -0.2859 1.10591   6
  -2   0   9 0.38549 1.71039  10
   2   0  -9 4.96579 1.80072  14
  -2   0   9 -0.5643 1.36921   9
   2   0  -9 0.19934 1.00703   7
  -2   0   9 1.10753 1.04696   1
   2   0  -9 4.74547 1.86954   4
   0   0  -9 0.19587 1.44067  14
   0   0   9 -0.8602 1.60478   9
   0   0   9 -0.7551 1.19736   6
   0   0  -9 1.25721 1.54681   4
   0   0  -9 -0.3274 1.60845   2
   0   0   9 1.03365 1.22399  12
   0   0   9 -0.4881 1.15355   1
   2   0   9 7.29897 2.35176  12
  -2   0  -9 1.26912 1.93247   2
  -2   0  -9 -0.5518 1.12602  14
  -2   0  -9 -0.2516 2.06197   8
   2   0   9 0.79012 1.21314   1
   2   0   9 2.05859 2.17580   9
   2   0   9 0.83350 1.30794   6
   4   0   9 -2.1765 2.23789   9
  -4   0  -9 1.24387 2.11038   2
  -4   0  -9 1.88593 1.49268  14
  -4   0  -9 0.35007 1.62262   8
   4   0   9 1.94152 1.65270   6
 -11  -1   9 241.954 9.04521  12
  11  -1  -9 249.419 11.2290   1
 -11  -1   9 241.300 9.22880   8
  11   1  -9 247.608 11.5476   1
 -11   1   9 240.956 10.3602   5
 -11   1   9 253.589 8.95492  12
   9  -1  -9 394.967 16.8654  13
   9  -1  -9 440.737 14.5909   1
  -9  -1   9 422.481 11.8941  12
   9  -1  -9 403.420 13.2274   4
  -9  -1   9 410.364 13.5100   1
  -9   1   9 406.349 13.1731   1
  -9   1   9 423.580 12.9018   9
   9   1  -9 408.693 12.9171   4
  -9   1   9 408.818 11.4244  12
   9   1  -9 383.186 16.4050  13
   9   1  -9 416.640 14.4932   1
   7  -1  -9 440.691 16.4675  13
  -7  -1   9 458.282 12.4595   9
  -7  -1   9 459.981 14.1260   1
  -7  -1   9 460.116 12.1051  12
   7  -1  -9 449.087 14.0584   1
   7  -1  -9 446.919 13.6507   4
  -7   1   9 443.313 12.8069   9
   7   1  -9 431.428 16.3012  13
   7   1  -9 463.703 14.0004   1
  -7   1   9 437.739 11.7408  12
   7   1  -9 456.356 13.4725   4
  -7   1   9 456.005 14.0452   1
   5  -1  -9 676.457 19.8949  13
   5  -1  -9 673.068 15.3280   2
   5  -1  -9 689.467 17.4799   4
   5  -1  -9 660.943 17.0954   1
   5  -1  -9 684.354 16.1175  14
  -5  -1   9 652.254 22.7916  10
  -5  -1   9 688.229 17.9666   1
  -5  -1   9 678.507 16.1176   9
  -5  -1   9 701.313 16.0131  12
  -5  -1   9 686.654 16.1158   6
  -5   1   9 700.648 16.8462   9
   5   1  -9 697.485 17.4690   4
  -5   1   9 688.497 16.1339   6
  -5   1   9 705.863 15.8204  12
   5   1  -9 612.456 16.6253   1
  -5   1   9 656.219 23.3853  10
  -5   1   9 683.578 17.9897   1
   5   1  -9 682.976 16.1614  14
  -3  -1   9 607.622 14.5153  12
   3  -1  -9 605.214 15.1009  14
  -3  -1   9 577.404 14.4675   9
  -3  -1   9 567.353 21.3075  10
  -3  -1   9 586.816 14.3784   6
   3  -1  -9 575.022 14.4319   7
   3  -1  -9 569.720 14.5437   2
   3  -1  -9 573.729 15.1991   4
  -3  -1   9 579.410 15.6812   1
   3   1  -9 588.286 15.1059   7
   3   1  -9 578.123 14.9214   2
   3   1  -9 573.436 15.3204   4
  -3   1   9 570.473 14.9114   9
  -3   1   9 558.814 15.7639   1
   3   1  -9 595.935 15.0641  14
  -3   1   9 607.105 14.6152   6
  -3   1   9 588.357 14.2713  12
  -3   1   9 547.406 21.3183  10
   1  -1  -9 461.049 12.8977  14
  -1  -1   9 407.884 21.6886  10
  -1  -1   9 435.765 11.7089   6
   1  -1  -9 447.339 13.1115   2
   1  -1  -9 450.688 12.7043   4
  -1  -1   9 436.742 12.6168   9
  -1  -1   9 450.507 12.3653  12
  -1  -1   9 452.776 12.7386   1
  -1   1   9 443.662 12.0866   6
   1   1  -9 441.534 12.8099  14
   1   1  -9 439.182 12.7185   4
  -1   1   9 450.081 13.3332   1
  -1   1   9 453.984 13.4569   9
   1   1  -9 445.514 13.3671   2
  -1   1   9 447.869 12.2547  12
  -1  -1  -9 435.423 12.3813   4
   1  -1   9 431.783 13.4995   9
  -1  -1  -9 447.105 12.9460  14
   1  -1   9 445.051 11.8512   6
   1  -1   9 439.324 12.7068  12
  -1  -1  -9 451.793 13.8904   8
   1  -1   9 436.731 12.0304   1
  -1  -1  -9 423.818 13.4950   2
   1   1   9 435.872 12.9383   1
  -1   1  -9 454.676 14.1563   2
   1   1   9 452.144 12.4936   6
  -1   1  -9 459.677 13.1673   4
   1   1   9 445.439 14.2155   9
  -1   1  -9 429.047 13.0640  14
   1   1   9 440.237 12.9533  12
   3  -1   9 167.488 6.44046   6
   3  -1   9 168.021 7.67143  12
  -3  -1  -9 170.057 8.58664   8
  -3  -1  -9 158.714 7.98572   2
  -3  -1  -9 163.497 7.64312  14
   3  -1   9 153.447 8.26565   9
   3   1   9 163.791 8.82974   9
   3   1   9 153.212 6.98757   1
  -3   1  -9 165.635 8.46177   8
  -3   1  -9 162.605 8.37784   2
   3   1   9 159.556 6.88962   6
  -3   1  -9 159.837 7.63589  14
  12  -2  -9 94.4022 7.36126   1
 -12  -2   9 92.2812 5.52029  12
 -12  -2   9 90.1840 6.32799   5
 -12   2   9 85.4549 5.34393  12
  12   2  -9 92.2058 7.15698   1
 -12   2   9 80.9373 6.57355   5
  10  -2  -9 92.0510 7.03497   1
 -10  -2   9 91.0638 5.99035   1
  10  -2  -9 74.2079 5.87552   4
 -10  -2   9 81.5685 5.26111  12
  10   2  -9 86.7028 6.93223   1
 -10   2   9 90.2737 5.10104  12
   8  -2  -9 148.671 7.67471   4
   8  -2  -9 157.365 9.73766  13
  -8  -2   9 162.562 6.68947  12
  -8  -2   9 156.509 7.73149   1
   8  -2  -9 161.679 8.35841   1
  -8   2   9 152.458 7.19560   9
  -8   2   9 147.759 7.25652   1
   8   2  -9 167.554 8.24908   1
   8   2  -9 153.142 7.40128   4
  -8   2   9 175.334 6.52034  12
   6  -2  -9 195.509 6.96768  14
  -6  -2   9 197.246 6.96958   9
   6  -2  -9 202.353 8.58603   1
   6  -2  -9 194.548 9.99216  13
  -6  -2   9 182.523 11.3906  10
   6  -2  -9 189.031 8.23111   4
  -6  -2   9 202.360 8.74132   1
  -6  -2   9 196.455 7.26697   6
  -6  -2   9 202.728 7.22886  12
   6   2  -9 197.377 8.84924   7
  -6   2   9 192.145 7.70519   9
   6   2  -9 204.421 8.33965   4
   6   2  -9 188.523 6.77948  14
  -6   2   9 195.563 8.36670   1
  -6   2   9 204.430 6.92289  12
   6   2  -9 198.609 7.91008   1
  -4  -2   9 161.208 6.34475   6
  -4  -2   9 165.985 7.49979   1
   4  -2  -9 154.899 5.95968   2
  -4  -2   9 154.642 5.98198   9
  -4  -2   9 157.671 6.13761  12
   4  -2  -9 153.815 6.57194   1
   4  -2  -9 162.683 8.52521  13
   4  -2  -9 158.369 7.11622   4
  -4  -2   9 155.624 10.1464  10
   4  -2  -9 165.558 6.62873  14
  -4   2   9 141.715 10.3954  10
  -4   2   9 153.933 6.91047   9
   4   2  -9 163.623 6.80704  14
   4   2  -9 147.254 6.90254   4
  -4   2   9 158.836 5.98298  12
  -4   2   9 169.017 7.54940   1
  -4   2   9 158.857 6.34666   6
   4   2  -9 153.742 7.18378   7
  -2  -2   9 220.087 8.24368   1
  -2  -2   9 223.999 7.75402   9
   2  -2  -9 232.708 8.43992   4
   2  -2  -9 231.970 8.29445  14
  -2  -2   9 226.945 13.0373  10
   2  -2  -9 232.058 8.27486   2
  -2  -2   9 219.775 7.82516  12
  -2  -2   9 221.350 7.56079   6
  -2   2   9 224.509 7.89679   6
   2   2  -9 233.805 8.54639  14
   2   2  -9 211.120 7.95588   7
  -2   2   9 221.323 7.69622  12
  -2   2   9 224.028 8.77691   9
  -2   2   9 222.784 8.98306   1
   2   2  -9 224.966 8.58221   2
   2   2  -9 220.241 8.34112   4
   0  -2  -9 161.710 6.93937  14
   0  -2   9 162.425 6.19745   6
   0  -2  -9 149.557 7.20724   8
   0  -2  -9 163.267 6.68251   4
   0  -2   9 149.625 6.80664   9
   0  -2   9 159.032 6.72469  12
   0  -2  -9 161.249 7.53771   2
   0  -2   9 153.454 6.35623   1
   0   2  -9 163.539 8.04960   2
   0   2  -9 157.906 7.25368   4
   0   2   9 151.294 6.66131   6
   0   2   9 156.729 6.86301  12
   0   2  -9 160.112 7.26428  14
   0   2   9 168.819 7.51965   1
   0   2   9 153.221 7.51061   9
   2  -2   9 106.191 6.44850   9
  -2  -2  -9 113.321 6.83203   8
   2  -2   9 106.562 4.99979   6
  -2  -2  -9 114.003 6.56710   2
  -2  -2  -9 112.069 6.00716  14
   2  -2   9 111.501 6.15748  12
  -2   2  -9 115.068 6.24630   4
   2   2   9 121.431 6.16068   6
  -2   2  -9 114.867 6.47193  14
   2   2   9 113.156 6.33281   1
   2   2   9 107.556 5.95822  12
  -2   2  -9 111.015 6.94314   2
   2   2   9 117.041 7.51923   9
  -4  -2  -9 106.995 6.65666   2
  -4  -2  -9 102.903 7.01532   8
   4  -2   9 102.236 5.89395  12
   4  -2   9 99.2597 4.66034   6
   4  -2   9 94.6361 6.63435   9
   4   2   9 109.178 6.07835   6
  -4   2  -9 89.1392 5.53905  14
   4   2   9 98.5539 7.48429   9
  -4   2  -9 96.0012 6.34659   2
 -11  -3   9 16.1782 3.05219  12
 -11  -3   9 18.1340 3.33140   8
  11  -3  -9 23.7008 4.35744   1
  11   3  -9 20.4018 4.13014   1
 -11   3   9 23.0679 4.05369   5
 -11   3   9 25.5804 3.18020  12
   9  -3  -9 863.359 27.9146  13
   9  -3  -9 921.600 24.1674   1
  -9  -3   9 897.547 20.8616  12
  -9  -3   9 897.272 23.3235   1
   9   3  -9 918.451 23.9678   1
  -9   3   9 921.916 20.0862  12
  -9   3   9 894.772 22.2266   9
   7  -3  -9 20.0911 3.45970   1
   7  -3  -9 23.3176 4.64307  13
  -7  -3   9 25.4730 3.11547  12
  -7  -3   9 18.3620 3.28437   1
   7   3  -9 17.8540 3.54990   7
  -7   3   9 18.6443 2.32135  12
  -7   3   9 18.4155 3.12841   9
   7   3  -9 17.5976 2.86647   1
   7   3  -9 14.0832 2.83728   4
  -7   3   9 17.8845 2.87682   1
   5  -3  -9 1361.33 30.1493   1
  -5  -3   9 1391.69 28.4757   6
  -5  -3   9 1368.03 30.3502   1
   5  -3  -9 1347.01 32.6900  13
   5  -3  -9 1376.90 28.3035  14
  -5  -3   9 1342.58 27.8426  12
  -5  -3   9 1255.37 35.4298  10
  -5   3   9 1394.82 27.5418  12
  -5   3   9 1441.44 30.9797   1
  -5   3   9 1377.11 29.3747   9
   5   3  -9 1425.07 30.9250   7
   5   3  -9 1328.78 29.5430   4
   5   3  -9 1384.40 28.5801  14
   3  -3  -9 73.8465 4.29179   2
   3  -3  -9 79.0308 5.81174  13
   3  -3  -9 81.8292 4.82707  14
  -3  -3   9 73.4930 4.33611   6
  -3  -3   9 79.1907 4.33059  12
   3  -3  -9 77.2268 5.07149   4
  -3  -3   9 82.9372 5.12854   1
  -3   3   9 84.5263 4.47158  12
   3   3  -9 82.2633 5.19000   7
  -3   3   9 76.9346 5.19819   9
  -3   3   9 79.2876 5.52305   1
  -3   3   9 77.3177 4.59069   6
   3   3  -9 80.3510 5.32171   4
   3   3  -9 81.8091 5.08631  14
   1  -3  -9 1186.89 25.8661   4
  -1  -3   9 1181.37 25.4755   1
  -1  -3   9 1184.89 24.6681   6
   1  -3  -9 1203.70 26.0585  14
   1  -3  -9 1184.16 26.4288   2
  -1  -3   9 1156.40 25.3546  12
   1   3  -9 1191.73 26.5302  14
   1   3  -9 1192.98 26.8374   4
  -1   3   9 1172.27 27.1340   9
  -1   3   9 1203.86 27.6742   1
   1   3  -9 1175.31 27.2825   2
  -1   3   9 1198.49 25.9218   6
  -1   3   9 1225.00 25.5067  12
   1   3  -9 1175.20 25.9539   7
   1  -3   9 124.029 5.28013   6
  -1  -3  -9 140.033 7.27985   2
   1  -3   9 127.079 6.40536  12
  -1  -3  -9 130.306 6.92623   8
  -1  -3  -9 121.798 6.44255  14
  -1   3  -9 122.029 7.18695   2
  -1   3  -9 119.095 6.64448   4
   1   3   9 123.546 6.81687   1
  -1   3  -9 120.383 6.38661  14
   1   3   9 126.399 6.48793   6
   1   3   9 123.595 7.62082   9
   1   3   9 124.268 6.38051  12
   3  -3   9 483.421 11.8551   6
  -3  -3  -9 485.874 15.5213   2
  -3  -3  -9 478.129 14.1221  14
  -3  -3  -9 500.398 15.5780   8
   3  -3   9 472.467 13.8335  12
  -3   3  -9 483.340 15.3735   2
   3   3   9 486.596 14.8138   1
   3   3   9 470.632 16.5813   9
   3   3   9 517.495 14.7061   6
  -3   3  -9 468.447 14.4405  14
 -10  -4   9 101.801 7.08729   1
  10  -4  -9 101.220 6.96138   1
 -10  -4   9 101.564 5.58273  12
  10   4  -9 106.587 7.24859   1
  10   4  -9 105.809 8.39230   7
 -10   4   9 100.749 4.93526  12
  -8  -4   9 244.376 10.5369   1
   8  -4  -9 221.439 12.4724  13
  -8  -4   9 223.115 8.28887  12
   8  -4  -9 238.261 10.5333   1
   8   4  -9 235.588 11.0573   7
  -8   4   9 241.418 9.42146   9
   8   4  -9 233.112 9.12205   4
  -8   4   9 233.150 7.57631  12
  -8   4   9 219.396 9.43407   1
   8   4  -9 246.132 10.3135   1
  -6  -4   9 296.872 9.61633   6
   6  -4  -9 288.256 12.7031  13
  -6  -4   9 292.307 9.22254  12
  -6  -4   9 306.720 11.2948   1
   6  -4  -9 297.097 9.30387  14
   6  -4  -9 297.198 11.0720   1
  -6   4   9 293.565 10.8386   1
   6   4  -9 280.434 9.08823  14
   6   4  -9 303.892 10.6582   4
   6   4  -9 288.883 11.2290   7
  -6   4   9 302.767 8.80688  12
  -6   4   9 292.566 10.2889   9
   4  -4  -9 186.790 9.15155  13
  -4  -4   9 192.308 8.04186   1
  -4  -4   9 197.612 7.30715   6
  -4  -4   9 184.241 6.86681  12
   4  -4  -9 192.006 7.48849  14
   4  -4  -9 189.360 8.13755   1
  -4   4   9 186.549 6.63518  12
   4   4  -9 191.388 7.73679  14
  -4   4   9 180.108 8.04676   9
  -4   4   9 201.856 8.76037   1
   4   4  -9 185.442 8.42403   7
   4   4  -9 196.098 8.24023   4
  -2  -4   9 295.163 9.68082   1
   2  -4  -9 294.270 10.0061   4
  -2  -4   9 293.839 9.06686   6
   2  -4  -9 289.162 9.60723  14
   2  -4  -9 269.329 9.37430   2
  -2  -4   9 299.090 9.29573  12
   2  -4  -9 263.256 12.4333  13
  -2   4   9 272.780 10.4469   9
   2   4  -9 290.217 10.6098   4
  -2   4   9 287.062 8.92991  12
  -2   4   9 283.391 10.8847   1
   2   4  -9 271.507 10.0305   7
   2   4  -9 284.602 10.1900  14
  -2   4   9 281.583 9.46776   6
   0  -4  -9 115.588 6.22791   2
   0  -4  -9 111.176 5.71633   4
   0  -4   9 110.287 5.04523   1
   0  -4  -9 109.136 5.80893   8
   0  -4   9 108.911 4.95121   6
   0  -4   9 109.183 5.70192  12
   0  -4  -9 114.505 5.89031  14
   0   4   9 119.671 7.36810   9
   0   4  -9 114.012 6.66863   2
   0   4   9 114.445 5.88734  12
   0   4  -9 109.765 5.94290   7
   0   4   9 103.454 5.88369   6
   0   4  -9 116.315 6.72108   4
   0   4  -9 124.396 6.70919  14
   0   4   9 107.547 6.64993   1
  -2  -4  -9 75.4495 5.01665  14
  -2  -4  -9 71.7696 5.81235   2
   2  -4   9 68.4911 3.65420   6
   2  -4   9 67.7546 5.01613  12
  -2  -4  -9 67.3595 5.49508   8
  -2   4  -9 73.7704 5.13279  14
   2   4   9 64.0868 6.64509   9
  -2   4  -9 77.8489 6.10214   2
  -2   4  -9 69.9675 5.45615   4
   2   4   9 73.2332 5.44355   1
   2   4   9 72.6122 5.24987  12
   2   4   9 75.3315 5.37176   6
  -4  -4  -9 39.1793 4.05905  14
  -4  -4  -9 37.3489 4.77533   8
   4  -4   9 38.6187 3.85585  12
  -4  -4  -9 43.6980 4.79804   2
   4  -4   9 46.8743 2.95288   6
   4   4   9 53.3511 4.98620   6
  -4   4  -9 42.6666 4.52201  14
  -4   4  -9 49.0160 4.72457   2
   4   4   9 47.8559 4.71472   1
 -11  -5   9 214.450 8.86816  12
 -11  -5   9 214.520 9.31714   8
  11  -5  -9 211.937 10.3639   1
  11   5  -9 220.693 12.0378   7
 -11   5   9 227.127 10.4446   5
  11   5  -9 216.543 10.9021   1
  -9  -5   9 313.492 10.2682  12
  -9  -5   9 337.902 12.9823   1
   9  -5  -9 319.158 12.6770   1
   9   5  -9 330.343 12.9259   1
   9   5  -9 319.278 13.7080   7
  -9   5   9 303.207 11.4879   9
  -7  -5   9 527.482 16.3634   1
   7  -5  -9 506.318 18.6753  13
  -7  -5   9 529.948 13.8642  12
   7  -5  -9 533.376 16.6533   1
  -7   5   9 531.599 12.7946  12
  -7   5   9 524.887 15.5989   1
  -7   5   9 511.762 15.1938   9
   7   5  -9 505.145 16.9160   7
   7   5  -9 521.057 15.5083   4
   5  -5  -9 440.071 15.9945  13
   5  -5  -9 444.337 12.5471  14
  -5  -5   9 448.345 12.6935   6
   5  -5  -9 453.491 14.3494   1
  -5  -5   9 455.776 14.2962   1
  -5  -5   9 426.279 11.9701  12
  -5   5   9 463.024 14.3844   1
   5   5  -9 459.884 14.3401   4
   5   5  -9 440.048 12.8676  14
  -5   5   9 457.245 13.7288   9
   5   5  -9 457.630 14.7547   7
  -5   5   9 450.340 11.4588  12
  -3  -5   9 522.037 13.6798   6
  -3  -5   9 495.172 13.2245  12
   3  -5  -9 492.299 14.5940   1
   3  -5  -9 526.144 16.4207  13
   3  -5  -9 521.031 14.2610  14
  -3  -5   9 520.349 14.6013   1
  -3   5   9 504.156 12.8206  12
  -3   5   9 525.531 16.1368   1
   3   5  -9 531.266 15.6022   7
   3   5  -9 516.346 15.5120   4
  -3   5   9 523.669 15.1040   9
   3   5  -9 509.261 14.7852  14
   1  -5  -9 220.414 8.43103   4
   1  -5  -9 221.332 8.49494  14
  -1  -5   9 215.691 7.92712  12
  -1  -5   9 224.320 7.91878   1
   1  -5  -9 206.781 8.53400   2
  -1  -5   9 228.550 7.80582   6
   1   5  -9 216.991 9.49196   4
  -1   5   9 207.232 9.20714   9
  -1   5   9 223.369 7.77266  12
  -1   5   9 213.551 8.57033   6
   1   5  -9 215.154 8.94094  14
   1   5  -9 235.774 9.46085   7
  -1   5   9 215.874 9.84488   1
  -1  -5  -9 286.022 10.4937   8
   1  -5   9 287.807 8.49452   6
   1  -5   9 288.231 9.79611  12
  -1  -5  -9 298.801 10.5934  14
  -1  -5  -9 302.030 11.2533   2
   1   5   9 300.122 10.9340   6
   1   5   9 304.714 12.0605   9
  -1   5  -9 294.991 11.2213   4
   1   5   9 297.029 11.9610   1
  -1   5  -9 290.531 10.9954  14
  -3  -5  -9 101.417 6.32258  14
  -3  -5  -9 105.220 7.17932   2
   3  -5   9 100.476 4.18272   6
  -3  -5  -9 99.8631 6.70075   8
   3   5   9 101.995 6.66048   6
   3   5   9 99.8149 5.91645  12
   3   5   9 108.820 7.93084   9
  -3   5  -9 93.9919 6.74318   2
   3   5   9 98.9400 6.55348   1
  -3   5  -9 101.485 6.19459  14
  -3   5  -9 91.8818 6.38590   4
 -10  -6   9 171.339 9.04323   1
  10  -6  -9 152.608 9.00435   1
 -10  -6   9 164.418 7.60237  12
 -10   6   9 169.996 8.83315   5
  10   6  -9 152.973 10.1259   1
  10   6  -9 163.117 9.86415   7
  -8  -6   9 150.058 8.70953   1
  -8  -6   9 137.752 6.49775  12
   8  -6  -9 160.794 8.94250   1
   8   6  -9 140.092 8.39859   7
  -8   6   9 146.205 7.73618   9
  -6  -6   9 158.954 6.42198  12
   6  -6  -9 161.316 10.0368  13
   6  -6  -9 163.606 7.01588  14
  -6  -6   9 173.923 8.73103   1
  -6  -6   9 144.595 6.92333   6
   6  -6  -9 165.339 8.65993   1
   6   6  -9 167.503 8.92713   7
   6   6  -9 168.448 8.05460   4
  -6   6   9 165.940 8.26561   1
  -6   6   9 164.533 7.94098   9
   4  -6  -9 286.590 12.1537  13
  -4  -6   9 278.096 9.03714  12
  -4  -6   9 283.899 9.67462   6
   4  -6  -9 291.571 11.0305   1
   4  -6  -9 291.243 9.82938  14
  -4  -6   9 290.813 10.8760   1
  -4   6   9 279.068 10.6270   9
   4   6  -9 302.107 11.6806   7
   4   6  -9 303.697 11.4157   4
   4   6  -9 279.880 10.3802  14
  -4   6   9 286.765 11.4618   1
  -2  -6   9 97.6740 5.16459   6
   2  -6  -9 91.0281 5.69233  14
  -2  -6   9 96.6062 4.90927  12
  -2  -6   9 88.4515 5.29030   1
   2  -6  -9 81.0019 5.07783   2
  -2   6   9 99.3692 6.90949   1
  -2   6   9 92.7567 6.41204   9
   2   6  -9 96.3446 6.26350   7
   2   6  -9 106.672 6.57535  14
  -2   6   9 85.5433 4.60648  12
   2   6  -9 94.3727 6.49627   4
   0  -6   9 113.690 5.31572   6
   0  -6  -9 124.243 6.96810   2
   0  -6  -9 117.541 6.55152  14
   0   6  -9 113.167 7.00761  14
   0   6   9 120.711 7.53640   1
   0   6   9 111.608 7.00366   9
   0   6  -9 119.901 6.81152   7
   0   6   9 128.157 6.10918  12
   0   6  -9 121.062 7.39817   4
  -2  -6  -9 68.6208 5.00006  14
  -2  -6  -9 74.8226 6.18778   2
   2  -6   9 70.9249 3.73069   6
  -2  -6  -9 69.3210 5.44931   8
  -2   6  -9 75.6426 6.06113  14
   2   6   9 75.5348 6.06763   1
   2   6   9 69.4904 6.17819   9
   2   6   9 69.3749 4.83254  12
   2   6   9 72.2986 5.73496   6
  -2   6  -9 74.1257 6.09760   4
  -9  -7   9 37.2802 3.99218  12
   9  -7  -9 30.1633 4.67766   1
  -9  -7   9 29.6373 4.33455   1
  -9   7   9 43.2719 4.97988   9
   9   7  -9 27.7720 4.58200   7
  -9   7   9 33.8130 4.47899   5
  -7  -7   9 502.842 13.3394  12
   7  -7  -9 498.138 16.5459   1
  -7  -7   9 501.843 16.6222   1
  -7   7   9 461.431 14.8314   9
   7   7  -9 461.450 16.5364   7
  -5  -7   9 40.6781 3.67718  12
   5  -7  -9 40.1296 4.17761  14
  -5  -7   9 52.0895 5.12738   1
   5  -7  -9 41.0680 4.77930   1
   5  -7  -9 45.6696 5.73975  13
  -5  -7   9 41.9899 3.70682   6
   5   7  -9 40.2460 5.10967   7
  -5   7   9 44.5998 4.42195   1
   5   7  -9 43.9012 5.14851   4
  -5   7   9 49.4955 4.50145   9
   3  -7  -9 715.623 19.9592   1
   3  -7  -9 718.570 18.7924  14
  -3  -7   9 752.236 18.3764   6
  -3  -7   9 732.732 19.1321   1
  -3   7   9 738.073 19.8186   9
   3   7  -9 732.578 19.8495  14
   3   7  -9 752.561 21.0317   7
   3   7  -9 718.888 20.5548   4
  -3   7   9 744.870 21.1620   1
   1  -7  -9 112.001 6.46312  14
  -1  -7   9 103.227 5.42636   6
  -1  -7   9 100.977 5.28416   1
   1  -7  -9 104.688 5.96307   4
   1   7  -9 120.385 7.20304   7
  -1   7   9 102.592 7.03428   9
  -1   7   9 107.684 7.74913   1
   1   7  -9 108.592 6.71907  14
   1   7  -9 112.212 7.32711   4
   1  -7   9 604.228 14.4015   6
  -1  -7  -9 576.826 16.4970  14
  -1  -7  -9 601.276 17.5162   2
  -1   7  -9 597.486 18.3422   4
  -1   7  -9 579.795 17.6378   7
   1   7   9 608.414 18.8654   9
   1   7   9 583.781 19.1170   1
  -1   7  -9 606.242 17.9472  14
   8  -8  -9 32.0989 5.03094   1
  -8  -8   9 32.1725 4.63922   1
  -8   8   9 28.5994 3.96733   9
  -8   8   9 35.7226 4.52355   5
   8   8  -9 28.2650 4.99254   7
  -6  -8   9 43.1557 5.39630   1
   6  -8  -9 42.4174 5.28590   1
   6   8  -9 28.0740 4.15488   4
  -6   8   9 42.3876 4.85851   9
   6   8  -9 44.8695 5.75081   7
  -4  -8   9 131.697 6.80979   6
  -4  -8   9 129.518 7.39237   1
   4  -8  -9 141.779 7.27674  14
   4  -8  -9 133.932 7.88853   1
   4   8  -9 145.681 8.43788   4
  -4   8   9 128.966 7.79656   1
   4   8  -9 132.329 8.12493   7
  -4   8   9 133.894 7.63742   9
  -2  -8   9 28.9542 3.38096   6
   2  -8  -9 42.7759 4.76511  14
  -2  -8   9 33.9272 3.61131   1
  -2   8   9 27.1455 4.27669   9
   2   8  -9 33.3924 4.83689   7
   2   8  -9 42.6677 5.21487  14
   2   8  -9 37.5017 4.81994   4
  -2   8   9 34.4338 4.93615   1
   0  -8  -9 106.367 6.65364  14
   0  -8   9 113.388 5.46492   6
   0  -8  -9 124.531 7.18641   2
   0   8   9 118.101 7.98270   9
   0   8  -9 106.717 7.73411   4
   0   8  -9 112.000 7.06675  14
   0   8   9 113.422 7.92190   1
   0   8  -9 115.535 7.86504   7
  -7  -9   9 206.167 10.5367   1
   7  -9  -9 210.574 10.7603   1
  -7   9   9 199.132 9.13725   9
   7   9  -9 190.064 10.2942   7
   5  -9  -9 445.620 16.1290   1
  -5  -9   9 445.493 13.9741   6
   5  -9  -9 459.221 14.1571  14
  -5  -9   9 449.581 15.1470   1
   5   9  -9 435.707 15.4338   4
   5   9  -9 430.031 16.3532   7
  -5   9   9 428.445 14.2787   9
  -3  -9   9 149.793 7.60232   1
  -3  -9   9 148.648 7.25599   6
   3  -9  -9 151.009 7.86601  14
   3  -9  -9 140.334 8.41254   1
  -3   9   9 146.761 8.53269   1
   3   9  -9 137.949 8.78103   4
  -3   9   9 142.122 7.69298   9
   3   9  -9 140.905 9.09061   7
  -1  -9   9 249.286 8.95481   6
   1  -9  -9 237.636 9.79220  14
   1   9  -9 245.093 11.3772   4
  -1   9   9 234.437 10.7908   9
  -1   9   9 229.124 11.4863   1
   1   9  -9 241.334 11.4360   7
   4 -10  -9 23.7755 3.71777  14
  -4 -10   9 20.3587 3.74656   1
   4 -10  -9 18.3437 3.98327   1
  -4 -10   9 18.2307 3.30983   6
   4  10  -9 23.8836 4.88071   7
   4  10  -9 25.5973 4.66111   4
  -4  10   9 17.8002 3.45866   9
  -2 -10   9 7.59697 2.41938   6
   2 -10  -9 4.58941 2.47068  14
  -2 -10   9 5.40076 2.19323   1
  -2  10   9 7.16912 3.17262   1
  -2  10   9 3.89755 2.67165   9
   2  10  -9 5.56795 3.23008   7
   2  10  -9 7.95500 3.55077   4
  10   0 -10 1108.96 28.6002   1
 -10   0  10 1102.80 24.6077  12
   8   0 -10 128.832 7.31342   1
  -8   0  10 119.235 6.97781   1
   8   0 -10 142.530 9.71297  13
   8   0 -10 133.060 7.36405   4
  -8   0  10 121.624 6.42699   9
  -8   0  10 132.029 5.99490  12
   6   0 -10 1207.84 31.5317  13
  -6   0  10 1220.42 28.7233   1
  -6   0  10 1232.87 25.8228  12
   6   0 -10 1223.05 27.5895   1
   6   0 -10 1194.77 25.7394  14
   6   0 -10 1239.42 27.9610   4
  -6   0  10 1186.74 26.3978   9
   4   0 -10 72.4219 5.13394   4
   4   0 -10 62.3420 4.33802   7
  -4   0  10 72.9287 5.41492   1
  -4   0  10 68.7873 4.42884   6
   4   0 -10 66.8545 4.44686   2
  -4   0  10 73.2369 4.61559  12
  -4   0  10 71.4192 4.79745   9
   4   0 -10 74.9939 4.95569  14
  -2   0  10 658.565 17.5639   9
   2   0 -10 673.659 17.8796   2
   2   0 -10 656.082 17.3060  14
   2   0 -10 677.673 17.7100   4
  -2   0  10 686.498 18.1866   1
  -2   0  10 675.695 16.8313   6
  -2   0  10 681.083 17.0180  12
   0   0 -10 26.6664 3.96108   2
   0   0 -10 25.5854 3.39736  14
   0   0  10 26.4272 3.96195   9
   0   0  10 24.0717 3.21232   1
   0   0  10 30.1950 3.80020  12
   0   0 -10 27.7343 3.47572   4
   0   0  10 24.7419 3.07410   6
   2   0  10 437.525 12.5399   6
   2   0  10 420.463 13.3048  12
  -2   0 -10 432.420 14.4012   2
  -2   0 -10 411.925 13.3683  14
   2   0  10 434.388 14.6609   9
  11  -1 -10 80.7139 7.04830   1
 -11  -1  10 78.9792 5.41480  12
 -11   1  10 76.7574 5.09768  12
  11   1 -10 78.9781 6.99288   1
  -9  -1  10 56.5865 5.36077   1
   9  -1 -10 57.0775 5.72283   1
  -9  -1  10 64.4129 4.69158  12
   9  -1 -10 56.7376 5.31935   4
   9  -1 -10 59.2270 7.12039  13
  -9   1  10 60.5192 4.47046  12
   9   1 -10 61.0474 5.40266   1
  -9   1  10 61.4711 4.70841   9
   9   1 -10 63.2978 5.36625   4
  -9   1  10 66.8547 5.55434   1
  -7  -1  10 11.6101 2.40572  12
   7  -1 -10 24.5635 3.55909   1
   7  -1 -10 8.33332 2.83185  13
  -7  -1  10 11.2363 2.32234   9
  -7  -1  10 11.9628 2.67971   1
   7  -1 -10 7.32135 2.60260   4
  -7   1  10 8.86552 1.81331  12
   7   1 -10 9.51933 2.27749   1
   7   1 -10 8.87580 2.72097   4
  -7   1  10 10.3343 2.50807   1
  -7   1  10 19.3581 3.03777   9
  -5  -1  10 185.998 8.59897   1
   5  -1 -10 175.577 9.63691  13
   5  -1 -10 170.749 7.09267  14
  -5  -1  10 159.750 6.81442  12
  -5  -1  10 160.898 6.87437   9
   5  -1 -10 166.991 7.58041   4
  -5  -1  10 175.246 7.11565   6
   5   1 -10 163.550 7.66111   7
  -5   1  10 164.892 8.21976   1
  -5   1  10 167.966 7.43291   9
  -5   1  10 170.583 6.84723  12
   5   1 -10 167.662 6.88945  14
   5   1 -10 168.011 7.84664   4
   3  -1 -10 7.46256 2.21170  14
  -3  -1  10 7.10653 2.03495   9
   3  -1 -10 7.74700 2.02536   4
   3  -1 -10 6.08266 2.07458   2
  -3  -1  10 6.33928 1.75043  12
  -3  -1  10 8.26947 2.02168   6
  -3  -1  10 7.80566 2.34022   1
  -3   1  10 7.03835 2.40873   1
  -3   1  10 8.50868 2.23290  12
   3   1 -10 7.87661 2.28134   2
  -3   1  10 6.73789 2.34651   9
   3   1 -10 11.9515 2.27462  14
   3   1 -10 5.49767 1.95662   7
  -3   1  10 7.55487 2.08992   6
   3   1 -10 5.82285 1.84947   4
   1  -1 -10 43.7561 4.14410   4
  -1  -1  10 46.1419 4.34030  12
  -1  -1  10 46.6173 3.80509   6
  -1  -1  10 32.5079 3.88472   9
   1  -1 -10 47.3978 4.55571   2
  -1  -1  10 50.5469 4.10625   1
   1  -1 -10 38.7182 3.67576  14
   1   1 -10 42.4825 4.72771   2
  -1   1  10 41.9809 4.51033   9
   1   1 -10 34.3881 4.11501   4
   1   1 -10 51.4972 4.16619  14
  -1   1  10 48.0759 4.55656  12
  -1   1  10 40.0446 4.18961   1
  -1   1  10 40.0201 3.76981   6
  -1  -1 -10 49.9661 4.27343  14
   1  -1  10 43.5185 4.64441   9
   1  -1  10 54.8247 3.93956   6
   1  -1  10 51.4071 4.07402   1
   1  -1  10 52.3257 4.34757  12
  -1  -1 -10 45.4575 4.85942   2
   1   1  10 43.3100 5.05111   9
   1   1  10 50.6669 4.43191   1
  -1   1 -10 48.0096 4.40356   4
   1   1  10 49.9424 4.76091  12
  -1   1 -10 48.8607 4.62427  14
   1   1  10 52.0833 4.31268   6
  -1   1 -10 52.7470 4.86390   2
   3  -1  10 0.94700 1.42827   6
   3  -1  10 0.21961 2.31798   9
  -3  -1 -10 3.89817 2.52381   2
  -3  -1 -10 2.80384 2.13076  14
  -3  -1 -10 -1.0942 1.61531   8
   3  -1  10 0.98982 1.50074  12
   3   1  10 -1.1798 1.36141  12
   3   1  10 0.04277 1.77293   6
   3   1  10 -0.0418 2.61869   9
  -3   1 -10 1.39731 1.47829  14
  -3   1 -10 -0.5433 2.09626   2
  10  -2 -10 35.9619 4.35931   4
 -10  -2  10 48.2551 5.23769   1
 -10  -2  10 51.8275 4.49626  12
  10  -2 -10 43.6540 5.49059   1
  10   2 -10 43.3082 5.35873   1
 -10   2  10 49.2053 4.30994  12
   8  -2 -10 451.282 15.0744   1
   8  -2 -10 433.011 17.7014  13
  -8  -2  10 443.554 14.7411   1
   8  -2 -10 460.672 14.8523   4
  -8  -2  10 449.272 12.6209  12
  -8   2  10 438.886 13.7560   9
  -8   2  10 458.802 14.7282   1
   8   2 -10 453.799 14.8639   1
   8   2 -10 457.359 14.3465   4
  -8   2  10 438.975 12.2222  12
   6  -2 -10 90.6417 7.34603  13
  -6  -2  10 90.8534 6.28492   1
   6  -2 -10 95.5003 6.02554   1
   6  -2 -10 83.4465 4.83517  14
   6  -2 -10 112.797 6.37127   4
  -6  -2  10 91.6002 4.97503  12
  -6  -2  10 93.2140 6.22293   6
  -6   2  10 97.0385 6.47558   1
   6   2 -10 91.7433 6.08185   7
  -6   2  10 77.3103 5.09684   9
   6   2 -10 97.5203 6.15278   4
   6   2 -10 89.1089 4.96996  14
  -6   2  10 89.4346 4.93328  12
  -4  -2  10 1083.08 24.0006   6
   4  -2 -10 1099.24 27.9548  13
  -4  -2  10 1113.04 26.0287   1
  -4  -2  10 1096.89 23.8655  12
   4  -2 -10 1051.60 23.5329   2
   4  -2 -10 1083.30 24.3898  14
   4  -2 -10 1067.80 25.0498   4
  -4   2  10 1057.90 24.0008   6
  -4   2  10 1053.57 26.0701   1
   4   2 -10 1082.82 25.3067   7
   4   2 -10 1075.95 25.3857   4
   4   2 -10 1122.02 24.9081  14
  -4   2  10 1094.19 25.1573   9
  -4   2  10 1095.00 23.5711  12
   2  -2 -10 228.169 8.94042   2
  -2  -2  10 213.865 8.02804   6
  -2  -2  10 208.045 8.05271  12
  -2  -2  10 214.975 8.47992   1
   2  -2 -10 225.194 8.81527   4
   2  -2 -10 221.011 8.60052  14
   2   2 -10 232.890 9.32756   4
  -2   2  10 222.128 9.41359   9
   2   2 -10 220.242 8.97309  14
  -2   2  10 234.593 9.78503   1
   2   2 -10 223.717 9.34627   2
   2   2 -10 205.976 8.05767   7
  -2   2  10 228.553 8.40082  12
  -2   2  10 222.445 8.49363   6
   0  -2  10 905.261 20.4428   6
   0  -2  10 884.681 21.5130  12
   0  -2 -10 894.233 21.8828  14
   0  -2 -10 871.876 22.2725   2
   0  -2  10 874.155 20.6351   1
   0   2  10 896.346 21.7247  12
   0   2 -10 898.313 22.2137  14
   0   2  10 880.030 23.4011   9
   0   2 -10 927.807 22.4908   4
   0   2 -10 892.287 23.0392   2
   0   2  10 901.856 22.6768   1
   0   2  10 899.935 21.5508   6
   2  -2  10 122.610 6.94690  12
   2  -2  10 120.416 5.54197   6
  -2  -2 -10 116.498 6.76507  14
  -2  -2 -10 128.122 7.60663   2
  -2  -2 -10 110.533 6.92650   8
   2   2  10 125.494 6.82379   1
  -2   2 -10 122.783 7.47668   2
   2   2  10 122.716 8.21398   9
   2   2  10 119.654 6.97285  12
  -2   2 -10 125.192 7.06507  14
   2   2  10 124.759 6.62874   6
  11  -3 -10 -0.3248 2.55459   1
 -11  -3  10 3.49948 2.23784  12
 -11   3  10 -0.7157 1.64982  12
  11   3 -10 2.41900 3.29221   7
  11   3 -10 2.64821 2.73738   1
  -9  -3  10 1.22119 1.34397  12
  -9  -3  10 2.57083 2.37248   1
   9  -3 -10 1.44154 2.35280   1
   9  -3 -10 2.13559 2.47972   4
   9   3 -10 -0.7723 2.50659   7
  -9   3  10 2.26927 1.71212  12
  -9   3  10 0.91728 2.16043   9
   9   3 -10 2.19412 2.28195   1
   7  -3 -10 13.1942 3.58399  13
   7  -3 -10 9.76435 2.99891   4
  -7  -3  10 10.2469 2.47223  12
  -7  -3  10 10.8233 2.61721   1
   7  -3 -10 8.38315 2.62875   1
   7   3 -10 14.3626 3.05129   4
  -7   3  10 9.25325 2.66251   9
  -7   3  10 9.46061 2.12648  12
  -7   3  10 10.6907 2.52029   1
   7   3 -10 9.35031 3.09274   7
  -5  -3  10 45.5561 3.89050   6
  -5  -3  10 51.8916 4.06589  12
   5  -3 -10 50.0224 5.58591  13
   5  -3 -10 43.7740 4.21390   1
   5  -3 -10 47.1138 3.71844  14
  -5  -3  10 51.4445 4.55389   1
   5  -3 -10 46.0000 4.62994   4
   5   3 -10 44.6002 4.82115   7
  -5   3  10 48.1100 4.82861   9
   5   3 -10 55.4214 4.30682  14
  -5   3  10 43.5750 3.31440  12
   5   3 -10 45.8142 4.17036   4
  -5   3  10 48.3210 4.54656   1
  -3  -3  10 2.48537 1.75660  12
   3  -3 -10 8.17346 2.01721   2
   3  -3 -10 1.36013 1.95720   4
   3  -3 -10 0.70239 1.63570  14
   3  -3 -10 3.32719 2.27988  13
  -3  -3  10 2.34220 1.50285   1
  -3  -3  10 7.02582 2.05213   6
  -3   3  10 3.56227 1.81623   6
   3   3 -10 1.66902 1.45592  14
   3   3 -10 -0.0661 1.75854   4
  -3   3  10 6.84578 2.17520   1
  -3   3  10 1.73430 2.10663   9
  -3   3  10 4.42353 1.60017  12
   3   3 -10 5.23022 2.06399   7
  -1  -3  10 12.1470 2.40975  12
  -1  -3  10 9.83848 2.18773   1
  -1  -3  10 11.3832 2.24216   6
   1  -3 -10 9.01522 2.52868  14
   1  -3 -10 13.1607 2.72011   4
   1  -3 -10 13.1396 2.56793   2
  -1   3  10 12.6939 3.03344   1
   1   3 -10 16.0988 3.44221   2
   1   3 -10 11.5058 2.99313   4
  -1   3  10 19.6246 3.10666   6
   1   3 -10 11.6697 2.85076  14
  -1   3  10 8.73683 2.46739  12
  -1   3  10 14.9056 3.53149   9
   1  -3  10 15.5684 2.48556   6
  -1  -3 -10 15.7054 3.38346   2
  -1  -3 -10 12.0853 3.01497  14
   1  -3  10 13.2674 2.93119  12
   1   3  10 13.9755 2.89504   6
   1   3  10 14.8993 3.16894   1
  -1   3 -10 17.1300 3.61104   2
  -1   3 -10 15.3621 2.90871  14
  -1   3 -10 20.0769 3.46116   4
   1   3  10 12.9700 2.98557  12
   1   3  10 13.2769 3.67726   9
   3  -3  10 0.50185 1.95582  12
  -3  -3 -10 2.49588 2.33475  14
  -3  -3 -10 1.09133 2.42004   2
   3  -3  10 1.15579 1.35794   6
  -3  -3 -10 1.78229 1.81201   8
  -3   3 -10 -0.4535 2.03749  14
   3   3  10 2.95692 2.34349  12
  -3   3 -10 2.52706 2.49172   2
   3   3  10 4.15713 2.29990   6
   3   3  10 0.09362 2.94932   9
   3   3  10 1.98036 1.92884   1
 -10  -4  10 78.1840 5.44176  12
 -10  -4  10 80.7724 6.59678   1
  10  -4 -10 78.2012 6.86797   1
  10  -4 -10 78.2569 6.12850   4
  10   4 -10 86.8263 7.20817   7
  10   4 -10 78.1176 6.71759   1
 -10   4  10 77.9031 4.72188  12
   8  -4 -10 1215.73 29.5398   1
  -8  -4  10 1189.12 29.3724   1
  -8  -4  10 1178.44 25.8205  12
   8  -4 -10 1125.70 33.0089  13
  -8   4  10 1182.13 24.8126  12
  -8   4  10 1146.48 27.8691   1
  -8   4  10 1165.30 27.3653   9
   8   4 -10 1162.32 29.8090   7
   8   4 -10 1177.22 27.8078   4
  -6  -4  10 36.1682 3.76646  12
   6  -4 -10 40.0375 5.81752  13
   6  -4 -10 38.1382 4.06614   1
  -6  -4  10 35.7267 4.47267   1
   6  -4 -10 48.4366 3.93705  14
  -6  -4  10 43.3051 3.93654   6
  -6   4  10 42.7433 3.67033  12
  -6   4  10 43.8694 4.76919   1
   6   4 -10 36.1830 4.80881   7
   6   4 -10 36.3638 3.68679  14
  -6   4  10 34.6480 4.02607   9
   6   4 -10 39.8247 4.49985   4
  -4  -4  10 1112.30 25.9062   1
   4  -4 -10 1082.31 27.9887  13
   4  -4 -10 1083.11 24.5881  14
   4  -4 -10 1099.28 25.7615   4
  -4  -4  10 1046.66 23.8077  12
  -4  -4  10 1065.18 24.1125   6
  -4   4  10 1079.52 26.7875   1
  -4   4  10 1103.44 23.4468  12
   4   4 -10 1094.97 26.0641   4
   4   4 -10 1068.99 24.9151  14
  -4   4  10 1076.73 25.7577   9
   4   4 -10 1070.76 25.9625   7
  -2  -4  10 5.48231 1.89900   1
   2  -4 -10 6.60963 2.26221  14
  -2  -4  10 3.13211 1.51474  12
   2  -4 -10 5.51873 1.75221   2
  -2  -4  10 3.74421 2.09670   6
   2  -4 -10 3.04375 1.63849   4
   2   4 -10 6.22150 2.56783   4
  -2   4  10 7.12368 2.17398   6
   2   4 -10 2.08096 1.89205   7
  -2   4  10 4.47940 1.99389  12
  -2   4  10 8.98421 2.85070   1
   2   4 -10 6.64355 2.42588  14
  -2   4  10 5.84536 2.72400   9
   0  -4 -10 624.318 17.6031   2
   0  -4  10 604.804 15.1325   6
   0  -4 -10 599.558 16.7273  14
   0  -4  10 621.425 16.4615  12
   0   4  10 621.500 18.5244   1
   0   4  10 596.994 16.9214   6
   0   4  10 603.227 18.4071   9
   0   4 -10 580.106 17.0896  14
   0   4  10 610.248 16.5401  12
   0   4 -10 618.259 17.7910   4
   0   4 -10 611.304 18.4800   2
  -2  -4 -10 5.20751 2.86727   2
   2  -4  10 6.73637 2.41173  12
  -2  -4 -10 12.6558 3.29798   8
  -2  -4 -10 7.05074 2.64234  14
   2  -4  10 10.9678 2.03053   6
   2   4  10 6.39374 2.62976  12
   2   4  10 12.0594 3.10106   6
   2   4  10 21.1713 3.83687   1
  -2   4 -10 10.7498 2.93086   4
  -2   4 -10 8.45294 2.54257   2
   2   4  10 9.47364 3.68079   9
  -2   4 -10 7.78277 2.77924  14
  -9  -5  10 75.9360 5.24267  12
   9  -5 -10 73.9542 6.22654   1
  -9  -5  10 68.0381 6.38550   1
   9   5 -10 79.7041 7.33003   7
  -9   5  10 72.0566 5.96653   9
  -7  -5  10 200.863 7.97426  12
   7  -5 -10 190.044 11.3224  13
   7  -5 -10 215.684 10.2279   1
  -7  -5  10 217.823 10.3241   1
   7   5 -10 208.057 10.3151   7
  -7   5  10 206.136 9.60147   1
  -7   5  10 209.557 9.32739   9
  -7   5  10 206.915 7.30218  12
   7   5 -10 191.615 9.06583   4
  -5  -5  10 74.1094 5.85740   1
   5  -5 -10 67.9123 5.28705   1
   5  -5 -10 73.7103 6.67166  13
  -5  -5  10 72.0305 4.78237  12
  -5  -5  10 84.4220 5.24863   6
   5  -5 -10 77.3576 5.18402  14
   5   5 -10 69.3570 6.02259   7
   5   5 -10 74.2199 5.29181  14
   5   5 -10 64.0787 5.68963   4
  -5   5  10 77.0763 6.13981   1
  -5   5  10 64.3662 5.05948   9
  -5   5  10 81.7806 4.55168  12
   3  -5 -10 264.960 9.92354  14
  -3  -5  10 255.491 9.79576   1
  -3  -5  10 255.733 9.16542   6
   3  -5 -10 269.186 10.3465   4
   3   5 -10 262.528 10.5835   7
  -3   5  10 262.705 8.78200  12
  -3   5  10 275.855 10.6754   9
   3   5 -10 251.380 10.4203   4
   3   5 -10 270.722 10.4858  14
  -3   5  10 263.045 11.3137   1
  -1  -5  10 129.150 5.93996   6
   1  -5 -10 129.996 7.08588   2
  -1  -5  10 110.518 5.61436   1
  -1  -5  10 120.025 6.27437  12
   1  -5 -10 125.109 6.82738  14
   1  -5 -10 124.031 6.50289   4
   1   5 -10 129.234 7.30844   4
  -1   5  10 125.667 6.30114  12
   1   5 -10 120.598 6.96866   7
  -1   5  10 113.115 6.63275   6
   1   5 -10 126.585 7.30752  14
  -1   5  10 111.387 7.17867   9
  -1   5  10 118.922 7.81887   1
   1  -5  10 57.3157 4.70813  12
  -1  -5 -10 58.8272 5.18432  14
  -1  -5 -10 56.0140 5.68923   2
   1  -5  10 56.5218 3.73654   6
  -1   5 -10 56.9627 5.76143  14
  -1   5 -10 71.5585 5.87404   4
   1   5  10 60.5593 5.50026   1
   1   5  10 57.0133 5.12347   6
   1   5  10 60.9543 5.06784  12
   1   5  10 54.5559 6.32594   9
 -10  -6  10 339.046 13.7473   1
  10  -6 -10 341.135 13.6205   1
 -10  -6  10 320.029 10.8318  12
  10   6 -10 328.764 14.1387   7
 -10   6  10 320.941 12.3243   5
  -8  -6  10 14.6351 2.46257  12
  -8  -6  10 10.9488 3.29740   1
   8  -6 -10 16.3667 3.76046   1
  -8   6  10 14.8078 3.35118   9
   8   6 -10 18.2789 3.72146   7
  -6  -6  10 623.170 15.9551  12
  -6  -6  10 636.564 18.9178   1
   6  -6 -10 646.393 21.7320  13
   6  -6 -10 624.495 16.5695  14
  -6   6  10 642.853 18.7951   1
   6   6 -10 594.527 16.4115  14
   6   6 -10 635.396 18.4361   4
   6   6 -10 632.520 19.3337   7
  -6   6  10 607.114 17.5136   9
   4  -6 -10 74.1954 6.51907   1
  -4  -6  10 72.0808 4.76463  12
  -4  -6  10 67.8715 4.91647   6
   4  -6 -10 71.0069 5.24811  14
  -4  -6  10 76.2705 5.45442   1
   4   6 -10 64.7212 6.01346   7
  -4   6  10 63.7864 5.67244   9
   4   6 -10 75.3237 5.75275  14
   4   6 -10 67.6226 5.91873   4
  -4   6  10 67.1198 6.12419   1
  -2  -6  10 847.778 20.7724   1
   2  -6 -10 853.675 21.4835   4
  -2  -6  10 824.589 20.1408  12
  -2  -6  10 864.793 20.4800   6
   2  -6 -10 858.031 21.4646  14
   2   6 -10 848.582 22.6874   4
   2   6 -10 840.935 22.7326   7
  -2   6  10 881.919 24.2938   1
   2   6 -10 882.233 22.7654  14
  -2   6  10 856.371 22.9569   9
   0  -6 -10 82.2169 5.89647  14
   0  -6 -10 83.6621 6.11688   2
   0  -6  10 80.7964 4.76852   6
   0   6  10 83.4254 6.98163   1
   0   6 -10 73.0660 6.35370   4
   0   6 -10 79.3369 6.20456  14
   0   6  10 78.3070 6.85201   9
   0   6  10 82.6116 5.45535  12
   9  -7 -10 7.68123 3.18867   1
  -9  -7  10 8.45832 2.05587  12
  -9  -7  10 4.89861 2.39566   1
   9   7 -10 6.05249 2.81708   7
  -9   7  10 6.10075 2.89412   9
   7  -7 -10 18.0501 3.61688   1
  -7  -7  10 16.8680 3.45635   1
  -7  -7  10 14.9250 2.70157  12
   7   7 -10 11.7166 3.52977   7
   7   7 -10 11.4010 3.07674   4
  -7   7  10 19.0203 3.36233   9
   5  -7 -10 4.75012 2.62992   1
  -5  -7  10 3.20388 1.88828   6
  -5  -7  10 4.61618 2.08848   1
   5  -7 -10 5.95567 2.36152  14
   5   7 -10 5.92633 2.91714   4
  -5   7  10 6.98230 2.89220   9
   5   7 -10 5.69069 2.98449   7
  -5   7  10 5.04787 2.56896   1
   3  -7 -10 13.7063 3.03793  14
  -3  -7  10 13.7692 2.70094   6
  -3  -7  10 8.88388 2.42308   1
   3   7 -10 13.3248 2.85850  14
   3   7 -10 16.8910 3.94666   7
  -3   7  10 12.9096 3.15616   1
  -3   7  10 15.0163 3.12826   9
   3   7 -10 16.9224 3.98645   4
  -1  -7  10 1.96107 1.77253   6
   1  -7 -10 1.99789 2.13835  14
   1   7 -10 -1.3565 2.12664   7
   1   7 -10 2.40066 1.99359   4
  -1   7  10 1.36716 2.62317   9
  -1   7  10 2.32929 2.67688   1
   1   7 -10 0.67878 1.63821  14
   8  -8 -10 176.446 9.72074   1
  -8  -8  10 176.945 9.76852   1
  -8   8  10 177.931 8.66641   9
   8   8 -10 171.675 10.2313   7
   6  -8 -10 391.808 14.8759   1
  -6  -8  10 392.009 14.4171   1
   6   8 -10 371.360 14.1056   4
   6   8 -10 388.921 15.1270   7
  -6   8  10 397.719 13.8529   9
  -4  -8  10 114.415 6.53971   6
  -4  -8  10 113.022 6.98855   1
   4  -8 -10 118.063 6.93485  14
   4   8 -10 110.570 7.67456   7
  -4   8  10 108.726 6.95610   9
  -4   8  10 103.546 7.58920   1
   4   8 -10 109.375 7.79641   4
   2  -8 -10 285.745 11.1366  14
  -2  -8  10 283.517 10.0481   6
  -2   8  10 284.085 13.0350   1
   2   8 -10 308.421 12.7740   4
   2   8 -10 298.151 12.4504   7
  -2   8  10 277.722 12.0182   9
   2   8 -10 273.280 11.5291  14
  -5  -9  10 12.5738 2.88325   6
   5  -9 -10 10.5868 2.95848  14
  -5  -9  10 9.50923 2.99174   1
   5  -9 -10 6.38036 2.58335   1
   5   9 -10 2.63288 2.79486   4
  -5   9  10 11.0485 3.22912   9
   5   9 -10 12.3682 3.82484   7
   3  -9 -10 2.68991 2.44096  14
  -3  -9  10 1.88567 1.97828   6
  -3  -9  10 4.32290 2.17100   1
  -3   9  10 5.25242 2.38657   9
   3   9 -10 3.96950 2.33673   4
   3   9 -10 7.90396 3.46369   7
  -3   9  10 -0.0854 2.41285   1
 -10   0  11 0.77560 2.04641   1
 -10   0  11 3.88638 2.22985  12
  10   0 -11 3.46401 2.77305   1
  10   0 -11 4.39320 2.70461   4
  -8   0  11 0.58428 1.33445  12
   8   0 -11 -1.1292 1.73343   1
   8   0 -11 0.15407 2.36600   4
  -8   0  11 2.47329 2.03357   9
  -8   0  11 0.70170 2.31286   1
   6   0 -11 -0.8223 1.32314  14
  -6   0  11 -1.1083 1.58543   9
  -6   0  11 1.87537 1.40009  12
   6   0 -11 -0.6042 1.94424   7
  -6   0  11 -0.2176 2.01479   1
   6   0 -11 14.1545 3.16630   4
  -4   0  11 1.29359 1.67558  12
   4   0 -11 0.75247 1.40149   4
   4   0 -11 0.50942 1.14968   2
  -4   0  11 0.93328 1.81989   9
   4   0 -11 -1.1350 1.09199  14
  -4   0  11 2.37541 1.68407   6
  -4   0  11 -0.0288 1.98656   1
   2   0 -11 0.49185 1.90218   4
   2   0 -11 -0.4032 1.86973   2
  -2   0  11 0.66795 1.98095  12
  -2   0  11 8.96593 2.57751   1
  -2   0  11 0.55338 1.52905   9
   2   0 -11 -0.7393 1.75466  14
  -2   0  11 -0.0130 1.52048   6
   0   0  11 1.07004 1.56742   1
   0   0  11 -0.2175 2.14986   9
   0   0 -11 -1.1273 1.23833  14
   0   0 -11 0.89727 2.19577   2
   0   0  11 1.86162 2.13768  12
   0   0 -11 0.76634 1.85273   4
   0   0  11 1.90291 1.81853   6
   2   0  11 -2.7341 1.82241  12
   2   0  11 -0.3235 1.38891   6
  -2   0 -11 3.48890 2.05472   2
  -2   0 -11 1.12169 2.24735  14
   2   0  11 1.88526 2.72900   9
  11  -1 -11 51.9888 6.15714   1
 -11  -1  11 44.4691 4.55682  12
  11   1 -11 45.8129 5.78892   1
 -11   1  11 52.0067 4.61231  12
   9  -1 -11 565.227 18.1103   1
  -9  -1  11 541.245 17.3739   1
   9  -1 -11 561.057 17.4439   4
  -9  -1  11 547.326 15.2075  12
   9   1 -11 548.697 17.0447   4
  -9   1  11 571.249 17.6517   1
  -9   1  11 551.629 15.0071  12
  -9   1  11 554.299 16.3644   9
   9   1 -11 547.947 17.8205   1
  -7  -1  11 124.633 6.07220  12
   7  -1 -11 122.553 7.08745   4
   7  -1 -11 119.669 9.02653  13
  -7  -1  11 124.250 7.48155   1
  -7  -1  11 113.330 6.17538   9
   7   1 -11 115.596 7.16656   4
  -7   1  11 114.207 6.36249   9
   7   1 -11 126.008 7.82601   7
  -7   1  11 117.913 6.10580  12
  -7   1  11 128.111 7.62458   1
  -5  -1  11 525.264 14.6258  12
   5  -1 -11 525.840 15.3936   7
  -5  -1  11 541.977 14.9463   6
   5  -1 -11 559.218 15.3245  14
  -5  -1  11 544.823 16.9926   1
  -5  -1  11 508.720 14.6380   9
   5  -1 -11 551.771 16.2650   4
  -5   1  11 522.641 15.2385   9
  -5   1  11 550.129 14.7248  12
  -5   1  11 558.953 17.2297   1
   5   1 -11 543.582 16.1068   4
   5   1 -11 526.146 15.1244  14
   5   1 -11 524.271 15.6328   7
  -3  -1  11 206.145 8.54368   9
  -3  -1  11 217.461 8.55600   6
   3  -1 -11 209.053 8.85919   2
  -3  -1  11 206.303 9.27578   1
  -3  -1  11 204.732 8.44704  12
   3  -1 -11 213.676 8.70950  14
   3  -1 -11 209.608 9.10568   4
   3   1 -11 211.077 9.16219   4
  -3   1  11 208.097 9.58590   1
  -3   1  11 222.416 8.66963  12
   3   1 -11 205.953 9.08442   2
   3   1 -11 214.542 9.01730  14
  -3   1  11 193.447 8.89970   9
  -1  -1  11 326.998 11.3266  12
  -1  -1  11 336.776 11.0718   6
   1  -1 -11 340.852 12.4377   2
   1  -1 -11 330.099 11.3070   4
  -1  -1  11 330.655 11.4818   1
  -1  -1  11 319.649 11.5970   9
   1  -1 -11 332.312 11.5833  14
  -1   1  11 327.035 12.4866   9
   1   1 -11 350.813 12.0037  14
   1   1 -11 341.907 12.7424   2
  -1   1  11 331.657 12.1205   1
  -1   1  11 325.242 11.2642   6
   1   1 -11 339.452 11.9439   4
  -1   1  11 332.600 11.3527  12
   1  -1  11 193.501 7.88615   6
  -1  -1 -11 187.581 8.51216  14
  -1  -1 -11 187.211 9.51172   2
   1  -1  11 178.257 8.32958  12
   1   1  11 178.485 9.78200   9
   1   1  11 190.931 8.64929  12
  -1   1 -11 187.165 9.48871   2
  -1   1 -11 193.239 9.00325  14
   1   1  11 193.253 8.29941   6
   1   1  11 178.984 8.19737   1
 -10  -2  11 162.389 7.59947  12
  10  -2 -11 154.004 9.08328   1
  10   2 -11 159.698 9.21405   1
 -10   2  11 143.268 6.84795  12
  10   2 -11 151.223 9.44796   7
   8  -2 -11 232.070 10.4809   4
  -8  -2  11 237.147 8.89818  12
  -8  -2  11 236.387 10.9619   1
   8  -2 -11 236.244 10.8335   1
   8   2 -11 243.034 11.4899   7
  -8   2  11 235.137 8.47000  12
   8   2 -11 255.660 10.6862   4
  -8   2  11 234.751 10.6437   1
  -8   2  11 240.511 9.92126   9
   6  -2 -11 197.484 9.22947   4
   6  -2 -11 190.363 7.90012  14
  -6  -2  11 200.044 8.06752  12
   6  -2 -11 191.215 10.9665  13
  -6  -2  11 207.340 9.83386   1
   6   2 -11 202.643 9.53726   7
  -6   2  11 190.894 7.52903  12
  -6   2  11 188.846 8.44892   9
   6   2 -11 207.482 8.21432  14
   6   2 -11 195.966 8.95235   4
  -6   2  11 195.767 9.53082   1
  -4  -2  11 174.863 7.77383  12
  -4  -2  11 180.500 7.86463   6
   4  -2 -11 183.689 8.69027   4
   4  -2 -11 178.568 7.54075   2
  -4  -2  11 189.478 9.05803   1
   4  -2 -11 193.363 8.12225  14
  -4   2  11 189.063 8.03284   6
   4   2 -11 185.962 8.36122  14
  -4   2  11 185.405 8.69962   9
  -4   2  11 194.346 9.54365   1
  -4   2  11 189.476 7.83124  12
   4   2 -11 178.751 8.55457   4
   4   2 -11 184.908 8.13210   7
   2  -2 -11 161.944 7.74343   2
  -2  -2  11 165.165 7.77498   1
  -2  -2  11 169.929 7.44767   6
  -2  -2  11 169.447 7.57863  12
   2  -2 -11 163.407 7.68938  14
   2  -2 -11 169.261 8.02533   4
   2   2 -11 150.645 8.29326   2
   2   2 -11 165.809 8.03528   4
   2   2 -11 160.678 7.81037  14
  -2   2  11 166.850 7.71721   6
  -2   2  11 154.740 8.41300   9
  -2   2  11 164.500 7.41799  12
  -2   2  11 163.339 8.59950   1
   0  -2 -11 78.6644 5.93064   2
   0  -2 -11 85.8144 5.96330  14
   0  -2  11 79.6585 5.06504   6
   0  -2  11 73.7321 5.72502  12
   0   2  11 69.1324 6.55002   9
   0   2 -11 70.7620 6.28975   2
   0   2  11 76.0471 5.85069   1
   0   2  11 81.7667 5.60207   6
   0   2 -11 72.5157 5.40210   4
   0   2 -11 84.3896 5.95588  14
   0   2  11 77.9085 5.45730  12
   9  -3 -11 81.0155 6.89151   1
  -9  -3  11 92.9327 6.83371   1
  -9  -3  11 93.6506 5.51853  12
   9  -3 -11 82.9231 6.39118   4
  -9   3  11 87.5922 6.44161   9
  -9   3  11 90.6713 5.29260  12
  -9   3  11 108.742 7.28461   1
   9   3 -11 87.0911 7.36871   7
   9   3 -11 83.3596 6.34555   4
   7  -3 -11 615.581 18.3314   4
  -7  -3  11 647.224 19.3072   1
   7  -3 -11 607.022 18.3439   1
  -7  -3  11 627.704 16.4735  12
   7  -3 -11 612.088 21.8968  13
  -7   3  11 638.008 15.8463  12
   7   3 -11 634.432 18.3964   4
   7   3 -11 607.435 18.8081   7
  -7   3  11 602.291 18.3321   1
  -7   3  11 623.006 17.5710   9
   5  -3 -11 113.915 6.99318   4
   5  -3 -11 116.439 6.42940  14
  -5  -3  11 128.152 6.28295   6
   5  -3 -11 114.630 8.28429  13
  -5  -3  11 108.396 6.19416  12
  -5  -3  11 117.274 7.36710   1
  -5   3  11 103.154 6.73685   9
  -5   3  11 116.280 7.23055   1
   5   3 -11 119.557 6.65444  14
  -5   3  11 110.200 5.56480  12
   5   3 -11 114.168 6.79389   7
   5   3 -11 115.564 7.19308   4
   3  -3 -11 780.944 20.3226   4
   3  -3 -11 767.420 19.9011  14
   3  -3 -11 750.628 19.2823   2
  -3  -3  11 746.095 19.1829  12
  -3  -3  11 789.077 20.4330   1
  -3  -3  11 802.448 19.4438   6
   3   3 -11 777.853 20.3024  14
   3   3 -11 757.872 20.6824   4
  -3   3  11 749.414 19.5166   6
  -3   3  11 776.362 19.0915  12
  -3   3  11 772.863 21.7331   1
   3   3 -11 731.787 19.6189   7
  -3   3  11 772.773 20.9380   9
   1  -3 -11 56.8888 5.11127  14
   1  -3 -11 58.1561 5.34708   2
   1  -3 -11 61.8794 5.00589   4
  -1  -3  11 58.3268 5.27550  12
  -1  -3  11 61.8007 4.53413   1
  -1  -3  11 62.1540 4.57450   6
  -1   3  11 56.9928 5.55518   1
   1   3 -11 61.6902 5.46962  14
   1   3 -11 71.5020 5.87685   4
  -1   3  11 55.5214 6.02840   9
  -1   3  11 69.4948 4.95242  12
  -1   3  11 60.8443 4.95790   6
   1   3 -11 61.2516 6.24536   2
  -1  -3 -11 416.696 14.4289   2
  -1  -3 -11 416.144 13.7249  14
   1  -3  11 394.676 13.3221  12
   1  -3  11 422.010 12.1994   6
  -1   3 -11 428.973 14.1487   4
   1   3  11 432.462 14.0847  12
   1   3  11 424.049 14.4325   1
  -1   3 -11 411.428 13.9304  14
  -1   3 -11 416.480 14.7731   2
 -10  -4  11 8.72420 3.21226   1
 -10  -4  11 6.22208 2.39671  12
  10  -4 -11 4.24459 2.92838   1
  10  -4 -11 2.11633 2.09418   4
 -10   4  11 5.25542 2.21081   9
 -10   4  11 3.05330 1.96274  12
  10   4 -11 3.86331 3.16737   7
   8  -4 -11 44.4097 5.39298   1
  -8  -4  11 45.7616 5.63139   1
  -8  -4  11 42.8657 4.05078  12
   8  -4 -11 37.0783 4.85596   4
   8   4 -11 39.9796 5.59226   7
  -8   4  11 39.2934 3.76923  12
  -8   4  11 44.4611 5.11445   9
  -8   4  11 39.0490 4.65597   1
   8   4 -11 34.6328 4.44610   4
   6  -4 -11 23.1193 3.96125   4
  -6  -4  11 30.4662 4.38766   1
   6  -4 -11 28.7625 5.12369  13
   6  -4 -11 24.2526 3.59922   1
  -6  -4  11 28.7842 3.62901  12
   6  -4 -11 31.8601 3.59272  14
  -6   4  11 28.3035 2.98254  12
   6   4 -11 26.9174 4.18607   4
   6   4 -11 26.4574 4.08236   7
  -6   4  11 31.8425 4.63451   1
  -6   4  11 26.8116 4.05954   9
   6   4 -11 23.3702 3.28060  14
  -4  -4  11 57.3942 4.37805  12
   4  -4 -11 53.4369 4.72213   4
   4  -4 -11 55.1324 4.79331  14
   4  -4 -11 51.4089 5.61230  13
  -4  -4  11 59.5267 5.30246   1
  -4  -4  11 57.6251 4.66359   6
   4   4 -11 53.8629 5.02612  14
  -4   4  11 61.8971 5.99322   1
   4   4 -11 60.8518 5.16391   4
   4   4 -11 46.5632 4.93925   7
  -4   4  11 50.9874 4.23190  12
  -4   4  11 53.8349 5.53871   9
   2  -4 -11 84.9855 5.88691   4
  -2  -4  11 80.2062 5.35877   1
  -2  -4  11 78.0042 5.18233  12
  -2  -4  11 87.7010 5.64244   6
   2  -4 -11 87.4316 5.97434  14
   2  -4 -11 84.4079 5.79039   2
   2   4 -11 82.9995 6.01081   4
  -2   4  11 74.7235 6.52111   9
  -2   4  11 85.1880 6.78785   1
  -2   4  11 77.5080 5.30173  12
   2   4 -11 82.5227 6.20484  14
   0  -4  11 46.5861 3.93739   6
   0  -4 -11 39.5847 4.35613  14
   0  -4  11 35.6182 3.99712  12
   0  -4 -11 40.8552 4.88138   2
   0   4  11 46.3598 5.49901   1
   0   4  11 44.7967 4.68914  12
   0   4  11 48.2245 4.73924   6
   0   4 -11 47.1622 4.49555  14
   0   4  11 48.3508 5.70799   9
   0   4 -11 37.2564 4.82773   4
   9  -5 -11 286.144 12.1537   4
   9  -5 -11 289.417 12.7387   1
  -9  -5  11 273.882 10.1679  12
  -9  -5  11 282.639 12.6934   1
   9   5 -11 273.111 13.0548   7
  -9   5  11 267.286 11.3569   9
  -7  -5  11 178.077 7.87905  12
   7  -5 -11 190.923 9.76782   4
  -7  -5  11 197.048 9.88629   1
   7  -5 -11 188.596 9.68852   1
   7   5 -11 177.643 9.86193   7
  -7   5  11 183.736 9.15805   9
  -7   5  11 179.299 9.23188   1
   7   5 -11 203.669 9.89648   4
  -7   5  11 177.188 7.08669  12
   5  -5 -11 217.163 11.4398  13
  -5  -5  11 220.457 8.84029  12
  -5  -5  11 248.285 9.49415   6
  -5  -5  11 240.707 10.5427   1
   5  -5 -11 225.627 9.22365  14
   5  -5 -11 234.062 10.3933   4
   5   5 -11 227.376 10.6113   7
   5   5 -11 230.298 10.3071   4
   5   5 -11 215.850 9.44233  14
  -5   5  11 223.330 10.8828   1
  -5   5  11 225.222 8.27490  12
  -5   5  11 225.576 9.91064   9
  -3  -5  11 187.532 8.47042   1
  -3  -5  11 187.557 7.80677  12
  -3  -5  11 180.185 7.96197   6
   3  -5 -11 179.525 8.19567  14
   3  -5 -11 185.147 8.76894   4
  -3   5  11 199.524 10.3279   1
   3   5 -11 182.062 9.09248   7
   3   5 -11 194.331 9.50138   4
  -3   5  11 180.862 9.41850   9
   3   5 -11 192.328 9.18402  14
  -3   5  11 178.829 7.40886  12
   1  -5 -11 198.252 8.88150   2
   1  -5 -11 205.089 9.15454  14
  -1  -5  11 204.339 8.14407   6
   1   5 -11 197.782 9.80024   4
  -1   5  11 201.942 10.4899   1
   1   5 -11 203.660 9.34626  14
  -1   5  11 210.196 10.6389   9
  -1   5  11 196.733 8.31520  12
  -8  -6  11 0.97847 1.43762  12
  -8  -6  11 3.34545 2.76182   1
   8  -6 -11 1.60579 2.50356   1
  -8   6  11 0.30646 2.33867   9
   8   6 -11 6.21851 3.23165   7
  -6  -6  11 50.4750 4.66760  12
  -6  -6  11 43.9607 4.66553   6
  -6  -6  11 46.2050 5.34237   1
   6  -6 -11 47.5361 5.40497   1
   6  -6 -11 58.0793 5.12977  14
  -6   6  11 51.9774 5.65217   1
   6   6 -11 47.6616 4.95948  14
  -6   6  11 51.4600 5.36875   9
   6   6 -11 44.7065 5.72540   7
   6   6 -11 65.0272 6.08472   4
   4  -6 -11 51.8453 5.35573   4
  -4  -6  11 53.7034 5.16948   1
   4  -6 -11 61.8168 5.31659  14
  -4  -6  11 52.8876 4.65981   6
  -4   6  11 49.2044 5.57328   1
   4   6 -11 51.5143 6.00264   4
  -4   6  11 52.7972 5.51614   9
   4   6 -11 50.6814 5.59105   7
   4   6 -11 53.9556 4.93369  14
   2  -6 -11 25.2641 3.97446  14
  -2  -6  11 34.9213 3.95837   6
  -2  -6  11 29.5752 3.43094   1
  -2   6  11 37.0171 4.00258  12
   2   6 -11 30.0219 4.23477  14
   2   6 -11 37.1190 4.75609   7
  -2   6  11 29.6231 4.97853   1
   2   6 -11 31.2120 4.68541   4
  -2   6  11 35.8804 5.33863   9
  -7  -7  11 132.993 8.74964   1
  -7  -7  11 102.275 9.12981  12
   7  -7 -11 131.900 8.65552   1
   7   7 -11 128.917 8.20980   4
  -7   7  11 128.236 8.02802   9
   7   7 -11 116.205 7.98654   7
  -5  -7  11 438.437 14.9794   1
  -5  -7  11 440.291 14.0002   6
   5   7 -11 447.473 15.7781   4
   5   7 -11 409.978 15.5035   7
  -5   7  11 430.872 15.7421   1
   5   7 -11 440.571 14.5205  14
  -5   7  11 431.117 15.1354   9
  -3  -7  11 157.497 7.59381   6
   3  -7 -11 148.301 8.08319   4
   3  -7 -11 151.193 8.07236  14
  -3  -7  11 148.193 7.57398   1
   3   7 -11 157.914 9.16824   7
   3   7 -11 153.881 8.73495   4
   3   7 -11 166.280 8.65544  14
  -3   7  11 138.656 8.56761   9
  -3   7  11 147.531 9.40414   1
  -4  -8  11 67.1459 5.38428   6
   4  -8 -11 57.2167 5.22059   4
  -4  -8  11 65.7096 5.46527   1
   4  -8 -11 54.3783 5.25341  14
  -4   8  11 68.2884 6.75080   9
   4   8 -11 73.2784 6.82084   4
   4   8 -11 66.0540 6.77192   7
  -4   8  11 70.4670 6.94484   1
  10   0 -12 14.4753 3.15318   4
 -10   0  12 7.49445 2.54868   1
 -10   0  12 5.80299 2.03696  12
  -8   0  12 880.256 21.2729  12
  -8   0  12 854.640 24.1813   1
  -8   0  12 866.551 21.9594   9
   8   0 -12 888.263 23.5632   4
   8   0 -12 861.528 23.9549   7
  -6   0  12 29.2627 4.59956   1
   6   0 -12 25.7789 3.80239   7
  -6   0  12 35.6751 3.81868  12
   6   0 -12 31.1242 3.76790  14
   6   0 -12 27.7690 4.32688   4
  -6   0  12 23.7926 3.48658   9
   4   0 -12 834.133 21.9207   4
  -4   0  12 855.213 23.0468   1
   4   0 -12 806.495 21.0921   2
  -4   0  12 786.037 20.9806   9
  -4   0  12 857.637 21.0762  12
   4   0 -12 838.728 21.5247  14
  -4   0  12 851.046 21.2754   6
   2   0 -12 3.51512 2.54105   2
  -2   0  12 1.84407 1.64355  12
  -2   0  12 7.34167 2.65341   1
  -2   0  12 4.89048 2.57638   9
  -2   0  12 2.74987 2.00553   6
   2   0 -12 2.55222 2.29544   4
   2   0 -12 6.45442 2.74562  14
   0   0 -12 626.393 19.6449   2
   0   0  12 693.962 18.1748   6
   0   0  12 653.059 18.6373  12
   0   0  12 669.753 18.0896   1
   0   0 -12 610.787 17.9383  14
   9  -1 -12 17.5242 3.43382   4
  -9  -1  12 16.0905 3.40991   1
  -9  -1  12 18.8918 2.92221  12
  -9   1  12 16.2876 3.07741  12
   9   1 -12 11.7346 3.58857   7
  -9   1  12 16.0284 3.78963   1
   9   1 -12 11.3171 3.37424   4
  -9   1  12 13.3590 3.08861   9
   7  -1 -12 72.5836 5.79653   4
   7  -1 -12 78.9750 6.27008   7
  -7  -1  12 83.4558 6.93561   1
  -7  -1  12 83.9511 5.59706  12
  -7   1  12 78.7937 6.82352   1
   7   1 -12 79.2702 6.52084   7
   7   1 -12 81.4310 6.53566   4
  -7   1  12 82.7335 6.01252   9
  -7   1  12 80.7825 5.09130  12
   5  -1 -12 83.1843 5.81069  14
  -5  -1  12 82.1815 5.70871  12
  -5  -1  12 75.8234 5.37495   6
   5  -1 -12 75.5843 6.11225   4
  -5  -1  12 80.6378 6.69265   1
  -5   1  12 84.3447 5.28711  12
  -5   1  12 84.0453 6.06892   9
  -5   1  12 89.6459 7.01928   1
   5   1 -12 77.3223 5.80068   4
   5   1 -12 77.6954 5.37692  14
   5   1 -12 74.6623 5.57437   7
  -3  -1  12 9.59647 2.45506   1
   3  -1 -12 13.6929 3.21682   4
  -3  -1  12 11.5376 2.91385  12
   3  -1 -12 12.5154 3.01728   2
   3  -1 -12 12.4363 2.68748  14
  -3  -1  12 14.1943 2.98409   6
  -3   1  12 11.0323 3.06649   9
   3   1 -12 9.60796 2.93113  14
   3   1 -12 6.82082 2.78194   4
  -3   1  12 15.3934 3.25162  12
  -3   1  12 12.6289 2.95303   1
   3   1 -12 12.4849 3.19863   2
  -3   1  12 13.9584 3.00355   6
   1  -1 -12 75.8799 5.56504  14
   1  -1 -12 74.9809 6.42603   2
  -1  -1  12 76.0362 5.87177  12
  -1  -1  12 73.1489 5.43153   1
   1  -1 -12 78.6341 5.88378   4
  -1  -1  12 72.1580 5.35488   6
  -1   1  12 66.2371 5.39209   6
   1   1 -12 79.2150 6.11630  14
  -1   1  12 70.8739 5.70384   1
   1   1 -12 72.5893 5.95515   4
   1   1 -12 71.2607 5.95502   2
  -1   1  12 70.5607 6.53548   9
  -1   1  12 73.5372 5.76537  12
 -10  -2  12 193.194 10.3342   1
  10  -2 -12 180.139 9.81470   4
 -10  -2  12 188.604 8.40859  12
  10  -2 -12 175.651 10.0756   1
 -10   2  12 181.166 7.88120  12
  10   2 -12 170.378 10.1892   7
 -10   2  12 182.470 8.78872   9
   8  -2 -12 334.953 13.2788   4
  -8  -2  12 342.854 13.9988   1
  -8  -2  12 338.876 11.5547  12
   8   2 -12 333.619 12.7553   4
  -8   2  12 345.182 11.2595  12
  -8   2  12 360.505 13.9301   1
  -8   2  12 354.912 12.6779   9
   8   2 -12 327.233 13.6599   7
   6  -2 -12 370.046 12.4359  14
  -6  -2  12 396.565 14.6293   1
  -6  -2  12 387.402 12.4672  12
   6  -2 -12 381.067 13.8560   4
  -6   2  12 401.174 14.8223   1
   6   2 -12 386.764 13.9716   7
   6   2 -12 380.838 12.3823  14
  -6   2  12 385.884 13.2137   9
  -6   2  12 397.334 12.1512  12
   6   2 -12 388.670 13.8824   4
  -4  -2  12 311.898 12.2296   1
   4  -2 -12 293.121 10.9484  14
   4  -2 -12 302.551 11.7651   4
  -4  -2  12 307.110 11.0526   6
  -4  -2  12 296.527 10.8219  12
   4   2 -12 301.692 11.9921   4
  -4   2  12 312.468 12.8832   1
  -4   2  12 297.084 11.5861   9
  -4   2  12 307.914 10.6554  12
   4   2 -12 311.827 11.6390  14
  -2  -2  12 285.664 10.9198  12
   2  -2 -12 277.753 10.9388   4
  -2  -2  12 303.143 10.7438   6
  -2  -2  12 291.255 11.1558   1
   2  -2 -12 286.820 11.2049   2
   2  -2 -12 298.452 11.3606  14
  -2   2  12 281.453 12.0544   9
   2   2 -12 284.227 11.7586   2
  -2   2  12 285.735 10.9370  12
  -2   2  12 294.730 11.9857   1
   2   2 -12 278.423 11.2359  14
   2   2 -12 281.883 11.2792   4
   0  -2 -12 88.1796 6.84759   2
   0  -2  12 89.2328 5.91040   6
   0  -2  12 75.9434 5.63775  12
   0  -2 -12 85.2990 5.95003  14
   0   2  12 84.8913 6.23689   1
   0   2 -12 87.4050 6.43148  14
   0   2  12 90.7998 6.09170  12
   0   2  12 82.0310 6.03478   6
   0   2 -12 77.5146 6.34271   2
   9  -3 -12 55.8146 6.32604   4
  -9  -3  12 54.6704 5.02668  12
  -9  -3  12 69.1505 6.69358   1
   9  -3 -12 60.0620 5.82641   1
  -9   3  12 54.1502 5.36985   1
   9   3 -12 56.0552 5.69435   4
  -9   3  12 61.9097 5.70211   9
  -9   3  12 51.5751 4.55931  12
   9   3 -12 48.8223 6.05253   7
  -7  -3  12 11.0235 2.87145   1
  -7  -3  12 9.47995 2.75067  12
   7  -3 -12 11.0989 3.38396   4
  -7   3  12 8.77576 2.53966   9
  -7   3  12 14.1105 3.44866   1
  -7   3  12 12.4452 2.79343  12
   7   3 -12 16.5156 3.92665   7
  -5  -3  12 13.5362 3.07772   1
   5  -3 -12 9.96792 2.65390   4
   5  -3 -12 12.4982 2.99638  14
  -5  -3  12 11.5304 2.93201  12
  -5  -3  12 7.47312 2.39621   6
  -5   3  12 9.23567 2.60894   9
  -5   3  12 7.17390 2.44521  12
   5   3 -12 8.56531 2.79314   7
  -5   3  12 9.81806 2.86466   1
   5   3 -12 8.22269 2.96477   4
   5   3 -12 10.5658 2.72680  14
  -3  -3  12 42.1003 4.53801   6
  -3  -3  12 41.4731 4.26451   1
   3  -3 -12 46.0009 4.37716  14
  -3  -3  12 38.8614 4.42520  12
   3  -3 -12 38.4505 4.81729   4
  -3   3  12 47.2942 5.58771   1
  -3   3  12 41.5724 4.48231  12
   3   3 -12 39.0567 5.19021   4
  -3   3  12 40.7026 5.09321   9
   3   3 -12 42.7933 4.67995  14
  -1  -3  12 2.29791 2.19886  12
  -1  -3  12 0.77024 1.74926   6
   1  -3 -12 1.50607 2.20096  14
   1  -3 -12 2.84057 2.36750   2
  -1   3  12 3.16307 2.55328   1
   1   3 -12 2.28316 1.78494  14
  -1   3  12 1.27056 2.07715   6
  -1   3  12 3.34908 2.38914  12
   1   3 -12 2.15591 2.37428   4
  -1   3  12 2.13246 2.87770   9
  -8  -4  12 19.4707 3.44199  12
   8  -4 -12 34.9385 5.12565   4
  -8  -4  12 26.4756 4.30967   1
   8  -4 -12 34.3182 4.64753   1
  -8   4  12 35.6767 5.01029   1
  -8   4  12 25.5830 3.25090  12
   8   4 -12 28.9110 4.78318   7
  -8   4  12 34.5692 4.63084   9
   8   4 -12 35.6277 5.08718   4
  -6  -4  12 376.833 13.9536   1
   6  -4 -12 335.574 12.0652  14
  -6  -4  12 365.260 12.1148  12
   6  -4 -12 356.308 13.4452   4
  -6   4  12 374.292 14.4187   1
   6   4 -12 366.648 13.8384   4
   6   4 -12 356.136 13.4303   7
  -6   4  12 349.101 12.9753   9
  -6   4  12 344.340 10.9210  12
  -4  -4  12 19.7657 3.50358  12
  -4  -4  12 25.8233 3.76823   6
  -4  -4  12 19.7949 3.40595   1
   4  -4 -12 17.9395 3.26308   4
   4  -4 -12 24.8042 3.81677  14
   4   4 -12 22.4857 4.16048   4
  -4   4  12 28.3622 4.67595   9
  -4   4  12 25.1737 3.28368  12
   4   4 -12 22.0246 3.47003  14
   4   4 -12 23.5948 3.90431   7
  -4   4  12 43.4302 5.40372   1
   2  -4 -12 469.663 14.9326  14
  -2  -4  12 436.687 13.7900  12
  -2  -4  12 443.542 13.8042   1
  -2  -4  12 452.757 13.6196   6
   2  -4 -12 444.569 14.3314   4
  -2   4  12 436.336 15.7161   9
   2   4 -12 437.178 15.2533   4
   2   4 -12 460.035 15.1123  14
  -2   4  12 427.394 13.6857  12
  -2   4  12 451.748 16.1143   1
  -7  -5  12 1.07574 1.61885  12
  -7  -5  12 0.59127 1.81655   1
   7  -5 -12 -1.3894 2.43254   4
  -7   5  12 3.09420 2.83330   1
   7   5 -12 3.88938 2.91146   7
   7   5 -12 -1.2742 2.40246   4
  -7   5  12 2.04159 1.95647   9
  -5  -5  12 4.85077 2.38905  12
   5  -5 -12 4.70640 2.71316   4
  -5  -5  12 3.93699 2.25796   6
  -5  -5  12 4.18300 2.11993   1
   5  -5 -12 5.27201 2.00411  14
  -5   5  12 4.52859 2.02109  12
  -5   5  12 7.29818 3.01167   9
   5   5 -12 7.02144 2.67326  14
   5   5 -12 4.00784 2.88651   7
  -5   5  12 5.51357 2.53229   1
   5   5 -12 2.92624 2.16358   4
   3  -5 -12 26.4088 3.97277   4
   3  -5 -12 33.7086 4.34783  14
  -3  -5  12 33.3410 4.12873   6
  -3  -5  12 28.4837 3.83779   1
   3   5 -12 33.6217 4.54229   4
   3   5 -12 33.5650 4.34157  14
  -3   5  12 43.4720 5.83496   1
  -3   5  12 28.7516 4.67084   9
  -3   5  12 30.7880 3.60074  12
  -6  -6  12 78.3829 6.69437   1
   6  -6 -12 83.7902 6.88683   4
  -6  -6  12 76.4790 5.13054  12
  -6   6  12 88.8307 7.37291   1
   6   6 -12 84.1132 6.57514   4
   6   6 -12 80.8209 7.05715   7
  -6   6  12 78.3117 6.68353   9
   4  -6 -12 519.871 15.9413  14
  -4  -6  12 520.732 16.2201   1
  -4  -6  12 499.851 14.8176  12
  -4  -6  12 514.468 15.5043   6
  -4   6  12 521.322 18.3590   1
  -4   6  12 490.013 16.9298   9
   4   6 -12 528.509 17.5326   4
   4   6 -12 537.749 16.9141  14
   8   0 -13 6.91431 2.61387   4
  -8   0  13 -0.4024 1.69218   1
   8   0 -13 0.52527 2.39094   7
  -8   0  13 0.35629 2.22301  12
  -6   0  13 -0.0253 2.35221   1
  -6   0  13 1.03861 2.02013  12
   6   0 -13 1.65525 1.60836  14
   6   0 -13 0.26872 1.74551   4
   4   0 -13 -1.1959 2.10583   4
  -4   0  13 2.02186 2.38557   1
   4   0 -13 0.45330 2.16756  14
  -4   0  13 0.58238 2.24536  12
  -4   0  13 -0.7870 1.79196   6
  -7  -1  13 431.633 15.8641   1
  -7  -1  13 396.994 13.3009  12
   7  -1 -13 418.054 15.1438   4
   7   1 -13 430.714 15.3004   4
   7   1 -13 447.494 15.5196   7
  -7   1  13 408.548 13.0051  12
  -7   1  13 408.742 14.1776   9
  -7   1  13 434.901 16.2042   1
  -5  -1  13 61.5172 6.20491   1
  -5  -1  13 53.6029 5.28814  12
   5  -1 -13 45.9987 5.18638   4
   5   1 -13 52.9483 5.38525  14
   5   1 -13 53.1135 5.02891   4
  -5   1  13 57.9302 5.32256  12
  -5   1  13 47.0271 5.43882   9
  -5   1  13 55.7325 6.09281   1
   3  -1 -13 391.835 13.5606  14
  -3  -1  13 412.476 13.6236   6
   3  -1 -13 389.557 13.8413   4
   3  -1 -13 384.801 13.5549   2
  -3  -1  13 400.348 13.6243  12
  -3   1  13 397.358 13.3856  12
  -3   1  13 403.297 13.6539   6
  -3   1  13 368.497 13.8411   9
  -3   1  13 416.097 14.8664   1
   3   1 -13 403.753 14.0326  14
   3   1 -13 401.913 14.0512   4
  -8  -2  13 122.856 7.06054  12
  -8  -2  13 128.140 8.35642   1
   8  -2 -13 115.085 9.01144   7
   8  -2 -13 123.300 7.77239   4
   8   2 -13 132.914 8.38625   4
  -8   2  13 114.455 6.62110  12
   8   2 -13 131.888 8.73266   7
  -8   2  13 119.794 8.03397   1
  -6  -2  13 125.428 7.19117  12
   6  -2 -13 93.4869 10.3769  14
   6  -2 -13 117.063 7.70905   4
  -6  -2  13 129.585 8.55647   1
   6   2 -13 116.197 6.71461  14
  -6   2  13 131.650 8.53070   1
  -6   2  13 126.553 6.92878  12
   6   2 -13 110.892 7.29175   7
  -6   2  13 109.773 7.29867   9
   6   2 -13 116.069 7.95322   4
  -4  -2  13 148.537 8.60455   1
  -4  -2  13 141.010 7.63785   6
  -4  -2  13 152.808 8.17352  12
   4  -2 -13 145.624 7.78978  14
  -4   2  13 148.931 8.71351   9
  -4   2  13 148.977 7.54603  12
   4   2 -13 143.156 8.51161   4
  -4   2  13 154.394 9.45305   1
   4   2 -13 143.494 7.85568  14
   7  -3 -13 112.889 7.88341   4
  -7  -3  13 114.121 8.18706   1
  -7  -3  13 120.510 7.02175  12
  -7   3  13 116.004 6.52384  12
  -7   3  13 118.906 8.33559   1
   7   3 -13 119.475 7.62096   4
  -7   3  13 111.356 7.55559   9
  -5  -3  13 273.519 10.5921  12
  -5  -3  13 294.151 12.3663   1
  -5  -3  13 290.484 11.2152   6
   5   3 -13 295.404 12.4281   4
  -5   3  13 285.375 13.0909   1
  -5   3  13 274.199 11.8566   9
  -5   3  13 298.586 10.6392  12
   5   3 -13 289.843 11.4295  14
  -6   4  13 3.82566 2.79337   9
   0   0   0    0.00    0.00   0

 _exptl_absorpt_process_details
)
 SADABS 2016/2: Krause, L., Herbst-Irmer, R., Sheldrick G.M. & Stalke D.,
 J. Appl. Cryst. 48 (2015) 3-10
)
 _exptl_absorpt_correction_type   multi-scan
 _exptl_absorpt_correction_T_max  0.7479
 _exptl_absorpt_correction_T_min  0.5831
 _exptl_special_details
)
 The following wavelength and cell were deduced by SADABS from the
 direction cosines etc. They are given here for emergency use only:
 CELL 0.71061    6.965    7.583    7.471   90.007  116.364   90.004
)

;
_shelx_hkl_checksum              78608
loop_
_space_group_symop_operation_xyz
'x, y, z'
'-x, y, -z+1/2'
'x+1/2, y+1/2, z'
'-x+1/2, y+1/2, -z+1/2'
'-x, -y, -z'
'x, -y, z-1/2'
'-x+1/2, -y+1/2, -z'
'x+1/2, -y+1/2, z-1/2'
loop_
_atom_site_label
_atom_site_type_symbol
_atom_site_fract_x
_atom_site_fract_y
_atom_site_fract_z
_atom_site_U_iso_or_equiv
_atom_site_adp_type
_atom_site_occupancy
_atom_site_site_symmetry_order
_atom_site_calc_flag
_atom_site_refinement_flags_posn
_atom_site_refinement_flags_adp
_atom_site_refinement_flags_occupancy
_atom_site_disorder_assembly
_atom_site_disorder_group
Co Co 0.000000 0.500000 0.000000 0.00773(4) Uani 1 2 d S . P . .
S S 0.000000 0.15349(3) 0.250000 0.00676(4) Uani 1 2 d S T P . .
O1 O 0.17268(8) 0.04243(8) 0.39981(8) 0.01420(9) Uani 1 1 d . . . . .
O2 O 0.09640(8) 0.26637(7) 0.15370(8) 0.01236(8) Uani 1 1 d . . . . .
O3 O 0.000000 0.63871(10) 0.250000 0.01098(10) Uani 1 2 d S T P . .
H H 0.101(2) 0.704(2) 0.295(2) 0.031(4) Uiso 1 1 d . . . . .
loop_
_atom_site_aniso_label
_atom_site_aniso_U_11
_atom_site_aniso_U_22
_atom_site_aniso_U_33
_atom_site_aniso_U_23
_atom_site_aniso_U_13
_atom_site_aniso_U_12
Co 0.00722(5) 0.00778(5) 0.00821(5) 0.00052(3) 0.00373(4) -0.00010(3)
S 0.00542(7) 0.00632(7) 0.00835(7) 0.000 0.00315(5) 0.000
O1 0.00875(17) 0.0160(2) 0.0166(2) 0.00796(17) 0.00506(15) 0.00400(15)
O2 0.01246(18) 0.01089(18) 0.01701(19) 0.00524(15) 0.00970(16) 0.00190(14)
O3 0.0112(2) 0.0117(3) 0.0108(2) 0.000 0.0058(2) 0.000
loop_
_atom_type_symbol
_atom_type_description
_atom_type_scat_dispersion_real
_atom_type_scat_dispersion_imag
_atom_type_scat_source
O O 0.0106 0.0060 'International Tables Vol C Tables 4.2.6.8 and 6.1.1.4'
H H 0.0000 0.0000 'International Tables Vol C Tables 4.2.6.8 and 6.1.1.4'
S S 0.1246 0.1234 'International Tables Vol C Tables 4.2.6.8 and 6.1.1.4'
Co Co 0.3494 0.9721 'International Tables Vol C Tables 4.2.6.8 and 6.1.1.4'
loop_
_geom_angle_atom_site_label_1
_geom_angle_atom_site_label_2
_geom_angle_atom_site_label_3
_geom_angle
_geom_angle_site_symmetry_1
_geom_angle_site_symmetry_3
_geom_angle_publ_flag
O2 Co O2 180.0 5_565 . ?
O2 Co O1 85.48(2) 5_565 8_455 ?
O2 Co O1 94.52(2) . 8_455 ?
O2 Co O1 94.52(2) 5_565 4 ?
O2 Co O1 85.48(2) . 4 ?
O1 Co O1 180.0 8_455 4 ?
O2 Co O3 93.08(2) 5_565 5_565 ?
O2 Co O3 86.92(2) . 5_565 ?
O1 Co O3 93.684(18) 8_455 5_565 ?
O1 Co O3 86.316(18) 4 5_565 ?
O2 Co O3 86.92(2) 5_565 . ?
O2 Co O3 93.08(2) . . ?
O1 Co O3 86.316(18) 8_455 . ?
O1 Co O3 93.684(18) 4 . ?
O3 Co O3 180.0 5_565 . ?
O2 Co O2 81.698(14) 5_565 4 ?
O2 Co O2 98.301(14) . 4 ?
O1 Co O2 136.955(18) 8_455 4 ?
O1 Co O2 43.045(18) 4 4 ?
O3 Co O2 127.781(13) 5_565 4 ?
O3 Co O2 52.219(13) . 4 ?
O2 Co O2 98.302(13) 5_565 8_455 ?
O2 Co O2 81.699(13) . 8_455 ?
O1 Co O2 43.045(18) 8_455 8_455 ?
O1 Co O2 136.955(18) 4 8_455 ?
O3 Co O2 52.219(13) 5_565 8_455 ?
O3 Co O2 127.781(13) . 8_455 ?
O2 Co O2 180.0 4 8_455 ?
O2 Co O2 137.655(19) 5_565 2 ?
O2 Co O2 42.345(19) . 2 ?
O1 Co O2 67.76(2) 8_455 2 ?
O1 Co O2 112.24(2) 4 2 ?
O3 Co O2 119.78(2) 5_565 2 ?
O3 Co O2 60.22(2) . 2 ?
O2 Co O2 95.693(16) 4 2 ?
O2 Co O2 84.308(16) 8_455 2 ?
O2 Co O2 42.345(19) 5_565 6_565 ?
O2 Co O2 137.655(19) . 6_565 ?
O1 Co O2 112.24(2) 8_455 6_565 ?
O1 Co O2 67.76(2) 4 6_565 ?
O3 Co O2 60.22(2) 5_565 6_565 ?
O3 Co O2 119.78(2) . 6_565 ?
O2 Co O2 84.307(16) 4 6_565 ?
O2 Co O2 95.692(16) 8_455 6_565 ?
O2 Co O2 180.000(15) 2 6_565 ?
O1 S O1 109.83(5) . 2 ?
O1 S O2 108.71(3) . . ?
O1 S O2 110.07(3) 2 . ?
O1 S O2 110.07(3) . 2 ?
O1 S O2 108.71(3) 2 2 ?
O2 S O2 109.45(4) . 2 ?
S O1 Co 136.98(3) . 4_545 ?
S O1 O2 35.885(18) . . ?
Co O1 O2 101.11(3) 4_545 . ?
S O1 O1 35.09(3) . 2 ?
Co O1 O1 141.58(4) 4_545 2 ?
O2 O1 O1 60.52(2) . 2 ?
S O1 O2 35.197(19) . 2 ?
Co O1 O2 143.79(3) 4_545 2 ?
O2 O1 O2 60.41(3) . 2 ?
O1 O1 O2 59.68(2) 2 2 ?
S O1 O2 129.32(4) . 4_545 ?
Co O1 O2 47.216(16) 4_545 4_545 ?
O2 O1 O2 110.16(2) . 4_545 ?
O1 O1 O2 104.29(3) 2 4_545 ?
O2 O1 O2 163.61(3) 2 4_545 ?
S O1 O3 169.10(4) . 7_556 ?
Co O1 O3 48.624(13) 4_545 7_556 ?
O2 O1 O3 147.18(3) . 7_556 ?
O1 O1 O3 150.10(2) 2 7_556 ?
O2 O1 O3 133.95(3) 2 7_556 ?
O2 O1 O3 61.578(19) 4_545 7_556 ?
S O1 O2 114.24(3) . 8_556 ?
Co O1 O2 42.707(16) 4_545 8_556 ?
O2 O1 O2 86.80(2) . 8_556 ?
O1 O1 O2 147.08(2) 2 8_556 ?
O2 O1 O2 102.28(3) 2 8_556 ?
O2 O1 O2 89.92(2) 4_545 8_556 ?
O3 O1 O2 62.56(2) 7_556 8_556 ?
S O1 O3 92.97(3) . 3_545 ?
Co O1 O3 44.725(14) 4_545 3_545 ?
O2 O1 O3 57.88(2) . 3_545 ?
O1 O1 O3 103.25(3) 2 3_545 ?
O2 O1 O3 114.99(3) 2 3_545 ?
O2 O1 O3 62.79(2) 4_545 3_545 ?
O3 O1 O3 93.35(2) 7_556 3_545 ?
O2 O1 O3 56.943(17) 8_556 3_545 ?
S O1 O2 124.96(3) . 6_556 ?
Co O1 O2 97.77(2) 4_545 6_556 ?
O2 O1 O2 160.48(3) . 6_556 ?
O1 O1 O2 101.11(2) 2 6_556 ?
O2 O1 O2 105.82(2) 2 6_556 ?
O2 O1 O2 79.42(2) 4_545 6_556 ?
O3 O1 O2 52.288(17) 7_556 6_556 ?
O2 O1 O2 110.73(2) 8_556 6_556 ?
O3 O1 O2 138.90(2) 3_545 6_556 ?
S O1 O3 103.70(3) . 1_545 ?
Co O1 O3 98.04(2) 4_545 1_545 ?
O2 O1 O3 118.74(3) . 1_545 ?
O1 O1 O3 68.614(11) 2 1_545 ?
O2 O1 O3 118.07(2) 2 1_545 ?
O2 O1 O3 52.456(17) 4_545 1_545 ?
O3 O1 O3 82.796(19) 7_556 1_545 ?
O2 O1 O3 138.91(2) 8_556 1_545 ?
O3 O1 O3 107.68(2) 3_545 1_545 ?
O2 O1 O3 52.954(15) 6_556 1_545 ?
S O1 O2 111.26(3) . 7_556 ?
Co O1 O2 77.33(2) 4_545 7_556 ?
O2 O1 O2 108.12(3) . 7_556 ?
O1 O1 O2 138.55(3) 2 7_556 ?
O2 O1 O2 79.76(2) 2 7_556 ?
O2 O1 O2 116.59(2) 4_545 7_556 ?
O3 O1 O2 58.71(2) 7_556 7_556 ?
O2 O1 O2 44.555(19) 8_556 7_556 ?
O3 O1 O2 101.26(2) 3_545 7_556 ?
O2 O1 O2 80.799(17) 6_556 7_556 ?
O3 O1 O2 132.805(19) 1_545 7_556 ?
S O2 Co 132.83(3) . . ?
S O2 O1 35.409(18) . . ?
Co O2 O1 161.66(3) . . ?
S O2 O1 34.731(19) . 2 ?
Co O2 O1 119.68(3) . 2 ?
O1 O2 O1 59.79(3) . 2 ?
S O2 O2 35.27(2) . 2 ?
Co O2 O2 102.825(19) . 2 ?
O1 O2 O2 60.21(2) . 2 ?
O1 O2 O2 59.38(2) 2 2 ?
S O2 O3 108.42(3) . 3_545 ?
Co O2 O3 118.33(2) . 3_545 ?
O1 O2 O3 73.95(2) . 3_545 ?
O1 O2 O3 114.45(3) 2 3_545 ?
O2 O2 O3 129.69(3) 2 3_545 ?
S O2 O1 159.55(3) . 4 ?
Co O2 O1 47.300(18) . 4 ?
O1 O2 O1 136.09(2) . 4 ?
O1 O2 O1 163.61(3) 2 4 ?
O2 O2 O1 128.057(19) 2 4 ?
O3 O2 O1 73.27(2) 3_545 4 ?
S O2 O3 137.53(3) . 5_565 ?
Co O2 O3 48.346(17) . 5_565 ?
O1 O2 O3 148.98(3) . 5_565 ?
O1 O2 O3 103.18(3) 2 5_565 ?
O2 O2 O3 136.77(3) 2 5_565 ?
O3 O2 O3 93.36(2) 3_545 5_565 ?
O1 O2 O3 61.064(19) 4 5_565 ?
S O2 O1 93.39(3) . 8_455 ?
Co O2 O1 42.778(15) . 8_455 ?
O1 O2 O1 128.74(3) . 8_455 ?
O1 O2 O1 77.72(3) 2 8_455 ?
O2 O2 O1 74.48(3) 2 8_455 ?
O3 O2 O1 155.74(2) 3_545 8_455 ?
O1 O2 O1 90.08(2) 4 8_455 ?
O3 O2 O1 62.791(18) 5_565 8_455 ?
S O2 O3 102.08(3) . . ?
Co O2 O3 45.078(14) . . ?
O1 O2 O3 117.13(3) . . ?
O1 O2 O3 116.46(2) 2 . ?
O2 O2 O3 66.802(11) 2 . ?
O3 O2 O3 125.34(2) 3_545 . ?
O1 O2 O3 63.416(18) 4 . ?
O3 O2 O3 93.424(18) 5_565 . ?
O1 O2 O3 56.818(15) 8_455 . ?
S O2 O1 97.01(3) . 6 ?
Co O2 O1 112.63(2) . 6 ?
O1 O2 O1 85.298(19) . 6 ?
O1 O2 O1 74.18(2) 2 6 ?
O2 O2 O1 131.350(17) 2 6 ?
O3 O2 O1 57.338(18) 3_545 6 ?
O1 O2 O1 100.58(2) 4 6 ?
O3 O2 O1 64.35(2) 5_565 6 ?
O1 O2 O1 110.73(2) 8_455 6 ?
O3 O2 O1 157.56(2) . 6 ?
S O2 O1 81.71(3) . 7_556 ?
Co O2 O1 94.27(2) . 7_556 ?
O1 O2 O1 71.88(3) . 7_556 ?
O1 O2 O1 115.82(3) 2 7_556 ?
O2 O2 O1 60.97(2) 2 7_556 ?
O3 O2 O1 87.02(2) 3_545 7_556 ?
O1 O2 O1 78.015(18) 4 7_556 ?
O3 O2 O1 136.86(2) 5_565 7_556 ?
O1 O2 O1 107.05(2) 8_455 7_556 ?
O3 O2 O1 53.691(14) . 7_556 ?
O1 O2 O1 142.21(2) 6 7_556 ?
Co O3 Co 122.25(3) . 2 ?
Co O3 O2 88.550(14) . 4 ?
Co O3 O2 111.638(15) 2 4 ?
Co O3 O2 111.637(15) . 3_455 ?
Co O3 O2 88.551(14) 2 3_455 ?
O2 O3 O2 138.34(4) 4 3_455 ?
Co O3 O1 45.059(15) . 8_455 ?
Co O3 O1 104.38(3) 2 8_455 ?
O2 O3 O1 132.307(18) 4 8_455 ?
O2 O3 O1 70.374(19) 3_455 8_455 ?
Co O3 O1 104.38(3) . 7_556 ?
Co O3 O1 45.060(15) 2 7_556 ?
O2 O3 O1 70.374(19) 4 7_556 ?
O2 O3 O1 132.308(17) 3_455 7_556 ?
O1 O3 O1 123.39(4) 8_455 7_556 ?
Co O3 O2 161.65(3) . 6_566 ?
Co O3 O2 44.738(13) 2 6_566 ?
O2 O3 O2 86.64(2) 4 6_566 ?
O2 O3 O2 83.263(18) 3_455 6_566 ?
O1 O3 O2 140.704(18) 8_455 6_566 ?
O1 O3 O2 57.357(18) 7_556 6_566 ?
Co O3 O2 44.738(13) . 5_565 ?
Co O3 O2 161.65(3) 2 5_565 ?
O2 O3 O2 83.263(18) 4 5_565 ?
O2 O3 O2 86.64(2) 3_455 5_565 ?
O1 O3 O2 57.357(18) 8_455 5_565 ?
O1 O3 O2 140.704(18) 7_556 5_565 ?
O2 O3 O2 151.37(4) 6_566 5_565 ?
Co O3 O2 41.838(15) . . ?
Co O3 O2 81.80(2) 2 . ?
O2 O3 O2 94.318(15) 4 . ?
O2 O3 O2 125.34(2) 3_455 . ?
O1 O3 O2 60.62(2) 8_455 . ?
O1 O3 O2 67.60(2) 7_556 . ?
O2 O3 O2 120.95(2) 6_566 . ?
O2 O3 O2 86.576(18) 5_565 . ?
Co O3 O2 81.80(2) . 2 ?
Co O3 O2 41.838(15) 2 2 ?
O2 O3 O2 125.34(3) 4 2 ?
O2 O3 O2 94.318(15) 3_455 2 ?
O1 O3 O2 67.60(2) 8_455 2 ?
O1 O3 O2 60.62(2) 7_556 2 ?
O2 O3 O2 86.575(18) 6_566 2 ?
O2 O3 O2 120.95(2) 5_565 2 ?
O2 O3 O2 46.40(2) . 2 ?
Co O3 O1 121.31(2) . 3_455 ?
Co O3 O1 41.591(12) 2 3_455 ?
O2 O3 O1 146.618(17) 4 3_455 ?
O2 O3 O1 48.171(16) 3_455 3_455 ?
O1 O3 O1 80.461(18) 8_455 3_455 ?
O1 O3 O1 86.65(2) 7_556 3_455 ?
O2 O3 O1 60.266(17) 6_566 3_455 ?
O2 O3 O1 127.796(17) 5_565 3_455 ?
O2 O3 O1 98.98(2) . 3_455 ?
O2 O3 O1 53.796(16) 2 3_455 ?
Co O3 O1 41.591(11) . 4 ?
Co O3 O1 121.31(2) 2 4 ?
O2 O3 O1 48.171(16) 4 4 ?
O2 O3 O1 146.617(17) 3_455 4 ?
O1 O3 O1 86.65(2) 8_455 4 ?
O1 O3 O1 80.461(18) 7_556 4 ?
O2 O3 O1 127.796(17) 6_566 4 ?
O2 O3 O1 60.266(17) 5_565 4 ?
O2 O3 O1 53.796(16) . 4 ?
O2 O3 O1 98.98(2) 2 4 ?
O1 O3 O1 152.66(3) 3_455 4 ?
Co O3 H 108.1(12) . . ?
Co O3 H 107.1(11) 2 . ?
O2 O3 H 21.9(12) 4 . ?
O2 O3 H 118.9(12) 3_455 . ?
O1 O3 H 147.3(12) 8_455 . ?
O1 O3 H 75.6(11) 7_556 . ?
O2 O3 H 71.2(12) 6_566 . ?
O2 O3 H 90.7(12) 5_565 . ?
O2 O3 H 115.4(12) . . ?
O2 O3 H 136.2(11) 2 . ?
O1 O3 H 130.3(12) 3_455 . ?
O1 O3 H 69.5(12) 4 . ?
Co O3 H 107.1(11) . 2 ?
Co O3 H 108.1(12) 2 2 ?
O2 O3 H 118.9(12) 4 2 ?
O2 O3 H 21.9(12) 3_455 2 ?
O1 O3 H 75.6(11) 8_455 2 ?
O1 O3 H 147.3(12) 7_556 2 ?
O2 O3 H 90.7(12) 6_566 2 ?
O2 O3 H 71.2(12) 5_565 2 ?
O2 O3 H 136.2(11) . 2 ?
O2 O3 H 115.4(12) 2 2 ?
O1 O3 H 69.5(12) 3_455 2 ?
O1 O3 H 130.3(12) 4 2 ?
H O3 H 103(2) . 2 ?
loop_
_geom_bond_atom_site_label_1
_geom_bond_atom_site_label_2
_geom_bond_distance
_geom_bond_site_symmetry_2
_geom_bond_publ_flag
Co O2 2.0540(5) 5_565 ?
Co O2 2.0540(5) . ?
Co O1 2.0567(6) 8_455 ?
Co O1 2.0567(6) 4 ?
Co O3 2.1804(4) 5_565 ?
Co O3 2.1804(4) . ?
Co O2 3.4464(6) 4 ?
Co O2 3.4464(7) 8_455 ?
Co O2 3.5066(6) 2 ?
Co O2 3.5066(6) 6_565 ?
S O1 1.4665(5) . ?
S O1 1.4665(5) 2 ?
S O2 1.4836(5) . ?
S O2 1.4836(5) 2 ?
O1 O2 2.3974(7) . ?
O1 O1 2.4001(11) 2 ?
O1 O2 2.4177(8) 2 ?
O1 O2 2.7900(8) 4_545 ?
O1 O3 2.8997(7) 7_556 ?
O1 O2 3.0190(9) 8_556 ?
O1 O3 3.0920(7) 3_545 ?
O1 O2 3.2442(8) 6_556 ?
O1 O3 3.2910(10) 1_545 ?
O1 O2 3.3268(9) 7_556 ?
O2 O2 2.4225(10) 2 ?
O2 O3 2.7248(7) 3_545 ?
O2 O3 2.9140(7) 5_565 ?
O2 O3 3.0749(9) . ?
O3 H 0.796(16) . ?
O3 H 0.796(16) 2 ?
loop_
_geom_hbond_atom_site_label_D
_geom_hbond_atom_site_label_H
_geom_hbond_atom_site_label_A
_geom_hbond_distance_DH
_geom_hbond_distance_HA
_geom_hbond_distance_DA
_geom_hbond_angle_DHA
_geom_hbond_site_symmetry_A
_geom_hbond_publ_flag
O3 H O2 0.796(16) 2.008(15) 2.7248(7) 149.6(16) 4 yes
