#------------------------------------------------------------------------------
#$Date: 2021-11-30 12:40:32 +0200 (Tue, 30 Nov 2021) $
#$Revision: 270942 $
#$URL: file:///home/coder/svn-repositories/cod/cif/1/56/54/1565459.cif $
#------------------------------------------------------------------------------
#
# This file is available in the Crystallography Open Database (COD),
# http://www.crystallography.net/
#
# All data on this site have been placed in the public domain by the
# contributors.
#
data_1565459
loop_
_publ_author_name
'Tang, Haiming'
'Saunders, Graham C.'
'Ma, Xiaochuan'
'Henderson, William'
_publ_section_title
;
 Pyrrole thioamide complexes of the d8 metals platinum(II), palladium(II)
 and gold(III)
;
_journal_name_full               'Inorganica Chimica Acta'
_journal_page_first              119282
_journal_paper_doi               10.1016/j.ica.2019.119282
_journal_volume                  502
_journal_year                    2020
_chemical_formula_moiety         'C15 H17 N3 O2 S'
_chemical_formula_sum            'C15 H17 N3 O2 S'
_chemical_formula_weight         303.39
_space_group_crystal_system      triclinic
_space_group_IT_number           2
_space_group_name_Hall           '-P 1'
_space_group_name_H-M_alt        'P -1'
_symmetry_Int_Tables_number      2
_atom_sites_solution_primary     iterative
_cell_angle_alpha                89.096(5)
_cell_angle_beta                 79.418(6)
_cell_angle_gamma                82.735(5)
_cell_formula_units_Z            2
_cell_length_a                   6.9323(4)
_cell_length_b                   8.5240(6)
_cell_length_c                   12.5071(8)
_cell_measurement_reflns_used    3287
_cell_measurement_temperature    100.05(16)
_cell_measurement_theta_max      73.5010
_cell_measurement_theta_min      3.5700
_cell_volume                     720.63(8)
_computing_cell_refinement
;
CrysAlisPro, Agilent Technologies,
Version 1.171.36.28 (release 01-02-2013 CrysAlis171 .NET)
(compiled Feb  1 2013,16:14:44)
;
_computing_data_collection
;
CrysAlisPro, Agilent Technologies,
Version 1.171.36.28 (release 01-02-2013 CrysAlis171 .NET)
(compiled Feb  1 2013,16:14:44)
;
_computing_data_reduction
;
CrysAlisPro, Agilent Technologies,
Version 1.171.36.28 (release 01-02-2013 CrysAlis171 .NET)
(compiled Feb  1 2013,16:14:44)
;
_computing_molecular_graphics    'Olex2 (Dolomanov et al., 2009)'
_computing_publication_material  'Olex2 (Dolomanov et al., 2009)'
_computing_structure_refinement  'olex2.refine (Bourhis et al., 2015)'
_computing_structure_solution    'olex2.solve (Bourhis et al., 2015)'
_diffrn_ambient_temperature      100.05(16)
_diffrn_detector_area_resol_mean 10.7110
_diffrn_measured_fraction_theta_full 0.9556
_diffrn_measured_fraction_theta_max 0.9556
_diffrn_measurement_details
;
#__ type_ start__ end____ width___ exp.time_
  1 omega -109.00   -6.00   1.0000    1.0000
omega____ theta____ kappa____ phi______ frames
    -      -39.4945  -77.0000  120.0000 103

#__ type_ start__ end____ width___ exp.time_
  2 omega  -34.00   63.00   1.0000    1.0000
omega____ theta____ kappa____ phi______ frames
    -       39.4945  -57.0000 -150.0000 97

#__ type_ start__ end____ width___ exp.time_
  3 omega  -20.00   53.00   1.0000    1.0000
omega____ theta____ kappa____ phi______ frames
    -       39.4945  -37.0000  -60.0000 73

#__ type_ start__ end____ width___ exp.time_
  4 omega  -84.00  -13.00   1.0000    1.0000
omega____ theta____ kappa____ phi______ frames
    -      -83.0000   61.0000   90.0000 71

#__ type_ start__ end____ width___ exp.time_
  5 omega   29.00   69.00   1.0000    1.0000
omega____ theta____ kappa____ phi______ frames
    -      107.3169  -30.0000 -180.0000 40

#__ type_ start__ end____ width___ exp.time_
  6 omega   31.00   63.00   1.0000    1.0000
omega____ theta____ kappa____ phi______ frames
    -      107.3169  -30.0000    0.0000 32

#__ type_ start__ end____ width___ exp.time_
  7 omega   30.00   69.00   1.0000    1.0000
omega____ theta____ kappa____ phi______ frames
    -      107.3169  -30.0000   90.0000 39

#__ type_ start__ end____ width___ exp.time_
  8 omega   23.00  109.00   1.0000    1.0000
omega____ theta____ kappa____ phi______ frames
    -      107.3169  -94.0000 -150.0000 86

#__ type_ start__ end____ width___ exp.time_
  9 omega   38.00   99.00   1.0000    1.0000
omega____ theta____ kappa____ phi______ frames
    -      107.3169  -94.0000  120.0000 61

#__ type_ start__ end____ width___ exp.time_
 10 omega   32.00  109.00   1.0000    1.0000
omega____ theta____ kappa____ phi______ frames
    -      107.3169  -94.0000   30.0000 77

#__ type_ start__ end____ width___ exp.time_
 11 omega   30.00   61.00   1.0000    1.0000
omega____ theta____ kappa____ phi______ frames
    -      107.3169  -30.0000   30.0000 31

#__ type_ start__ end____ width___ exp.time_
 12 omega   55.00  155.00   1.0000    1.0000
omega____ theta____ kappa____ phi______ frames
    -      107.3169   15.0000   30.0000 100

#__ type_ start__ end____ width___ exp.time_
 13 omega   35.00  119.00   1.0000    1.0000
omega____ theta____ kappa____ phi______ frames
    -      107.3169  -61.0000 -120.0000 84

#__ type_ start__ end____ width___ exp.time_
 14 omega   92.00  156.00   1.0000    1.0000
omega____ theta____ kappa____ phi______ frames
    -      107.3169   61.0000  -90.0000 64

#__ type_ start__ end____ width___ exp.time_
 15 omega -113.00  -10.00   1.0000    1.0000
omega____ theta____ kappa____ phi______ frames
    -      -39.4945  -57.0000    0.0000 103

#__ type_ start__ end____ width___ exp.time_
 16 omega   13.00  116.00   1.0000    1.0000
omega____ theta____ kappa____ phi______ frames
    -       39.4945   37.0000 -120.0000 103

#__ type_ start__ end____ width___ exp.time_
 17 omega   10.00  113.00   1.0000    1.0000
omega____ theta____ kappa____ phi______ frames
    -       39.4945   57.0000  -60.0000 103

#__ type_ start__ end____ width___ exp.time_
 18 omega -162.00  -49.00   1.0000    1.0000
omega____ theta____ kappa____ phi______ frames
    -      -83.0000  -77.0000    0.0000 113

#__ type_ start__ end____ width___ exp.time_
 19 omega -162.00  -49.00   1.0000    1.0000
omega____ theta____ kappa____ phi______ frames
    -      -83.0000  -77.0000  -60.0000 113

#__ type_ start__ end____ width___ exp.time_
 20 omega   77.00  158.00   1.0000    1.0000
omega____ theta____ kappa____ phi______ frames
    -      107.3169   61.0000   60.0000 81

#__ type_ start__ end____ width___ exp.time_
 21 omega   77.00  158.00   1.0000    1.0000
omega____ theta____ kappa____ phi______ frames
    -      107.3169   30.0000 -120.0000 81

#__ type_ start__ end____ width___ exp.time_
 22 omega   29.00   69.00   1.0000    1.0000
omega____ theta____ kappa____ phi______ frames
    -      107.3169  -30.0000 -120.0000 40

#__ type_ start__ end____ width___ exp.time_
 23 omega   74.00  158.00   1.0000    1.0000
omega____ theta____ kappa____ phi______ frames
    -      107.3169   77.0000  150.0000 84

#__ type_ start__ end____ width___ exp.time_
 24 omega   46.00  158.00   1.0000    1.0000
omega____ theta____ kappa____ phi______ frames
    -      107.3169   15.0000 -180.0000 112
;
_diffrn_measurement_device_type  'SuperNova, Single source at offset, Atlas'
_diffrn_measurement_method       '\w scans'
_diffrn_orient_matrix_UB_11      0.0785243000
_diffrn_orient_matrix_UB_12      -0.1272522000
_diffrn_orient_matrix_UB_13      0.0755627000
_diffrn_orient_matrix_UB_21      0.1296086000
_diffrn_orient_matrix_UB_22      -0.0886954000
_diffrn_orient_matrix_UB_23      -0.0994484000
_diffrn_orient_matrix_UB_31      0.1701918000
_diffrn_orient_matrix_UB_32      0.0955871000
_diffrn_orient_matrix_UB_33      0.0101420000
_diffrn_radiation_monochromator  mirror
_diffrn_radiation_type           'Cu K\a'
_diffrn_radiation_wavelength     1.54184
_diffrn_reflns_av_R_equivalents  0.0397
_diffrn_reflns_av_unetI/netI     0.0407
_diffrn_reflns_limit_h_max       8
_diffrn_reflns_limit_h_min       -8
_diffrn_reflns_limit_k_max       10
_diffrn_reflns_limit_k_min       -10
_diffrn_reflns_limit_l_max       15
_diffrn_reflns_limit_l_min       -15
_diffrn_reflns_number            7932
_diffrn_reflns_theta_full        73.7976
_diffrn_reflns_theta_max         73.80
_diffrn_reflns_theta_min         3.60
_diffrn_source                   'SuperNova (Cu) X-ray Source'
_exptl_absorpt_coefficient_mu    2.070
_exptl_absorpt_correction_T_max  1.00000
_exptl_absorpt_correction_T_min  0.67157
_exptl_absorpt_correction_type   multi-scan
_exptl_absorpt_process_details
;
CrysAlisPro, Agilent Technologies,
Version 1.171.36.28 (release 01-02-2013 CrysAlis171 .NET)
(compiled Feb  1 2013,16:14:44)
Empirical absorption correction using spherical harmonics,
 implemented in SCALE3 ABSPACK scaling algorithm.
;
_exptl_crystal_colour            colourless
_exptl_crystal_colour_primary    colourless
_exptl_crystal_density_diffrn    1.3981
_exptl_crystal_description       block
_exptl_crystal_F_000             321.5952
_exptl_crystal_size_max          0.1567
_exptl_crystal_size_mid          0.1088
_exptl_crystal_size_min          0.0666
_refine_diff_density_max         0.3603
_refine_diff_density_min         -0.4008
_refine_diff_density_rms         0.1000
_refine_ls_d_res_high            0.8028
_refine_ls_d_res_low             12.2940
_refine_ls_goodness_of_fit_ref   1.0321
_refine_ls_hydrogen_treatment    constr
_refine_ls_matrix_type           full
_refine_ls_number_constraints    27
_refine_ls_number_parameters     193
_refine_ls_number_reflns         2798
_refine_ls_number_restraints     0
_refine_ls_restrained_S_all      1.0321
_refine_ls_R_factor_all          0.0532
_refine_ls_R_factor_gt           0.0371
_refine_ls_shift/su_max          0.0001
_refine_ls_shift/su_mean         0.0000
_refine_ls_structure_factor_coef Fsqd
_refine_ls_weighting_details
'w=1/[\s^2^(Fo^2^)+(0.0410P)^2^+0.3870P] where P=(Fo^2^+2Fc^2^)/3'
_refine_ls_weighting_scheme      calc
_refine_ls_wR_factor_gt          0.0879
_refine_ls_wR_factor_ref         0.0946
_reflns_Friedel_coverage         0.0
_reflns_limit_h_max              8
_reflns_limit_h_min              -8
_reflns_limit_k_max              10
_reflns_limit_k_min              -10
_reflns_limit_l_max              15
_reflns_limit_l_min              0
_reflns_number_gt                2347
_reflns_number_total             2798
_reflns_threshold_expression     I>=2u(I)
_iucr_refine_instructions_details
;
TITL 
CELL 1.54184 6.932348 8.524013 12.50709 89.0964 79.4179 82.7347
ZERR 2 0.000435 0.000576 0.000821 0.0054 0.0055 0.0054
LATT 1
SFAC C H N O S
UNIT 30 34 6 4 2

L.S. 4
PLAN  20
FMAP 2
MORE -1
BOND $H
LIST 4
CONF 
ACTA 
OMIT 8 4 0
OMIT -8 -3 1
OMIT 8 4 1
WGHT 0.041 0.387
FVAR 5.532495
REM <olex2.extras>
REM <HklSrc "%.\\Crystal%2044.hkl">
REM </olex2.extras>

S1    5     0.38509  0.72186  0.93077  11.00000  0.03337  0.01582  0.01390 =
 -0.00205 -0.00111  0.00244 
O1    4     0.21518  1.40950  0.59970  11.00000  0.04190  0.03272  0.01886 =
 0.00772 -0.00045 -0.00110 
N2    3     0.24566  1.00429  1.02610  11.00000  0.03031  0.01356  0.01132 =
 -0.00050  0.00007  0.00228 
AFIX 43
H2    2     0.21123  1.05271  1.08776  11.00000 -1.20000 
AFIX 0
O2    4     0.10630  1.58785  0.72549  11.00000  0.04402  0.01761  0.03161 =
 0.00573 -0.00706 -0.00176 
N1    3     0.33378  0.63622  1.16880  11.00000  0.02319  0.01288  0.01347 =
 -0.00182  0.00009  0.00096 
AFIX 43
H1    2     0.37960  0.56425  1.12010  11.00000 -1.20000 
AFIX 0
C11   1     0.23118  1.10539  0.93748  11.00000  0.01791  0.01751  0.01503 =
 0.00211 -0.00033 -0.00089 
N3    3     0.16916  1.45058  0.69598  11.00000  0.02652  0.02194  0.02171 =
 0.00585 -0.00298 -0.00325 
C2    1     0.22549  0.75468  1.32909  11.00000  0.02044  0.01610  0.01498 =
 -0.00128  0.00060 -0.00110 
C3    1     0.21708  0.87110  1.24841  11.00000  0.01802  0.01558  0.01614 =
 -0.00061 -0.00032 -0.00202 
C4    1     0.28443  0.79396  1.14698  11.00000  0.01909  0.01292  0.01572 =
 0.00023 -0.00106 -0.00071 
C1    1     0.30016  0.61029  1.27739  11.00000  0.02175  0.01782  0.01397 =
 0.00069 -0.00055 -0.00215 
C15   1     0.25414  1.17533  0.74872  11.00000  0.02306  0.02318  0.01517 =
 0.00073 -0.00004 -0.00126 
AFIX 43
H15   2     0.28227  1.14713  0.67546  11.00000 -1.20000 
AFIX 0
C12   1     0.16736  1.26423  0.96579  11.00000  0.02440  0.01782  0.01532 =
 -0.00098  0.00108 -0.00012 
AFIX 43
H12   2     0.13812  1.29389  1.03878  11.00000 -1.20000 
AFIX 0
C13   1     0.14719  1.37707  0.88754  11.00000  0.02245  0.01530  0.02261 =
 0.00063 -0.00044 -0.00169 
AFIX 43
H13   2     0.10493  1.48242  0.90687  11.00000 -1.20000 
AFIX 0
C6    1     0.15334  1.04399  1.27116  11.00000  0.03319  0.01556  0.01569 =
 -0.00139  0.00164 -0.00084 
AFIX 137
H6a   2     0.04042  1.07811  1.23840  11.00000 -1.50000 
H6b   2     0.11915  1.06158  1.34832  11.00000 -1.50000 
H6c   2     0.25965  1.10292  1.24130  11.00000 -1.50000 
AFIX 0
C9    1     0.30203  0.84665  1.03626  11.00000  0.01683  0.01405  0.01618 =
 -0.00051 -0.00066 -0.00128 
C16   1     0.27553  1.06122  0.82737  11.00000  0.02515  0.01742  0.01697 =
 -0.00111 -0.00109  0.00063 
AFIX 43
H16   2     0.31892  0.95631  0.80723  11.00000 -1.20000 
AFIX 0
C7    1     0.16371  0.77858  1.45034  11.00000  0.02675  0.01872  0.01352 =
 0.00031  0.00186 -0.00051 
AFIX 23
H7a   2     0.04328  0.85241  1.46475  11.00000 -1.20000 
H7b   2     0.13422  0.67858  1.48335  11.00000 -1.20000 
AFIX 0
C8    1     0.32010  0.84098  1.50376  11.00000  0.03498  0.03087  0.01730 =
 -0.00267 -0.00273 -0.00203 
AFIX 137
H8a   2     0.34601  0.94226  1.47388  11.00000 -1.50000 
H8b   2     0.27296  0.85161  1.58074  11.00000 -1.50000 
H8c   2     0.43972  0.76834  1.49028  11.00000 -1.50000 
AFIX 0
C14   1     0.19110  1.33060  0.77941  11.00000  0.01888  0.01759  0.01906 =
 0.00634 -0.00141 -0.00246 
C5    1     0.34183  0.45091  1.32553  11.00000  0.03379  0.01792  0.01840 =
 0.00216 -0.00039  0.00104 
AFIX 137
H5a   2     0.22645  0.39722  1.33302  11.00000 -1.50000 
H5b   2     0.45001  0.39032  1.27878  11.00000 -1.50000 
H5c   2     0.37581  0.46273  1.39575  11.00000 -1.50000 
AFIX 0
HKLF 4

END
Q37 1 0.20833 1.59259 0.65 11 0.05 0.29
Q1 1 0.25 1.111111 1.25 11 0.05 0.76
Q2 1 0.125 1.074074 1.35 11 0.05 0.73
Q3 1 0.041667 1.074074 1.225 11 0.05 0.68
Q10 1 0.458333 0.444444 1.375 11 0.05 0.35
Q13 1 0.208333 0.407407 1.375 11 0.05 0.33
Q15 1 0.125 1.666667 0.6 11 0.05 0.32
Q16 1 0.416667 0.851852 0.9 11 0.05 0.32
Q20 1 0.375 0.37037 1.275 11 0.05 0.31
Q19 1 0.208333 0.777778 1.575 11 0.05 0.32
Q47 1 0.291667 1.259259 1.25 11 0.05 0.28
Q14 1 0.5 0.555556 1.075 11 0.05 0.33
Q27 1 0.166667 1.333333 0.825 11 0.05 0.3
Q29 1 0.083333 1.333333 1.05 11 0.05 0.3
Q44 1 0.083333 1.666667 0.825 11 0.05 0.29
Q45 1 -0.083333 1.703704 0.825 11 0.05 0.29
Q43 1 0.375 0.555556 1.3 11 0.05 0.29
Q48 1 0.041667 1.518519 0.85 11 0.05 0.28
Q49 1 0.166667 1.62963 0.6 11 0.05 0.28
Q9 1 0.25 0.851852 1.2 11 0.05 0.36
Q8 1 0.291667 0.777778 0.875 11 0.05 0.36
Q7 1 -0.041667 1.296296 1.025 11 0.05 0.36
Q11 1 0.291667 0.444444 1.125 11 0.05 0.35
Q18 1 0.333333 1.074074 1.075 11 0.05 0.32
Q26 1 0.25 0.333333 1.275 11 0.05 0.31
Q24 1 0.5 0.555556 1.05 11 0.05 0.31
Q25 1 0.208333 0.777778 1.55 11 0.05 0.31
Q31 1 0.208333 0.777778 1.375 11 0.05 0.3
Q34 1 -0.125 1.518519 0.85 11 0.05 0.3
Q32 1 0.458333 0.777778 0.85 11 0.05 0.3
Q33 1 0 0.888889 1.475 11 0.05 0.3
Q40 1 0.583333 0.814815 0.9 11 0.05 0.29
Q42 1 0.416667 1.333333 0.975 11 0.05 0.29
Q41 1 0.25 0.666667 1.3 11 0.05 0.29
Q55 1 0.208333 1.185185 0.95 11 0.05 0.28
Q56 1 0.166667 1.592593 1 11 0.05 0.28
Q57 1 0.125 1.518519 0.725 11 0.05 0.28
Q58 1 0.416667 0.962963 1.1 11 0.05 0.28
Q59 1 0.541667 1.037037 1.075 11 0.05 0.28

  REM The information below was added by Olex2.
  REM
  REM R1 = 0.0371 for 2347 Fo > 4sig(Fo) and 0.0532 for all 2798 data
  REM 193 parameters refined using 0 restraints
  REM Highest difference peak 0.3603, deepest hole -0.4008
  REM Mean Shift 0.0000, Max Shift 0.0001.

  REM +++ Tabular Listing of Refinement Information +++
  REM R1_all = 0.0532
  REM R1_gt = 0.0371
  REM wR_ref = 0.0946
  REM GOOF = 1.0321
  REM Shift_max = 0.0001
  REM Shift_mean = 0.0000
  REM Reflections_all = 2798
  REM Reflections_gt = 2347
  REM Parameters = 193
  REM Hole = -0.4008
  REM Peak = 0.3603
  REM Flack = n/a

  
;
_cod_data_source_file            ICA-2020-502-119282.cif
_cod_data_source_block           Crystal44
_cod_original_cell_volume        720.64(8)
_cod_database_code               1565459
_chemical_oxdiff_formula         C15H17N3O2S
_reflns_odcompleteness_completeness 99.03
_reflns_odcompleteness_iscentric 1
_reflns_odcompleteness_theta     66.97
_olex2_refinement_description
;
1. Fixed Uiso
 At 1.2 times of:
  All C(H) groups, All C(H,H) groups, All N(H) groups
 At 1.5 times of:
  All C(H,H,H) groups
2.a Secondary CH2 refined with riding coordinates:
 C7(H7a,H7b)
2.b Aromatic/amide H refined with riding coordinates:
 N2(H2), N1(H1), C15(H15), C12(H12), C13(H13), C16(H16)
2.c Idealised Me refined as rotating group:
 C6(H6a,H6b,H6c), C8(H8a,H8b,H8c), C5(H5a,H5b,H5c)
;
_iucr_refine_fcf_details
;
data_Crystal44
_computing_structure_refinement   'olex2.refine (Bourhis et al., 2015)'
_shelx_refln_list_code            4
loop_
  _space_group_symop_id
  _space_group_symop_operation_xyz
  1  x,y,z
  2  -x,-y,-z

_space_group_crystal_system       triclinic
_space_group_IT_number            2
_space_group_name_H-M_alt         'P -1'
_space_group_name_Hall            '-P 1'
_symmetry_space_group_name_H-M    'P -1'
_symmetry_space_group_name_Hall   '-P 1'
_symmetry_Int_Tables_number       2
_cell_length_a                    6.9323(4)
_cell_length_b                    8.5240(6)
_cell_length_c                    12.5071(8)
_cell_angle_alpha                 89.096(5)
_cell_angle_beta                  79.418(6)
_cell_angle_gamma                 82.735(5)
_cell_volume                      720.64(8)
loop_
  _refln_index_h
  _refln_index_k
  _refln_index_l
  _refln_F_squared_calc
  _refln_F_squared_meas
  _refln_F_squared_sigma
  _refln_F_squared_weight
  _refln_observed_status
-8 -4 1 24.224 60.636 5.961 47.217 o
-8 -2 1 1.943 26.070 5.314 75.824 o
-8 -1 1 51.013 23.345 5.061 54.714 o
-7 -6 1 6.463 11.211 3.576 152.841 o
-7 -6 2 12.521 11.451 3.415 147.240 o
-7 -5 1 0.799 133.349 118.663 0.174 o
-7 -5 2 113.176 131.122 10.015 14.370 o
-7 -5 3 241.356 267.564 12.140 7.006 o
-7 -5 4 12.381 13.195 3.298 152.509 o
-7 -4 1 7.954 11.679 10.432 21.745 o
-7 -4 2 26.478 165.399 124.446 0.158 o
-7 -4 3 4.630 67.492 50.473 0.956 o
-7 -4 4 4.974 4.166 3.447 178.091 o
-7 -4 5 42.836 52.058 5.313 49.400 o
-7 -3 1 64.862 64.525 9.195 20.977 o
-7 -3 2 47.029 55.467 5.266 47.802 o
-7 -3 3 66.424 190.008 103.324 0.228 o
-7 -3 4 5.560 8.917 3.713 148.796 o
-7 -3 5 0.245 -1.309 2.795 310.729 o
-7 -3 6 20.548 16.791 3.107 137.910 o
-7 -2 1 16.575 6.182 5.489 68.942 o
-7 -2 2 44.494 34.507 11.738 15.630 o
-7 -2 3 32.152 51.987 8.152 29.139 o
-7 -2 4 101.156 118.971 20.350 5.153 o
-7 -2 5 58.832 65.084 6.459 34.207 o
-7 -2 6 90.148 89.354 6.403 27.384 o
-7 -1 1 81.101 82.670 12.901 11.695 o
-7 -1 2 54.412 41.574 11.745 15.145 o
-7 -1 3 200.650 219.316 18.573 4.924 o
-7 -1 4 6.348 2.265 3.010 221.795 o
-7 -1 5 49.572 44.458 5.431 47.178 o
-7 -1 6 113.788 111.854 6.935 21.579 o
-7 0 1 90.355 95.786 7.467 23.150 o
-7 0 2 36.203 24.065 14.324 11.156 o
-7 0 3 0.229 -2.954 3.433 206.560 o
-7 0 4 26.936 27.063 4.856 69.421 o
-7 0 5 26.532 23.572 4.172 86.204 o
-7 1 1 41.458 44.691 3.960 69.551 o
-7 1 2 33.938 34.550 4.252 73.594 o
-7 1 3 93.313 84.837 5.755 29.878 o
-7 1 4 11.095 13.149 3.848 124.860 o
-7 1 5 14.845 12.425 3.294 147.263 o
-7 2 1 31.223 30.395 2.895 111.402 o
-7 2 2 121.918 133.593 5.388 23.457 o
-7 2 3 31.287 37.477 4.058 78.321 o
-7 2 4 250.531 267.952 8.580 8.638 o
-7 3 1 144.304 158.032 9.552 13.149 o
-7 3 2 131.258 147.041 5.839 20.693 o
-7 3 3 7.150 7.761 4.863 92.040 o
-7 4 1 22.897 19.511 2.560 155.140 o
-7 4 2 16.828 13.979 2.261 209.493 o
-6 -7 1 2.531 4.428 3.893 149.235 o
-6 -7 2 15.444 26.617 5.274 68.248 o
-6 -7 3 56.488 61.207 6.613 34.046 o
-6 -7 4 29.511 27.719 4.201 80.915 o
-6 -6 1 26.182 103.871 70.651 0.488 o
-6 -6 2 1.038 2.579 3.920 153.249 o
-6 -6 3 0.263 0.953 4.049 147.529 o
-6 -6 4 6.555 8.137 3.691 148.758 o
-6 -6 5 37.649 38.136 5.453 52.325 o
-6 -6 6 72.607 69.299 5.504 36.767 o
-6 -5 1 78.822 108.983 33.388 2.105 o
-6 -5 2 202.563 376.568 146.325 0.113 o
-6 -5 3 2.161 103.732 93.361 0.280 o
-6 -5 4 5.471 6.804 4.495 108.514 o
-6 -5 5 64.815 71.756 8.089 24.720 o
-6 -5 6 9.883 7.715 3.828 133.423 o
-6 -5 7 28.028 28.303 4.095 84.433 o
-6 -4 1 11.400 -1.284 14.107 12.111 o
-6 -4 2 86.685 87.758 8.594 20.346 o
-6 -4 3 2.536 113.318 98.007 0.254 o
-6 -4 4 1.597 142.760 121.604 0.165 o
-6 -4 5 25.297 20.489 5.585 59.248 o
-6 -4 6 70.472 84.350 8.642 21.613 o
-6 -4 7 118.468 113.056 8.351 17.762 o
-6 -3 1 28.245 26.776 7.887 32.963 o
-6 -3 2 102.077 94.900 21.121 4.881 o
-6 -3 3 23.174 9.558 9.205 26.448 o
-6 -3 4 4.560 98.459 83.172 0.353 o
-6 -3 5 73.636 112.597 30.209 2.553 o
-6 -3 6 36.074 40.160 6.732 39.365 o
-6 -3 7 213.487 241.516 12.876 7.294 o
-6 -3 8 265.345 273.443 11.307 6.945 o
-6 -2 1 26.121 19.308 4.319 84.848 o
-6 -2 2 27.983 22.222 5.001 67.529 o
-6 -2 3 71.678 69.136 5.894 34.671 o
-6 -2 4 48.914 55.486 5.471 45.228 o
-6 -2 5 8.083 118.783 84.960 0.338 o
-6 -2 6 9.950 14.505 5.108 79.576 o
-6 -2 7 18.330 18.214 4.644 83.774 o
-6 -2 8 25.122 25.876 4.536 77.732 o
-6 -1 1 0.460 0.216 2.338 436.011 o
-6 -1 2 4.128 3.300 1.972 452.799 o
-6 -1 3 62.008 59.602 4.657 47.359 o
-6 -1 4 48.103 53.697 5.120 49.186 o
-6 -1 5 107.561 103.514 5.035 28.648 o
-6 -1 6 77.042 79.709 4.724 39.039 o
-6 -1 7 235.779 242.643 13.348 6.694 o
-6 -1 8 7.945 12.572 3.714 138.884 o
-6 0 1 101.093 120.299 5.720 26.103 o
-6 0 2 71.253 81.247 3.912 45.724 o
-6 0 3 274.902 295.758 8.554 7.749 o
-6 0 4 34.613 34.863 4.831 63.084 o
-6 0 5 179.702 171.226 8.378 12.797 o
-6 0 6 0.007 0.508 1.973 617.989 o
-6 0 7 16.175 20.424 3.313 133.709 o
-6 0 8 30.546 24.084 4.257 80.323 o
-6 1 1 44.329 44.786 3.782 70.227 o
-6 1 2 21.428 16.656 2.676 157.872 o
-6 1 3 0.969 -0.013 1.827 682.089 o
-6 1 4 0.145 0.147 1.852 701.635 o
-6 1 5 134.736 139.055 5.739 20.950 o
-6 1 6 21.850 22.722 2.406 161.182 o
-6 1 7 100.729 98.800 5.416 28.822 o
-6 1 8 122.437 117.000 7.289 19.691 o
-6 2 1 0.690 1.723 2.138 491.879 o
-6 2 2 84.558 85.567 4.944 35.252 o
-6 2 3 230.960 248.177 7.978 9.810 o
-6 2 4 53.744 52.680 4.533 53.201 o
-6 2 5 119.325 130.752 5.445 23.806 o
-6 2 6 27.991 28.173 3.118 111.727 o
-6 2 7 5.070 6.846 2.152 355.867 o
-6 3 1 0.777 2.578 1.946 566.130 o
-6 3 2 19.844 20.483 2.917 144.401 o
-6 3 3 6.830 7.248 2.185 323.978 o
-6 3 4 20.137 20.397 2.420 170.263 o
-6 3 5 298.122 298.344 11.509 6.159 o
-6 3 6 323.734 322.368 23.068 2.938 o
-6 3 7 13.876 12.050 3.685 128.752 o
-6 4 1 109.460 118.693 6.270 23.495 o
-6 4 2 86.321 81.557 5.603 32.090 o
-6 4 3 0.205 1.031 2.349 428.913 o
-6 4 4 21.155 13.836 2.455 176.578 o
-6 4 5 0.232 -0.144 2.402 419.744 o
-6 4 6 4.767 7.405 1.701 476.817 o
-6 5 1 69.410 69.841 7.962 24.860 o
-6 5 2 11.049 13.098 3.181 164.325 o
-6 5 3 6.049 8.131 2.639 253.513 o
-6 5 4 43.698 46.039 4.007 66.868 o
-6 6 1 1.832 -0.855 2.009 542.638 o
-5 -8 1 95.636 88.952 5.953 28.369 o
-5 -8 2 51.125 55.979 7.092 32.463 o
-5 -8 3 8.279 9.965 3.855 132.895 o
-5 -8 4 191.848 200.327 9.775 10.431 o
-5 -7 1 130.052 126.677 7.778 17.689 o
-5 -7 2 0.981 2.685 4.403 122.412 o
-5 -7 3 29.709 32.237 6.598 42.985 o
-5 -7 4 33.388 29.344 5.938 49.546 o
-5 -7 5 18.789 17.740 4.511 87.206 o
-5 -7 6 1.058 -0.213 2.003 570.729 o
-5 -6 1 60.471 171.545 101.043 0.238 o
-5 -6 2 73.380 113.021 36.228 1.801 o
-5 -6 3 139.048 173.282 14.035 8.344 o
-5 -6 4 73.217 72.527 9.295 19.799 o
-5 -6 5 82.834 101.711 10.135 16.253 o
-5 -6 6 145.607 161.118 11.090 11.146 o
-5 -6 7 1.015 4.271 3.191 222.391 o
-5 -6 8 178.839 148.142 9.173 12.410 o
-5 -5 1 303.976 307.110 52.937 0.795 o
-5 -5 2 80.332 122.521 53.852 0.829 o
-5 -5 3 98.326 228.206 124.238 0.158 o
-5 -5 4 3.014 53.120 41.299 1.428 o
-5 -5 5 6.980 14.184 5.843 64.543 o
-5 -5 6 293.350 321.052 17.354 4.277 o
-5 -5 7 6.256 9.438 4.516 104.947 o
-5 -5 8 9.312 6.020 3.598 150.720 o
-5 -5 9 10.985 3.680 2.680 230.546 o
-5 -4 1 59.634 51.477 19.899 5.779 o
-5 -4 2 54.572 47.021 14.111 10.933 o
-5 -4 3 280.720 266.734 46.921 1.004 o
-5 -4 4 553.109 658.517 39.072 1.048 o
-5 -4 5 2.377 53.299 48.949 1.018 o
-5 -4 6 5.288 -0.524 4.382 118.873 o
-5 -4 7 113.353 120.743 10.832 13.248 o
-5 -4 8 70.248 75.073 7.791 25.179 o
-5 -4 9 173.227 172.986 9.157 12.159 o
-5 -3 1 5.362 2.474 3.743 155.402 o
-5 -3 2 35.551 27.388 6.971 38.775 o
-5 -3 3 3.182 6.021 4.892 95.748 o
-5 -3 4 6.145 -1.659 13.708 12.912 o
-5 -3 5 61.106 159.672 107.854 0.209 o
-5 -3 6 40.450 41.981 8.166 28.669 o
-5 -3 7 1.533 3.334 4.933 97.225 o
-5 -3 8 21.018 16.425 4.978 74.238 o
-5 -3 9 124.849 129.925 9.111 15.401 o
-5 -3 10 122.959 118.425 6.792 20.751 o
-5 -2 1 141.212 135.831 5.369 21.194 o
-5 -2 2 131.663 133.687 5.861 21.277 o
-5 -2 3 109.585 103.731 5.787 25.864 o
-5 -2 4 212.227 222.465 12.353 7.788 o
-5 -2 5 76.992 72.405 5.956 32.956 o
-5 -2 6 25.469 26.463 4.148 86.441 o
-5 -2 7 163.714 160.485 13.424 8.508 o
-5 -2 8 220.304 236.951 14.651 6.310 o
-5 -2 9 0.353 -0.094 3.091 253.680 o
-5 -2 10 155.265 150.566 8.271 14.601 o
-5 -1 1 18.883 23.140 2.652 157.020 o
-5 -1 2 0.513 -1.891 1.768 750.742 o
-5 -1 3 521.985 514.835 17.410 2.554 o
-5 -1 4 41.985 37.521 5.225 53.508 o
-5 -1 5 94.511 97.319 5.677 28.967 o
-5 -1 6 98.373 103.285 5.807 27.421 o
-5 -1 7 228.478 239.150 8.176 9.901 o
-5 -1 8 165.520 163.578 7.407 14.888 o
-5 -1 9 63.181 62.197 4.872 44.739 o
-5 -1 10 18.681 15.880 4.136 99.878 o
-5 0 1 14.219 12.465 1.997 255.551 o
-5 0 2 229.187 214.563 6.416 11.512 o
-5 0 3 224.603 246.291 7.622 10.275 o
-5 0 4 124.318 133.318 6.027 21.685 o
-5 0 5 8.744 8.154 2.631 236.381 o
-5 0 6 172.910 189.332 7.882 13.252 o
-5 0 7 207.488 218.297 6.951 11.942 o
-5 0 8 137.174 139.151 5.237 21.713 o
-5 0 9 34.573 31.235 5.120 59.614 o
-5 0 10 50.134 43.511 3.475 70.966 o
-5 1 1 17.730 15.135 2.391 192.323 o
-5 1 2 377.857 411.643 10.012 4.842 o
-5 1 3 157.450 160.180 6.521 16.765 o
-5 1 4 21.231 21.375 2.901 140.541 o
-5 1 5 105.378 100.932 4.712 30.377 o
-5 1 6 40.726 41.729 3.907 71.992 o
-5 1 7 0.060 0.488 2.016 590.678 o
-5 1 8 36.508 37.931 3.060 94.203 o
-5 1 9 2.293 3.293 2.843 268.672 o
-5 1 10 77.348 71.152 5.769 34.013 o
-5 2 1 206.772 205.089 8.143 11.246 o
-5 2 2 0.380 0.463 2.030 571.918 o
-5 2 3 33.800 32.220 3.259 96.495 o
-5 2 4 6.782 9.580 2.340 285.817 o
-5 2 5 29.586 30.914 3.269 102.720 o
-5 2 6 1.330 1.316 2.051 517.960 o
-5 2 7 11.876 13.197 2.486 218.493 o
-5 2 8 39.104 42.020 2.926 91.408 o
-5 2 9 66.092 66.981 5.301 39.984 o
-5 2 10 0.673 1.172 2.158 491.023 o
-5 3 1 259.621 251.057 10.742 7.516 o
-5 3 2 263.860 278.958 8.976 7.992 o
-5 3 3 174.652 176.100 6.580 15.046 o
-5 3 4 195.395 198.287 7.023 12.870 o
-5 3 5 590.346 632.980 12.083 2.461 o
-5 3 6 198.984 195.187 6.600 13.171 o
-5 3 7 185.087 181.435 6.307 14.586 o
-5 3 8 35.127 33.221 3.370 91.623 o
-5 3 9 72.036 78.907 5.610 35.196 o
-5 4 1 127.210 128.863 5.415 23.041 o
-5 4 2 168.850 178.337 8.960 12.447 o
-5 4 3 82.501 83.267 4.611 37.764 o
-5 4 4 2.672 1.005 1.887 557.813 o
-5 4 5 116.276 117.786 5.138 25.889 o
-5 4 6 318.296 311.264 7.438 7.085 o
-5 4 7 14.271 9.180 2.607 205.180 o
-5 4 8 82.331 84.756 4.054 40.627 o
-5 5 1 84.520 80.594 5.416 33.442 o
-5 5 2 14.513 11.563 3.534 135.709 o
-5 5 3 50.939 47.686 4.474 56.266 o
-5 5 4 10.890 7.441 2.453 246.037 o
-5 5 5 2.544 1.878 2.628 313.222 o
-5 5 6 18.746 16.040 3.300 133.516 o
-5 5 7 76.968 68.527 4.544 41.768 o
-5 6 1 296.568 299.622 10.439 6.560 o
-5 6 2 227.344 223.740 8.894 9.688 o
-5 6 3 73.320 69.395 5.102 39.078 o
-5 6 4 64.290 65.918 4.651 45.493 o
-5 6 5 201.045 196.101 6.634 13.015 o
-5 7 1 169.142 173.498 7.827 13.887 o
-5 7 2 46.575 54.205 8.076 27.719 o
-5 7 3 7.776 -0.694 4.391 114.693 o
-4 -9 1 456.380 456.965 18.037 2.871 o
-4 -9 2 235.956 235.316 12.007 7.442 o
-4 -9 3 3.439 3.935 3.109 220.801 o
-4 -8 1 331.946 346.346 13.037 4.985 o
-4 -8 2 64.262 64.844 9.705 19.402 o
-4 -8 3 245.603 224.355 9.490 8.802 o
-4 -8 4 26.617 28.559 5.562 57.264 o
-4 -8 5 141.361 138.485 6.575 18.722 o
-4 -8 6 4.538 7.699 4.054 131.220 o
-4 -7 1 86.983 82.440 7.290 24.842 o
-4 -7 2 75.291 86.251 7.341 25.780 o
-4 -7 3 56.022 64.072 6.153 36.872 o
-4 -7 4 402.525 405.580 19.675 2.995 o
-4 -7 5 231.710 239.428 14.270 6.330 o
-4 -7 6 82.302 94.681 8.490 20.724 o
-4 -7 7 111.662 114.419 10.194 14.497 o
-4 -7 8 81.639 70.789 6.955 27.557 o
-4 -6 1 281.293 304.557 15.664 4.917 o
-4 -6 2 19.320 24.160 4.389 87.079 o
-4 -6 3 126.860 125.454 12.443 10.612 o
-4 -6 4 97.271 105.018 11.370 13.251 o
-4 -6 5 0.797 -2.657 4.684 110.517 o
-4 -6 6 15.464 19.529 5.753 61.056 o
-4 -6 7 65.968 64.013 7.511 27.538 o
-4 -6 9 48.456 51.744 6.628 36.393 o
-4 -5 1 0.260 -1.445 2.652 344.536 o
-4 -5 2 0.089 -0.651 3.678 180.601 o
-4 -5 3 39.033 154.548 120.820 0.167 o
-4 -5 4 90.112 115.149 29.415 2.661 o
-4 -5 5 1.522 3.904 3.371 199.490 o
-4 -5 6 147.579 142.643 8.797 14.424 o
-4 -5 7 22.198 34.041 4.758 72.181 o
-4 -5 8 111.414 99.997 7.308 21.369 o
-4 -5 9 8.039 10.211 3.808 135.795 o
-4 -5 10 27.054 22.452 3.154 116.988 o
-4 -4 1 57.586 56.419 6.479 35.156 o
-4 -4 2 301.520 266.738 11.908 6.190 o
-4 -4 3 331.803 314.817 22.721 2.980 o
-4 -4 4 3.512 2.632 2.688 288.355 o
-4 -4 5 9.303 12.846 3.469 150.323 o
-4 -4 6 145.174 148.326 7.191 16.964 o
-4 -4 7 1.267 -2.492 2.782 303.359 o
-4 -4 8 100.785 97.100 5.670 28.017 o
-4 -4 9 764.620 735.541 15.693 1.635 o
-4 -4 10 110.105 101.126 8.575 18.226 o
-4 -3 1 205.792 183.921 12.983 7.853 o
-4 -3 2 364.938 330.937 18.397 3.570 o
-4 -3 3 315.615 309.722 9.964 6.339 o
-4 -3 4 2.621 0.551 2.203 436.457 o
-4 -3 5 5.038 5.732 2.732 256.268 o
-4 -3 6 47.832 60.057 4.926 50.063 o
-4 -3 7 14.015 12.133 3.463 140.024 o
-4 -3 8 451.191 458.495 15.229 3.248 o
-4 -3 9 25.435 19.349 3.065 126.310 o
-4 -3 10 83.492 81.041 6.123 30.220 o
-4 -3 11 11.653 12.921 3.545 139.948 o
-4 -2 1 207.954 191.655 6.050 13.305 o
-4 -2 2 295.690 294.855 7.731 7.628 o
-4 -2 3 16.398 17.264 2.736 169.790 o
-4 -2 4 7.331 4.694 2.466 282.978 o
-4 -2 5 1.571 1.435 2.311 412.446 o
-4 -2 6 81.618 96.867 6.790 26.513 o
-4 -2 7 344.092 357.386 10.107 5.546 o
-4 -2 8 353.763 361.153 11.759 5.000 o
-4 -2 9 400.939 396.956 10.004 4.677 o
-4 -2 10 8.255 6.341 2.406 276.951 o
-4 -2 11 0.444 -0.560 2.136 522.968 o
-4 -1 1 216.684 217.180 6.597 11.851 o
-4 -1 2 9.215 5.764 2.479 261.035 o
-4 -1 3 5.402 7.821 3.439 171.225 o
-4 -1 4 78.151 79.186 13.014 11.647 o
-4 -1 5 125.579 133.980 6.182 21.168 o
-4 -1 6 15.530 23.110 2.786 159.947 o
-4 -1 7 40.863 37.982 3.348 83.433 o
-4 -1 8 1.498 -1.390 3.889 157.721 o
-4 -1 9 4.333 1.259 3.532 177.684 o
-4 -1 10 109.488 91.644 7.142 22.430 o
-4 -1 11 47.146 48.898 3.750 67.290 o
-4 -1 12 73.621 58.937 5.323 38.921 o
-4 0 1 81.677 91.198 4.496 37.560 o
-4 0 2 10.016 16.104 3.116 167.438 o
-4 0 3 127.503 117.475 7.408 18.993 o
-4 0 4 151.065 158.400 8.875 13.765 o
-4 0 5 357.358 377.734 9.694 5.345 o
-4 0 6 276.381 271.181 11.841 6.555 o
-4 0 7 140.318 150.278 7.905 16.020 o
-4 0 8 392.067 399.677 10.464 4.670 o
-4 0 9 0.116 4.664 2.534 346.811 o
-4 0 10 0.578 4.210 2.922 264.934 o
-4 0 11 4.750 7.589 2.814 240.498 o
-4 0 12 21.279 20.632 3.538 114.271 o
-4 1 1 73.622 58.236 3.855 49.684 o
-4 1 2 85.661 84.074 4.943 35.180 o
-4 1 3 265.525 277.119 11.083 7.010 o
-4 1 4 349.619 376.592 9.084 5.594 o
-4 1 5 43.255 38.416 3.701 74.764 o
-4 1 6 80.069 83.620 5.048 35.974 o
-4 1 7 46.147 43.843 4.019 65.820 o
-4 1 8 155.507 157.333 7.167 16.020 o
-4 1 9 49.761 52.439 4.073 60.414 o
-4 1 10 238.736 229.566 7.631 10.078 o
-4 1 11 111.725 102.817 6.033 24.878 o
-4 2 1 405.231 431.813 13.382 3.899 o
-4 2 2 0.360 0.908 1.829 688.212 o
-4 2 3 63.589 59.071 3.512 57.118 o
-4 2 4 11.034 10.220 2.119 276.573 o
-4 2 5 4.060 6.919 2.276 341.563 o
-4 2 6 546.979 566.406 14.103 2.637 o
-4 2 7 4.310 0.816 2.620 302.209 o
-4 2 8 223.103 210.385 7.533 11.025 o
-4 2 9 32.158 33.880 3.060 102.673 o
-4 2 10 18.608 23.768 2.875 145.405 o
-4 2 11 36.242 44.974 5.248 54.049 o
-4 3 1 12.881 17.822 2.309 216.379 o
-4 3 2 28.939 25.291 2.729 125.707 o
-4 3 3 198.668 211.076 6.092 13.247 o
-4 3 4 280.705 293.902 13.236 5.797 o
-4 3 5 412.734 429.952 12.165 4.049 o
-4 3 6 298.102 317.506 10.730 6.292 o
-4 3 7 12.768 11.538 3.195 160.476 o
-4 3 8 59.433 51.938 4.488 51.386 o
-4 3 9 253.612 281.101 7.931 8.719 o
-4 3 10 4.262 6.554 1.960 419.769 o
-4 3 11 2.590 3.619 1.908 511.059 o
-4 4 1 97.024 107.839 4.520 32.030 o
-4 4 2 45.713 42.784 3.245 78.410 o
-4 4 3 6.533 6.393 2.070 356.341 o
-4 4 4 16.949 12.374 2.574 188.282 o
-4 4 5 45.999 43.691 3.659 71.284 o
-4 4 6 525.623 532.449 11.151 3.070 o
-4 4 7 208.743 203.742 6.738 12.383 o
-4 4 8 8.851 9.134 2.119 302.681 o
-4 4 9 50.892 52.447 3.870 62.236 o
-4 4 10 1.265 4.176 2.063 476.910 o
-4 5 1 426.601 422.165 19.452 2.890 o
-4 5 2 324.436 310.207 11.024 5.867 o
-4 5 3 24.239 18.273 3.225 123.299 o
-4 5 4 3.330 4.751 2.756 269.184 o
-4 5 5 129.724 125.799 6.531 20.380 o
-4 5 6 0.170 -0.476 2.209 497.202 o
-4 5 7 133.420 139.487 6.029 20.460 o
-4 5 8 13.227 17.434 2.988 163.666 o
-4 5 9 101.394 99.558 5.597 27.999 o
-4 6 1 19.843 16.390 3.100 140.364 o
-4 6 2 23.884 22.588 3.261 118.576 o
-4 6 3 104.691 87.456 6.631 24.787 o
-4 6 4 7.714 4.156 2.817 232.321 o
-4 6 5 93.990 101.304 6.573 25.449 o
-4 6 6 80.504 71.110 5.119 36.961 o
-4 6 7 0.440 -1.771 2.932 280.976 o
-4 6 8 7.775 8.097 4.567 101.901 o
-4 7 1 33.973 33.206 3.782 83.620 o
-4 7 2 4.249 9.206 2.205 339.650 o
-4 7 3 8.834 4.815 2.488 266.442 o
-4 7 4 0.113 -6.459 6.096 65.796 o
-4 7 5 114.774 96.239 6.678 22.989 o
-4 7 6 6.852 6.078 4.588 103.356 o
-4 8 1 82.125 75.841 4.958 36.897 o
-4 8 2 12.506 11.363 5.137 78.106 o
-4 8 3 116.732 97.459 9.637 15.684 o
-3 -10 1 33.369 33.003 4.767 65.345 o
-3 -10 2 178.026 172.171 9.043 12.113 o
-3 -9 1 11.313 7.441 4.203 112.709 o
-3 -9 2 39.636 33.963 6.434 41.901 o
-3 -9 3 18.694 13.761 4.300 95.691 o
-3 -9 4 24.491 27.593 4.972 68.556 o
-3 -9 5 83.003 82.769 6.485 28.550 o
-3 -8 1 151.993 154.425 9.418 13.080 o
-3 -8 2 19.024 18.230 4.118 98.629 o
-3 -8 3 218.434 232.911 10.700 8.596 o
-3 -8 4 18.323 15.395 4.361 93.272 o
-3 -8 5 97.067 100.248 6.811 24.336 o
-3 -8 6 9.969 12.854 3.055 177.815 o
-3 -8 7 3.586 -0.575 3.785 160.315 o
-3 -8 8 18.510 12.892 3.895 110.844 o
-3 -7 1 67.814 76.329 7.152 28.163 o
-3 -7 2 154.193 153.769 9.570 12.805 o
-3 -7 3 168.892 177.383 10.038 11.288 o
-3 -7 4 45.467 51.840 6.370 38.967 o
-3 -7 5 597.983 609.275 18.767 2.050 o
-3 -7 6 188.247 166.162 11.510 9.504 o
-3 -7 7 90.856 88.983 6.653 26.350 o
-3 -7 8 5.513 5.525 2.830 240.087 o
-3 -7 9 73.920 69.867 7.775 25.126 o
-3 -6 1 629.359 635.724 14.865 2.155 o
-3 -6 2 26.810 31.836 4.435 76.332 o
-3 -6 3 2.444 4.509 3.316 200.187 o
-3 -6 4 5.020 4.586 3.472 174.990 o
-3 -6 5 110.032 115.121 6.193 23.856 o
-3 -6 6 15.301 14.335 2.935 165.492 o
-3 -6 7 0.747 -1.368 2.825 299.280 o
-3 -6 8 39.542 34.503 4.272 69.302 o
-3 -6 9 4.840 9.281 3.080 203.919 o
-3 -6 10 34.116 28.127 3.401 95.111 o
-3 -5 1 245.390 231.305 15.854 5.538 o
-3 -5 2 29.480 29.143 3.646 93.724 o
-3 -5 3 146.951 142.024 5.055 20.865 o
-3 -5 4 296.822 310.045 10.544 6.435 o
-3 -5 5 50.710 48.819 4.389 57.093 o
-3 -5 6 104.761 105.478 6.160 25.199 o
-3 -5 7 80.872 81.051 5.539 33.516 o
-3 -5 8 4.100 5.838 3.009 224.484 o
-3 -5 9 468.026 463.355 14.186 3.274 o
-3 -5 10 18.229 16.376 2.739 164.881 o
-3 -5 11 86.113 80.418 5.059 34.904 o
-3 -4 1 243.735 258.624 6.929 9.858 o
-3 -4 2 366.031 377.979 8.986 5.389 o
-3 -4 3 593.602 627.743 12.328 2.444 o
-3 -4 4 497.580 487.112 17.049 2.743 o
-3 -4 5 0.694 2.008 3.827 162.170 o
-3 -4 6 121.219 107.651 6.657 21.778 o
-3 -4 7 874.912 914.318 39.028 0.766 o
-3 -4 8 57.867 58.822 4.762 48.091 o
-3 -4 9 99.785 95.604 5.843 27.654 o
-3 -4 10 0.978 -1.051 2.211 476.096 o
-3 -4 11 1.635 1.742 2.349 396.559 o
-3 -4 12 128.722 142.342 7.859 17.090 o
-3 -3 1 248.664 239.905 8.463 9.123 o
-3 -3 2 572.414 543.048 13.309 2.640 o
-3 -3 3 113.674 110.473 6.658 22.405 o
-3 -3 4 885.510 895.121 21.744 1.141 o
-3 -3 5 327.240 328.536 12.838 5.183 o
-3 -3 6 9.520 4.857 2.828 218.791 o
-3 -3 7 12.305 11.566 2.674 202.929 o
-3 -3 8 159.638 156.504 6.891 16.191 o
-3 -3 9 39.447 47.053 4.148 67.193 o
-3 -3 10 185.811 162.468 7.987 13.158 o
-3 -3 11 175.871 175.809 6.836 14.673 o
-3 -3 12 15.474 11.921 2.611 192.802 o
-3 -2 1 2.408 1.079 1.658 695.804 o
-3 -2 2 98.330 87.700 7.181 23.677 o
-3 -2 3 2.044 1.250 2.001 521.025 o
-3 -2 4 0.337 0.218 2.172 506.231 o
-3 -2 5 10.769 3.868 2.647 235.204 o
-3 -2 6 165.051 156.727 6.809 15.950 o
-3 -2 7 35.493 34.397 3.328 91.502 o
-3 -2 8 14.058 19.400 3.647 123.243 o
-3 -2 9 92.507 92.542 6.472 26.575 o
-3 -2 10 488.938 484.624 11.161 3.433 o
-3 -2 11 207.424 201.378 8.190 11.252 o
-3 -2 12 107.549 92.286 6.688 23.983 o
-3 -2 13 63.621 67.074 3.928 51.469 o
-3 -1 1 613.209 631.792 18.445 1.998 o
-3 -1 2 363.948 372.159 10.359 5.149 o
-3 -1 3 32.584 29.525 3.473 94.292 o
-3 -1 4 289.615 273.960 7.879 7.942 o
-3 -1 5 318.175 370.530 11.158 5.515 o
-3 -1 6 429.151 460.786 11.559 3.892 o
-3 -1 7 200.925 211.700 6.097 13.112 o
-3 -1 8 539.173 505.328 12.001 2.996 o
-3 -1 9 356.729 370.464 10.519 5.207 o
-3 -1 10 1.948 2.076 2.616 321.144 o
-3 -1 11 148.096 137.679 6.912 17.617 o
-3 -1 12 48.333 47.932 7.179 33.028 o
-3 -1 13 0.011 -1.758 2.524 383.868 o
-3 0 1 5.508 2.984 2.819 249.942 o
-3 0 2 30.620 23.546 3.000 114.979 o
-3 0 3 424.390 409.421 9.065 4.530 o
-3 0 4 1429.100 1396.410 17.846 0.576 o
-3 0 5 161.939 162.648 6.683 16.137 o
-3 0 6 286.181 324.886 9.847 6.740 o
-3 0 7 244.307 233.883 7.141 10.125 o
-3 0 8 76.691 85.149 4.544 39.437 o
-3 0 9 283.655 274.951 7.714 8.139 o
-3 0 10 6.052 0.865 4.463 113.162 o
-3 0 11 19.436 16.397 4.168 97.606 o
-3 0 12 124.349 118.579 7.601 18.774 o
-3 0 13 37.272 40.893 3.880 75.455 o
-3 1 1 153.562 155.247 5.421 18.976 o
-3 1 2 58.788 66.974 4.682 46.978 o
-3 1 3 886.631 862.357 16.881 1.273 o
-3 1 4 66.091 89.903 6.129 32.446 o
-3 1 5 107.077 121.261 5.971 24.488 o
-3 1 6 42.390 43.676 3.449 77.569 o
-3 1 7 139.604 142.662 5.071 21.584 o
-3 1 8 600.223 613.278 15.339 2.258 o
-3 1 9 151.769 142.677 6.099 18.545 o
-3 1 10 51.524 45.856 3.956 62.748 o
-3 1 11 237.981 219.577 8.122 9.946 o
-3 1 12 0.120 -2.934 2.799 311.212 o
-3 1 13 88.966 89.410 4.871 34.195 o
-3 2 1 7.451 6.138 1.318 539.815 o
-3 2 2 94.179 103.249 4.329 33.874 o
-3 2 3 905.359 915.812 28.371 0.961 o
-3 2 4 400.574 415.340 13.309 4.009 o
-3 2 5 65.923 57.401 5.674 38.663 o
-3 2 6 148.657 131.032 5.427 20.568 o
-3 2 7 22.653 19.796 3.161 127.582 o
-3 2 8 18.642 18.895 3.058 142.356 o
-3 2 9 4.481 4.585 2.462 312.081 o
-3 2 10 4.188 2.044 1.946 474.910 o
-3 2 11 152.291 152.494 6.131 18.049 o
-3 2 12 332.775 331.951 10.597 5.733 o
-3 3 1 221.203 213.485 5.085 12.824 o
-3 3 2 80.800 69.818 3.834 44.856 o
-3 3 3 41.691 35.945 3.040 89.657 o
-3 3 4 56.255 57.049 3.745 59.298 o
-3 3 5 11.139 10.977 2.534 224.168 o
-3 3 6 225.976 219.788 7.129 11.035 o
-3 3 7 0.745 -0.616 3.082 252.477 o
-3 3 8 56.545 66.556 4.750 47.276 o
-3 3 9 1.922 2.501 2.338 388.760 o
-3 3 10 166.601 167.749 5.807 16.851 o
-3 3 11 60.793 65.295 4.759 45.930 o
-3 3 12 84.151 84.211 4.732 36.590 o
-3 4 1 93.591 97.906 3.800 36.855 o
-3 4 2 1108.400 1138.640 15.591 0.881 o
-3 4 3 362.636 376.321 10.154 5.186 o
-3 4 4 346.326 347.956 8.622 5.956 o
-3 4 5 156.833 149.530 6.074 17.898 o
-3 4 6 1458.090 1448.030 16.954 0.555 o
-3 4 7 20.973 13.497 2.681 164.094 o
-3 4 8 251.831 256.668 8.224 8.941 o
-3 4 9 120.433 121.001 5.461 24.237 o
-3 4 10 43.875 44.300 3.434 76.274 o
-3 4 11 60.767 61.268 3.229 60.794 o
-3 5 1 269.859 284.967 8.911 7.823 o
-3 5 2 217.772 226.043 12.583 7.519 o
-3 5 3 31.138 29.807 2.699 117.934 o
-3 5 4 26.488 21.524 2.792 132.676 o
-3 5 5 77.692 76.016 4.589 40.175 o
-3 5 6 190.379 192.135 6.298 13.994 o
-3 5 7 306.628 282.854 7.272 7.684 o
-3 5 8 4.490 2.221 1.981 453.799 o
-3 5 9 22.744 24.381 2.687 142.732 o
-3 5 10 60.627 65.980 3.973 52.640 o
-3 6 1 881.933 842.494 21.508 1.184 o
-3 6 2 247.901 240.354 12.391 6.997 o
-3 6 3 72.235 68.741 4.875 40.946 o
-3 6 4 161.699 143.542 8.160 14.605 o
-3 6 5 13.742 9.051 3.760 128.140 o
-3 6 6 31.589 27.440 4.184 79.641 o
-3 6 7 4.620 6.399 2.159 363.891 o
-3 6 8 41.793 45.164 4.673 58.909 o
-3 6 9 203.872 182.983 6.803 13.040 o
-3 7 1 5.934 7.505 4.297 116.365 o
-3 7 2 264.677 230.721 13.736 6.201 o
-3 7 3 87.805 64.568 5.550 33.725 o
-3 7 4 89.004 82.926 6.066 29.421 o
-3 7 5 289.960 298.392 14.061 5.377 o
-3 7 6 229.168 231.352 17.940 4.898 o
-3 7 7 303.964 322.841 13.142 5.383 o
-3 7 8 53.317 53.890 7.107 32.187 o
-3 8 1 130.957 117.895 7.694 18.109 o
-3 8 2 213.138 213.297 9.858 9.555 o
-3 8 3 78.562 82.749 6.193 30.573 o
-3 8 4 18.664 18.727 4.341 91.781 o
-3 8 5 13.172 15.287 2.858 176.527 o
-3 8 6 19.287 12.773 4.864 79.523 o
-3 9 1 15.773 16.136 2.828 167.926 o
-3 9 2 1.842 1.606 1.706 679.867 o
-2 -10 1 18.805 16.456 3.883 108.278 o
-2 -10 2 0.136 0.014 2.783 314.543 o
-2 -10 3 33.527 23.706 4.070 82.090 o
-2 -10 4 3.203 1.482 2.103 448.916 o
-2 -9 1 168.648 163.711 13.127 8.622 o
-2 -9 2 37.571 29.635 6.098 46.392 o
-2 -9 3 42.034 46.923 7.231 33.802 o
-2 -9 4 82.300 91.131 9.083 19.163 o
-2 -9 5 0.352 -6.335 8.321 35.296 o
-2 -9 6 15.218 9.192 2.562 204.480 o
-2 -8 1 75.688 70.627 9.826 18.207 o
-2 -8 2 948.916 984.269 33.879 0.797 o
-2 -8 3 243.299 225.404 16.358 5.389 o
-2 -8 4 10.700 14.738 5.664 66.166 o
-2 -8 5 103.327 101.756 7.741 20.831 o
-2 -8 6 105.651 120.699 8.822 17.324 o
-2 -8 7 32.603 41.532 4.521 67.353 o
-2 -8 8 43.822 42.094 6.821 36.851 o
-2 -8 9 1.774 2.188 3.506 187.735 o
-2 -7 1 36.664 42.004 5.508 51.296 o
-2 -7 2 595.048 630.832 18.079 2.072 o
-2 -7 3 49.228 54.732 6.109 39.813 o
-2 -7 4 494.679 532.073 13.834 2.984 o
-2 -7 5 12.628 13.566 3.537 137.451 o
-2 -7 6 65.942 62.440 5.334 40.402 o
-2 -7 7 47.575 33.404 4.018 68.326 o
-2 -7 8 294.790 279.795 11.758 6.249 o
-2 -7 9 22.055 27.880 4.107 90.227 o
-2 -7 10 75.637 87.547 5.236 35.530 o
-2 -6 1 33.337 22.174 3.705 91.786 o
-2 -6 2 46.441 45.766 3.247 76.418 o
-2 -6 3 8.513 11.256 2.527 240.258 o
-2 -6 4 380.942 425.981 9.368 4.850 o
-2 -6 5 297.439 289.054 12.047 6.041 o
-2 -6 6 454.424 499.428 12.492 3.456 o
-2 -6 7 154.168 167.451 7.369 15.492 o
-2 -6 8 131.740 128.885 6.968 19.129 o
-2 -6 9 5.513 1.985 2.328 343.143 o
-2 -6 10 0.235 -2.448 2.922 284.619 o
-2 -6 11 24.515 19.961 3.046 128.331 o
-2 -5 1 759.389 721.799 13.882 1.724 o
-2 -5 2 663.312 670.235 20.375 1.726 o
-2 -5 3 121.320 123.736 7.699 18.594 o
-2 -5 4 149.873 152.074 6.682 17.348 o
-2 -5 5 122.664 125.298 5.023 24.793 o
-2 -5 6 87.379 86.208 5.095 33.825 o
-2 -5 7 58.453 54.692 5.832 39.694 o
-2 -5 8 38.267 40.515 4.456 65.225 o
-2 -5 9 81.547 98.366 5.530 31.748 o
-2 -5 10 100.168 90.042 5.556 29.106 o
-2 -5 11 36.733 36.692 3.723 80.652 o
-2 -5 12 2.632 2.568 1.697 627.433 o
-2 -4 1 4.987 10.224 1.838 403.909 o
-2 -4 2 498.035 473.172 8.816 3.650 o
-2 -4 3 6.280 6.926 1.821 414.706 o
-2 -4 4 0.858 1.365 1.673 765.119 o
-2 -4 5 138.314 127.134 11.404 11.511 o
-2 -4 6 23.445 11.166 3.064 139.782 o
-2 -4 7 62.399 56.162 4.855 46.147 o
-2 -4 8 6.586 10.244 3.321 172.882 o
-2 -4 9 458.525 462.566 13.883 3.370 o
-2 -4 10 26.660 23.966 3.153 116.387 o
-2 -4 11 205.906 209.127 7.052 12.124 o
-2 -4 12 0.502 2.772 2.029 531.382 o
-2 -4 13 63.330 54.427 3.819 55.526 o
-2 -3 1 764.973 748.001 13.269 1.700 o
-2 -3 2 30.182 33.279 2.524 121.819 o
-2 -3 3 348.521 322.297 9.608 5.856 o
-2 -3 4 726.000 747.343 15.902 1.699 o
-2 -3 5 30.476 24.321 3.632 95.780 o
-2 -3 6 39.094 31.679 4.525 66.314 o
-2 -3 7 402.140 385.842 10.438 4.643 o
-2 -3 8 63.456 52.891 4.520 49.277 o
-2 -3 9 442.329 426.896 13.522 3.634 o
-2 -3 10 760.677 748.098 17.754 1.559 o
-2 -3 11 101.423 88.768 5.374 29.702 o
-2 -3 12 17.676 19.175 2.857 155.347 o
-2 -3 13 19.376 18.523 3.064 140.732 o
-2 -2 1 107.661 94.128 3.029 36.534 o
-2 -2 2 111.401 97.264 6.754 23.076 o
-2 -2 3 1527.130 1415.470 29.129 0.475 o
-2 -2 4 786.000 770.915 15.260 1.568 o
-2 -2 5 18.394 11.881 2.732 172.508 o
-2 -2 6 29.227 30.463 4.152 81.078 o
-2 -2 7 0.135 -0.403 2.679 339.235 o
-2 -2 8 22.919 23.113 3.299 118.400 o
-2 -2 9 1131.190 1144.050 21.446 0.798 o
-2 -2 10 26.223 22.973 3.862 95.198 o
-2 -2 11 7.319 8.389 3.149 188.461 o
-2 -2 12 121.456 124.534 6.675 20.884 o
-2 -2 13 180.240 199.015 7.213 13.396 o
-2 -2 14 0.072 5.957 3.118 232.741 o
-2 -1 1 948.097 896.437 17.930 1.144 o
-2 -1 2 1377.430 1302.100 24.188 0.585 o
-2 -1 3 257.474 248.684 10.697 7.603 o
-2 -1 4 4.718 1.285 1.523 656.881 o
-2 -1 5 215.780 195.779 8.220 11.023 o
-2 -1 6 30.066 35.880 2.875 109.384 o
-2 -1 7 365.969 401.110 9.504 5.138 o
-2 -1 8 479.248 489.764 11.069 3.490 o
-2 -1 9 622.129 617.984 15.949 2.142 o
-2 -1 10 104.696 108.766 6.933 22.656 o
-2 -1 11 0.593 4.539 2.872 272.164 o
-2 -1 12 23.898 23.718 2.732 138.690 o
-2 -1 13 55.298 58.318 5.817 40.141 o
-2 -1 14 57.994 54.161 3.644 60.218 o
-2 0 1 1737.100 1548.620 24.867 0.409 o
-2 0 2 286.562 276.083 6.162 8.671 o
-2 0 3 55.875 55.553 3.540 62.203 o
-2 0 4 136.784 163.997 6.651 17.936 o
-2 0 5 143.973 125.195 4.356 23.495 o
-2 0 6 14.349 22.775 2.361 192.569 o
-2 0 7 64.445 79.113 4.232 46.325 o
-2 0 8 323.280 330.468 8.411 6.524 o
-2 0 9 5.841 10.056 2.071 340.689 o
-2 0 10 82.212 89.930 5.070 34.663 o
-2 0 11 85.899 77.084 7.762 23.548 o
-2 0 12 124.296 125.443 8.921 15.895 o
-2 0 13 16.909 21.991 4.929 76.288 o
-2 0 14 55.952 51.555 3.079 68.822 o
-2 1 1 360.095 329.215 4.166 6.828 o
-2 1 2 108.360 108.509 2.779 35.242 o
-2 1 3 292.391 338.860 9.316 6.699 o
-2 1 4 481.818 492.607 8.916 3.689 o
-2 1 5 372.356 371.949 7.245 5.698 o
-2 1 6 837.848 911.082 12.313 1.410 o
-2 1 7 373.878 380.510 8.684 5.335 o
-2 1 8 122.336 119.919 4.749 25.920 o
-2 1 9 400.547 423.357 13.100 4.014 o
-2 1 10 47.370 45.778 3.838 66.960 o
-2 1 11 8.895 8.127 2.522 249.023 o
-2 1 12 71.966 78.132 5.266 37.309 o
-2 1 13 68.506 77.786 6.071 33.439 o
-2 1 14 91.913 107.415 8.449 19.607 o
-2 2 1 1154.330 1159.950 10.625 0.872 o
-2 2 2 137.188 146.130 3.748 24.152 o
-2 2 3 296.025 278.578 5.003 8.774 o
-2 2 4 163.989 176.633 5.315 17.366 o
-2 2 5 594.120 637.577 11.605 2.465 o
-2 2 6 58.650 59.607 4.159 53.241 o
-2 2 7 85.264 92.278 4.019 38.870 o
-2 2 8 629.240 619.702 13.194 2.276 o
-2 2 9 119.420 118.514 6.000 23.096 o
-2 2 10 0.784 4.046 2.472 357.700 o
-2 2 11 214.671 176.053 9.525 10.313 o
-2 2 12 142.349 132.064 4.956 22.092 o
-2 2 13 15.738 12.873 2.746 179.578 o
-2 3 1 1411.760 1533.180 12.409 0.574 o
-2 3 2 92.907 104.495 2.937 39.585 o
-2 3 3 2.874 3.117 1.017 1116.180 o
-2 3 4 612.353 603.585 7.825 2.656 o
-2 3 5 45.895 43.212 3.563 73.020 o
-2 3 6 19.504 11.268 2.098 215.462 o
-2 3 7 527.900 495.377 10.603 3.212 o
-2 3 8 11.555 9.384 2.731 206.519 o
-2 3 9 33.099 30.296 3.699 87.808 o
-2 3 10 22.201 19.270 2.738 148.602 o
-2 3 11 87.361 87.493 5.147 33.447 o
-2 3 12 47.761 59.126 3.778 63.251 o
-2 3 13 62.364 62.541 6.981 30.805 o
-2 4 1 1302.320 1426.770 17.106 0.636 o
-2 4 2 15.840 27.584 2.245 183.416 o
-2 4 3 89.947 75.431 3.667 41.787 o
-2 4 4 329.081 331.569 7.747 6.602 o
-2 4 5 92.301 98.213 4.905 32.421 o
-2 4 6 1179.020 1228.480 19.248 0.756 o
-2 4 7 467.130 483.050 12.694 3.403 o
-2 4 8 4.087 1.059 1.954 487.160 o
-2 4 9 171.680 189.504 8.688 12.406 o
-2 4 10 324.792 347.975 16.215 4.237 o
-2 4 11 0.201 3.004 1.971 565.707 o
-2 4 12 32.823 32.218 2.582 116.095 o
-2 5 1 2.190 2.382 1.792 598.153 o
-2 5 2 20.200 18.361 3.231 131.091 o
-2 5 3 31.952 33.806 2.779 110.671 o
-2 5 4 43.396 50.853 3.280 76.339 o
-2 5 5 13.361 16.420 3.017 162.993 o
-2 5 6 157.839 143.902 7.045 16.493 o
-2 5 7 229.031 205.336 8.755 10.011 o
-2 5 8 120.111 120.891 5.865 23.230 o
-2 5 9 38.053 33.886 4.068 74.164 o
-2 5 10 89.984 87.806 4.520 35.793 o
-2 5 11 60.146 63.394 6.330 34.924 o
-2 6 1 371.121 364.079 10.141 5.161 o
-2 6 2 808.730 783.682 15.081 1.516 o
-2 6 3 131.520 117.858 9.775 14.245 o
-2 6 4 13.935 14.324 3.495 136.034 o
-2 6 5 123.459 124.724 10.329 13.562 o
-2 6 6 115.290 116.285 6.245 23.039 o
-2 6 7 74.620 73.652 4.998 38.834 o
-2 6 8 110.685 119.540 6.731 22.048 o
-2 6 9 61.715 65.601 4.447 48.140 o
-2 6 10 74.694 69.175 6.081 33.027 o
-2 7 1 0.032 0.780 5.351 85.146 o
-2 7 2 3.224 0.050 3.965 147.716 o
-2 7 3 9.311 12.143 3.947 124.075 o
-2 7 4 145.620 130.640 8.863 14.723 o
-2 7 5 3.874 5.609 3.047 221.603 o
-2 7 6 74.882 83.143 6.327 30.507 o
-2 7 7 15.172 14.080 2.767 177.898 o
-2 7 8 21.414 28.978 3.916 95.746 o
-2 7 9 61.535 61.313 5.381 41.415 o
-2 8 1 10.313 8.879 4.007 122.223 o
-2 8 2 50.734 47.844 7.903 28.494 o
-2 8 3 13.978 2.797 4.451 102.136 o
-2 8 4 9.635 7.162 3.091 186.854 o
-2 8 5 81.715 99.344 7.194 24.831 o
-2 8 6 106.800 107.140 7.928 19.822 o
-2 8 7 23.393 14.719 2.533 162.519 o
-2 9 1 32.726 27.464 4.109 80.269 o
-2 9 2 69.793 74.315 5.803 35.053 o
-2 9 3 38.074 30.778 3.957 77.481 o
-2 9 4 81.523 63.101 10.240 17.043 o
-2 9 5 16.972 15.139 3.093 149.706 o
-1 -10 1 31.876 31.927 5.093 61.193 o
-1 -10 2 17.986 19.975 4.119 98.804 o
-1 -10 3 0.142 2.547 2.669 326.630 o
-1 -10 4 21.686 15.456 3.441 121.886 o
-1 -9 1 20.507 15.708 3.810 109.069 o
-1 -9 2 126.049 117.222 8.130 17.577 o
-1 -9 3 125.118 128.098 8.244 17.052 o
-1 -9 4 1.407 -3.776 4.674 110.192 o
-1 -9 5 12.294 7.231 3.694 136.384 o
-1 -9 6 0.175 0.470 2.591 358.813 o
-1 -9 7 68.617 71.393 7.356 27.447 o
-1 -8 1 478.168 495.560 27.151 1.856 o
-1 -8 2 58.625 65.150 9.204 21.381 o
-1 -8 3 298.900 317.100 19.147 3.818 o
-1 -8 4 9.640 12.914 4.832 88.365 o
-1 -8 5 80.773 85.423 8.027 22.724 o
-1 -8 6 85.877 91.776 7.528 23.612 o
-1 -8 7 113.823 119.209 7.905 18.866 o
-1 -8 8 0.819 2.178 2.472 370.416 o
-1 -8 9 30.478 33.984 3.621 90.479 o
-1 -7 1 123.499 121.297 6.590 21.046 o
-1 -7 2 361.722 366.284 13.593 4.472 o
-1 -7 3 55.974 52.257 8.698 24.020 o
-1 -7 4 59.517 54.247 5.209 44.412 o
-1 -7 5 214.261 213.614 9.400 9.859 o
-1 -7 6 346.080 367.188 12.145 4.956 o
-1 -7 7 41.244 48.110 6.724 37.506 o
-1 -7 8 44.255 50.846 4.687 56.159 o
-1 -7 9 18.905 23.793 3.130 132.618 o
-1 -7 10 239.185 288.003 10.402 7.725 o
-1 -7 11 0.145 0.312 3.026 264.992 o
-1 -6 1 143.865 148.771 7.749 16.105 o
-1 -6 2 157.648 167.852 8.339 13.946 o
-1 -6 3 335.423 329.014 10.195 5.831 o
-1 -6 4 178.425 176.770 10.526 10.511 o
-1 -6 5 157.210 159.137 6.926 16.211 o
-1 -6 6 699.790 758.943 21.409 1.523 o
-1 -6 7 178.266 180.822 7.499 13.634 o
-1 -6 8 87.349 81.085 5.256 33.594 o
-1 -6 9 0.379 2.333 2.326 421.108 o
-1 -6 10 215.299 209.273 7.114 11.674 o
-1 -6 11 57.004 56.255 4.363 52.727 o
-1 -6 12 79.357 78.682 4.743 38.446 o
-1 -5 1 79.298 72.866 4.874 38.463 o
-1 -5 2 616.260 603.732 13.691 2.321 o
-1 -5 3 11.280 12.290 2.594 213.694 o
-1 -5 4 71.868 72.483 3.878 47.363 o
-1 -5 5 41.805 36.121 3.244 85.418 o
-1 -5 6 608.583 614.719 11.340 2.468 o
-1 -5 7 20.131 23.281 3.732 106.964 o
-1 -5 8 31.017 24.928 3.316 103.575 o
-1 -5 9 201.724 186.898 7.651 12.248 o
-1 -5 10 53.775 66.144 4.684 48.955 o
-1 -5 11 15.473 19.058 2.796 166.101 o
-1 -5 12 8.733 3.420 2.068 346.979 o
-1 -5 13 0.296 -0.361 1.805 734.186 o
-1 -4 1 210.018 228.072 7.071 11.540 o
-1 -4 2 978.622 964.815 17.353 1.077 o
-1 -4 3 340.664 414.809 7.275 5.844 o
-1 -4 4 450.388 414.272 7.792 4.422 o
-1 -4 5 156.858 171.596 6.625 16.261 o
-1 -4 6 38.504 33.728 3.962 75.825 o
-1 -4 7 11.829 15.928 2.292 229.735 o
-1 -4 8 68.694 63.441 4.183 48.038 o
-1 -4 9 48.818 46.631 3.920 64.631 o
-1 -4 10 510.456 524.707 15.208 2.791 o
-1 -4 11 52.957 45.516 4.211 58.899 o
-1 -4 12 51.096 44.818 3.510 69.278 o
-1 -4 13 105.182 103.073 5.903 26.137 o
-1 -3 1 55.245 61.856 3.189 64.486 o
-1 -3 2 157.386 159.586 4.161 20.302 o
-1 -3 3 285.483 277.160 5.481 8.937 o
-1 -3 4 2602.760 2681.570 21.367 0.187 o
-1 -3 5 926.840 947.046 13.582 1.217 o
-1 -3 6 11.208 6.130 2.112 294.970 o
-1 -3 7 253.392 227.406 14.507 6.030 o
-1 -3 8 1832.990 1798.000 22.340 0.361 o
-1 -3 9 28.945 32.375 3.621 93.135 o
-1 -3 10 287.822 284.341 8.521 7.607 o
-1 -3 11 11.405 11.458 2.462 228.676 o
-1 -3 12 0.896 0.244 1.754 732.461 o
-1 -3 13 330.632 364.338 11.587 5.285 o
-1 -3 14 40.111 41.709 3.526 79.086 o
-1 -2 1 66.442 68.025 2.258 63.472 o
-1 -2 2 1752.330 1691.080 14.004 0.414 o
-1 -2 3 500.777 426.865 13.803 3.237 o
-1 -2 4 870.331 839.754 21.221 1.207 o
-1 -2 5 464.100 514.693 19.426 2.569 o
-1 -2 6 254.778 254.600 7.988 9.015 o
-1 -2 7 232.312 209.909 7.974 10.388 o
-1 -2 8 8.910 6.756 2.533 252.354 o
-1 -2 9 7.528 9.134 2.546 251.984 o
-1 -2 10 174.927 188.145 7.720 13.367 o
-1 -2 11 282.158 281.181 10.511 6.931 o
-1 -2 12 17.996 12.740 3.147 147.092 o
-1 -2 13 11.479 8.301 1.836 322.655 o
-1 -2 14 0.041 1.179 2.168 503.249 o
-1 -1 1 29.163 31.798 1.364 163.093 o
-1 -1 2 26.969 28.955 2.310 141.354 o
-1 -1 3 1181.950 1040.750 13.588 0.877 o
-1 -1 4 2.814 2.511 1.851 545.398 o
-1 -1 5 103.342 102.394 5.792 26.816 o
-1 -1 6 4.188 14.199 2.916 212.613 o
-1 -1 7 385.062 358.158 7.808 5.508 o
-1 -1 8 55.396 45.212 3.312 68.661 o
-1 -1 9 13.570 14.922 2.473 206.103 o
-1 -1 10 16.917 13.323 3.760 118.583 o
-1 -1 11 621.505 601.672 15.453 2.200 o
-1 -1 12 416.327 411.597 12.284 4.075 o
-1 -1 13 100.785 106.462 4.867 30.156 o
-1 -1 14 123.440 125.924 4.284 26.483 o
-1 0 1 485.791 478.537 3.455 4.135 o
-1 0 2 1744.680 1722.210 8.950 0.420 o
-1 0 3 135.278 169.504 5.305 20.209 o
-1 0 4 55.266 63.895 3.965 55.734 o
-1 0 5 219.188 215.316 7.770 10.899 o
-1 0 6 543.145 651.137 9.404 2.792 o
-1 0 7 1448.570 1461.210 17.151 0.556 o
-1 0 8 368.739 371.226 11.509 4.845 o
-1 0 9 1131.750 1095.940 14.147 0.893 o
-1 0 10 262.932 236.167 6.872 9.635 o
-1 0 11 7.486 7.170 2.255 304.640 o
-1 0 12 25.553 21.440 3.785 99.200 o
-1 0 13 0.300 2.332 3.186 232.402 o
-1 0 14 13.283 10.385 4.024 115.358 o
-1 1 1 883.538 875.048 6.020 1.456 o
-1 1 2 344.743 337.677 4.461 7.002 o
-1 1 3 2479.400 2533.720 13.915 0.210 o
-1 1 4 596.899 607.899 8.479 2.687 o
-1 1 5 3798.820 3787.910 20.405 0.094 o
-1 1 6 1.461 2.303 1.419 909.301 o
-1 1 7 116.844 138.911 4.934 24.883 o
-1 1 8 8.032 5.208 1.964 365.916 o
-1 1 9 62.291 69.493 3.575 54.556 o
-1 1 10 116.370 88.219 5.587 26.638 o
-1 1 11 14.761 8.180 2.252 239.919 o
-1 1 12 112.509 108.822 5.132 27.125 o
-1 1 13 59.897 50.725 4.341 52.880 o
-1 1 14 41.397 37.843 4.171 68.595 o
-1 2 1 979.013 953.249 8.097 1.209 o
-1 2 2 108.095 112.008 3.073 34.035 o
-1 2 3 49.528 51.553 2.444 82.567 o
-1 2 4 484.914 480.783 7.632 3.833 o
-1 2 5 28.796 36.337 2.422 124.648 o
-1 2 6 35.668 19.177 2.083 139.488 o
-1 2 7 77.845 73.415 4.640 40.193 o
-1 2 8 172.454 171.748 6.111 15.905 o
-1 2 9 509.443 474.746 10.225 3.428 o
-1 2 10 242.241 247.787 8.982 8.889 o
-1 2 11 322.903 310.817 9.943 6.224 o
-1 2 12 236.221 223.514 7.026 10.658 o
-1 2 13 35.027 31.930 3.434 90.988 o
-1 2 14 163.288 177.096 5.412 17.276 o
-1 3 1 585.521 637.593 8.517 2.669 o
-1 3 2 153.915 152.684 3.687 21.730 o
-1 3 3 81.780 77.186 2.672 49.918 o
-1 3 4 930.850 1010.830 11.738 1.194 o
-1 3 5 686.955 690.299 9.622 2.119 o
-1 3 6 43.342 34.060 2.730 95.029 o
-1 3 7 67.219 57.216 3.735 53.737 o
-1 3 8 1.551 1.418 1.799 640.141 o
-1 3 9 75.117 70.903 5.681 34.990 o
-1 3 10 122.726 137.626 6.833 19.811 o
-1 3 11 11.511 10.726 2.638 212.348 o
-1 3 12 119.439 126.653 5.177 24.739 o
-1 3 13 205.879 192.387 11.515 8.780 o
-1 3 14 3.135 4.253 3.261 203.685 o
-1 4 1 10.927 20.640 2.897 172.165 o
-1 4 2 12.492 10.692 1.823 299.777 o
-1 4 3 15.463 13.218 1.766 266.619 o
-1 4 4 458.204 467.944 9.214 3.938 o
-1 4 5 192.570 178.135 5.865 14.713 o
-1 4 6 463.528 456.540 8.902 3.977 o
-1 4 7 135.828 138.596 5.136 22.097 o
-1 4 8 21.729 18.835 3.497 116.575 o
-1 4 9 0.421 3.915 2.738 301.594 o
-1 4 10 4.026 6.260 2.152 375.585 o
-1 4 11 33.248 26.199 3.137 104.566 o
-1 4 12 134.111 155.795 6.171 19.367 o
-1 4 13 231.470 234.874 8.473 9.682 o
-1 5 1 152.768 158.665 7.918 15.028 o
-1 5 2 569.453 560.995 11.498 2.746 o
-1 5 3 1047.330 1077.520 16.323 0.958 o
-1 5 4 682.927 661.039 10.117 2.163 o
-1 5 5 49.245 53.950 3.046 73.523 o
-1 5 6 251.056 247.909 6.688 9.925 o
-1 5 7 1259.530 1210.450 20.020 0.703 o
-1 5 8 0.351 -2.189 3.500 198.326 o
-1 5 9 492.891 538.059 13.924 2.969 o
-1 5 10 24.647 20.518 2.943 131.712 o
-1 5 11 83.698 82.536 5.644 32.301 o
-1 5 12 36.027 43.171 3.860 75.885 o
-1 6 1 15.409 23.931 2.496 176.670 o
-1 6 2 210.525 221.460 6.543 12.067 o
-1 6 3 182.785 156.972 5.772 16.129 o
-1 6 4 27.935 28.215 2.849 120.627 o
-1 6 5 0.529 1.564 3.130 241.349 o
-1 6 6 119.299 125.071 6.487 21.524 o
-1 6 7 197.815 193.333 7.964 11.984 o
-1 6 8 214.817 208.943 9.681 9.701 o
-1 6 9 5.308 2.494 3.067 219.903 o
-1 6 10 23.796 25.087 3.950 94.252 o
-1 6 11 185.455 197.417 9.952 10.517 o
-1 7 1 295.730 281.438 21.477 3.417 o
-1 7 2 1439.070 1184.960 86.291 0.221 o
-1 7 3 150.465 149.252 9.839 12.696 o
-1 7 4 42.886 29.553 5.121 56.144 o
-1 7 5 33.951 24.454 6.808 40.882 o
-1 7 6 70.399 71.266 6.525 31.239 o
-1 7 7 211.891 204.471 9.571 9.933 o
-1 7 8 9.159 9.528 3.227 172.973 o
-1 7 9 61.947 66.540 4.856 44.557 o
-1 7 10 127.691 127.700 5.241 23.462 o
-1 8 1 0.885 -2.649 7.669 41.451 o
-1 8 2 39.943 40.345 5.488 50.630 o
-1 8 3 36.311 25.070 4.578 69.233 o
-1 8 4 66.860 59.347 8.493 23.528 o
-1 8 5 193.379 203.632 10.685 9.580 o
-1 8 6 284.035 307.803 12.219 6.033 o
-1 8 7 281.751 288.277 14.102 5.508 o
-1 8 8 108.390 120.292 6.312 23.406 o
-1 9 1 219.045 210.318 10.109 9.257 o
-1 9 2 137.528 127.348 7.911 16.907 o
-1 9 3 126.406 117.616 8.592 16.620 o
-1 9 4 29.744 29.344 4.168 80.737 o
-1 9 5 22.191 16.875 3.681 110.478 o
-1 9 6 38.334 30.528 4.250 71.900 o
-1 10 1 3.750 3.092 3.343 194.769 o
-1 10 2 9.045 8.971 2.546 242.019 o
0 -10 1 14.729 14.396 2.907 169.123 o
0 -10 2 20.081 17.997 2.209 188.054 o
0 -10 3 113.547 115.096 9.444 15.767 o
0 -10 4 25.170 21.523 5.548 59.658 o
0 -9 1 213.595 225.434 12.001 7.951 o
0 -9 2 43.747 41.893 5.374 50.247 o
0 -9 3 14.296 18.541 4.034 107.459 o
0 -9 4 33.170 32.903 4.928 62.871 o
0 -9 5 19.567 23.222 4.064 96.776 o
0 -9 6 128.100 138.153 7.691 17.597 o
0 -9 7 0.676 -0.798 1.908 641.148 o
0 -9 8 0.432 -3.558 3.027 263.897 o
0 -8 1 468.628 456.034 21.100 2.478 o
0 -8 2 538.380 539.853 23.863 1.933 o
0 -8 3 115.615 120.937 11.840 11.720 o
0 -8 4 66.687 76.243 9.673 18.998 o
0 -8 5 87.484 99.186 8.301 20.682 o
0 -8 6 28.485 31.936 5.222 60.854 o
0 -8 7 3.107 6.639 3.388 185.822 o
0 -8 8 26.820 25.541 3.976 89.979 o
0 -8 9 39.929 45.054 4.291 65.365 o
0 -7 1 159.308 150.940 7.350 15.708 o
0 -7 2 50.024 49.649 7.923 28.367 o
0 -7 4 258.105 240.787 18.492 4.476 o
0 -7 5 91.585 89.518 9.193 18.319 o
0 -7 6 221.975 222.632 10.333 8.874 o
0 -7 7 100.646 113.116 7.648 20.824 o
0 -7 8 1.760 1.277 2.971 258.941 o
0 -7 9 58.781 48.724 4.819 49.099 o
0 -7 10 13.336 15.678 2.819 178.057 o
0 -7 11 42.964 44.974 4.824 56.434 o
0 -6 1 67.920 70.079 5.815 35.828 o
0 -6 2 122.201 126.683 7.634 18.558 o
0 -6 3 1078.510 1089.350 30.144 0.742 o
0 -6 4 262.051 286.283 7.778 8.506 o
0 -6 5 338.439 318.050 8.698 6.293 o
0 -6 6 147.006 145.285 8.370 15.033 o
0 -6 7 45.425 45.936 4.325 61.409 o
0 -6 8 348.081 333.530 10.107 5.651 o
0 -6 9 255.903 229.069 8.223 9.209 o
0 -6 10 74.927 82.433 4.952 37.902 o
0 -6 11 41.509 50.864 4.441 60.666 o
0 -6 12 12.443 10.902 2.438 226.534 o
0 -5 1 3.036 6.896 2.287 352.962 o
0 -5 2 26.166 29.701 3.512 101.242 o
0 -5 3 37.337 32.512 3.645 83.626 o
0 -5 4 209.623 205.178 6.364 12.621 o
0 -5 5 444.512 459.428 9.407 4.065 o
0 -5 6 250.679 252.309 6.480 9.976 o
0 -5 7 376.723 393.488 8.211 5.307 o
0 -5 8 250.854 266.923 7.767 9.069 o
0 -5 9 7.456 6.371 2.163 325.810 o
0 -5 10 9.332 13.364 2.405 242.107 o
0 -5 11 34.543 30.608 2.844 107.292 o
0 -5 12 26.329 26.060 4.562 76.176 o
0 -5 13 123.926 134.025 5.157 23.736 o
0 -4 1 714.745 672.214 9.740 2.055 o
0 -4 2 763.890 818.745 17.236 1.503 o
0 -4 3 1389.110 1423.980 15.947 0.598 o
0 -4 4 80.617 80.305 3.596 44.505 o
0 -4 5 122.723 126.553 4.756 25.371 o
0 -4 6 29.021 30.598 3.087 109.102 o
0 -4 7 258.220 255.883 7.017 9.402 o
0 -4 8 155.668 167.795 5.435 18.231 o
0 -4 9 48.356 43.444 3.588 70.682 o
0 -4 10 126.353 135.738 5.715 22.056 o
0 -4 11 38.533 42.296 3.375 83.089 o
0 -4 12 43.652 39.477 2.959 87.041 o
0 -4 13 14.377 12.455 2.134 240.232 o
0 -4 14 16.330 12.240 4.220 102.066 o
0 -3 1 663.701 630.156 7.106 2.402 o
0 -3 2 949.232 960.136 11.629 1.205 o
0 -3 3 1180.040 1129.130 11.685 0.855 o
0 -3 4 119.058 96.698 3.569 31.837 o
0 -3 5 25.173 25.387 1.928 168.107 o
0 -3 6 472.900 416.208 8.455 4.122 o
0 -3 7 25.762 27.305 3.087 117.323 o
0 -3 8 107.928 106.648 4.115 31.387 o
0 -3 9 187.490 175.155 5.301 15.727 o
0 -3 10 517.444 479.202 9.477 3.431 o
0 -3 11 253.369 245.995 6.941 9.745 o
0 -3 12 128.845 126.221 5.047 23.868 o
0 -3 13 8.311 6.756 1.912 361.235 o
0 -3 14 31.919 34.953 2.709 111.700 o
0 -2 1 396.427 419.517 4.821 5.388 o
0 -2 2 2252.080 2075.200 12.472 0.269 o
0 -2 3 401.243 368.533 6.321 5.473 o
0 -2 4 617.426 603.902 9.215 2.566 o
0 -2 5 301.040 317.803 5.843 7.872 o
0 -2 6 17.175 10.553 1.638 276.432 o
0 -2 7 220.353 204.427 6.322 12.179 o
0 -2 8 177.839 172.012 6.324 15.287 o
0 -2 9 92.802 90.618 4.269 35.928 o
0 -2 10 463.655 487.578 10.495 3.671 o
0 -2 11 600.320 589.609 12.807 2.463 o
0 -2 12 0.671 0.765 2.284 445.708 o
0 -2 13 53.189 55.874 3.389 65.549 o
0 -2 14 62.557 65.852 3.744 53.823 o
0 -1 1 929.654 847.797 20.290 1.149 o
0 -1 2 1097.510 1017.610 10.928 0.994 o
0 -1 3 95.153 92.492 3.182 39.761 o
0 -1 4 3584.780 3561.510 57.141 0.094 o
0 -1 5 514.297 488.817 9.049 3.458 o
0 -1 6 129.223 126.862 4.984 23.927 o
0 -1 7 365.622 384.714 7.445 5.665 o
0 -1 8 13.169 10.457 1.788 298.620 o
0 -1 9 424.069 402.349 9.107 4.563 o
0 -1 10 1228.640 1208.480 15.585 0.759 o
0 -1 11 34.860 30.770 3.565 88.796 o
0 -1 12 13.254 7.737 2.469 228.022 o
0 -1 13 245.479 277.112 7.012 9.469 o
0 -1 14 62.146 72.373 3.673 53.103 o
0 -1 15 8.452 6.673 1.896 363.080 o
0 0 1 1815.270 1709.220 16.329 0.390 o
0 0 2 296.941 280.690 3.353 9.168 o
0 0 3 690.090 676.202 7.525 2.201 o
0 0 4 1277.410 1299.260 12.169 0.716 o
0 0 5 824.721 778.587 13.231 1.540 o
0 0 6 217.762 210.205 7.811 11.013 o
0 0 7 0.923 0.917 1.331 1149.710 o
0 0 8 216.082 203.516 5.984 12.660 o
0 0 9 796.979 826.865 10.775 1.607 o
0 0 10 161.977 142.062 4.771 19.824 o
0 0 11 35.807 33.791 3.014 98.842 o
0 0 12 104.382 99.386 5.384 28.297 o
0 0 13 3.337 6.448 2.750 263.423 o
0 0 14 5.537 8.426 2.050 360.450 o
0 0 15 37.556 28.713 3.723 83.607 o
0 1 0 73.168 75.530 1.181 62.411 o
0 1 1 7069.320 6582.420 20.584 0.029 o
0 1 2 1201.970 1117.360 7.211 0.867 o
0 1 3 574.207 589.875 7.132 2.915 o
0 1 4 2.464 2.776 1.214 987.628 o
0 1 5 117.018 128.459 4.476 26.792 o
0 1 6 1.636 2.886 1.597 729.736 o
0 1 7 0.013 0.782 1.256 1455.640 o
0 1 8 417.974 406.704 9.297 4.573 o
0 1 9 332.418 352.490 8.106 6.270 o
0 1 10 17.163 13.753 2.253 209.005 o
0 1 11 84.351 89.053 6.011 29.917 o
0 1 12 91.476 84.960 5.049 33.312 o
0 1 13 24.774 21.427 2.816 135.735 o
0 1 14 8.840 8.930 2.321 273.391 o
0 1 15 146.029 140.193 7.025 17.477 o
0 2 0 248.654 289.166 4.349 10.373 o
0 2 1 322.114 309.438 3.870 7.948 o
0 2 2 795.898 747.960 7.034 1.781 o
0 2 3 343.208 371.049 5.638 6.490 o
0 2 4 734.207 776.397 9.128 1.862 o
0 2 5 836.240 902.911 10.462 1.456 o
0 2 6 256.604 257.337 6.210 9.833 o
0 2 7 1254.590 1298.280 18.329 0.692 o
0 2 8 69.619 71.314 4.682 42.662 o
0 2 9 76.949 82.295 4.060 42.655 o
0 2 10 147.978 146.157 8.960 14.078 o
0 2 11 157.147 130.711 5.883 18.968 o
0 2 12 75.630 79.418 4.588 40.283 o
0 2 13 129.772 140.364 5.595 21.702 o
0 2 14 97.588 109.941 6.714 24.033 o
0 2 15 146.658 159.760 6.915 16.922 o
0 3 0 43.875 40.498 2.065 102.471 o
0 3 1 1611.630 1605.380 16.498 0.466 o
0 3 2 1005.760 1102.270 11.430 1.044 o
0 3 3 927.717 960.877 11.473 1.238 o
0 3 4 2.702 3.448 1.502 717.259 o
0 3 5 365.049 370.984 7.311 5.800 o
0 3 6 102.878 110.961 4.968 29.036 o
0 3 7 113.576 109.254 5.389 26.152 o
0 3 8 36.248 34.801 3.395 88.926 o
0 3 9 635.896 641.052 13.269 2.212 o
0 3 10 200.929 198.018 8.120 11.623 o
0 3 11 7.473 5.547 3.086 199.820 o
0 3 12 235.710 210.697 8.317 10.026 o
0 3 13 5.320 4.090 1.869 450.421 o
0 3 14 22.225 22.637 4.940 72.199 o
0 4 0 47.749 62.044 2.925 73.017 o
0 4 1 0.614 0.527 1.533 949.789 o
0 4 2 691.500 785.229 11.307 1.903 o
0 4 3 7.560 16.282 2.104 282.572 o
0 4 4 388.643 418.968 7.756 5.080 o
0 4 5 411.491 438.280 8.656 4.576 o
0 4 6 99.430 115.116 4.941 29.368 o
0 4 7 0.866 1.907 1.726 708.826 o
0 4 8 581.079 551.410 10.862 2.757 o
0 4 9 49.948 50.182 9.240 22.460 o
0 4 10 0.704 -1.902 2.546 367.291 o
0 4 11 15.967 17.355 3.208 143.075 o
0 4 12 20.519 23.283 3.151 128.799 o
0 4 13 179.757 198.992 8.950 11.630 o
0 4 14 27.567 35.714 4.160 80.053 o
0 5 0 246.932 261.105 9.274 8.443 o
0 5 1 1475.070 1521.270 33.177 0.452 o
0 5 2 884.894 867.234 13.674 1.340 o
0 5 3 5.854 4.384 1.689 491.571 o
0 5 4 116.564 99.861 5.210 26.946 o
0 5 5 227.021 210.800 6.564 11.575 o
0 5 6 7.648 6.998 1.818 390.047 o
0 5 7 1576.250 1592.390 18.150 0.475 o
0 5 8 322.031 345.626 11.978 5.389 o
0 5 9 0.677 0.627 2.495 377.504 o
0 5 10 169.581 178.301 7.657 13.951 o
0 5 11 189.120 215.923 7.675 12.145 o
0 5 12 14.973 21.334 3.836 112.155 o
0 5 13 62.039 62.691 7.950 26.083 o
0 6 0 250.447 245.866 10.289 7.988 o
0 6 1 172.611 185.987 9.079 12.015 o
0 6 2 332.838 336.103 9.661 5.968 o
0 6 3 71.607 63.455 3.865 49.359 o
0 6 4 55.783 61.749 3.732 58.410 o
0 6 5 13.499 10.099 2.928 179.746 o
0 6 6 44.869 48.761 7.134 33.828 o
0 6 7 20.574 22.159 3.624 110.988 o
0 6 8 95.254 79.281 5.955 29.183 o
0 6 9 2.028 3.773 2.474 342.604 o
0 6 10 73.848 71.976 4.694 41.209 o
0 6 11 270.328 286.507 9.449 7.558 o
0 6 12 65.071 70.994 4.725 43.836 o
0 7 0 301.606 290.250 8.827 7.150 o
0 7 1 46.729 43.964 3.467 73.546 o
0 7 2 457.115 457.620 15.300 3.209 o
0 7 3 330.139 335.471 13.608 4.906 o
0 7 4 67.277 68.915 6.855 30.220 o
0 7 5 28.797 26.546 6.197 48.378 o
0 7 6 118.675 111.277 11.226 12.634 o
0 7 7 225.356 250.169 13.016 6.960 o
0 7 8 46.571 44.207 8.129 28.024 o
0 7 9 116.665 140.573 9.246 15.310 o
0 7 10 6.084 7.645 2.872 225.001 o
0 7 11 100.122 99.873 8.108 20.178 o
0 8 0 33.152 22.578 4.566 72.421 o
0 8 1 3.299 4.196 3.267 202.441 o
0 8 2 3.808 9.809 2.844 235.408 o
0 8 3 4.585 14.115 3.864 135.707 o
0 8 4 49.567 48.571 5.909 42.155 o
0 8 5 76.506 68.567 8.474 22.334 o
0 8 6 1.007 0.060 3.166 237.741 o
0 8 7 34.849 35.475 5.855 49.023 o
0 8 8 18.333 23.306 4.269 91.882 o
0 8 9 68.969 78.150 5.208 38.402 o
0 9 0 105.840 117.825 10.359 14.386 o
0 9 1 31.402 36.339 3.634 87.931 o
0 9 2 8.937 10.542 3.150 178.101 o
0 9 3 2.778 3.601 3.291 203.434 o
0 9 4 23.206 14.878 4.221 92.600 o
0 9 5 68.374 73.803 7.328 27.452 o
0 9 6 107.337 111.651 8.081 19.224 o
0 9 7 103.599 96.466 7.364 22.120 o
0 10 0 10.248 13.609 5.687 66.209 o
0 10 1 18.142 18.268 3.575 120.102 o
0 10 2 47.596 42.649 4.588 57.737 o
0 10 3 71.974 66.313 5.393 37.959 o
1 -10 0 3.987 4.045 2.542 304.406 o
1 -10 1 68.227 67.176 4.511 45.017 o
1 -10 2 59.255 54.528 4.072 54.997 o
1 -10 3 82.829 81.653 4.520 38.380 o
1 -9 0 21.341 20.514 6.812 44.254 o
1 -9 1 0.199 -1.449 2.889 291.488 o
1 -9 2 0.755 3.184 2.920 267.908 o
1 -9 3 68.608 75.828 6.297 32.361 o
1 -9 4 6.110 7.067 2.992 212.643 o
1 -9 5 114.200 125.634 7.483 19.565 o
1 -9 6 16.698 15.134 3.151 147.155 o
1 -9 7 13.640 9.057 5.179 77.048 o
1 -8 0 83.865 88.468 7.890 22.752 o
1 -8 1 254.607 260.532 17.121 4.864 o
1 -8 2 32.937 31.504 4.054 79.523 o
1 -8 3 60.822 54.040 4.944 46.283 o
1 -8 4 83.758 77.709 7.901 23.239 o
1 -8 5 48.111 41.530 4.444 59.594 o
1 -8 6 3.861 13.225 5.366 77.484 o
1 -8 7 69.558 80.634 7.504 26.123 o
1 -8 8 65.124 83.559 5.515 36.778 o
1 -8 9 126.431 138.834 7.060 18.965 o
1 -7 0 45.779 39.111 4.360 62.658 o
1 -7 1 19.079 16.941 3.139 139.605 o
1 -7 2 773.992 743.562 20.969 1.426 o
1 -7 3 443.107 436.774 16.246 3.213 o
1 -7 4 268.999 286.124 11.261 6.798 o
1 -7 5 20.058 26.154 4.171 91.418 o
1 -7 6 8.784 8.122 5.044 84.749 o
1 -7 7 162.235 152.504 8.322 14.122 o
1 -7 8 26.781 27.130 4.956 67.627 o
1 -7 9 17.241 21.441 3.701 113.827 o
1 -7 10 189.234 223.524 11.721 8.655 o
1 -7 11 9.239 10.073 2.163 287.401 o
1 -6 0 9.028 11.251 2.503 239.797 o
1 -6 1 596.286 567.429 12.988 2.512 o
1 -6 2 14.392 9.201 2.261 238.030 o
1 -6 3 372.179 345.982 8.542 5.617 o
1 -6 4 8.150 5.183 2.065 343.607 o
1 -6 5 2.458 4.836 2.659 293.164 o
1 -6 6 773.489 740.457 17.523 1.549 o
1 -6 7 431.961 400.125 11.294 4.154 o
1 -6 8 153.964 166.712 6.329 17.069 o
1 -6 9 34.135 40.628 3.443 87.028 o
1 -6 10 13.063 15.589 2.441 209.818 o
1 -6 11 73.483 84.810 7.393 25.872 o
1 -6 12 0.989 -1.542 3.308 218.515 o
1 -5 0 619.811 623.691 15.237 2.183 o
1 -5 1 56.549 61.914 5.083 45.202 o
1 -5 2 442.471 463.246 10.398 3.937 o
1 -5 3 322.825 327.146 9.160 6.337 o
1 -5 4 251.922 225.014 7.958 9.538 o
1 -5 5 144.795 139.374 4.461 22.327 o
1 -5 6 79.413 76.040 3.262 47.758 o
1 -5 7 560.335 543.335 8.448 3.047 o
1 -5 8 43.372 35.336 3.431 80.753 o
1 -5 9 100.888 88.240 4.840 31.967 o
1 -5 10 69.080 68.682 4.247 46.425 o
1 -5 11 177.143 175.683 5.923 15.695 o
1 -5 12 114.017 119.256 6.421 22.542 o
1 -5 13 27.125 30.698 2.916 117.614 o
1 -4 0 4.361 12.266 1.830 398.716 o
1 -4 1 10.755 3.131 1.361 475.678 o
1 -4 2 3.128 2.161 1.210 955.070 o
1 -4 3 932.496 944.990 12.983 1.220 o
1 -4 4 226.311 210.591 5.636 12.268 o
1 -4 5 49.116 48.749 3.156 74.250 o
1 -4 6 413.056 398.447 8.761 4.753 o
1 -4 7 458.035 475.730 7.375 4.108 o
1 -4 8 180.336 179.603 5.250 16.122 o
1 -4 9 5.532 5.791 2.211 343.912 o
1 -4 10 158.790 136.901 5.741 18.800 o
1 -4 11 3.114 7.810 2.125 384.560 o
1 -4 12 60.236 57.322 3.552 59.023 o
1 -4 13 92.085 83.933 3.971 38.366 o
1 -4 14 7.260 12.023 3.988 125.745 o
1 -3 0 1753.720 1837.200 15.025 0.391 o
1 -3 1 99.129 114.207 3.282 35.303 o
1 -3 2 1007.020 1022.180 11.200 1.093 o
1 -3 3 622.084 578.952 8.996 2.612 o
1 -3 4 401.298 509.379 7.471 4.477 o
1 -3 5 119.476 100.058 3.980 30.197 o
1 -3 6 143.651 156.687 5.281 20.061 o
1 -3 7 42.840 43.437 3.173 82.017 o
1 -3 8 256.095 242.043 5.339 10.545 o
1 -3 9 4.912 3.220 2.004 426.947 o
1 -3 10 11.055 10.230 2.294 254.060 o
1 -3 11 566.997 573.561 10.962 2.765 o
1 -3 12 7.071 6.460 1.995 364.354 o
1 -3 13 29.029 27.699 3.584 96.804 o
1 -3 14 4.961 3.778 1.986 425.697 o
1 -2 0 93.739 91.264 3.332 39.744 o
1 -2 1 2202.760 2132.890 13.246 0.272 o
1 -2 2 1126.800 1051.980 14.601 0.913 o
1 -2 3 271.187 289.234 4.991 9.363 o
1 -2 4 77.788 74.088 2.783 51.820 o
1 -2 5 2950.170 3061.070 31.908 0.142 o
1 -2 6 1076.310 1043.180 14.539 0.967 o
1 -2 7 0.883 0.235 1.437 1052.570 o
1 -2 8 369.522 368.660 7.869 5.638 o
1 -2 9 1622.140 1612.670 14.912 0.466 o
1 -2 10 10.134 13.927 2.383 237.404 o
1 -2 11 595.754 586.169 11.551 2.568 o
1 -2 12 11.072 12.446 2.340 240.792 o
1 -2 13 23.447 27.930 3.463 107.858 o
1 -2 14 323.592 374.332 19.078 3.543 o
1 -2 15 37.426 35.703 3.947 76.183 o
1 -1 0 1029.170 1065.460 15.029 0.998 o
1 -1 1 322.665 313.953 4.177 7.816 o
1 -1 2 294.275 263.964 2.696 9.673 o
1 -1 3 351.359 335.985 4.887 6.809 o
1 -1 4 1253.900 1172.600 9.627 0.790 o
1 -1 5 350.287 356.291 6.200 6.383 o
1 -1 6 322.834 365.124 6.346 6.769 o
1 -1 7 63.245 44.647 2.614 71.177 o
1 -1 8 79.090 81.912 3.634 44.537 o
1 -1 9 162.764 148.703 4.821 19.356 o
1 -1 10 10.144 13.239 2.282 251.185 o
1 -1 11 82.298 81.579 5.199 34.905 o
1 -1 12 25.193 23.246 3.060 123.136 o
1 -1 13 3.533 1.621 1.927 504.551 o
1 -1 14 103.837 100.825 6.293 25.183 o
1 -1 15 12.757 9.333 2.794 195.299 o
1 0 0 20.727 17.943 1.027 261.015 o
1 0 1 316.177 303.510 3.353 8.279 o
1 0 2 7.684 9.497 1.009 563.806 o
1 0 3 1099.540 1114.670 8.344 0.960 o
1 0 4 482.800 453.821 7.014 4.021 o
1 0 5 374.326 370.079 6.833 5.761 o
1 0 6 117.370 114.042 4.435 28.003 o
1 0 7 4.314 6.442 1.300 665.464 o
1 0 8 51.523 37.721 2.866 81.364 o
1 0 9 181.925 185.486 6.215 14.755 o
1 0 10 90.421 80.999 4.582 36.213 o
1 0 11 5.927 6.952 1.974 382.920 o
1 0 12 725.656 688.937 11.370 1.941 o
1 0 13 213.741 210.744 7.300 11.559 o
1 0 14 139.184 159.187 6.449 18.291 o
1 0 15 28.133 30.471 4.158 81.877 o
1 1 0 706.174 707.627 7.809 2.085 o
1 1 1 146.653 129.695 1.634 26.993 o
1 1 2 1135.490 1068.990 9.258 0.941 o
1 1 3 134.172 161.172 3.460 24.029 o
1 1 4 0.232 0.013 0.891 2858.170 o
1 1 5 707.813 749.048 8.606 1.992 o
1 1 6 264.738 335.669 7.274 8.041 o
1 1 7 115.244 143.929 4.521 25.779 o
1 1 8 1283.650 1276.170 14.215 0.708 o
1 1 9 630.330 615.521 10.004 2.448 o
1 1 10 828.097 784.202 10.960 1.582 o
1 1 11 149.927 139.599 6.206 18.641 o
1 1 12 0.223 -1.023 1.932 645.792 o
1 1 13 5.846 3.868 2.427 308.031 o
1 1 14 50.163 52.782 4.866 51.182 o
1 1 15 18.520 21.273 3.108 137.356 o
1 2 0 1059.970 1019.140 13.553 1.007 o
1 2 1 81.044 59.113 2.255 57.229 o
1 2 2 6.455 7.512 1.039 645.239 o
1 2 3 127.238 141.989 3.613 26.156 o
1 2 4 1961.420 2006.300 22.553 0.312 o
1 2 5 1371.440 1344.370 17.740 0.618 o
1 2 6 1351.500 1460.180 20.198 0.585 o
1 2 7 20.014 11.284 2.055 215.872 o
1 2 8 188.390 227.888 9.206 10.591 o
1 2 9 6.588 3.313 1.748 467.620 o
1 2 10 36.975 32.702 2.780 103.640 o
1 2 11 263.432 227.569 7.627 9.347 o
1 2 12 11.675 12.282 3.097 169.653 o
1 2 13 32.715 31.645 3.775 85.761 o
1 2 14 49.754 47.489 5.495 46.000 o
1 2 15 12.361 14.060 2.243 237.208 o
1 3 0 2004.160 2004.320 16.650 0.314 o
1 3 1 218.238 200.519 5.396 13.080 o
1 3 2 128.660 128.401 4.592 24.809 o
1 3 3 12.459 16.574 1.755 279.495 o
1 3 4 296.835 329.768 6.996 7.476 o
1 3 5 90.546 108.521 3.904 35.844 o
1 3 6 110.764 106.450 4.881 28.379 o
1 3 7 46.536 38.686 3.535 74.757 o
1 3 8 280.925 241.494 7.863 8.556 o
1 3 9 12.412 11.090 2.613 209.148 o
1 3 10 484.568 488.451 13.136 3.231 o
1 3 11 26.888 25.498 3.167 114.178 o
1 3 12 310.785 310.380 8.898 6.767 o
1 3 13 348.176 347.079 10.000 5.587 o
1 3 14 15.991 15.072 3.261 142.980 o
1 4 0 352.640 396.990 9.095 5.416 o
1 4 1 413.550 429.489 9.517 4.469 o
1 4 2 810.050 863.480 13.919 1.469 o
1 4 3 124.938 116.168 4.443 26.602 o
1 4 4 28.219 21.243 1.983 162.272 o
1 4 5 459.813 542.012 10.944 3.460 o
1 4 6 382.803 389.277 14.596 4.004 o
1 4 7 3.636 1.479 1.805 556.143 o
1 4 8 0.093 -2.297 1.847 712.237 o
1 4 9 1.252 2.231 2.564 340.273 o
1 4 10 147.224 160.033 7.503 15.941 o
1 4 11 200.631 210.461 7.589 11.856 o
1 4 12 2.776 6.717 2.470 317.421 o
1 4 13 23.525 24.030 5.892 54.587 o
1 4 14 56.999 53.563 5.559 42.362 o
1 5 0 9.140 10.282 3.622 144.302 o
1 5 1 12.215 4.790 2.075 297.180 o
1 5 2 104.786 128.001 6.417 23.084 o
1 5 3 0.371 2.257 1.626 806.574 o
1 5 4 143.933 121.340 5.478 21.452 o
1 5 5 298.123 313.277 8.711 7.037 o
1 5 6 686.389 710.629 11.431 2.022 o
1 5 7 598.088 552.009 10.705 2.686 o
1 5 8 143.155 136.529 7.697 16.626 o
1 5 9 17.749 13.382 3.277 139.883 o
1 5 10 0.757 0.176 4.132 141.490 o
1 5 11 25.938 22.166 3.327 113.052 o
1 5 12 5.425 3.104 1.707 515.238 o
1 5 13 337.895 375.598 12.330 4.952 o
1 6 0 19.644 11.960 2.842 161.211 o
1 6 1 366.891 366.841 11.925 4.794 o
1 6 2 397.965 385.582 9.997 4.769 o
1 6 3 464.840 461.937 9.698 3.852 o
1 6 4 760.396 804.761 19.671 1.442 o
1 6 5 224.045 215.851 7.075 11.223 o
1 6 6 9.915 11.190 4.695 93.311 o
1 6 7 55.703 51.331 5.174 46.423 o
1 6 8 872.544 832.563 21.668 1.198 o
1 6 9 109.301 122.942 8.026 18.785 o
1 6 10 179.680 190.707 8.384 12.374 o
1 6 11 17.727 17.979 2.993 149.360 o
1 6 12 6.322 9.097 1.986 357.814 o
1 7 0 442.628 435.851 11.804 3.849 o
1 7 1 46.369 44.941 3.599 71.441 o
1 7 2 42.631 26.203 4.046 74.000 o
1 7 3 80.014 86.216 6.689 27.861 o
1 7 4 64.109 52.668 5.354 42.114 o
1 7 5 136.831 144.191 8.561 15.312 o
1 7 6 2.016 4.326 4.129 134.904 o
1 7 7 80.944 71.871 8.937 20.354 o
1 7 8 109.302 98.604 10.430 14.523 o
1 7 9 102.383 89.592 9.924 16.032 o
1 7 10 33.248 31.046 3.341 95.888 o
1 7 11 134.019 140.623 4.966 22.538 o
1 8 0 50.233 52.594 6.438 37.322 o
1 8 1 14.867 11.506 5.395 70.433 o
1 8 2 378.473 362.725 25.034 2.434 o
1 8 3 898.000 863.716 19.759 1.191 o
1 8 4 133.001 136.016 8.021 16.717 o
1 8 5 111.832 123.036 10.733 13.418 o
1 8 6 0.960 1.035 3.041 254.144 o
1 8 7 286.628 275.125 11.404 6.544 o
1 8 8 155.167 169.035 11.954 9.881 o
1 8 9 59.471 63.315 6.719 32.688 o
1 8 10 8.053 6.130 2.114 329.391 o
1 9 0 137.995 132.617 14.902 7.998 o
1 9 1 0.312 2.684 2.412 391.597 o
1 9 2 5.626 1.949 2.230 364.864 o
1 9 3 185.364 188.923 8.385 12.174 o
1 9 4 13.721 11.100 3.847 122.058 o
1 9 5 1.684 2.112 2.982 254.760 o
1 9 6 79.407 80.676 6.965 27.155 o
1 9 7 276.723 307.856 13.253 5.754 o
1 9 8 64.461 61.096 5.357 40.819 o
1 10 0 1.972 -1.106 2.872 279.312 o
1 10 1 33.475 34.505 4.943 62.036 o
1 10 2 165.484 162.655 8.788 13.126 o
2 -9 0 13.964 11.000 3.195 157.749 o
2 -9 1 43.813 50.960 8.679 25.282 o
2 -9 2 1.619 1.047 3.014 253.900 o
2 -9 3 4.950 3.613 2.735 264.332 o
2 -9 4 290.223 302.237 13.788 5.444 o
2 -9 5 0.847 -1.635 2.249 463.651 o
2 -9 6 34.839 34.116 3.398 90.800 o
2 -8 0 100.052 110.517 19.704 5.482 o
2 -8 1 3.669 4.962 3.636 164.972 o
2 -8 2 165.489 173.745 14.607 7.505 o
2 -8 3 0.320 -1.095 2.361 432.566 o
2 -8 4 10.425 15.864 2.864 185.550 o
2 -8 5 2.930 0.432 2.132 455.993 o
2 -8 6 16.424 18.954 3.205 140.183 o
2 -8 7 209.057 211.437 7.261 11.767 o
2 -8 8 1.167 1.102 1.520 887.498 o
2 -8 9 4.035 3.746 1.667 565.169 o
2 -7 0 4.326 4.182 3.854 147.924 o
2 -7 1 174.729 163.875 10.643 10.699 o
2 -7 2 812.937 786.992 20.338 1.350 o
2 -7 3 889.906 821.835 23.459 1.138 o
2 -7 4 124.704 114.720 7.970 18.091 o
2 -7 5 62.408 71.087 6.501 32.758 o
2 -7 6 7.467 12.747 3.989 124.663 o
2 -7 7 61.261 43.914 5.254 45.111 o
2 -7 8 8.316 13.140 3.515 149.582 o
2 -7 9 47.486 45.319 4.538 57.755 o
2 -7 10 65.858 66.082 4.564 45.608 o
2 -7 11 300.866 322.683 11.243 6.038 o
2 -6 0 44.428 42.380 3.888 69.399 o
2 -6 1 137.883 133.811 5.802 20.768 o
2 -6 2 62.379 59.105 4.165 51.647 o
2 -6 3 14.486 12.622 2.753 184.404 o
2 -6 4 873.807 901.674 20.173 1.188 o
2 -6 5 81.926 65.299 6.285 31.028 o
2 -6 6 85.118 89.246 7.245 24.833 o
2 -6 7 388.109 406.940 14.385 3.940 o
2 -6 8 0.761 3.105 3.255 218.555 o
2 -6 9 0.072 4.186 3.273 217.103 o
2 -6 10 5.248 1.427 2.809 258.786 o
2 -6 11 28.603 39.489 4.723 67.000 o
2 -6 12 0.795 2.680 1.819 633.631 o
2 -5 0 172.857 182.617 6.771 14.729 o
2 -5 1 529.048 513.458 14.666 2.784 o
2 -5 2 31.922 29.898 3.363 97.707 o
2 -5 3 575.939 594.821 12.988 2.539 o
2 -5 4 303.383 300.921 7.656 7.425 o
2 -5 5 155.585 168.362 5.683 17.849 o
2 -5 6 448.034 439.369 7.601 4.345 o
2 -5 7 145.645 138.510 5.838 19.730 o
2 -5 8 16.881 16.654 2.823 163.735 o
2 -5 9 309.853 287.538 8.179 7.247 o
2 -5 10 258.010 246.141 10.214 7.865 o
2 -5 11 14.247 14.156 3.278 147.537 o
2 -5 12 52.462 51.274 4.419 55.320 o
2 -5 13 18.329 23.123 3.374 123.830 o
2 -4 0 877.615 922.680 14.803 1.285 o
2 -4 1 394.711 429.110 9.410 4.678 o
2 -4 2 169.311 199.438 6.612 14.636 o
2 -4 3 125.674 132.482 6.245 21.090 o
2 -4 4 16.753 12.658 2.192 219.305 o
2 -4 5 476.237 494.473 11.792 3.414 o
2 -4 6 430.428 438.365 7.739 4.509 o
2 -4 7 22.176 23.547 2.240 167.176 o
2 -4 8 282.799 288.484 7.318 8.158 o
2 -4 9 101.025 105.813 5.188 29.016 o
2 -4 10 10.413 14.521 2.561 215.594 o
2 -4 11 124.084 132.337 6.469 20.743 o
2 -4 12 35.547 31.458 3.245 95.134 o
2 -4 13 55.597 59.639 4.367 52.554 o
2 -4 14 99.694 111.579 5.180 28.787 o
2 -3 0 1.336 1.273 1.255 1172.990 o
2 -3 1 381.103 339.427 7.353 5.787 o
2 -3 2 86.001 68.800 3.566 44.812 o
2 -3 3 416.770 439.273 8.782 4.499 o
2 -3 4 975.509 1007.740 13.826 1.108 o
2 -3 5 47.699 49.521 2.856 79.518 o
2 -3 6 4.263 1.964 1.794 532.971 o
2 -3 7 5.393 6.941 2.219 336.693 o
2 -3 8 387.965 374.786 8.343 5.258 o
2 -3 9 62.444 70.414 4.509 46.482 o
2 -3 10 24.723 20.555 3.262 118.861 o
2 -3 11 18.200 20.620 3.215 133.740 o
2 -3 12 16.198 13.877 2.780 173.552 o
2 -3 13 3.159 4.179 2.123 415.958 o
2 -3 14 40.628 46.227 4.214 65.713 o
2 -2 0 288.724 259.711 4.818 9.336 o
2 -2 1 73.482 68.030 3.128 53.022 o
2 -2 2 13.527 13.114 1.709 291.250 o
2 -2 3 469.559 490.617 8.080 3.875 o
2 -2 4 2377.950 2337.050 26.530 0.222 o
2 -2 5 36.331 33.550 2.251 117.218 o
2 -2 6 55.583 53.446 3.249 66.405 o
2 -2 7 125.322 104.780 5.888 23.503 o
2 -2 8 5.497 -0.822 2.969 238.616 o
2 -2 9 2.477 1.313 1.728 643.719 o
2 -2 10 278.320 285.528 8.184 7.943 o
2 -2 11 796.779 802.516 15.066 1.521 o
2 -2 12 173.501 163.338 7.596 14.212 o
2 -2 13 125.757 135.960 6.608 20.109 o
2 -2 14 6.036 8.237 2.811 230.897 o
2 -2 15 61.017 61.142 4.961 44.897 o
2 -1 0 980.124 973.687 9.828 1.175 o
2 -1 1 172.833 193.121 3.453 18.040 o
2 -1 2 1035.950 1060.360 15.183 0.992 o
2 -1 3 513.121 502.828 6.898 3.591 o
2 -1 4 641.418 613.287 8.555 2.474 o
2 -1 5 28.668 28.277 1.930 151.621 o
2 -1 6 182.192 192.240 4.983 15.838 o
2 -1 7 69.569 51.561 3.583 55.330 o
2 -1 8 174.241 169.740 6.373 15.524 o
2 -1 9 22.644 23.848 2.776 139.680 o
2 -1 10 248.706 262.477 7.109 9.544 o
2 -1 11 451.158 454.637 10.966 3.828 o
2 -1 12 83.832 82.216 4.907 36.002 o
2 -1 13 34.054 43.267 3.919 76.363 o
2 -1 14 157.816 163.092 15.113 7.349 o
2 -1 15 11.515 9.793 2.798 199.496 o
2 0 0 14147.400 13424.600 59.234 0.007 o
2 0 1 258.233 262.213 5.054 10.228 o
2 0 2 72.117 87.797 2.356 53.734 o
2 0 3 956.318 945.905 9.180 1.236 o
2 0 4 222.934 204.425 3.249 14.110 o
2 0 5 840.722 857.917 15.344 1.385 o
2 0 6 266.300 247.307 6.911 9.341 o
2 0 7 40.418 38.663 2.965 91.052 o
2 0 8 406.288 393.801 9.882 4.660 o
2 0 9 199.589 200.734 5.547 13.953 o
2 0 10 561.877 539.160 9.359 2.989 o
2 0 11 897.717 891.009 12.951 1.314 o
2 0 12 1.893 1.832 1.801 615.664 o
2 0 13 89.620 81.654 6.558 27.380 o
2 0 14 142.321 169.332 8.289 14.763 o
2 0 15 6.724 11.022 2.958 203.570 o
2 1 0 5269.620 4970.810 36.766 0.051 o
2 1 1 34177.400 32670.600 81.635 0.001 o
2 1 2 1117.300 1118.760 8.417 0.940 o
2 1 3 676.869 681.383 7.455 2.242 o
2 1 4 921.925 944.865 12.591 1.242 o
2 1 5 42.138 45.575 2.708 89.862 o
2 1 6 446.430 403.201 8.297 4.451 o
2 1 7 515.952 489.411 9.511 3.404 o
2 1 8 134.739 129.181 5.877 21.158 o
2 1 9 398.534 391.102 8.910 4.930 o
2 1 10 163.417 166.130 5.254 17.916 o
2 1 11 68.549 65.462 5.131 40.704 o
2 1 12 58.827 56.443 4.714 48.610 o
2 1 13 56.887 43.528 3.857 61.505 o
2 1 14 38.749 37.926 4.207 69.756 o
2 1 15 20.836 18.320 3.307 126.474 o
2 2 0 256.107 270.505 6.937 9.286 o
2 2 1 788.682 754.888 6.566 1.799 o
2 2 2 1290.790 1335.480 14.216 0.685 o
2 2 3 3.568 3.745 0.849 1139.880 o
2 2 4 2.403 2.881 0.932 1307.390 o
2 2 5 123.964 100.342 4.185 28.758 o
2 2 6 367.735 394.775 8.902 5.278 o
2 2 7 40.499 37.406 3.936 73.303 o
2 2 8 110.456 111.319 6.875 22.096 o
2 2 9 257.155 266.419 7.146 9.212 o
2 2 10 419.699 411.150 9.275 4.536 o
2 2 11 3.130 2.609 2.325 372.790 o
2 2 12 83.347 83.093 5.638 32.340 o
2 2 13 0.115 2.870 2.494 369.557 o
2 2 14 12.218 6.938 2.365 249.045 o
2 2 15 23.014 22.974 2.560 149.741 o
2 3 0 149.735 146.003 4.460 21.387 o
2 3 1 1.656 4.262 1.247 961.950 o
2 3 2 20.242 15.067 1.579 239.037 o
2 3 3 31.589 31.465 1.948 138.438 o
2 3 4 95.539 120.849 4.162 32.313 o
2 3 5 805.396 825.434 14.604 1.496 o
2 3 6 488.344 474.686 10.066 3.588 o
2 3 7 207.252 222.702 7.597 11.342 o
2 3 8 389.641 392.939 8.735 5.054 o
2 3 9 0.401 -1.080 1.714 804.143 o
2 3 10 1.542 0.656 2.591 339.933 o
2 3 11 30.858 37.487 5.463 55.017 o
2 3 12 288.748 282.021 9.690 7.139 o
2 3 13 89.930 80.041 4.904 34.864 o
2 3 14 111.561 123.249 7.760 19.221 o
2 4 0 86.764 71.192 3.856 42.469 o
2 4 1 506.880 480.336 9.499 3.496 o
2 4 2 664.575 676.939 11.465 2.143 o
2 4 3 1033.110 1044.900 16.295 0.989 o
2 4 4 88.520 70.400 4.719 37.291 o
2 4 5 1.565 0.669 2.108 495.654 o
2 4 6 59.161 76.868 4.579 45.944 o
2 4 7 36.101 32.927 2.885 102.186 o
2 4 8 483.119 489.147 10.116 3.569 o
2 4 9 27.014 18.266 3.381 112.607 o
2 4 10 609.896 633.781 15.578 2.178 o
2 4 11 15.058 15.216 2.622 186.738 o
2 4 12 11.438 9.471 2.479 232.735 o
2 4 13 10.255 3.454 2.085 324.285 o
2 4 14 0.110 -4.355 2.651 346.907 o
2 5 0 229.360 229.688 7.811 10.267 o
2 5 1 179.114 196.117 7.235 13.501 o
2 5 2 81.806 82.734 5.188 34.946 o
2 5 3 281.167 294.817 10.060 7.012 o
2 5 4 212.261 179.168 8.217 11.463 o
2 5 5 337.010 349.572 9.168 5.943 o
2 5 6 225.941 239.086 6.168 11.310 o
2 5 7 380.546 401.028 8.294 5.196 o
2 5 8 31.838 23.809 3.572 96.072 o
2 5 9 118.967 107.740 7.802 19.150 o
2 5 10 83.970 91.483 5.789 30.761 o
2 5 11 80.388 83.627 4.837 37.033 o
2 5 12 1.919 6.162 1.861 512.794 o
2 5 13 33.427 32.242 3.355 94.584 o
2 6 0 10.214 13.239 2.357 242.072 o
2 6 1 23.853 27.603 3.341 111.566 o
2 6 2 686.175 740.936 15.916 1.799 o
2 6 3 332.408 342.182 9.797 5.892 o
2 6 4 0.126 2.928 2.024 542.642 o
2 6 5 43.669 46.153 3.548 73.842 o
2 6 6 50.726 46.167 6.068 40.828 o
2 6 7 82.325 74.250 5.419 34.539 o
2 6 8 1116.590 1123.280 18.852 0.846 o
2 6 9 96.465 110.978 5.970 26.570 o
2 6 10 1.271 0.724 2.054 527.151 o
2 6 11 49.106 46.440 3.319 72.869 o
2 6 12 42.937 47.343 3.252 78.742 o
2 7 0 0.713 4.500 3.160 227.526 o
2 7 1 145.896 145.020 8.709 14.581 o
2 7 2 398.302 425.659 21.547 2.716 o
2 7 3 293.641 288.601 18.076 4.197 o
2 7 4 200.557 204.029 15.384 6.387 o
2 7 5 0.659 2.856 2.591 337.334 o
2 7 6 34.919 36.094 4.671 65.121 o
2 7 7 3.318 2.659 2.325 369.591 o
2 7 8 5.995 5.950 4.521 107.256 o
2 7 9 3.168 1.021 3.425 192.818 o
2 7 10 14.760 16.970 4.697 85.968 o
2 7 11 205.841 208.727 7.730 11.560 o
2 8 0 314.610 298.767 18.695 3.884 o
2 8 1 114.485 111.705 11.687 12.102 o
2 8 2 100.596 101.467 10.996 13.820 o
2 8 3 114.973 122.075 11.999 11.513 o
2 8 4 133.139 125.150 12.082 10.871 o
2 8 5 2.754 -0.425 3.451 193.860 o
2 8 6 26.531 27.280 3.356 107.181 o
2 8 7 173.416 161.797 12.441 9.107 o
2 8 8 82.249 83.759 8.587 20.866 o
2 8 9 39.509 40.271 5.684 48.601 o
2 8 10 6.286 7.499 2.734 241.356 o
2 9 0 93.731 84.401 9.740 17.024 o
2 9 1 0.040 1.704 3.944 155.028 o
2 9 2 18.294 15.933 4.852 79.376 o
2 9 3 6.243 9.027 3.961 131.911 o
2 9 4 14.162 19.485 4.793 82.758 o
2 9 5 27.479 22.355 3.413 107.627 o
2 9 6 8.762 6.451 3.440 162.740 o
2 9 7 7.048 5.500 2.945 217.061 o
2 9 8 3.663 4.623 2.490 315.017 o
2 10 0 293.442 300.439 13.799 5.415 o
2 10 1 43.639 47.166 5.865 44.399 o
2 10 2 16.605 14.100 3.662 122.799 o
2 10 3 3.528 0.551 2.703 294.903 o
3 -9 0 1.910 4.706 2.056 458.248 o
3 -9 1 6.209 6.207 2.192 336.529 o
3 -9 2 152.542 139.758 6.578 17.782 o
3 -9 3 14.634 10.111 2.641 198.197 o
3 -9 4 74.637 65.425 4.646 42.269 o
3 -8 0 126.847 109.878 8.260 17.502 o
3 -8 1 1.918 2.921 3.014 245.523 o
3 -8 2 9.202 8.682 3.496 154.351 o
3 -8 3 20.678 22.552 4.435 85.328 o
3 -8 4 81.721 85.701 6.912 26.743 o
3 -8 5 18.812 20.448 3.737 110.788 o
3 -8 6 142.375 135.672 5.583 20.665 o
3 -8 7 4.905 3.856 1.745 505.351 o
3 -8 8 2.462 4.613 2.792 270.676 o
3 -7 0 30.304 32.134 5.611 54.321 o
3 -7 1 134.241 141.298 10.042 13.223 o
3 -7 2 505.125 495.924 17.737 2.624 o
3 -7 3 7.226 4.223 3.702 151.245 o
3 -7 4 44.833 30.239 4.713 60.625 o
3 -7 5 0.052 2.748 2.847 288.730 o
3 -7 6 40.235 33.211 4.154 71.272 o
3 -7 7 32.202 33.032 3.853 83.849 o
3 -7 8 94.297 107.570 5.669 28.218 o
3 -7 9 69.058 71.595 5.123 39.780 o
3 -7 10 35.207 30.547 3.149 98.499 o
3 -6 0 252.737 266.917 13.344 6.288 o
3 -6 1 311.575 298.338 13.898 5.200 o
3 -6 2 113.544 111.716 7.730 19.592 o
3 -6 3 366.733 387.484 12.110 4.653 o
3 -6 4 459.773 492.286 15.313 3.102 o
3 -6 5 255.124 268.723 10.281 7.659 o
3 -6 6 31.145 27.852 7.020 39.201 o
3 -6 7 2.826 4.420 3.679 164.750 o
3 -6 8 39.342 38.582 5.328 53.105 o
3 -6 9 10.349 5.178 2.646 233.825 o
3 -6 10 122.431 130.108 7.127 19.509 o
3 -6 11 140.995 166.736 6.769 17.317 o
3 -5 0 190.529 213.407 7.188 12.590 o
3 -5 1 0.815 2.448 2.277 428.135 o
3 -5 2 258.607 253.738 6.446 9.710 o
3 -5 3 8.103 7.288 2.112 322.251 o
3 -5 4 306.212 298.569 9.985 6.574 o
3 -5 5 0.652 -1.377 3.260 226.721 o
3 -5 6 159.463 168.390 7.609 14.820 o
3 -5 7 872.026 902.394 16.928 1.264 o
3 -5 8 428.203 421.876 11.688 4.033 o
3 -5 9 120.041 125.139 6.446 21.545 o
3 -5 10 19.372 22.319 3.218 129.290 o
3 -5 11 3.265 -0.180 2.150 447.189 o
3 -5 12 5.357 6.991 2.614 266.656 o
3 -4 0 177.976 211.594 6.192 14.251 o
3 -4 1 119.825 116.890 5.624 24.140 o
3 -4 2 107.979 113.199 5.580 26.078 o
3 -4 3 833.258 860.988 15.133 1.400 o
3 -4 4 84.565 76.650 4.225 40.223 o
3 -4 5 156.653 163.202 5.715 17.923 o
3 -4 6 11.358 13.319 2.537 215.995 o
3 -4 7 27.344 21.834 3.148 117.232 o
3 -4 8 90.163 88.796 5.871 29.585 o
3 -4 9 25.296 22.742 3.576 105.228 o
3 -4 10 24.369 19.378 3.258 120.743 o
3 -4 11 83.968 90.742 5.353 32.839 o
3 -4 12 119.482 129.981 5.521 23.643 o
3 -4 13 47.376 54.909 4.543 55.459 o
3 -3 0 118.028 151.900 4.219 25.501 o
3 -3 1 50.810 37.935 2.286 91.079 o
3 -3 2 13.573 12.140 1.767 288.644 o
3 -3 3 28.942 23.197 2.240 146.470 o
3 -3 4 111.869 131.802 4.846 26.323 o
3 -3 5 132.605 133.944 6.232 20.378 o
3 -3 6 206.488 214.131 11.504 8.535 o
3 -3 7 272.420 291.653 7.714 8.209 o
3 -3 8 339.518 360.256 8.106 6.095 o
3 -3 9 83.203 83.359 4.989 35.590 o
3 -3 10 4.273 2.256 2.200 391.317 o
3 -3 11 281.419 281.682 9.199 7.489 o
3 -3 12 6.948 5.450 2.692 249.373 o
3 -3 13 221.727 224.680 13.207 7.114 o
3 -3 14 27.395 24.869 3.773 95.236 o
3 -2 0 18.494 20.033 1.496 239.903 o
3 -2 1 906.330 976.702 10.727 1.269 o
3 -2 2 49.441 51.165 2.431 83.031 o
3 -2 3 953.481 976.809 11.120 1.194 o
3 -2 4 181.041 173.390 4.937 16.647 o
3 -2 5 518.524 555.718 17.908 2.447 o
3 -2 6 26.085 20.594 3.013 125.776 o
3 -2 7 8.583 15.132 3.800 130.151 o
3 -2 8 127.997 135.298 4.971 23.579 o
3 -2 9 779.325 783.395 16.098 1.543 o
3 -2 10 10.640 6.189 2.287 274.506 o
3 -2 11 3.583 1.180 2.271 391.772 o
3 -2 12 221.591 216.051 8.414 10.325 o
3 -2 13 3.330 0.600 1.974 505.394 o
3 -2 14 8.818 13.746 3.495 148.802 o
3 -1 0 100.605 88.081 2.520 41.265 o
3 -1 1 260.153 248.530 7.691 9.106 o
3 -1 2 128.632 120.195 3.695 27.508 o
3 -1 3 475.781 442.192 7.495 4.087 o
3 -1 4 0.728 3.353 1.635 742.105 o
3 -1 5 363.945 378.588 10.093 5.170 o
3 -1 6 1720.020 1776.920 26.285 0.380 o
3 -1 7 231.861 215.524 10.154 8.838 o
3 -1 8 0.608 0.821 1.961 595.540 o
3 -1 9 160.026 174.933 5.470 17.538 o
3 -1 10 928.156 972.929 13.869 1.192 o
3 -1 11 28.168 29.004 3.388 102.607 o
3 -1 12 377.876 382.752 10.756 4.849 o
3 -1 13 22.130 22.998 3.441 114.570 o
3 -1 14 11.466 17.329 4.004 113.662 o
3 -1 15 213.863 224.752 8.414 10.436 o
3 0 0 48.411 49.327 5.047 50.649 o
3 0 1 569.127 611.027 8.937 2.790 o
3 0 2 755.222 706.852 12.682 1.793 o
3 0 3 143.334 140.121 5.934 19.688 o
3 0 4 607.753 625.917 10.206 2.510 o
3 0 5 123.454 102.560 3.744 29.875 o
3 0 6 214.076 219.351 5.952 12.405 o
3 0 7 26.592 18.608 3.589 105.927 o
3 0 8 31.902 23.104 3.202 106.969 o
3 0 9 154.197 161.989 5.348 18.736 o
3 0 10 44.306 38.785 3.166 82.984 o
3 0 11 21.721 18.910 2.458 165.242 o
3 0 12 196.430 189.945 5.911 14.099 o
3 0 13 3.351 7.335 2.278 347.787 o
3 0 14 47.511 53.540 5.841 42.626 o
3 0 15 50.432 47.259 4.239 59.430 o
3 1 0 581.393 544.022 15.314 2.450 o
3 1 1 133.227 149.512 5.452 21.150 o
3 1 2 156.771 184.071 4.914 18.182 o
3 1 3 149.555 149.753 3.820 22.220 o
3 1 4 199.194 198.718 4.385 15.027 o
3 1 5 440.983 422.233 9.424 4.258 o
3 1 6 227.541 220.195 5.692 11.956 o
3 1 7 204.176 208.273 6.878 12.367 o
3 1 8 117.959 128.357 7.411 19.314 o
3 1 9 2.761 -0.071 2.094 479.421 o
3 1 10 353.161 353.489 9.472 5.610 o
3 1 11 36.835 36.656 2.975 96.499 o
3 1 12 24.997 18.778 2.628 146.894 o
3 1 13 260.606 253.170 7.045 9.357 o
3 1 14 117.373 115.334 7.561 19.541 o
3 2 0 406.324 414.600 14.390 3.784 o
3 2 1 77.770 65.286 2.918 53.073 o
3 2 2 37.765 31.858 1.824 126.573 o
3 2 3 145.793 148.904 3.919 22.570 o
3 2 4 9.021 7.273 1.173 513.912 o
3 2 5 243.211 237.478 6.182 10.663 o
3 2 6 340.453 368.644 11.583 5.148 o
3 2 7 25.925 39.474 4.050 82.278 o
3 2 8 5.567 7.729 2.002 376.129 o
3 2 9 778.805 826.001 14.082 1.562 o
3 2 10 250.415 243.595 9.552 8.416 o
3 2 11 569.569 566.089 14.317 2.528 o
3 2 12 12.517 10.173 2.312 241.885 o
3 2 13 3.892 3.852 1.692 557.666 o
3 2 14 76.302 79.581 4.005 43.651 o
3 3 0 0.278 -0.110 1.167 1707.430 o
3 3 1 0.537 3.322 2.249 434.886 o
3 3 2 17.115 15.354 2.154 212.875 o
3 3 3 102.497 95.301 5.713 27.739 o
3 3 4 37.373 28.273 2.488 114.024 o
3 3 5 1353.210 1366.610 19.676 0.610 o
3 3 6 184.572 199.281 10.672 9.885 o
3 3 7 636.124 665.132 20.403 1.790 o
3 3 8 48.846 45.994 3.695 67.891 o
3 3 9 20.190 21.201 2.695 153.733 o
3 3 10 298.834 291.660 10.294 6.642 o
3 3 11 4.500 3.943 2.291 352.124 o
3 3 12 104.309 92.378 5.729 27.628 o
3 3 13 2.185 1.404 1.885 568.740 o
3 3 14 49.613 45.706 4.082 62.295 o
3 4 1 1068.540 1088.030 21.610 0.866 o
3 4 2 2.688 2.319 1.414 814.759 o
3 4 3 155.736 142.693 6.176 18.092 o
3 4 4 128.866 142.946 6.564 19.615 o
3 4 5 119.027 131.661 6.767 20.560 o
3 4 6 108.040 91.481 6.807 23.603 o
3 4 7 46.908 48.299 4.322 60.000 o
3 4 8 142.321 146.984 6.179 19.019 o
3 4 9 112.384 103.099 5.550 26.263 o
3 4 10 6.876 4.688 2.427 293.695 o
3 4 11 88.346 91.681 5.736 30.220 o
3 4 12 3.807 3.700 1.984 451.685 o
3 4 13 319.407 332.219 19.748 3.540 o
3 4 14 140.963 127.784 5.280 21.833 o
3 5 2 45.390 51.702 4.159 61.994 o
3 5 3 545.119 544.820 12.986 2.784 o
3 5 4 19.282 20.785 2.889 146.897 o
3 5 5 9.810 8.586 2.918 198.910 o
3 5 6 55.152 59.957 3.563 61.070 o
3 5 7 97.980 96.244 6.008 27.269 o
3 5 8 26.857 24.830 3.588 101.280 o
3 5 9 0.339 1.738 2.406 400.964 o
3 5 10 1.899 2.068 2.207 434.453 o
3 5 11 103.307 101.630 5.515 27.831 o
3 5 12 136.725 139.424 7.067 18.122 o
3 5 13 13.050 14.303 3.038 165.948 o
3 6 0 0.702 -0.241 2.686 330.940 o
3 6 1 16.675 13.870 2.630 182.288 o
3 6 2 46.093 51.741 4.246 60.481 o
3 6 3 20.120 26.666 3.920 98.548 o
3 6 4 164.193 173.644 7.109 15.071 o
3 6 5 76.009 82.853 7.250 26.266 o
3 6 6 364.794 370.220 14.675 4.196 o
3 6 7 445.393 454.680 16.473 3.125 o
3 6 8 643.855 663.118 14.707 2.076 o
3 6 9 1.535 1.172 2.430 379.050 o
3 6 10 10.617 8.170 4.509 100.752 o
3 6 11 23.570 21.943 5.186 66.686 o
3 6 12 11.178 11.479 3.543 142.850 o
3 7 0 6.994 7.485 3.966 131.680 o
3 7 1 11.620 12.773 3.962 118.865 o
3 7 2 272.687 291.969 16.121 4.905 o
3 7 3 237.421 242.364 17.260 5.030 o
3 7 4 350.372 369.126 21.234 3.049 o
3 7 5 159.340 177.195 10.076 11.574 o
3 7 6 78.116 74.176 6.862 28.217 o
3 7 7 25.232 25.584 4.714 73.907 o
3 7 8 24.658 24.511 4.283 84.716 o
3 7 9 215.478 189.855 21.640 3.945 o
3 7 10 55.242 58.090 7.192 31.064 o
3 7 11 60.369 56.138 6.013 37.757 o
3 8 0 76.422 87.923 10.594 15.878 o
3 8 1 241.752 270.813 17.958 4.651 o
3 8 2 157.025 156.152 13.840 8.338 o
3 8 3 126.640 125.008 12.311 10.776 o
3 8 4 9.698 8.762 4.586 98.622 o
3 8 5 19.516 10.618 4.926 78.609 o
3 8 6 131.311 124.447 7.656 17.923 o
3 8 7 4.663 8.165 2.733 250.204 o
3 8 8 31.408 32.251 3.793 86.354 o
3 8 9 25.875 24.270 4.373 81.535 o
3 8 10 42.960 38.277 4.344 64.777 o
3 9 0 365.481 374.811 19.011 3.341 o
3 9 1 4.564 3.363 3.867 147.432 o
3 9 2 8.034 7.553 4.027 126.332 o
3 9 3 100.345 98.263 9.865 16.038 o
3 9 4 552.059 548.387 21.189 2.088 o
3 9 5 10.329 8.330 3.843 131.117 o
3 9 6 58.224 58.534 6.326 35.823 o
3 10 0 26.025 18.921 4.192 88.447 o
3 10 1 9.106 5.970 2.808 220.153 o
3 10 2 6.029 5.792 3.184 195.730 o
3 10 3 53.239 49.048 5.388 45.642 o
4 -8 0 6.632 7.717 2.485 273.062 o
4 -8 1 19.679 17.585 2.592 166.796 o
4 -8 2 158.827 156.427 5.598 18.198 o
4 -8 3 0.833 0.654 2.446 389.336 o
4 -8 4 18.012 17.913 6.233 52.794 o
4 -8 5 167.235 165.737 10.575 10.969 o
4 -8 6 0.129 2.455 2.887 281.651 o
4 -7 0 57.702 49.345 4.367 53.911 o
4 -7 1 10.171 11.622 4.336 105.848 o
4 -7 2 11.678 6.307 4.260 110.535 o
4 -7 3 5.309 5.973 5.726 69.948 o
4 -7 4 0.084 2.542 3.140 239.661 o
4 -7 5 59.852 65.935 5.333 41.602 o
4 -7 6 3.758 1.418 3.295 203.468 o
4 -7 7 39.128 32.697 4.673 63.638 o
4 -7 8 71.189 74.365 5.670 35.523 o
4 -7 9 1.681 2.733 5.255 86.133 o
4 -6 0 3.313 1.266 2.898 259.629 o
4 -6 1 23.728 26.434 4.008 91.933 o
4 -6 2 294.215 300.384 22.107 3.259 o
4 -6 3 691.572 683.969 17.688 1.776 o
4 -6 4 690.496 714.185 16.187 1.810 o
4 -6 5 109.926 104.874 6.614 23.233 o
4 -6 6 6.306 6.560 2.864 227.772 o
4 -6 7 14.422 14.973 4.022 110.275 o
4 -6 8 75.611 87.754 6.576 28.879 o
4 -6 9 19.480 25.816 3.846 102.250 o
4 -6 10 57.173 55.109 4.333 53.198 o
4 -5 0 334.951 350.666 17.903 3.784 o
4 -5 1 2.271 8.940 3.496 174.866 o
4 -5 2 70.075 69.476 6.401 32.103 o
4 -5 3 42.270 40.698 4.892 56.883 o
4 -5 4 20.132 23.581 3.905 100.912 o
4 -5 5 275.038 286.020 12.539 6.185 o
4 -5 6 64.494 63.365 6.615 32.417 o
4 -5 7 109.435 120.705 6.491 22.768 o
4 -5 8 174.001 180.473 7.546 13.803 o
4 -5 9 16.574 11.314 2.791 176.095 o
4 -5 10 23.326 20.417 3.707 105.321 o
4 -5 11 0.566 -3.572 2.254 468.272 o
4 -5 12 70.518 68.518 4.573 43.581 o
4 -4 0 12.043 10.032 2.076 274.024 o
4 -4 1 15.778 20.135 2.353 192.644 o
4 -4 2 152.996 156.820 5.022 19.587 o
4 -4 3 115.826 122.455 4.948 26.149 o
4 -4 4 281.289 296.797 8.642 7.565 o
4 -4 5 40.790 36.842 5.075 56.058 o
4 -4 6 221.278 249.978 13.570 6.740 o
4 -4 7 149.975 139.353 7.955 15.686 o
4 -4 8 272.373 300.251 10.239 7.048 o
4 -4 9 27.706 30.600 4.518 74.394 o
4 -4 10 280.092 286.332 9.010 7.548 o
4 -4 11 27.467 28.592 3.136 111.667 o
4 -4 12 23.486 30.619 3.477 105.361 o
4 -4 13 0.191 0.145 1.992 606.059 o
4 -3 0 864.836 943.843 15.909 1.266 o
4 -3 1 81.366 76.799 4.103 41.866 o
4 -3 2 242.447 242.951 6.716 10.284 o
4 -3 3 184.013 192.473 8.260 12.284 o
4 -3 4 334.804 351.632 11.320 5.382 o
4 -3 5 53.819 49.395 3.476 66.236 o
4 -3 6 435.920 474.786 8.782 4.151 o
4 -3 7 110.015 124.321 6.046 23.729 o
4 -3 8 0.304 -1.818 2.659 342.405 o
4 -3 9 54.732 50.012 4.280 56.072 o
4 -3 10 38.612 37.655 3.590 81.099 o
4 -3 11 80.575 85.581 7.522 24.526 o
4 -3 12 124.633 128.499 5.328 23.581 o
4 -3 13 35.585 33.753 4.529 67.779 o
4 -2 0 560.724 592.990 10.450 2.783 o
4 -2 1 115.185 109.593 4.637 28.146 o
4 -2 2 147.493 147.638 6.017 18.838 o
4 -2 3 3.815 2.293 1.874 508.586 o
4 -2 4 8.660 7.386 2.388 271.785 o
4 -2 5 439.609 474.338 12.079 3.692 o
4 -2 6 20.165 20.567 2.431 169.253 o
4 -2 7 41.280 40.601 3.107 86.236 o
4 -2 8 12.685 9.366 3.180 165.103 o
4 -2 9 112.126 114.276 5.826 24.713 o
4 -2 10 26.314 25.805 3.526 103.242 o
4 -2 11 81.453 73.314 5.452 34.654 o
4 -2 12 0.002 0.544 2.027 585.587 o
4 -2 13 1.615 0.828 2.711 310.662 o
4 -2 14 0.625 1.154 2.326 427.592 o
4 -1 0 70.087 69.098 4.030 47.595 o
4 -1 1 106.873 109.595 4.925 28.622 o
4 -1 2 170.877 190.926 6.475 14.954 o
4 -1 3 10.750 13.810 2.286 244.353 o
4 -1 4 480.060 473.044 10.976 3.552 o
4 -1 5 655.578 691.058 13.854 2.041 o
4 -1 6 220.100 231.057 7.955 10.456 o
4 -1 7 3.210 3.345 1.898 501.300 o
4 -1 8 54.546 52.230 4.003 58.689 o
4 -1 9 51.302 43.568 4.922 51.989 o
4 -1 10 0.266 2.347 3.167 235.267 o
4 -1 11 522.196 529.876 18.974 2.385 o
4 -1 12 352.231 357.613 9.977 5.472 o
4 -1 13 162.633 150.292 7.181 15.772 o
4 -1 14 2.018 -0.704 2.284 426.205 o
4 0 0 54.664 35.625 2.960 77.967 o
4 0 1 408.945 445.450 9.303 4.469 o
4 0 2 316.580 317.004 7.955 6.903 o
4 0 3 157.530 142.621 5.647 18.817 o
4 0 4 36.281 54.857 3.788 72.355 o
4 0 5 548.523 563.246 14.383 2.615 o
4 0 6 2.087 1.214 1.945 545.954 o
4 0 7 0.539 3.631 1.960 549.358 o
4 0 8 9.397 10.209 3.137 178.141 o
4 0 9 93.258 91.632 6.287 27.231 o
4 0 10 63.901 59.424 4.974 44.143 o
4 0 11 154.301 157.379 6.101 17.746 o
4 0 12 135.059 130.876 6.293 20.162 o
4 0 13 0.240 -2.568 2.442 406.092 o
4 0 14 128.519 124.076 5.287 23.474 o
4 1 0 2243.460 2283.580 27.579 0.240 o
4 1 1 4947.320 5226.710 30.408 0.054 o
4 1 2 1.836 3.382 1.753 613.095 o
4 1 3 4.297 7.302 1.698 491.191 o
4 1 4 777.884 809.598 15.684 1.533 o
4 1 5 96.311 98.726 4.916 31.534 o
4 1 6 99.596 91.994 5.106 30.794 o
4 1 7 7.853 8.228 3.217 180.722 o
4 1 8 26.747 22.867 3.564 103.493 o
4 1 9 489.768 510.426 14.285 3.018 o
4 1 10 171.347 174.488 8.413 13.055 o
4 1 11 510.660 542.735 11.617 3.083 o
4 1 12 211.902 217.769 10.084 9.364 o
4 1 13 2.726 5.612 2.946 241.597 o
4 1 14 44.940 47.807 6.375 39.502 o
4 2 0 47.042 50.772 3.276 73.406 o
4 2 1 1082.290 1061.260 13.462 0.963 o
4 2 2 7474.990 7627.150 111.244 0.022 o
4 2 3 0.329 -1.812 2.004 596.808 o
4 2 4 10.473 17.894 2.432 218.343 o
4 2 5 3.239 18.989 9.150 28.088 o
4 2 6 45.915 56.070 5.032 50.471 o
4 2 7 489.906 508.124 26.491 1.872 o
4 2 8 35.652 29.825 3.907 80.980 o
4 2 9 8.916 7.466 3.674 144.983 o
4 2 10 39.986 41.236 7.679 31.636 o
4 2 11 61.343 61.272 5.082 43.790 o
4 2 12 10.049 9.396 2.625 225.324 o
4 2 13 29.875 27.681 3.838 89.188 o
4 2 14 103.041 107.441 8.457 18.778 o
4 3 0 38.403 21.146 5.012 61.879 o
4 3 1 340.982 352.880 10.329 5.559 o
4 3 2 187.554 160.130 10.539 10.475 o
4 3 4 1.321 3.358 3.367 201.978 o
4 3 5 5.832 2.416 3.357 186.435 o
4 3 6 2.343 8.024 4.697 103.113 o
4 3 7 157.942 163.390 10.157 11.771 o
4 3 8 146.536 132.533 9.511 13.656 o
4 3 9 58.591 53.731 6.826 33.025 o
4 3 10 222.384 236.304 11.057 8.246 o
4 3 11 134.174 136.225 6.816 18.938 o
4 3 12 4.137 6.206 2.094 388.946 o
4 3 13 0.058 0.436 3.948 156.287 o
4 3 14 1.909 0.681 2.933 266.462 o
4 4 0 305.306 316.793 17.668 4.131 o
4 4 1 0.697 0.410 3.458 200.719 o
4 4 2 0.925 4.008 3.766 163.744 o
4 4 4 0.450 5.002 5.274 85.601 o
4 4 5 110.105 119.964 8.306 18.195 o
4 4 6 354.066 387.217 14.854 4.176 o
4 4 7 226.757 228.816 12.024 7.657 o
4 4 8 25.195 30.883 5.264 62.059 o
4 4 9 71.576 73.082 5.595 36.023 o
4 4 10 45.625 42.657 5.318 50.035 o
4 4 11 0.089 2.114 2.494 375.639 o
4 4 12 5.120 10.336 2.470 277.006 o
4 4 13 168.702 173.822 11.076 10.306 o
4 5 0 6.937 11.287 3.218 178.328 o
4 5 1 141.691 128.025 6.758 18.771 o
4 5 2 85.326 90.786 8.175 21.594 o
4 5 3 542.185 622.516 17.224 2.306 o
4 5 4 125.034 137.837 8.525 16.224 o
4 5 5 19.490 13.125 3.792 113.245 o
4 5 6 36.318 36.140 5.515 52.447 o
4 5 7 104.647 111.213 6.566 23.611 o
4 5 8 45.745 37.512 4.233 64.969 o
4 5 9 228.796 244.078 9.334 9.077 o
4 5 10 57.266 55.184 5.353 43.757 o
4 5 11 100.739 103.254 6.524 24.665 o
4 5 12 16.423 13.732 4.123 104.502 o
4 5 13 2.095 1.581 2.603 325.050 o
4 6 0 260.160 262.057 11.958 6.831 o
4 6 1 48.539 52.860 5.847 42.392 o
4 6 2 352.619 384.999 24.949 2.484 o
4 6 3 45.104 56.689 6.468 37.754 o
4 6 4 2.313 -1.821 4.548 114.956 o
4 6 5 165.655 165.516 14.927 7.349 o
4 6 6 309.205 322.264 13.673 5.167 o
4 6 7 4.118 6.911 3.608 162.975 o
4 6 8 287.560 294.271 12.946 5.814 o
4 6 9 2.889 1.231 3.019 244.095 o
4 6 10 29.315 31.106 6.060 49.137 o
4 6 11 161.644 188.549 11.587 9.819 o
4 6 12 48.211 50.641 5.355 47.346 o
4 7 0 21.309 22.829 4.492 83.164 o
4 7 1 68.572 76.414 12.719 12.369 o
4 7 2 17.610 14.727 3.926 109.639 o
4 7 3 225.837 247.467 17.638 4.968 o
4 7 4 33.088 34.179 7.602 33.700 o
4 7 5 3.599 -0.083 4.031 142.350 o
4 7 6 2.317 2.471 3.896 151.960 o
4 7 7 14.929 12.153 3.586 131.513 o
4 7 8 120.453 132.223 7.892 17.937 o
4 7 9 391.590 382.852 22.046 2.748 o
4 7 10 11.897 11.874 3.638 135.409 o
4 7 11 3.471 -1.107 2.544 331.795 o
4 8 0 36.475 32.726 4.878 61.924 o
4 8 1 0.789 6.155 3.955 146.964 o
4 8 2 0.458 0.975 3.864 161.297 o
4 8 3 192.560 187.911 14.555 7.050 o
4 8 4 328.718 339.432 19.125 3.599 o
4 8 5 34.642 33.000 6.639 41.314 o
4 8 6 1.040 -4.013 4.009 149.777 o
4 8 7 0.074 1.657 3.590 186.512 o
4 8 8 6.494 9.633 2.551 257.013 o
4 9 0 104.291 101.670 9.418 16.680 o
4 9 1 125.099 129.551 10.572 13.039 o
4 9 2 66.452 73.404 8.204 24.020 o
4 9 3 26.777 24.941 5.125 65.188 o
4 9 4 28.375 25.062 5.028 65.981 o
4 9 5 6.063 2.908 3.048 217.039 o
4 9 6 5.692 3.088 2.873 240.894 o
5 -7 0 47.650 46.995 4.834 53.777 o
5 -7 1 27.340 26.552 4.124 85.219 o
5 -7 2 9.502 12.308 2.778 204.913 o
5 -7 3 17.048 8.519 4.059 109.663 o
5 -7 4 46.646 39.931 5.706 46.121 o
5 -7 5 44.678 38.212 5.313 51.277 o
5 -7 6 16.301 16.257 3.724 118.677 o
5 -6 0 31.746 30.733 3.445 95.274 o
5 -6 1 2.963 3.226 2.544 319.097 o
5 -6 2 307.913 307.250 9.981 6.476 o
5 -6 3 278.704 285.869 16.226 4.847 o
5 -6 4 28.323 20.828 4.676 74.198 o
5 -6 5 0.710 -0.309 3.556 190.710 o
5 -6 6 0.061 2.281 3.085 249.043 o
5 -6 7 72.564 71.003 6.306 32.042 o
5 -6 8 45.827 43.580 4.625 57.915 o
5 -6 9 116.177 117.362 4.650 27.318 o
5 -5 0 425.747 466.683 22.348 2.462 o
5 -5 1 21.335 22.826 4.478 83.517 o
5 -5 2 202.663 186.340 17.449 5.484 o
5 -5 3 63.817 65.275 12.277 13.404 o
5 -5 4 205.641 224.311 12.709 7.672 o
5 -5 5 450.879 486.854 25.008 2.101 o
5 -5 6 14.271 12.410 4.456 96.128 o
5 -5 7 62.827 50.885 5.504 41.556 o
5 -5 8 28.372 19.956 4.960 68.745 o
5 -5 9 28.144 25.156 3.616 98.597 o
5 -5 10 14.668 14.527 3.055 159.400 o
5 -4 0 278.138 279.981 11.536 6.586 o
5 -4 1 191.194 178.926 9.256 11.281 o
5 -4 2 1.564 6.353 3.068 229.719 o
5 -4 3 31.742 24.920 4.290 78.256 o
5 -4 4 44.210 41.002 6.640 38.287 o
5 -4 5 136.989 147.764 7.310 17.348 o
5 -4 6 32.628 38.911 4.607 66.691 o
5 -4 7 195.124 205.834 8.595 11.270 o
5 -4 8 580.850 609.026 21.190 1.937 o
5 -4 9 223.767 232.404 12.297 7.523 o
5 -4 10 67.303 65.329 5.062 41.562 o
5 -4 11 0.195 3.453 7.309 45.389 o
5 -3 0 50.606 40.051 6.325 39.499 o
5 -3 1 9.335 8.098 3.129 182.941 o
5 -3 2 24.082 26.204 4.330 83.291 o
5 -3 3 269.524 263.958 14.963 5.463 o
5 -3 4 279.761 308.267 11.104 6.510 o
5 -3 5 57.523 55.654 4.957 47.028 o
5 -3 6 1.809 -1.621 2.866 281.828 o
5 -3 7 0.026 0.648 2.722 326.406 o
5 -3 8 13.195 17.537 3.577 130.005 o
5 -3 9 10.335 14.111 4.326 104.445 o
5 -3 10 0.846 -0.977 2.560 361.194 o
5 -3 11 23.914 22.333 3.799 100.285 o
5 -3 12 97.084 83.152 7.791 22.079 o
5 -2 0 38.898 33.988 3.340 87.680 o
5 -2 1 5.794 10.055 2.161 324.225 o
5 -2 2 1.383 2.906 2.407 374.620 o
5 -2 3 0.695 1.282 2.492 373.372 o
5 -2 4 11.416 13.038 2.969 178.887 o
5 -2 5 59.740 62.017 6.127 36.466 o
5 -2 6 203.426 190.798 9.325 10.604 o
5 -2 7 85.038 95.982 5.936 29.560 o
5 -2 8 198.942 210.315 9.956 9.921 o
5 -2 9 16.978 21.848 4.082 100.111 o
5 -2 10 90.070 82.580 5.216 33.074 o
5 -2 11 43.412 37.640 3.362 80.881 o
5 -2 12 116.574 102.567 5.282 26.526 o
5 -1 0 8.612 5.860 2.139 319.681 o
5 -1 1 32.219 32.263 4.356 73.725 o
5 -1 2 304.620 316.954 9.213 6.712 o
5 -1 3 26.659 32.453 3.164 109.013 o
5 -1 4 508.225 518.999 12.288 3.100 o
5 -1 5 0.727 2.682 2.202 454.353 o
5 -1 6 265.524 275.407 8.600 8.171 o
5 -1 7 1.040 -0.665 3.220 230.083 o
5 -1 8 0.629 -1.346 4.622 113.678 o
5 -1 9 273.126 323.666 23.796 2.985 o
5 -1 10 599.984 664.308 31.049 1.320 o
5 -1 11 16.368 6.869 6.832 46.986 o
5 -1 12 5.120 3.095 2.762 260.858 o
5 -1 13 80.714 84.280 7.996 22.890 o
5 0 0 72.338 61.464 3.949 48.822 o
5 0 1 26.913 21.424 2.746 133.681 o
5 0 2 3.148 4.499 2.827 260.152 o
5 0 3 30.729 25.757 3.138 108.684 o
5 0 4 393.056 395.446 8.335 5.070 o
5 0 5 5.375 4.048 2.262 346.304 o
5 0 6 424.402 448.819 10.441 4.141 o
5 0 7 335.697 331.139 12.856 5.073 o
5 0 8 74.225 72.966 11.970 13.520 o
5 0 9 26.984 108.960 81.520 0.367 o
5 0 10 91.411 95.489 9.636 17.086 o
5 0 11 185.384 177.423 7.948 12.878 o
5 0 12 23.204 17.424 3.673 108.837 o
5 0 13 195.723 185.625 12.231 8.549 o
5 1 0 78.967 64.427 3.881 46.184 o
5 1 1 46.456 41.930 3.834 68.955 o
5 1 2 724.980 786.406 14.582 1.705 o
5 1 3 31.023 23.725 3.097 111.092 o
5 1 4 1.209 2.002 3.252 219.529 o
5 1 5 14.532 16.716 2.454 198.644 o
5 1 6 49.130 39.746 4.491 58.928 o
5 1 7 4.846 2.071 2.774 264.831 o
5 1 8 9.375 5.754 3.388 165.906 o
5 1 9 70.612 76.687 9.085 20.476 o
5 1 10 16.768 5.085 13.060 13.917 o
5 1 11 68.476 71.679 6.382 32.292 o
5 1 12 1.384 5.244 2.670 299.276 o
5 1 13 76.737 69.063 8.120 23.553 o
5 2 0 277.231 279.466 12.641 6.160 o
5 2 1 41.598 37.125 3.890 73.359 o
5 2 2 14.982 18.623 2.893 162.292 o
5 2 3 0.161 2.610 2.285 436.719 o
5 2 4 41.619 40.572 5.977 44.849 o
5 2 5 124.160 137.018 6.218 21.076 o
5 2 6 75.705 70.353 6.590 30.127 o
5 2 7 212.401 233.120 11.739 8.062 o
5 2 8 17.327 6.527 9.776 24.182 o
5 2 9 96.378 97.736 8.440 19.660 o
5 2 10 91.542 104.290 12.273 12.048 o
5 2 11 206.632 209.201 10.141 9.577 o
5 2 12 43.683 49.474 4.814 55.212 o
5 2 13 6.677 5.594 3.553 161.659 o
5 3 0 80.887 70.276 4.972 37.813 o
5 3 1 109.128 114.686 9.753 15.412 o
5 3 2 88.591 80.685 10.058 16.663 o
5 3 3 7.818 7.126 2.744 231.702 o
5 3 4 14.574 14.553 3.139 154.413 o
5 3 5 113.879 117.092 5.663 24.777 o
5 3 6 157.579 187.201 8.505 13.280 o
5 3 7 246.448 237.183 12.431 7.027 o
5 3 8 8.266 9.738 5.603 70.100 o
5 3 9 11.009 15.361 5.935 60.708 o
5 3 10 148.098 155.363 14.079 8.308 o
5 3 11 131.414 126.867 9.589 14.345 o
5 3 12 196.549 208.381 13.780 7.304 o
5 3 13 0.811 6.872 3.464 186.698 o
5 4 0 105.986 118.686 9.850 15.285 o
5 4 1 73.479 78.909 7.660 25.137 o
5 4 2 7.204 12.104 4.269 112.363 o
5 4 3 42.301 39.010 4.236 66.606 o
5 4 4 0.522 4.142 4.872 100.243 o
5 4 5 104.260 93.337 11.208 13.477 o
5 4 6 199.872 211.926 20.709 4.236 o
5 4 7 101.408 99.613 8.294 19.595 o
5 4 8 25.630 27.668 5.078 65.902 o
5 4 9 13.645 12.485 5.712 64.306 o
5 4 10 68.879 71.179 5.976 34.553 o
5 4 11 167.175 178.531 8.332 13.248 o
5 4 12 12.930 13.741 4.199 106.229 o
5 4 13 140.615 131.489 8.279 15.933 o
5 5 0 91.147 73.613 21.757 4.719 o
5 5 1 151.319 153.022 9.118 13.542 o
5 5 2 227.368 252.960 11.505 7.715 o
5 5 3 9.529 8.367 3.166 178.626 o
5 5 4 1.825 2.296 3.014 248.277 o
5 5 5 34.046 35.295 7.892 31.525 o
5 5 6 169.292 174.956 15.340 6.975 o
5 5 7 107.162 102.725 8.079 19.586 o
5 5 8 44.179 43.633 4.776 56.792 o
5 5 9 53.159 47.662 4.181 58.584 o
5 5 10 68.389 70.063 5.357 38.614 o
5 5 11 11.075 18.272 4.689 88.970 o
5 5 12 22.014 22.171 3.909 99.312 o
5 6 0 84.528 95.762 7.445 23.831 o
5 6 1 0.068 1.096 2.859 293.657 o
5 6 2 52.554 54.793 6.041 39.536 o
5 6 3 10.099 10.933 3.466 150.965 o
5 6 4 116.136 127.457 12.954 10.266 o
5 6 5 5.185 5.437 5.286 81.487 o
5 6 6 11.798 17.801 5.947 59.638 o
5 6 7 0.196 -0.125 3.183 240.365 o
5 6 8 0.364 2.181 2.554 354.733 o
5 6 9 24.406 24.007 3.760 99.797 o
5 6 10 0.274 4.391 2.934 264.557 o
5 6 11 0.350 -0.223 2.457 399.251 o
5 7 0 110.088 115.746 7.790 19.561 o
5 7 1 4.018 9.077 3.356 180.896 o
5 7 2 11.396 14.028 3.778 126.929 o
5 7 3 19.617 12.026 5.119 73.462 o
5 7 4 77.838 72.639 9.837 18.000 o
5 7 5 93.822 92.654 10.446 15.299 o
5 7 6 102.429 100.581 10.614 14.438 o
5 7 7 94.185 92.906 9.703 16.851 o
5 7 8 338.532 333.679 16.261 4.179 o
5 8 0 0.620 -8.018 4.079 145.701 o
5 8 1 41.277 38.669 6.304 42.100 o
5 8 2 6.800 5.892 4.024 130.336 o
5 8 3 49.457 47.787 7.143 33.084 o
5 8 4 182.691 199.375 13.354 7.875 o
5 8 5 95.652 104.295 9.538 16.827 o
5 8 6 28.678 31.202 5.500 56.732 o
5 8 7 0.949 2.200 2.438 378.015 o
5 9 1 50.678 52.819 5.627 43.703 o
5 9 2 35.345 36.964 4.944 60.431 o
5 9 3 140.531 132.823 8.657 15.263 o
5 9 4 153.699 144.910 8.652 14.276 o
5 9 5 3.897 5.650 2.527 300.129 o
6 -6 0 56.385 49.427 4.332 54.858 o
6 -6 1 17.302 17.467 3.144 143.044 o
6 -6 2 2.203 -2.284 2.327 408.822 o
6 -6 3 115.462 110.678 9.072 16.515 o
6 -6 4 0.476 -1.264 3.408 208.426 o
6 -5 0 36.498 34.955 4.613 65.459 o
6 -5 1 3.165 0.939 2.534 332.035 o
6 -5 2 29.056 29.338 4.107 82.733 o
6 -5 3 191.861 202.452 15.964 6.201 o
6 -5 4 330.030 334.007 26.832 2.369 o
6 -5 5 344.541 342.928 10.442 5.548 o
6 -5 6 51.968 47.869 4.389 56.709 o
6 -5 7 5.288 2.690 2.266 355.721 o
6 -5 8 57.098 53.715 5.832 40.157 o
6 -4 0 253.286 272.797 9.309 8.139 o
6 -4 1 62.514 60.459 5.709 38.873 o
6 -4 2 0.257 -4.428 4.181 139.449 o
6 -4 3 11.212 6.792 7.755 38.193 o
6 -4 4 62.530 53.690 6.048 37.304 o
6 -4 5 49.174 52.628 4.976 50.457 o
6 -4 6 145.766 144.494 7.168 17.096 o
6 -4 7 5.800 3.202 2.508 297.013 o
6 -4 8 15.059 13.586 2.984 164.227 o
6 -4 9 62.724 53.284 6.689 33.175 o
6 -4 10 84.372 80.114 6.577 28.151 o
6 -3 0 122.990 123.879 9.254 15.400 o
6 -3 1 67.557 62.001 7.988 25.361 o
6 -3 2 25.659 23.922 4.244 85.037 o
6 -3 3 84.011 75.511 12.318 12.600 o
6 -3 4 9.173 9.885 3.494 152.940 o
6 -3 5 132.466 133.373 12.017 10.856 o
6 -3 6 33.900 40.276 6.723 39.901 o
6 -3 7 60.731 51.439 9.611 20.350 o
6 -3 8 123.903 121.647 7.274 19.411 o
6 -3 9 107.545 117.718 8.775 17.401 o
6 -3 10 65.648 57.127 5.549 39.641 o
6 -3 11 42.043 38.362 4.742 59.571 o
6 -2 0 4.156 0.105 2.246 398.408 o
6 -2 1 233.484 231.686 10.719 8.261 o
6 -2 2 0.099 0.870 2.905 285.377 o
6 -2 3 89.824 84.587 7.326 24.277 o
6 -2 4 146.127 151.607 8.786 14.290 o
6 -2 5 259.703 285.516 16.124 5.047 o
6 -2 6 35.757 34.618 5.160 57.680 o
6 -2 7 151.384 158.216 8.995 13.589 o
6 -2 8 17.795 12.109 4.643 86.989 o
6 -2 9 3.669 -0.309 4.438 118.480 o
6 -2 10 4.084 0.804 2.935 249.976 o
6 -2 11 5.977 8.402 3.449 167.646 o
6 -1 0 155.974 162.251 6.584 16.702 o
6 -1 1 331.050 354.083 11.124 5.466 o
6 -1 2 8.315 4.656 3.150 191.856 o
6 -1 3 111.737 116.846 8.275 18.261 o
6 -1 4 95.196 100.307 8.139 20.473 o
6 -1 5 1.108 0.546 2.680 324.628 o
6 -1 6 12.158 10.128 3.165 166.704 o
6 -1 7 23.338 24.187 3.907 96.540 o
6 -1 8 85.698 85.121 10.363 16.017 o
6 -1 9 0.343 -4.692 3.482 200.375 o
6 -1 10 42.453 39.120 5.687 47.778 o
6 -1 11 8.211 1.328 3.449 171.785 o
6 0 0 15.041 17.136 3.616 124.959 o
6 0 1 12.750 9.268 4.494 98.251 o
6 0 2 41.727 39.502 5.108 54.646 o
6 0 3 75.367 77.331 7.061 27.497 o
6 0 4 79.898 83.177 10.670 15.664 o
6 0 5 74.284 63.734 5.641 36.185 o
6 0 6 327.537 352.662 15.024 4.487 o
6 0 7 34.589 32.765 4.523 68.836 o
6 0 8 11.226 8.398 3.972 122.763 o
6 0 9 0.666 -1.247 4.540 117.755 o
6 0 10 1.422 0.289 3.000 260.106 o
6 0 11 17.597 15.753 5.505 65.489 o
6 0 12 239.289 214.267 12.888 7.090 o
6 1 0 76.823 93.998 7.222 25.608 o
6 1 1 2.428 2.322 2.810 277.015 o
6 1 2 179.961 183.219 9.870 10.994 o
6 1 3 104.276 95.090 7.685 21.196 o
6 1 4 12.464 8.682 4.868 86.632 o
6 1 5 13.490 14.780 3.606 130.748 o
6 1 6 169.048 175.723 8.770 12.712 o
6 1 7 10.231 9.975 3.175 172.548 o
6 1 8 1.480 -2.910 3.642 179.282 o
6 1 9 0.742 -3.655 4.592 115.007 o
6 1 10 0.496 4.402 4.918 98.305 o
6 1 11 113.919 124.231 11.486 12.205 o
6 1 12 96.326 90.707 8.739 19.129 o
6 1 13 34.290 27.707 4.493 71.252 o
6 2 0 10.856 11.254 2.813 197.884 o
6 2 1 1070.490 1055.050 22.242 0.869 o
6 2 2 2234.800 2276.440 58.222 0.192 o
6 2 3 7.150 3.558 3.407 175.163 o
6 2 4 15.685 15.777 4.648 87.086 o
6 2 5 217.161 257.781 14.356 6.358 o
6 2 6 61.196 67.854 5.572 39.251 o
6 2 7 10.638 10.015 3.630 140.671 o
6 2 8 1.031 1.077 4.042 146.146 o
6 2 9 2.340 0.012 3.645 176.103 o
6 2 10 211.681 225.250 15.896 5.897 o
6 2 11 134.324 137.060 11.495 11.370 o
6 2 12 157.766 157.229 10.606 11.370 o
6 3 0 99.575 109.624 8.083 19.900 o
6 3 1 46.502 40.780 5.241 50.909 o
6 3 2 441.479 440.917 23.761 2.303 o
6 3 3 941.865 946.090 34.206 0.807 o
6 3 4 0.031 4.712 5.049 93.700 o
6 3 5 54.498 55.487 4.925 48.428 o
6 3 6 10.146 19.027 6.693 48.782 o
6 3 7 0.451 4.721 4.210 132.606 o
6 3 8 93.361 96.053 11.086 14.039 o
6 3 9 8.305 6.146 4.062 125.309 o
6 3 10 38.126 42.996 4.654 61.641 o
6 3 11 15.274 17.920 4.909 79.478 o
6 3 12 0.946 -0.704 2.646 337.592 o
6 4 0 95.260 89.324 20.504 5.194 o
6 4 1 0.379 3.542 4.432 121.119 o
6 4 2 120.427 122.441 15.460 7.880 o
6 4 3 85.557 79.974 10.588 15.660 o
6 4 4 6.075 0.909 3.260 198.236 o
6 4 5 0.165 5.437 3.438 194.695 o
6 4 6 11.197 16.878 6.245 55.168 o
6 4 7 6.360 2.096 2.797 250.391 o
6 4 8 137.802 134.903 11.564 11.217 o
6 4 9 53.738 53.553 4.937 48.952 o
6 4 10 49.514 47.959 6.738 35.774 o
6 4 11 52.369 54.737 6.323 37.473 o
6 5 0 105.057 103.332 11.115 13.421 o
6 5 1 11.601 1.245 16.145 9.271 o
6 5 2 0.590 3.028 3.968 150.243 o
6 5 3 36.481 37.994 4.632 64.280 o
6 5 4 59.651 51.605 37.314 1.724 o
6 5 5 10.143 5.937 5.278 78.012 o
6 5 6 38.137 37.000 7.246 35.206 o
6 5 7 167.115 159.061 13.046 8.762 o
6 5 8 30.602 32.872 5.613 54.020 o
6 5 9 0.055 -3.941 3.432 207.452 o
6 5 10 0.020 -6.561 3.166 243.986 o
6 6 0 11.588 203.642 146.282 0.114 o
6 6 1 5.421 196.140 156.517 0.100 o
6 6 2 1.586 3.970 2.986 248.458 o
6 6 3 56.536 68.290 10.472 17.580 o
6 6 4 99.840 89.429 9.727 16.588 o
6 6 5 28.935 23.520 6.164 49.212 o
6 6 6 27.773 22.619 5.330 61.737 o
6 6 7 0.729 2.209 3.383 205.319 o
6 7 0 64.047 56.448 7.122 30.251 o
6 7 1 76.798 76.423 8.159 23.058 o
6 7 2 1.093 0.320 3.128 242.059 o
6 7 3 196.456 179.029 11.809 8.920 o
6 7 4 49.367 55.620 7.048 33.053 o
6 7 5 0.793 0.541 2.949 272.683 o
6 7 6 149.318 146.066 10.185 12.357 o
6 7 7 90.833 88.112 7.578 23.125 o
6 8 2 25.071 19.231 4.132 90.898 o
6 8 3 8.862 9.254 3.439 158.445 o
6 8 4 10.677 4.185 2.729 225.309 o
6 8 5 5.918 8.572 2.669 248.885 o
7 -5 2 8.158 8.957 3.302 171.350 o
7 -4 0 32.585 30.581 4.334 74.495 o
7 -4 1 56.514 59.441 4.955 46.738 o
7 -4 2 2.807 3.346 2.149 422.747 o
7 -4 3 143.466 165.749 7.542 15.936 o
7 -4 4 91.692 93.656 5.642 29.876 o
7 -4 5 27.698 24.161 4.331 81.031 o
7 -4 6 109.922 114.015 4.253 29.852 o
7 -3 0 66.996 89.861 6.439 30.703 o
7 -3 1 150.922 160.565 11.741 10.306 o
7 -3 2 83.447 79.337 6.095 30.498 o
7 -3 3 15.853 17.211 2.906 160.981 o
7 -3 4 0.076 2.860 4.498 118.678 o
7 -3 5 49.749 40.413 4.503 58.287 o
7 -3 6 48.325 56.933 7.328 31.408 o
7 -3 7 31.081 23.608 4.865 67.767 o
7 -3 8 103.368 108.846 8.207 19.319 o
7 -3 9 236.400 217.386 9.592 9.063 o
7 -2 0 99.016 103.046 5.715 27.671 o
7 -2 1 1.497 0.817 1.939 575.388 o
7 -2 2 16.476 14.542 2.881 164.833 o
7 -2 3 13.577 14.543 2.919 172.058 o
7 -2 4 79.287 81.781 5.218 35.452 o
7 -2 5 154.492 155.550 8.762 13.825 o
7 -2 6 0.802 3.472 2.908 268.443 o
7 -2 7 1.440 -1.848 3.910 156.267 o
7 -2 8 28.839 23.878 5.368 60.306 o
7 -2 9 9.829 11.007 3.425 154.256 o
7 -1 0 46.867 48.919 4.880 53.178 o
7 -1 1 22.369 21.218 3.235 123.657 o
7 -1 2 33.244 23.083 4.664 70.309 o
7 -1 3 0.385 1.540 2.872 286.205 o
7 -1 4 42.052 38.258 5.103 54.844 o
7 -1 5 0.127 -0.978 3.093 254.911 o
7 -1 6 2.951 -1.391 2.949 258.578 o
7 -1 7 54.417 294.833 236.848 0.044 o
7 -1 8 81.834 113.088 29.964 2.582 o
7 -1 9 5.496 7.361 3.831 143.024 o
7 -1 10 0.025 -0.279 2.397 425.462 o
7 0 0 0.141 -0.418 3.285 226.006 o
7 0 1 25.433 27.748 4.374 80.434 o
7 0 2 33.520 30.694 4.642 68.082 o
7 0 3 94.590 92.779 7.401 23.086 o
7 0 4 11.515 10.689 10.354 21.896 o
7 0 5 118.564 107.537 8.070 18.570 o
7 0 6 26.445 14.579 3.849 100.407 o
7 0 7 138.595 228.550 108.069 0.208 o
7 0 8 3.374 122.895 119.565 0.171 o
7 0 9 1.247 -1.289 3.403 205.562 o
7 0 10 202.371 193.471 9.675 10.299 o
7 1 0 1.613 0.377 2.530 356.264 o
7 1 1 74.900 73.602 6.383 31.021 o
7 1 2 21.672 18.219 4.003 99.166 o
7 1 3 2.393 1.340 3.079 238.119 o
7 1 4 10.269 8.487 3.383 159.477 o
7 1 5 78.659 88.843 13.018 11.514 o
7 1 6 38.940 35.209 5.016 58.069 o
7 1 7 112.883 119.504 14.736 8.618 o
7 1 8 80.733 82.276 8.580 21.067 o
7 1 9 0.053 -1.900 2.797 312.355 o
7 1 10 15.675 9.732 4.064 110.571 o
7 2 0 146.166 165.828 10.575 11.645 o
7 2 1 1.967 0.287 2.866 279.324 o
7 2 2 3.594 3.047 3.209 210.249 o
7 2 3 202.229 219.920 10.561 9.238 o
7 2 4 5.512 8.072 3.344 178.473 o
7 2 5 26.600 27.470 4.856 69.514 o
7 2 6 2.557 -10.087 5.444 80.761 o
7 2 7 6.910 0.074 13.092 14.126 o
7 2 8 2.536 6.822 4.282 122.973 o
7 2 9 17.724 15.193 4.840 80.403 o
7 2 10 1.573 1.587 3.150 232.202 o
7 3 0 28.103 9.139 5.431 63.195 o
7 3 1 65.338 66.215 9.238 20.741 o
7 3 2 0.003 -0.447 5.228 89.546 o
7 3 3 11.571 6.740 5.164 79.732 o
7 3 4 0.185 -2.294 5.051 95.747 o
7 3 5 27.048 21.058 6.653 44.485 o
7 3 6 13.651 13.875 5.440 69.466 o
7 3 7 20.752 31.207 5.966 53.239 o
7 3 9 2.583 -6.494 3.709 169.607 o
7 3 10 102.663 90.317 7.025 23.571 o
7 4 0 22.110 18.779 7.870 34.561 o
7 4 1 32.646 18.492 6.555 44.419 o
7 4 2 56.563 26.135 7.147 33.673 o
7 4 3 9.515 -16.196 6.549 53.892 o
7 4 4 7.761 0.562 5.058 88.308 o
7 4 5 7.486 0.061 5.813 68.414 o
7 4 6 87.586 45.697 7.359 26.668 o
7 5 0 17.241 132.578 108.125 0.209 o
7 5 1 0.046 17.808 30.142 2.687 o
7 5 2 29.411 4.911 5.160 68.734 o
7 6 0 113.949 132.974 8.425 17.250 o
7 6 1 54.120 62.604 5.300 44.026 o
7 6 2 76.479 113.294 9.923 16.754 o
8 -2 1 138.497 142.841 8.541 15.292 o
8 -2 2 12.836 11.705 3.374 148.627 o
8 -2 3 3.918 4.332 2.782 262.075 o
8 -2 4 0.571 3.443 1.953 554.958 o
8 -2 5 1.784 2.615 1.864 571.633 o
8 -2 6 5.420 2.292 2.264 357.229 o
8 -1 0 10.406 10.865 3.762 132.805 o
8 -1 1 5.062 6.207 3.270 190.443 o
8 -1 2 45.672 44.699 3.894 67.655 o
8 -1 3 12.158 11.402 2.552 215.410 o
8 -1 4 11.882 5.811 3.448 154.244 o
8 -1 5 77.333 79.370 7.293 26.142 o
8 -1 6 101.248 99.820 7.686 21.251 o
8 -1 7 5.592 4.445 2.689 263.337 o
8 0 1 108.675 112.839 9.958 15.095 o
8 0 2 35.640 42.784 4.062 72.737 o
8 0 3 6.440 8.149 3.739 145.898 o
8 0 4 1.453 5.706 3.736 162.264 o
8 0 5 55.111 49.500 6.637 35.250 o
8 0 6 19.066 9.148 3.568 127.160 o
8 0 7 0.169 0.615 2.913 284.240 o
8 1 0 14.417 1.849 4.932 85.983 o
8 1 2 14.820 8.782 4.038 113.617 o
8 1 3 38.028 36.935 6.113 45.042 o
8 1 4 74.719 95.436 8.975 19.839 o
8 1 5 8.139 5.374 4.072 125.714 o
8 1 6 32.334 27.867 5.123 61.509 o
8 1 7 45.192 44.816 5.419 48.729 o
8 2 1 99.281 69.864 7.502 23.448 o
8 2 2 41.916 19.126 5.125 58.931 o
8 2 3 60.799 45.368 6.600 34.805 o
8 2 4 34.251 29.874 5.781 51.068 o
8 2 5 7.557 4.553 3.491 165.399 o
8 2 6 16.470 15.430 4.222 99.862 o
8 2 7 45.190 45.565 5.361 49.207 o
8 3 0 2.033 11.058 4.336 117.673 o
8 3 1 0.670 -7.740 4.681 110.781 o
8 3 2 626.281 582.903 19.934 1.937 o
8 3 3 680.915 684.695 21.666 1.614 o
8 3 5 0.347 -9.215 5.695 75.241 o
8 3 6 99.909 63.282 6.692 26.699 o
8 4 2 7.694 3.098 3.924 137.118 o
8 4 3 59.329 28.589 5.255 48.304 o
8 4 4 170.842 122.412 8.631 14.016 o
;
loop_
_space_group_symop_id
_space_group_symop_operation_xyz
1 x,y,z
2 -x,-y,-z
loop_
_atom_site_label
_atom_site_type_symbol
_atom_site_fract_x
_atom_site_fract_y
_atom_site_fract_z
_atom_site_U_iso_or_equiv
_atom_site_adp_type
_atom_site_occupancy
_atom_site_refinement_flags_posn
S1 S 0.38509(8) 0.72186(5) 0.93077(3) 0.02190(14) Uani 1.000000 .
O1 O 0.2152(2) 1.40950(17) 0.59970(10) 0.0322(4) Uani 1.000000 .
N2 N 0.2457(2) 1.00429(17) 1.02610(11) 0.0193(4) Uani 1.000000 .
H2 H 0.2112(2) 1.05271(17) 1.08776(11) 0.0232(4) Uiso 1.000000 R
O2 O 0.1063(2) 1.58785(16) 0.72549(11) 0.0313(4) Uani 1.000000 .
N1 N 0.3338(2) 0.63622(17) 1.16880(11) 0.0172(3) Uani 1.000000 .
H1 H 0.3796(2) 0.56425(17) 1.12010(11) 0.0207(4) Uiso 1.000000 R
C11 C 0.2312(3) 1.1054(2) 0.93748(13) 0.0173(4) Uani 1.000000 .
N3 N 0.1692(3) 1.45058(19) 0.69598(12) 0.0236(4) Uani 1.000000 .
C2 C 0.2255(3) 0.7547(2) 1.32909(14) 0.0178(4) Uani 1.000000 .
C3 C 0.2171(3) 0.8711(2) 1.24841(14) 0.0169(4) Uani 1.000000 .
C4 C 0.2844(3) 0.7940(2) 1.14698(14) 0.0163(4) Uani 1.000000 .
C1 C 0.3002(3) 0.6103(2) 1.27739(13) 0.0182(4) Uani 1.000000 .
C15 C 0.2541(3) 1.1753(2) 0.74872(14) 0.0211(4) Uani 1.000000 .
H15 H 0.2823(3) 1.1471(2) 0.67546(14) 0.0253(5) Uiso 1.000000 R
C12 C 0.1674(3) 1.2642(2) 0.96579(14) 0.0200(4) Uani 1.000000 .
H12 H 0.1381(3) 1.2939(2) 1.03878(14) 0.0240(5) Uiso 1.000000 R
C13 C 0.1472(3) 1.3771(2) 0.88754(15) 0.0207(4) Uani 1.000000 .
H13 H 0.1049(3) 1.4824(2) 0.90687(15) 0.0248(5) Uiso 1.000000 R
C6 C 0.1533(3) 1.0440(2) 1.27116(14) 0.0224(4) Uani 1.000000 .
H6a H 0.0404(13) 1.0781(4) 1.2384(9) 0.0337(6) Uiso 1.000000 GR
H6b H 0.119(2) 1.0616(3) 1.34832(14) 0.0337(6) Uiso 1.000000 GR
H6c H 0.2597(7) 1.1029(3) 1.2413(10) 0.0337(6) Uiso 1.000000 GR
C9 C 0.3020(3) 0.8466(2) 1.03626(13) 0.0160(4) Uani 1.000000 .
C16 C 0.2755(3) 1.0612(2) 0.82737(14) 0.0205(4) Uani 1.000000 .
H16 H 0.3189(3) 0.9563(2) 0.80723(14) 0.0246(5) Uiso 1.000000 R
C7 C 0.1637(3) 0.7786(2) 1.45034(13) 0.0206(4) Uani 1.000000 .
H7a H 0.0433(3) 0.8524(2) 1.46475(13) 0.0247(5) Uiso 1.000000 R
H7b H 0.1342(3) 0.6786(2) 1.48335(13) 0.0247(5) Uiso 1.000000 R
C8 C 0.3201(3) 0.8410(3) 1.50376(15) 0.0281(5) Uani 1.000000 .
H8a H 0.3460(16) 0.9423(8) 1.4739(9) 0.0422(7) Uiso 1.000000 GR
H8b H 0.2730(10) 0.8516(17) 1.5807(2) 0.0422(7) Uiso 1.000000 GR
H8c H 0.4397(8) 0.7683(9) 1.4903(10) 0.0422(7) Uiso 1.000000 GR
C14 C 0.1911(3) 1.3306(2) 0.77941(14) 0.0188(4) Uani 1.000000 .
C5 C 0.3418(3) 0.4509(2) 1.32553(15) 0.0243(4) Uani 1.000000 .
H5a H 0.2265(7) 0.3972(7) 1.3330(11) 0.0365(7) Uiso 1.000000 GR
H5b H 0.4500(14) 0.3903(6) 1.2788(6) 0.0365(7) Uiso 1.000000 GR
H5c H 0.376(2) 0.4627(2) 1.3957(5) 0.0365(7) Uiso 1.000000 GR
loop_
_atom_site_aniso_label
_atom_site_aniso_U_11
_atom_site_aniso_U_22
_atom_site_aniso_U_33
_atom_site_aniso_U_12
_atom_site_aniso_U_13
_atom_site_aniso_U_23
S1 0.0334(3) 0.0158(2) 0.0139(2) 0.00244(19) -0.00111(18) -0.00205(15)
O1 0.0419(9) 0.0327(8) 0.0189(7) -0.0011(7) -0.0005(6) 0.0077(6)
N2 0.0303(9) 0.0136(8) 0.0113(6) 0.0023(7) 0.0001(6) -0.0005(5)
O2 0.0440(9) 0.0176(7) 0.0316(7) -0.0018(6) -0.0071(7) 0.0057(6)
N1 0.0232(8) 0.0129(7) 0.0135(7) 0.0010(6) 0.0001(6) -0.0018(5)
C11 0.0179(9) 0.0175(9) 0.0150(8) -0.0009(7) -0.0003(7) 0.0021(7)
N3 0.0265(9) 0.0219(9) 0.0217(8) -0.0032(7) -0.0030(7) 0.0059(6)
C2 0.0204(9) 0.0161(9) 0.0150(8) -0.0011(7) 0.0006(7) -0.0013(6)
C3 0.0180(9) 0.0156(9) 0.0161(8) -0.0020(7) -0.0003(7) -0.0006(7)
C4 0.0191(9) 0.0129(8) 0.0157(8) -0.0007(7) -0.0011(7) 0.0002(6)
C1 0.0218(10) 0.0178(9) 0.0140(8) -0.0022(8) -0.0006(7) 0.0007(7)
C15 0.0231(10) 0.0232(10) 0.0152(8) -0.0013(8) -0.0000(7) 0.0007(7)
C12 0.0244(10) 0.0178(9) 0.0153(8) -0.0001(8) 0.0011(7) -0.0010(7)
C13 0.0224(10) 0.0153(9) 0.0226(9) -0.0017(7) -0.0004(7) 0.0006(7)
C6 0.0332(11) 0.0156(9) 0.0157(8) -0.0008(8) 0.0016(8) -0.0014(7)
C9 0.0168(9) 0.0140(8) 0.0162(8) -0.0013(7) -0.0007(7) -0.0005(6)
C16 0.0251(10) 0.0174(9) 0.0170(8) 0.0006(8) -0.0011(7) -0.0011(7)
C7 0.0267(10) 0.0187(9) 0.0135(8) -0.0005(8) 0.0019(7) 0.0003(7)
C8 0.0350(12) 0.0309(11) 0.0173(8) -0.0020(9) -0.0027(8) -0.0027(8)
C14 0.0189(9) 0.0176(9) 0.0191(8) -0.0025(7) -0.0014(7) 0.0063(7)
C5 0.0338(12) 0.0179(10) 0.0184(9) 0.0010(8) -0.0004(8) 0.0022(7)
loop_
_atom_type_symbol
_atom_type_scat_dispersion_real
_atom_type_scat_dispersion_imag
_atom_type_scat_Cromer_Mann_a1
_atom_type_scat_Cromer_Mann_a2
_atom_type_scat_Cromer_Mann_a3
_atom_type_scat_Cromer_Mann_a4
_atom_type_scat_Cromer_Mann_b1
_atom_type_scat_Cromer_Mann_b2
_atom_type_scat_Cromer_Mann_b3
_atom_type_scat_Cromer_Mann_b4
_atom_type_scat_Cromer_Mann_c
_atom_type_scat_source
_atom_type_scat_dispersion_source
H 0.00000 0.00000 0.49300 0.32291 0.14019 0.04081 10.51090 26.12570 3.14236
57.79970 0.0030380000826
'International Tables Volume C Table 6.1.1.4 (pp. 500-502)'
'Henke, Gullikson and Davis, At. Data and Nucl. Data Tables, 1993, 54, 2'
C 0.01920 0.00962 2.31000 1.02000 1.58860 0.86500 20.84390 10.20750 0.56870
51.65120 0.215599998832
'International Tables Volume C Table 6.1.1.4 (pp. 500-502)'
'Henke, Gullikson and Davis, At. Data and Nucl. Data Tables, 1993, 54, 2'
S 0.33537 0.55136 6.90530 5.20340 1.43790 1.58630 1.46790 22.21510 0.25360
56.17200 0.866900026798
'International Tables Volume C Table 6.1.1.4 (pp. 500-502)'
'Henke, Gullikson and Davis, At. Data and Nucl. Data Tables, 1993, 54, 2'
O 0.05239 0.03377 3.04850 2.28680 1.54630 0.86700 13.27710 5.70110 0.32390
32.90890 0.250800013542
'International Tables Volume C Table 6.1.1.4 (pp. 500-502)'
'Henke, Gullikson and Davis, At. Data and Nucl. Data Tables, 1993, 54, 2'
N 0.03256 0.01839 12.21260 3.13220 2.01250 1.16630 0.00570 9.89330 28.99750
0.58260 -11.5290002823
'International Tables Volume C Table 6.1.1.4 (pp. 500-502)'
'Henke, Gullikson and Davis, At. Data and Nucl. Data Tables, 1993, 54, 2'
loop_
_exptl_crystal_face_index_h
_exptl_crystal_face_index_k
_exptl_crystal_face_index_l
_exptl_crystal_face_perp_dist
_exptl_oxdiff_crystal_face_indexfrac_h
_exptl_oxdiff_crystal_face_indexfrac_k
_exptl_oxdiff_crystal_face_indexfrac_l
_exptl_oxdiff_crystal_face_x
_exptl_oxdiff_crystal_face_y
_exptl_oxdiff_crystal_face_z
4 2 2 0.0907 4.3419 1.9458 2.4147 0.2758 0.1500 0.9494
0 -5 1 0.0481 0.1689 -5.4345 0.8617 0.7699 0.4182 -0.4820
-4 -1 -3 0.0219 -4.4403 -1.1343 -2.5886 -0.3999 -0.2175 -0.8904
0 5 -1 0.0503 -0.1104 5.4468 -0.8272 -0.7643 -0.4151 0.4935
-1 -3 6 0.0394 -1.3154 -2.7382 6.2760 0.7194 -0.5518 -0.4220
-1 -2 7 0.0119 -0.7695 -2.3310 6.9448 0.7610 -0.5836 -0.2833
4 1 2 0.0707 4.4542 1.2803 2.2152 0.3542 0.2435 0.9029
0 5 0 0.0671 -0.4832 5.3816 -0.2830 -0.7441 -0.5118 0.4293
-4 0 -2 0.0451 -4.4312 0.1204 -2.2145 -0.5306 -0.3648 -0.7651
0 -5 0 0.0380 0.0914 -5.4733 0.0880 0.7103 0.4886 -0.5067
4 3 2 0.0831 3.8749 3.3701 1.7726 0.0094 0.0270 0.9996
4 3 1 0.0735 4.2072 2.5839 0.9940 0.0767 0.2173 0.9731
-3 1 -7 0.0452 -2.6149 0.8003 -7.1328 -0.8461 0.2995 -0.4409
-4 -3 -2 0.0359 -3.8501 -3.3733 -2.1328 -0.0342 0.0123 -0.9993
-3 1 -7 0.0036 -2.6624 0.7315 -7.1091 -0.8393 0.2970 -0.4553
loop_
_geom_angle_atom_site_label_1
_geom_angle_atom_site_label_2
_geom_angle_atom_site_label_3
_geom_angle
_geom_angle_site_symmetry_1
_geom_angle_site_symmetry_3
C11 N2 H2 112.84(9) . .
C9 N2 H2 112.84(9) . .
C9 N2 C11 134.31(15) . .
C4 N1 H1 124.63(9) . .
C1 N1 H1 124.63(10) . .
C1 N1 C4 110.73(14) . .
C12 C11 N2 114.60(15) . .
C16 C11 N2 126.13(16) . .
C16 C11 C12 119.26(16) . .
O2 N3 O1 123.24(15) . .
C14 N3 O1 118.35(15) . .
C14 N3 O2 118.40(15) . .
C1 C2 C3 107.95(15) . .
C7 C2 C3 126.90(16) . .
C7 C2 C1 125.14(16) . .
C4 C3 C2 107.02(15) . .
C6 C3 C2 124.46(15) . .
C6 C3 C4 128.49(16) . .
C3 C4 N1 106.63(14) . .
C9 C4 N1 119.95(15) . .
C9 C4 C3 133.38(16) . .
C2 C1 N1 107.65(15) . .
C5 C1 N1 122.87(15) . .
C5 C1 C2 129.49(16) . .
C16 C15 H15 120.09(10) . .
C14 C15 H15 120.09(10) . .
C14 C15 C16 119.82(16) . .
H12 C12 C11 119.43(10) . .
C13 C12 C11 121.13(16) . .
C13 C12 H12 119.43(11) . .
H13 C13 C12 120.71(11) . .
C14 C13 C12 118.58(17) . .
C14 C13 H13 120.71(10) . .
H6a C6 C3 109.5 . .
H6b C6 C3 109.5 . .
H6b C6 H6a 109.5 . .
H6c C6 C3 109.5 . .
H6c C6 H6a 109.5 . .
H6c C6 H6b 109.5 . .
N2 C9 S1 124.10(13) . .
C4 C9 S1 121.89(13) . .
C4 C9 N2 114.01(14) . .
C15 C16 C11 119.41(17) . .
H16 C16 C11 120.29(10) . .
H16 C16 C15 120.29(10) . .
H7a C7 C2 108.85(10) . .
H7b C7 C2 108.85(10) . .
H7b C7 H7a 107.7 . .
C8 C7 C2 113.59(16) . .
C8 C7 H7a 108.85(10) . .
C8 C7 H7b 108.85(10) . .
H8a C8 C7 109.5 . .
H8b C8 C7 109.5 . .
H8b C8 H8a 109.5 . .
H8c C8 C7 109.5 . .
H8c C8 H8a 109.5 . .
H8c C8 H8b 109.5 . .
C15 C14 N3 119.56(16) . .
C13 C14 N3 118.65(16) . .
C13 C14 C15 121.79(16) . .
H5a C5 C1 109.5 . .
H5b C5 C1 109.5 . .
H5b C5 H5a 109.5 . .
H5c C5 C1 109.5 . .
H5c C5 H5a 109.5 . .
H5c C5 H5b 109.5 . .
loop_
_geom_bond_atom_site_label_1
_geom_bond_atom_site_label_2
_geom_bond_distance
_geom_bond_site_symmetry_2
S1 C9 1.6775(17) .
O1 N3 1.232(2) .
N2 H2 0.8600 .
N2 C11 1.404(2) .
N2 C9 1.362(2) .
O2 N3 1.233(2) .
N1 H1 0.8600 .
N1 C4 1.380(2) .
N1 C1 1.355(2) .
C11 C12 1.400(2) .
C11 C16 1.402(2) .
N3 C14 1.464(2) .
C2 C3 1.408(2) .
C2 C1 1.394(2) .
C2 C7 1.508(2) .
C3 C4 1.411(2) .
C3 C6 1.500(2) .
C4 C9 1.437(2) .
C1 C5 1.494(2) .
C15 H15 0.9300 .
C15 C16 1.387(3) .
C15 C14 1.378(3) .
C12 H12 0.9300 .
C12 C13 1.374(3) .
C13 H13 0.9300 .
C13 C14 1.383(2) .
C6 H6a 0.9600 .
C6 H6b 0.9600 .
C6 H6c 0.9600 .
C16 H16 0.9300 .
C7 H7a 0.9700 .
C7 H7b 0.9700 .
C7 C8 1.526(3) .
C8 H8a 0.9600 .
C8 H8b 0.9600 .
C8 H8c 0.9600 .
C5 H5a 0.9600 .
C5 H5b 0.9600 .
C5 H5c 0.9600 .
loop_
_refln_index_h
_refln_index_k
_refln_index_l
_refln_F_squared_meas
_refln_F_squared_sigma
_refln_scale_group_code
0 0 1 51561 374.174 1
0 0 1 53246.1 335.756 2
0 0 -1 52942.2 330.615 17
0 0 -1 51164.5 356.473 15
0 0 -2 8567.28 194.558 17
0 0 -2 8738.26 212.566 15
0 0 2 8398.61 221.455 1
0 0 2 8636.64 196.142 2
0 0 3 20370.1 424.27 1
0 0 -3 20900.8 376.865 17
0 0 -3 20752.6 399.959 15
0 0 -4 39608.4 644.572 15
0 0 -4 39585.4 614.131 17
0 0 4 40167.9 682.115 1
0 0 -5 23666.6 549.892 17
0 0 5 24023.8 598.651 1
0 0 6 6569.27 349.973 1
0 0 -6 6310.87 327.417 17
0 0 7 72.3939 94.652 1
0 0 -7 28.063 65.1816 19
0 0 -7 -90.6191 99.187 17
0 0 -7 86.7131 80.5348 18
0 0 -8 6176.85 347.456 18
0 0 -8 5929.32 397.131 17
0 0 -8 6245.19 329.155 19
0 0 8 6563.34 409.866 1
0 0 9 25030.8 826.74 1
0 0 -9 25833.9 971.432 14
0 0 -9 25582.6 880.811 17
0 0 -9 24759 737.741 18
0 0 9 26340.7 827.273 24
0 0 -9 24768.9 692.824 19
0 0 10 4176.12 373.719 22
0 0 -10 3993.65 391.498 17
0 0 10 4168.17 368.435 24
0 0 -10 4732.69 470.643 14
0 0 -10 4243.42 312.224 19
0 0 10 4727.94 602.673 20
0 0 -10 4641.89 346.753 18
0 0 -11 1092.5 180.403 19
0 0 -11 1171.14 277.713 14
0 0 11 912.83 212.942 24
0 0 -11 961.324 180.384 18
0 0 11 1059.9 218.17 22
0 0 -12 2998.24 279.688 18
0 0 12 2846.22 317.112 22
0 0 12 3379.42 354.409 24
0 0 -12 2939.17 404.012 14
0 0 13 186.429 120.196 22
0 0 13 246.997 152.261 24
0 0 -13 153.488 186.509 14
0 0 14 209.916 126.571 24
0 0 -14 202.172 100.23 12
0 0 14 271.251 132.646 22
0 0 -14 398.552 168.591 14
0 0 -15 878.856 113.961 12
0 1 -15 182.148 68.4192 12
0 -1 15 239.615 109.553 24
0 -1 14 2152.95 258.68 24
0 1 -14 2324.21 210.273 12
0 1 -14 1942.7 266.327 14
0 1 -14 2275.04 190.785 7
0 -1 13 8809.21 546.544 24
0 -1 13 7744.69 442.769 22
0 1 -13 8131.97 576.453 14
0 1 -13 8447.43 428.96 18
0 1 -13 9154.09 455.699 12
0 -1 12 244.869 148.123 22
0 -1 12 101.191 141.724 24
0 1 -12 465.957 241.561 14
0 1 -12 231.02 126.376 18
0 1 -11 893.977 182.911 18
0 1 -11 795.854 265.842 14
0 -1 11 986.442 223.976 24
0 -1 11 1040.21 223.544 22
0 -1 10 38707.7 1172.96 3
0 -1 10 36746.6 1100.6 24
0 1 -10 36058.3 985.208 18
0 -1 10 36238.9 1033.07 22
0 1 -10 38852.4 1294.25 14
0 1 -10 36095.3 1157.83 17
0 -1 9 13140.3 613.503 24
0 -1 9 11749.1 623.818 3
0 1 -9 11588.7 628.172 17
0 1 -9 12050.5 694.737 14
0 1 -9 12720.1 563.074 18
0 1 -8 343.182 109.984 18
0 -1 8 362.298 128.54 1
0 1 -8 153.44 99.0508 17
0 1 -8 412.827 106.04 19
0 1 -7 11695.6 530.831 17
0 1 -7 11409.1 372.17 19
0 1 -7 11789.8 459.83 18
0 -1 7 12473.4 515.907 1
0 1 -6 3860.5 282.581 17
0 1 -6 4108.44 249.824 18
0 -1 6 3619.92 263.259 1
0 -1 5 14690.3 462.136 1
0 1 -5 14994.1 482.158 17
0 1 -5 15231.2 496.808 15
0 1 -4 110909 1177.99 15
0 -1 4 107411 1065.36 1
0 1 -3 2854.68 182 15
0 1 -3 2764.46 166.589 17
0 -1 3 2871.88 159.759 1
0 1 -2 30937 462.962 15
0 -1 2 31775 406.647 1
0 1 -2 30566.4 443.758 17
0 -1 1 25451.6 264.05 3
0 1 -1 26693.7 330.431 15
0 -1 0 2326.79 79.866 16
0 1 0 2284.97 64.4339 15
0 -1 0 2270.34 64.1379 3
0 1 0 2418.83 89.5555 2
0 -1 -1 200218 838.916 16
0 1 1 201593 987.9 1
0 1 1 202776 886.805 2
0 1 2 34213.2 502.667 1
0 -1 -2 33705.3 453.164 16
0 1 2 34469.1 430.255 2
0 -1 -2 34337.5 398.542 17
0 1 3 17678.1 360.432 2
0 1 3 18250 433.862 1
0 -1 -3 18277.6 354.084 17
0 1 4 88.3436 73.9568 1
0 -1 -4 61.7012 59.1175 17
0 1 4 106.739 62.5302 2
0 1 5 3900.7 261.457 1
0 -1 -5 3991.43 228.259 17
0 1 5 3895.33 226.67 2
0 1 6 -15.7836 93.1466 1
0 -1 -6 137.642 75.6695 19
0 -1 -6 129.522 88.2571 17
0 -1 -7 55.6841 85.0754 18
0 -1 -7 -15.2649 84.3148 17
0 1 7 51.5913 93.4876 1
0 -1 -7 11.861 59.3699 19
0 1 8 11951 571.473 1
0 -1 -8 12182 486.891 19
0 -1 -8 12048.8 538.894 17
0 -1 -8 13256.2 469.828 18
0 1 9 9824.38 807.779 20
0 -1 -9 11386.4 649.711 14
0 -1 -9 10344 548.76 17
0 -1 -9 10643 490.408 19
0 1 9 11600.9 542.463 24
0 1 9 10425.3 566.435 1
0 -1 -10 266.6 123.591 19
0 1 10 411.193 159.591 22
0 -1 -10 395.912 231.351 14
0 -1 -10 523.857 164.295 17
0 1 10 605.209 257.234 20
0 1 10 427.101 169.566 24
0 -1 -11 2999.1 290.518 19
0 1 11 2994.85 321.842 24
0 1 11 2660.36 332.493 22
0 1 11 1972.26 431.621 20
0 -1 -11 2247.12 368.049 14
0 -1 -12 2272.94 360.543 14
0 -1 -12 2668.38 263.924 19
0 1 12 2488.1 322.652 22
0 1 12 2803.46 312.859 24
0 -1 -13 704.525 232.238 14
0 1 13 537.496 159.059 24
0 1 13 725.227 189.441 22
0 -1 -13 670.422 143.386 19
0 1 14 279.892 116.491 24
0 1 14 255.006 112.47 22
0 -1 -14 289.16 148.357 14
0 -1 -15 4291.1 215.034 12
0 -2 14 2172.61 263.684 24
0 2 -14 2074.62 186.699 12
0 2 -14 1880.25 173.905 7
0 2 -13 1643.7 285.813 14
0 2 -13 1605.71 203.123 12
0 2 -13 1968.71 223.989 7
0 -2 13 1471.62 264.146 24
0 2 -13 1718.02 212.242 18
0 2 -12 -3.2939 101.992 18
0 2 -12 145.666 121.943 12
0 -2 12 -92.0099 155.813 24
0 -2 11 18331 851.596 24
0 2 -11 17730.4 926.008 14
0 2 -11 18038.4 691.183 12
0 2 -11 18038.1 731.413 18
0 -2 10 14852.6 668.96 22
0 2 -10 14267.3 818.537 14
0 -2 10 14963.8 749.423 24
0 2 -10 14555.6 652.181 18
0 -2 10 15883.5 738.996 23
0 -2 9 2722.4 323.012 3
0 -2 9 3306.15 332.625 22
0 2 -9 2601.47 280.008 18
0 2 -9 2568.54 377.813 14
0 -2 9 2785.13 327.041 24
0 -2 9 2577.91 303.895 23
0 -2 8 5180.89 371.184 1
0 2 -8 5316.63 433.323 17
0 2 -8 5408 361.493 18
0 -2 8 5138.04 393.563 3
0 2 -7 6374.99 356.807 18
0 -2 7 6086.58 374.971 1
0 -2 7 6271.95 397.408 3
0 2 -7 6283.75 429.887 17
0 -2 6 426.323 127.05 3
0 2 -6 262.401 88.7196 18
0 -2 6 329.568 111.607 1
0 2 -6 287.393 125.718 17
0 2 -6 322.729 123.805 15
0 2 -5 9476.65 432.286 17
0 2 -5 9643.58 370.556 18
0 -2 5 10190.2 402.761 3
0 -2 5 9329.18 375.363 1
0 2 -5 10023.6 431.787 15
0 2 -4 18538.8 536.832 15
0 -2 4 18777.8 472.693 1
0 -2 4 18149.3 465.043 3
0 -2 3 11514 328.949 1
0 -2 3 11259.7 312.72 3
0 2 -3 10998 371.365 15
0 -2 2 63318.7 601.277 3
0 2 -2 63011.6 749.562 15
0 -2 2 64137.2 657.016 16
0 -2 1 13163.6 277.004 16
0 2 -1 12699.1 282.586 15
0 -2 1 12713.9 221.613 3
0 -2 0 8553.26 221.828 16
0 2 0 9009.82 248.4 2
0 2 0 8959.21 184.323 15
0 2 1 9451.39 134.916 15
0 -2 -1 9538.28 247.585 16
0 -2 -2 23115.3 396.549 17
0 2 2 23364.9 442.202 2
0 2 2 22913.7 216.062 15
0 -2 -2 22114.3 418.352 16
0 -2 -3 10983.7 349.01 16
0 2 3 11273.6 338.199 2
0 2 3 11956.7 401.649 1
0 -2 -3 11336.1 309.647 17
0 2 4 23677.3 532.229 2
0 -2 -4 23196.2 588.747 16
0 -2 -4 24028.7 508.48 17
0 2 4 24104.7 629.097 1
0 -2 -5 27193.1 592.042 19
0 2 5 27697.7 635.031 2
0 2 5 28780 756.588 1
0 -2 -5 27262.9 611.66 17
0 2 6 7774.76 377.767 2
0 2 6 7715.25 429.753 1
0 -2 -6 7976.48 366.438 17
0 -2 -6 7978.94 357.77 19
0 -2 -7 39615.4 887.281 17
0 -2 -7 40147.8 866.869 19
0 2 7 41428.9 1048.04 1
0 2 7 38074.5 892.928 2
0 2 8 2280.63 289.864 1
0 -2 -8 2202.87 228.567 19
0 -2 -8 2087.82 237.987 17
0 2 9 2233.57 254.753 24
0 2 9 2558.33 444.817 20
0 2 9 3074.95 346.901 1
0 -2 -9 2882.69 362.749 14
0 -2 -9 2513.35 261.99 19
0 -2 -9 2101.97 263.098 17
0 2 10 4793.36 361.265 24
0 -2 -10 3733.59 324.888 19
0 -2 -10 4922.5 481.068 14
0 2 10 4865.12 624.305 20
0 2 11 4001.93 346.039 24
0 -2 -11 3964.69 340.163 19
0 2 11 4156.25 622.85 20
0 2 11 4343.73 415.394 22
0 -2 -11 3529.86 427.616 14
0 2 12 2456.06 275.335 24
0 2 12 2374.54 308.144 22
0 -2 -12 2681.15 366.724 14
0 -2 -12 2468.94 261.847 19
0 2 12 1776.64 448.906 20
0 -2 -13 4420.63 311.737 19
0 2 13 4243.97 359.298 22
0 2 13 4065.54 307.45 24
0 -2 -13 4537.08 426.969 14
0 -2 -14 3178.3 308.927 14
0 2 14 3499.79 275.219 22
0 -2 -15 4890.01 211.666 12
0 3 -14 1039.57 122.57 12
0 -3 14 1165.61 197.443 24
0 3 -14 1056.2 137.118 7
0 3 -13 123.885 101.574 12
0 3 -13 295.121 119.409 7
0 -3 13 134.423 152.26 24
0 3 -13 267.792 110.618 18
0 -3 12 3875.49 383.388 23
0 3 -12 3715.43 302.816 12
0 -3 12 4309.47 432.914 24
0 3 -12 3697.01 331.033 18
0 3 -12 3890.77 320.531 7
0 -3 11 7908.22 560.697 23
0 3 -11 6829.59 589.266 14
0 3 -11 6864.79 460.197 18
0 3 -11 7769.67 450.282 12
0 -3 11 8339.33 602.149 24
0 3 -11 7472.32 457.862 7
0 -3 10 15222.7 775.147 23
0 -3 10 14520.2 780.974 24
0 3 -10 14985.4 626.975 12
0 3 -10 14403.2 668.698 18
0 3 -10 13846 833.992 14
0 3 -10 14731.2 650.465 7
0 -3 9 5644.5 392.443 16
0 3 -9 5061.96 387.189 18
0 -3 9 4915.37 451.244 24
0 3 -9 4813.9 506.02 14
0 -3 9 5691.12 477.154 23
0 -3 9 5571.82 454.136 3
0 3 -9 5543.59 384.441 12
0 -3 8 3834.18 384.899 23
0 -3 8 3252.47 292.835 16
0 3 -8 3056.42 318.674 12
0 -3 8 2932.13 340.307 24
0 -3 8 3048.41 314.385 3
0 3 -8 3944.72 478.789 14
0 3 -8 3136.26 292.988 18
0 -3 7 806.987 167.655 1
0 -3 7 1010.4 177.732 3
0 3 -7 679.287 149.416 18
0 -3 6 12492.3 505.226 1
0 3 -6 12433.4 557.441 15
0 3 -6 12780.9 493.171 18
0 -3 6 13195.7 521.071 3
0 -3 5 805.966 137.33 1
0 3 -5 933.8 162.252 15
0 3 -5 816.111 129.909 18
0 -3 5 626.282 118.826 3
0 -3 5 736.047 122.942 16
0 3 -4 3237.5 251.809 15
0 -3 4 2602.95 198.037 16
0 -3 4 2962.26 216.984 1
0 -3 4 3079.51 198.592 3
0 -3 3 34506.5 627.599 16
0 -3 3 34760.7 551.445 3
0 3 -3 34296.5 708.79 15
0 3 -2 28629.5 581.67 15
0 -3 2 29939.3 443.352 3
0 -3 2 29188 544.65 16
0 3 -1 18782.7 407.15 15
0 -3 1 19522.9 323.11 3
0 -3 1 19412.7 425.348 16
0 -3 0 1227.15 114.712 16
0 3 0 1208.88 93.0899 15
0 3 0 1310.1 130.303 2
0 3 1 49616.8 743.513 2
0 -3 -1 48720.9 688.033 16
0 3 2 33953.2 639.739 2
0 -3 -2 33533.2 612.509 16
0 -3 -2 33745 571.598 17
0 3 3 28630.1 624.82 2
0 -3 -3 29830.4 571.963 17
0 -3 -3 29668.5 633.618 16
0 -3 -4 78.4535 69.8069 17
0 -3 -4 81.9028 89.1493 16
0 3 4 160.308 83.8455 2
0 3 5 11373.6 455.07 2
0 -3 -5 10739.6 497.804 16
0 -3 -5 11537.4 431.083 17
0 -3 -5 11572.1 417.909 19
0 -3 -6 3541.55 260.516 19
0 3 6 3563.72 283.723 2
0 -3 -6 3095.33 249.362 17
0 -3 -7 3398.1 279.344 19
0 -3 -7 3111.11 273.487 17
0 3 7 3540.19 307.533 2
0 3 8 1611.31 354.997 20
0 -3 -8 912.811 171.725 19
0 3 8 847.658 178.177 5
0 3 8 1133.51 201.991 2
0 -3 -8 1120.03 193.085 17
0 -3 -9 19050.7 742.268 17
0 -3 -9 19361.5 729.816 19
0 3 9 20288.1 781.933 13
0 3 9 20101.6 1167.02 20
0 3 10 6410.56 721.628 20
0 -3 -10 6382.01 550.6 14
0 -3 -10 6118.18 424.88 19
0 3 10 5636.38 429.127 13
0 3 11 113.177 274.17 20
0 -3 -11 7.28023 185.963 14
0 -3 -11 299.041 119.653 19
0 -3 -12 6591.19 411.869 19
0 -3 -12 6577.27 534.805 14
0 3 12 6231.08 863.978 20
0 3 12 6221.7 461.361 22
0 -3 -13 135.483 142.125 14
0 3 13 92.5664 110.015 22
0 -3 -13 142.169 75.9151 19
0 3 14 553.469 122.984 22
0 -3 -14 855.851 165.341 14
0 -4 14 374.635 129.162 24
0 -4 13 471.227 172.231 23
0 4 -13 337.685 114.873 7
0 -4 13 252.585 143.424 24
0 4 -13 447.44 114.465 12
0 -4 12 1271.43 254.566 23
0 4 -12 1033.7 181.074 18
0 4 -12 1194.87 168.561 12
0 -4 12 1409.97 269.921 24
0 4 -12 1236.15 192.338 7
0 4 -11 1316.18 204.829 12
0 -4 11 1248.05 270.016 23
0 4 -11 1213.52 203.945 18
0 -4 11 1352.42 290.794 24
0 4 -11 1351.59 222.115 7
0 -4 10 4415.32 481.621 24
0 4 -10 4141.47 346.175 12
0 4 -10 4424.11 379.421 7
0 -4 10 4080.14 451.804 23
0 4 -10 3790.87 349.558 18
0 -4 9 1014.1 280.254 24
0 -4 9 1284.27 259.978 23
0 4 -9 1448.03 228.054 12
0 4 -9 1384.86 247.783 7
0 4 -9 1344.91 224.263 18
0 -4 8 5384.94 479.051 24
0 -4 8 4857.75 382.529 16
0 4 -8 5449.35 395.505 18
0 -4 8 5485.73 479.928 23
0 4 -8 4458.87 374.82 7
0 4 -8 5286.29 375.653 12
0 4 -7 7854.87 452.493 7
0 -4 7 7615.95 448.37 16
0 -4 7 7987.33 540.834 24
0 4 -7 7654.42 439.999 18
0 -4 7 8213.04 556.085 23
0 4 -6 952.522 157.103 18
0 -4 6 1063.49 181.075 1
0 -4 6 790.668 156.132 16
0 -4 5 3942.82 294.72 1
0 4 -5 3821.55 315.893 15
0 -4 5 3997.44 290.781 16
0 4 -5 3738.17 268.901 18
0 4 -4 2490.27 239.789 15
0 -4 4 2222.12 210.909 16
0 -4 4 2600.97 231.317 1
0 4 -4 2514.97 204.165 18
0 4 -3 43603.6 872.01 15
0 -4 3 43873 823.914 16
0 4 -3 43264.6 842.518 2
0 4 -2 25277.3 623.02 2
0 4 -2 25961.4 604.241 15
0 -4 2 23939.9 585.837 16
0 4 -1 20804.8 561.226 2
0 4 -1 20772.5 479.09 15
0 -4 1 20135 518.554 16
0 4 0 1984.97 129.903 15
0 -4 0 1815.6 167.894 16
0 4 0 1812.27 182.48 2
0 -4 -1 4.59336 60.3664 16
0 4 1 30.3772 74.5584 2
0 4 2 23508.4 622.796 2
0 -4 -2 24138.9 569.148 17
0 -4 -2 24403.1 610.405 16
0 -4 -3 471.898 113.624 16
0 -4 -3 487.653 105.79 17
0 4 3 534.434 115.93 2
0 -4 -4 12856.3 430.707 19
0 -4 -4 12867.4 523.315 16
0 4 4 12289.3 496.873 2
0 -4 -4 13188 463.635 17
0 -4 -5 13714.4 604.972 16
0 -4 -5 13521.9 486.958 19
0 -4 -5 12774.1 496.627 17
0 4 5 13770.9 555.288 2
0 4 6 3852.18 317.712 2
0 -4 -6 3242 276.89 17
0 -4 -6 3542.43 353.688 16
0 -4 -6 3497.3 279.669 19
0 -4 -7 -38.2369 100.416 19
0 4 7 153.43 101.618 2
0 4 7 20.8925 108.562 5
0 -4 -7 100.687 113.768 17
0 -4 -8 15947.2 660.552 17
0 4 8 16928.9 1044.31 20
0 4 8 16356.7 730.729 5
0 -4 -8 17355.9 683.46 19
0 4 8 17843.2 740.374 2
0 -4 -9 1658.69 237.287 19
0 4 9 1093.02 367.735 20
0 -4 -10 -57.892 175.486 14
0 -4 -10 26.0056 112.503 19
0 4 10 -37.7646 155.282 13
0 4 10 -315.576 291.725 20
0 -4 -11 650.09 162.622 19
0 -4 -11 488.687 219.265 14
0 4 11 312.901 285.042 20
0 4 11 528.75 174.621 13
0 4 12 719.419 320.778 20
0 4 12 512.366 162.958 22
0 -4 -12 768.501 157.164 19
0 -4 -12 838.031 225.641 14
0 4 13 6257.79 370.8 22
0 -4 -13 5877.17 406.533 14
0 4 14 1093.16 127.338 22
0 -5 13 4407.31 314.97 23
0 5 -13 3893.45 221.663 7
0 -5 13 4176.29 321.078 24
0 -5 12 438.549 172.657 23
0 5 -12 917.959 160.865 7
0 -5 12 910.678 228.42 24
0 5 -11 915.022 175.723 18
0 -5 11 874.92 245.389 24
0 -5 11 870.275 221.329 23
0 5 -11 928.357 165.391 12
0 5 -11 1047.83 196.269 7
0 -5 10 462.888 223.72 23
0 5 -10 276.412 137.746 12
0 -5 10 568.075 239.364 24
0 5 -10 573.125 156.591 18
0 5 -10 242.417 136.567 7
0 5 -9 237.567 128.574 18
0 -5 9 -53.127 204.487 24
0 5 -9 435.864 140.89 12
0 5 -9 82.8044 131.606 7
0 -5 9 190.405 167.773 23
0 -5 8 8824.92 655.613 23
0 -5 8 8085.49 632.227 24
0 5 -8 7661.4 448.368 12
0 5 -8 8159.74 486.547 18
0 5 -8 8429.39 522.288 7
0 5 -7 12137.9 536.468 12
0 -5 7 12300.1 608.153 16
0 -5 7 12159.8 741.689 24
0 -5 7 12642.4 748.82 23
0 5 -7 11660.7 592.652 7
0 5 -7 11620.3 558.438 18
0 -5 6 7397.52 467.158 16
0 5 -6 8420.23 452.772 18
0 -5 6 7106.05 550.076 24
0 -5 6 7751.55 565.175 23
0 5 -6 7678.65 464.316 7
0 5 -6 7662.34 452.382 2
0 -5 5 14514.1 606.849 16
0 5 -5 13594.8 575.104 2
0 5 -5 14477.1 540.037 18
0 -5 5 13574.7 587.737 1
0 5 -4 6369.06 398.915 15
0 -5 4 6388.7 389.506 16
0 5 -4 5794.31 370.463 2
0 -5 4 6584.14 401.976 1
0 -5 3 1137.3 171.286 16
0 5 -3 1062.22 173.752 2
0 5 -3 730.974 156.64 15
0 -5 2 921.267 148.868 16
0 5 -2 895.487 155.351 2
0 -5 1 196.497 93.8021 16
0 5 -1 227.383 105.126 2
0 -5 0 7966.33 392.829 16
0 5 0 8019.9 410.62 2
0 -5 -1 47553.1 965.892 16
0 5 1 45522.1 969.604 2
0 -5 -2 26221.5 682.131 17
0 5 2 26484.5 755.132 2
0 -5 -2 26976.1 744.141 16
0 5 3 58.151 88.9637 2
0 -5 -3 192.268 104.385 16
0 -5 -3 158.108 80.0901 17
0 5 4 3102.26 290.662 2
0 -5 -4 3101.75 256.385 17
0 -5 -4 2951.47 285.509 16
0 5 5 6411.35 418.126 2
0 -5 -5 6146.06 448.407 16
0 -5 -5 6483.57 363.29 19
0 -5 -5 6667.4 392.254 17
0 -5 -6 27.6288 184.014 16
0 5 6 233.225 144.76 5
0 -5 -6 182.02 107.356 19
0 5 6 203.604 128.694 2
0 -5 -6 261.932 112.034 17
0 5 6 407.163 230.188 20
0 -5 -7 48419.6 1116.58 19
0 5 7 49724.9 1251.33 5
0 -5 -7 47529.6 1130.45 17
0 5 7 49045.2 1697.07 20
0 5 7 49377.6 1221.93 2
0 5 8 10842.1 871.814 20
0 5 8 10298.9 602.869 5
0 -5 -8 10695.2 544.515 19
0 5 9 107.426 242.116 20
0 5 9 84.4451 121.694 5
0 -5 -9 -77.4316 107.299 19
0 5 10 5883.94 682.795 20
0 5 10 5309.88 423.608 13
0 -5 -10 5373.51 387.031 19
0 -5 -10 5552.17 512.348 14
0 -5 -11 6587.44 508.185 14
0 5 11 6320.89 670.484 20
0 5 11 6623.13 417.213 13
0 -5 -11 6705.7 399.059 19
0 5 12 569.025 144.341 22
0 -5 -12 773.735 201.822 14
0 5 13 1703.97 170.375 22
0 -5 -13 2190.67 217.245 14
0 -6 12 430.063 149.239 23
0 6 -12 215.512 91.3179 7
0 -6 12 435.815 157.449 24
0 -6 11 1634.08 272.981 24
0 -6 11 1348.2 255.957 23
0 6 -11 1619.96 198.232 7
0 6 -10 2387.47 248.764 18
0 -6 10 2728.36 368.942 23
0 6 -10 2665.84 284.537 7
0 -6 10 2322.45 361.012 24
0 6 -9 7535.35 486.586 7
0 6 -9 6529.35 410.901 18
0 -6 9 7011.66 595.689 24
0 -6 9 7109.52 595.438 23
0 -6 8 9318.2 706.294 24
0 6 -8 10087.2 581.029 7
0 -6 8 10255.8 724.252 23
0 6 -8 10714 528.796 18
0 6 -7 1564.05 256.255 7
0 -6 7 1399.76 319.336 23
0 6 -7 1340.06 216.413 18
0 -6 7 1274.39 306.192 24
0 -6 6 4547.32 485.404 24
0 6 -6 4361.02 391.674 7
0 -6 6 4472.31 472.908 23
0 6 -5 10489.4 558.597 2
0 -6 5 10402.2 689.265 24
0 -6 5 8580.72 514.245 16
0 -6 5 9702.04 638.499 23
0 6 -5 9681.69 546.693 7
0 -6 4 9859.33 641.478 24
0 6 -4 8813.95 502.964 7
0 -6 4 8791.76 503.285 16
0 -6 4 8359.4 573.49 23
0 6 -4 8227.47 483.727 2
0 6 -3 32130.1 938.577 2
0 6 -3 35230 941.579 7
0 -6 3 32528.7 928.77 16
0 -6 2 3890.64 328.759 16
0 6 -2 3864.15 332.148 2
0 6 -1 2237.81 257.174 2
0 -6 1 2051.94 246.614 16
0 -6 0 7506.33 443.736 16
0 6 0 7545.04 447.059 2
0 6 1 5703.36 394.414 2
0 -6 -1 5682.3 391.64 16
0 6 2 10014.8 526.193 2
0 -6 -2 10525.9 531.031 16
0 -6 -2 10309.7 483.484 17
0 6 3 1808.55 238.944 2
0 6 3 1838.05 322.773 12
0 -6 -3 1915.79 254.904 16
0 -6 -3 2172.15 236.715 17
0 -6 -3 1841.61 300.173 21
0 -6 -4 2041.84 230.635 17
0 6 4 1609.63 237.656 2
0 6 4 2049.46 252.789 5
0 -6 -4 1777.04 267.242 16
0 -6 -4 1883.2 308.792 21
0 6 5 309.874 135.082 5
0 -6 -5 189.81 104.932 17
0 -6 -5 825.653 262.403 21
0 6 5 -137.511 299.531 20
0 6 5 347.135 156.302 2
0 -6 -5 390.158 257.56 16
0 6 6 1346.19 237.01 5
0 6 6 1782.89 384.278 20
0 6 7 625.692 319.296 20
0 6 7 598.674 174.295 5
0 -6 -7 749.592 161.065 19
0 -6 -8 2617.35 274.302 19
0 6 8 2183.28 436.868 20
0 6 8 2280.86 293.94 5
0 6 9 235.333 275.81 20
0 6 9 47.5052 119.18 5
0 -6 -9 129.769 104.927 19
0 -6 -10 2158.87 312.139 14
0 6 10 2104.03 263.861 13
0 -6 -10 2437.27 244.054 19
0 6 10 1746.36 377.059 20
0 6 11 8213.74 641.931 20
0 -6 -11 9094.4 518.848 14
0 6 11 8771.61 414.745 13
0 -6 -12 2107.54 224.872 14
0 6 12 2216.9 188.838 22
0 -7 11 1280.98 202.08 24
0 -7 11 1471.9 216.315 23
0 -7 10 253.209 159.311 24
0 -7 10 514.059 174.325 23
0 7 -10 581.86 126.961 8
0 -7 9 1577.94 289.317 23
0 7 -9 1579.61 225.33 7
0 -7 9 1246 264.284 24
0 -7 8 62.3687 212.678 24
0 -7 8 8.29985 166.517 23
0 7 -8 48.5916 126.244 7
0 7 -7 3354.04 350.81 7
0 -7 7 3090.97 432.346 24
0 -7 7 3945.13 457.716 23
0 -7 6 6134.18 566.131 24
0 7 -6 7319.37 503.723 7
0 -7 6 6736.23 583.619 23
0 -7 5 2938.11 423.879 24
0 -7 5 2560.94 376.268 23
0 -7 4 7370.14 566.025 23
0 7 -2 1519.69 242.502 8
0 7 -1 4578.27 381.727 2
0 -7 1 4699.94 402.088 16
0 7 -1 4587.23 386.1 8
0 -7 0 8624.07 526.966 16
0 7 0 8906.29 529.097 2
0 -7 0 9292.97 606.469 21
0 7 0 8795.76 512.423 8
0 -7 -1 1203.08 212.698 17
0 -7 -1 1467.97 252.654 16
0 -7 -1 1477.27 277.142 21
0 7 1 1367.48 226.729 8
0 7 1 1254.22 232.039 2
0 7 2 13992.8 613.693 8
0 -7 -2 14026.9 724.628 21
0 -7 -3 9933.55 629.456 21
0 7 3 10514.6 555.58 5
0 7 4 1991.51 262.063 5
0 -7 -4 2292.36 350.264 21
0 7 5 812.522 189.688 5
0 7 6 3406.01 343.597 5
0 7 7 7410.45 485.82 5
0 7 7 8119.86 696.121 20
0 7 8 1490.71 226.313 5
0 7 8 993.08 298.784 20
0 7 9 4306.42 476.442 20
0 7 9 4300.73 351.796 13
0 -7 -10 152.632 140.05 14
0 7 10 299.593 112.906 13
0 -7 -11 3358.81 253.293 14
0 7 11 2862.47 187.701 22
0 8 -9 1440.36 161.917 8
0 -8 9 1242.34 224.516 23
0 -8 8 784.543 209.577 23
0 8 -8 780.371 149.499 8
0 8 -7 269.109 130.296 8
0 -8 7 116.558 171.313 23
0 8 -6 868.481 197.262 8
0 -8 6 1136.7 272.708 23
0 8 -5 2908.86 330.041 8
0 -8 5 3203.86 398.148 23
0 8 -4 2333.69 296.067 8
0 8 -3 3701.71 362.416 8
0 8 -2 16524.1 730.416 8
0 -8 1 14702.2 794 21
0 8 -1 13410.5 650.971 8
0 -8 0 822.495 237.042 21
0 8 0 594.124 173.03 8
0 8 1 134.638 122.677 8
0 -8 -1 119.733 172.633 21
0 -8 -2 284.86 191.466 21
0 8 2 176.197 119.249 5
0 8 2 491.468 170.68 8
0 -8 -3 573.794 226.19 21
0 8 3 345.112 138.728 5
0 8 4 1562.39 234.062 5
0 -8 -4 1357.49 284.987 21
0 8 5 2098.74 259.383 5
0 8 6 1.84367 96.9118 5
0 8 7 1085.85 179.219 5
0 8 8 589.436 131.987 5
0 8 8 850.771 166.956 13
0 -8 -9 2437.15 246.548 14
0 8 9 2358.59 208.978 13
0 -9 8 -108.911 92.6441 21
0 9 -7 -40.3051 69.2058 8
0 -9 7 0.54297 108.929 21
0 -9 6 4311.98 370.127 21
0 9 -6 4170.14 305.038 8
0 -9 5 638.194 191.302 21
0 9 -5 755.703 163.73 8
0 -9 4 1154.24 255.051 21
0 9 -4 906.35 187.029 8
0 9 -3 516.784 152.388 8
0 -9 3 645.204 210.76 21
0 -9 2 1233.49 255.41 21
0 9 -2 1314.72 215.042 8
0 -9 1 7331.36 527.746 21
0 9 -1 6596.67 420.03 8
0 -9 0 3978.68 389.745 21
0 9 0 3344.51 299.762 8
0 9 1 1152.85 182.199 5
0 -9 -1 887.774 210.797 21
0 9 1 1202.97 188.287 8
0 -9 -2 416.974 195.942 21
0 9 2 269.375 110.76 5
0 9 3 110.228 100.738 5
0 9 4 455.394 129.204 5
0 9 5 2258.99 224.298 5
0 9 6 3417.48 247.359 5
0 9 7 2952.69 225.411 13
0 -10 4 436.69 126.777 21
0 10 -4 776.338 122.965 8
0 10 -3 3758.89 241.086 8
0 -10 3 3180.74 267.043 21
0 10 -2 425.856 95.4309 5
0 -10 2 569.419 149.249 21
0 10 -2 674.995 124.902 8
0 10 -1 617.078 125.678 8
0 10 -1 255.709 84.8764 5
0 -10 1 424.456 147.605 21
0 10 0 288.302 90.6677 5
0 -10 0 636.449 176.388 21
0 10 1 559.163 109.431 5
0 10 2 1305.41 140.442 5
0 10 3 2029.73 165.073 5
-1 10 2 274.591 77.9375 5
-1 10 1 165.625 69.8766 5
1 -10 -1 -39.032 131.566 21
1 -10 0 231.055 146.176 21
-1 10 0 75.4449 65.8989 5
1 -10 1 2199.4 247.864 21
-1 10 -1 1984.75 166.243 5
1 -10 2 1714.65 221.358 21
-1 10 -2 1646.95 150.809 5
-1 10 -3 2512.86 168.51 5
1 -10 3 2470.67 242.386 21
-1 9 6 934.422 130.077 5
-1 9 5 516.513 112.658 5
-1 9 4 914.833 155.222 5
1 -9 -4 861.305 224.033 21
-1 9 3 3794.27 296.533 5
1 -9 -3 3268.29 359.704 21
1 -9 -2 3737 390.686 21
-1 9 2 3991.92 308.552 5
1 -9 -1 6605.11 505.056 21
-1 9 1 6332.5 391.492 5
1 -9 0 627.896 208.493 21
-1 9 -1 -24.3037 105.614 8
1 -9 1 -75.0714 161.639 21
1 -9 2 197.939 176.426 21
-1 9 -2 38.4327 103.646 8
1 -9 3 2467.42 328.087 21
-1 9 -3 2235.81 238.198 8
-1 9 -4 238.75 118.689 8
1 -9 4 189.086 143.938 21
-1 9 -5 3860.88 291.426 8
1 -9 5 3820.32 370.439 21
1 -9 6 499.26 162.998 21
-1 9 -6 441.248 119.641 8
1 -9 7 97.6646 105.602 21
-1 9 -7 414.732 105.744 8
1 -8 -8 3882.76 295.566 14
-1 8 8 3516.55 255.305 13
-1 8 7 8823.74 431.644 5
1 -8 -6 9437 595.455 21
-1 8 6 9411.21 480.668 5
-1 8 5 6324.12 420.472 5
1 -8 -5 6087.66 520.382 21
-1 8 4 1996.4 256.177 5
1 -8 -4 1476.46 302.926 21
-1 8 3 746.938 167.048 5
1 -8 -3 811.947 257.458 21
1 -8 -2 1091.4 264.383 21
-1 8 2 1315.51 217.556 5
1 -8 -1 177.23 192.302 21
-1 8 1 -292.216 157.179 12
-1 8 0 2617.29 308.18 12
1 -8 0 2840.63 388.704 21
-1 8 -1 8153 474.236 8
1 -8 1 9083.85 643.146 21
-1 8 -1 7039.03 462.114 12
-1 8 -2 907.515 192.742 8
1 -8 2 1066.6 270.356 21
-1 8 -2 959.783 202.733 12
1 -8 3 1816.16 323.563 21
-1 8 -3 1416.41 228.84 12
-1 8 -3 1788.7 258.031 8
-1 8 -4 2429.18 289.899 8
-1 8 -4 2639.78 284.962 12
1 -8 4 1664.32 345.549 24
-1 8 -5 1112.53 197.999 12
1 -8 5 1138.71 306.513 24
-1 8 -5 1498.88 236.384 8
1 -8 6 331.871 212.889 23
1 -8 6 493.238 258.196 24
1 -8 7 2533.77 353.859 23
-1 8 -7 2755.38 278.632 8
1 -8 7 1846.6 315.554 24
-1 8 -8 2686.2 248.756 8
1 -8 8 2636.11 340.618 23
1 -8 8 2238.54 311.426 24
1 -8 9 4428.66 373.82 23
-1 8 -9 4440.65 268.323 8
1 -8 9 3702.97 340.388 24
-1 7 10 3744.36 222.888 13
-1 7 10 3996.5 367.442 20
1 -7 -10 4118.75 297.27 14
1 -7 -9 2075.33 263.797 14
-1 7 9 2054.51 324.229 20
-1 7 9 2001.66 216.252 13
-1 7 8 489.776 256.69 20
-1 7 8 184.707 125.643 5
1 -7 -8 307.791 204.094 21
1 -7 -7 6175.88 547.888 21
-1 7 7 6920.57 604.901 20
-1 7 7 5932.11 423.025 5
-1 7 6 2085.92 269.239 5
1 -7 -6 2608.09 398.051 21
-1 7 6 1856.15 375.575 20
-1 7 5 896.862 188.877 5
1 -7 -5 480.092 215.917 21
-1 7 4 951.514 199.27 5
1 -7 -4 815.747 253.854 21
1 -7 -3 4561.6 482.836 21
-1 7 3 4572.67 385.315 5
1 -7 -2 39266.9 1306.02 21
-1 7 2 33984.4 1060.99 12
1 -7 -1 9375.64 656.128 21
-1 7 1 8060.87 518.786 12
-1 7 0 1244.49 212.203 8
-1 7 0 1202.82 222.993 12
1 -7 0 1102.22 268.867 21
-1 7 -1 431.074 160.65 8
1 -7 1 559.171 266.551 24
-1 7 -1 618.833 178.707 12
1 -7 1 466.501 203.33 21
-1 7 -2 22678.2 803.532 12
1 -7 2 22900.9 1066.73 24
1 -7 3 13786.4 846.576 24
-1 7 -3 13138.3 614.42 12
1 -7 4 8808.97 635.569 23
1 -7 4 9068.15 718.171 24
-1 7 -4 8566.2 499.818 12
-1 7 -5 873.35 185.639 12
1 -7 5 528.275 213.943 23
1 -7 5 990.562 308.873 24
-1 7 -6 342.568 146.942 12
1 -7 6 459.992 233.247 23
1 -7 6 -100.989 226.138 24
1 -7 7 4633.49 523.62 24
-1 7 -7 4649.09 355.101 12
1 -7 7 4738.11 510.727 23
1 -7 8 463.554 256.505 24
1 -7 8 1076.78 278.312 23
-1 7 -8 860.727 173.704 12
1 -7 9 819.667 243.791 23
-1 7 -9 661.722 153.798 12
1 -7 9 471.407 230.579 24
1 -7 10 6735.88 513.891 23
1 -7 10 6939.43 501.108 24
-1 7 -11 281.714 83.0231 8
1 -7 11 389.49 156.661 24
1 -7 11 284.371 153.769 23
-1 6 11 5849.85 498.887 20
1 -6 -11 6151.64 384.649 14
1 -6 -10 903.768 203.953 14
-1 6 10 977.791 290.498 20
-1 6 10 600.761 136.542 13
-1 6 9 -119.883 223.91 20
1 -6 -9 341.458 195.167 14
1 -6 -9 112.12 120.855 19
1 -6 -9 -76.8703 196.841 21
1 -6 -8 5981.28 572.301 21
-1 6 8 5914.02 436.042 5
-1 6 8 7336.35 695.052 20
1 -6 -8 6611.91 416.555 19
1 -6 -7 5842.27 580.919 21
-1 6 7 5725.31 443.134 5
1 -6 -7 6039.16 403.538 19
-1 6 7 6068.28 616.486 20
1 -6 -6 3878.8 499.813 21
-1 6 6 3472.74 478.866 20
-1 6 6 3714.97 354.941 5
1 -6 -6 4044.7 332.109 19
-1 6 5 -103.16 240.267 20
1 -6 -5 140.207 214.317 21
-1 6 5 71.5645 119.671 5
-1 6 4 812.465 191.1 2
1 -6 -4 802.366 257.696 16
1 -6 -4 877.52 249.674 21
1 -6 -4 882.294 173.345 17
-1 6 4 1022.24 196.645 5
-1 6 4 589.764 268.718 20
1 -6 -3 4886.33 430.908 16
1 -6 -3 5142.18 345.371 17
-1 6 3 4612.88 396.718 12
1 -6 -3 4706.67 454.251 21
-1 6 3 4528.58 376.074 2
1 -6 -2 6797.41 517.041 21
-1 6 2 6555.21 453.199 12
1 -6 -2 6099.11 448.492 16
-1 6 2 7140.45 456.73 2
1 -6 -2 7097.73 390.423 17
1 -6 -1 903.334 196.31 16
1 -6 -1 484.526 127.481 17
1 -6 -1 682.913 198.851 21
-1 6 1 706.955 172.137 2
-1 6 1 940.303 200.606 12
-1 6 0 399.019 143.916 2
1 -6 0 375.215 140.018 16
1 -6 0 243.409 145.157 21
-1 6 0 363.971 205.606 12
1 -6 1 17401.7 699.946 16
-1 6 -1 17284.9 656.985 12
-1 6 -1 17430.6 712.611 2
1 -6 2 333.969 127.208 16
-1 6 -2 257.908 133.713 12
1 -6 2 290.753 214.108 24
-1 6 -2 248.356 120.133 2
1 -6 3 10484.9 699.481 24
1 -6 3 11234.7 659.724 23
-1 6 -3 10297.7 557.622 2
-1 6 -3 10702.7 520.399 12
1 -6 3 10327.2 544.133 16
1 -6 4 114.077 175.885 23
-1 6 -4 190.253 136.059 12
-1 6 -4 181.567 127.139 2
1 -6 4 106.234 111.935 16
1 -6 4 224.171 211.764 24
1 -6 5 496.268 176.956 16
-1 6 -5 203.131 153.523 7
-1 6 -5 -253.617 148.081 2
1 -6 5 26.2796 183.945 23
-1 6 -5 294.158 153.095 12
1 -6 5 167.159 207.122 24
1 -6 6 23938.6 1122.44 24
-1 6 -6 22239.5 787.082 12
1 -6 6 23733.4 1082.06 23
-1 6 -6 21716.5 819.687 7
1 -6 7 12645.4 817.087 23
-1 6 -7 11565.3 579.335 12
-1 6 -7 12300.5 628.851 7
1 -6 7 13051.6 856.821 24
-1 6 -8 5335.7 401.453 12
-1 6 -8 4857.19 354.674 18
-1 6 -8 5424.11 426.384 7
1 -6 8 4699.97 534.834 24
1 -6 8 5035.05 534.765 23
1 -6 9 1307.89 303.577 23
-1 6 -9 1458.46 209.916 18
-1 6 -9 1071.02 201.047 12
1 -6 9 1052.44 288.501 24
-1 6 -9 1199.72 225.115 7
-1 6 -10 419.105 151.223 7
1 -6 10 585.68 226.218 23
-1 6 -10 632.744 162.478 18
-1 6 -10 389.656 135.19 12
1 -6 10 333.887 207.047 24
1 -6 11 3081.98 377.106 24
-1 6 -11 2327.77 203.266 12
1 -6 11 2801.71 355.078 23
1 -6 12 -86.16 144.242 24
1 -6 12 -8.8118 142.165 23
-1 5 12 1391.02 172.024 22
-1 5 12 1464.64 297.754 20
1 -5 -12 1134.06 194.082 14
-1 5 11 2531.86 434.495 20
1 -5 -11 2602.66 239.929 19
1 -5 -11 2390.21 303.672 14
1 -5 -10 571.421 217.8 14
1 -5 -10 541.792 254.742 21
1 -5 -10 780.113 165.733 19
-1 5 10 762.679 176.288 13
-1 5 10 171.75 234.813 20
1 -5 -9 17082.1 875.777 14
1 -5 -9 16558.4 687.231 19
-1 5 9 17090.1 1084.26 20
1 -5 -9 15082.1 900.392 21
1 -5 -8 106.994 115.424 19
-1 5 8 -311.852 149.133 5
-1 5 8 -31.3593 264.771 20
1 -5 -7 38071.8 1038.01 19
-1 5 7 37875.2 1481.51 20
1 -5 -7 35102.3 1368.66 21
-1 5 7 36599.3 1091.4 5
-1 5 6 7715.89 475.314 2
1 -5 -6 7759.17 457.124 19
1 -5 -6 7643.87 627.27 21
-1 5 6 7647.51 650.536 20
-1 5 6 7345.31 472.79 5
1 -5 -6 7463.75 435.589 17
1 -5 -5 1797.9 217.094 19
1 -5 -5 1556.11 205.486 17
1 -5 -5 1843.19 293.294 16
-1 5 5 1469.58 306.572 20
1 -5 -5 1283.59 297.084 21
-1 5 5 1752.03 233.91 2
-1 5 5 1609.58 233.944 5
1 -5 -4 20057.9 823.986 16
1 -5 -4 20676.2 635.205 19
-1 5 4 20489.7 709.722 5
1 -5 -4 20023.9 638.201 17
-1 5 4 19796.3 700.621 2
-1 5 3 32706.5 879.787 2
1 -5 -3 32966.4 775.373 17
1 -5 -3 33336.1 975.59 16
1 -5 -2 17740.8 552.421 17
1 -5 -2 16280.9 647.666 16
-1 5 2 17204.4 629.163 2
1 -5 -1 4844.82 343.236 16
-1 5 1 4868.06 342.301 2
-1 5 0 19039.8 661.278 2
1 -5 0 19139.9 657.863 16
-1 5 -1 1862.1 222.838 2
1 -5 1 1925.45 217.336 16
-1 5 -2 14407.1 529.149 15
1 -5 2 13998.6 550.682 16
-1 5 -2 14099.4 577.018 2
1 -5 3 9689.15 466.743 16
-1 5 -3 10550.7 498.129 15
-1 5 -3 9803.91 493.882 2
1 -5 4 6930.07 407.076 16
-1 5 -4 7077.33 441.668 15
-1 5 -4 6658.39 419.064 2
-1 5 -5 3723.89 331.502 2
-1 5 -5 4170.73 347.122 7
-1 5 -5 4506.99 307.362 18
1 -5 5 4174.92 330.041 16
1 -5 5 4561.77 476.156 24
1 -5 5 4623.86 463.537 23
-1 5 -5 4266.49 367.178 15
1 -5 6 2080.06 333.886 23
-1 5 -6 2254.28 265.45 2
-1 5 -6 2369.52 265.281 12
1 -5 6 2612.96 378.49 24
-1 5 -6 2327.89 277.774 7
-1 5 -6 2419.74 246.738 18
1 -5 6 2006.25 243.707 16
-1 5 -6 2620.83 320.042 15
-1 5 -7 15840.5 690.194 2
-1 5 -7 16911.5 701.818 7
-1 5 -7 16605.3 653.922 18
1 -5 7 15973.3 889.519 24
1 -5 7 18318.6 928.971 23
1 -5 7 15972.9 670.092 16
-1 5 -7 16629.3 677.301 12
-1 5 -7 17276.7 776.595 15
1 -5 8 1251.74 308.294 24
-1 5 -8 1020.29 199.39 18
-1 5 -8 960.723 214.065 7
-1 5 -8 1120.75 218.372 12
1 -5 8 1148.93 286.214 23
1 -5 9 2508.07 387.513 23
-1 5 -9 2971.61 306.147 12
-1 5 -9 2797.51 322.83 7
1 -5 9 2676.45 429.296 24
-1 5 -9 2467.76 275.125 18
1 -5 10 1907.64 360.176 24
-1 5 -10 2369.32 276.11 12
-1 5 -10 1942.23 249.863 18
1 -5 10 2167.06 363.966 23
-1 5 -10 2052.14 260.067 7
1 -5 11 5188.49 500.264 23
-1 5 -11 5235.41 354.904 12
1 -5 11 5278.11 512.989 24
-1 5 -11 5599.47 380.285 18
-1 5 -11 5453.2 358.705 7
1 -5 12 4087.32 407.144 23
-1 5 -12 3175.28 243.686 7
1 -5 12 3972.55 406.733 24
-1 5 -12 3777.55 264.403 12
1 -5 13 1072.33 203.586 24
1 -5 13 1012.07 190.303 23
-1 5 -13 852.933 116.38 12
-1 4 13 7082.11 333.562 22
1 -4 -13 7346.85 412.362 14
-1 4 12 5615.98 571.755 20
1 -4 -12 4615.48 308.332 19
-1 4 12 4535.83 337.671 22
1 -4 -12 4843.86 412.284 14
1 -4 -11 873.47 179.468 19
-1 4 11 710.04 145.907 24
-1 4 11 847.719 311.916 20
1 -4 -11 842.068 222.626 14
1 -4 -10 209.515 118.113 19
1 -4 -10 276.303 197.071 14
1 -4 -10 348.452 249.645 21
-1 4 10 159.649 253.82 20
-1 4 10 84.0402 99.2592 24
1 -4 -9 185.309 206.497 14
1 -4 -9 85.7059 108.316 19
-1 4 9 -10.963 222.179 20
1 -4 -9 279.72 272.674 21
-1 4 8 950.767 305.933 20
-1 4 8 633.595 182.657 5
1 -4 -8 409.761 148.538 19
1 -4 -8 432.964 283.596 21
-1 4 7 4396.82 379.103 5
-1 4 7 4077.91 343.779 2
1 -4 -7 4392.39 337.025 17
-1 4 7 3881.87 485.113 20
1 -4 -7 4198.86 351.159 19
1 -4 -7 4392.25 508.042 21
1 -4 -6 13541.7 572.973 19
-1 4 6 13923.1 792.531 20
-1 4 6 14790.1 594.889 2
1 -4 -6 13605.5 548.61 17
-1 4 6 14014.2 610.7 5
-1 4 5 5535.14 352.342 2
1 -4 -5 5401.58 445.594 16
1 -4 -5 5585.68 345.997 19
1 -4 -5 5284.16 323.049 17
1 -4 -4 15196.8 654.208 16
-1 4 4 14622.4 542.581 2
1 -4 -4 13722.6 481.897 17
1 -4 -4 14142.6 495.228 19
-1 4 3 510.017 119.719 2
1 -4 -3 436.753 109.366 19
1 -4 -3 340.676 93.1541 17
1 -4 -3 310.623 116.618 16
-1 4 2 324.965 101.339 2
1 -4 -2 257.257 81.6909 17
1 -4 -2 417.061 116.259 16
1 -4 -1 710.62 133.724 16
-1 4 1 552.075 118.488 2
1 -4 0 373 102.293 16
-1 4 0 433.244 110.546 2
-1 4 0 333.915 84.0829 15
1 -4 1 136.164 74.4448 16
-1 4 -1 71.5824 78.3539 2
-1 4 -1 80.6443 65.5216 15
1 -4 2 23.7969 66.4712 16
-1 4 -2 131.187 81.8077 2
1 -4 2 105.093 72.3549 3
-1 4 -2 11.5458 78.3975 15
1 -4 3 28862.5 691.11 16
-1 4 -3 29765.7 746.169 15
1 -4 3 28329.4 639.822 3
1 -4 4 6349.23 327.519 3
1 -4 4 6198.5 336.224 16
-1 4 -4 6853.06 341.596 18
-1 4 -4 6339.41 381.727 15
1 -4 5 1522.33 187.768 3
-1 4 -5 1489.06 222.21 15
-1 4 -5 1469.14 182.449 18
1 -4 5 1487.53 187.345 16
-1 4 -6 12890.7 530.969 18
-1 4 -6 11742.9 589.812 15
1 -4 6 11698.8 507.267 16
1 -4 6 12333.7 527.122 3
1 -4 7 14281.4 751.959 24
1 -4 7 14470.5 615.628 3
-1 4 -7 14727.1 602.882 18
1 -4 7 15639.7 775.962 23
-1 4 -7 14122.4 579.42 7
-1 4 -7 15204.6 607.957 12
1 -4 7 14167.2 583.117 16
-1 4 -7 14047.1 677.135 15
1 -4 8 5786.04 523.793 24
1 -4 8 5399.76 379.342 16
-1 4 -8 5624 395.486 18
-1 4 -8 4722.71 427.841 15
-1 4 -8 5667.09 403.371 7
-1 4 -8 5439.38 392.836 12
1 -4 8 5921.07 523.912 23
-1 4 -9 292.091 150.115 7
-1 4 -9 307.981 161.992 12
-1 4 -9 47.802 111.767 18
1 -4 9 58.7571 172.273 23
1 -4 9 235.541 212.54 24
-1 4 -10 4359.1 355.315 7
-1 4 -10 3625.71 340.143 18
-1 4 -10 4315.37 369.921 12
1 -4 10 4352.12 481.274 23
1 -4 10 4451.42 487.887 24
-1 4 -11 276.707 126.686 18
1 -4 11 174.488 188.521 24
-1 4 -11 247.084 139.687 7
1 -4 11 256.127 189.507 23
-1 4 -11 226.521 122.327 12
-1 4 -12 1970.87 239.206 18
1 -4 12 1494.12 283.295 23
-1 4 -12 1765.11 219.753 12
1 -4 12 1883.49 316.693 24
-1 4 -12 1614.77 204.279 7
-1 4 -13 2441.91 198.799 7
1 -4 13 2372.14 280.649 23
1 -4 13 2747.26 324.864 24
-1 4 -13 2734.66 222.499 12
1 -4 14 367.996 122.07 24
1 -3 -14 130.165 99.8231 14
-1 3 13 6135.48 351.836 22
1 -3 -13 6618.01 457.142 14
-1 3 13 5369.42 280.931 24
1 -3 -12 3783.5 410.049 14
-1 3 12 3911.01 295.95 24
1 -3 -12 4098.18 318.102 19
-1 3 12 3343.32 519.044 20
-1 3 12 3823.88 335.918 22
1 -3 -11 350.921 194.272 14
1 -3 -11 172.604 121.279 19
-1 3 11 464.601 149.135 24
-1 3 11 386.663 267.631 20
-1 3 10 3969.16 577.168 20
-1 3 10 4171.92 355.364 24
1 -3 -10 4707.64 383.639 19
1 -3 -10 3583.46 440.888 14
1 -3 -9 2007.42 262.49 19
1 -3 -9 2429.98 439.41 21
1 -3 -9 2349.3 359.103 14
-1 3 9 2012.28 421.74 20
-1 3 8 65.1921 223.605 20
-1 3 8 110.815 149.217 1
1 -3 -8 198.254 276.315 21
1 -3 -8 -45.55 106.33 17
-1 3 8 83.0281 122.437 5
1 -3 -8 -17.2717 101.688 19
-1 3 7 1806.12 226.339 2
1 -3 -7 1726.81 219.815 19
1 -3 -7 1658.54 204.786 17
-1 3 7 1864.01 283.599 1
1 -3 -6 947.954 157.117 19
-1 3 6 983.639 154.423 2
-1 3 6 1255.47 224.8 1
1 -3 -6 1060.26 156.164 17
-1 3 5 21276.8 773.311 1
1 -3 -5 20444.2 602.859 19
1 -3 -5 21543.8 594.259 17
-1 3 5 20833.7 603.498 2
1 -3 -5 21873.3 809.304 16
1 -3 -4 31251.6 871.228 16
1 -3 -4 29903.1 657.749 19
1 -3 -4 30521.7 645.87 17
-1 3 4 32174.2 882.935 1
-1 3 4 31531.7 696.299 2
-1 3 3 2212.59 231.987 1
1 -3 -3 2407.85 172.63 17
1 -3 -3 2331.41 220.578 16
-1 3 3 2395.93 143.528 15
-1 3 3 2364.26 188.089 2
1 -3 -2 4727.19 275.072 16
-1 3 2 4487.31 245.046 2
-1 3 2 4764.96 192.23 15
1 -3 -2 4660.94 215.253 17
-1 3 1 19410.6 383.129 15
-1 3 1 19712.2 497.367 2
1 -3 -1 19492.6 509.121 16
-1 3 0 56839.8 827.603 2
-1 3 0 55425.3 683.866 15
1 -3 0 56770.7 817.701 16
-1 3 -1 3491.85 215.35 2
1 -3 1 3495.32 202.016 16
-1 3 -1 3469.96 191.11 15
1 -3 1 3526.31 197.498 3
1 -3 2 31491.9 585.973 3
-1 3 -2 30904.1 608.474 15
1 -3 2 31432.7 587.604 16
1 -3 3 18283.9 471.873 3
1 -3 3 17230.9 453.932 16
-1 3 -3 17643.2 510.074 15
1 -3 4 15541.2 452.191 16
-1 3 -4 15287.1 526.083 15
1 -3 4 16050.8 404.863 1
1 -3 4 15237.4 470.37 3
1 -3 5 3165.11 245.173 3
-1 3 -5 3146.43 270.484 15
1 -3 5 3012.14 220.237 16
-1 3 -5 2941.58 246.402 18
1 -3 6 4783.2 330.904 3
-1 3 -6 4460.88 348.969 15
-1 3 -6 4932.48 322.611 18
1 -3 6 4910.31 297.175 16
1 -3 7 1466.96 216.051 3
-1 3 -7 1369.18 229.387 15
1 -3 7 1117.24 159.1 16
-1 3 -7 1436.69 195.735 18
-1 3 -8 6910.27 484.131 15
1 -3 8 7721.45 538.649 24
1 -3 8 7329.04 479.461 3
-1 3 -8 7177.63 426.239 7
1 -3 8 7525.65 408.9 16
-1 3 -8 7390.04 438.516 18
-1 3 -8 7055.72 426.055 12
1 -3 8 8421.7 560.289 23
1 -3 9 304.123 187.474 24
1 -3 9 349.431 186.512 23
-1 3 -9 55.4531 97.094 18
-1 3 -9 95.1448 118.588 12
-1 3 -9 -44.42 134.678 7
1 -3 9 -130.144 127.342 16
1 -3 9 275.837 199.537 3
-1 3 -10 363.201 153.09 12
1 -3 10 221.624 181.135 23
-1 3 -10 309.138 137.577 18
-1 3 -10 444.081 162.813 7
1 -3 10 217.515 160.048 24
-1 3 -11 17300.2 649.059 7
1 -3 11 17804.2 896.896 24
-1 3 -11 17429.9 698.799 12
-1 3 -11 17057.8 716.444 18
1 -3 11 18655.9 887.637 23
-1 3 -12 129.681 116.741 18
-1 3 -12 178.316 110.617 7
-1 3 -12 313.154 144.371 12
1 -3 12 80.5327 157.399 24
1 -3 12 338.996 200.827 23
-1 3 -13 1003.94 173.579 18
-1 3 -13 820.67 159.559 12
1 -3 13 565.705 195.573 24
1 -3 14 92.5814 111.22 24
-1 3 -14 130.672 72.6157 12
-1 2 14 5445.16 264.681 22
1 -2 -14 5385.49 361.195 14
-1 2 14 5414.86 262.607 24
-1 2 13 985.838 163.453 24
-1 2 13 1084.07 177.699 22
1 -2 -13 718.309 216.224 14
1 -2 -12 6711.67 406.671 19
-1 2 12 6960.97 433.639 24
-1 2 12 7197.01 702.359 20
-1 2 12 6655.21 445.231 22
1 -2 -12 6927.65 560.12 14
-1 2 11 9648.4 538.509 24
-1 2 11 9965.25 864.063 20
1 -2 -11 9135.75 507.318 19
1 -2 -11 9655.25 686.266 14
-1 2 10 7550.06 749.118 20
1 -2 -10 8121.64 632.727 14
-1 2 10 7477.22 477.742 24
1 -2 -10 7379 467.802 19
-1 2 9 15620.9 992.774 20
1 -2 -9 13304.3 605.464 19
-1 2 9 14366.5 733.912 1
1 -2 -9 15961.8 830.785 14
1 -2 -9 13715.4 890.872 21
-1 2 9 15029.7 652.9 24
1 -2 -9 14391 641.56 17
-1 2 8 5054.78 540.177 20
-1 2 8 4685.94 421.789 1
1 -2 -8 5538.36 376.869 19
1 -2 -8 6045.72 493.795 14
1 -2 -8 5504.79 582.729 21
1 -2 -8 4838.48 355.664 17
1 -2 -7 2213.31 228.606 17
-1 2 7 2333.9 285.412 1
1 -2 -7 2221.02 234.559 19
-1 2 6 560.36 150.286 1
1 -2 -6 499.82 119.671 19
-1 2 6 712.17 127.961 2
1 -2 -6 541.623 118.726 17
1 -2 -5 1106.92 140.31 17
1 -2 -5 1164.96 143.784 19
-1 2 5 1071.2 186.65 1
-1 2 5 1088.24 136.016 2
-1 2 4 14872.2 549.638 1
1 -2 -4 14655.9 409.535 17
1 -2 -4 14393.1 554.109 16
-1 2 4 14863.6 415.378 2
-1 2 3 1552.65 134.004 2
1 -2 -3 1660.4 129.635 17
-1 2 3 1637.4 183.783 1
1 -2 -3 1390.53 171.687 16
-1 2 2 3513.95 182.446 2
-1 2 2 3380.04 222.118 1
1 -2 -2 3521.58 159.439 17
1 -2 -2 3177.94 206.72 16
-1 2 1 29661.3 495.879 2
-1 2 1 28859.5 548.807 1
1 -2 -1 29451.7 531.117 16
-1 2 1 28810.9 432.358 15
-1 2 0 2848.72 157.759 2
1 -2 0 2559.9 150.906 16
-1 2 0 2937.3 145.622 15
1 -2 1 65265.7 721.288 3
-1 2 -1 64637 698.415 15
1 -2 1 65918.5 688.225 16
1 -2 2 32633.5 531.161 3
-1 2 -2 31739.7 539.229 15
1 -2 3 8539.85 299.072 3
-1 2 -3 8517.24 318.238 15
1 -2 3 9221.09 231.793 1
1 -2 3 8811.66 269.048 16
1 -2 4 2013.99 172.199 3
1 -2 4 2341.59 155.883 16
1 -2 4 2406.05 138.506 1
-1 2 -4 2143.53 191.913 15
1 -2 5 92934.8 1239.93 3
-1 2 -5 88739.2 1265 17
1 -2 5 94091.3 1025.56 16
1 -2 5 92799.6 934.616 1
-1 2 -5 94685.4 1302.35 15
-1 2 -5 98800.2 1245.75 18
1 -2 6 31763.4 652.532 16
-1 2 -6 30554.1 829.021 17
-1 2 -6 34001.6 787.739 18
-1 2 -6 31843.3 834.969 15
1 -2 6 31181.3 806.433 3
-1 2 -7 22.5703 101.6 15
-1 2 -7 128.168 114.525 17
1 -2 7 29.0836 99.524 3
-1 2 -7 58.5682 127.3 18
1 -2 7 -129.024 74.3616 16
-1 2 -8 11525.7 523.744 18
-1 2 -8 10692.8 585.949 17
1 -2 8 11399.5 456.257 16
-1 2 -8 10934.3 570.505 15
1 -2 8 11701.9 597.402 3
1 -2 9 49452.4 1286.29 3
1 -2 9 48290.8 974.06 16
-1 2 -9 51496 1112.26 12
1 -2 9 51203.6 1314.04 24
-1 2 -9 48605 1129.37 18
1 -2 9 49337.3 1262.88 23
1 -2 9 47454.1 1206.61 22
1 -2 10 326.42 156.559 24
1 -2 10 217.702 196.589 23
-1 2 -10 387.752 143.74 18
1 -2 10 400.153 266.273 3
-1 2 -10 482.54 166.616 12
1 -2 10 735.614 209.525 22
-1 2 -11 17378.9 634.301 7
-1 2 -11 17575.9 725.015 18
1 -2 11 18462.3 867.469 24
1 -2 11 17153.2 772.621 22
-1 2 -11 19239.6 733.324 12
-1 2 -12 483.943 157.888 18
-1 2 -12 421.709 125.444 7
-1 2 -12 270.287 133.497 12
1 -2 12 346.88 168.767 24
1 -2 13 878.456 229.029 24
-1 2 -13 1009.67 181.857 12
-1 2 -13 659.469 158.668 18
-1 2 -14 11908.2 454.094 12
1 -2 14 10740.3 544.248 24
-1 2 -15 1092.8 120.803 12
1 -1 -14 1182.79 208.734 14
-1 1 14 1143.19 161.347 24
1 -1 -13 1605.94 287.565 14
-1 1 13 1579.6 204.546 22
-1 1 13 1485.63 220.134 24
-1 1 12 3508.76 339.867 24
-1 1 12 2989.58 463.682 20
1 -1 -12 3460.46 292.654 19
1 -1 -12 3406.99 427.785 14
-1 1 12 3096.76 314.892 22
1 -1 -11 340.572 212.428 14
-1 1 11 88.2841 124.314 22
-1 1 11 435.159 323.911 20
1 -1 -11 240.531 125.959 19
-1 1 11 304.527 139.931 24
-1 1 10 2996.11 326.154 24
-1 1 10 2748.86 468.344 20
1 -1 -10 2527.45 272.276 19
1 -1 -10 2520.69 385.134 14
1 -1 -9 1712.39 247.127 11
-1 1 9 2073.29 402.138 20
1 -1 -9 2079.94 331.145 14
1 -1 -9 2048.37 244.184 19
-1 1 9 2628.16 297.595 24
1 -1 -9 2115.14 270.479 17
-1 1 9 2190.04 314.889 1
1 -1 -8 151.124 100.352 17
-1 1 8 225.264 138.591 1
1 -1 -8 124.353 89.356 19
1 -1 -7 4042.34 284.016 19
1 -1 -7 4359.9 273.544 18
1 -1 -7 4252.39 305.054 17
-1 1 7 4381.95 369.235 1
-1 1 6 95.9667 118.872 1
1 -1 -6 104.702 132.36 18
1 -1 -6 93.136 82.3589 17
1 -1 -6 23.6684 62.5988 19
1 -1 -5 115435 1199.16 19
1 -1 -5 116525 1244.07 17
-1 1 5 116808 1557.67 1
-1 1 5 115463 1111.25 2
-1 1 4 18872.1 576.604 1
-1 1 4 18284.1 390.236 2
1 -1 -4 18845.5 435.576 17
1 -1 -3 77212.7 1072.21 16
1 -1 -3 76382.4 757.862 17
-1 1 3 77677.8 1048.57 1
-1 1 3 78637.5 708.441 2
1 -1 -2 10292.2 233.445 17
-1 1 2 10487.2 344.804 1
1 -1 -2 9912 331.695 16
-1 1 2 10512.5 237.07 2
1 -1 -1 26707.3 437.528 16
-1 1 1 26715.1 353.111 2
1 -1 -1 26643.7 294.771 17
-1 1 1 27317.2 461.397 1
1 -1 0 33515.9 413.229 16
1 -1 0 31718.6 434.045 3
-1 1 0 33266.6 417.508 15
-1 1 0 31876.9 392.911 1
1 -1 1 9517.97 237.249 3
-1 1 -1 9660.89 236.373 15
1 -1 1 9636.62 197.97 16
-1 1 -2 7701.23 235.767 15
1 -1 2 8217.83 126.653 1
1 -1 2 8154.73 186.791 16
-1 1 -2 7940.96 220.327 17
1 -1 2 7984.7 238.32 3
1 -1 3 10341 195.381 1
-1 1 -3 9754.57 303.075 15
1 -1 3 10633.4 234.591 16
-1 1 -3 9898.55 290.582 17
1 -1 3 10458.6 314.581 3
-1 1 -4 35675.8 646.838 15
1 -1 4 36142.5 479.122 1
1 -1 4 36099.3 669.423 3
-1 1 -4 35471.2 627.457 17
-1 1 -5 10829.3 401.589 17
-1 1 -5 10835.3 411.702 15
1 -1 5 10564.7 415.64 3
1 -1 5 11181.3 318.195 1
-1 1 -6 11538.7 439.983 18
1 -1 6 11241.9 479.55 3
-1 1 -6 11481.5 462.067 17
1 -1 6 11329.5 364.227 1
-1 1 -6 10121.6 442.902 15
1 -1 7 1646.95 219.419 3
-1 1 -7 1391.96 200.828 17
-1 1 -7 1397.85 145.337 19
-1 1 -7 1119.99 167.177 18
-1 1 -7 1291.95 190.614 15
1 -1 8 2227.23 274.276 3
-1 1 -8 2578.82 203.606 19
-1 1 -8 2836.58 291.875 17
-1 1 -8 2442.16 240.673 18
-1 1 -8 2379.07 263.455 15
-1 1 -9 4641.84 397.262 17
-1 1 -9 4409.47 280.879 19
-1 1 -9 4690.09 344.78 18
1 -1 9 4814.75 412.976 24
1 -1 9 4472.43 401.381 22
1 -1 9 4358.39 394.468 3
1 -1 10 680.332 201.098 24
1 -1 10 363.703 170.987 22
-1 1 -10 423.113 145.971 18
1 -1 10 393.242 164.858 3
-1 1 -10 399.434 174.69 17
-1 1 -10 163.039 183.942 14
1 -1 11 2893.05 353.78 24
1 -1 11 2117.2 304.228 22
-1 1 -11 2688.78 365.65 14
-1 1 -11 2362.1 271.474 18
1 -1 12 760.738 207.954 24
-1 1 -12 743.482 181.284 12
1 -1 12 617.723 204.593 22
-1 1 -12 703.576 165.357 18
1 -1 13 219.43 143.255 24
-1 1 -13 -61.3945 102.522 18
1 -1 13 92.0861 117.363 22
-1 1 -13 -5.51106 118.824 12
-1 1 -14 3104.96 256.491 12
1 -1 14 3061.39 291.691 24
-1 1 -15 285.676 85.527 12
-1 0 14 65.7061 110.03 24
1 0 -14 498.904 169.312 14
1 0 -14 407.207 99.5942 12
1 0 -13 77.7781 162.612 14
-1 0 13 66.5869 121.855 24
-1 0 12 605.007 180.623 22
-1 0 12 716.874 195.306 24
1 0 -12 641.26 238.127 14
1 0 -11 271.513 130.839 18
1 0 -11 257.761 217.483 14
1 0 -11 -18.0219 90.3574 19
-1 0 11 424.811 180.624 22
-1 0 11 376.518 171.095 24
1 0 -10 7641.76 623.773 14
1 0 -10 7182.19 413.151 19
1 0 -10 7382.27 442.979 18
-1 0 10 6730.34 450.216 22
-1 0 10 7379.79 491.334 24
1 0 -9 35882.7 1227.47 14
1 0 -9 32351.3 908.027 11
1 0 -9 33423 848.002 19
1 0 -9 33043.6 894.205 18
1 0 -9 34417.9 1041.02 17
-1 0 9 32083.8 1045 1
-1 0 9 34480.6 991.801 24
1 0 -8 11770.1 506.142 18
1 0 -8 11700.6 473.961 19
-1 0 8 9922.87 560.257 1
1 0 -8 11618.2 568.125 17
1 0 -7 44003.2 894.42 18
1 0 -7 45059.1 849.193 19
1 0 -7 45147.4 1004.03 17
1 0 -6 20199.2 549.149 18
1 0 -6 20190.1 599.048 17
-1 0 6 19861.9 687.195 1
1 0 -6 19534.7 509.707 19
1 0 -5 6542.33 309.389 17
-1 0 5 6658.89 371.858 1
-1 0 4 2034.17 199.59 1
1 0 -4 1906.65 152.882 17
1 0 -3 5191.26 204.066 17
-1 0 3 5183.09 268.159 1
-1 0 2 52614.1 704.466 1
-1 0 2 52626.9 365.954 2
1 0 -2 52935.6 510.202 17
1 0 -1 14558.6 194.149 17
-1 0 1 14684.4 126.076 2
-1 0 0 541.329 52.2138 1
1 0 0 615.701 58.881 16
1 0 0 490.849 52.8891 3
-1 0 -1 9128.24 123.437 17
1 0 1 9042.52 193.571 3
-1 0 -1 9180.91 112.569 1
1 0 1 9540.12 116.767 16
-1 0 -1 9547.97 201.561 15
1 0 2 230.974 59.2854 3
-1 0 -2 317.321 48.4253 17
-1 0 -2 293.948 54.3607 15
1 0 3 34351.6 541.395 3
1 0 3 34146.7 370.846 1
-1 0 -3 33900.7 463.871 17
1 0 4 14268.7 314.945 1
-1 0 -4 13798.8 353.269 17
-1 0 -4 13449.9 366.312 15
1 0 5 11607.9 340.73 1
-1 0 -5 11273.1 371.433 17
-1 0 -5 11021.9 377.99 15
-1 0 -6 3481.24 246.681 15
-1 0 -6 3475.72 239.712 17
1 0 6 3510.78 221.295 1
-1 0 -7 269.263 84.9642 19
1 0 7 157.186 91.718 1
1 0 7 249.464 116.594 3
-1 0 -7 60.7088 96.6759 18
-1 0 -7 194.509 99.6867 17
-1 0 -7 252.185 103.894 15
1 0 8 912.102 189.362 3
-1 0 -8 1242.89 170.777 18
-1 0 -8 1198.95 157.058 19
-1 0 -8 1162.41 191.73 17
-1 0 -9 5968.68 425.188 17
-1 0 -9 5951.76 366.218 18
1 0 9 5026.93 412.981 3
-1 0 -9 5624.48 337.395 19
-1 0 -10 3318.03 377.569 14
1 0 10 2729.84 318.492 22
-1 0 -10 2322.72 233.648 19
-1 0 -10 2642.21 265.459 18
1 0 10 2226.62 311.661 3
-1 0 -10 2157.66 289.599 17
1 0 10 2057.75 272.864 24
-1 0 -11 215.617 104.224 19
1 0 11 61.6548 162.881 22
-1 0 -11 463.851 221.034 14
-1 0 -11 160.344 118.106 18
1 0 11 241.793 138.833 24
1 0 12 21458.3 877.573 22
-1 0 -12 20350.2 658.402 19
-1 0 -12 21594.7 913.009 14
1 0 12 20917.1 820.04 24
-1 0 -12 21476.5 713.466 18
-1 0 -13 6901.48 422.34 12
1 0 13 6349.57 441.78 24
-1 0 -13 6475.18 479.095 14
1 0 13 5944.95 449.839 22
1 0 14 4662.2 358.625 22
-1 0 -14 5220.93 329.039 12
1 0 14 4644.05 339.889 24
-1 0 -15 932.679 127.284 12
1 1 -14 3746 337.02 14
1 1 -14 3931.25 221.637 12
-1 -1 14 3745.97 298.896 24
1 1 -14 3882.75 236.928 7
1 1 -13 3448.11 395.407 14
1 1 -13 3248.27 254.091 12
-1 -1 13 3408.48 340.1 24
1 1 -13 3078.11 262.35 18
1 1 -12 12283 778.57 14
-1 -1 12 12987.9 677.381 24
1 1 -12 12483.9 555.169 18
-1 -1 11 18989.8 831.825 24
1 1 -11 17903.9 963.636 14
1 1 -11 18251.4 716.545 18
1 1 -10 339.86 203.241 14
1 1 -10 219.637 128.665 18
-1 -1 10 639.984 166.049 24
-1 -1 9 591.665 182.101 24
1 1 -9 746.625 249.104 14
-1 -1 9 388.383 183.024 1
1 1 -9 301.666 135 18
1 1 -9 389.415 151.6 17
1 1 -8 1328.25 199.585 18
1 1 -8 1521.01 176.29 19
1 1 -8 1518.28 240.644 17
-1 -1 8 1024.11 209.65 1
-1 -1 7 10295.4 544.677 1
1 1 -7 10837.9 532.072 17
1 1 -7 11389.7 402.705 19
1 1 -7 10920.2 474.557 18
1 1 -6 616.597 148.09 17
1 1 -6 328.624 106.019 18
-1 -1 6 343.94 134.837 1
1 1 -5 2987.14 233.563 17
-1 -1 5 3314.13 272.26 1
1 1 -4 94.5096 77.6227 17
-1 -1 4 58.0372 82.8364 1
-1 -1 3 31838.6 621.378 1
1 1 -3 31869.5 559.775 17
1 1 -2 835.608 93.3021 17
-1 -1 2 946.58 108.343 1
-1 -1 1 939.324 96.6615 1
1 1 -1 980.751 46.3004 2
1 1 0 21659.4 239.012 2
-1 -1 -1 4097.53 110.983 15
1 1 1 3907.75 105.317 3
-1 -1 -1 3940.6 75.7706 16
1 1 1 3966.83 135.5 2
-1 -1 -2 33192.7 378.44 17
1 1 2 32978.3 466.953 2
-1 -1 -2 32248.5 320.016 15
1 1 3 4925.2 218.82 2
-1 -1 -3 5035.48 184.299 17
-1 -1 -3 4857.23 160.491 15
1 1 4 10.5727 64.3971 2
-1 -1 -4 7.52517 49.3464 15
1 1 4 -18.0404 54.6301 1
-1 -1 -4 2.2328 52.969 17
1 1 5 22862.5 582.274 2
1 1 5 23043.5 538.534 1
-1 -1 -5 22977.7 487.898 15
-1 -1 -5 22815.3 512.011 17
1 1 6 10727.2 410.905 1
-1 -1 -6 10168.2 387.999 17
-1 -1 -6 9989.95 362.599 15
1 1 7 4402.42 293.349 1
-1 -1 -7 4372.8 290.236 17
-1 -1 -7 4633.45 262.163 18
-1 -1 -7 4177.07 265.601 19
1 1 8 39577.9 920.595 1
-1 -1 -8 39539.5 799.071 18
-1 -1 -8 37809.8 921.48 17
-1 -1 -8 39100.1 857.936 19
-1 -1 -9 18462 638.962 19
1 1 9 18432.6 763.04 3
-1 -1 -9 19084.1 596.597 18
1 1 9 19445 761.294 22
-1 -1 -9 18748.7 713.694 17
1 1 10 23453.8 1298.63 20
-1 -1 -10 24410.1 941.331 14
1 1 10 23758.9 766.815 24
1 1 10 24295.9 919.779 3
-1 -1 -10 23588.1 862.1 17
1 1 10 24740.2 909.441 22
-1 -1 -10 23735.7 760.993 19
1 1 11 4265.31 357.883 24
-1 -1 -11 4355.38 441.719 14
-1 -1 -11 4411.76 343.324 19
1 1 11 4003.99 398.44 22
-1 -1 -12 -10.4913 92.9796 19
-1 -1 -12 -70.7621 175.137 14
1 1 12 -62.9273 116.958 24
1 1 12 2.52112 124.363 22
1 1 13 185.796 156.237 22
-1 -1 -13 23.0505 96.1179 19
-1 -1 -13 217.598 176.902 14
-1 -1 -14 1737.38 202.445 12
1 1 14 1442.39 219.944 22
1 1 15 750.234 127.688 22
-1 -1 -15 559.987 105.814 12
1 2 -14 -19.2983 75.4752 7
-1 -2 14 113.41 105.345 24
1 2 -13 236.167 121.899 7
1 2 -13 372.498 114.614 12
-1 -2 13 155.799 130.522 24
1 2 -13 87.4219 142.079 14
1 2 -13 372.076 123.914 18
1 2 -12 142.381 163.602 14
-1 -2 12 527.699 194.799 24
1 2 -12 572.004 145.195 18
1 2 -12 289.87 119.114 12
1 2 -11 8159.74 495.767 18
1 2 -11 9403.23 714.751 14
-1 -2 11 9211.83 594.618 24
1 2 -11 8226.36 447.709 12
-1 -2 10 5642.92 465.861 24
1 2 -10 5230.71 412.161 18
1 2 -10 5947.94 576.537 14
-1 -2 10 6328.66 476.368 23
-1 -2 9 396.878 174.418 24
-1 -2 9 76.5805 166.066 1
1 2 -9 378.97 232.938 14
-1 -2 9 359.71 200.513 3
1 2 -9 241.358 138.345 18
-1 -2 8 184.261 143.877 1
1 2 -8 251.188 129.596 18
-1 -2 8 54.0044 148.035 24
1 2 -8 441.967 278.034 14
1 2 -7 6558.91 390.24 18
1 2 -7 6051.6 433.884 17
-1 -2 7 6616.95 451.315 1
1 2 -6 7691.43 385.037 18
1 2 -6 7766.58 442.865 17
-1 -2 6 7955.25 452.486 1
1 2 -5 15241.6 483.818 18
-1 -2 5 16430.8 577.354 1
-1 -2 4 25703.6 649.538 1
-1 -2 3 13065.7 422.487 1
1 2 -2 51495.9 521.498 2
-1 -2 2 52305.8 752.589 1
-1 -2 1 2046.71 64.6661 3
1 2 -1 2184.92 113.802 2
1 2 0 31640.2 420.8 2
-1 -2 0 30810.5 385.25 16
1 2 1 1739.73 56.2331 3
-1 -2 -1 1933.38 96.5433 16
1 2 1 1908.56 122.653 2
1 2 2 250.091 66.9303 2
-1 -2 -2 222.716 58.4669 17
-1 -2 -2 223.711 46.0175 16
-1 -2 -3 4389.93 192.079 17
-1 -2 -3 4384.23 172.946 16
1 2 3 4225.48 217.061 2
1 2 4 60637.3 887.342 2
-1 -2 -4 62017.9 796.111 17
1 2 5 41156.7 816.942 2
-1 -2 -5 41143.1 726.786 17
-1 -2 -6 45513.9 849.386 17
-1 -2 -6 45033.8 828.567 19
1 2 6 43230.8 924.493 2
1 2 7 360.663 118.615 2
-1 -2 -7 349.101 99.9401 19
-1 -2 -7 326.125 110.809 17
-1 -2 -8 7142.24 412.083 17
-1 -2 -8 6821.78 386.206 19
1 2 9 326.808 171.935 13
-1 -2 -9 79.5398 156.188 14
1 2 9 111.685 228.294 20
-1 -2 -9 2.22772 73.5673 19
-1 -2 -9 117.125 119.02 17
1 2 10 1149.22 212.827 3
1 2 10 740.417 364.412 20
1 2 10 777.194 213.812 13
-1 -2 -10 830.32 174.504 19
1 2 10 1071.65 229.575 22
-1 -2 -10 1066.13 231.036 14
-1 -2 -10 1211.5 249.387 17
1 2 11 7029.97 515.85 22
-1 -2 -11 6737.53 434.75 19
1 2 11 6642.29 463.534 13
1 2 11 6778.1 778.363 20
-1 -2 -11 7761.52 577.604 14
-1 -2 -12 492.748 143.667 19
1 2 12 198.149 164.039 22
-1 -2 -12 406.408 197.318 14
-1 -2 -13 1089.16 177.957 19
1 2 13 875.323 211.102 22
-1 -2 -13 836.122 218.835 14
1 2 14 1292.24 200.888 22
-1 -2 -14 1628.65 234.962 14
-1 -2 -15 424.533 87.7629 12
1 2 15 439.274 110.251 22
1 3 -14 1200.57 134.189 7
-1 -3 14 1396.58 181.685 24
1 3 -13 11285.9 457.869 7
-1 -3 13 10944.5 560.747 24
1 3 -12 -36.6725 97.7851 18
1 3 -12 -9.03956 106.228 12
1 3 -12 -5.57292 112.593 7
1 3 -12 -8.92771 183.144 14
-1 -3 12 128.559 149.206 24
1 3 -11 281.442 132.488 12
1 3 -11 579.347 258.002 14
1 3 -11 384.038 157.308 18
-1 -3 11 385.96 180.983 23
-1 -3 11 216.993 173.638 24
-1 -3 10 9498.11 621.221 23
1 3 -10 8852.97 458.412 12
1 3 -10 8215.21 688.857 14
1 3 -10 7866.55 504.499 18
-1 -3 10 9041.96 602.382 24
1 3 -9 993.198 201.612 12
1 3 -9 1278.51 322.977 14
1 3 -9 940.052 187.87 18
-1 -3 9 853.049 229.993 24
1 3 -8 55378.9 1638.2 14
-1 -3 8 55601.9 1331.18 24
-1 -3 8 53168.8 1335.66 1
1 3 -8 55889.8 1248.76 18
-1 -3 7 6456.36 460.313 1
1 3 -7 7344.41 428.367 18
1 3 -6 299.641 114.089 18
-1 -3 6 172.716 113.73 3
-1 -3 6 95.4092 108.396 1
-1 -3 5 29558.7 669.597 3
1 3 -5 28514 706.81 18
-1 -3 5 28750.1 802.211 1
-1 -3 4 82406.9 1243.89 1
-1 -3 4 83043.3 955.556 3
1 3 -4 80596.7 1065.55 18
-1 -3 3 8240.95 243.871 3
-1 -3 3 8574.25 377.555 1
1 3 -3 8758.01 292.31 2
-1 -3 2 4738.46 128.892 3
1 3 -2 5230.27 220.179 2
-1 -3 2 4933.25 232.902 16
-1 -3 1 1950.68 139.843 16
1 3 -1 1835.41 136.272 2
-1 -3 0 61543.8 694.576 16
1 3 0 61120.6 750.058 2
1 3 1 5978.29 250.701 2
-1 -3 -1 6254.4 219.566 16
-1 -3 -2 3977.72 184.084 16
1 3 2 3861.61 217.706 2
-1 -3 -3 436.22 87.1331 17
-1 -3 -3 544.885 88.3798 16
1 3 3 538.601 107.428 2
1 3 4 10306.9 407.721 2
-1 -3 -4 9816.39 348.833 16
-1 -3 -4 10212 363.314 17
1 3 5 3411.81 260.251 2
-1 -3 -5 3627.61 245.074 17
-1 -3 -5 3062.75 219.285 19
-1 -3 -5 3207.42 236.968 16
1 3 6 3072.8 274.521 2
-1 -3 -6 3322.85 247.185 19
-1 -3 -6 3338.32 256.85 17
-1 -3 -7 1177.34 170.844 19
-1 -3 -7 1377.76 183.293 17
1 3 7 925.499 176.665 2
-1 -3 -8 7415.93 422.711 19
-1 -3 -8 7824.39 445.791 17
1 3 8 6863.67 462.598 2
1 3 8 7315.47 713.676 20
1 3 9 455.067 256.612 20
-1 -3 -9 312.414 124.452 19
1 3 9 347.301 170.436 13
-1 -3 -9 296.387 153.964 17
1 3 10 14782 714.123 13
-1 -3 -10 16196.4 816.285 14
1 3 10 13938.6 1058.25 20
-1 -3 -10 14591.7 640.085 19
1 3 11 691.75 200.971 13
1 3 11 524.171 331.975 20
-1 -3 -11 911.459 177.168 19
1 3 11 836.126 208.876 22
-1 -3 -11 698.55 237.129 14
-1 -3 -12 9067.52 488.808 19
1 3 12 9221.36 567.155 22
1 3 12 9583.06 520.084 13
-1 -3 -12 10335.1 633.714 14
1 3 13 10384.4 554.163 22
-1 -3 -13 10434.3 566.355 14
-1 -3 -13 10926.8 482.276 19
-1 -3 -14 419.925 148.942 14
1 3 14 491.967 134.45 22
-1 -4 13 3097.63 289.553 24
1 4 -13 3190.37 231.201 7
1 4 -12 1362.18 195.12 7
-1 -4 12 1549.56 259.886 24
1 4 -12 1299.55 193.097 18
-1 -4 12 1322.82 231.019 23
1 4 -11 1398.95 221.589 18
1 4 -11 1228.15 220.535 7
-1 -4 11 1560.13 280.059 23
-1 -4 11 1464.45 391.452 24
1 4 -10 16924.2 718.983 7
1 4 -10 15887.3 693.503 18
-1 -4 10 15122.5 792.996 24
-1 -4 9 1790.53 318.915 23
-1 -4 9 1263.45 274.564 24
1 4 -9 1345.43 232.019 7
1 4 -9 1486.11 237.603 18
1 4 -9 1157.31 314.913 14
1 4 -8 1986.69 273.429 7
-1 -4 8 1775.83 287.236 24
1 4 -8 1913.16 377.03 14
1 4 -8 1908.07 257.817 18
-1 -4 8 2076.01 273.007 16
1 4 -7 432.71 231.729 14
-1 -4 7 395.993 181.711 24
1 4 -7 730.06 194.591 7
-1 -4 7 438.483 137.533 16
1 4 -7 453.57 149.942 18
-1 -4 7 449.402 180.927 1
1 4 -6 1230.58 189.229 18
-1 -4 6 719.862 180.159 1
-1 -4 6 1036.17 181.045 16
-1 -4 5 5283.5 384.1 1
-1 -4 5 5140.52 343.926 16
1 4 -5 5329.56 331.787 18
-1 -4 4 12912.6 495.076 16
1 4 -4 12156.4 448.87 18
-1 -4 4 13016 551.454 1
1 4 -4 12754.8 436.455 2
1 4 -3 12600.6 418.265 2
-1 -4 3 12503.1 454.721 16
1 4 -3 12476.2 406.563 18
-1 -4 3 13433.3 529.682 1
-1 -4 2 30072.5 655.62 16
1 4 -2 29010.2 632.151 2
1 4 -1 7101.41 312.196 2
-1 -4 1 6865.66 300.285 16
1 4 0 12287.4 407.78 2
-1 -4 0 12029.9 380.994 16
1 4 1 13112.6 432.638 2
-1 -4 -1 13173.6 393.991 16
-1 -4 -2 26765.5 574.001 16
1 4 2 26006.1 635.715 2
-1 -4 -3 3629.77 225.775 16
-1 -4 -3 3695.02 235.992 17
1 4 3 3288.01 246.283 2
-1 -4 -4 469.628 102.83 19
-1 -4 -4 766.518 124.588 17
-1 -4 -4 719.207 128.547 16
1 4 4 627.95 138.761 2
-1 -4 -5 15549.8 504.187 19
1 4 5 16555.2 614.653 2
-1 -4 -5 17389.1 569.457 17
-1 -4 -5 17036.6 583.592 16
-1 -4 -6 11409.7 471.785 19
-1 -4 -6 12849.3 527.827 17
1 4 6 11459.3 551.615 2
1 4 7 49.8858 97.3644 2
-1 -4 -7 8.4069 85.0376 19
-1 -4 -7 87.3825 109.149 17
1 4 8 -64.7644 111.076 5
-1 -4 -8 -158.591 107.086 19
1 4 8 -16.9516 137.466 2
1 4 8 -3.06505 253.361 20
-1 -4 -8 -56.4241 114.628 17
1 4 9 15.3053 259.425 20
1 4 9 206.655 147.678 13
-1 -4 -9 -4.39993 99.2141 19
-1 -4 -10 4704.52 371.976 19
1 4 10 4882.2 665.591 20
1 4 10 4587.34 422.589 13
-1 -4 -10 5580.84 508.005 14
-1 -4 -11 6659.78 531.042 14
1 4 11 6661.14 480.544 13
-1 -4 -11 5903.23 404.793 19
1 4 11 7045.01 505.919 22
1 4 11 5698.03 699.42 20
-1 -4 -12 172.037 168.746 14
1 4 12 172.188 124.343 22
-1 -4 -12 259.529 115.295 19
1 4 13 891.337 176.521 22
-1 -4 -13 530.647 156.179 14
1 4 14 1639.5 170.162 22
-1 -5 13 -16.3509 111.164 24
1 5 -13 -8.02694 63.65 7
-1 -5 12 89.5553 117.042 24
1 5 -12 150.559 99.9518 7
-1 -5 12 66.9842 114.341 23
-1 -5 11 588.806 203.647 24
-1 -5 11 533.59 185.783 23
1 5 -11 520.074 157.172 7
1 5 -11 656.108 152.472 18
-1 -5 10 1908.93 312.685 24
1 5 -10 2211.94 262.769 18
1 5 -10 1907.51 264.253 7
-1 -5 10 1996.02 322.605 23
-1 -5 9 6008.98 543.416 23
-1 -5 9 5824.9 519.057 24
1 5 -9 5380.93 407.132 18
1 5 -9 5818.67 442.695 7
-1 -5 8 886.893 255.079 24
1 5 -8 824.407 197.269 7
1 5 -8 548.658 158.215 18
-1 -5 8 883.421 249.55 23
1 5 -7 656.55 189.717 7
-1 -5 7 537.551 210.036 24
1 5 -7 867.631 195.392 18
-1 -5 6 19631.5 758.324 16
-1 -5 6 17999 802.562 24
1 5 -6 19165.9 740.368 7
1 5 -6 19211.3 698.251 18
-1 -5 6 17723.1 767.52 1
-1 -5 5 1059.43 190.759 16
-1 -5 5 899.514 214.424 1
1 5 -5 1099.6 175.904 18
1 5 -5 1318.97 224.384 7
1 5 -4 2160.15 223.863 2
1 5 -4 2344.96 223.349 18
-1 -5 4 2298.36 280.421 1
-1 -5 4 2065.89 234.147 16
-1 -5 3 353.307 109.41 16
1 5 -3 398.712 115.401 2
1 5 -2 18307.3 588.863 2
-1 -5 2 18652.6 596.517 16
1 5 -1 2242.93 215.57 2
-1 -5 1 2218.6 206.673 16
1 5 0 193.498 96.0491 2
-1 -5 0 415.246 105.014 16
1 5 1 175.051 93.5525 2
-1 -5 -1 120.346 86.4974 16
-1 -5 -2 4089.46 271.952 16
1 5 2 3711.83 283.968 2
1 5 3 74.5853 78.6068 2
-1 -5 -3 116.505 92.0733 17
-1 -5 -3 16.4672 89.9205 16
-1 -5 -4 3805.66 285.087 17
-1 -5 -4 3843.02 288.955 16
1 5 4 3451.46 297.664 2
-1 -5 -5 9428.13 462.169 17
-1 -5 -5 9740.69 423.852 19
1 5 5 9557.99 511.852 2
1 5 6 20904 1069.01 20
1 5 6 21702.1 805.508 2
1 5 6 22056.1 759.71 5
-1 -5 -6 21694.9 676.695 19
-1 -5 -6 21953.9 738.064 17
1 5 7 17266.6 1044.57 20
-1 -5 -7 17415.7 647.553 19
1 5 7 17279.5 719.623 5
-1 -5 -7 16260.3 668.155 17
1 5 7 16328.6 736.791 2
1 5 8 4272.91 601.219 20
-1 -5 -8 4025.65 338.842 19
1 5 8 4329.55 391.036 5
1 5 9 379.378 254.901 20
1 5 9 531 188.048 13
-1 -5 -9 338.997 133.996 19
-1 -5 -10 104.562 101.971 19
1 5 10 -148.41 158.161 13
-1 -5 -11 575.335 206.587 14
1 5 11 588.385 164.867 22
-1 -5 -11 797.823 166.213 19
-1 -5 -12 161.977 128.444 14
1 5 12 67.6656 100.815 22
-1 -5 -12 136.864 89.6105 19
1 5 12 16.2089 109.835 13
1 5 13 10820.9 368.025 13
-1 -5 -13 11577.1 463.797 14
1 5 13 12341.5 458.378 22
-1 -6 12 2386.44 238.085 23
1 6 -12 2421.12 183.191 7
-1 -6 11 1624.04 244.564 24
-1 -6 11 1865.84 264.072 23
1 6 -11 1693.68 199.906 7
-1 -6 10 5823.14 460.196 24
-1 -6 10 6762.45 519.212 23
1 6 -10 6187.69 409.179 7
1 6 -10 6740.78 386.698 18
-1 -6 9 -57.5971 158.726 23
1 6 -9 63.7729 135.857 7
-1 -6 9 204.598 192.383 24
1 6 -9 91.578 114.415 18
1 6 -8 2651.33 282.51 18
-1 -6 8 2402.59 361.038 24
1 6 -8 2295.24 294.354 7
-1 -6 8 2526.62 380.905 23
1 6 -7 5413.29 438.792 7
-1 -6 7 5064.09 496.206 24
-1 -6 7 5760.04 539.776 23
1 6 -7 5772.38 398.588 18
-1 -6 6 23812.1 1028.41 23
1 6 -6 22814.9 850.243 7
1 6 -5 5035.32 408.069 7
-1 -6 5 5318.94 491.999 23
-1 -6 5 4523.56 389.279 16
-1 -6 5 4699.43 425.876 1
1 6 -4 6026.47 417.49 7
-1 -6 4 4837.28 425.577 1
-1 -6 4 5232.94 394.464 16
1 6 -3 10038.5 499.476 2
1 6 -3 11046.2 529.423 7
-1 -6 3 9242.05 552.42 1
-1 -6 3 9744.85 512.999 16
1 6 -2 5052.26 356.587 2
-1 -6 2 5224.54 365.536 16
1 6 -1 4398.78 333.056 2
-1 -6 1 4702.73 337.845 16
1 6 0 414.15 124.814 2
-1 -6 0 314.393 121.316 16
-1 -6 -1 11288.2 507.236 16
1 6 1 11163.6 525.626 2
-1 -6 -2 11498.8 512.358 17
-1 -6 -2 11719.4 518.464 16
1 6 2 12240.2 563.445 2
1 6 3 14347.2 617.578 8
-1 -6 -3 14757.3 589.209 16
1 6 3 13688.6 610.697 2
-1 -6 -3 13735.2 562.122 17
1 6 4 23839.2 791.816 8
1 6 4 23186.3 813.318 2
1 6 4 25460.2 783.011 5
-1 -6 -4 25736.8 781.888 17
1 6 5 6935.34 439.933 5
-1 -6 -5 6314.23 411.158 17
1 6 5 6435.22 449.273 2
1 6 5 6736.98 434.991 8
1 6 6 342.493 143.709 5
-1 -6 -7 1432.58 201.985 19
1 6 7 1749.33 253.076 5
1 6 8 24441.6 889.203 5
1 6 8 27007.2 1365.5 20
-1 -6 -8 25731.7 793.679 19
1 6 9 4062.66 393.395 13
1 6 9 3041.68 502.478 20
-1 -6 -9 3784.36 312.44 19
1 6 10 6111.98 447.545 13
-1 -6 -10 5754.7 363.665 19
1 6 10 5506.73 616.351 20
-1 -6 -11 672.01 187.533 14
1 6 11 494.152 155.648 13
1 6 11 502.868 142.209 22
1 6 12 207.355 93.3958 13
1 6 12 357.231 104.244 22
-1 -6 -12 265.676 125.162 14
-1 -7 11 9.5387 92.6222 23
1 7 -10 8773 400.474 7
-1 -7 10 8887.15 524.849 23
1 7 -9 679.891 137.472 8
1 7 -9 769.086 173.22 7
-1 -7 9 768.099 209.825 23
-1 -7 8 1591.04 295.283 23
1 7 -8 1513.77 219.234 8
1 7 -8 1583.71 247.616 7
-1 -7 7 1582.28 306.659 23
1 7 -7 1756.64 254.006 8
1 7 -7 993.177 222.926 7
-1 -7 6 10656.7 699.619 23
1 7 -6 10988.1 603.332 7
1 7 -6 11932.9 639.345 8
1 7 -5 6736.36 493.724 8
1 7 -5 6354.2 466.2 7
-1 -7 5 6534.53 544.236 23
1 7 -4 1673.89 276.617 8
-1 -7 4 1565.31 291.399 23
1 7 -4 1718.98 262.749 7
1 7 -3 1599.51 266.237 8
1 7 -2 10861.5 557.609 2
1 7 -2 11622.1 624.926 8
1 7 -1 3731.3 365.86 8
-1 -7 1 3536.27 337.522 16
1 7 -1 3866.68 346.478 2
1 7 0 13704.6 653.009 8
-1 -7 0 13117.5 613.177 16
1 7 0 13229.6 613.599 2
1 7 1 1398.08 239.951 8
1 7 1 1596.35 227.514 2
-1 -7 -1 1127.92 190.357 17
-1 -7 -1 1389.59 234.879 16
1 7 2 1046.71 212.361 2
-1 -7 -2 670.04 182.635 17
1 7 2 653.294 179.132 8
1 7 3 2514.3 274.555 5
1 7 3 2780.16 307.267 8
1 7 4 1775.72 249.734 8
1 7 4 1461.81 217.143 5
1 7 5 4233.19 360.047 5
1 7 5 4600.37 382.136 8
1 7 6 132.4 126.381 5
1 7 7 2199.85 273.541 5
1 7 8 2618.87 438.569 20
1 7 8 3627.44 367.078 13
1 7 8 2672.29 290.296 5
1 7 9 2742.27 303.746 13
1 7 10 952.359 149.544 22
1 7 10 751.814 161.845 13
-1 -7 -10 1183.55 221.896 14
1 7 11 4480.43 276.714 13
-1 -7 -11 4495.64 303.177 14
1 7 11 4053.3 227.428 22
1 8 -9 971.135 122.015 8
-1 -8 9 1192.83 201.048 23
-1 -8 8 113.156 138.432 23
1 8 -8 36.309 90.3609 8
-1 -8 7 3903.68 389.634 23
1 8 -7 3468.74 308.72 8
-1 -8 6 3046.12 367.683 23
1 8 -6 2631.71 295.69 8
1 8 -5 2830.95 325.923 8
-1 -8 5 2339.55 334.184 23
1 8 -4 395.289 147.894 8
1 8 -3 9705.97 586.059 8
1 8 -2 1994.14 281.708 8
1 8 -1 14368.4 704.831 8
-1 -8 1 16030.5 772.878 21
-1 -8 0 1526.29 280.871 21
1 8 0 1683.24 276.527 8
1 8 1 352.168 165.132 8
1 8 2 10406.2 521.641 5
1 8 2 11938.7 612.319 8
1 8 3 26355.5 885.568 8
1 8 3 26507.9 827.921 5
1 8 4 4106.71 341.082 5
1 8 4 4222.37 353.646 8
1 8 5 3765.94 328.513 5
1 8 6 31.6731 93.071 5
1 8 7 8111.16 437.08 5
1 8 7 8809.29 509.69 13
1 8 8 5173.92 365.883 13
1 8 9 1937.98 205.663 13
-1 -8 -10 241.167 105.787 14
1 8 10 146.221 81.7802 13
-1 -9 7 1923.57 207.703 21
1 9 -7 2373.9 195.939 8
1 9 -6 14.3736 79.3107 8
1 9 -5 221.336 113.081 8
-1 -9 4 -281.223 152.342 21
1 9 -4 4.88277 110.806 8
1 9 -3 3796.63 340.986 8
-1 -9 3 4061.51 375.179 21
-1 -9 2 3327.96 336.695 21
1 9 -2 3825.68 345.12 8
-1 -9 1 440.697 169.649 21
1 9 -1 516.228 160.591 8
1 9 0 4591.2 373.043 8
1 9 0 3678.92 282.336 5
1 9 1 90.887 114.528 8
1 9 1 74.7852 96.6029 5
1 9 2 83.0606 110.188 8
1 9 2 41.1979 86.9254 5
1 9 3 5727.22 351.592 5
1 9 3 5844.6 375.511 8
1 9 4 339.754 117.749 5
1 9 5 64.6539 91.2769 5
1 9 6 2286.27 198.774 5
1 9 6 2712.63 249.551 13
1 9 7 9423.02 405.657 13
1 9 8 1870.05 163.958 13
1 10 -4 473.087 105.329 8
1 10 -3 77.9666 81.704 8
1 10 -2 611.405 126.073 8
1 10 -1 977.231 155.884 8
1 10 0 -33.8555 87.9131 8
1 10 1 1056.16 151.305 8
1 10 2 4978.62 269.001 8
-2 9 5 463.383 94.6591 5
-2 9 4 1718.89 167.729 5
2 -9 -4 2345.74 273.578 21
2 -9 -3 849.967 215.729 21
-2 9 3 978.859 146.337 5
2 -9 -2 2321.47 312.031 21
-2 9 2 2251.54 216.02 5
2 -9 -1 727.156 213.599 21
-2 9 1 889.868 155.628 5
2 -9 0 312.171 187.346 21
-2 9 0 351.382 114.651 5
2 -9 1 1559.82 265.655 21
-2 9 -2 -22.8469 119.132 12
2 -9 2 99.2106 145.756 21
2 -9 3 66.8641 126.007 21
-2 9 -3 149.479 112.005 12
-2 9 -4 9506.16 364.443 8
2 -9 4 10048.3 549.668 21
-2 9 -4 8512.94 374.61 12
2 -9 5 2.46416 114.242 21
-2 9 -5 -89.6738 86.268 8
-2 9 -6 1093.05 130.218 8
2 -9 6 944.695 172.895 21
2 -8 -7 441.351 122.739 14
-2 8 7 456.418 100.015 5
2 -8 -6 3693.96 280.691 14
2 -8 -6 3432.2 368.404 21
-2 8 6 2817.16 236.407 5
2 -8 -5 3125.5 387.431 21
-2 8 5 2998.65 267.633 5
-2 8 4 163.964 104.612 5
2 -8 -4 336.373 221.84 21
2 -8 -3 -83.4168 182.567 21
-2 8 3 189.085 111.737 5
-2 8 2 1629.49 225.968 5
2 -8 -2 1145.7 263.304 21
-2 8 1 162.209 151.556 12
2 -8 -1 407.48 187.742 21
2 -8 0 4080.26 452.35 21
-2 8 0 2874.03 324.225 12
2 -8 1 152.752 169.683 21
-2 8 -1 151.123 147.414 12
-2 8 -2 4951.19 399.985 12
2 -8 2 5845.41 521.031 21
-2 8 -3 -91.8324 139.046 12
2 -8 3 -72.692 157.052 21
-2 8 -3 33.6108 100.397 8
2 -8 4 430.237 183.063 21
-2 8 -4 382.53 139.164 8
-2 8 -4 665.215 176.309 12
2 -8 4 426.873 246.045 24
-2 8 -5 -2.90306 105.016 8
2 -8 5 107.656 151.403 21
-2 8 -5 37.2813 113.031 12
2 -8 5 -131.986 212.465 24
2 -8 6 569.68 243.557 23
2 -8 6 621.901 190.091 21
-2 8 -6 453.23 151.576 12
2 -8 6 741.207 251.194 24
-2 8 -7 6557.43 355.071 12
2 -8 7 6487.68 455.309 21
2 -8 7 5885.61 510.428 24
2 -8 7 6805.36 523.352 23
2 -8 8 104.367 156.825 24
-2 8 -8 72.274 84.4707 8
2 -8 8 34.997 152.266 23
2 -8 8 12.6224 102.716 21
-2 8 -8 -25.576 83.6219 12
2 -8 9 157.339 93.731 21
-2 8 -9 172.155 78.4112 8
2 -8 9 -59.6662 133.166 24
2 -8 9 131.532 139.784 23
2 -7 -9 1989.13 197.896 14
-2 7 9 1659.74 251.117 20
2 -7 -8 814.329 172.609 14
2 -7 -8 991.167 233.896 21
-2 7 8 893.115 237.191 20
2 -7 -7 636.319 187.471 14
2 -7 -7 395.056 228.161 21
-2 7 7 294.551 195.966 20
-2 7 7 385.285 123.363 5
-2 7 6 2479.15 373.465 20
-2 7 6 2475.55 272.733 5
2 -7 -6 2753.67 406.665 21
2 -7 -5 242.334 224.084 21
-2 7 5 129.909 122.877 5
-2 7 5 176.332 186.349 20
2 -7 -4 4553.19 511.637 21
-2 7 4 3442.2 419.09 20
-2 7 4 4038.63 357.435 5
2 -7 -3 451.96 232.364 21
-2 7 3 322.795 141.421 5
2 -7 -2 48.8448 182.339 21
-2 7 2 -40.6441 162.602 12
2 -7 -1 211.139 213.778 21
-2 7 1 -116.419 160.143 12
2 -7 0 185.765 191.027 21
-2 7 0 82.6747 150.003 12
2 -7 1 5396.13 516.26 21
-2 7 -1 4744.59 408.997 12
2 -7 2 25416.7 1064.69 21
2 -7 2 23288 1150.6 24
-2 7 -2 23576.2 877.393 12
2 -7 3 25069.4 1204.97 24
-2 7 -3 25202.1 894.153 12
-2 7 -4 3567.01 362.231 12
2 -7 4 3366.99 484.043 24
2 -7 4 3543.79 451.174 23
-2 7 -5 2271.85 288.744 12
2 -7 5 1917.35 380.128 23
2 -7 5 2233.38 397.112 24
-2 7 -6 395.922 167.048 12
2 -7 6 502.35 267.047 24
2 -7 6 280.598 241.072 23
2 -7 7 1103.86 312.197 23
-2 7 -7 1322.5 218.538 12
2 -7 7 1618.65 365.825 24
2 -7 8 282.461 215.618 23
2 -7 8 509.601 235.761 24
-2 7 -8 416.757 146.016 12
2 -7 9 1740.67 319.359 24
2 -7 9 1312.68 290.175 23
-2 7 -9 1258.75 182.142 12
-2 7 -10 1978.86 182.901 12
2 -7 10 2188.38 309.214 23
2 -7 10 1966.5 303.045 24
2 -7 11 10147.8 505.24 23
2 -7 11 9629.69 470.044 24
-2 6 10 2040.81 313.775 20
2 -6 -10 2156.67 231.188 14
2 -6 -9 2085.26 274.966 14
-2 6 9 1941.89 208.152 13
2 -6 -9 2068.8 333.595 21
-2 6 9 1990.51 339.281 20
2 -6 -8 3416.25 367.278 14
2 -6 -8 3835.76 470.408 21
-2 6 8 3111.65 294.492 5
2 -6 -8 3825.36 299.989 19
-2 6 8 4585.89 521.291 20
-2 6 7 2228.11 265.868 5
-2 6 7 2200.5 375.24 20
2 -6 -7 2233.95 404.724 21
2 -6 -7 2309.28 255.042 19
2 -6 -6 3394.12 484.518 21
-2 6 6 3683.18 486.636 20
2 -6 -6 3810.85 323.98 19
-2 6 6 3276.6 326.848 5
2 -6 -5 3024.69 449.807 21
-2 6 5 4210.75 483.405 20
-2 6 5 3972.91 359.667 5
2 -6 -4 357.763 244.68 21
-2 6 4 668.696 243.077 20
-2 6 4 354.19 136.376 5
-2 6 3 3052.77 354.021 12
2 -6 -3 4301.26 478.723 21
-2 6 3 3628.32 393.391 20
2 -6 -2 24500.2 1047.04 21
-2 6 2 22774.7 892.38 12
2 -6 -2 24717.1 966.054 16
-2 6 2 24098.4 829.48 2
-2 6 1 10905.7 562.83 2
-2 6 1 10926 607.438 12
2 -6 -1 11590.1 642.358 16
2 -6 -1 11234.4 692.046 21
-2 6 0 1241.64 230.514 12
2 -6 0 1087.84 254.421 21
-2 6 0 1345.11 230.302 2
2 -6 0 1440.06 239.079 16
2 -6 1 4560.11 435.739 21
-2 6 -1 3969.27 366.617 12
2 -6 1 3850.93 359.22 16
2 -6 1 4219.83 501.119 24
-2 6 -1 4020.68 370.883 2
2 -6 2 1601.89 356.121 24
-2 6 -2 2036.35 279.084 2
2 -6 2 1806.44 300.197 21
2 -6 2 1687.32 260.101 16
-2 6 -2 1800.48 258.857 12
-2 6 -3 389.4 183.86 2
2 -6 3 458.033 265.36 24
-2 6 -3 528.163 176.153 12
2 -6 3 405.283 242.733 23
2 -6 3 217.12 144.633 16
2 -6 4 27872.3 1163.84 23
-2 6 -4 27262.6 905.82 12
2 -6 4 27897.6 1225.53 24
2 -6 5 2156.95 390.818 24
2 -6 5 1790.78 363.476 23
-2 6 -5 2021.07 278.344 12
2 -6 6 2709.49 432.267 23
-2 6 -6 2993.06 329.317 12
2 -6 6 2183.95 416.622 24
2 -6 7 12224.7 866.548 24
-2 6 -7 12470 634.132 12
2 -6 7 12651.9 863.945 23
2 -6 8 205.917 219.906 24
-2 6 -8 25.12 137.175 12
2 -6 8 96.1316 192.753 23
2 -6 9 62.9386 207.411 23
2 -6 9 384.493 237.767 24
-2 6 -9 28.4667 130.484 12
2 -6 10 52.1989 172.19 23
-2 6 -10 33.4604 118.688 12
2 -6 10 50.34 180.938 24
2 -6 11 1241.45 248.007 24
2 -6 11 756.397 232.341 23
-2 6 -11 1336.94 173.786 12
2 -6 12 150.848 129.512 24
-2 6 -12 121.555 72.9262 12
2 -6 12 -41.8567 115.445 23
2 -5 -11 1929.53 239.601 14
-2 5 11 1960.64 329.37 20
-2 5 10 2915.12 424.147 20
2 -5 -10 2540.6 243.993 19
2 -5 -10 3028.91 323.833 14
-2 5 10 2547.34 221.69 24
2 -5 -9 930.753 229.261 14
-2 5 9 1052.06 337.499 20
2 -5 -9 903.791 298.32 21
2 -5 -9 1143.7 198.167 19
2 -5 -8 3724.09 508.755 21
-2 5 8 3648.46 504.128 20
2 -5 -8 3468.17 395.825 14
-2 5 8 3941.33 352.276 5
2 -5 -8 3634.03 337.341 19
-2 5 7 6174.76 627.351 20
2 -5 -7 6823.71 681.064 21
-2 5 7 5567.06 425.683 5
2 -5 -7 6774.68 457.274 19
-2 5 6 3967.94 495.041 20
2 -5 -6 4635.54 375.479 19
-2 5 6 4434.5 377.637 5
2 -5 -6 4303.03 548.973 21
2 -5 -5 526.517 254.587 21
-2 5 5 587.068 178.644 5
-2 5 5 440.982 231.35 20
2 -5 -5 306.154 256.428 16
2 -5 -5 563.655 165.219 19
2 -5 -4 1539.05 210.754 19
2 -5 -4 1088.7 269.074 21
-2 5 4 1421.53 266.681 20
-2 5 4 1786.78 237.202 2
-2 5 4 1594.76 223.579 5
2 -5 -4 1655.65 301.076 16
2 -5 -3 1143.02 249.435 21
-2 5 3 852.762 169.364 2
-2 5 3 1069.98 235.65 20
2 -5 -3 1184.58 248.823 16
-2 5 3 1131.46 229.64 12
2 -5 -3 968.159 171.143 19
-2 5 2 517.806 142.103 2
2 -5 -2 985.88 270.96 21
-2 5 2 546.034 212.868 12
2 -5 -2 360.76 139.285 16
-2 5 1 17.4205 101.91 2
2 -5 -1 131.305 83.7674 17
2 -5 -1 57.1027 103.315 16
2 -5 0 5256.35 290.378 17
-2 5 0 6135.22 401.535 2
2 -5 0 5590.01 395.553 16
-2 5 -1 15941.1 638.963 2
2 -5 1 15490.6 630.82 16
-2 5 -2 1119.74 198.079 2
2 -5 2 869.663 174.242 16
-2 5 -2 745.965 166.803 15
-2 5 -3 17954 703.156 2
2 -5 3 18037.1 674.84 16
-2 5 -3 18611.3 688.627 15
-2 5 -4 8188.87 495.824 2
2 -5 4 9760.11 672.463 23
-2 5 -4 9733.16 496.764 12
2 -5 4 8680.87 630.303 24
2 -5 4 9633.87 497.057 16
-2 5 -4 9113.42 514.993 15
2 -5 5 4477.97 486.571 24
2 -5 5 5160.53 513.76 23
-2 5 -5 5537.06 396.814 12
-2 5 -5 5392.48 415.349 2
2 -5 5 5276.2 381.971 16
-2 5 -5 4703.49 406.876 15
-2 5 -6 14131.9 579.3 18
2 -5 6 13066.7 813.037 24
-2 5 -6 12332.2 636.178 2
-2 5 -6 14033.5 613.887 7
2 -5 6 13043.6 600.923 16
-2 5 -6 13601 627.528 12
2 -5 6 13606.8 838.554 23
-2 5 -6 13352.4 686.077 15
-2 5 -7 4508.73 390.086 12
-2 5 -7 3847.53 323.293 18
2 -5 7 4792.4 526.612 23
-2 5 -7 4055.89 355.759 7
2 -5 7 4411.87 521.773 24
-2 5 -8 435.649 161.822 7
-2 5 -8 593.691 197.213 12
2 -5 8 472.082 246.079 23
-2 5 -8 644.791 162.887 18
2 -5 8 281.425 251.001 24
2 -5 9 9710.48 751.917 24
-2 5 -9 8792.54 527.121 12
-2 5 -9 8535.66 478.411 7
-2 5 -9 8503.51 482.497 18
2 -5 9 9110.61 721.031 23
2 -5 10 7280.7 638.264 24
2 -5 10 7682.6 660.244 23
-2 5 -10 8533.34 501.845 12
-2 5 -10 8061.28 459.852 18
-2 5 -10 6336.28 381.841 7
2 -5 11 714.328 247.689 23
-2 5 -11 379.001 138.835 18
2 -5 11 155.871 204.504 24
-2 5 -11 515.656 151.935 12
-2 5 -12 1577.85 186.387 12
2 -5 12 1662.14 281.216 23
2 -5 12 1447.7 274.96 24
2 -5 13 589.084 168.17 24
-2 5 -13 829.721 120.169 12
2 -5 13 510.269 149.042 23
2 -4 -12 876.972 171.36 14
-2 4 12 811.436 123.442 24
-2 4 12 1232.82 154.088 22
-2 4 12 972.391 233.472 20
2 -4 -11 -9.77858 136.869 14
-2 4 11 101.554 207.36 20
2 -4 -11 98.4062 105.941 19
-2 4 11 152.88 95.7507 24
2 -4 -10 9186.29 606.013 14
2 -4 -10 10005.9 751.632 21
-2 4 10 9487.37 773.852 20
2 -4 -10 11581.1 556.374 19
-2 4 10 11410.7 522.935 24
2 -4 -9 5798.43 630.916 21
-2 4 9 6379.25 674.169 20
2 -4 -9 5966.88 437.831 19
2 -4 -9 5193.7 487.2 14
2 -4 -8 -4.43993 113.867 19
2 -4 -8 63.4676 127.854 11
-2 4 8 81.334 109.799 5
2 -4 -8 -177.629 310.512 21
2 -4 -8 -15.138 189.581 14
-2 4 8 157.43 222.202 20
2 -4 -7 15156.8 692.43 19
-2 4 7 14699.4 911.003 20
-2 4 7 14830.4 669.902 5
2 -4 -7 14030.7 951.277 21
-2 4 6 36179.6 1296.72 20
2 -4 -6 39242.7 1063.67 19
-2 4 6 37189.7 1003.96 5
2 -4 -6 36995.6 1422.39 21
-2 4 5 2584.43 338.147 20
-2 4 5 3082.97 292.657 5
2 -4 -5 3206.36 296.797 19
2 -4 -5 2990.65 409.146 21
2 -4 -5 2993.87 388.543 16
2 -4 -4 9729.7 403.06 17
2 -4 -4 10233.2 626.535 16
2 -4 -4 10417.8 482.642 19
-2 4 4 10367.9 457.003 2
-2 4 3 2057.48 211.855 2
2 -4 -3 2301.53 193.16 17
2 -4 -3 2380.95 299.47 16
2 -4 -3 2517.56 228.57 19
-2 4 2 829.639 139.486 2
2 -4 -2 810.585 116.826 17
2 -4 -2 689.291 155.596 16
2 -4 -2 998.373 147.78 19
2 -4 -1 44992.8 785.648 19
-2 4 1 43232.7 912.76 2
2 -4 -1 42378.3 704.782 17
2 -4 -1 42640 988.977 16
-2 4 1 44822.9 795.05 15
-2 4 0 29174.5 750.864 2
2 -4 0 27290.4 753.24 16
-2 4 0 28203.6 657.123 15
-2 4 -1 13456.2 517.138 2
2 -4 1 12498.7 500.211 16
-2 4 -1 13398.9 477.162 15
2 -4 2 5963.98 343.29 16
-2 4 -2 5954.04 356.564 2
-2 4 -2 6379.58 352.099 15
2 -4 3 4277.59 308.349 3
2 -4 3 4226.08 291.013 16
-2 4 -3 3637.62 286.151 15
2 -4 4 565.538 141.705 3
-2 4 -4 143.545 185.874 18
2 -4 4 377.797 108.947 16
-2 4 -4 354.252 129.146 15
2 -4 5 14899.3 598.098 3
-2 4 -5 16424.9 622.856 18
2 -4 5 14316.1 546.027 16
-2 4 -5 14979 654.324 15
2 -4 6 13162.5 599.305 3
-2 4 -6 13358.5 573.329 12
-2 4 -6 14342.1 607.83 18
2 -4 6 12922.6 738.99 24
2 -4 6 13711 777.782 23
2 -4 6 13127.1 537.894 16
-2 4 -6 13228.7 652.543 15
-2 4 -7 555.344 181.328 7
2 -4 7 813.936 246.148 23
2 -4 7 568.57 256.083 24
2 -4 7 472.287 174.088 3
-2 4 -7 548.076 161.681 18
-2 4 -7 1000.09 201.776 12
2 -4 7 899.475 175.71 16
-2 4 -7 664.004 211.498 15
2 -4 8 8904.81 673.568 23
-2 4 -8 8671.39 512.653 12
-2 4 -8 7877.95 448.976 7
2 -4 8 9175.79 561.595 3
2 -4 8 9266.1 691.161 24
-2 4 -8 9471.43 520.029 18
2 -4 9 3147.54 434.736 23
-2 4 -9 3367.13 340.312 12
-2 4 -9 3175.39 322.415 18
-2 4 -9 3249.03 303.387 7
2 -4 9 3200.64 436.852 24
2 -4 10 360.18 212.422 24
2 -4 10 450.322 222.916 23
-2 4 -10 472.376 167.723 12
-2 4 -10 486.11 152.342 18
-2 4 -10 431.138 154.572 7
2 -4 11 3941.93 466.539 24
2 -4 11 3759.92 460.015 23
-2 4 -11 4483.65 368.144 12
-2 4 -11 3837.97 336.889 18
2 -4 12 901.617 245.374 24
2 -4 12 859.186 232.285 23
-2 4 -12 1130.49 179.145 18
-2 4 -12 851.127 168.858 12
2 -4 13 1870.51 267.615 24
2 -4 13 1927.71 270.66 23
-2 4 -13 1747.35 187.835 12
2 -4 14 3249.17 266.329 24
-2 4 -14 3499.93 197.323 12
2 -3 -13 1914.28 213.667 14
2 -3 -12 1518.18 249.808 14
-2 3 12 1827.51 194.666 24
-2 3 12 2016.66 211.442 22
-2 3 12 1618.74 316.067 20
-2 3 11 2577.41 447.504 20
2 -3 -11 2424.79 259.31 19
-2 3 11 2762.95 278.195 24
2 -3 -11 3006.08 365.186 14
-2 3 10 647.723 278.577 20
2 -3 -10 589.349 169.303 19
2 -3 -10 649.926 162.825 11
-2 3 10 433.797 157.554 24
2 -3 -10 662.132 245.371 14
2 -3 -9 486.184 284.855 21
-2 3 9 1048.97 329.332 20
2 -3 -9 1177.98 216.287 19
2 -3 -9 761.67 210.982 11
2 -3 -9 926.489 281.406 14
-2 3 8 447.406 249.917 20
2 -3 -8 71.9112 248.234 21
2 -3 -8 200.598 140.768 19
2 -3 -8 442.989 177.797 11
2 -3 -8 280.906 186.538 14
2 -3 -7 16337.7 694 19
2 -3 -7 14590.9 652.658 6
2 -3 -7 16762.9 813.408 14
-2 3 7 14317.9 855.426 20
-2 3 7 14249.3 621.158 5
-2 3 7 14793.2 776.735 1
2 -3 -7 15072.8 956.297 21
-2 3 6 390.191 211.426 20
2 -3 -6 396.19 137.526 19
2 -3 -6 374.446 234.117 21
-2 3 6 474.43 185.725 1
2 -3 -6 216.178 91.2383 17
-2 3 5 1274.61 243.218 1
2 -3 -5 1426.75 193.737 19
2 -3 -5 1265.75 157.046 17
2 -3 -4 18207.1 774.66 16
2 -3 -4 19154.6 606.737 19
-2 3 4 18440.7 723.926 1
2 -3 -4 17610.1 489.449 17
-2 3 4 18593.3 531.644 2
-2 3 4 18932.5 539.887 15
-2 3 3 48.4502 95.3561 1
-2 3 3 88.006 61.2138 2
2 -3 -3 113.704 64.5373 17
2 -3 -3 45.082 104.484 16
2 -3 -3 86.3045 78.8928 19
-2 3 3 168.016 78.3218 15
2 -3 -2 3521.11 230.623 19
-2 3 2 2942.45 209.926 2
-2 3 2 3025.61 254.093 1
2 -3 -2 3143.04 177.575 17
2 -3 -2 3283.77 274.586 16
-2 3 2 3277.46 214.344 15
2 -3 -1 46536.4 622.823 17
2 -3 -1 47045.4 917.891 16
-2 3 1 46759.6 810.471 2
-2 3 1 47598.7 779.789 15
-2 3 0 28.7746 59.2228 2
2 -3 0 83.3057 79.9383 16
-2 3 0 14.1087 65.044 15
-2 3 -1 10436.9 394.621 2
2 -3 1 10097.1 386.126 16
-2 3 -1 10625.7 388.911 15
2 -3 2 2001.66 174.707 16
-2 3 -2 2081.69 192.832 15
2 -3 2 2255.3 202.867 3
2 -3 3 13318.4 479.25 3
2 -3 3 13692.7 436.817 16
-2 3 -3 13261.3 485.346 15
2 -3 4 30742.1 757.38 3
2 -3 4 31312.1 672.593 16
-2 3 -4 30303.8 783.244 15
2 -3 5 1342.07 180.796 4
2 -3 5 1460.18 195.887 3
-2 3 -5 1926.63 280.479 18
2 -3 5 1421.39 158.165 16
-2 3 -5 1644.3 215.557 15
2 -3 6 249.292 129.015 3
2 -3 6 9.89916 71.6124 16
-2 3 -6 -69.1007 147.417 18
-2 3 -6 71.8972 105.92 15
2 -3 7 220.484 129.813 3
2 -3 7 177 95.6613 16
-2 3 -7 256.885 144.011 15
2 -3 8 11470.9 709.662 23
2 -3 8 12091.9 710.386 24
-2 3 -8 11094.2 547.749 12
2 -3 8 11171.9 608.376 3
-2 3 -8 11366.4 576.57 18
-2 3 -8 11897 656.096 15
2 -3 9 2032.35 342.433 23
2 -3 9 2488.79 341.734 3
-2 3 -9 2110.06 274.867 12
2 -3 9 2071.78 349.818 24
-2 3 -9 2076.13 267.174 18
2 -3 10 377.584 208.436 24
2 -3 10 772.695 246.729 23
-2 3 -10 676.813 196.204 12
-2 3 -10 670.253 169.338 18
2 -3 11 532.23 232.46 24
2 -3 11 557.619 221.98 23
-2 3 -11 814.391 197.895 12
-2 3 -11 560.614 160.231 18
-2 3 -12 465.976 158.607 12
2 -3 12 400.08 197.11 24
2 -3 12 328.559 199.689 23
-2 3 -12 471.225 145.099 18
2 -3 13 70.5249 159.578 24
-2 3 -13 108.765 95.4426 12
-2 3 -13 187.708 106.776 18
-2 3 -14 1401.36 160.656 12
2 -3 14 1438.95 216.36 24
-2 2 13 347.228 98.6136 24
2 -2 -13 483.219 160.626 14
-2 2 12 4073.85 321.155 24
-2 2 12 4152.12 304.972 22
-2 2 12 3823.65 459.957 20
2 -2 -12 4115.85 409.766 14
2 -2 -12 3960.28 284.821 19
-2 2 11 5582.31 410.427 24
-2 2 11 4465.63 357.378 22
-2 2 11 4778.54 568.361 20
2 -2 -11 5972.35 396.547 19
2 -2 -11 5993.77 533.999 14
-2 2 10 18.4174 119.603 24
-2 2 10 527.747 283.305 20
2 -2 -10 -12.4071 107.515 19
2 -2 -10 192.095 138.559 11
2 -2 -10 166.672 185.648 14
2 -2 -9 3342.19 425.172 14
2 -2 -9 3882.78 549.847 21
-2 2 9 4184.95 536.589 20
2 -2 -9 3561.53 340.821 19
2 -2 -9 3493.74 338.486 11
2 -2 -8 19752.9 911.972 14
-2 2 8 19884.3 1029.37 20
2 -2 -8 19851.6 761.356 19
2 -2 -8 17944.9 726.573 11
2 -2 -8 17495.1 1060.76 21
-2 2 8 18630.8 865.07 1
2 -2 -7 2947.51 356.299 14
-2 2 7 2559.47 322.537 1
2 -2 -7 3058.62 299.785 19
2 -2 -7 2646.34 423.494 21
-2 2 7 2164.48 369.283 20
2 -2 -7 2933.76 267.34 17
2 -2 -7 2962.34 307.669 11
2 -2 -6 1816.29 219.744 19
2 -2 -6 1688.48 187.463 17
-2 2 6 2085.92 282.294 1
2 -2 -5 19473.3 616.335 19
2 -2 -5 19537.1 532.257 17
-2 2 5 19534 753.159 1
2 -2 -4 5228.06 297.927 19
2 -2 -4 5572.94 257.964 17
-2 2 4 5610.02 250.042 2
-2 2 4 4827.69 358.867 1
2 -2 -3 8482.96 345.188 19
2 -2 -3 8702.32 286.154 17
2 -2 -3 8165.52 445.294 16
-2 2 3 8688.28 426.885 1
-2 2 3 8441.08 294.707 2
-2 2 2 4648.63 215.727 2
2 -2 -2 4440.7 181.458 17
2 -2 -2 4428.2 299.584 16
-2 2 2 4274.2 277.433 1
-2 2 1 36142 588.637 2
2 -2 -1 35409 436.069 17
2 -2 -1 36486.8 727.18 16
-2 2 1 34165.2 677.666 1
-2 2 1 35306.8 643.427 15
-2 2 0 7905.94 280.026 2
-2 2 0 7766.13 282.985 1
2 -2 0 8182.38 314.104 16
-2 2 0 7982.75 306.965 15
2 -2 1 2091.86 176.217 3
2 -2 1 2088.52 155.499 16
-2 2 -1 2066.2 167.775 15
2 -2 2 389.528 95.9526 3
2 -2 2 438.789 85.208 16
-2 2 -2 360.571 91.5513 15
-2 2 -3 15135.8 468.512 15
2 -2 3 14824.1 459.564 3
2 -2 3 15067.4 376.369 16
2 -2 4 69465.1 1055.41 3
2 -2 4 72643.1 845.232 16
-2 2 -4 71800.8 1088.87 15
2 -2 5 910.906 138.388 4
2 -2 5 889.89 153.202 3
-2 2 -5 1066.16 282.152 18
2 -2 5 1164.22 124.108 16
-2 2 -5 1022.1 161.568 15
-2 2 -6 1603.35 279.454 18
2 -2 6 1591.43 206.919 3
2 -2 6 1611.07 149.942 16
-2 2 -6 1750.27 220.917 15
2 -2 7 3404.57 320.232 3
-2 2 -7 3223.83 318.004 18
-2 2 -7 2994.89 299.54 15
-2 2 -8 -125.65 162.457 18
-2 2 -8 42.6358 109.63 15
2 -2 9 -402.715 227.649 23
-2 2 -9 93.9358 119.644 12
2 -2 9 129.956 143.35 3
-2 2 -9 91.4788 108.714 18
2 -2 9 17.8877 157.385 24
2 -2 9 0.8534 133.572 22
-2 2 -9 174.484 160.843 15
2 -2 10 9489.06 650.67 23
2 -2 10 8716.61 580.464 22
2 -2 10 8494.81 597.784 24
-2 2 -10 8731.16 505.259 12
-2 2 -10 8431.77 507.041 18
2 -2 11 24078.2 1006.02 24
2 -2 11 23904.6 1008.71 23
-2 2 -11 24912.5 844.924 12
-2 2 -11 25010.7 866.94 18
2 -2 12 4634.1 450.043 24
-2 2 -12 5316.84 389.903 12
-2 2 -12 4919.9 378.401 18
2 -2 13 3640.54 373.418 24
-2 2 -13 4250.26 323.984 12
-2 2 -13 4409.93 330.82 18
-2 2 -14 245.638 105.353 12
2 -2 14 261.27 149.08 24
-2 2 -15 1871.48 151.838 12
2 -1 -14 3287.81 258.626 14
2 -1 -13 2358.34 301.089 14
-2 1 13 2394.61 236.151 24
-2 1 12 2539.8 280.035 24
2 -1 -12 2259.04 236.838 19
2 -1 -12 2419.38 355.589 14
2 -1 -11 268.223 205.537 14
-2 1 11 228.74 128.73 24
2 -1 -11 255.369 109.199 19
2 -1 -10 1361.47 301.414 14
-2 1 10 1752.59 420.111 20
2 -1 -10 1367.11 242.22 11
2 -1 -10 1463.02 222.26 19
-2 1 10 1228.2 232.49 24
2 -1 -9 13195.6 788.602 14
-2 1 9 14184.4 903.157 20
2 -1 -9 11882.2 574.184 19
2 -1 -9 12429.2 623.391 11
-2 1 9 13899.3 667.529 24
-2 1 8 3484.67 461.759 20
2 -1 -8 3385.03 515.514 21
2 -1 -8 3866.37 326.126 19
2 -1 -8 3781.68 354.47 11
2 -1 -8 3526.5 419.734 14
2 -1 -8 3706.98 329.804 17
-2 1 8 3580.33 387.737 1
2 -1 -7 11745.5 486.944 18
2 -1 -7 12094.9 535.059 19
2 -1 -7 11485.5 505.804 17
-2 1 7 11055.8 627.919 1
2 -1 -6 28271.6 751.124 19
2 -1 -6 28488.7 703.834 18
2 -1 -6 27612.5 701.806 17
-2 1 6 26703.9 905.703 1
2 -1 -5 11327 439.187 19
2 -1 -5 11949.6 420.769 18
-2 1 5 11401.5 560.075 1
2 -1 -5 10869.8 398.04 17
2 -1 -4 15287.8 414.755 17
2 -1 -4 14988.9 460.046 19
-2 1 4 14789.3 588.229 1
-2 1 3 10022.2 442.627 1
2 -1 -3 9924.65 284.917 17
-2 1 3 10784.6 247.6 2
-2 1 2 3599.67 249.041 1
2 -1 -2 3237.52 137.756 17
2 -1 -2 3291.28 254.397 16
-2 1 2 3319.41 136.213 2
-2 1 1 9836.6 238.391 2
-2 1 1 10321.6 355.761 1
2 -1 -1 10214.1 184.544 17
2 -1 -1 9815.75 361.771 16
2 -1 0 29685.3 527.691 16
-2 1 0 30040.4 550.486 15
-2 1 0 29714.4 490.308 1
-2 1 -1 5740.14 166.049 1
2 -1 1 6138.59 258.28 3
2 -1 1 5938.41 210.324 16
-2 1 -1 6027.95 252.875 15
2 -1 2 31301.8 580.641 3
2 -1 2 32862.3 441.756 16
-2 1 -2 32867.1 590.8 15
2 -1 3 14843.1 423.317 3
2 -1 3 15645.7 294.862 16
-2 1 -3 15384.8 432.392 15
2 -1 4 18538.3 519.613 3
-2 1 -4 18213.6 443.333 17
2 -1 4 19368.8 343.282 16
-2 1 -4 18346.4 507.019 15
2 -1 5 890.675 146.657 3
2 -1 5 916.449 90.7913 16
-2 1 -5 814.546 128.352 17
-2 1 -5 772.041 131.378 15
2 -1 6 5943.49 366.884 3
-2 1 -6 5835.19 332.957 17
2 -1 6 5977.7 233.834 16
-2 1 -6 5664.42 348.274 15
2 -1 7 1556.31 225.327 3
-2 1 -7 1581.95 240.282 18
-2 1 -7 1694.9 207.528 17
-2 1 -7 1457.88 208.838 15
2 -1 8 4821.63 398.486 3
-2 1 -8 5265.92 379.097 18
-2 1 -8 5414.69 391.395 17
-2 1 -8 5225.65 392.362 15
2 -1 9 1123.87 231.069 24
2 -1 9 1059.53 282.275 13
2 -1 9 858.827 201.45 22
-2 1 -9 558.008 128.368 19
2 -1 9 648.889 185.939 3
-2 1 -9 272.94 160.115 18
-2 1 -9 845.862 195.392 17
-2 1 -9 609.614 188.611 15
2 -1 10 7865.87 525.947 24
-2 1 -10 8572.7 479.465 12
2 -1 10 7219.8 524.97 3
-2 1 -10 8299.54 490.409 18
-2 1 -10 7235.22 516.408 17
2 -1 10 8977.03 586.09 22
-2 1 -10 7831.64 509.467 15
-2 1 -11 13950.5 626.331 12
2 -1 11 13927 713.773 24
-2 1 -11 14138.5 635.325 18
2 -1 11 13550.4 727.882 22
2 -1 12 2748.22 343.079 24
2 -1 12 2179.55 319.772 22
-2 1 -12 2487.39 274.624 12
-2 1 -12 2598.65 279.482 18
2 -1 13 1245.09 230.085 24
-2 1 -13 1522.39 209.942 18
-2 1 -13 1172.21 189.296 12
2 -1 14 4474.43 333.839 24
-2 1 -14 5399.6 325.45 12
-2 1 -15 299.762 85.6535 12
2 0 -14 1562.95 203.39 14
-2 0 14 1739.78 173.652 24
2 0 -14 1470.12 134.532 7
-2 0 13 484.272 146.429 24
2 0 -13 842.173 122.86 12
2 0 -13 390.938 163.862 14
2 0 -12 3587.61 430.764 14
-2 0 12 3991.73 353.024 24
-2 0 11 2365.5 305.367 24
2 0 -11 2350.03 378.146 14
-2 0 10 3165.43 339.094 24
2 0 -10 2431.02 396.532 14
2 0 -10 2729.37 270.576 19
2 0 -10 2585.86 279.347 18
2 0 -9 471.523 199.579 14
-2 0 9 402.77 157.241 24
2 0 -9 312.48 126.573 19
2 0 -9 279.796 157.405 11
2 0 -9 365.846 144.856 18
2 0 -9 13.7632 174.601 17
-2 0 8 10612.3 551.437 24
2 0 -8 8802.46 513.842 11
-2 0 8 9497.64 607.861 1
2 0 -8 9996.81 484.682 19
2 0 -8 10778.4 523.36 18
2 0 -8 11211.4 701.578 14
2 0 -8 10006 539.464 17
2 0 -7 2353.93 243.54 18
2 0 -7 2465.46 237.197 19
-2 0 7 2356.11 316.125 1
2 0 -7 2483.44 258.619 17
2 0 -6 456.038 119.116 19
2 0 -6 712.038 140.243 18
2 0 -6 892.082 156.217 17
-2 0 6 701.101 184.942 1
-2 0 5 3769.01 328.065 1
2 0 -5 4152.89 257.89 19
2 0 -5 3675.79 250.749 18
2 0 -5 3684.61 249.91 17
-2 0 4 5094.45 345.963 1
2 0 -4 4979.21 251.759 17
2 0 -3 1705.85 130.29 17
-2 0 3 1688.07 195.075 1
-2 0 2 8227.98 354.838 1
2 0 -2 8534.96 222.668 17
-2 0 1 46816.4 281.8 2
2 0 -1 48338.7 362.711 17
-2 0 0 410907 1813.08 1
-2 0 -1 8095.13 205.791 1
2 0 1 7805.81 259.842 3
2 0 1 8379.48 222.78 16
-2 0 -1 7596.95 262.033 15
2 0 2 2836.35 166.216 3
-2 0 -2 2438.97 77.9919 1
-2 0 -2 2782.21 98.2574 17
2 0 2 2852.04 96.631 16
-2 0 -2 2751.61 163.316 15
2 0 3 29432.9 556.628 3
-2 0 -3 28660.1 412.362 17
-2 0 -3 28988.7 530.219 15
2 0 4 6541.41 300.058 3
-2 0 -4 6321.54 240.492 17
2 0 4 6190.7 130.372 16
-2 0 -4 6216.56 268.461 15
2 0 5 25285.6 652.815 3
-2 0 -5 25539.9 547.727 17
2 0 5 26993.5 332.61 16
-2 0 -5 25433.2 591.691 15
2 0 6 7695.82 405.702 3
-2 0 -6 7620.49 344.393 17
-2 0 -6 7412.07 357.153 15
-2 0 -7 1368.76 219.975 18
-2 0 -7 1070.36 156.946 17
2 0 7 1211.57 195.523 3
-2 0 -7 1152.13 171.576 15
-2 0 -8 12783 551.258 18
-2 0 -8 11930.5 534.435 17
2 0 8 12401.2 603.385 3
-2 0 -8 11158.1 517.071 15
2 0 9 6064.28 457.762 3
-2 0 -9 6191.9 406.083 18
-2 0 -9 6027.92 365.548 19
-2 0 -9 6521 433.578 17
2 0 9 6178.39 452.65 22
-2 0 -9 5915.6 402.71 15
2 0 10 16198.2 759.651 22
-2 0 -10 16009.6 605.432 19
2 0 10 16694 779.088 3
-2 0 -10 16303.1 647.531 18
2 0 10 16935.5 729.862 13
-2 0 -10 17110.2 742.329 17
2 0 11 26898.8 904.348 24
2 0 11 27945.7 935.971 13
2 0 11 26891.3 1013.27 22
-2 0 -11 26753.6 831.249 18
-2 0 -11 27749.3 795.94 19
2 0 12 97.7347 139.747 22
-2 0 -12 181.709 136.184 12
-2 0 -12 -15.4479 91.5626 19
-2 0 -12 13.1561 97.7643 18
-2 0 -13 2403.06 256.927 12
2 0 13 2636.71 321.577 22
2 0 14 4878.83 376.898 22
-2 0 -14 5386.24 323.728 12
-2 0 -15 337.359 90.5533 12
2 1 -14 1669.51 145.42 7
-2 -1 14 1640.78 173.848 24
2 1 -13 1844.95 286.61 14
-2 -1 13 1745.21 227.243 24
-2 -1 12 796.497 189.439 24
2 1 -12 744.307 140.374 12
2 1 -12 582.951 143.918 18
2 1 -12 854.304 249.126 14
2 1 -11 27.1727 221.206 14
-2 -1 11 122.173 149.653 24
2 1 -11 215.893 124.664 18
-2 -1 10 3424.71 359.4 24
2 1 -10 3068.9 440.689 14
2 1 -10 3379.33 327.589 18
2 1 -9 17624.6 957.572 14
-2 -1 9 19653.2 787.533 24
2 1 -9 18958.1 748.357 18
2 1 -8 14095.2 645.987 11
2 1 -8 15465.7 845.171 14
2 1 -8 16178.7 571.303 19
-2 -1 8 15425.8 662.08 24
2 1 -8 15403.1 653.369 18
2 1 -8 13532.2 661.2 17
-2 -1 8 14045.5 745.054 1
-2 -1 7 11829.2 658.212 1
2 1 -7 12591.2 480.201 19
2 1 -7 12799.8 564.508 18
2 1 -7 11546.3 571.055 17
2 1 -6 1144.24 153.053 19
2 1 -6 1138.63 179.052 18
-2 -1 6 903.821 199.261 1
2 1 -6 1120.3 182.29 17
2 1 -5 5847.65 326.02 18
2 1 -5 6657.32 300.759 19
2 1 -5 5468.86 330.295 17
-2 -1 5 5582.67 394.407 1
2 1 -4 51.6689 74.7389 18
-2 -1 4 83.5049 103.054 1
2 1 -4 -4.09229 73.1835 17
-2 -1 3 8015.16 381.129 1
2 1 -3 7360.33 288.416 17
-2 -1 2 39855.4 740.369 1
-2 -1 1 27438.6 548.821 1
-2 -1 0 152149 1125.36 1
2 1 1 999999 2498.74 3
2 1 2 33764.7 488.477 3
-2 -1 -2 34242 380.546 17
-2 -1 -2 34737.1 501.843 15
2 1 3 21359.7 444.776 3
-2 -1 -3 20776.2 358.359 17
-2 -1 -3 20538.9 396.494 15
2 1 4 29255.9 601.68 3
-2 -1 -4 29434.6 498.494 17
-2 -1 -4 28134.5 501.655 15
2 1 5 1492.86 168.04 3
-2 -1 -5 1369.08 136.269 17
-2 -1 -5 1352.08 133.253 15
2 1 6 12262.2 494.449 3
-2 -1 -6 12821 426.832 17
-2 -1 -6 11919.7 410.841 15
2 1 7 15039.1 598.476 3
-2 -1 -7 16003.9 559.924 18
-2 -1 -7 14840.3 514.885 17
-2 -1 -7 14185.8 490.115 15
-2 -1 -8 4109.31 300.045 18
2 1 8 3734.89 335.414 3
-2 -1 -8 3958.36 302.865 17
2 1 9 11381.4 604.937 3
2 1 9 12557.1 620.349 13
2 1 9 12497.5 618.757 22
-2 -1 -9 12669.5 515.968 18
-2 -1 -9 11142.2 513.323 19
-2 -1 -9 11541.7 553.782 17
-2 -1 -10 5197.15 369.169 19
2 1 10 4472.15 407.501 3
2 1 10 5528.05 437.957 13
-2 -1 -10 5153.92 342.932 18
-2 -1 -10 5195.7 406.764 17
2 1 10 4822.01 424.407 22
2 1 11 2128.73 298.053 13
2 1 11 2205.71 315.822 22
-2 -1 -11 1786.86 227.84 19
2 1 12 1621.99 253.957 13
2 1 12 1661.61 275.851 22
-2 -1 -12 1842.36 227.115 19
-2 -1 -13 1528.64 202.583 19
-2 -1 -13 1152.2 182.088 12
2 1 13 1284.82 240.85 22
2 1 14 1288.84 212.166 22
-2 -1 -14 1071.01 162.051 12
-2 -1 -15 560.735 101.227 12
-2 -2 14 182.343 95.4291 24
-2 -2 13 5964.73 384.009 24
2 2 -13 6356.69 338.169 7
2 2 -13 5756.83 447.796 14
2 2 -12 3805.64 442.617 14
-2 -2 12 4014.33 366.632 24
2 2 -12 3670.27 295.999 18
-2 -2 11 403.414 163.018 24
2 2 -11 99.3801 117.196 18
2 2 -11 361.663 236.377 14
-2 -2 10 682.278 192.547 24
2 2 -10 890.218 300.223 14
2 2 -10 633.154 172.767 18
2 2 -9 35680.5 1392.45 14
2 2 -9 35060.9 1042.8 18
-2 -2 9 34573.5 1062.81 24
2 2 -8 536.6 245.082 14
2 2 -8 665.829 169.301 18
-2 -2 8 547.864 229.848 1
-2 -2 8 911.796 190.372 24
-2 -2 7 72.9596 133.721 1
2 2 -7 -78.576 103.827 18
-2 -2 6 894.938 194.671 1
2 2 -6 958.42 167.735 18
2 2 -5 304.5 104.424 18
-2 -2 5 439.148 139.634 1
-2 -2 4 23347.1 719.722 1
2 2 -4 23774.8 613.937 18
-2 -2 3 43325.3 891.607 1
-2 -2 2 3343.41 236.382 1
2 2 -2 2929.93 79.4162 2
-2 -2 1 2768.41 197.913 1
2 2 -1 2911.26 104.951 2
2 2 0 8279.76 212.345 2
2 2 1 23226.2 301.688 3
2 2 1 23522.3 415.835 2
-2 -2 -1 22789.8 287.286 16
2 2 2 41123.8 463.793 3
-2 -2 -2 41564.9 518.43 17
2 2 2 42827.4 641.077 2
-2 -2 -2 39799 317.699 16
-2 -2 -2 41265.1 484.47 15
2 2 3 89.9995 70.8978 2
2 2 3 118.899 51.7355 3
-2 -2 -3 77.3895 51.4592 17
-2 -2 -3 151.518 43.4346 15
2 2 4 77.4798 76.3381 2
2 2 4 80.057 55.5837 3
-2 -2 -4 85.1437 54.8221 17
-2 -2 -4 105.246 50.0002 15
2 2 5 2789.52 214.474 3
2 2 5 3092.81 248.268 2
-2 -2 -5 3283.42 208.565 17
2 2 6 12311 483.509 3
2 2 6 11678.1 509.557 2
-2 -2 -6 12179.6 432.769 17
2 2 7 1167.02 185.736 3
-2 -2 -7 1128.35 158.274 17
2 2 8 3608.78 322.328 3
-2 -2 -8 3240.62 277.837 17
2 2 9 7790.92 496.098 22
2 2 9 8114.66 499.568 3
2 2 9 8283.2 524.742 13
-2 -2 -9 8341.77 471.987 17
-2 -2 -9 8205.08 460.784 19
2 2 10 12453.5 659.039 22
-2 -2 -10 12663.2 588.257 19
2 2 10 12496.1 643.946 3
-2 -2 -10 11845.4 607.025 17
2 2 10 13550 691.865 13
2 2 11 125.758 139.152 22
-2 -2 -11 48.1861 100.272 19
2 2 11 77.7605 146.863 13
2 2 12 2600.23 330.535 22
-2 -2 -12 2556.08 271.789 19
2 2 12 2476.76 303.116 13
-2 -2 -13 123.354 102.098 19
2 2 13 47.853 114.958 22
2 2 14 217.684 115.661 22
-2 -2 -14 208.103 92.8355 12
2 2 15 738.944 132.175 22
-2 -2 -15 682.214 97.2743 12
-2 -3 13 568.731 145.276 24
2 3 -13 565.709 122.79 7
2 3 -12 617.863 155.503 7
2 3 -12 610.545 136.328 18
-2 -3 12 499.435 167.605 24
2 3 -11 2619.35 289.333 18
-2 -3 11 3046.26 344 23
-2 -3 11 2547.09 315.248 24
2 3 -11 2655.58 392.409 14
2 3 -10 23662.3 1166.17 14
-2 -3 10 21960.9 886.38 24
2 3 -10 23300 851.858 18
2 3 -9 13795.3 905.7 14
2 3 -9 13210.5 649.446 18
-2 -3 9 12468.5 667.071 24
-2 -3 8 1851.29 269.306 24
2 3 -8 1448.64 312.101 14
2 3 -8 1518.34 241.345 18
-2 -3 8 1574.19 301.071 1
2 3 -7 11607.1 763.583 14
-2 -3 7 12024 586.894 24
2 3 -7 12321.2 596.248 18
-2 -3 7 10997.6 650.074 1
-2 -3 6 972.123 222.85 1
2 3 -6 968.062 176.785 18
2 3 -5 668.632 138.031 18
-2 -3 5 853.97 187.539 1
2 3 -4 23035.8 639.981 18
-2 -3 4 22650.7 749.672 1
2 3 -3 9892.37 380.734 18
-2 -3 3 9824.27 463.065 1
2 3 -2 1041.71 88.4565 2
-2 -3 2 936.011 158.585 1
2 3 -1 22895.2 406.15 2
-2 -3 0 4539.28 191.35 16
2 3 0 4393.64 194.773 2
2 3 1 156.981 65.5739 2
-2 -3 -1 111.476 46.9663 16
2 3 2 326.451 79.8962 2
-2 -3 -2 492.551 83.4671 17
-2 -3 -2 500.188 64.625 16
2 3 3 953.855 83.5203 3
-2 -3 -3 998.177 112.935 17
2 3 3 936.451 129.585 2
-2 -3 -4 3718.26 220.896 17
2 3 4 3583.76 253.273 2
2 3 4 3750.91 197.844 3
2 3 5 24128.5 703.958 2
2 3 5 25973.4 595.348 3
-2 -3 -5 25316.9 614.378 17
2 3 6 14190.1 502.78 3
2 3 6 14691.9 599.298 2
-2 -3 -6 14751.1 513.452 17
2 3 7 6745.45 388.773 3
2 3 7 6588.51 437.301 2
-2 -3 -7 7051.75 387.755 17
2 3 8 12518.8 624.712 13
2 3 8 11539.1 890.401 20
2 3 8 11929.8 551.206 3
-2 -3 -8 12178.1 542.947 17
-2 -3 -8 11757 535.829 19
2 3 9 -44.6767 122.975 22
2 3 9 0.83408 138.924 13
2 3 9 -119.986 160.416 3
-2 -3 -9 7.89299 100.507 19
-2 -3 -9 -19.5307 112.429 17
2 3 9 -58.5678 188.275 8
2 3 10 141.928 137.206 22
2 3 10 34.8783 146.484 13
-2 -3 -10 -108.372 129.901 19
2 3 11 1498.67 260.927 13
2 3 11 897.946 218.386 22
-2 -3 -11 1038.73 192.88 19
2 3 12 8976.15 551.563 22
-2 -3 -12 8128.19 461.343 19
2 3 12 8933.53 543.827 13
2 3 13 2160.69 271.05 22
-2 -3 -13 2687.11 247.948 19
2 3 13 2396.5 262.501 13
2 3 14 4077.14 305.728 22
-2 -3 -14 3602.08 214.912 12
-2 -4 13 1625.14 181.242 24
2 4 -13 1693.79 152.973 7
-2 -4 12 168.405 108.676 23
2 4 -12 36.7567 94.6593 7
-2 -4 12 52.0137 125.89 24
-2 -4 11 6091.96 451.646 24
-2 -4 11 7022.55 487.87 23
2 4 -11 6040.12 393.013 18
2 4 -11 6531.38 412.151 7
-2 -4 10 763.808 200.597 24
-2 -4 10 763.274 224.623 23
2 4 -10 783.271 191.061 7
2 4 -10 641.297 168.269 18
2 4 -9 14061.7 665.519 18
-2 -4 9 13286.1 698.444 24
2 4 -9 14992.2 682.567 7
-2 -4 8 328.154 166.556 24
2 4 -8 302.521 157.343 18
2 4 -8 309.663 221.866 14
2 4 -7 1015.59 296.445 14
2 4 -7 1888.9 257.338 18
-2 -4 7 1842.43 301.31 1
-2 -4 7 1751.82 271.237 24
2 4 -6 262.097 204.868 14
2 4 -6 381.048 138.627 18
-2 -4 6 358.964 162.569 1
2 4 -5 4176.98 322.397 18
-2 -4 5 3478.85 353.609 1
-2 -4 4 79.5237 120.641 1
2 4 -4 19.4155 81.4358 18
-2 -4 4 38.7743 78.6059 16
-2 -4 3 249.719 128.853 1
2 4 -3 136.884 80.2866 18
-2 -4 3 274.297 96.8981 16
2 4 -2 14651 441.48 18
-2 -4 2 14984 474.623 16
2 4 -2 14007.1 380.945 2
2 4 -1 288.146 75.8298 2
-2 -4 1 338.754 83.8606 16
-2 -4 0 2148.6 163.317 16
2 4 0 2211.46 170.717 2
-2 -4 -1 14929.8 388.481 16
2 4 1 14402.2 438.363 2
-2 -4 -2 20943.6 452.306 16
2 4 2 20372.7 556.178 2
-2 -4 -3 32043.9 674.347 17
2 4 3 31908.9 741.054 2
-2 -4 -4 2262.15 197.573 17
2 4 4 2016.71 211.669 2
2 4 5 85.7925 85.1322 2
-2 -4 -5 -43.2611 83.0719 17
-2 -4 -6 2272.54 224.63 19
2 4 6 2176.06 261.46 2
-2 -4 -6 2571.12 246.469 17
2 4 7 1121.75 418.327 20
2 4 7 807.711 177.705 2
2 4 7 1250.38 226.399 13
-2 -4 -7 947.057 162.987 17
-2 -4 -7 1023.86 172.171 19
-2 -4 -8 15456.5 628.382 19
2 4 8 14149.4 1003.68 20
2 4 8 13826.7 697.4 2
-2 -4 -8 16089.5 648.012 17
2 4 8 14675.9 707.83 13
2 4 8 14684 686.038 8
2 4 9 921.623 233.99 8
2 4 9 362.898 180.524 13
2 4 9 495.752 290.199 20
-2 -4 -9 464.228 141.882 19
-2 -4 -10 20419.5 860.395 14
2 4 10 20194.3 874.679 13
2 4 10 18605 780.871 22
-2 -4 -10 18705.3 721.816 19
-2 -4 -11 397.027 167.874 14
2 4 11 500.501 168.391 13
2 4 11 326.227 154.189 22
-2 -4 -11 596.8 153.408 19
2 4 12 158.559 126.086 22
2 4 12 435.108 156.048 13
-2 -4 -12 303.173 119.782 19
2 4 13 152.068 117.197 22
2 4 13 75.0187 103.594 13
-2 -4 -13 94.6015 112.129 19
2 4 14 -133.286 81.1304 22
-2 -5 12 158.572 125.591 24
-2 -5 12 -9.03881 92.545 23
2 5 -12 101.087 72.4164 7
-2 -5 11 843.853 184.808 24
2 5 -11 1272.7 189.967 7
2 5 -11 1177.77 199.228 18
-2 -5 10 2468.3 316.315 24
2 5 -10 2923.03 292.699 7
2 5 -10 2794.86 278.277 18
-2 -5 9 2631.09 334.581 24
2 5 -9 3127.24 323.831 7
-2 -5 9 3130.18 395.4 23
2 5 -9 3109.02 315.609 18
-2 -5 8 1067.71 252.406 24
2 5 -8 1241.12 236.029 7
2 5 -8 1346.04 223.042 18
2 5 -7 1774.9 269.558 7
2 5 -7 1585.86 238.239 18
-2 -5 6 2469.59 361.778 1
2 5 -6 2488.26 303.501 7
2 5 -6 2716.33 290.728 18
-2 -5 6 2796.45 304.443 16
2 5 -5 4094.63 344.257 7
2 5 -5 3973.38 329.273 18
2 5 -5 3729.1 331.683 9
-2 -5 5 3903.24 344.248 16
-2 -5 5 3294.2 375.001 1
2 5 -4 4761.72 327.313 18
-2 -5 4 4480.04 404.343 1
-2 -5 4 4655.6 343.887 16
2 5 -3 4158.11 279.828 18
-2 -5 3 3269.16 337.496 1
-2 -5 3 3676.54 290.971 16
-2 -5 2 20514.9 623.632 16
-2 -5 1 22276.5 609.678 16
2 5 -1 21917.2 592.545 2
-2 -5 0 6805.7 326.93 16
2 5 0 7272.19 350.556 2
-2 -5 -1 6162.5 300.7 16
2 5 1 5801.81 327.388 2
-2 -5 -2 2585.72 219.664 17
2 5 2 2471.3 229.781 2
-2 -5 -3 9304.62 412.671 17
2 5 3 8688.77 435.742 2
-2 -5 -4 5707.43 337.73 17
2 5 4 5204.4 360.851 2
-2 -5 -5 10960.6 454.423 19
-2 -5 -5 10533.8 478.88 17
2 5 5 10531.2 534.828 2
2 5 6 7295.93 706.142 20
-2 -5 -6 7088.93 394.828 19
2 5 6 7580.02 427.648 5
-2 -5 -6 7252.06 423.688 17
2 5 6 7046.26 473.336 2
2 5 6 7668.52 491.963 8
2 5 7 12274.6 923.781 20
-2 -5 -7 12416.8 549.548 19
2 5 7 11859.8 560.215 5
2 5 7 12173.6 642.863 2
-2 -5 -7 12396.8 576.225 17
2 5 7 12548.3 643.466 8
2 5 8 794.123 211.097 13
-2 -5 -8 712.441 165.148 19
2 5 8 684.863 201.744 8
2 5 9 3175.62 366.072 13
-2 -5 -9 3382.72 315.109 19
2 5 10 3027.7 316.792 22
-2 -5 -10 2509.59 271.543 19
2 5 10 2924.48 346.67 13
-2 -5 -11 2941.65 320.852 14
2 5 11 2198.91 283.391 13
2 5 11 2393.89 268.203 22
-2 -5 -11 2676.82 264.519 19
-2 -5 -12 264.832 138.383 14
2 5 12 204.971 112.153 22
2 5 12 92.3006 116.889 13
-2 -5 -12 201.175 98.3973 19
2 5 13 994.414 142.485 22
2 5 13 978.575 148.116 13
-2 -6 11 693.516 151.45 23
2 6 -11 547.141 118.322 7
-2 -6 10 -19.2098 129.541 23
2 6 -10 -128.075 123.622 7
2 6 -9 206.711 111.984 18
-2 -6 9 22.8954 128.922 23
2 6 -9 -57.8016 117.391 7
-2 -6 8 3883.83 438.072 23
2 6 -8 4221.84 372.882 7
2 6 -8 3745.14 323.102 18
2 6 -7 5165.31 416.821 7
2 6 -7 4942.56 376.105 18
2 6 -7 5270.03 382.633 8
2 6 -6 15613 691.609 7
2 6 -6 15460.3 674.608 8
2 6 -6 14850.1 626.049 18
2 6 -5 8848.56 532.496 8
2 6 -5 8846.52 511.153 7
2 6 -4 13130.3 588.289 7
2 6 -4 13913.1 655.568 8
2 6 -4 13433.3 600.569 9
-2 -6 4 12326.2 692.963 1
-2 -6 4 12244.4 587.25 16
2 6 -3 428.821 161.028 8
2 6 -3 592.044 197.016 7
-2 -6 3 451.165 190.54 1
2 6 -3 16.4413 137.253 9
-2 -6 3 351.543 144.65 16
2 6 -2 1438.49 224.568 7
-2 -6 2 1637.95 261.71 1
2 6 -2 1538.14 245.326 8
2 6 -2 1156.25 201.757 9
-2 -6 2 1301.58 197.644 16
2 6 -1 672.021 177.978 8
-2 -6 1 683.19 147.124 16
2 6 0 367.727 127.515 2
2 6 0 486.958 166.306 8
2 6 0 396.216 156.675 9
-2 -6 0 386.129 136.358 16
2 6 1 740.634 180.363 8
2 6 1 826.004 155.393 2
2 6 1 976.525 206.319 9
2 6 2 23166.1 801.108 8
2 6 2 23278.7 776.479 9
2 6 2 21699 722.425 2
2 6 3 10946.8 570.492 8
-2 -6 -3 10213.6 478.244 17
2 6 3 10360.8 521.625 2
2 6 4 -27.7407 122.151 8
2 6 4 209.514 109.607 2
-2 -6 -4 76.9382 95.2443 17
2 6 5 1371.45 219.183 2
2 6 5 1419.2 244.96 8
2 6 5 1386.14 201.614 5
-2 -6 -5 1470.4 209.921 17
2 6 6 1206.6 220.281 8
2 6 6 1578.08 225.166 5
2 6 7 2262.81 304.762 13
2 6 7 2028.5 250 5
2 6 7 2600.63 323.17 8
2 6 8 34427.3 1123.93 13
-2 -6 -8 34554.6 901.525 19
2 6 8 34125.5 1009.43 8
2 6 9 2988.64 345.137 13
-2 -6 -9 3375.95 293.669 19
2 6 9 3697.38 316.936 22
2 6 10 45.2071 92.3511 22
2 6 10 -19.887 131.424 13
-2 -6 -10 30.1126 113.332 19
-2 -6 -11 1620.24 227.754 14
-2 -6 -11 1439.81 205.817 19
2 6 11 1450.68 220.907 13
2 6 11 1235.57 172.679 22
-2 -6 -12 1397.62 182.533 14
2 6 12 1415.52 180.691 13
2 6 12 1508.57 157.585 22
-2 -7 10 2779.17 265.408 23
2 7 -10 2619.1 201.046 7
2 7 -9 753.443 156.003 7
-2 -7 9 993.672 212.274 23
2 7 -8 8404.91 462.939 7
-2 -7 8 8796.48 572.214 23
2 7 -7 1157.51 200.468 8
2 7 -7 864.689 201.181 7
-2 -7 7 990.66 246.009 23
2 7 -6 1746.37 263.414 8
-2 -7 6 1993 315.406 23
2 7 -6 2006.98 276.744 7
2 7 -5 554.87 185.155 8
2 7 -5 346.532 176.369 7
-2 -7 5 340.801 204.215 23
2 7 -4 15807.3 742.363 8
-2 -7 4 16613.4 814.123 23
2 7 -4 16435 666.07 9
2 7 -3 1854.9 290.009 8
2 7 -3 1519.22 244.626 9
2 7 -2 19092.8 813.789 8
2 7 -2 19490.8 754.684 9
2 7 -1 1156.7 225.646 9
2 7 -1 1418.61 253.693 8
2 7 0 56.056 131.751 8
2 7 0 226.047 142.424 9
2 7 1 4374.6 386.369 8
2 7 1 4495.61 368.239 2
2 7 2 13028.8 659.505 8
2 7 3 8833.63 553.289 8
2 7 4 6245.02 470.877 8
2 7 5 147.122 124.571 8
2 7 5 38.1513 102.829 5
2 7 6 1262.43 227.611 8
2 7 6 976.501 180.576 5
2 7 7 151.688 140.851 8
2 7 7 93.3467 141.479 13
2 7 7 22.1174 101.492 5
2 7 8 182.128 138.386 13
2 7 9 31.2602 104.84 13
-2 -7 -10 670.668 173.765 14
2 7 10 383.117 124.67 13
-2 -7 -11 6271.91 323.699 14
2 7 11 6517.89 346.713 13
-2 -8 9 66.9666 107.299 23
-2 -8 8 1288.44 208.779 23
2 8 -7 1229.72 172.081 8
-2 -8 7 1340.91 232.735 23
-2 -8 6 4002.9 380.055 23
2 8 -6 3462.82 306.267 8
2 8 -5 3089.83 319.063 8
-2 -8 5 3144.51 353.802 23
2 8 -4 451.106 173.359 8
2 8 -3 6899.29 500.698 8
2 8 -2 30127 1036.97 8
2 8 -1 2161.78 300.769 8
2 8 0 9144.82 572.224 8
2 8 1 3419.13 357.723 8
2 8 2 3105.76 336.581 8
2 8 3 3736.54 367.288 8
2 8 4 3830.66 369.823 8
2 8 5 -119.873 131.835 8
2 8 5 91.3637 128.729 13
2 8 6 955.407 193.735 8
2 8 6 911.615 199.008 13
2 8 6 665.906 152.699 5
2 8 7 4952.36 380.784 13
2 8 8 2563.73 262.836 13
2 8 9 1232.64 173.968 13
2 8 10 229.54 83.6812 13
2 9 -6 334.905 103.008 8
-2 -9 6 213.245 120.899 21
2 9 -5 -6.84483 87.0092 8
-2 -9 5 -516.235 149.945 21
2 9 -4 2789.39 278.01 8
2 9 -3 1436.23 221.338 8
2 9 -2 907.096 186.639 8
2 9 -1 5010.95 401.793 8
2 9 0 2583.4 298.123 8
2 9 1 52.144 120.716 8
2 9 2 487.698 148.502 8
2 9 3 276.304 121.24 8
2 9 4 596.422 146.713 8
2 9 5 748.951 157.632 8
2 9 5 623.39 139.482 13
2 9 6 197.447 105.306 13
2 9 7 168.351 90.1471 13
2 9 8 141.494 76.2154 13
2 10 -4 45.3688 64.3651 8
2 10 -3 725.604 124.569 8
2 10 -2 0.42242 85.1709 8
2 10 -1 503.701 118.86 8
2 10 0 9196 422.358 8
2 10 1 1443.68 179.513 8
2 10 2 431.566 112.073 8
2 10 3 16.8515 82.732 8
-3 9 2 28.7975 56.9137 5
3 -9 -2 96.1983 131.457 21
3 -9 -1 366.127 152.737 21
-3 9 1 539.24 98.6905 5
3 -9 0 175.438 126.016 21
-3 9 0 125.962 72.632 5
-3 9 -1 174.902 79.4937 5
3 -9 1 213.685 125.064 21
3 -9 2 4387.11 350.856 21
-3 9 -2 4221.98 245.853 5
-3 9 -3 287.318 102.324 12
3 -9 3 338.082 131.908 21
3 -9 4 1987.67 228.513 21
-3 9 -4 2011.88 181.686 12
3 -8 -6 390.951 148.871 21
3 -8 -5 485.327 183.241 21
-3 8 5 461.784 99.5573 5
-3 8 4 501.99 109.107 5
3 -8 -4 767.731 223.039 21
3 -8 -3 2475.64 342.462 21
-3 8 3 2557.26 227.591 5
3 -8 -2 6124.71 514.138 21
-3 8 2 6722.11 372.681 5
3 -8 -1 3663.88 413.532 21
-3 8 1 3581.45 286.487 5
3 -8 0 3317.94 397.912 21
-3 8 0 3393.19 327.423 12
3 -8 1 86.3896 139.53 21
-3 8 -1 92.0781 122.995 12
3 -8 2 270.218 171.222 21
-3 8 -2 262.163 137.08 12
3 -8 3 736.229 215.067 21
-3 8 -3 656.141 175.033 12
3 -8 4 2698.63 332.598 21
-3 8 -4 2569.31 274.162 12
3 -8 5 623.637 168.334 21
-3 8 -5 627.784 155.922 12
-3 8 -6 3892.49 291.148 12
-3 8 -6 4388.34 267.215 8
3 -8 6 4079.28 344.105 21
-3 8 -7 114.819 80.2653 8
3 -8 7 160.097 125.452 21
3 -8 7 85.3739 198.759 23
-3 8 -7 105.334 96.8903 12
-3 8 -8 141.205 85.4477 12
3 -7 -8 1649.5 217.526 21
3 -7 -7 9538.55 576.514 21
-3 7 7 10186.5 561.556 20
3 -7 -6 8270.58 601.778 21
-3 7 6 7523.63 523.864 20
-3 7 6 6383.22 336.793 5
-3 7 5 9714.18 618.585 20
-3 7 5 8533.13 427.534 5
3 -7 -5 9778.28 689.244 21
3 -7 -4 2261.64 391.346 21
-3 7 4 2805.91 359.861 20
-3 7 4 2491.58 260.327 5
3 -7 -3 2064.99 374.595 21
-3 7 3 2141.63 318.426 20
-3 7 3 1827.76 237.94 5
-3 7 2 6103.56 485.327 12
-3 7 2 7557.25 448.377 5
3 -7 -2 7392.13 626.277 21
-3 7 1 170.162 159.37 12
3 -7 -1 316.721 232.82 21
3 -7 0 1095.38 272.892 21
-3 7 0 893.747 220.97 12
-3 7 -1 4370.86 408.105 12
3 -7 1 4263.2 467.238 21
3 -7 2 15742.5 843.361 21
-3 7 -2 14754.4 709.429 12
3 -7 3 88.2768 160.737 21
-3 7 -3 169.999 159.771 12
3 -7 4 872.59 250.227 21
3 -7 4 753.986 299.427 24
-3 7 -4 1038.59 218.577 12
3 -7 5 168.245 206.121 24
3 -7 5 140.714 164.72 21
-3 7 -5 -4.89629 118.438 12
3 -7 6 929.776 298.544 23
3 -7 6 1108.06 245.329 21
-3 7 -6 1097.17 208.781 12
3 -7 6 735.285 300.416 24
3 -7 7 829.217 283.05 24
3 -7 7 964.808 289.804 23
3 -7 7 1066.57 207.535 21
-3 7 -7 1053.41 202.815 12
3 -7 8 3276.08 432.72 24
3 -7 8 3318.23 311.749 21
-3 7 -8 3260.76 287.344 12
3 -7 8 3329.22 427.298 23
3 -7 9 2143.96 327.82 23
3 -7 9 1946.35 311.098 24
-3 7 -9 2312.26 218.078 12
3 -7 10 836.623 197.569 24
-3 7 -10 976.307 130.273 12
3 -7 10 922.465 208.058 23
-3 6 9 5840.73 445.278 20
-3 6 9 5529.91 235.574 24
3 -6 -8 1421.49 208.286 14
3 -6 -8 1168.44 263.999 21
-3 6 8 1514.99 295.077 20
3 -6 -7 225.778 146.007 14
3 -6 -7 263.159 217.736 21
-3 6 7 79.3396 186.786 20
3 -6 -7 286.95 150.133 19
-3 6 7 142.834 106.64 5
-3 6 6 574.996 219.836 20
3 -6 -6 717.357 265.284 21
-3 6 6 995.744 176.154 5
-3 6 5 222.65 221.587 20
-3 6 5 310.078 134.658 5
3 -6 -4 4144.27 510.625 21
-3 6 4 4485.88 475.221 20
-3 6 4 4455.19 358.827 5
3 -6 -3 1715.91 333.706 21
-3 6 3 2403.57 345.816 20
3 -6 -3 2044.4 285.092 6
-3 6 3 2148.61 255.971 5
-3 6 2 7910.88 553.338 20
3 -6 -2 7634.16 640.371 21
-3 6 2 6579.08 512.582 12
3 -6 -1 26455.5 1120.12 21
-3 6 1 24426.6 945.475 12
-3 6 1 26551.6 937.136 20
-3 6 0 8130.97 543.532 12
3 -6 0 8219.93 619.089 21
3 -6 1 8913.61 642.111 21
-3 6 -1 9295.22 567.88 12
3 -6 2 3392.34 406.368 21
-3 6 -2 3598.25 361.368 12
3 -6 2 3077.23 490.923 24
3 -6 3 11369.7 850.633 24
3 -6 3 12408.1 739.846 21
-3 6 -3 12146.5 639.755 12
3 -6 3 11131 784.133 23
3 -6 4 13259.4 916.371 24
-3 6 -4 15058.9 701.711 12
3 -6 4 15772.5 823.311 21
3 -6 4 15793.1 958.893 23
3 -6 5 8670.32 618.468 21
-3 6 -5 7952.53 520.013 12
3 -6 5 8674.46 751.275 23
3 -6 5 7642.09 704.65 24
3 -6 6 945.168 340.305 24
-3 6 -6 492.877 179.11 12
3 -6 6 1311.81 340.188 23
3 -6 7 42.3416 232.32 24
3 -6 7 432.694 274.582 23
-3 6 -7 47.8934 127.982 12
3 -6 8 1154.46 322.071 24
3 -6 8 1630.27 375.078 23
-3 6 -8 964.901 206.008 12
3 -6 9 84.382 200.527 24
3 -6 9 115.317 195.368 23
3 -6 9 181.808 151.443 21
-3 6 -9 215.933 131.58 12
-3 6 -10 4267.02 309.557 12
3 -6 10 3834.24 426.778 24
3 -6 10 3489.63 424.232 23
-3 6 -11 5001.63 280.803 12
3 -6 11 5092.33 421.593 24
3 -6 11 5357.38 447.726 23
3 -5 -10 1874.01 207.976 14
-3 5 10 2287.2 312.995 20
-3 5 10 2020.37 170.774 24
3 -5 -9 866.256 187.457 14
-3 5 9 645.076 134.473 24
-3 5 9 945.117 261.816 20
3 -5 -9 700.833 170.459 19
3 -5 -9 661.048 257.526 21
3 -5 -8 -29.8799 141.157 14
-3 5 8 66.8836 190.087 20
3 -5 -8 191.176 104.032 19
3 -5 -8 81.6486 108.348 11
3 -5 -8 -82.1809 245.681 21
3 -5 -7 9193.28 561.476 14
3 -5 -7 8314.4 484.041 19
3 -5 -7 8659.83 493.009 11
-3 5 7 8283.79 450.244 5
-3 5 7 9034.4 715.706 20
3 -5 -7 8985.39 757.525 21
3 -5 -6 6101.68 476.746 14
3 -5 -6 5932.83 648.896 21
-3 5 6 5706.75 577.307 20
3 -5 -6 5455.61 416.745 6
3 -5 -6 6217.17 434.433 19
-3 5 6 5841.87 405.589 5
3 -5 -5 2052.98 406.056 21
3 -5 -5 2606.84 289.24 19
-3 5 5 2389.06 375.055 20
3 -5 -5 2134 292.182 6
-3 5 5 2277.29 268.756 5
3 -5 -4 939.87 317.367 21
-3 5 4 757.699 236.88 20
3 -5 -4 782.619 221.266 6
3 -5 -4 467.248 152.264 19
-3 5 4 578.803 148.109 5
3 -5 -3 973.392 238.23 21
-3 5 3 562.964 189.211 12
3 -5 -3 1078.68 194.084 19
3 -5 -3 694.647 176.409 6
-3 5 3 1089.93 199.175 5
-3 5 3 893.315 242.306 20
3 -5 -2 7611.84 600.709 21
-3 5 2 7578.55 505.581 20
-3 5 2 5942.01 471.408 12
3 -5 -2 6579.94 526.043 16
-3 5 1 8604.71 463.462 2
-3 5 1 7684.83 509.982 12
-3 5 1 9364.54 535.183 20
3 -5 -1 8521.09 613.062 21
3 -5 -1 9451.17 602.962 16
-3 5 0 6081.72 404.099 2
3 -5 0 6025.38 511.499 21
-3 5 0 6577.83 457.983 12
-3 5 0 7499.36 464.758 20
3 -5 0 6301.99 469.486 16
3 -5 1 346.341 259.464 24
-3 5 -1 120.997 124.741 12
3 -5 1 196.764 170.172 21
-3 5 -1 -83.4242 121.096 2
3 -5 1 -24.473 120.682 16
-3 5 -2 7518.05 470.349 2
3 -5 2 8837.39 583.088 21
-3 5 -2 7566.4 474.661 12
3 -5 2 7194.46 615.66 23
3 -5 2 7509.5 646.798 24
3 -5 2 7690.66 486.917 16
-3 5 -2 7913.08 469.331 15
3 -5 3 264.759 224.392 24
3 -5 3 255.003 228.624 23
3 -5 3 24.2375 178.825 21
-3 5 -3 276.391 156.501 2
-3 5 -3 258.696 149.125 12
3 -5 3 200.536 141.684 16
-3 5 -3 286.333 172.894 15
3 -5 4 10549.9 764.174 23
-3 5 -4 8556.12 530.034 2
-3 5 -4 8710.18 512.524 12
3 -5 4 9493.49 733.188 24
3 -5 4 9762.32 535.223 16
-3 5 -4 8439.04 529.579 15
3 -5 5 -39.1951 227.004 24
3 -5 5 -109.658 208.804 23
-3 5 -5 -1.40991 131.172 12
3 -5 6 5554.2 599.373 24
-3 5 -6 5467.41 428.34 12
-3 5 -6 4832.73 369.673 18
3 -5 6 4857.62 588.964 23
3 -5 7 26783.8 1256.15 24
-3 5 -7 27282.5 933.372 12
-3 5 -7 28541.3 856.95 18
3 -5 7 26920.9 1311.2 23
3 -5 8 12976.8 890.303 24
3 -5 8 12608.9 906.595 23
-3 5 -8 12823.3 643.515 12
-3 5 -8 13080.5 585.216 18
3 -5 9 4133.98 504.522 24
-3 5 -9 3819.38 362.542 12
-3 5 -9 3615.78 308.872 18
3 -5 9 4066.09 522.067 23
3 -5 10 725.685 258.363 24
3 -5 10 461.193 251.146 23
-3 5 -10 847.829 186.657 12
-3 5 -10 613.942 151.523 18
3 -5 11 -4.72377 164.621 24
3 -5 11 -127.325 198.993 23
-3 5 -11 25.168 94.2276 12
-3 5 -11 32.1009 133.431 18
3 -5 12 142.922 153.114 24
3 -5 12 417.514 178.84 23
-3 5 -12 149.091 96.3036 12
3 -4 -11 1764.33 209.024 14
-3 4 11 1935.44 170.823 24
-3 4 11 1820.9 170.329 22
-3 4 11 2053.01 305.455 20
3 -4 -10 1234.35 212.514 14
3 -4 -10 1368.88 186.445 19
-3 4 10 1528.28 320.431 20
-3 4 10 1362.09 182.965 24
3 -4 -9 3446.43 360.67 14
3 -4 -9 4057.78 521.612 21
-3 4 9 3773.42 489.162 20
3 -4 -9 3704.15 320.78 19
3 -4 -9 3714.29 308.193 11
3 -4 -8 7929.26 553.26 14
-3 4 8 8219.36 703.455 20
3 -4 -8 7770.59 488.351 19
3 -4 -8 7565.57 468.628 11
3 -4 -8 8197.13 756.75 21
3 -4 -7 570.585 302.828 21
3 -4 -7 404.506 154.534 19
-3 4 7 245.347 238.907 20
-3 4 7 369.484 141.132 5
3 -4 -7 516.56 188.91 14
3 -4 -6 46048 1276.7 14
3 -4 -6 44408.1 1678.85 21
-3 4 6 44798.4 1502.85 20
3 -4 -6 43224.1 1208.05 6
3 -4 -6 45198.7 1184.5 19
-3 4 6 42897.1 1051.67 5
-3 4 5 4583.27 461.642 20
3 -4 -5 4988.56 573.837 21
3 -4 -5 3978.92 391.435 6
3 -4 -5 4545.2 380.22 19
-3 4 5 4846.91 359.075 5
3 -4 -4 11217.9 778.648 21
-3 4 4 11432.5 661.96 20
3 -4 -4 9935.29 575.932 6
3 -4 -4 10884.9 545.466 19
-3 4 4 10781.5 506.685 5
3 -4 -4 9539.94 670.447 16
3 -4 -3 11939.8 733.559 21
-3 4 3 12603.8 643.149 20
3 -4 -3 11106.6 520.832 19
-3 4 3 11785.8 510.541 5
3 -4 -3 11926.6 702.905 16
-3 4 3 9942.39 574.563 12
3 -4 -2 35132.8 1167.13 21
-3 4 2 33367.2 985.719 12
3 -4 -2 35451.8 873.113 19
3 -4 -2 35808.4 775.422 4
3 -4 -2 33401.6 1085.79 16
3 -4 -1 3033.82 256.694 19
3 -4 -1 3309.06 239.596 4
3 -4 -1 2909.53 316.459 16
-3 4 1 2994.14 262.095 2
-3 4 1 2606.78 244.128 15
3 -4 0 6646.64 356.484 19
-3 4 0 6459.13 377.374 2
3 -4 0 6142.73 414.121 16
-3 4 0 6559.09 374.746 15
-3 4 -1 3537.11 290.489 2
3 -4 1 3484.17 307.732 16
-3 4 -1 3700.74 297.085 15
3 -4 2 3499.23 298.12 16
-3 4 -2 3506.2 295.759 2
-3 4 -2 3388.19 293.694 15
-3 4 -3 25540.6 799.4 2
3 -4 3 26961.2 785.136 16
-3 4 -3 26504.9 823.635 15
3 -4 4 2429.28 422.215 24
3 -4 4 2445.61 282.957 3
-3 4 -4 2394.39 283.377 12
3 -4 4 2236.41 248.595 16
-3 4 -4 2291.38 276.662 15
3 -4 5 4880.38 498.034 24
3 -4 5 5150.49 401.92 3
3 -4 5 4462.01 497.97 23
-3 4 -5 4910.14 371.319 12
-3 4 -5 5563.23 442.65 18
-3 4 -5 4782.8 405.751 15
3 -4 6 616.9 256.375 23
-3 4 -6 611.085 173.607 12
3 -4 6 358.118 166.087 3
-3 4 -6 124.013 181.733 18
3 -4 6 248.761 207.968 24
-3 4 -6 489.875 189.847 15
3 -4 7 757.23 266.632 24
3 -4 7 714.903 258.527 23
-3 4 -7 688.718 191.547 12
3 -4 7 1006.36 269.068 3
-3 4 -7 308.315 163.027 18
3 -4 8 2784.52 441.183 24
3 -4 8 2162.14 404.251 23
-3 4 -8 2831.37 320.97 12
-3 4 -8 2833.72 316.188 18
3 -4 9 404.752 258.228 24
3 -4 9 681.488 276.655 23
-3 4 -9 524.215 188.405 12
-3 4 -9 941.233 191.685 18
3 -4 10 756.749 274.067 24
3 -4 10 264.839 237.946 23
-3 4 -10 713.448 187.826 12
-3 4 -10 589.647 155.7 18
-3 4 -11 2314.92 274.878 12
3 -4 11 2928.79 419.771 23
3 -4 11 2962.07 405.298 24
-3 4 -11 3003.68 285.638 18
3 -4 12 3600.64 381.7 24
-3 4 -12 4124.55 304.63 12
3 -4 12 3856.58 411.784 23
-3 4 -12 4098.02 295.179 18
-3 4 -13 1765.58 174.89 12
3 -4 13 1510.2 229.214 24
3 -3 -12 2670.66 235.087 14
-3 3 12 2517.12 183.899 24
-3 3 11 2116.88 215.616 24
-3 3 11 2057.61 333.565 20
3 -3 -11 1779.75 245.203 14
3 -3 -10 4547.83 417.431 14
-3 3 10 5338.87 374.129 24
-3 3 10 4797.54 528.656 20
3 -3 -10 5396.6 371.128 19
3 -3 -10 5208.08 355.056 11
3 -3 -9 37.7731 175.475 14
3 -3 -9 24.7343 258.34 21
-3 3 9 406.485 262.137 20
3 -3 -9 93.3229 114.977 19
3 -3 -9 -52.9955 131.848 11
3 -3 -8 2081.87 323.983 14
3 -3 -8 2006.35 424.463 21
-3 3 8 2182.48 422.827 20
3 -3 -8 2190.56 284.178 19
3 -3 -8 1782.31 264.813 11
3 -3 -7 193.233 180.418 14
3 -3 -7 14.1951 286.29 21
-3 3 7 -584.047 248.77 20
3 -3 -7 61.4835 124.667 19
3 -3 -7 33.8479 156.691 6
3 -3 -6 7093.74 529.924 14
3 -3 -6 6590 667.098 21
-3 3 6 6614.78 550.157 1
-3 3 6 6566.45 560.979 20
3 -3 -6 6488.97 491.587 6
3 -3 -6 6886.03 467.439 19
3 -3 -5 392.187 286.153 21
-3 3 5 428.724 180.839 20
3 -3 -5 159.408 142.101 6
3 -3 -5 389.961 145.757 19
-3 3 5 367.441 192.887 1
-3 3 4 1515.93 248.632 1
3 -3 -4 1990.75 392.437 21
-3 3 4 1855.25 290.978 20
3 -3 -4 1633.26 218.316 19
-3 3 4 1849.99 220.076 15
3 -3 -3 1082 170.693 19
-3 3 3 1022.24 192.128 1
3 -3 -3 803.861 206.343 16
-3 3 3 1310.43 180.756 15
3 -3 -2 2210.05 220.949 19
-3 3 2 1988.58 233.74 1
3 -3 -2 2213.06 281.804 16
-3 3 2 2136.54 216.989 15
3 -3 -1 6381.05 345.627 19
3 -3 -1 6796.93 324.142 4
3 -3 -1 5827.69 393.747 16
-3 3 1 6754.13 328.441 2
-3 3 1 6613.75 360.928 15
-3 3 0 4975.56 290.421 2
3 -3 0 4406.33 276.946 19
3 -3 0 4586.44 261.936 4
3 -3 0 4661.18 323.929 16
-3 3 0 4618.14 302.049 15
-3 3 -1 1225.95 159.537 2
3 -3 1 1252.55 160.104 19
3 -3 1 1203.01 169.785 16
3 -3 1 1144.79 143.665 4
-3 3 -1 954.582 152.948 15
3 -3 2 405.976 108.118 4
3 -3 2 422.769 114.061 19
3 -3 2 238.773 91.6441 16
-3 3 -2 429.073 128.609 15
3 -3 3 663.82 122.973 4
3 -3 3 688.828 147.448 3
3 -3 3 675.312 127.591 16
-3 3 -3 836.585 159.954 15
3 -3 4 4252.88 334.398 3
3 -3 4 4144.92 275.21 16
3 -3 4 3760.01 267.7 4
-3 3 -4 4034.76 327.154 15
3 -3 5 3863.48 336.535 3
-3 3 -5 4038.05 347.979 15
3 -3 5 4324.97 310.169 4
3 -3 6 6729.43 450.692 3
-3 3 -6 7260.36 563.518 18
-3 3 -6 7115.22 484.558 15
3 -3 6 5556.89 377.217 4
3 -3 7 9395.02 658.909 24
3 -3 7 8717.2 678.918 23
3 -3 7 8748.86 545.659 3
-3 3 -7 8556.35 476.915 12
-3 3 -7 10497.6 613.888 18
3 -3 7 7936.24 577.958 13
-3 3 -7 8666.47 560.66 15
3 -3 8 11664.6 756.288 24
3 -3 8 11565.8 641.105 3
-3 3 -8 10829.3 560.16 12
3 -3 8 10881.9 787.825 23
-3 3 -8 11594.2 627.673 18
3 -3 8 9876.18 650.354 13
-3 3 -8 10684.9 650.644 15
3 -3 9 2223.18 377.991 23
-3 3 -9 2692.08 305.282 12
3 -3 9 2252.32 339.992 13
-3 3 -9 2816.86 324.177 18
3 -3 9 2538.26 378.067 24
3 -3 10 -39.4795 192.968 24
3 -3 10 148.534 203.628 23
3 -3 10 176.456 178.969 13
-3 3 -10 -21.7451 123.105 12
-3 3 -10 105.465 117.492 18
3 -3 11 8087.81 619.198 24
3 -3 11 8088.82 649.515 23
-3 3 -11 9089.55 512.995 12
-3 3 -11 8780.22 510.645 18
3 -3 12 334.796 190.952 23
-3 3 -12 145.637 118.933 12
3 -3 12 -91.2699 150.282 24
-3 3 -12 290.458 121.74 18
3 -3 13 6382.87 439.555 24
-3 3 -13 7191.33 371.995 12
-3 3 -14 761.211 115.478 12
3 -2 -12 9794.79 500.523 14
-3 2 12 10409.7 425.899 24
3 -2 -11 4701.25 418.434 14
-3 2 11 4642.34 345.068 24
-3 2 11 4909.96 492.99 20
3 -2 -11 4563.91 313.618 19
3 -2 -10 34.6759 161.388 14
-3 2 10 -137.636 188.918 20
3 -2 -10 111.288 102.424 19
3 -2 -10 139.908 125.747 11
-3 2 10 81.4337 132.706 24
3 -2 -9 416.604 199.563 14
-3 2 9 -35.9522 203.58 20
3 -2 -9 110.71 117.977 19
3 -2 -9 104.319 134.754 11
3 -2 -8 658.184 220.122 14
3 -2 -8 533.506 298.705 21
-3 2 8 652.457 266.622 20
3 -2 -8 469.644 158.633 19
3 -2 -8 611.914 187.43 11
-3 2 7 600.485 255.659 20
3 -2 -7 728.994 201.81 11
3 -2 -7 612.194 170.513 19
3 -2 -7 698.684 242.587 14
3 -2 -7 317.464 253.209 21
-3 2 6 3707.56 400.178 1
3 -2 -6 4081.39 398.178 14
-3 2 6 4435.97 438.932 20
3 -2 -6 4260.56 403.104 6
3 -2 -6 3778.77 335.605 19
3 -2 -6 3752.47 536.73 21
3 -2 -5 1756.75 228.532 19
-3 2 5 1757.27 267.161 1
3 -2 -4 12647.8 536.884 19
-3 2 4 12800.3 625.405 1
3 -2 -3 27284.4 728.129 19
-3 2 3 29021.2 864.19 1
-3 2 2 3063.02 268.073 1
3 -2 -2 3340.04 249.775 19
3 -2 -2 2812.1 292.826 16
-3 2 2 3278.43 255.239 15
-3 2 1 148.339 97.9318 1
3 -2 -1 270.184 95.8828 19
-3 2 1 145.131 70.4984 2
3 -2 -1 192.052 108.122 16
-3 2 1 198.486 93.2649 15
3 -2 0 571.936 114.973 19
-3 2 0 609.342 104.719 1
-3 2 0 519.578 94.8808 2
3 -2 0 583.508 133.925 16
-3 2 0 564.116 120.802 15
3 -2 0 787.208 115.549 4
3 -2 1 29467.1 647.505 19
3 -2 1 30159.3 606.385 4
3 -2 1 30386.3 674.007 16
-3 2 -1 29475.3 712.627 15
3 -2 2 1443.05 184.932 3
3 -2 2 1572.67 160.151 19
3 -2 2 1574.61 155.907 16
3 -2 2 1604.73 156.561 4
-3 2 -2 1601.09 181.308 15
3 -2 3 29290.9 767.021 3
3 -2 3 30020.4 597.706 16
3 -2 3 29954.7 641.538 4
-3 2 -3 30208.7 766.249 15
3 -2 4 5392.28 343.248 3
3 -2 4 5360.09 256.137 16
3 -2 4 5083.5 291.989 4
-3 2 -4 5420.67 346.314 15
3 -2 5 17902.1 648.931 3
-3 2 -5 17401.8 645.64 15
3 -2 5 15968.6 553.29 4
3 -2 6 702.893 161.7 4
3 -2 6 663.231 166.935 3
-3 2 -6 505.889 151.768 15
3 -2 7 501.197 175.78 3
-3 2 -7 429.616 155.135 15
3 -2 8 4347.42 448.075 24
3 -2 8 3817.82 458.853 23
3 -2 8 4006.75 421.298 13
3 -2 8 3780.86 378.156 3
-3 2 -8 4124.63 336.713 12
-3 2 -8 4627.22 421.473 18
-3 2 -8 4212.24 395.412 15
3 -2 9 23750.4 990.317 24
3 -2 9 22977.3 1075.76 23
3 -2 9 23427.6 938.376 3
-3 2 -9 24493 816.503 12
3 -2 9 22027.2 938.664 13
-3 2 -9 26343 943.643 18
3 -2 10 -15.1213 173.984 24
3 -2 10 248.166 190.743 23
3 -2 10 301.714 186.334 13
-3 2 -10 190.101 145.838 12
-3 2 -10 221.125 121.498 18
3 -2 11 -60.8332 174.208 24
3 -2 11 -82.2325 198.1 23
3 -2 11 27.5247 163.933 13
-3 2 -11 162.645 152.542 12
-3 2 -11 81.6756 120.931 18
3 -2 12 6049.03 485.325 24
-3 2 -12 7015.51 429.721 12
-3 2 -12 6590.37 429.687 18
3 -2 13 -35.9167 145.338 24
-3 2 -13 -17.4788 95.2011 12
-3 2 -13 87.9045 92.7183 18
-3 2 -14 420.756 106.967 12
3 -1 -13 2740.42 230.125 14
-3 1 13 2734.01 195.723 24
3 -1 -12 -196.304 140.534 14
-3 1 12 -24.9818 85.5496 24
3 -1 -11 6561.06 520.39 14
-3 1 11 6933.58 439.453 24
3 -1 -11 6643.46 369.847 19
3 -1 -10 1382.69 210.986 19
3 -1 -10 1415.49 242.904 11
-3 1 10 1467.35 243.496 24
3 -1 -10 1326.9 289.532 14
3 -1 -9 4571.08 486.183 14
-3 1 9 4197.57 493.423 20
-3 1 9 4668.39 406.438 24
3 -1 -9 4112.56 355.1 19
3 -1 -9 4322.34 396.216 11
3 -1 -8 19323.3 920.44 14
3 -1 -8 17341.7 1091.22 21
-3 1 8 19767.7 996.447 20
3 -1 -8 19370.4 750.534 19
3 -1 -8 17653 783.206 11
3 -1 -7 4294.7 447.873 14
3 -1 -7 4412.32 569.122 21
-3 1 7 5084.2 490.591 20
3 -1 -7 3924.58 342.077 19
3 -1 -7 4651.61 396.719 11
3 -1 -7 4403.43 336.476 18
-3 1 7 3943.51 424.418 1
3 -1 -6 1121.14 355.04 21
-3 1 6 1299.45 244.565 1
3 -1 -6 1703.1 276.463 6
3 -1 -6 1124.59 192.166 19
3 -1 -6 1367.19 200.311 18
3 -1 -5 3846.5 312.843 19
3 -1 -5 3696.55 287.842 18
-3 1 5 3540.76 361.476 1
3 -1 -4 2848.37 243.577 19
-3 1 4 2597.4 294.074 1
-3 1 3 26136.7 800.865 1
3 -1 -3 26576.9 676.277 19
3 -1 -2 2118.53 191.443 19
-3 1 2 1955.3 216.144 1
3 -1 -1 4828.59 263.151 19
-3 1 1 4765.32 284.495 1
3 -1 -1 4612.19 323.93 16
-3 1 0 2643.01 146.766 2
3 -1 0 2609.31 203.239 19
-3 1 0 2890.19 191.097 1
3 -1 0 2659.75 184.714 4
3 -1 0 2566.7 223.486 16
-3 1 0 2801.01 219.738 15
3 -1 1 7552.04 356.159 3
3 -1 1 8189.26 331.875 16
-3 1 -1 8088.53 360.554 15
-3 1 -1 7094.86 227.941 1
3 -1 2 3496.08 248.045 3
3 -1 2 3874.9 202.617 16
3 -1 2 3689.24 218.38 4
-3 1 -2 3526.89 245.581 15
3 -1 3 13411.3 480.971 3
3 -1 3 13803.9 339.66 16
3 -1 3 12835.4 406.032 4
-3 1 -3 14032.2 487.011 15
3 -1 4 72.3645 82.8349 3
3 -1 4 104.321 85.2575 4
-3 1 -4 134.695 92.8406 15
3 -1 5 12114.4 513.313 3
-3 1 -5 11769.1 493.916 15
3 -1 5 10984.8 448.511 4
3 -1 6 55035.9 1162.22 3
-3 1 -6 53779.4 1114.88 15
3 -1 7 6275 434.788 3
-3 1 -7 6896.58 439.827 15
3 -1 8 154.757 157.331 22
-3 1 -8 75.0632 156.495 12
3 -1 8 -283.887 179.429 13
3 -1 8 38.1287 108.131 3
-3 1 -8 76.5735 111.983 15
3 -1 9 5270.67 524.908 23
3 -1 9 5458.99 458.552 13
3 -1 9 5321.35 452.315 22
-3 1 -9 5619.43 383.767 12
3 -1 9 5162.29 444.825 3
-3 1 -9 5092.23 423.513 18
-3 1 -9 5431.78 447.807 15
3 -1 10 28876.3 1051.25 13
3 -1 10 29591.4 1079.94 22
-3 1 -10 29768.7 881.432 12
-3 1 -10 29644.9 804.372 19
-3 1 -10 30965.2 1023.91 18
3 -1 11 739.802 227.267 22
3 -1 11 721.448 213.125 13
-3 1 -11 1044.25 202.746 12
-3 1 -11 919.122 191.482 18
3 -1 12 11155.4 606.584 13
-3 1 -12 11549.9 536.467 12
-3 1 -12 12346.4 574.203 18
-3 1 -13 776.196 160.199 12
-3 1 -13 636.932 139.752 18
-3 1 -14 530.405 122.561 12
-3 1 -15 6879.33 257.541 12
-3 0 13 1334.07 159.098 24
3 0 -13 1129.25 178.422 14
3 0 -12 3617.38 368.917 14
-3 0 12 3637.5 299.764 24
-3 0 11 561.25 164.571 24
3 0 -11 419.075 201.93 14
3 0 -10 200.957 193.258 14
-3 0 10 180.28 137.617 24
3 0 -10 -224.821 124.36 19
3 0 -9 8839.86 678.292 14
-3 0 9 8999.44 549.521 24
3 0 -9 8527.39 472.167 19
3 0 -9 7931.7 536.204 11
3 0 -9 7955.09 472.056 18
3 0 -8 2798.04 339.567 11
-3 0 8 2665.9 304.225 24
3 0 -8 2458.22 383.648 14
3 0 -8 2229.97 265.644 19
3 0 -8 2855.4 298.267 18
3 0 -7 7377.18 586.946 14
3 0 -7 7106.12 448.568 18
3 0 -7 7110.22 428.489 19
3 0 -7 7694.72 503.228 11
-3 0 7 6427.98 522.36 1
3 0 -6 10287.7 492.48 19
-3 0 6 9204.51 584.306 1
3 0 -6 10079.1 502.713 18
3 0 -5 4927.64 323.686 19
-3 0 5 4550.87 401.293 1
3 0 -5 5312.96 350.482 18
-3 0 4 42666.4 1108.31 1
3 0 -4 42916.8 875.492 19
3 0 -4 42605.4 900.636 18
-3 0 3 12017.3 549.898 1
3 0 -3 12700.4 443.661 19
3 0 -3 12695.5 466.138 18
3 0 -2 758.408 118.386 19
-3 0 2 654.697 145.541 1
-3 0 1 91.3458 86.2911 1
-3 0 0 1509.81 154.479 1
-3 0 -1 18471.5 416.183 1
3 0 1 19139.5 514.624 3
-3 0 -1 18605.1 511.922 15
3 0 2 21447.7 543.72 3
-3 0 -2 21827.7 554.356 15
3 0 3 4291.16 258.016 3
-3 0 -3 4286.64 255.743 15
3 0 4 19473.3 566.883 3
3 0 4 18905.4 515.31 4
-3 0 -4 19141.8 544.767 15
3 0 5 3364.93 265.822 3
-3 0 -5 3030.42 192.517 17
-3 0 -5 3229.77 243.178 15
3 0 5 3014.57 235.029 4
3 0 6 7136.88 409.838 3
-3 0 -6 6734.08 322.396 17
-3 0 -6 6701.49 370.69 15
3 0 6 6307.25 370.805 4
3 0 7 461.21 139.53 3
-3 0 -7 747.51 141.55 17
-3 0 -7 389.845 132.389 15
3 0 8 749.035 187.986 3
-3 0 -8 652.634 154.556 17
-3 0 -8 731.511 171.68 15
3 0 9 5228.16 439.539 13
3 0 9 4866.95 424.74 22
-3 0 -9 5134.69 351.034 12
3 0 9 4702.9 411.779 3
-3 0 -9 4661.23 405.029 18
-3 0 -9 5059.68 392.604 15
3 0 10 1332.23 244.989 22
-3 0 -10 929.174 177.029 19
-3 0 -10 1235.61 197.423 12
-3 0 -10 1004.5 206.756 18
3 0 10 1522.01 266.372 13
-3 0 -11 579.893 157.701 12
-3 0 -11 612.981 148.873 19
-3 0 -11 606.938 160.279 18
3 0 11 519.123 196.161 22
3 0 11 532.063 194.299 13
3 0 12 5841.2 457.42 13
3 0 12 6259.06 501.954 22
-3 0 -12 5616.13 373.42 12
-3 0 -12 5315.13 346.292 19
-3 0 -12 6276.56 398.828 18
3 0 13 178.901 156.972 13
-3 0 -13 349.794 114.663 18
-3 0 -13 137.561 105.96 12
-3 0 -14 1638.77 178.794 12
-3 0 -15 1446.54 129.752 12
-3 -1 13 -53.81 77.2643 24
-3 -1 12 1642 216.937 24
3 1 -12 1202.55 228.369 14
3 1 -11 3926.37 455.892 14
-3 -1 11 4370.18 364.505 24
3 1 -11 4221.34 316.138 18
-3 -1 10 159.261 144.049 24
3 1 -10 -22.1543 216.22 14
3 1 -10 34.7145 107.581 18
-3 -1 9 11981.5 621.852 24
3 1 -9 10602.3 618.323 11
3 1 -9 11293.3 791.646 14
3 1 -9 11381.7 592.385 18
3 1 -8 16849 926.14 14
3 1 -8 14883.3 679.963 18
-3 -1 8 15290.6 677.328 24
3 1 -8 15383.6 725.019 11
3 1 -7 7338.68 602.732 14
-3 -1 7 6880.37 443.787 24
-3 -1 7 5931.75 504.786 1
3 1 -7 6307.32 380.908 19
3 1 -7 6491.71 455.821 11
3 1 -7 6123.94 436.154 18
-3 -1 6 13780.5 722.883 1
3 1 -6 14322.8 542.904 19
3 1 -6 14048.1 610.594 18
3 1 -5 11066.1 452.347 19
3 1 -5 11686.9 520.846 18
-3 -1 4 7844.23 482.879 1
3 1 -4 8497.23 373.557 19
3 1 -4 8616.22 417.485 18
-3 -1 3 833.482 165.951 1
3 1 -3 1088.09 141.384 19
3 1 -3 707.3 132.512 18
3 1 -2 11385.3 422.43 18
-3 -1 2 11398.9 479.814 1
-3 -1 1 19338.2 564.562 1
-3 -1 0 16651.7 468.751 1
-3 -1 -1 4696.35 251.367 15
-3 -1 -1 4477.13 223.141 1
3 1 2 5980.77 264.618 3
-3 -1 -2 5365.09 214.634 1
-3 -1 -2 5656.62 271.186 15
3 1 3 4594.32 243.983 3
-3 -1 -3 4488.38 157.895 17
-3 -1 -3 4793.75 248.159 15
3 1 4 6574.11 312.342 3
-3 -1 -4 6023.29 221.373 17
-3 -1 -4 5828.65 277.327 15
3 1 4 5989.14 290.564 4
3 1 5 13357 485.001 3
-3 -1 -5 13339.4 380.827 17
-3 -1 -5 12961.3 432.929 15
3 1 5 11811.3 448.289 4
3 1 6 7030.42 392.133 3
-3 -1 -6 6679.39 307.737 17
-3 -1 -6 6994.05 345.745 15
3 1 6 6229.46 364.749 4
-3 -1 -7 6404.6 336.581 17
3 1 7 6455.42 410.2 3
-3 -1 -7 6277.51 358.285 15
3 1 8 3951.94 351.266 3
-3 -1 -8 3912.11 297.107 17
3 1 9 112.156 145.76 22
3 1 9 52.7584 148.832 13
3 1 9 -19.7161 121.904 3
-3 -1 -9 -169.131 181.602 18
-3 -1 -9 -14.4797 136.696 17
3 1 10 10898.9 650.315 13
3 1 10 11100.5 630.268 22
-3 -1 -10 10173.3 529.487 19
-3 -1 -10 11172.1 538.506 18
3 1 11 1259.86 239.775 22
3 1 11 999.672 243.368 13
-3 -1 -11 1214.82 196.722 12
-3 -1 -11 953.918 181.575 19
-3 -1 -11 1150.65 182.212 18
3 1 12 543.601 180.378 13
-3 -1 -12 643.185 149.17 12
-3 -1 -12 591.09 145.052 19
3 1 12 460.79 178.451 22
3 1 13 7733.13 478.679 13
-3 -1 -13 7654.89 382.282 12
-3 -1 -13 7781.18 395.469 19
3 1 13 7875.39 505.897 22
-3 -1 -14 3530.21 231.443 12
-3 -2 13 1977.88 179.168 24
3 2 -13 2110.69 162.126 7
-3 -2 12 2792.18 260.716 24
3 2 -12 2875.57 330.63 14
3 2 -11 5804.1 524.978 14
-3 -2 11 6160.22 421.991 24
3 2 -11 6345.83 387.178 18
3 2 -10 15397.3 899.846 14
-3 -2 10 15274.2 691.651 24
3 2 -10 14395.8 649.726 18
3 2 -10 14598.8 589.813 9
-3 -2 9 2839.82 314.869 24
3 2 -9 2884.09 420.308 14
3 2 -9 2794.03 320.507 18
-3 -2 8 471.635 165.335 24
3 2 -8 748.734 287.118 14
3 2 -8 624.225 178.132 18
-3 -2 7 1215.6 207.201 24
3 2 -7 882.345 293.063 14
3 2 -7 1010.56 218.501 11
3 2 -7 1040.23 205.91 18
-3 -2 7 950.008 243.172 1
3 2 -6 4850.06 509.024 14
-3 -2 6 4923.89 453.03 1
3 2 -6 4659.96 373.715 11
3 2 -6 4813.19 374.427 18
-3 -2 5 208.584 164.947 1
3 2 -5 67.5521 93.0098 18
-3 -2 4 31.2515 129.828 1
3 2 -4 -7.97919 77.4123 18
3 2 -3 36.7713 73.3187 18
-3 -2 3 40.4934 111.367 1
3 2 -2 2869.37 225.297 18
-3 -2 2 2429.77 243.22 1
3 2 -1 35.533 68.1422 18
-3 -2 1 30.2446 76.079 1
-3 -2 0 12690.3 440.455 1
-3 -2 -1 2091.72 176.179 1
-3 -2 -1 1963.89 103.605 17
3 2 2 970.042 101.954 3
-3 -2 -2 1000.97 83.4208 17
-3 -2 -2 932.122 111.133 15
3 2 3 4571.36 221.128 3
-3 -2 -3 4515.6 187.159 17
-3 -2 -3 4601.77 220.861 15
3 2 4 215.165 75.3347 3
-3 -2 -4 267.518 71.7667 17
3 2 4 116.08 70.4835 4
-3 -2 -4 268.29 70.0236 15
3 2 5 7140.78 335.94 3
-3 -2 -5 7391.9 299.624 17
3 2 5 7233.46 355.221 4
3 2 6 11687.3 475.279 3
-3 -2 -6 10978.2 400.705 17
3 2 7 1213.06 185.139 3
-3 -2 -7 1204.32 166.907 17
3 2 8 94.513 185.91 22
3 2 8 334.649 160.368 13
3 2 8 315.786 126.03 3
-3 -2 -8 298.721 109.295 17
3 2 8 91.5778 138.76 8
3 2 9 25954.7 886.283 22
3 2 9 25401.2 869.774 3
-3 -2 -9 25282.3 778.968 17
3 2 9 24339.1 936.76 13
3 2 10 7850.12 523.737 22
-3 -2 -10 7548.59 472.813 19
3 2 10 6870.6 528.527 13
3 2 11 17992 831.387 13
3 2 11 16571.2 763.724 22
-3 -2 -11 17444 699.093 19
3 2 12 444.58 165.796 22
3 2 12 88.1834 152.83 13
-3 -2 -12 369.571 129.06 12
-3 -2 -12 337.858 128.539 19
3 2 13 237.514 140.391 13
-3 -2 -13 32.0884 83.6647 12
-3 -2 -13 168.606 96.5964 19
3 2 13 76.5709 117.679 22
3 2 14 2469.85 234.012 13
3 2 14 2416.69 247.512 22
-3 -2 -14 2425.86 176.875 12
-3 -3 12 444.699 126.648 24
3 3 -12 288.898 103.039 7
-3 -3 11 4922.39 366.748 24
3 3 -11 5603.54 359.546 7
3 3 -11 5098.86 347.61 18
-3 -3 11 5867.47 386.729 23
-3 -3 10 4530.64 372.315 24
3 3 -10 5223.99 395.165 18
3 3 -10 5316.81 549.504 14
3 3 -9 1229.4 332.118 14
-3 -3 9 1381.04 238.913 24
3 3 -9 1568.43 252.412 18
3 3 -9 1461.85 225.057 9
3 3 -8 5036.73 576.319 14
-3 -3 8 4739.25 392.334 24
3 3 -8 4719.15 404.226 18
3 3 -8 4787.11 382.046 9
3 3 -7 496.545 260.502 14
3 3 -7 355.738 157.333 18
-3 -3 7 563.346 187.223 24
3 3 -7 146.773 123.401 9
3 3 -6 161.561 214.656 14
-3 -3 6 309.823 187.634 1
3 3 -6 -64.8436 217.15 10
3 3 -6 156.857 126.808 18
-3 -3 5 9749.09 596.566 1
3 3 -5 10279.1 522.287 18
-3 -3 4 26621.3 913.65 1
3 3 -4 27952.4 790.569 18
3 3 -3 3400.07 267.144 18
-3 -3 3 3355.11 315.156 1
3 3 -2 16559.2 531.586 18
-3 -3 2 16710.3 634.135 1
3 3 -1 7396.48 340.146 18
-3 -3 1 7268.15 399.677 1
-3 -3 0 33.7093 83.2847 1
-3 -3 0 -20.9463 39.5347 16
3 3 1 101.67 68.8265 2
3 3 2 549.8 107.385 2
-3 -3 -2 417.936 75.5872 17
3 3 3 3130.93 231.812 2
-3 -3 -3 2781.2 174.1 17
3 3 4 826.509 135.999 4
3 3 4 855.984 146.085 2
-3 -3 -4 898.308 118.236 17
3 3 5 41503 961.857 2
-3 -3 -5 42038 772.391 17
-3 -3 -6 6099.69 326.644 17
-3 -3 -7 20358.7 624.498 17
3 3 8 1526.67 271.218 8
3 3 8 1220.16 211.818 22
3 3 8 1641.42 265.312 13
-3 -3 -8 1332.72 188.671 17
3 3 9 483.174 192.706 8
3 3 9 688.781 183.041 22
-3 -3 -9 706.235 171.283 19
-3 -3 -9 635.028 179.591 17
3 3 9 687.076 199.825 13
3 3 10 8705.64 530.072 22
-3 -3 -10 9120.41 519.429 19
3 3 10 8940.8 596.784 13
3 3 11 206.88 167.738 13
3 3 11 137.741 144.681 22
-3 -3 -11 63.0649 91.2666 19
3 3 12 2947.64 339.184 13
3 3 12 2874.35 307.941 22
-3 -3 -12 2702.29 274.392 19
3 3 13 35.3471 108.398 22
3 3 13 164.75 121.474 13
-3 -3 -13 -33.7149 82.2927 19
3 3 14 1437.33 177.273 22
3 3 14 1358.99 176.122 13
3 4 -12 4356.88 240.557 7
-3 -4 11 17.1155 112.844 24
-3 -4 11 212.306 123.895 23
3 4 -11 -56.5782 114.204 7
-3 -4 10 -75.5699 133.206 24
3 4 -10 -42.7293 122.819 7
3 4 -10 9.92867 102.187 18
-3 -4 9 3084.4 324.997 24
3 4 -9 2898.23 300.787 7
3 4 -9 2802.81 305.063 18
-3 -4 8 2096.23 276.28 24
3 4 -8 1521.93 248.173 18
3 4 -8 1760.71 237.456 9
3 4 -7 29253.2 972.422 18
3 4 -7 26864 876.776 9
-3 -4 6 3278.92 417.759 1
3 4 -6 3196.46 327.478 18
3 4 -6 3400.55 332.729 9
3 4 -5 371.63 266.453 10
3 4 -5 -233.539 123.318 18
-3 -4 5 185.619 181.566 1
3 4 -5 143.781 151.267 9
3 4 -4 13728.8 684.078 10
3 4 -4 15327.6 610.947 18
-3 -4 4 15525 739.05 1
3 4 -3 19550.7 641.896 18
-3 -4 3 19339.5 588.265 16
-3 -4 3 18486.4 765.506 1
3 4 -2 11421.6 460.472 18
-3 -4 2 11901.1 589.945 1
-3 -4 2 11517.2 421.489 16
3 4 -1 8289.87 366.645 18
-3 -4 1 7762.51 455.707 1
-3 -4 1 7690.53 316.564 16
3 4 1 33303.1 661.466 2
3 4 2 37.9379 58.3639 2
-3 -4 -2 107.493 64.5206 17
-3 -4 -3 4309.46 247.136 17
3 4 3 4447.08 293.466 2
3 4 4 4512.06 315.873 2
-3 -4 -4 4277.42 260.354 17
3 4 5 4190.73 328.271 2
-3 -4 -5 3916.14 267.007 17
3 4 6 2592.12 282.967 2
-3 -4 -6 2654.82 242.297 17
3 4 6 3330.8 364.534 8
3 4 7 1504.06 258.554 8
3 4 7 1442.44 239.428 13
-3 -4 -7 1487.19 201.052 17
3 4 8 4634.36 422.56 13
-3 -4 -8 4464.3 356.557 19
-3 -4 -8 4537.66 339.069 17
3 4 8 4346.92 415.669 8
3 4 9 3192.32 366.736 13
3 4 9 2855.48 313.794 22
-3 -4 -9 3236.01 313.912 19
3 4 9 3378.32 380.315 8
3 4 10 101.203 122.072 22
3 4 10 117.108 140.482 13
-3 -4 -10 210.547 125.547 19
3 4 11 2807.73 299.192 22
-3 -4 -11 2864.62 286.496 19
3 4 11 2721.92 331.757 13
3 4 12 101.434 98.734 22
3 4 12 54.6232 122.56 13
-3 -4 -12 172.438 98.944 19
3 4 13 10824.2 502.145 13
3 4 13 9615.3 434.884 22
3 4 14 3985.87 237.787 13
3 4 14 3844.88 220.305 22
3 5 -11 2427.52 199.728 7
-3 -5 11 2510.91 245.193 23
-3 -5 10 481.624 170.418 23
3 5 -10 421.072 129.068 7
3 5 -10 585.973 144.688 18
3 5 -9 14608.4 606.721 7
3 5 -9 13740 599.925 18
3 5 -8 260.712 144.412 7
3 5 -8 110.79 119.565 18
3 5 -7 2301.74 282.421 7
3 5 -7 2675.61 307.445 18
3 5 -7 2468.93 292.71 9
3 5 -6 3312.15 327.313 7
3 5 -6 3249.61 326.5 18
3 5 -6 3118.64 325.852 9
3 5 -5 1691.12 236.889 7
3 5 -5 1272.69 217.42 18
3 5 -5 1495.62 246.693 9
3 5 -4 10315.1 513.234 18
3 5 -4 9776.97 545.555 9
-3 -5 4 8617.14 458.8 16
-3 -5 4 9239.01 621.4 1
3 5 -3 4111.64 339.501 8
3 5 -3 4743.88 330.314 18
3 5 -3 4288.6 363.944 9
-3 -5 3 4406.91 412.36 1
-3 -5 3 4152.06 308.673 16
-3 -5 2 992.939 231.663 1
3 5 -2 1148.56 172.276 18
-3 -5 2 622.761 134.629 16
3 5 -2 745.528 207.197 9
-3 -5 1 7079.9 485.272 1
-3 -5 -2 1568.55 172.158 17
3 5 2 1599.07 189.137 2
-3 -5 -3 16370 526.692 17
3 5 3 17064.6 605.781 2
3 5 4 403.417 159.299 8
3 5 4 707.703 160.434 2
-3 -5 -4 705.222 141.914 17
3 5 5 470.161 167.792 13
3 5 5 67.2136 94.1215 2
3 5 5 453.05 178.247 8
-3 -5 -5 237.183 113.957 17
3 5 6 1679.73 266.592 8
3 5 6 1971.83 269.93 13
-3 -5 -6 1928.03 230.454 19
3 5 6 2034.96 266.948 2
-3 -5 -6 1591.25 206.549 17
3 5 7 2694.99 314.663 13
-3 -5 -7 3004.22 289.159 19
3 5 7 3146.19 364.865 8
3 5 8 902.509 230.21 8
3 5 8 875.023 225.498 13
-3 -5 -8 592.329 150.154 19
3 5 9 171.095 157.578 8
3 5 9 -81.5234 154.372 13
-3 -5 -9 65.543 98.9634 19
3 5 10 81.5505 117.897 22
3 5 10 158.531 129.074 13
-3 -5 -10 -32.2296 107.064 19
3 5 11 3182.3 335.282 13
3 5 11 3083.45 275.407 22
-3 -5 -11 3087.93 277.222 19
3 5 12 4280.33 280.313 22
3 5 12 4248.62 340.052 13
3 5 13 348.236 96.1336 22
3 5 13 534.21 123.551 13
-3 -6 10 804.859 165.678 23
3 6 -10 893.837 133.786 7
-3 -6 9 230.96 148.842 23
3 6 -9 327.545 121.834 7
3 6 -8 928.915 184.09 7
3 6 -8 1159.79 185.742 18
3 6 -7 -124.871 126.174 7
3 6 -7 36.2589 118.775 18
3 6 -6 425.032 158.553 7
3 6 -6 439.724 148.861 18
3 6 -6 451.598 160.081 9
3 6 -5 3277.59 313.544 7
3 6 -5 3707.49 326.232 18
3 6 -5 3584.48 347.936 9
3 6 -4 193.143 152.111 8
3 6 -4 88.828 148.57 9
3 6 -3 142.631 146.298 8
3 6 -3 133.558 140.923 9
3 6 -2 1012.4 226.839 8
-3 -6 2 988.63 268.879 1
3 6 -2 926.095 218.236 9
3 6 -1 19304 758.408 8
-3 -6 1 19006.2 831.336 1
3 6 -1 19994.6 779.741 9
3 6 0 -15.8724 128.231 8
3 6 0 20.3322 229.171 10
3 6 0 -13.99 121.154 9
3 6 1 362.82 158.814 8
-3 -6 -1 401.848 109.763 17
3 6 1 537.532 177.682 9
3 6 2 1674.76 253.823 8
-3 -6 -2 1565.01 195.046 17
3 6 2 1523.54 239.665 9
3 6 3 877.361 203.204 8
3 6 3 1135.79 197.142 2
-3 -6 -3 705.792 143.588 17
3 6 3 476.13 153.639 9
3 6 4 4531.63 376.286 13
-3 -6 -4 5498.26 356.836 17
3 6 4 5673.09 408.329 2
3 6 4 5497.7 449.507 8
3 6 5 2672.81 309.887 13
3 6 5 2373.9 317.933 8
3 6 6 11305.2 615.227 13
3 6 6 11362.2 657.284 8
3 6 7 13821.3 698.349 13
3 6 7 14019.9 728.725 8
-3 -6 -8 20480.2 685.962 19
3 6 8 20326.5 848.154 13
3 6 8 19986.8 839.264 8
3 6 9 -21.4935 122.395 8
3 6 9 143.912 159.834 13
-3 -6 -9 11.9156 115.581 19
-3 -6 -10 394.421 130.938 19
3 6 10 118.377 118.95 13
3 6 11 671.648 158.729 13
3 6 12 351.344 108.441 13
-3 -7 9 2138.51 237.992 23
-3 -7 8 197.969 149.74 23
3 7 -8 148.646 106.167 7
-3 -7 7 2970.48 337.221 23
3 7 -7 2563.21 252.517 7
3 7 -6 5085.97 352.295 7
3 7 -5 18047.5 697.128 8
3 7 -5 18058.4 648.379 7
3 7 -5 19894 720.529 9
3 7 -4 1390.78 232.018 8
3 7 -4 1780.72 261.199 9
3 7 -3 5484.73 439.933 8
3 7 -3 5375.69 429.26 9
3 7 -2 4803.67 422.051 8
3 7 -2 4612.73 406.886 9
3 7 -1 2391.72 316.751 8
3 7 -1 2283.22 302.928 9
3 7 0 123.291 137.781 8
3 7 0 366.064 178.366 9
3 7 1 375.993 165.232 8
3 7 1 407.165 178.564 9
3 7 2 8421.73 556.34 8
3 7 2 9408.63 562.895 9
3 7 3 7418.4 528.314 8
3 7 4 11298.4 649.945 8
3 7 5 5318.53 416.277 13
3 7 5 5546.4 459.229 8
3 7 6 2384.95 296.347 13
3 7 6 2141.66 297.719 8
3 7 7 781.281 202.446 13
3 7 7 784.969 205.682 8
3 7 8 775.872 179.525 8
3 7 8 718.635 191.887 13
3 7 9 6523.86 429.793 13
3 7 9 5199.15 355.553 8
3 7 10 1778.06 220.13 13
3 7 11 1718.29 184.037 13
-3 -8 8 394.601 119.227 23
-3 -8 7 -17.6 115.866 23
3 8 -6 357.304 114.914 8
-3 -8 6 445.847 160.824 23
3 8 -5 2927.67 270.152 8
-3 -8 5 3254.86 327.817 23
3 8 -4 340.442 128.167 8
3 8 -4 607.396 164.376 9
3 8 -3 7181.76 478.173 8
3 8 -3 7081.84 449.502 9
3 8 -2 561.293 168.721 8
3 8 -2 553.898 189.635 9
3 8 -1 4711.64 417.511 8
3 8 -1 4740.39 398.521 9
3 8 0 2691.19 324.269 8
3 8 1 8289.19 549.678 8
3 8 2 4779.57 423.625 8
3 8 3 3826.31 376.819 8
3 8 4 268.201 140.373 8
3 8 5 325.001 150.775 8
3 8 6 3822.97 318.945 13
3 8 6 3792.77 345.479 8
3 8 7 247.474 110.326 13
3 8 7 252.731 128.258 8
3 8 8 914.496 158.512 8
3 8 8 1059.73 170.508 13
3 8 9 742.868 133.863 13
3 8 10 1171.59 132.978 13
3 9 -5 2533.44 198.507 8
3 9 -4 844.589 152.187 8
3 9 -3 421.196 131.602 8
3 9 -2 1039.57 196.942 8
3 9 -1 227.758 128.643 8
3 9 0 11472.4 581.895 8
3 9 1 102.922 118.378 8
3 9 2 231.193 123.269 8
3 9 3 3007.68 301.958 8
3 9 4 16785.3 648.57 8
3 9 5 254.965 117.622 8
3 9 6 1791.65 193.63 8
3 10 -2 5269.89 276.781 8
3 10 -1 1010.18 145.91 8
3 10 0 579.136 128.304 8
3 10 1 182.741 85.9578 8
3 10 2 177.286 97.4678 8
3 10 3 1501.28 164.927 8
4 -8 -3 2983.07 294.987 21
4 -8 -2 347.813 157.242 21
4 -8 -1 2399.74 299.696 21
-4 8 1 2293.1 175.992 5
4 -8 0 218.363 149.429 21
-4 8 0 246.771 88.3431 5
-4 8 -1 396.597 143.602 12
4 -8 1 719.621 190.906 21
-4 8 -1 524.656 107.168 5
4 -8 2 4687.49 389.335 21
-4 8 -2 4511.39 322.536 12
4 -8 2 5360.11 309.709 6
-4 8 -2 4550.17 253.277 5
4 -8 3 29.6297 126.231 21
-4 8 -3 12.9209 93.0147 12
4 -8 4 758.863 181.244 21
-4 8 -4 377.299 115.169 12
4 -8 5 4730.27 304.758 21
-4 8 -5 5377.64 306.39 12
-4 8 -6 75.1455 88.3787 12
4 -7 -6 186.052 140.437 21
4 -7 -5 3237.17 347.168 21
4 -7 -5 2828.37 205.91 11
4 -7 -4 -7.16551 165.565 21
-4 7 4 -380.352 158.702 20
-4 7 3 54.5453 147.729 20
4 -7 -3 81.2303 173.858 21
-4 7 3 251.704 103.393 5
4 -7 -2 412.903 206.447 21
-4 7 2 362.554 162.466 20
4 -7 -2 198.4 131.383 6
-4 7 2 232.09 99.8782 5
4 -7 -1 789.589 260.035 21
4 -7 -1 1057.28 212.181 6
-4 7 1 1058.79 163.047 5
4 -7 0 1431.67 291.41 21
-4 7 0 1371.95 236.621 12
-4 7 0 1620.91 194.851 5
4 -7 1 519.191 225.516 21
-4 7 -1 253.726 140.703 12
4 -7 2 54.676 164.518 21
-4 7 -2 315.46 145.511 12
4 -7 3 14.1145 149.517 21
-4 7 -3 364.672 161.175 12
4 -7 4 124.206 147.838 21
-4 7 -4 38.0995 126.487 12
4 -7 5 2004.13 270.313 21
-4 7 -5 2063.42 251.262 12
4 -7 5 1948.07 353.335 23
4 -7 6 70.5147 192.39 23
-4 7 -6 26.7301 118.451 12
-4 7 -7 997.278 171.334 12
4 -7 7 1008.85 259.883 23
4 -7 8 2391.97 319.394 23
-4 7 -8 2224.04 206.75 12
4 -7 9 318.216 179.298 23
-4 7 -9 -3.49216 66.6276 12
-4 6 8 247.825 139.795 20
4 -6 -7 -17.4615 160.109 21
-4 6 7 119.098 135.529 20
4 -6 -7 -224.897 113.195 11
-4 6 6 1870.8 295.21 20
4 -6 -6 2236.48 218.265 11
4 -6 -6 2368.08 347.666 21
-4 6 5 2856.08 363.234 20
4 -6 -5 3356.39 294.92 6
4 -6 -5 2812.19 421.543 21
4 -6 -4 178.731 193.434 21
-4 6 4 35.2189 151.483 20
4 -6 -4 169.76 124.8 6
4 -6 -3 2789.37 430.859 21
-4 6 3 2962.45 367.96 20
4 -6 -3 2387.8 294.887 6
4 -6 -2 797.467 269.579 21
-4 6 2 657.486 207.89 20
4 -6 -2 685.856 199.708 6
-4 6 2 669.17 161.429 5
4 -6 -1 223.864 224.615 21
-4 6 1 569.272 205.379 12
-4 6 1 742.53 201.258 20
-4 6 1 430.461 134.625 5
4 -6 0 28.7471 195.381 21
-4 6 0 -70.5492 164.337 12
-4 6 0 128.332 125.088 20
4 -6 1 789.524 235.019 21
-4 6 -1 597.886 186.458 12
-4 6 -1 1007.54 226.067 20
4 -6 2 9963.06 671.326 21
-4 6 -2 8609.76 544.197 12
4 -6 3 20358.6 1079.83 23
4 -6 3 22085 963.551 21
-4 6 -3 20364.7 819.977 12
4 -6 4 22382 943.222 21
-4 6 -4 21883 835.673 12
4 -6 4 20845.1 1136.03 24
4 -6 4 22016.1 1160.33 23
4 -6 5 3107.49 487.098 24
4 -6 5 3439.66 380.522 21
-4 6 -5 3277.62 338.962 12
4 -6 5 2725.65 467.513 23
4 -6 6 194.516 229.322 24
4 -6 6 213.12 229.018 23
4 -6 6 172.2 162.818 21
-4 6 -6 220.984 135.662 12
4 -6 7 422.129 260.772 24
-4 6 -7 511.17 170.539 12
4 -6 7 416.565 243.391 23
4 -6 8 2377.07 384.614 24
-4 6 -8 2674.72 275.551 12
4 -6 8 3055.29 458.663 23
4 -6 9 726.369 241.563 23
4 -6 9 662.133 231.489 24
-4 6 -9 867.946 165.842 12
4 -6 10 1662.2 268.667 24
-4 6 -10 1767.43 183.232 12
4 -6 10 1501.3 275.172 23
-4 5 9 3139.43 195.733 24
-4 5 9 2796.82 304.661 20
4 -5 -8 582.384 218.39 21
-4 5 8 486.295 186.453 20
4 -5 -8 536.06 119.703 11
4 -5 -7 4485.41 498.473 21
-4 5 7 4359.15 459.708 20
4 -5 -7 4438.31 314.558 19
4 -5 -7 3948.27 308.573 11
4 -5 -6 -8.89448 218.99 21
-4 5 6 -19.169 161.027 20
4 -5 -6 -70.0105 124.855 6
4 -5 -6 31.1981 102.461 19
4 -5 -5 3976.5 520.592 21
-4 5 5 3425.05 423.975 20
4 -5 -5 3584.99 362.168 6
4 -5 -5 4241.71 350.397 19
4 -5 -4 208.426 246.792 21
-4 5 4 263.541 193.03 20
4 -5 -4 192.326 170.444 6
4 -5 -4 1.30519 126.12 19
4 -5 -3 532.382 245.191 21
-4 5 3 709.295 236.348 20
4 -5 -3 651.318 209.304 6
4 -5 -3 413.486 148.68 19
4 -5 -2 9890.16 738.763 21
-4 5 2 8988.2 587.209 12
4 -5 -2 9649.73 496.921 19
4 -5 -1 12683.9 797.751 21
-4 5 1 11831 661.642 12
-4 5 1 14119.1 702.802 20
4 -5 0 10516 711.686 21
-4 5 0 9734.71 587.17 12
-4 5 0 11842.2 633.595 20
4 -5 1 217.785 200.116 21
-4 5 -1 161.28 172.559 12
-4 5 -1 447.061 186.386 20
-4 5 -2 2397.23 302.471 12
4 -5 2 1721.13 314.891 21
4 -5 2 2121.36 445.727 23
4 -5 3 1196.11 361.881 24
4 -5 3 881.18 327.783 23
4 -5 3 1409.96 297.355 21
-4 5 -3 1300.76 247.366 12
4 -5 4 884.484 304.244 24
4 -5 4 1078.88 349.172 23
4 -5 4 497.327 206.867 21
-4 5 -4 637.847 188.307 12
4 -5 5 9285.92 766.942 24
-4 5 -5 8369.34 529.42 12
4 -5 5 8982.9 810.938 23
4 -5 6 1944.03 412.284 24
4 -5 6 1485.23 397.09 23
-4 5 -6 2104.62 286.716 12
4 -5 7 3813.57 524.68 24
4 -5 7 3648.59 543.781 23
-4 5 -7 3705.06 356.871 12
-4 5 -7 3658.47 309.101 18
4 -5 8 5379.89 587.379 24
4 -5 8 5650.19 646.005 23
-4 5 -8 5374.31 411.672 12
-4 5 -8 5648.03 363.981 18
4 -5 9 101.376 209.922 24
4 -5 9 212.443 225.564 23
-4 5 -9 371.601 145.002 12
-4 5 -9 534.154 145.223 18
4 -5 10 510.921 232.049 24
-4 5 -10 745.204 161.193 12
4 -5 10 479.905 220.26 23
4 -5 11 -175.321 148.464 24
4 -5 11 -138.288 186.741 23
-4 5 -11 -57.9292 85.7226 12
4 -5 12 1958.86 259.593 23
-4 5 -12 2148.94 166.225 12
-4 4 10 181.182 155.919 20
-4 4 10 104.2 69.0784 24
-4 4 9 1580.77 183.624 24
-4 4 9 1591.57 290.755 20
4 -4 -9 1634.35 183.295 11
4 -4 -8 573.036 274.694 21
-4 4 8 107.558 195.263 20
4 -4 -8 275.521 120.035 19
4 -4 -8 219.611 128.069 11
4 -4 -8 317.716 121.3 4
4 -4 -7 6323.66 636.407 21
-4 4 7 6297.89 577.404 20
4 -4 -7 5523.25 417.569 11
4 -4 -7 6563.58 377.695 4
4 -4 -7 6383.85 434.402 19
4 -4 -6 15787.1 1008.5 21
-4 4 6 15842.5 895.153 20
4 -4 -6 16236 757.664 6
4 -4 -6 15973.5 700.164 19
4 -4 -6 16967.2 623.695 4
4 -4 -5 1095.41 330.069 21
-4 4 5 1334.4 293.341 20
4 -4 -5 1038.14 239.112 6
4 -4 -5 1516.02 244.847 19
4 -4 -5 1432.88 200.926 4
4 -4 -4 273.984 266.318 21
-4 4 4 619.374 213.567 20
4 -4 -4 327.095 193.193 6
4 -4 -4 356.761 153.753 19
4 -4 -4 335.542 133.719 4
4 -4 -3 44.9341 100.304 4
4 -4 -3 286.665 211.792 21
-4 4 3 318.796 172.205 20
4 -4 -3 305.394 141.105 19
4 -4 -3 132.074 151.828 6
4 -4 -2 1335.91 190.128 4
4 -4 -2 1320.15 313.889 21
-4 4 2 1068.43 242.546 12
-4 4 2 1601.62 262.85 20
4 -4 -2 1300 216.996 19
4 -4 -2 1014.22 303.888 16
4 -4 -1 3123.44 409.889 21
-4 4 1 3378.42 353.919 12
-4 4 1 3597.07 363.525 20
4 -4 -1 3144.87 301.243 19
4 -4 -1 2880.01 379.971 16
4 -4 -1 3457.64 279.672 4
4 -4 0 295.311 110.313 4
-4 4 0 551.152 182.546 12
4 -4 0 363.026 129.395 19
4 -4 0 238.353 173.438 16
-4 4 0 111.206 153.545 15
4 -4 1 768.363 163.371 4
4 -4 1 348.645 202.035 21
-4 4 -1 576.982 177.183 12
4 -4 1 665.315 166.472 19
4 -4 1 642.112 202.781 16
4 -4 1 432.965 354.26 23
-4 4 -1 631.394 180.656 15
4 -4 2 5427.94 569.102 24
-4 4 -2 4629.31 357.726 2
4 -4 2 5570.85 461.491 21
-4 4 -2 4691.54 376.437 12
4 -4 2 4485.79 554.495 23
4 -4 2 4617.76 325.174 4
-4 4 -2 4534.35 379.302 15
4 -4 3 3520.25 493.883 23
-4 4 -3 3831.1 337.75 2
-4 4 -3 4145.77 356.324 12
4 -4 3 3491.66 492.608 24
4 -4 3 3803.51 311.543 4
-4 4 -3 3361.53 344.408 15
4 -4 4 8909.28 727.564 24
-4 4 -4 8745.22 501.171 2
-4 4 -4 9002.31 513.921 12
4 -4 4 9675.56 810.193 23
-4 4 -4 9387.77 567.037 15
4 -4 5 1241.4 319.221 24
4 -4 5 1331.29 373.472 23
-4 4 -5 990.231 202.205 12
4 -4 6 7890.56 707.631 24
4 -4 6 7257.12 734.948 23
-4 4 -6 6647.96 458.933 12
-4 4 -6 8892.19 576.437 18
4 -4 7 5268.79 642.424 23
-4 4 -7 4044.5 372.106 12
-4 4 -7 3945.99 384.514 18
4 -4 7 4408.69 539.965 24
4 -4 8 8755.23 726.603 24
4 -4 8 10366.5 868.5 23
-4 4 -8 8783.25 527.34 12
-4 4 -8 9314.78 545.15 18
4 -4 9 568.415 240.918 24
4 -4 9 726.545 298.031 23
-4 4 -9 849.256 200.25 12
-4 4 -9 1229.17 205.085 18
4 -4 10 8824.51 654.205 24
4 -4 10 8600.15 709.782 23
-4 4 -10 8401.66 475.262 12
-4 4 -10 9138.24 476.7 18
4 -4 11 1046.45 256.785 24
4 -4 11 915.96 263.301 23
-4 4 -11 735.968 159.768 12
-4 4 -11 896.395 158.612 18
4 -4 12 1032.54 202.024 24
-4 4 -12 827.809 148.23 12
4 -4 12 1028.31 234.026 23
-4 4 -13 4.42705 60.9842 12
-4 3 11 110.784 58.3864 24
-4 3 10 263.656 162.787 20
4 -3 -10 262.939 100.225 11
-4 3 10 115.446 84.3564 24
-4 3 9 8654.05 458.869 24
-4 3 9 9093.69 639.618 20
4 -3 -9 8410.19 447.558 19
4 -3 -9 8485.96 457.167 11
4 -3 -8 1266.63 331.34 21
-4 3 8 1552.65 327.59 20
4 -3 -8 1446.25 232.148 11
4 -3 -8 1861.83 249.846 19
4 -3 -7 131.255 266.572 21
-4 3 7 281.273 218.808 20
4 -3 -7 482.228 164.164 19
4 -3 -7 418.95 175.462 11
4 -3 -6 9839.39 831.356 21
-4 3 6 9636.79 690.011 20
4 -3 -6 9255.06 602.671 6
4 -3 -6 10109.2 580.246 19
4 -3 -5 13022.6 921.119 21
-4 3 5 13220.5 756.208 20
4 -3 -5 12784.8 708.254 6
4 -3 -5 13492.9 660.645 19
4 -3 -4 8621.66 714.16 21
-4 3 4 10394.1 633.522 20
4 -3 -4 8492.18 577.563 6
4 -3 -4 8465.27 513.112 19
4 -3 -3 6572.77 593.429 21
-4 3 3 6853.91 483.546 20
4 -3 -3 6201.2 486.569 6
4 -3 -3 6177.81 427.148 19
4 -3 -3 6333.23 389.336 4
-4 3 3 6686.85 432.493 15
4 -3 -2 687.562 260.772 21
-4 3 2 584.837 192.459 12
-4 3 2 1075.44 228.156 20
4 -3 -2 754.297 169.956 19
-4 3 2 999.015 189.922 15
4 -3 -2 475.44 133.626 4
4 -3 -1 575.454 141.18 4
4 -3 -1 581.002 279.752 21
-4 3 1 320.766 212.532 12
4 -3 -1 410.134 139.968 19
4 -3 -1 730.549 220.493 16
-4 3 1 621.35 151.66 15
4 -3 0 28362.6 813.648 19
4 -3 0 29657.8 958.747 16
4 -3 0 29771.5 767.761 4
-4 3 0 27693.1 841.903 15
4 -3 1 2322.75 241.669 19
4 -3 1 2514.96 239.172 4
4 -3 1 1986.41 256.988 16
-4 3 -1 2493.05 270.548 15
-4 3 -2 7730.61 403.741 2
4 -3 2 7396.85 405.054 19
4 -3 2 7649.01 400.617 4
-4 3 -2 6806.74 438.292 15
4 -3 3 5761.25 625.207 23
4 -3 3 5938.57 368.492 4
-4 3 -3 5886.86 418.121 15
4 -3 4 11680.4 747.092 24
4 -3 4 9038.5 611.821 13
4 -3 4 12242.9 843.21 23
4 -3 4 10284.1 579.1 3
-4 3 -4 11001 518.655 12
4 -3 4 10301.8 498.659 4
-4 3 -4 11403.9 589.926 15
4 -3 5 2107.12 401.783 24
4 -3 5 1262.21 338.038 23
4 -3 5 1448.5 286.713 13
4 -3 5 1705.36 260.254 3
4 -3 5 1085.74 194.217 4
-4 3 -5 1701.38 232.449 12
-4 3 -5 1405.11 246.804 15
4 -3 6 15010.9 867.911 24
4 -3 6 13004.2 776.869 13
4 -3 6 15126 993.812 23
4 -3 6 14446.1 717.292 3
-4 3 -6 15294.9 641.378 12
-4 3 -6 14363 942.447 18
-4 3 -6 14835 722.033 15
4 -3 6 14018.2 642.13 4
4 -3 7 4230.78 498.334 24
4 -3 7 3397.98 433.317 13
4 -3 7 3811.54 532.232 23
-4 3 -7 4112.82 357.562 12
4 -3 7 3471 343.125 4
4 -3 8 -257.651 221.637 24
4 -3 8 86.7484 238.616 23
4 -3 8 200.441 218.311 13
-4 3 -8 -44.1386 121.95 12
-4 3 -8 -246.674 200.529 18
4 -3 9 1750.99 337.492 24
4 -3 9 1985.64 413.706 23
4 -3 9 1312.59 294.451 13
-4 3 -9 1399.73 234.923 12
-4 3 -9 1429.08 267.352 18
4 -3 10 1308.79 295.3 24
4 -3 10 1051.86 331.325 23
4 -3 10 757.949 220.233 13
-4 3 -10 1123.95 211.505 12
-4 3 -10 1362.41 227.868 18
4 -3 11 2248.78 327.55 24
4 -3 11 2190.42 369.479 23
-4 3 -11 2421.31 260.536 12
-4 3 -11 3216.55 297.306 18
4 -3 12 3849.9 357.039 24
4 -3 12 3554.26 395.184 23
-4 3 -12 3763.05 283.497 12
-4 3 -12 4336.77 302.716 18
-4 3 -13 1033.13 138.628 12
-4 2 11 1376.6 160.647 24
-4 2 10 674.713 152.4 24
4 -2 -10 805.339 190.264 14
-4 2 10 489.999 212.535 20
4 -2 -10 832.031 166.014 11
4 -2 -9 909.18 222.481 14
-4 2 9 1033.04 254.819 20
-4 2 9 1189.78 208.405 24
4 -2 -9 1065.14 186.115 19
4 -2 -9 929.822 194.349 11
4 -2 -8 6365.75 488.186 14
4 -2 -8 5709.59 636.123 21
-4 2 8 6155.04 576.752 20
4 -2 -8 6807.55 457.869 19
4 -2 -8 6632.47 478.521 11
4 -2 -7 29.313 257.49 21
-4 2 7 -120.625 205.619 20
4 -2 -7 46.8685 120.985 19
4 -2 -7 98.2308 143.647 11
-4 2 6 18069.7 894.17 20
4 -2 -6 17559.8 845.031 6
4 -2 -6 16810.2 736.637 19
4 -2 -6 16949.2 1070.74 21
4 -2 -5 303.588 266.996 21
-4 2 5 590.518 276.517 1
-4 2 5 202.615 156.892 20
4 -2 -5 112.647 153.66 6
4 -2 -5 182.492 120.079 19
-4 2 5 63.0083 194.144 15
-4 2 4 326.306 184.068 1
4 -2 -4 205.97 263.894 21
-4 2 4 520.579 169.573 20
4 -2 -4 215.954 143.734 6
4 -2 -4 286.89 126.699 19
-4 2 4 306.511 143.634 15
-4 2 3 1935.52 278.9 1
4 -2 -3 2018.68 404.026 21
-4 2 3 2186.9 276.193 20
4 -2 -3 1488.57 217.583 19
4 -2 -3 1689.18 251.481 6
-4 2 3 1692.72 239.105 15
4 -2 -2 -3.88995 95.6276 19
4 -2 -2 6.10503 90.7598 4
-4 2 2 88.4387 106.412 15
4 -2 -1 12296.3 531.917 19
4 -2 -1 14006.6 518.579 4
-4 2 1 13189.7 574.441 15
4 -2 0 18088.4 626.062 19
4 -2 0 17968 708.08 16
4 -2 0 18835.2 590.98 4
-4 2 0 17485.4 650.153 15
4 -2 1 3059.85 268.483 19
4 -2 1 3547.36 312.764 16
4 -2 1 3449.74 263.488 4
-4 2 -1 3375.23 299.539 15
4 -2 2 4446.74 313.442 19
4 -2 2 4520.92 301.066 4
-4 2 -2 4602.34 347.749 15
4 -2 3 42.5676 87.2784 4
4 -2 3 86.4868 114.116 3
-4 2 -3 87.934 102.185 15
4 -2 4 226.627 124.584 4
4 -2 4 183.243 121.407 3
-4 2 -4 273.083 134.965 15
4 -2 5 13914.3 655.026 3
-4 2 -5 14924 663.381 15
4 -2 5 14666.1 607.198 4
4 -2 6 713.268 378.895 24
4 -2 6 524.997 259.789 23
4 -2 6 538.85 177.733 4
4 -2 6 527.728 208.926 13
-4 2 -6 721.611 174.218 12
4 -2 6 478.228 171.297 3
-4 2 -6 1440.77 479.866 18
-4 2 -6 573.115 174.355 15
4 -2 7 1455.79 342.848 24
4 -2 7 997.884 307.034 23
4 -2 7 1026.53 262.648 13
4 -2 7 1241.67 232.38 4
-4 2 -7 1165.85 202.83 12
4 -2 7 1322.38 245.914 3
-4 2 -7 1391.37 238.561 15
4 -2 8 552.326 253.711 24
4 -2 8 450.731 266.708 23
4 -2 8 168.014 167.983 13
-4 2 -8 160.598 131.912 12
4 -2 9 3470.36 410.948 24
4 -2 9 3586.55 502.75 23
-4 2 -9 3311.27 317.577 12
-4 2 -9 4020.49 417.558 18
4 -2 9 3141.33 411.183 13
4 -2 10 905.081 313.039 23
4 -2 10 721.698 230.141 13
-4 2 -10 925.879 197.471 12
-4 2 -10 610.552 179.303 18
4 -2 11 2385.41 393.905 23
4 -2 11 1735.4 288.144 13
-4 2 -11 2133.4 248.002 12
-4 2 -11 2639.49 291.365 18
4 -2 12 30.6637 127.468 13
-4 2 -12 -27.3007 104.113 12
-4 2 -12 46.9695 97.1214 18
-4 2 -13 25.3494 82.9848 12
-4 2 -14 35.3104 71.2059 12
4 -1 -11 3102.96 274.535 14
-4 1 11 3182.6 249.516 24
4 -1 -10 6184.53 452.04 14
-4 1 10 7468.3 430.626 24
4 -1 -10 6973.24 367.991 19
4 -1 -10 7307.65 443.179 11
-4 1 9 1771.1 255.953 24
4 -1 -9 1320.75 260.238 14
4 -1 -9 1713.12 232.637 19
4 -1 -9 1505.94 251.307 11
4 -1 -8 4845.63 468.585 14
-4 1 8 5572.44 540.871 20
4 -1 -8 4456.83 371.845 19
4 -1 -8 4681.35 423.572 11
4 -1 -7 1211.89 290.719 14
4 -1 -7 986.022 340.781 21
-4 1 7 1261.66 287.677 20
4 -1 -7 1376.19 225.121 19
4 -1 -7 1583.89 269.068 11
4 -1 -6 2465 470.659 21
-4 1 6 3132.9 388.13 20
4 -1 -6 2660.46 354.454 6
4 -1 -6 2076.32 266.571 19
4 -1 -6 2608.13 338.917 11
4 -1 -5 1098.25 368.996 21
-4 1 5 1294.83 236.883 20
-4 1 5 859.108 247.983 1
4 -1 -5 1288.08 221.236 19
4 -1 -5 1140.68 249.604 6
4 -1 -4 11906.6 821.311 21
-4 1 4 11579.5 576.04 20
4 -1 -4 11998.6 639.273 6
4 -1 -4 11852.5 558.78 19
-4 1 4 10319.6 598.804 1
4 -1 -3 8629.41 460.808 19
-4 1 3 8301.15 501.233 1
4 -1 -2 2505.46 249.699 19
-4 1 2 2648.63 273.779 1
-4 1 2 2575.31 264.343 15
4 -1 -1 1784.65 208.665 19
4 -1 -1 1708.83 185.101 4
-4 1 1 1879.52 225.435 15
4 -1 0 2061.04 212.602 19
4 -1 0 2249.14 208.65 4
-4 1 0 2007.04 220.131 15
4 -1 1 3391.42 266.349 19
4 -1 1 3515.84 248.801 4
-4 1 -1 3098.04 269.688 15
4 -1 2 5595.08 336.953 19
4 -1 2 6154.06 331.806 4
-4 1 -2 5727 363.475 15
4 -1 3 506.18 117.491 4
4 -1 3 360.389 123.646 3
-4 1 -3 359.362 122.754 15
4 -1 4 14301.9 605.278 3
4 -1 4 14500.9 548.089 4
-4 1 -4 14622.5 597.538 15
4 -1 5 21347.7 763.987 3
-4 1 -5 21098.2 739.954 15
4 -1 5 21033.1 703.396 4
4 -1 6 6999.5 466.25 3
-4 1 -6 7639.69 661.032 18
-4 1 -6 6858.74 448.816 15
4 -1 6 7063.75 446.662 4
4 -1 7 -50.9319 251.707 23
4 -1 7 -11.1248 120.543 4
4 -1 7 291.127 195.844 13
-4 1 -7 168.071 156.673 12
4 -1 7 162.763 116.941 3
-4 1 -7 61.1362 118.154 15
4 -1 8 2153.74 437.563 23
4 -1 8 1571.87 293.377 13
-4 1 -8 1600.44 228.814 12
4 -1 8 1387.25 245.122 3
-4 1 -8 1556.33 267.008 15
4 -1 9 1610.97 374.837 23
4 -1 9 1090.8 260.756 13
-4 1 -9 1357.2 212.041 12
4 -1 10 185.112 175.891 13
-4 1 -10 -2.95972 116.16 12
4 -1 11 15476.4 799.807 13
-4 1 -11 16637.9 623.187 12
-4 1 -12 10612.4 468.209 12
-4 1 -12 11363.9 532.131 18
4 -1 12 10924.4 616.638 13
-4 1 -13 4657.93 282.792 12
4 -1 13 4509.27 349.34 13
-4 1 -14 -21.541 69.9178 12
-4 0 12 631.527 108.293 24
4 0 -11 161.951 131.61 14
-4 0 11 293.142 113.884 24
4 0 -10 190.221 159.03 14
-4 0 10 87.1171 108.174 24
4 0 -9 363.966 214.294 14
-4 0 9 97.6046 117.071 24
4 0 -9 228.626 131.085 19
4 0 -9 -42.3253 142.218 11
-4 0 8 12492.4 618.154 24
4 0 -8 11943.7 566.257 19
4 0 -8 12680 679.827 11
4 0 -8 11777.9 735.54 14
4 0 -7 4270.29 470.138 14
4 0 -7 4729.4 376.719 19
4 0 -7 4679.17 425.93 11
4 0 -6 8332.36 490.347 19
4 0 -6 8261.67 538.093 11
4 0 -5 11102.5 813.427 21
4 0 -5 12209.4 652.093 6
4 0 -5 11504.3 556.245 19
4 0 -5 12227.2 628.058 11
-4 0 5 10424.4 635.404 1
4 0 -4 4828.76 354.03 19
-4 0 4 4876.19 423.554 1
4 0 -3 3518.18 294.176 19
-4 0 3 3703.58 355.893 1
4 0 -2 515.043 126.171 19
-4 0 2 459.875 145.687 1
-4 0 1 2789.43 257.668 1
4 0 -1 2753.42 242.609 19
4 0 -1 2823.22 219.48 4
4 0 0 1026.58 153.861 19
4 0 0 1204.99 149.148 4
-4 0 0 990.193 169.96 15
4 0 1 13254.9 493.32 19
4 0 1 13944.3 461.494 4
-4 0 -1 13642.8 532.268 15
4 0 2 9281.33 418.493 19
4 0 2 9818.11 396.649 4
-4 0 -2 10018.3 456.396 15
4 0 3 4477.13 313.841 3
4 0 3 4256.78 278.51 4
-4 0 -3 4384.77 309.605 15
4 0 4 1745.55 213.086 3
4 0 4 1649.42 190.823 4
-4 0 -4 1649.58 200.438 15
4 0 5 18207.7 665.969 3
-4 0 -5 17199.2 623.655 15
4 0 5 16380.8 609.331 4
4 0 6 -32.5183 112.938 4
4 0 6 25.215 90.0462 3
-4 0 -6 120.681 111.45 15
4 0 7 144.357 135.012 4
4 0 7 99.7729 151.92 13
4 0 7 139.257 103.777 3
-4 0 -7 63.7021 107.384 15
4 0 8 398.119 178.256 13
4 0 8 162.252 144.198 3
-4 0 -8 416.866 185.924 15
4 0 9 2759.58 358.113 13
-4 0 -9 2590.37 267.82 12
-4 0 -9 3305.63 435.958 18
4 0 10 2139.04 331.366 13
-4 0 -10 1822.59 224.233 12
-4 0 -10 1523.36 265.795 18
4 0 11 4948.33 466.847 13
-4 0 -11 4938.83 336.491 12
-4 0 -11 4939.94 355.047 19
-4 0 -11 4411.5 369.605 18
-4 0 -12 3757.64 277.83 12
-4 0 -12 3873.99 292.211 19
-4 0 -12 4442.98 327.795 18
4 0 13 -64.5953 128.482 13
-4 0 -13 -88.6023 91.9061 12
-4 0 -14 3822.43 201.595 12
4 0 14 3752.28 271.368 13
-4 -1 12 1803.97 162.934 24
-4 -1 11 1508.2 187.377 24
4 1 -11 1166.96 212.69 14
4 1 -11 1642.48 172.878 9
4 1 -10 2711.19 345.236 14
-4 -1 10 2864.54 282.433 24
4 1 -9 -8.30162 199.771 14
-4 -1 9 68.6529 128.549 24
4 1 -8 -308.887 235.512 14
-4 -1 8 -70.0027 119.222 24
4 1 -8 168.725 155.199 11
4 1 -7 1250.85 331.874 14
-4 -1 7 1073.98 210.979 24
4 1 -7 1284.42 206.204 19
4 1 -7 1064.49 227.26 11
4 1 -7 1140.5 219.343 18
-4 -1 6 647.479 175.718 24
4 1 -6 916.108 176.673 19
4 1 -6 543.657 191.908 11
4 1 -6 633.331 267.286 14
4 1 -6 634.259 177.001 18
-4 -1 5 3349.53 371.254 1
4 1 -5 4277.02 334.969 19
4 1 -5 4432.74 385.317 11
4 1 -5 4152.54 361.34 18
-4 -1 4 1931.09 280.516 1
4 1 -4 2727.78 261.897 19
4 1 -3 144.827 102.679 19
-4 -1 3 355.331 125.912 1
-4 -1 2 101.367 113.852 1
4 1 -2 243.498 101.757 19
-4 -1 1 6271.98 385.894 1
4 1 -1 6982.2 358.377 19
4 1 -1 6611.75 315.81 4
4 1 0 69097.6 1087.36 19
4 1 0 71443.9 997.211 4
-4 -1 0 68661.9 1147.52 15
4 1 1 159813 1637.61 19
4 1 1 161314 1494.59 4
-4 -1 -1 158352 1730.84 15
4 1 2 114.943 76.5223 4
-4 -1 -2 92.2592 75.2367 15
4 1 3 252.975 94.785 4
4 1 3 276.698 96.2498 3
-4 -1 -3 153.214 81.4261 15
4 1 4 24644.2 681.109 4
-4 -1 -4 24913.8 676.774 15
4 1 5 3236.89 267.963 3
-4 -1 -5 2942.36 251.932 15
4 1 5 2877.73 262.707 4
4 1 6 2986.34 280.619 3
-4 -1 -6 2908.05 261.043 15
4 1 6 2510.43 271.425 4
4 1 7 493.364 171.038 4
4 1 7 177.416 135.699 13
4 1 7 150.106 117.849 3
4 1 8 897.655 210.822 22
4 1 8 491.954 197.432 13
4 1 8 709.729 194.892 3
-4 -1 -8 590.125 323.948 18
4 1 9 15320.6 788.785 13
4 1 9 15205.6 721.159 22
-4 -1 -9 16331.6 766.798 18
4 1 10 5786.97 498.273 13
4 1 10 5418.44 451.867 22
-4 -1 -10 4930.35 403.028 18
4 1 11 17355.3 833.175 13
4 1 11 15490.5 738.357 22
-4 -1 -11 16466.7 665.649 19
-4 -1 -11 17065.5 642.911 18
4 1 12 6210.11 483.24 13
-4 -1 -12 6418.07 332.238 12
-4 -1 -12 7272.06 407.923 19
4 1 13 221.606 142.974 13
-4 -1 -13 131.268 116.195 19
4 1 14 1463.31 195.141 13
-4 -2 11 -10.7923 88.2075 24
4 2 -11 -24.173 97.4427 9
-4 -2 10 242.379 118.805 24
4 2 -10 159.197 114.375 9
4 2 -10 177.373 164.308 14
4 2 -9 12158.9 760.972 14
-4 -2 9 11596.4 553.62 24
4 2 -9 12324.9 598.359 18
4 2 -9 12558 589.003 9
4 2 -8 10649.2 750.608 14
-4 -2 8 10996.3 551.232 24
4 2 -8 11377.7 613.992 18
4 2 -7 10917.3 765.602 14
-4 -2 7 10909.6 540.879 24
4 2 -7 11081.5 614.657 11
4 2 -7 10847 611.008 18
4 2 -6 2584.71 422.13 14
4 2 -6 3118.56 340.897 11
4 2 -6 3016.65 334.598 18
4 2 -5 23.3474 248.376 14
4 2 -5 93.6871 128.47 11
-4 -2 5 32.5845 157.832 1
4 2 -5 18.403 109.769 18
-4 -2 4 77.1318 141.659 1
4 2 -4 201.419 108.552 19
4 2 -4 -143.741 285.001 10
4 2 -4 254.898 117.539 18
-4 -2 3 515.082 177.893 1
4 2 -3 538.491 124.533 19
4 2 -3 523.323 146.662 18
-4 -2 2 8427.78 488.668 1
4 2 -2 9263.88 404.101 19
4 2 -2 9134.33 363.999 4
-4 -2 1 5706.99 378.392 1
4 2 -1 5830.95 318.032 19
4 2 -1 5980.4 285.286 4
4 2 0 1638.42 179.512 19
4 2 0 1598.87 157.053 4
-4 -2 0 1365.17 189.337 1
4 2 1 32751.8 656.047 4
-4 -2 -1 31765 737.816 15
-4 -2 -1 32861.8 760.436 1
4 2 2 236584 1812.7 4
-4 -2 -2 229774 1937.94 15
4 2 3 -74.4841 104.26 4
-4 -2 -3 -41.6416 75.845 15
4 2 4 617.745 131.951 4
4 2 4 370.014 110.351 3
-4 -2 -4 615.807 119.976 15
4 2 5 837.017 159.837 4
4 2 5 276.909 108.942 3
4 2 6 1753.79 208.388 3
4 2 6 1668.67 228.649 4
4 2 7 16325.8 735.661 13
4 2 7 14704.1 731.654 8
4 2 8 1082.97 218.508 22
4 2 8 831.457 226.956 13
-4 -2 -8 492.857 291.9 18
4 2 8 1011.22 236.762 8
4 2 9 197.903 145.802 22
4 2 9 265.586 176.639 13
4 2 10 1035.88 219.185 22
4 2 10 1505.98 274.3 13
4 2 11 1746.36 261.587 22
4 2 11 1622.94 286.748 13
-4 -2 -11 2141.25 262.195 19
4 2 12 262.16 134.509 22
4 2 12 320.805 163.962 13
-4 -2 -12 285.9 126.611 19
4 2 13 875.285 193.162 13
-4 -2 -13 829.949 147.995 19
4 2 14 3288.61 258.845 13
4 3 -11 395.482 108.508 7
-4 -3 10 2066.89 217.451 24
4 3 -10 2728.69 242.076 7
4 3 -10 2613.89 231.085 9
-4 -3 9 455.07 150.551 24
4 3 -9 594.099 168.233 18
4 3 -9 704.944 171.087 9
4 3 -8 13610.4 661.527 18
4 3 -8 14427.8 656.965 9
4 3 -7 343.252 160.857 18
4 3 -7 437.343 180.565 9
4 3 -7 328.431 225.439 14
4 3 -6 2299.42 348.233 10
4 3 -6 1852.68 272.091 18
4 3 -6 1632.21 270.06 9
4 3 -6 1482.76 342.454 14
-4 -3 5 144.472 182.72 1
4 3 -5 285.413 153.825 18
4 3 -5 51.3142 142.831 9
4 3 -5 244.837 214.22 14
-4 -3 4 -49.8936 159.797 1
4 3 -4 250.455 179.153 11
4 3 -4 -28.7942 101.432 18
4 3 -4 -43.3103 138.112 9
-4 -3 3 9473.86 578.44 1
4 3 -3 9567.09 502.797 18
4 3 -3 9393.07 512.496 9
-4 -3 2 10129.5 563.11 1
-4 -3 1 5629.56 397.407 1
-4 -3 0 647.24 153.405 1
-4 -3 -1 10997.1 495.467 1
-4 -3 -1 10662.3 410.59 15
-4 -3 -2 4901.35 322.572 1
4 3 4 102.771 103.05 4
4 3 5 73.9457 102.766 4
4 3 6 407.213 184.428 8
4 3 6 119.675 143.738 13
4 3 7 5067.49 426.391 13
4 3 7 4923.56 454.285 8
4 3 8 4240.93 412.315 13
4 3 8 3855.11 411.114 8
4 3 9 1797.81 291.26 13
4 3 9 1442.18 299.884 8
4 3 10 7307.88 540.631 13
4 3 10 6528.19 444.548 22
-4 -3 -10 7889.07 491.779 19
4 3 11 4549.03 420.659 13
4 3 11 4134.02 347.211 22
-4 -3 -11 3929.22 332.75 19
4 3 12 139.015 119.129 22
4 3 12 244.152 151.342 13
-4 -3 -12 196.095 87.9331 19
4 3 13 13.338 120.841 13
4 3 14 20.845 89.7593 13
4 4 -10 2886.5 221.033 7
-4 -4 10 3411.42 295.646 23
4 4 -9 22980.8 686.866 7
4 4 -9 22047.9 672.008 9
4 4 -8 2860.12 275.598 7
4 4 -8 3086.26 319.042 18
4 4 -8 2996.76 313.003 9
4 4 -7 91.42 129.951 7
4 4 -7 -189.026 134.285 18
4 4 -7 -157.079 179.213 9
4 4 -6 4431.44 344.957 7
4 4 -6 4774.39 404.045 18
4 4 -6 4436.35 404.566 9
4 4 -5 490.392 154.606 18
4 4 -5 296.089 146.111 9
4 4 -4 112.328 115.255 18
4 4 -4 15.016 157.478 9
-4 -4 4 105.303 176.334 1
-4 -4 3 10418.8 643.279 1
4 4 -3 9027.9 527.839 9
4 4 -2 7968.03 484.649 9
-4 -4 2 8406.87 553.014 1
4 4 -1 1251.29 240.848 10
-4 -4 1 1875.68 266.994 1
4 4 -1 1943.81 257.806 9
-4 -4 0 9696.56 540.777 1
-4 -4 -1 12.5559 105.846 1
-4 -4 -2 122.684 115.27 1
4 4 4 153.099 161.441 8
4 4 5 3486.66 339.188 13
4 4 5 3885.12 384.087 8
4 4 6 11749.6 613.65 13
4 4 6 11974.6 677.01 8
4 4 7 7039.43 499.461 13
4 4 7 6960.78 544.444 8
4 4 8 810.971 227.506 8
4 4 8 1049.72 228.252 13
4 4 9 1829.53 304.47 8
-4 -4 -9 2427.86 274.828 19
4 4 9 2318.4 315.122 13
4 4 10 1351.74 254.595 13
-4 -4 -10 1271.83 211.714 19
4 4 11 64.4388 124.723 13
-4 -4 -11 64.8877 96.5047 19
4 4 12 371.433 136.186 22
4 4 12 321.676 140.79 13
-4 -4 -12 263.806 119.021 19
4 4 13 5320.44 339.028 13
-4 -5 10 795.757 142.368 23
4 5 -10 602.693 109.345 7
4 5 -9 312.552 116.554 7
4 5 -8 3271.08 269.327 7
4 5 -8 2823.7 265.648 9
4 5 -7 1020.72 199.214 18
4 5 -7 1065.3 213.399 9
4 5 -6 4304.48 375.249 18
4 5 -6 4429.64 386.57 9
4 5 -5 166.377 129.615 18
4 5 -5 57.8653 170.44 9
4 5 -4 4467.35 448.56 10
4 5 -4 2666.68 330.579 9
4 5 -3 8081.36 605.186 10
4 5 -3 685.109 193.609 9
-4 -5 2 -136.112 191.522 1
4 5 -2 64.5112 139.148 9
4 5 -1 -103.063 131.651 8
-4 -5 1 26.9582 161.77 1
4 5 -1 -43.3364 133.866 9
4 5 0 328.563 180.544 8
-4 -5 0 234.122 163.276 1
4 5 0 476.853 169.377 9
4 5 1 3745.45 345.891 8
-4 -5 -1 3719.02 361.949 1
4 5 1 4270.64 368.189 9
-4 -5 -2 2211.82 290.065 1
4 5 2 3073.76 310.547 9
4 5 2 2978.49 328.686 8
4 5 3 19515.1 720.267 9
4 5 3 18493.1 773.766 8
4 5 4 4294.61 350.12 9
4 5 4 4120.46 391.397 8
4 5 5 507.633 159.201 8
4 5 5 281.857 169.587 13
4 5 6 1237.54 267.982 8
4 5 6 999.18 217.349 13
4 5 7 3425.46 357.956 13
-4 -5 -7 3190.69 300.775 19
4 5 7 3720.73 411.628 8
4 5 8 897.306 222.804 8
4 5 8 1189.15 247.335 13
-4 -5 -8 1275.18 208.121 19
4 5 9 7217.12 511.013 13
-4 -5 -9 7687.71 445.84 19
4 5 9 7416.19 543.109 8
4 5 10 1607.79 249.851 13
-4 -5 -10 1745.6 217.009 19
4 5 11 3143.81 311.577 13
-4 -5 -11 3171.93 260.12 19
4 5 12 420.306 126.212 13
4 5 13 48.3843 79.6855 13
-4 -6 9 1583.81 202.885 23
4 6 -7 1959.34 229.893 9
4 6 -6 597.738 176.085 9
4 6 -5 -81.337 143.358 9
4 6 -4 3214.43 348.002 9
4 6 -3 3839.96 380.856 9
4 6 -2 799.786 181.701 8
4 6 -2 650.074 199.528 9
4 6 -1 8743.8 525.573 8
4 6 -1 10449.5 652.857 10
4 6 -1 8993.61 562.448 9
4 6 0 7817.04 510.059 8
4 6 0 8227.07 525.546 9
4 6 1 1443.28 243.853 8
4 6 1 1782.99 263.454 9
4 6 2 10984.7 619.273 8
4 6 2 12512 630.562 9
4 6 3 1519.41 264.084 8
4 6 3 1915.37 270.996 9
4 6 4 -55.7259 139.214 8
4 6 5 5066.21 456.881 8
4 6 6 9906.43 558.488 13
4 6 6 9809.13 632.053 8
4 6 7 243.025 169.08 8
4 6 7 184.368 145.848 13
4 6 8 8823.3 534.032 13
4 6 8 9222.69 591.047 8
4 6 9 -21.5398 130.505 8
4 6 9 97.0277 130.827 13
4 6 10 952.103 185.482 13
4 6 11 5771.21 354.665 13
4 6 12 1550.03 163.904 13
-4 -7 8 2166.75 212.885 23
-4 -7 7 3502.18 312.027 23
4 7 -6 2898.03 259.855 9
4 7 -5 7328.54 436.768 9
4 7 -4 12414.2 602.225 9
4 7 -3 2040.29 259.605 8
4 7 -3 1865 273.594 9
4 7 -2 2571.18 304.849 8
4 7 -2 2717.46 332.5 9
4 7 -1 2311.24 287.437 8
4 7 -1 2757.54 329.896 9
4 7 0 734.194 194.506 8
4 7 0 659.375 194.421 9
4 7 1 1922.59 292.885 8
4 7 1 2701.22 323.853 9
4 7 2 420.283 165.079 8
4 7 2 483.13 175.23 9
4 7 3 7574.58 539.88 8
4 7 4 1046.17 232.678 8
4 7 5 -2.53721 123.396 8
4 7 6 201.818 136.314 8
4 7 6 -36.6738 121.296 13
4 7 7 262.986 155.397 8
4 7 7 477.843 155.04 13
4 7 8 4138.98 332.613 13
4 7 8 3939.43 351.422 8
4 7 9 12373.9 520.242 13
4 7 9 11024.3 505.392 8
4 7 10 363.433 111.345 13
4 7 11 -33.8911 77.8607 13
-4 -8 6 235.647 124.076 23
-4 -8 5 4097.67 302.487 23
4 8 -5 4344.53 269.567 9
4 8 -4 874.163 170.235 9
4 8 -3 6816.94 400.217 8
4 8 -3 6922.22 422.277 9
4 8 -2 1687.66 231.984 8
4 8 -2 2281.79 269.711 9
4 8 -1 10785.4 573.923 8
4 8 -1 10422.7 555.18 9
4 8 0 1072.1 218.501 8
4 8 0 930.617 204.537 9
4 8 1 188.396 121.057 8
4 8 2 29.8352 118.256 8
4 8 3 5751.68 445.512 8
4 8 4 10389.5 585.395 8
4 8 5 1010.09 203.225 8
4 8 6 -122.843 122.698 8
4 8 7 50.7117 109.879 8
4 8 8 278.434 107.49 8
4 8 8 312.218 113.61 13
4 9 -3 120.447 95.1617 8
4 9 -2 7202.67 367.527 8
4 9 -1 13987 552.081 8
4 9 0 3111.96 288.284 8
4 9 1 3965.36 323.577 8
4 9 2 2246.79 251.125 8
4 9 3 763.402 156.858 8
4 9 4 767.107 153.908 8
4 9 5 89.0184 93.3094 8
4 9 6 94.5241 87.9285 8
5 -7 -3 -21.247 134.414 21
5 -7 -2 1659.14 247.184 21
5 -7 -1 5271.73 402.922 21
5 -7 -1 5331.49 297.982 6
5 -7 0 1577.18 250.101 21
5 -7 0 1351.27 183.516 6
5 -7 1 876.191 205.788 21
5 -7 1 769.105 159.801 6
5 -7 2 458.567 173.79 21
-5 7 -2 270.929 132.426 12
5 -7 2 423.982 144.139 6
-5 7 -3 260.75 124.249 12
-5 7 -4 1222.24 174.649 12
-5 7 -5 1169.62 162.62 12
-5 7 -6 497.603 113.997 12
5 -6 -5 5606.19 401.32 21
-5 6 5 6282.31 400.675 20
5 -6 -5 6042.06 290.955 11
5 -6 -4 1715.34 277.622 21
-5 6 4 2138.27 266.991 20
5 -6 -4 2084.48 211.597 6
5 -6 -3 2411.8 335.788 21
-5 6 3 1980.59 269.971 20
5 -6 -3 2064.73 233.062 6
5 -6 -2 7268.75 565.013 21
-5 6 2 6621.14 457.86 20
5 -6 -2 6785.19 422.945 6
5 -6 -1 9296.31 633.297 21
-5 6 1 9202.71 529.5 20
5 -6 -1 9054.25 517.453 6
5 -6 0 808.395 235.886 21
-5 6 0 773.986 196.259 12
-5 6 0 945.233 199.62 20
5 -6 0 1154.83 218.822 6
5 -6 1 213.622 179.477 21
-5 6 -1 27.2816 138.515 12
-5 6 -1 84.9955 110.605 20
5 -6 2 9296.6 596.02 21
-5 6 -2 9152.42 517.722 12
-5 6 -2 9687.51 489.796 20
-5 6 -3 8750.01 496.652 12
5 -6 4 586.368 252.365 23
-5 6 -4 665.121 173.775 12
5 -6 5 -150.572 211.574 23
-5 6 -5 67.1399 114.811 12
5 -6 6 117.878 204.508 23
-5 6 -6 44.8202 106.437 12
5 -6 7 2350.88 374.789 23
-5 6 -7 2101.59 225.176 12
5 -6 8 1465.38 283.423 23
-5 6 -8 1284.05 163.414 12
-5 6 -9 3514.15 212.151 12
5 -6 9 3714.15 355.757 23
5 -6 9 3628.42 227.92 10
-5 5 7 2244.09 249.282 20
5 -5 -7 2024.05 167.589 11
-5 5 6 524.952 172.588 20
5 -5 -6 471.242 124.546 11
5 -5 -5 -110.566 164.647 21
-5 5 5 88.5593 126.089 20
5 -5 -5 162.037 135.092 6
5 -5 -4 259.617 197.115 21
-5 5 4 217.949 143.217 20
5 -5 -4 228.928 146.265 6
5 -5 -4 214.229 133.447 19
5 -5 -3 1523.19 343.447 21
-5 5 3 1571.46 264.829 20
5 -5 -3 1822.33 274.507 6
5 -5 -3 1048.98 188.666 19
5 -5 -2 356.386 236.965 21
-5 5 2 459.506 182.171 20
5 -5 -2 257.639 163.233 6
-5 5 1 2281.51 304.487 12
5 -5 -1 2547.12 392.73 21
-5 5 1 2803.9 330.383 20
5 -5 -1 2221.81 316.864 6
5 -5 0 13492.1 790.981 21
-5 5 0 14860.2 707.585 20
5 -5 1 1027.05 289.977 21
-5 5 -1 462.005 191.549 12
-5 5 -1 682.215 191.83 20
5 -5 2 4989.88 581.343 23
-5 5 -2 6058.06 451.413 12
5 -5 3 1445.04 395.474 23
-5 5 -3 2196.6 292.228 12
5 -5 4 6989.89 717.758 23
-5 5 -4 6812.87 462.863 12
-5 5 -5 14454.8 647.901 12
5 -5 5 15985.7 1060.88 23
5 -5 6 395.694 281.036 23
-5 5 -6 371.071 156.016 12
5 -5 7 1099 311.796 24
5 -5 7 1636.22 369.875 23
-5 5 -7 1699.02 238.09 12
5 -5 8 254.167 188.088 24
5 -5 8 751.906 280.71 23
-5 5 -8 757.221 162.829 12
5 -5 9 574.479 201.775 24
5 -5 9 945.188 283.076 23
-5 5 -9 793.72 149.737 12
5 -5 10 456.434 196.449 23
-5 5 -10 440.01 106.336 12
-5 4 8 2561.88 194.087 24
-5 4 8 2304.61 263.733 20
5 -4 -8 2771.59 204.094 11
5 -4 -7 446.547 197.345 21
-5 4 7 160.595 148.901 20
5 -4 -7 277.719 107.639 11
5 -4 -6 9024.04 655.119 21
-5 4 6 9514.94 615.468 20
5 -4 -6 9887.79 480.212 19
5 -4 -6 9964.11 513.085 11
5 -4 -6 9155.06 401.961 4
5 -4 -5 3320.09 460.968 21
-5 4 5 3745.57 410.876 20
5 -4 -5 3826.41 373.311 6
5 -4 -5 3441.58 312.085 19
5 -4 -5 3628.71 284.533 4
5 -4 -4 19.7541 99.4889 4
5 -4 -4 120.417 210.803 21
-5 4 4 65.8428 139.51 20
5 -4 -4 -64.1664 147.649 6
5 -4 -4 39.4588 112.496 19
5 -4 -3 2827.69 438.371 21
-5 4 3 2778.57 352.084 20
5 -4 -3 2633.12 344.078 6
5 -4 -3 2679.78 293.546 19
5 -4 -3 2124.5 243.383 4
5 -4 -2 5798.15 582.18 21
-5 4 2 6641.89 513.662 20
5 -4 -2 4873.59 459.493 6
5 -4 -2 5005.96 391.076 19
5 -4 -2 5276.46 363.546 4
5 -4 -1 4541.29 504.932 21
-5 4 1 3873.6 371.243 12
-5 4 1 4127.89 401.923 20
5 -4 -1 3624.12 328.5 19
5 -4 -1 3875.97 320.006 4
5 -4 0 9678.66 676.51 21
-5 4 0 8870.86 542.204 12
5 -4 0 7598.04 458.304 19
5 -4 0 8634.35 461.487 4
-5 4 -1 5629.29 436.051 12
5 -4 1 5359.57 372.683 4
5 -4 2 146.354 117.395 4
5 -4 2 199.483 308.568 23
-5 4 -2 265.87 181.564 12
5 -4 3 551.416 161.749 4
5 -4 3 669.846 345.485 23
-5 4 -3 1015.64 220.948 12
5 -4 4 1127.14 385.136 23
-5 4 -4 1298.89 239.273 12
5 -4 5 4608.72 557.549 24
-5 4 -5 4778.93 391.81 12
5 -4 5 5068.95 671.588 23
5 -4 5 4049.72 352.926 4
5 -4 6 950.037 317.143 24
5 -4 6 1254.81 406.949 23
-5 4 -6 940.865 209.232 12
-5 4 -6 1585.75 295.442 18
5 -4 7 6722.84 627.341 24
5 -4 7 5362.22 660.095 23
-5 4 -7 6586.02 438.015 12
-5 4 -7 6123.92 443.802 18
-5 4 -8 17711.3 679.123 12
-5 4 -8 19011.1 701.875 18
5 -4 8 20093.3 1166.29 23
5 -4 9 5903.82 511.576 24
5 -4 9 6827.18 666.239 23
-5 4 -9 6904.96 403.664 12
-5 4 -9 8016.6 422.619 18
5 -4 10 1852.05 289.699 24
5 -4 10 2322.57 377.605 23
-5 4 -10 1954.5 209.734 12
5 -4 11 424.901 191.936 23
-5 4 -11 -22.5066 77.0737 12
-5 3 9 2579.91 189.004 24
5 -3 -9 2236.46 183.33 11
-5 3 8 1033.14 161.298 24
-5 3 8 915.776 218.158 20
5 -3 -8 1052.56 170.222 11
-5 3 7 5288.57 474.145 20
5 -3 -7 5528.8 370.711 19
5 -3 -7 5380.63 389.882 11
5 -3 -7 5822.18 342.457 4
5 -3 -6 5467.26 575.638 21
-5 3 6 6332.45 532.293 20
5 -3 -6 5920.2 414.391 19
5 -3 -6 5673.29 437.067 11
5 -3 -6 6234.26 380.798 4
5 -3 -5 19169.8 1047.64 21
-5 3 5 19816.9 912.87 20
5 -3 -5 18381.3 832.558 6
5 -3 -5 19016.3 761.273 19
5 -3 -5 20136.2 701.644 4
5 -3 -4 5747.49 603.341 21
-5 3 4 6577.73 527.998 20
5 -3 -4 6047.47 510.571 6
5 -3 -4 5934 442.074 19
5 -3 -4 6008.9 396.776 4
5 -3 -3 4932.18 559.354 21
-5 3 3 5745.05 479.555 20
5 -3 -3 5392.44 482.85 6
5 -3 -3 5283.11 412.289 19
5 -3 -3 5433.42 379.745 4
5 -3 -2 9243.46 710.082 21
5 -3 -2 8512.38 595.529 6
5 -3 -2 8191.94 507.765 19
5 -3 -2 8505.34 467.962 4
5 -3 -1 7829.1 489.107 19
5 -3 -1 7561.01 444.125 4
5 -3 0 1008.91 200.885 19
5 -3 0 1396.09 209.284 4
5 -3 1 353.66 143.991 4
5 -3 1 261.116 145.588 19
5 -3 1 24.1995 270.934 23
5 -3 2 667.722 173.764 4
5 -3 2 1180.88 389.963 23
-5 3 -2 972.767 211.043 12
5 -3 2 567.592 190.14 10
5 -3 3 7419.03 771.962 23
-5 3 -3 8832.1 496.925 12
5 -3 3 7549.27 462.577 4
-5 3 -4 9785.56 523.784 12
5 -3 4 9593.7 867.261 23
5 -3 4 8997.91 521.172 4
5 -3 5 1452.8 339.642 24
5 -3 5 2271.17 485.102 23
-5 3 -5 1633.38 252.157 12
5 -3 5 1682.58 260.003 4
5 -3 6 152.864 220.149 24
5 -3 6 -352.38 316.815 23
5 -3 6 -100.515 138.985 4
-5 3 -6 1.9972 128.292 12
5 -3 7 -82.4977 225.873 24
5 -3 7 142.991 264.391 23
5 -3 7 117.698 146.573 4
-5 3 -7 -65.4303 125.336 12
5 -3 8 246.013 216.755 24
5 -3 8 491.782 288.882 23
-5 3 -8 714.079 180.212 12
-5 3 -8 581.737 227.291 18
5 -3 9 604.729 275.699 23
-5 3 -9 339.889 146.824 12
5 -3 10 -89.1283 234.481 23
-5 3 -10 14.8651 103.245 12
-5 3 -10 -55.3065 140.296 18
5 -3 11 720.392 241.904 23
-5 3 -11 671.625 132.599 12
5 -3 12 2192.94 286.047 23
-5 3 -12 2669.86 187.815 12
-5 2 10 35.8685 66.0581 24
-5 2 9 2200.1 204.75 24
5 -2 -9 1875.59 204.014 11
5 -2 -8 1228.43 171.98 4
-5 2 8 1301.4 193.489 24
-5 2 8 1420.97 280.854 20
5 -2 -8 1349.45 191.796 19
5 -2 -8 1186.08 202.921 11
-5 2 7 246.884 186.66 20
5 -2 -7 367.61 136.172 19
5 -2 -7 415.78 152.187 11
5 -2 -7 528.474 145.943 4
5 -2 -6 -60.6876 258.747 21
-5 2 6 111.972 175.365 20
5 -2 -6 6.32142 103.133 19
5 -2 -6 71.6332 159.775 11
5 -2 -6 53.6594 117.065 4
5 -2 -5 894.711 317.6 21
-5 2 5 831.055 229.566 20
5 -2 -5 1119.24 266.241 6
5 -2 -5 868.665 189.74 19
5 -2 -5 995.985 185.341 4
5 -2 -4 149.436 124.91 4
5 -2 -4 503.039 260.373 21
-5 2 4 417.868 184.883 20
5 -2 -4 346.816 180.519 6
5 -2 -4 209.698 133.479 19
5 -2 -3 979.911 180.611 4
5 -2 -3 740.585 322.144 21
-5 2 3 1220.84 232.663 20
5 -2 -3 887.874 262.603 6
5 -2 -3 924.612 191.666 19
5 -2 -2 -12.1418 98.1495 4
-5 2 2 46.9192 119.971 20
5 -2 -2 13.6851 107.993 19
5 -2 -1 5891.16 423.931 19
5 -2 -1 6397.63 408.619 4
-5 2 1 6548.47 469.233 15
5 -2 0 1071.25 190.458 4
5 -2 0 1054.49 196.283 19
5 -2 0 875.319 221.856 10
-5 2 0 1107.84 213.952 15
5 -2 1 414.446 137.533 4
5 -2 1 224.228 259.865 23
5 -2 1 135.384 103.279 19
5 -2 1 331.603 174.49 10
-5 2 -1 491.049 170.543 15
5 -2 2 126.696 112.827 4
5 -2 2 115.786 252.253 23
5 -2 2 63.8973 146.34 10
-5 2 -2 47.868 152.081 15
5 -2 3 20.4334 110.456 4
5 -2 3 -1.6331 235.136 23
-5 2 -3 79.7959 117.946 15
5 -2 4 314.128 148.63 4
5 -2 4 694.835 371.369 23
5 -2 4 426.383 171.806 13
-5 2 -4 333.914 169.687 15
5 -2 5 1912.36 443.656 23
5 -2 5 1610.03 298.325 13
5 -2 5 2097.99 287.284 4
5 -2 6 5411.04 515.756 13
5 -2 6 6785.39 748.652 23
-5 2 -6 5783.32 719.861 18
5 -2 6 5764.74 456.354 4
5 -2 7 2847.45 385.453 13
5 -2 7 2770.98 506.952 23
-5 2 -7 3217.67 307.523 12
5 -2 7 2693.44 331.614 4
5 -2 8 6019.61 555.262 13
5 -2 8 6980.97 749.597 23
-5 2 -8 6475.16 417.197 12
5 -2 9 1018.25 342.825 23
5 -2 9 479.568 220.751 13
-5 2 -9 528.078 157.663 12
-5 2 -9 855.05 252.427 18
5 -2 10 2540.05 362.987 13
5 -2 10 2691.58 448.355 23
-5 2 -10 2532.03 248.589 12
-5 2 -10 2424.91 308.792 18
5 -2 11 1338.72 324.798 23
5 -2 11 1067.39 231.868 13
-5 2 -11 1125.6 162.256 12
-5 2 -11 1165.6 187.832 18
-5 2 -12 3029.92 210.169 12
5 -2 12 3285.72 252.989 10
-5 1 10 2177.87 176.584 24
-5 1 9 26.0278 86.9281 24
5 -1 -9 200.039 115.372 11
-5 1 8 1125.16 187.504 24
5 -1 -8 1326.17 197.721 19
5 -1 -8 1223.26 209.233 11
5 -1 -8 992.887 164.162 4
5 -1 -7 -4.50417 103.915 19
5 -1 -7 49.5098 122.604 11
5 -1 -7 5.63737 98.2954 4
-5 1 6 1383.68 264.709 20
5 -1 -6 1139.44 218.687 19
5 -1 -6 941.377 216.559 11
5 -1 -6 1525.71 218.7 4
5 -1 -5 2986.24 470.987 21
-5 1 5 3529.23 386.906 20
5 -1 -5 2995.55 365.925 6
5 -1 -5 2928.52 323.659 19
5 -1 -5 2858 339.734 11
5 -1 -5 3183.15 298.732 4
5 -1 -4 604.623 310.91 21
-5 1 4 648.618 197.479 20
5 -1 -4 768.369 223.701 6
5 -1 -4 528.021 167.573 19
5 -1 -4 702.495 168.425 4
-5 1 3 5503.91 429.739 20
5 -1 -3 4820.92 448.192 6
5 -1 -3 4683 390.111 19
5 -1 -3 4660.82 350.535 4
5 -1 -2 12654.7 673.871 6
5 -1 -2 12276.2 605.668 19
5 -1 -2 12323.2 548.278 4
-5 1 2 13250.7 646.479 15
5 -1 -1 373.432 130.996 4
5 -1 -1 606.162 170.968 19
5 -1 -1 398.617 186.688 6
5 -1 -1 508.274 190.688 10
-5 1 1 432.074 162.302 15
5 -1 0 282.165 118.501 4
5 -1 0 235.202 128.476 19
5 -1 0 -75.7636 157.522 10
-5 1 0 219.319 125.734 15
5 -1 1 1229.55 188.399 4
5 -1 1 581.84 156.378 19
5 -1 1 1149.2 213.603 10
-5 1 -1 873.263 188.658 15
5 -1 2 9886.73 551.374 10
5 -1 2 9420.44 805.479 23
5 -1 2 9851.53 491.94 4
-5 1 -2 9466.05 526.074 15
5 -1 3 899.18 181.601 4
5 -1 3 936.918 328.165 23
5 -1 3 877.023 200.887 13
5 -1 3 1114.56 234.687 10
-5 1 -3 1111.24 203.72 15
5 -1 4 15895.7 744.691 13
5 -1 4 16221 1060.5 23
5 -1 4 15973.8 667.905 4
-5 1 -4 15638 684.47 15
5 -1 5 -15.7398 121.681 4
5 -1 5 36.7336 274.851 23
5 -1 5 127.652 176.429 13
5 -1 5 78.9162 142.917 3
-5 1 -5 178.116 131.018 15
5 -1 6 8733.75 821.266 23
5 -1 6 8233.64 601.063 13
5 -1 6 9245.96 576.648 3
-5 1 -6 8136.87 537.372 15
5 -1 6 7958.94 519.137 4
5 -1 7 88.1345 260.786 23
5 -1 7 -78.7647 137.423 4
5 -1 7 -18.8724 168.291 13
5 -1 8 -3.37498 286.507 23
5 -1 8 -62.6778 162.694 13
5 -1 9 9291.13 798.526 23
5 -1 9 8865.63 658.356 13
-5 1 -9 11340 732.691 18
5 -1 10 19607.5 1062.86 23
-5 1 -10 21991.5 853.335 18
5 -1 10 18685.4 906.526 13
5 -1 11 433.542 188.269 13
-5 1 -11 15.2962 164.358 18
5 -1 12 63.4308 128.144 13
-5 1 -12 122.235 112.48 18
5 -1 13 2579.69 244.739 13
-5 0 10 1273.04 144.656 24
5 0 -10 1394.92 156.909 9
-5 0 9 956.04 156.724 24
-5 0 8 4379.29 323.82 24
5 0 -8 3818.76 293.388 19
5 0 -8 4689.22 383.285 11
5 0 -8 4276.25 302.055 4
-5 0 7 6911.14 421.638 24
5 0 -7 6361.52 406.81 19
5 0 -7 6800.54 485.412 11
5 0 -7 6680.81 402.209 4
5 0 -6 5492.76 403.127 19
5 0 -6 5598.32 452.841 11
5 0 -6 6203.89 403.219 4
5 0 -5 182.988 119.628 19
5 0 -5 263.125 181.861 11
5 0 -5 315.155 135.963 4
5 0 -4 4197.85 419.35 6
5 0 -4 3836.54 353.535 19
5 0 -4 4171.6 392.382 11
5 0 -4 4139.29 329.672 4
-5 0 3 8496.43 492.906 20
5 0 -3 7628.58 528.933 6
5 0 -3 7594.34 476.77 19
5 0 -3 7324.6 420.088 4
-5 0 3 6523.18 478.476 15
5 0 -2 6582.52 477.012 6
5 0 -2 6772.71 442.953 19
5 0 -2 5985.56 434.211 10
5 0 -2 6647.23 394.214 4
-5 0 2 6803.47 461.462 15
5 0 -1 430.885 124.771 4
5 0 -1 455.279 170.158 6
5 0 -1 361.161 132.152 19
5 0 -1 355.54 148.27 10
-5 0 1 312.805 122.889 15
5 0 0 1931.87 240.236 19
5 0 0 1860.46 271.406 10
5 0 0 1903.84 219.453 4
-5 0 0 1813.85 244.104 15
5 0 1 534.775 137.51 4
5 0 1 730.939 168.631 19
5 0 1 711.923 236.807 10
-5 0 -1 687.377 167.442 15
5 0 2 201.851 111.911 4
5 0 2 -84.1864 185.215 10
-5 0 -2 218.789 129.748 15
5 0 3 711.795 156.081 4
5 0 3 975.6 307.556 23
5 0 3 672.118 198.268 10
-5 0 -3 872.222 178.549 15
5 0 4 12622.2 920.234 23
5 0 4 12073.3 616.164 13
5 0 4 12869.5 609.524 3
5 0 4 12787.6 656.157 10
5 0 4 10887.8 534.079 4
-5 0 -4 11906 574.575 15
5 0 5 39.1643 117.261 4
5 0 5 129.686 306.366 23
5 0 5 18.6382 184.22 13
5 0 5 211.055 138.979 3
-5 0 -5 221.549 150.76 15
5 0 6 13659.1 1000.51 23
5 0 6 13289.3 724.07 13
5 0 6 14387.5 689.304 3
-5 0 -6 13871.8 638.888 15
5 0 6 13358.6 655.179 4
5 0 7 10376.7 879.736 23
5 0 7 10727.7 678.764 13
5 0 7 9540.2 577.789 4
5 0 8 2462.54 368.589 13
5 0 8 1729.78 457.948 23
5 0 9 598.518 229.565 13
-5 0 -9 5588.95 593.495 18
5 0 10 2897.95 385.034 13
5 0 10 3462.17 342.777 10
-5 0 -10 2235.67 315.745 18
5 0 11 4773.5 452.026 13
-5 0 -11 5695.96 361.132 19
-5 0 -11 5540.35 401.7 18
5 0 12 548.017 174.746 13
-5 0 -12 522.459 146.828 18
5 0 13 5681.69 374.386 13
-5 -1 10 334.248 106.869 24
5 1 -10 587.416 115.773 9
-5 -1 9 1834.45 196.626 24
5 1 -9 1990.22 228.751 9
-5 -1 8 5056.3 331.451 24
5 1 -8 4962.59 310.827 4
-5 -1 7 7333.73 420.273 24
5 1 -7 7422.98 496.957 11
5 1 -7 7239.11 399.759 4
5 1 -6 3177.61 301.27 19
5 1 -6 3112.22 344.623 11
5 1 -6 3179.98 286.14 4
5 1 -5 2996.8 305.85 19
5 1 -5 2969.61 329.695 11
5 1 -5 2970.49 274.903 4
5 1 -4 1222.92 205.741 19
5 1 -4 1464.3 257.94 11
5 1 -4 860.185 165.061 4
5 1 -3 16659.1 730.205 6
-5 -1 3 14222.9 714.852 1
5 1 -3 16069.7 664.556 19
5 1 -3 17967.9 719.504 11
5 1 -3 13575.1 633.514 10
5 1 -3 15767.7 592.131 4
5 1 -2 31.1921 80.8184 4
5 1 -2 -167.169 170.265 6
5 1 -2 -32.342 99.415 19
5 1 -2 60.9032 154.943 10
-5 -1 2 -256.455 133.786 15
5 1 -1 867.517 153.934 4
5 1 -1 520.154 146.121 19
5 1 -1 598.082 183.942 10
-5 -1 1 736.959 173.731 15
5 1 0 2035.08 233.307 19
5 1 0 2081.52 284.284 10
5 1 0 1843.45 205.951 4
-5 -1 0 1984.48 245.986 15
5 1 1 1517.65 280.228 10
5 1 1 1240.04 178.655 4
-5 -1 -1 1200.5 187.126 15
5 1 2 23117.3 862.197 10
5 1 2 24799 717.97 4
-5 -1 -2 23941 759.226 15
5 1 3 577.163 137.705 4
5 1 3 940.528 230.51 10
-5 -1 -3 750.999 158.601 15
5 1 4 -10.9205 110.789 4
5 1 4 -77.3557 143.602 10
-5 -1 -4 272.697 130.727 15
5 1 5 416.105 154.081 4
5 1 5 370.409 172.701 13
5 1 5 691.62 175.737 3
5 1 5 638.394 211.689 10
-5 -1 -5 437.514 146.018 15
5 1 6 503.68 341.513 23
5 1 6 1379.43 233.654 4
5 1 6 1011.51 224.523 13
5 1 6 1218.71 223.426 3
5 1 6 1508.15 266.13 10
5 1 7 88.2878 136.591 4
5 1 7 56.1894 140.062 13
5 1 7 41.0268 171.235 10
5 1 8 166.31 141.285 13
-5 -1 -8 116.462 299.696 18
5 1 8 223.769 177.404 10
5 1 9 2658.61 361.829 13
5 1 9 2102.48 285.31 10
5 1 10 490.089 193.437 13
-5 -1 -10 -309.436 268.974 18
5 1 11 2063.88 315.799 13
-5 -1 -11 2267.41 248.64 19
5 1 12 157.31 135.612 13
-5 -1 -12 162.941 102.433 19
5 1 13 2113.91 248.551 13
5 2 -10 4608.59 253.151 9
5 2 -9 -2.86507 94.6156 9
5 2 -8 7252.71 448.449 9
5 2 -7 4912.21 410.902 9
5 2 -6 846.15 162.743 4
5 2 -6 746.249 202.945 11
5 2 -5 2266.56 286.856 11
5 2 -5 2180.76 236.126 4
5 2 -4 6004.91 386.626 19
5 2 -4 7197.23 463.292 11
5 2 -4 7221.18 392.485 4
5 2 -3 3062.17 282.993 19
-5 -2 3 2806.19 352.958 1
5 2 -3 3444.76 271.271 4
-5 -2 2 3454.04 377.987 1
5 2 -2 4162.44 324.147 19
5 2 -2 3662.31 358.01 10
5 2 -2 4332.49 297.844 4
5 2 -2 4507.43 377.269 9
5 2 -1 3941.07 372.705 10
5 2 -1 4152.44 286.259 4
5 2 -1 4523.4 353.545 9
-5 -2 1 3979.05 322.392 15
5 2 0 8196.16 518.808 10
5 2 0 9231.42 419.377 4
-5 -2 0 7947.78 442.058 15
5 2 1 1216.04 169.814 4
5 2 1 1321.6 237.425 10
-5 -2 -1 896.124 167.169 15
5 2 2 562.626 140.809 4
5 2 2 647.373 199.767 10
-5 -2 -2 532.269 138.626 15
5 2 3 5.14445 88.1841 4
5 2 3 11.3963 150.605 10
-5 -2 -3 233.44 117.884 15
5 2 4 1003.79 235.83 8
5 2 4 1095 181.918 4
5 2 4 1633.18 264.227 10
5 2 5 4451.32 395.6 13
5 2 5 4442.36 405.445 10
5 2 5 4014.77 394.596 8
5 2 5 3918 338.858 4
5 2 6 1827.01 289.623 8
5 2 6 1999.26 296.351 13
5 2 6 2845.74 341.897 10
5 2 6 1928.74 263.595 4
5 2 7 7004.4 526.318 13
5 2 7 7246.01 491.716 10
5 2 8 457.522 197.21 13
-5 -2 -8 -140.921 260.709 18
5 2 9 2924.16 367.339 13
-5 -2 -9 3054.68 363.373 18
5 2 10 3192.15 375.647 13
5 2 11 6207.09 481.338 13
-5 -2 -11 6535.99 406.139 19
5 2 12 1536.7 240.049 13
-5 -2 -12 1500.46 186.632 19
5 2 13 171.232 108.761 13
5 3 -10 3624.81 207.892 9
5 3 -9 3976.81 278.862 9
5 3 -8 502.732 152.376 9
5 3 -7 102.044 150.997 9
5 3 -6 1284.98 249.95 9
5 3 -5 8162.8 621.35 10
5 3 -5 1560.28 273.784 9
5 3 -4 -534.072 240.93 10
5 3 -4 305.073 177.399 9
5 3 -3 184.285 149.736 9
-5 -3 2 760.923 255.977 1
5 3 -2 298.867 243.288 10
5 3 -2 1126.74 207.361 9
-5 -3 1 345.102 188.318 1
5 3 -1 216.353 167.063 10
-5 -3 1 -275.537 137.761 15
5 3 -1 108.255 117.17 9
5 3 0 2274.45 305.07 10
-5 -3 0 2024.42 234.893 15
5 3 0 2202.77 264.41 9
5 3 1 3169.28 340.199 10
5 3 1 3766.34 321.292 9
5 3 2 2469.66 307.866 10
5 3 3 139.05 161.175 8
5 3 3 223.193 118.326 4
5 3 3 297.45 177.153 10
5 3 4 288.249 161.839 8
5 3 4 470.006 148.975 4
5 3 4 603.554 199.655 10
5 3 5 3610.5 353.314 13
5 3 5 4106.35 383.524 10
5 3 5 3297.76 359.506 8
5 3 5 3361.13 305.144 4
5 3 6 5813.56 448.797 13
5 3 6 6061.09 444.066 10
5 3 6 5218.97 460.214 8
5 3 7 7495.07 531.567 13
5 3 7 6994.94 544.87 8
5 3 8 485.319 187.448 13
5 3 8 142.336 155.903 8
5 3 9 470.168 181.667 13
5 3 10 4755.42 430.927 13
5 3 11 4224.56 382.064 13
-5 -3 -11 3637.53 300.779 19
5 3 12 6378.22 421.771 13
5 3 13 210.351 106.022 13
5 4 -9 5294.84 280.275 9
5 4 -8 2297.86 238.472 9
5 4 -7 3695.77 331.568 9
5 4 -6 -16.0266 134.121 9
5 4 -5 3114.32 389.895 10
5 4 -5 117.799 149.469 9
5 4 -4 21408.8 910.949 10
5 4 -4 19016.9 818.822 9
5 4 -3 6636.71 517.959 10
5 4 -3 9509.09 581.707 9
5 4 -2 898.453 249.674 10
5 4 -2 1762.29 270.252 9
5 4 -1 831.831 230.1 10
5 4 -1 2049.98 288.459 9
5 4 0 3305.35 362.569 10
5 4 0 3908.32 361.636 9
5 4 1 2655.46 314.044 10
5 4 1 2186.51 278.133 9
5 4 2 509.286 167.7 8
5 4 2 113.087 148.957 10
5 4 2 528.691 177.764 9
5 4 3 1259.94 234.89 8
5 4 3 877.791 218.098 10
5 4 3 1351.5 221.683 9
5 4 4 5.05504 126.675 8
5 4 4 303.311 183.741 10
5 4 5 2856.9 343.055 8
5 4 6 7048.67 489.795 13
5 4 6 5780.93 497.109 8
5 4 7 2908.56 339.01 13
5 4 7 3211.37 383.015 8
5 4 8 700.212 214.29 8
5 4 8 965.018 225.787 13
5 4 9 382.132 174.836 13
5 4 10 2035.03 272.223 13
-5 -4 -10 2284.04 246.989 19
5 4 11 5763.67 407.397 13
-5 -4 -11 5253.6 326.669 19
5 4 12 420.598 128.535 13
5 4 13 4024.68 253.393 13
-5 -5 9 112.651 82.0319 23
5 5 -8 184.262 110.12 9
5 5 -7 288.869 138.233 9
5 5 -6 9826.92 531.177 9
5 5 -5 434.148 178.831 9
5 5 -4 2821.21 372.289 10
5 5 -4 293.005 164.353 9
5 5 -3 11236.3 747.58 10
5 5 -3 3630.84 377.473 9
5 5 -2 5507.46 513.23 10
5 5 -2 2210.78 304.345 9
5 5 -1 7671.15 547.004 10
5 5 -1 10911.8 610.003 9
5 5 0 1476.29 271.896 10
5 5 0 2808.17 316.953 9
5 5 1 4690.48 400.023 9
5 5 1 4677.39 389.599 8
5 5 2 7678.11 483.433 9
5 5 2 7814.48 513.993 8
5 5 3 170.244 131.821 8
5 5 3 349.155 142.911 9
5 5 4 55.9285 128.042 8
5 5 4 85.1741 133.012 9
5 5 5 1080.32 241.576 8
5 5 6 5355.13 469.54 8
5 5 7 3130.94 331.808 13
5 5 7 3160.72 370.845 8
5 5 8 1673.01 285.639 8
5 5 8 1127.36 230.51 13
-5 -5 -8 1261.02 193.798 19
5 5 9 1671.74 248.103 13
-5 -5 -9 1434.88 192.813 19
5 5 9 1240.49 236.203 8
5 5 10 2115.83 253.576 13
-5 -5 -10 2164.68 214.972 19
5 5 11 559.267 143.518 13
5 5 12 678.621 119.655 13
-5 -6 8 4534.4 280.775 23
5 6 -7 130.727 97.6753 9
5 6 -6 4931.59 339.45 9
5 6 -5 3113.23 310.215 9
5 6 -4 2219.94 284.498 9
5 6 -3 5303.89 429.598 9
5 6 -2 4574.73 428.486 10
5 6 -2 2356.93 305.781 9
5 6 -1 8275.67 589.235 10
5 6 -1 2090.14 302.692 9
5 6 0 2877.21 324.712 9
5 6 0 2981.64 319.871 8
5 6 1 52.4869 112.658 8
5 6 1 10.1838 138.951 9
5 6 2 1599.74 263.012 8
5 6 2 1746.39 259.998 9
5 6 3 283.8 141.826 8
5 6 3 391.941 159.842 9
5 6 4 3901.26 396.489 8
5 6 5 166.414 161.804 8
5 6 6 544.87 182.041 8
5 6 7 66.684 146.65 8
5 6 7 -66.5172 130.333 13
5 6 8 34.622 118.662 8
5 6 8 94.8682 103.893 13
5 6 9 772.185 158.558 13
5 6 9 688.143 167.298 8
5 6 10 134.388 89.8035 13
5 6 11 -6.82432 75.2174 13
-5 -7 6 -41.2386 86.7657 23
5 7 -6 28.1715 86.68 9
5 7 -5 542.995 138.089 9
5 7 -4 898.18 181.767 9
5 7 -3 986.716 201.96 9
5 7 -2 82.1929 134.771 9
5 7 -1 3679.4 343.518 9
5 7 -1 4043.89 330.252 8
5 7 0 3780.87 354.008 9
5 7 0 3317.52 322.603 8
5 7 1 360.951 149.424 8
5 7 1 199.165 141.476 9
5 7 2 399.873 156.742 8
5 7 2 461.602 171.339 9
5 7 3 368.089 156.695 8
5 7 4 2223.38 301.083 8
5 7 5 2836 319.727 8
5 7 6 3078.63 324.892 8
5 7 7 2843.72 297.005 8
5 7 8 10213.4 497.735 8
5 8 -4 6131.7 299.199 9
5 8 -3 305.006 117.995 9
5 8 -2 1713.43 217.068 9
5 8 -1 2772.03 275.882 9
5 8 -1 2683.23 242.699 8
5 8 0 -245.419 124.84 8
5 8 1 1183.6 192.961 8
5 8 2 180.338 123.158 8
5 8 3 1462.69 218.634 8
5 8 4 6102.58 408.735 8
5 8 5 3192.31 291.937 8
5 8 6 955.049 168.332 8
5 8 7 67.3282 74.6107 8
5 9 1 1616.7 172.241 8
5 9 2 1131.41 151.323 8
5 9 3 4065.5 264.972 8
5 9 4 4435.49 264.824 8
5 9 5 172.928 77.3466 8
-6 6 1 -33.3388 84.7368 20
6 -6 -1 -18.6207 89.3348 6
-6 6 0 1528.04 186.055 20
6 -6 0 1496.9 189.061 6
-6 6 -1 525.946 128.036 20
6 -6 1 545.543 145.872 6
-6 6 -2 -74.274 99.412 20
6 -6 2 -65.4245 102.075 6
6 -6 3 3387.68 277.693 6
-6 6 -4 -38.6893 104.328 12
-6 5 4 1311.92 189.535 20
6 -5 -4 1471.67 160.878 11
-6 5 3 283.345 116.587 20
6 -5 -3 215.77 112.056 6
-6 5 2 320.198 132.541 20
6 -5 -2 479.382 143.525 6
-6 5 1 1894.78 241.155 20
6 -5 -1 2382.16 271.205 6
-6 5 0 1015.06 186.79 20
6 -5 0 1135.34 215.686 6
-6 5 -1 58.9514 96.5645 20
6 -5 1 -11.974 130.24 6
-6 5 -2 817.48 172.429 12
-6 5 -2 974.644 183.671 20
-6 5 -3 5717.52 358.244 12
-6 5 -3 6694.8 395.179 20
-6 5 -4 9398.9 442.011 12
-6 5 -4 11041.5 477.183 20
-6 5 -5 10472.2 448.751 12
6 -5 5 10521.4 455.334 10
-6 5 -6 1569.12 193.53 12
6 -5 6 1353.09 186.641 10
-6 5 -7 88.7516 99.5912 12
6 -5 7 76.1001 96.6564 10
6 -5 8 1644.15 178.505 10
-6 4 6 251.987 76.9554 24
-6 4 6 154.389 110.974 20
6 -4 -6 253.479 91.7329 11
-6 4 5 44.859 130.47 20
6 -4 -5 -38.0166 89.0032 11
6 -4 -4 371.468 197.214 21
-6 4 4 343.737 137.734 20
6 -4 -4 516.924 150.355 6
6 -4 -4 439.883 135.516 11
-6 4 3 7.15198 122.405 20
6 -4 -3 43.9866 122.877 6
6 -4 -3 44.1687 128.641 19
-6 4 2 2916.08 319.526 20
6 -4 -2 2515.6 308.712 6
6 -4 -2 2207.72 225.792 4
-6 4 1 3934.73 368.536 20
6 -4 -1 3699.16 376.661 6
6 -4 -1 3390.8 280.153 4
-6 4 0 8950.81 537.873 20
6 -4 0 8344.16 549.284 6
6 -4 0 7930.79 424.649 4
-6 4 -1 1967.19 266.381 20
6 -4 1 1751.58 231.546 4
6 -4 2 -135.529 127.978 4
6 -4 3 -15.2937 137.9 4
6 -4 3 459.454 155.451 10
6 -4 4 1449.19 232.105 4
6 -4 4 1819.4 247.606 10
6 -4 5 1617.67 387.431 23
-6 4 -5 1462.93 221.324 12
6 -4 5 1764.53 249.822 10
6 -4 6 3915.26 553.523 23
-6 4 -6 4670.8 315.437 12
6 -4 6 4260.4 366.167 10
6 -4 7 68.4237 222.86 23
-6 4 -7 149.868 113.86 12
6 -4 7 60.125 117.474 10
-6 4 -8 386.439 118.867 12
6 -4 8 452.117 142.752 10
6 -4 9 1340.5 282.996 23
6 -4 9 1749.97 206.985 10
6 -4 10 2452.18 201.314 10
-6 3 7 457.746 92.7926 24
6 -3 -7 232.189 86.7185 11
-6 3 6 10690.4 530.605 20
6 -3 -6 9278.27 418.102 11
-6 3 5 9189.13 541.911 20
6 -3 -5 9089.51 463.592 11
6 -3 -4 589.374 140.403 4
-6 3 4 538.565 182.539 20
6 -3 -4 672.254 190.859 6
6 -3 -4 733.114 162.303 19
6 -3 -4 550.853 166.57 11
6 -3 -3 229.502 109.777 4
-6 3 3 345.37 167.032 20
6 -3 -3 209.649 172.516 6
6 -3 -3 134.286 118.56 19
6 -3 -2 676.649 154.635 4
-6 3 2 543.926 193.695 20
6 -3 -2 624.13 209.633 6
6 -3 -2 623.26 170.931 19
6 -3 -1 61.2244 102.841 4
-6 3 1 135.948 140.922 20
6 -3 -1 121.352 154.969 6
6 -3 -1 27.043 102.407 19
-6 3 0 4364.41 399.656 20
6 -3 0 3259.39 376.511 6
6 -3 0 3695.03 323.854 4
6 -3 1 1897.77 244.497 4
6 -3 2 821.464 183.034 4
6 -3 2 610.288 184.412 10
6 -3 3 2688.11 317.492 10
6 -3 3 1934.07 269.448 4
6 -3 4 248.92 291.768 23
6 -3 4 397.697 163.205 4
6 -3 4 237.974 161.943 10
6 -3 5 3298.93 575.269 23
6 -3 5 4625.95 414.478 10
6 -3 5 3848.84 362.769 4
6 -3 6 1051.05 372.939 23
6 -3 6 1301.19 246.767 10
6 -3 7 1147.3 361.395 23
6 -3 7 1735.63 273.024 10
6 -3 8 3354.07 511.408 23
-6 3 -8 3818.02 344.421 18
6 -3 8 3779.98 355.363 10
6 -3 9 3239.3 442.905 23
6 -3 9 3776.5 330.058 10
6 -3 10 1917.1 309.934 23
6 -3 10 1665.31 203.059 10
6 -3 11 1174.19 145.132 10
-6 2 7 255.941 89.1404 24
6 -2 -7 158.672 97.7688 11
-6 2 6 851.793 144.507 24
-6 2 6 991.415 217.811 20
6 -2 -6 792.182 156.543 11
-6 2 5 4254.2 390.145 20
6 -2 -5 3970.14 324.784 19
6 -2 -5 3888.24 336.653 11
6 -2 -5 3958.21 299.799 4
-6 2 4 1927.68 279.474 20
6 -2 -4 1229.07 233.26 6
6 -2 -4 1773.04 240.407 19
6 -2 -4 1233.34 221.755 11
6 -2 -4 1761.49 219.233 4
-6 2 3 8157.86 536.359 20
6 -2 -3 7560.57 534.535 6
6 -2 -3 6940.72 455.791 19
6 -2 -3 7775.27 448.187 4
-6 2 2 3007.18 338.218 20
6 -2 -2 2809.85 345.342 6
6 -2 -2 2462.87 292.743 19
6 -2 -2 2323.48 259.364 4
6 -2 -1 54.1013 116.009 4
-6 2 1 110.982 134.623 20
6 -2 -1 -71.337 160.138 6
6 -2 -1 93.7453 124.096 19
6 -2 0 33.7634 108.006 4
6 -2 0 -0.85699 154.047 6
6 -2 0 -24.7731 109.248 19
6 -2 1 6775.8 465.53 10
6 -2 1 7377.81 462.507 4
6 -2 2 3.33981 113.985 4
6 -2 2 55.6712 142.069 10
6 -2 3 2511.6 328.307 10
6 -2 3 2653.23 307.011 4
6 -2 4 4225.46 633.923 23
6 -2 4 5019.3 446.056 10
6 -2 4 4455.86 397.989 4
6 -2 5 9691.07 905.523 23
6 -2 5 9139.16 599.431 10
6 -2 5 7997.17 526.335 4
6 -2 6 1368.62 467.718 23
6 -2 6 1096.18 235.775 4
6 -2 6 885.317 238.9 10
6 -2 7 4459.32 631.032 23
6 -2 7 5285.36 456.365 10
6 -2 7 4585.39 412.434 4
6 -2 8 478.253 271.449 23
6 -2 8 304.507 166.778 10
6 -2 9 -21.3086 228.014 23
-6 2 -9 -320.519 195.099 18
6 -2 9 243.978 153.944 10
6 -2 10 44.8716 192.724 23
6 -2 10 13.9547 101.561 10
6 -2 11 257.182 105.559 10
6 -1 -8 3581.19 223.11 9
-6 1 7 3019.43 216.021 24
6 -1 -7 3030.82 258.545 11
6 -1 -6 798.662 147.331 4
-6 1 6 583.192 131.618 24
6 -1 -6 727.036 156.152 19
6 -1 -6 658.723 159.006 11
-6 1 5 3966.49 374.638 20
6 -1 -5 3969.24 337.596 19
6 -1 -5 4541.01 373.326 11
6 -1 -5 4469.77 327.302 4
6 -1 -4 33.5621 105.532 4
-6 1 4 -93.3305 138.783 20
6 -1 -4 11.1881 141.853 6
6 -1 -4 -89.3566 116.727 19
6 -1 -4 178.904 147.025 11
6 -1 -3 67.9126 101.506 4
-6 1 3 -220.62 142.358 20
6 -1 -3 91.9903 143.242 6
6 -1 -3 4.89188 114.594 19
6 -1 -3 25.9016 143.462 11
6 -1 -2 349.059 130.601 4
-6 1 2 501.053 172.061 20
6 -1 -2 738.004 214.556 6
6 -1 -2 520.076 169.26 19
6 -1 -1 1351.93 210.632 4
6 -1 -1 1665.6 279.502 6
6 -1 -1 1008.92 202.434 19
6 -1 -1 1497.31 243.146 10
6 -1 0 5187.74 444.522 6
6 -1 0 4792.83 397.631 19
6 -1 0 5355.05 419.532 10
6 -1 0 4610.9 363.727 4
6 -1 1 10629.2 613.526 6
6 -1 1 10442 594.44 10
6 -1 1 11332.5 564.372 4
6 -1 2 160.391 125.777 4
6 -1 2 121.135 150.178 10
6 -1 3 3783.06 385.515 10
6 -1 3 3402 335.974 4
6 -1 4 3121.16 372.633 10
6 -1 4 3027.81 334.978 4
6 -1 5 151.793 288.684 23
6 -1 5 -32.8041 131.693 4
6 -1 5 41.4143 164.079 13
6 -1 5 -20.8209 154.587 10
6 -1 6 61.1732 288.458 23
6 -1 6 383.918 168.441 4
6 -1 6 489.682 200.847 13
6 -1 6 229.91 170.176 10
6 -1 7 520.43 295.374 23
6 -1 7 576.798 221.599 13
6 -1 7 886.817 222.106 4
6 -1 7 858.937 236.957 10
6 -1 8 2452.53 368.533 13
6 -1 8 1855.04 430.416 23
6 -1 8 3047.91 362.294 10
6 -1 9 26.3113 229.131 23
6 -1 9 -70.6633 147.266 13
6 -1 9 -352.907 169.196 10
6 -1 10 1102.46 241.103 13
-6 1 -10 859.939 196.144 18
6 -1 10 1503.55 221.955 10
6 -1 11 161.995 144.542 13
6 -1 11 -49.1483 106.974 10
6 0 -8 737.161 130.303 9
6 0 -7 544.978 139.494 11
6 0 -7 695.514 147.638 9
6 0 -6 2.85235 97.1671 4
6 0 -6 6.40335 111.131 11
6 0 -6 38.3781 107.001 19
6 0 -5 5475.86 384.362 19
6 0 -5 4652.72 368.751 11
6 0 -5 5505.76 357.274 4
6 0 -4 1018.39 185.15 4
6 0 -4 803.436 183.96 19
6 0 -4 1382.08 237.647 11
6 0 -3 9518.3 582.298 6
6 0 -3 8610.47 515.847 19
6 0 -3 9144.27 530.161 11
6 0 -3 9008.06 480.977 4
-6 0 2 2669.5 307.48 20
6 0 -2 2459.94 316.193 6
6 0 -2 2363.47 291.923 19
6 0 -2 2844.08 314.08 11
6 0 -2 2196.52 280.386 10
6 0 -2 2393.47 261.884 4
6 0 -1 3714.62 375.78 6
6 0 -1 3896.84 362.08 19
6 0 -1 3242.59 347.219 10
6 0 -1 3807.5 322.49 4
6 0 0 500.918 152.196 4
6 0 0 782.883 224.983 6
6 0 0 336.887 161.435 10
6 0 1 181.446 117.132 4
6 0 1 456.551 198.068 10
6 0 2 1321.34 211.831 4
6 0 2 1038.03 231.761 10
6 0 3 2395.66 331.423 10
6 0 3 2345.3 285.085 4
6 0 4 2061.81 303.313 13
6 0 4 2235.46 335.784 10
6 0 4 3136.97 330.189 4
6 0 5 1986.46 302.853 13
6 0 5 1921.67 317.763 10
6 0 5 1942.02 280.203 4
6 0 6 9791.88 649.882 13
6 0 6 11600.2 697.423 10
6 0 6 10937.1 622.341 4
6 0 7 897.075 233.049 13
6 0 7 1126.33 236.375 4
6 0 7 953.922 251.056 10
6 0 8 168.62 157.231 13
6 0 8 364.888 191.715 10
6 0 9 88.9212 133.306 13
6 0 9 -188.985 158.196 10
6 0 10 71.7877 143.206 13
6 0 10 -43.7514 119.687 10
6 0 11 482.167 168.512 13
6 0 12 6558.4 394.469 13
6 1 -8 384.795 113.692 9
6 1 -7 7426.93 408.557 9
6 1 -6 2646.06 266.016 11
6 1 -6 2270.82 220.844 4
6 1 -6 2444.46 275.273 9
6 1 -5 3095.46 282.626 19
6 1 -5 2717.74 285.486 11
6 1 -5 3279.22 275.02 4
6 1 -5 3601.69 345.793 9
6 1 -4 1200.47 186.349 4
6 1 -4 1803.1 251.571 11
6 1 -4 1614.96 226.508 19
6 1 -4 2098.14 285.834 9
6 1 -3 1914.94 251.61 19
6 1 -3 1766.51 226.51 4
6 1 -3 1794.34 267.906 9
6 1 -2 114.513 103.28 4
6 1 -2 26.9162 106.873 19
6 1 -2 163.05 158.315 10
6 1 -2 124.444 137.001 9
6 1 -1 53.8657 100.101 4
6 1 -1 -68.5705 140.712 10
6 1 -1 15.9272 149.1 9
6 1 0 2829.45 350.417 10
6 1 0 2907.81 284.902 4
6 1 1 61.0062 105.538 4
6 1 1 85.2194 148.479 10
6 1 2 5575.79 475.793 10
6 1 2 5629.66 391.075 4
6 1 3 3017.43 374.544 10
6 1 3 2836.53 302.27 4
6 1 4 161.534 118.645 4
6 1 4 459.555 220.694 10
6 1 5 350.878 176.161 4
6 1 5 500.176 194.414 13
6 1 5 520.696 206.702 10
6 1 6 5439.5 479.921 13
6 1 6 5642.03 498.585 10
6 1 6 5115.72 425.83 4
6 1 7 175.746 142.972 13
6 1 7 327.248 171.027 4
6 1 7 468.388 209.635 10
6 1 8 -80.1167 157.508 13
6 1 8 -98.0244 157.814 10
6 1 9 16.9888 130.148 13
6 1 9 -264.116 153.785 10
6 1 10 134.748 150.547 13
6 1 11 3802.51 351.568 13
6 1 12 2776.41 267.495 13
6 1 13 848.065 137.538 13
6 2 -8 792.034 138.854 9
6 2 -7 557.507 142.154 9
6 2 -6 443.987 156.349 9
6 2 -5 5523 417.326 10
6 2 -5 321.974 166.111 9
6 2 -4 1683.72 210.208 4
6 2 -4 1723.17 277.107 9
6 2 -3 2164.22 232.506 4
6 2 -3 2038.96 285.946 9
6 2 -2 763.143 157.057 4
6 2 -2 286.705 191.568 10
6 2 -2 853.168 202.606 9
6 2 -1 470.277 184.706 10
6 2 -1 692.453 189.299 9
6 2 0 295.323 123.115 4
6 2 0 224.181 180.932 10
6 2 0 508.029 161.356 9
6 2 1 31962.2 1091.93 10
6 2 1 32500.5 870.759 4
6 2 2 67493.7 1606.02 10
6 2 2 71057.9 1309.47 4
6 2 3 30.4927 127.141 4
6 2 3 221.356 182.282 10
6 2 4 371.979 144.885 4
6 2 4 656.504 226.721 10
6 2 5 8388.15 583.933 10
6 2 5 7509.3 483.311 4
6 2 6 2076.8 306.295 13
6 2 6 2174.91 306.766 10
6 2 6 1990.1 276.301 4
6 2 7 254.968 147.184 13
6 2 7 365.88 169.408 10
6 2 8 158.616 165.39 13
6 2 8 -88.8203 160.311 10
6 2 9 -3.29266 128.864 13
-6 -2 -9 6.72544 222.954 18
6 2 10 6894.56 486.558 13
6 2 11 4195.2 351.852 13
6 2 12 4812.55 324.635 13
6 3 -8 8369.67 346.08 9
6 3 -7 7392.45 394.099 9
6 3 -6 1229.23 206.059 9
6 3 -5 4323.07 375.973 10
6 3 -5 2473.79 299.572 9
6 3 -4 5218.3 465.241 10
6 3 -4 126.757 162.95 9
6 3 -3 8.62297 200.49 10
6 3 -3 572.117 197.404 9
6 3 -2 2186.55 313.754 10
6 3 -2 3479.51 354.08 9
6 3 -1 541.975 197.253 10
6 3 -1 1024.78 223.175 9
6 3 0 3265.26 370.849 10
6 3 0 3424.35 332.102 9
6 3 1 1232.69 236.626 10
6 3 1 1261.13 218.21 9
6 3 2 13495.8 727.297 10
6 3 3 28958.4 1047.01 10
6 3 4 315.471 181.483 8
6 3 4 6.36407 146.13 10
6 3 5 1700.5 266.856 8
6 3 5 1517 229.447 4
6 3 5 1941.56 302.023 10
6 3 6 582.404 204.877 10
6 3 7 26.3636 137.339 13
6 3 7 284.076 162.29 10
6 3 8 2940.03 339.324 13
6 3 9 188.135 124.317 13
6 3 10 1475.21 234.89 13
-6 -3 -10 1202.45 179.159 19
6 3 11 548.512 150.256 13
6 3 12 -21.5388 81.0044 13
6 4 -7 3460.48 255.619 9
6 4 -6 2581.84 264.509 9
6 4 -5 627.125 170.94 9
6 4 -4 7552.7 500.531 10
6 4 -4 108.484 133.22 9
6 4 -3 5917.64 487.565 10
6 4 -3 -82.0795 174.711 9
6 4 -2 2409.93 316.216 10
6 4 -2 2936.02 331.975 9
6 4 -1 -530.438 226.475 10
6 4 -1 333.16 171.745 9
6 4 0 2001.4 313.724 10
6 4 0 3256.6 337.961 9
6 4 1 -56.8481 213.097 10
6 4 1 214.488 136.764 9
6 4 2 3196.13 360.089 10
6 4 2 4142.57 346.827 9
6 4 3 2447.88 324.076 10
6 4 4 19.8805 136.376 8
6 4 4 36.3418 146.389 10
6 4 5 111.135 144.694 8
6 4 5 225.002 153.304 10
6 4 6 516.599 191.156 8
6 4 7 27.4974 127.778 13
6 4 7 97.2271 115.293 8
6 4 8 4129.19 353.965 13
6 4 9 1678.6 229.908 13
-6 -4 -9 1607.86 200.509 19
6 4 10 1467.94 206.255 13
6 4 11 1675.41 193.538 13
6 5 -7 866.308 125.348 9
6 5 -6 236.152 117.173 9
6 5 -5 2196.33 247.604 9
6 5 -4 208.253 137.577 9
6 5 -3 5751.13 445.242 10
6 5 -3 35.866 126.016 9
6 5 -2 16084.9 736.216 10
6 5 -2 7127.32 481.403 9
6 5 -1 4385.83 414.968 10
6 5 -1 2341.95 295.01 9
6 5 0 2779.87 344.788 10
6 5 0 3460.32 339.05 9
6 5 1 -568.932 243.397 10
6 5 1 419.446 152.898 9
6 5 2 92.6733 121.44 9
6 5 3 1257.41 221.108 8
6 5 3 1086.62 184.769 9
6 5 4 -42.7166 289.839 10
6 5 4 2241.51 297.267 8
6 5 5 181.732 161.55 8
6 5 6 1132.51 221.776 8
6 5 7 4868.63 399.334 8
-6 -5 -8 1006.16 171.82 19
6 5 9 -120.634 105.062 13
6 5 10 -200.836 96.9111 13
6 6 -6 2121.13 168.459 9
6 6 -5 1167.27 166.894 9
6 6 -4 249.069 112.981 9
6 6 -3 29.1696 123.94 9
6 6 -2 78.9267 119.974 9
6 6 -1 5018.23 412.484 10
6 6 -1 693.166 178.253 9
6 6 0 9433.86 544.096 10
6 6 0 478.902 169.252 9
6 6 1 9786.17 551.957 10
6 6 1 204.669 143.176 9
6 6 2 181.997 151.748 8
6 6 2 75.8975 114.512 9
6 6 3 2372.4 254.666 9
6 6 3 1731.35 245.36 8
6 6 4 2737.3 297.73 8
6 6 5 719.909 188.656 8
6 6 6 692.334 163.154 8
6 6 7 67.6135 103.54 8
6 7 -4 848.439 128.584 9
6 7 -3 1873.45 202.429 9
6 7 -2 814.716 161.443 9
6 7 -1 135.539 119.162 9
6 7 0 1727.8 217.997 9
6 7 1 2339.18 249.742 9
6 7 2 9.79384 95.7466 8
6 7 3 5479.82 361.447 8
6 7 4 1702.43 215.727 8
6 7 5 16.5466 90.2768 8
6 7 6 4470.87 311.738 8
6 7 7 2696.96 231.944 8
6 8 2 588.644 126.473 8
6 8 3 283.254 105.269 8
6 8 4 128.082 83.5155 8
6 8 5 262.365 81.6842 8
7 -5 2 274.162 101.062 6
-7 4 2 483.792 125.189 20
7 -4 -2 513.911 112.681 6
7 -4 -2 276.198 89.6926 11
-7 4 1 395.493 120.175 20
7 -4 -1 610.575 135.754 6
7 -4 -1 714.542 128.453 11
-7 4 0 1050.2 158.258 20
7 -4 0 784.879 157.416 6
-7 4 -1 1789 208.428 20
7 -4 1 1852.45 221.11 6
-7 4 -2 63.0986 79.2523 20
7 -4 2 160.914 117.898 6
-7 4 -3 5205.57 322.477 20
7 -4 3 4926.41 330.64 6
-7 4 -4 2954.05 239.503 20
7 -4 4 2765.6 249.258 6
-7 4 -5 955.28 136.962 20
7 -4 5 604.868 134.933 6
7 -4 5 527.563 131.028 10
-7 4 -6 3672.28 221.363 20
7 -4 6 3337.93 224.502 6
7 -4 6 3433.74 230.846 10
-7 3 3 75.973 100.336 20
7 -3 -3 373.681 102.608 11
-7 3 2 4775.38 342.247 20
7 -3 -2 4501.54 318.675 6
7 -3 -2 4298.47 278.167 11
-7 3 1 5133.9 361.567 20
7 -3 -1 4549.18 335.24 6
-7 3 0 2771.61 277.161 20
7 -3 0 2728.58 280.349 6
7 -3 1 5303.59 384.548 6
7 -3 1 4584.86 329.227 4
7 -3 2 2528.4 282.097 6
7 -3 2 2344.56 248.707 4
7 -3 3 480.326 159.8 4
7 -3 3 578.81 161.921 6
7 -3 3 516.007 142.698 10
7 -3 4 -41.8589 121.55 6
7 -3 4 233.476 137.097 10
7 -3 5 1306.21 195.365 6
7 -3 5 1159.69 194.498 10
7 -3 6 1742.64 224.288 10
7 -3 7 722.611 148.921 10
7 -3 8 3331.62 251.207 10
7 -3 9 6653.87 293.595 10
-7 2 4 7966.76 401.216 20
7 -2 -4 8369.21 347.412 11
-7 2 3 1226.67 194.529 20
7 -2 -3 1085.22 161.395 11
-7 2 2 4703.36 353.515 20
7 -2 -2 3902.27 323.985 6
7 -2 -2 3810.58 283.857 11
7 -2 -2 4026.17 290.445 4
7 -2 -1 1018.37 171.754 4
-7 2 1 870.922 177.523 20
7 -2 -1 1075.38 204.73 6
7 -2 -1 750.422 162.457 11
-7 2 0 3185.53 317.639 20
7 -2 0 3145.54 319.231 6
7 -2 0 3136.14 277.845 4
7 -2 1 34.7588 104.402 4
-7 2 -1 9.0614 116.19 20
7 -2 1 -56.2819 135.217 6
7 -2 1 106.022 125.508 10
7 -2 2 401.469 143.268 4
7 -2 2 499.329 167.066 6
7 -2 2 442.106 150.605 10
7 -2 3 348.876 137.114 4
7 -2 3 441.434 159.187 6
7 -2 3 563.433 175.03 10
7 -2 4 2260.47 266.083 6
7 -2 4 2345.76 287.412 10
-7 2 -4 2837.12 742.784 18
7 -2 4 2835.23 299.369 4
7 -2 5 4962.16 395.588 10
7 -2 5 4575.76 364.841 4
7 -2 6 130.955 119.542 4
7 -2 6 78.7644 133.336 10
7 -2 7 -56.5632 119.673 10
7 -2 8 730.854 164.304 10
7 -2 9 336.902 104.842 10
7 -1 -5 380.327 100.835 11
7 -1 -4 402.477 117.779 11
7 -1 -3 2772.12 240.858 11
7 -1 -3 2419.82 226.001 4
7 -1 -2 609.279 142.69 4
-7 1 2 1334.8 213.385 20
7 -1 -2 1043.96 191.793 6
7 -1 -2 1220.1 187.05 11
7 -1 -1 1358.25 193.099 4
-7 1 1 1441.51 219.725 20
7 -1 -1 1298.76 220.68 6
7 -1 0 1270.4 198.197 4
-7 1 0 1674.97 241.164 20
7 -1 0 1846.66 249.959 6
7 -1 0 1216.4 205.385 10
7 -1 1 710.011 166.327 4
7 -1 1 701.029 188.382 6
7 -1 1 517.357 163 10
7 -1 2 819.126 176.536 4
7 -1 2 533.619 176.583 10
7 -1 3 -21.217 114.166 4
7 -1 3 129.676 137.832 10
7 -1 4 1036.03 206.755 4
7 -1 4 1312.61 238.359 10
7 -1 5 20.1943 127.279 4
7 -1 5 -85.6965 141.648 10
7 -1 6 -18.5349 123.189 4
7 -1 6 -68.4767 132.625 10
-7 1 -7 16397 781.211 18
7 -1 7 1897.88 261.306 10
-7 1 -8 4424.77 387.716 18
7 -1 8 2590.48 282.083 10
7 -1 9 225.295 117.272 10
7 -1 10 -8.53995 73.366 10
7 0 -5 721.487 127.693 9
7 0 -4 828.345 148.65 9
7 0 -3 -90.414 105.089 4
7 0 -2 972.719 169.325 4
7 0 -2 95.8531 239.964 10
-7 0 1 3367.5 305.576 20
7 0 -1 2434.05 266.299 10
7 0 -1 2968.09 279.63 4
7 0 0 -237.832 124.884 4
-7 0 0 130.559 104.955 20
7 0 0 45.4168 133.37 10
7 0 1 918.628 182.494 4
7 0 1 750.492 196.97 10
7 0 2 920.619 185.245 4
7 0 2 965.231 221.478 10
7 0 3 2957.84 344.378 10
7 0 3 2742.77 300.781 4
7 0 4 79.7671 122.157 4
7 0 4 713.582 213.034 10
7 0 5 3490.39 375.103 10
7 0 5 3121.27 328.234 4
7 0 6 444.402 152.988 4
7 0 6 448.437 184.722 10
-7 0 -7 11028.2 764.209 18
7 0 7 4412.56 386.877 10
-7 0 -8 7341.12 539.244 18
7 0 8 21.7371 124.157 10
7 0 9 -39.4408 104.165 10
7 0 10 5921.87 296.132 10
7 1 -6 3423.69 212.269 9
7 1 -5 1360.8 166.224 9
7 1 -4 69.3419 92.1375 9
7 1 -3 7300.04 384.533 9
7 1 -3 6163.09 341.933 4
7 1 -2 833.132 188.401 10
7 1 -2 1552.13 205.132 4
7 1 -1 2081.84 264.605 10
7 1 -1 2871.62 271.053 4
7 1 0 67.6489 98.2074 4
7 1 0 -60.4344 125.936 10
7 1 1 2042.1 285.916 10
7 1 1 2409.32 267.592 4
7 1 2 445.623 156.459 4
7 1 2 680.277 197.076 10
7 1 3 -21.1736 115.666 4
7 1 3 128.436 162.534 10
7 1 4 244.669 139.218 4
7 1 4 276.563 154.888 10
7 1 5 3157.9 365.019 10
7 1 5 2360.98 285.308 4
7 1 6 1122.3 208.137 4
7 1 6 1019.04 227.426 10
7 1 7 3213.84 325.638 13
7 1 7 4115.92 374.311 10
7 1 8 2236.57 278.658 13
7 1 8 2761.81 287.839 10
7 1 9 27.2904 110.021 13
7 1 9 -143.906 110.422 10
7 1 10 297.875 124.394 13
7 2 -6 2735 195.977 9
7 2 -5 1992.13 197.715 9
7 2 -4 4266.46 310.848 10
7 2 -4 3020.69 260.693 9
7 2 -3 1861.83 249.052 10
7 2 -3 1362.8 195.776 9
7 2 -2 583.565 183.39 10
7 2 -2 1302.13 197.605 9
7 2 -1 189.215 168.017 10
7 2 0 4690.09 401.867 10
7 2 0 5337.45 353.136 4
7 2 1 -55.2573 110.401 4
7 2 1 92.5899 144.458 10
7 2 2 44.1495 124.067 4
7 2 2 156.927 160.808 10
7 2 3 6634.36 503.325 10
7 2 3 6797.93 421.751 4
7 2 4 174.734 122.079 4
7 2 4 358.309 187.728 10
7 2 5 707.191 172.452 4
7 2 5 1004.46 227.435 10
7 2 6 -308.741 166.628 10
-7 -2 -7 -554.152 346.13 18
7 2 7 247.302 152.438 10
7 2 8 89.1685 121.576 13
7 2 8 351.321 144.79 10
7 2 9 465.047 148.138 13
7 2 10 48.5716 96.4231 13
7 3 -6 513.938 95.0875 9
7 3 -5 -40.0691 85.551 9
7 3 -4 272.942 113.648 9
7 3 -3 8874.61 464.297 10
7 3 -3 2549.43 257.162 9
7 3 -2 1567.66 231.623 10
7 3 -2 1803.9 224.415 9
7 3 -1 1640.03 253.434 10
7 3 -1 2202.92 242.283 9
7 3 0 279.73 166.234 10
7 3 1 2026.75 282.765 10
7 3 2 -13.6929 160.006 10
7 3 3 206.292 158.07 10
7 3 4 -70.2205 154.595 10
7 3 5 644.54 203.631 10
7 3 6 424.704 166.524 10
7 3 7 955.202 182.618 10
7 3 9 -198.766 113.526 13
7 3 10 2764.46 215.029 13
7 4 -5 1593.43 162.617 9
7 4 -4 127.516 105.512 9
7 4 -3 3344.13 306.864 10
7 4 -3 254.3 119.714 9
7 4 -2 8586.84 493.003 10
7 4 -2 968.656 178.467 9
7 4 -1 760.397 214.127 10
7 4 -1 121.767 105.828 9
7 4 0 274.769 163.633 10
7 4 0 756.543 158.112 9
7 4 1 566.015 200.647 10
7 4 2 799.94 218.769 10
7 4 3 -495.738 200.444 10
7 4 4 17.1882 154.831 10
7 4 5 1.85317 177.917 10
7 4 6 1398.73 225.251 10
7 5 -4 403.888 100.961 9
7 5 -3 8189.74 371.575 9
7 5 -2 4349.62 326.499 10
7 5 -2 3736.5 274.662 9
7 5 -1 7448.55 492.441 10
7 5 -1 184.359 113.052 9
7 5 0 7455 475.566 10
7 5 0 835.906 155.092 9
7 5 1 1515.91 260.981 10
7 5 1 -329.261 121.397 9
7 5 2 150.326 157.929 10
7 6 -2 350.506 104.533 9
7 6 -1 343.157 109.458 9
7 6 0 4070.15 257.877 9
7 6 1 2113.33 248.222 10
7 6 1 1788.87 183.555 9
7 6 2 3467.75 303.732 10
-8 2 -1 4372.16 261.42 20
-8 2 -2 358.285 103.264 20
-8 2 -3 132.59 85.1557 20
-8 2 -4 125.651 74.5548 20
8 -2 4 78.1926 100.026 10
-8 2 -5 64.8783 72.5997 20
8 -2 5 99.3427 92.3169 10
-8 2 -6 70.164 69.2845 20
-8 1 0 332.552 115.148 20
-8 1 -1 189.977 100.09 20
-8 1 -2 1439.73 175.009 20
8 -1 2 1299.57 162.776 10
-8 1 -3 343.624 106.729 20
8 -1 3 354.976 114.659 10
8 -1 4 177.859 105.528 10
8 -1 5 2429.39 223.228 10
8 -1 6 3055.35 235.27 10
8 -1 7 136.062 82.3062 10
-8 0 -1 3731.49 243.442 20
8 0 1 3121.9 243.452 10
-8 0 -2 1395.77 174.41 20
8 0 2 1206.52 177.27 10
8 0 3 249.435 114.433 10
8 0 4 174.642 114.346 10
8 0 5 1515.12 203.154 10
8 0 6 280.001 109.198 10
8 0 7 18.8292 89.1651 10
8 1 -1 714.569 154.917 10
8 1 0 56.584 150.966 10
8 1 2 268.803 123.598 10
8 1 3 1130.52 187.109 10
8 1 4 2921.15 274.721 10
8 1 5 164.497 124.651 10
8 1 6 852.984 156.814 10
8 1 7 1371.76 165.861 10
8 2 -1 797.971 162.661 10
8 2 1 2138.44 229.615 10
8 2 2 585.421 156.862 10
8 2 3 1388.66 202.023 10
8 2 4 914.391 176.948 10
8 2 5 139.35 106.848 10
8 2 6 472.288 129.238 10
8 2 7 1394.69 164.095 10
8 3 -1 5164.42 313.551 10
8 3 0 338.471 132.722 10
8 3 1 -236.907 143.292 10
8 3 2 17841.8 610.159 10
8 3 3 20957.5 663.18 10
8 3 5 -282.055 174.317 10
8 3 6 1936.98 204.837 10
8 4 -1 1855.97 182.453 10
8 4 0 6613.7 336.247 10
8 4 1 3377.24 275.988 10
8 4 2 94.8169 120.109 10
8 4 3 875.077 160.849 10
8 4 4 3746.86 264.179 10
