#------------------------------------------------------------------------------
#$Date: 2021-11-04 02:34:57 +0200 (Thu, 04 Nov 2021) $
#$Revision: 270282 $
#$URL: file:///home/coder/svn-repositories/cod/cif/1/56/51/1565111.cif $
#------------------------------------------------------------------------------
#
# This file is available in the Crystallography Open Database (COD),
# http://www.crystallography.net/
#
# All data on this site have been placed in the public domain by the
# contributors.
#
data_1565111
loop_
_publ_author_name
'Huang, Zhong-Hui'
'Liang, Xiao'
'Li, Chan-Juan'
'Gu, Qiong'
'Ma, Xuan'
'Qi, Shu-Hua'
_publ_section_title
;
 Talaromynoids A-I, Highly Oxygenated Meroterpenoids from the
 Marine-Derived Fungus <i>Talaromyces purpureogenus</i> SCSIO 41517 and
 Their Lipid Accumulation Inhibitory Activities.
;
_journal_issue                   10
_journal_name_full               'Journal of natural products'
_journal_page_first              2727
_journal_page_last               2737
_journal_paper_doi               10.1021/acs.jnatprod.1c00681
_journal_volume                  84
_journal_year                    2021
_chemical_absolute_configuration ad
_chemical_formula_moiety         'C26 H32 O10'
_chemical_formula_sum            'C26 H32 O10'
_chemical_formula_weight         504.51
_space_group_crystal_system      triclinic
_space_group_IT_number           1
_space_group_name_Hall           'P 1'
_space_group_name_H-M_alt        'P 1'
_atom_sites_solution_hydrogens   geom
_atom_sites_solution_primary     dual
_audit_creation_date             2019-10-30
_audit_creation_method
;
Olex2 1.2
(compiled 2018.05.29 svn.r3508 for OlexSys, GUI svn.r5506)
;
_cell_angle_alpha                112.706(3)
_cell_angle_beta                 95.017(2)
_cell_angle_gamma                110.165(2)
_cell_formula_units_Z            1
_cell_length_a                   8.2185(2)
_cell_length_b                   8.4465(2)
_cell_length_c                   10.2022(3)
_cell_measurement_reflns_used    9675
_cell_measurement_temperature    106(9)
_cell_measurement_theta_max      74.1200
_cell_measurement_theta_min      4.8510
_cell_volume                     593.06(3)
_computing_cell_refinement       'CrysAlisPro 1.171.39.33c (Rigaku OD, 2017)'
_computing_data_collection       'CrysAlisPro 1.171.39.33c (Rigaku OD, 2017)'
_computing_data_reduction        'CrysAlisPro 1.171.39.33c (Rigaku OD, 2017)'
_computing_molecular_graphics    'Olex2 (Dolomanov et al., 2009)'
_computing_publication_material  'Olex2 (Dolomanov et al., 2009)'
_computing_structure_refinement  'ShelXL (Sheldrick, 2015)'
_computing_structure_solution    'ShelXT (Sheldrick, 2015)'
_diffrn_ambient_environment      N~2~
_diffrn_ambient_temperature      106(9)
_diffrn_detector                 'Pilatus3R 200K-A'
_diffrn_measured_fraction_theta_full 0.993
_diffrn_measured_fraction_theta_max 0.975
_diffrn_measurement_details
;
List of Runs (angles in degrees, time in seconds):

  # Type    Start    End  Width  t~exp~   \w     \q     \k     \f   Frames
--------------------------------------------------------------------------
  1  \w    -13.00  16.00   0.50    0.58    --    0.00 -38.00 120.00   58
  2  \w    -29.00  31.00   0.50    0.58    --    0.00 -82.00   0.00  120
  3  \w     27.00  71.00   0.50    0.58    --    0.00  38.00  60.00   88
  4  \w    -89.00 -41.00   0.50    0.58    --    0.00 -38.00 120.00   96
  5  \w    -37.00  15.00   0.50    0.58    --    0.00 -38.00-180.00  104
  6  \w    -13.00  22.00   0.50    0.58    --    0.00  38.00  60.00   70
  7  \w    -89.00 -56.00   0.50    0.58    --    0.00 -38.00-180.00   66
  8  \w    -10.00  16.00   0.50    0.58    --    0.00 -38.00 -60.00   52
  9  \w     -9.00  21.00   0.50    0.58    --    0.00 -77.00 -60.00   60
 10  \w    -43.00 -17.00   0.50    0.58    --    0.00 -77.00 -60.00   52
 11  \w    -87.00 -47.00   0.50    0.58    --    0.00 -38.00 -60.00   80
 12  \w    -44.00 -11.00   0.50    0.58    --    0.00 -77.00-120.00   66
 13  \w     72.00 111.00   0.50    1.50    --   95.80  61.00-180.00   78
 14  \w     71.00 105.00   0.50    1.50    --   95.80  66.00-109.78   68
 15  \w     18.00 109.00   0.50    1.50    --   95.80 -82.00   0.00  182
 16  \w     95.00 121.00   0.50    1.50    --   95.80 -77.00-180.00   52
 17  \w     68.00 109.00   0.50    1.50    --   95.80  75.00  -9.46   82
 18  \w     73.00 110.00   0.50    1.50    --   95.80  58.00 -35.72   74
 19  \w     72.00  98.00   0.50    1.50    --   95.80  61.00 -60.00   52
 20  \w      6.00  81.00   0.50    1.50    --   95.80 -77.00-180.00  150
 21  \w    150.00 176.00   0.50    1.50    --   95.80  61.00  30.00   52
 22  \w    107.00 133.00   0.50    1.50    --   95.80  61.00 -60.00   52
 23  \w     72.00 101.00   0.50    1.50    --   95.80  62.00  79.09   58
 24  \w      7.00  82.00   0.50    1.50    --   95.80 -77.00  30.00  150
 25  \w     49.00 119.00   0.50    1.50    --   95.80 -82.00 -90.00  140
 26  \w     82.00 108.00   0.50    1.50    --   95.80  45.00 150.00   52
 27  \w     72.00 128.00   0.50    1.50    --   95.80  61.00  30.00  112
 28  \w    129.00 185.00   0.50    1.50    --   95.80  70.00-102.80  112
 29  \w     77.00 107.00   0.50    1.50    --   95.80  44.00-140.32   60
 30  \w     77.00 179.00   0.50    1.50    --   95.80  45.00   0.00  204
 31  \w     72.00  97.00   0.50    1.50    --   95.80  61.00-120.00   50
 32  \w     56.00 127.00   0.50    1.50    --   95.80 -82.00 120.00  142
 33  \w    132.00 185.00   0.50    1.50    --   95.80  61.00  90.00  106
 34  \w     69.00  99.00   0.50    1.50    --   95.80  70.00-102.80   60
 35  \w      8.00  41.00   0.50    1.50    --   95.80 -82.00 120.00   66
 36  \w     79.00 118.00   0.50    1.50    --   95.80  45.00 -60.00   78
 37  \w     72.00 104.00   0.50    1.50    --   95.80  61.00 150.00   64
 38  \w     72.00 125.00   0.50    1.50    --   95.80  61.00  90.00  106
 39  \w    110.00 185.00   0.50    1.50    --   95.80  61.00-150.00  150
 40  \w     76.00 148.00   0.50    1.50    --   95.80  45.00-120.00  144
 41  \w      9.00 117.00   0.50    1.50    --   95.80 -61.00-150.00  216
 42  \w     72.00  97.00   0.50    1.50    --   95.80  61.00-150.00   50
 43  \w     74.00 181.00   0.50    1.50    --   95.80  53.00  60.06  214
 44  \w     72.00  98.00   0.50    1.50    --   95.80  61.00 -30.00   52
 45  \w     72.00  98.00   0.50    1.50    --   95.80  61.00   0.00   52
 46  \w     75.00 100.00   0.50    1.50    --   95.80  61.00 120.00   50
 47  \w    116.00 157.00   0.50    1.50    --   95.80  58.00 -35.72   82
 48  \w     77.00 103.00   0.50    1.50    --   95.80  61.00  60.00   52
 49  \w    152.00 184.00   0.50    1.50    --   95.80  38.00 140.72   64
 50  \w     88.00 122.00   0.50    1.50    --   95.80 -77.00  30.00   68
 51  \w     81.00 125.00   0.50    1.50    --   95.80  30.00-180.00   88
 52  \w     78.00 109.00   0.50    1.50    --   95.80  38.00 140.72   62
;
_diffrn_measurement_device       'four-circle diffractometer'
_diffrn_measurement_device_type  'XtaLAB Pro: Kappa single'
_diffrn_measurement_method       '\w scans'
_diffrn_orient_matrix_type
'CrysAlisPro convention (1999,Acta A55,543-557)'
_diffrn_orient_matrix_UB_11      0.1977863000
_diffrn_orient_matrix_UB_12      0.0890998000
_diffrn_orient_matrix_UB_13      0.0857244000
_diffrn_orient_matrix_UB_21      0.0438989000
_diffrn_orient_matrix_UB_22      0.1431481000
_diffrn_orient_matrix_UB_23      -0.0642128000
_diffrn_orient_matrix_UB_31      -0.0399387000
_diffrn_orient_matrix_UB_32      0.1365526000
_diffrn_orient_matrix_UB_33      0.1310749000
_diffrn_radiation_monochromator  graphite
_diffrn_radiation_probe          x-ray
_diffrn_radiation_type           CuK\a
_diffrn_radiation_wavelength     1.54184
_diffrn_reflns_av_R_equivalents  0.0188
_diffrn_reflns_av_unetI/netI     0.0202
_diffrn_reflns_Laue_measured_fraction_full 0.993
_diffrn_reflns_Laue_measured_fraction_max 0.975
_diffrn_reflns_limit_h_max       10
_diffrn_reflns_limit_h_min       -10
_diffrn_reflns_limit_k_max       10
_diffrn_reflns_limit_k_min       -10
_diffrn_reflns_limit_l_max       12
_diffrn_reflns_limit_l_min       -12
_diffrn_reflns_number            10725
_diffrn_reflns_point_group_measured_fraction_full 0.908
_diffrn_reflns_point_group_measured_fraction_max 0.880
_diffrn_reflns_theta_full        67.684
_diffrn_reflns_theta_max         74.352
_diffrn_reflns_theta_min         4.859
_diffrn_source                   'Rotating-anode X-ray tube'
_diffrn_source_type              'MicroMax 007 (Cu) X-ray Source'
_exptl_absorpt_coefficient_mu    0.910
_exptl_absorpt_correction_T_max  1.00000
_exptl_absorpt_correction_T_min  0.93515
_exptl_absorpt_correction_type   multi-scan
_exptl_absorpt_process_details
;
CrysAlisPro 1.171.39.33c (Rigaku Oxford Diffraction, 2017)
Empirical absorption correction using spherical harmonics,
 implemented in SCALE3 ABSPACK scaling algorithm.
;
_exptl_crystal_colour            'clear light colourless'
_exptl_crystal_colour_lustre     clear
_exptl_crystal_colour_modifier   light
_exptl_crystal_colour_primary    colourless
_exptl_crystal_density_diffrn    1.413
_exptl_crystal_description       block
_exptl_crystal_F_000             268
_exptl_crystal_size_max          0.1
_exptl_crystal_size_mid          0.08
_exptl_crystal_size_min          0.08
_refine_diff_density_max         0.140
_refine_diff_density_min         -0.193
_refine_diff_density_rms         0.042
_refine_ls_abs_structure_details
;
 Flack x determined using 1866 quotients [(I+)-(I-)]/[(I+)+(I-)]
 (Parsons, Flack and Wagner, Acta Cryst. B69 (2013) 249-259).
;
_refine_ls_abs_structure_Flack   0.07(4)
_refine_ls_extinction_method     none
_refine_ls_goodness_of_fit_ref   1.102
_refine_ls_hydrogen_treatment    constr
_refine_ls_matrix_type           full
_refine_ls_number_parameters     334
_refine_ls_number_reflns         4256
_refine_ls_number_restraints     3
_refine_ls_restrained_S_all      1.102
_refine_ls_R_factor_all          0.0253
_refine_ls_R_factor_gt           0.0250
_refine_ls_shift/su_max          0.003
_refine_ls_shift/su_mean         0.000
_refine_ls_structure_factor_coef Fsqd
_refine_ls_weighting_details
'w=1/[\s^2^(Fo^2^)+(0.0358P)^2^+0.0948P] where P=(Fo^2^+2Fc^2^)/3'
_refine_ls_weighting_scheme      calc
_refine_ls_wR_factor_gt          0.0647
_refine_ls_wR_factor_ref         0.0648
_reflns_Friedel_coverage         0.805
_reflns_Friedel_fraction_full    0.823
_reflns_Friedel_fraction_max     0.785
_reflns_number_gt                4220
_reflns_number_total             4256
_reflns_threshold_expression     'I > 2\s(I)'
_cod_data_source_file            np1c00681_si_003.cif
_cod_data_source_block           liangxiao_lx-t-30_collect
_cod_database_code               1565111
_shelx_shelxl_version_number     2014/7
_chemical_oxdiff_formula         'C26 H29 O10 '
_shelx_space_group_comment
;
The symmetry employed for this shelxl refinement is uniquely defined
by the following loop, which should always be used as a source of
symmetry information in preference to the above space-group names.
They are only intended as comments.
;
_shelx_estimated_absorpt_t_max   0.931
_shelx_estimated_absorpt_t_min   0.914
_reflns_odcompleteness_completeness 99.48
_reflns_odcompleteness_iscentric 1
_reflns_odcompleteness_theta     66.97
_olex2_refinement_description
;
1. Fixed Uiso
 At 1.2 times of:
  All C(H) groups, All C(H,H) groups
 At 1.5 times of:
  All C(H,H,H) groups, All O(H) groups
2.a Ternary CH refined with riding coordinates:
 C14(H14), C13(H13), C23(H23), C22(H22), C5(H5)
2.b Secondary CH2 refined with riding coordinates:
 C6(H6A,H6B), C2(H2A,H2B)
2.c Idealised Me refined as rotating group:
 C17(H17A,H17B,H17C), C19(H19A,H19B,H19C), C25(H25A,H25B,H25C), C18(H18A,H18B,
 H18C), C21(H21A,H21B,H21C), C24(H24A,H24B,H24C), C26(H26A,H26B,H26C)
2.d Idealised tetrahedral OH refined as rotating group:
 O19(H19), O33(H33)
;
_shelx_res_file
;
    liangxiao_lx-t-30_collect.res created by SHELXL-2014/7

TITL liangxiao_lx-t-30_collect_a.res in P1
REM Old TITL liangxiao_LX-T-30_collect in P1
REM SHELXT solution in P1
REM R1 0.079, Rweak 0.042, Alpha 0.000, Orientation as input
REM Flack x = 0.121 ( 0.043 ) from Parsons' quotients
REM Formula found by SHELXT: C19 O10
CELL 1.54184 8.2185 8.4465 10.2022 112.706 95.017 110.165
ZERR 1 0.0002 0.0002 0.0003 0.003 0.002 0.002
LATT -1
SFAC C H O
UNIT 26 32 10

L.S. 4
PLAN  5
SIZE 0.1 0.08 0.08
BOND $H
LIST 6
MORE -1
CONF
fmap 2
ACTA
OMIT -7 4 7
OMIT -9 5 5
REM <olex2.extras>
REM <HklSrc "%.\\liangxiao_LX-T-30_collect.hkl">
REM </olex2.extras>

WGHT    0.035800    0.094800
FVAR       1.69821
O15   3    0.607656    0.713602    0.511861    11.00000    0.01483    0.01852 =
         0.01530    0.01050    0.00275    0.00485
O1    3    0.903912    0.783642    0.829165    11.00000    0.02259    0.01520 =
         0.01673    0.00768   -0.00283    0.00320
O19   3    0.270227    0.688006    0.633104    11.00000    0.02297    0.02318 =
         0.02561    0.01457    0.01381    0.01487
AFIX 147
H19   2    0.174483    0.642395    0.651128    11.00000   -1.50000
AFIX   0
O24   3    0.426658    0.646153    0.907164    11.00000    0.03467    0.03159 =
         0.02159    0.01775    0.01610    0.02145
O12   3    0.935510    0.511740    0.696549    11.00000    0.01503    0.02169 =
         0.02189    0.00874    0.00382    0.00706
O27   3    0.255558    0.560496    0.207283    11.00000    0.02306    0.02042 =
         0.01844    0.01013    0.00026    0.00942
O22   3    0.582377    0.886425    0.862384    11.00000    0.04519    0.01780 =
         0.01781    0.00723    0.01076    0.01806
O33   3    0.472557    0.435862    0.048368    11.00000    0.04087    0.02380 =
         0.01428    0.00890    0.00624    0.01574
AFIX 147
H33   2    0.444774    0.496425    0.011229    11.00000   -1.50000
AFIX   0
O13   3    0.849202    0.277862    0.469632    11.00000    0.02253    0.03449 =
         0.02506    0.01032    0.00940    0.01585
O36   3    0.017439    0.425645    0.017765    11.00000    0.03041    0.03298 =
         0.03138    0.01706   -0.00596    0.01107
C10   1    0.670324    0.698104    0.633768    11.00000    0.01904    0.01319 =
         0.01208    0.00625    0.00386    0.00741
C14   1    0.420586    0.638644    0.441413    11.00000    0.01608    0.01547 =
         0.01562    0.00749    0.00291    0.00783
AFIX  13
H14   2    0.395509    0.746391    0.447881    11.00000   -1.20000
AFIX   0
C11   1    0.549374    0.577589    0.693504    11.00000    0.01639    0.01396 =
         0.01410    0.00744    0.00494    0.00752
C9    1    0.842954    0.797969    0.702481    11.00000    0.01977    0.01625 =
         0.01578    0.00814    0.00218    0.00688
C20   1    0.510411    0.704972    0.831250    11.00000    0.02441    0.02056 =
         0.01622    0.01060    0.00527    0.01426
C12   1    0.371560    0.432057    0.571568    11.00000    0.01333    0.01594 =
         0.01717    0.00914    0.00518    0.00663
C13   1    0.294707    0.544665    0.516488    11.00000    0.01576    0.01694 =
         0.02011    0.01047    0.00508    0.00788
AFIX  13
H13   2    0.178620    0.457947    0.445317    11.00000   -1.20000
AFIX   0
C8    1    0.812203    0.351270    0.581701    11.00000    0.01721    0.01933 =
         0.02077    0.00965    0.00358    0.00975
C4    1    0.288918    0.200442    0.297227    11.00000    0.01780    0.01489 =
         0.01858    0.00642    0.00158    0.00545
C23   1    0.851494    0.596795    0.806383    11.00000    0.01729    0.01592 =
         0.01838    0.00815    0.00284    0.00629
AFIX  13
H23   2    0.893902    0.594624    0.898229    11.00000   -1.20000
AFIX   0
C17   1    0.631360    0.758659    0.236895    11.00000    0.02738    0.02057 =
         0.01860    0.01117    0.00757    0.00832
AFIX 137
H17A  2    0.720467    0.777228    0.182960    11.00000   -1.50000
H17B  2    0.686490    0.834579    0.340194    11.00000   -1.50000
H17C  2    0.540581    0.794484    0.207934    11.00000   -1.50000
AFIX   0
C22   1    0.647425    0.473868    0.745279    11.00000    0.01570    0.01454 =
         0.01560    0.00849    0.00393    0.00721
AFIX  13
H22   2    0.599310    0.449910    0.823582    11.00000   -1.20000
AFIX   0
C19   1    0.231899    0.316834    0.626661    11.00000    0.01670    0.02279 =
         0.02638    0.01589    0.00807    0.00948
AFIX 137
H19A  2    0.287158    0.267102    0.678362    11.00000   -1.50000
H19B  2    0.136373    0.214947    0.544519    11.00000   -1.50000
H19C  2    0.184621    0.396227    0.691637    11.00000   -1.50000
AFIX   0
C6    1    0.480511    0.172130    0.491080    11.00000    0.01693    0.01319 =
         0.01900    0.00706    0.00301    0.00637
AFIX  23
H6A   2    0.512542    0.090125    0.411181    11.00000   -1.20000
H6B   2    0.379705    0.093860    0.512871    11.00000   -1.20000
AFIX   0
C16   1    0.546199    0.551056    0.204390    11.00000    0.02586    0.01845 =
         0.01344    0.00704    0.00684    0.01024
C15   1    0.382274    0.508387    0.274060    11.00000    0.01918    0.01700 =
         0.01541    0.00888    0.00181    0.00826
C1    1    0.122975    0.407800    0.094427    11.00000    0.02311    0.02250 =
         0.02001    0.00908   -0.00169    0.00638
C7    1    0.639411    0.286756    0.626744    11.00000    0.01475    0.01429 =
         0.01859    0.00814    0.00371    0.00603
C3    1    0.274063    0.297542    0.223670    11.00000    0.02059    0.01682 =
         0.01710    0.00521    0.00023    0.00642
C5    1    0.426828    0.301467    0.444325    11.00000    0.01404    0.01258 =
         0.01658    0.00628    0.00193    0.00419
AFIX  13
H5    2    0.535487    0.384496    0.432066    11.00000   -1.20000
AFIX   0
C25   1    0.168862   -0.006537    0.239448    11.00000    0.02785    0.01652 =
         0.02705    0.00905   -0.00604    0.00270
AFIX 137
H25A  2    0.100562   -0.024322    0.308193    11.00000   -1.50000
H25B  2    0.241042   -0.077102    0.226825    11.00000   -1.50000
H25C  2    0.088834   -0.049471    0.146677    11.00000   -1.50000
AFIX   0
C18   1    0.687777    0.488886    0.245875    11.00000    0.02567    0.02529 =
         0.02265    0.01188    0.01099    0.01385
AFIX 137
H18A  2    0.631116    0.360389    0.229648    11.00000   -1.50000
H18B  2    0.749952    0.567720    0.347658    11.00000   -1.50000
H18C  2    0.771584    0.499329    0.186489    11.00000   -1.50000
AFIX   0
C21   1    0.981919    0.932967    0.668604    11.00000    0.01779    0.02006 =
         0.02562    0.01289    0.00214    0.00329
AFIX 137
H21A  2    1.017519    1.058439    0.744527    11.00000   -1.50000
H21B  2    0.934125    0.925517    0.576077    11.00000   -1.50000
H21C  2    1.084068    0.902329    0.663279    11.00000   -1.50000
AFIX   0
C24   1    0.656826    0.162476    0.700121    11.00000    0.02389    0.01750 =
         0.02354    0.01033    0.00126    0.00887
AFIX 137
H24A  2    0.670707    0.055634    0.630583    11.00000   -1.50000
H24B  2    0.550996    0.120040    0.732571    11.00000   -1.50000
H24C  2    0.759624    0.234327    0.782924    11.00000   -1.50000
AFIX   0
C2    1    0.129334    0.229356    0.089032    11.00000    0.02792    0.01974 =
         0.02379    0.00920   -0.00654    0.00446
AFIX  23
H2A   2    0.015238    0.147112    0.092770    11.00000   -1.20000
H2B   2    0.159581    0.162243    0.000444    11.00000   -1.20000
AFIX   0
C26   1    0.534667    1.007204    0.981572    11.00000    0.09510    0.03374 =
         0.02591    0.01455    0.02898    0.04374
AFIX 137
H26A  2    0.406558    0.962560    0.961488    11.00000   -1.50000
H26B  2    0.585721    1.133298    0.991532    11.00000   -1.50000
H26C  2    0.579923    1.006254    1.071135    11.00000   -1.50000
AFIX   0
HKLF 4

REM  liangxiao_lx-t-30_collect_a.res in P1
REM R1 =  0.0250 for    4220 Fo > 4sig(Fo)  and  0.0253 for all    4256 data
REM    334 parameters refined using      3 restraints

END

WGHT      0.0364      0.0922

REM Highest difference peak  0.140,  deepest hole -0.193,  1-sigma level  0.042
Q1    1   0.3349  0.3982  0.2487  11.00000  0.05    0.14
Q2    1   0.7184  0.9403  0.1519  11.00000  0.05    0.12
Q3    1   0.4109  0.5760  0.3600  11.00000  0.05    0.12
Q4    1   0.2533 -0.0350  0.5588  11.00000  0.05    0.12
Q5    1   0.8241  0.9244  0.9383  11.00000  0.05    0.12
;
_shelx_res_checksum              38350
_shelx_hkl_file
;
 -10   2   2   65.01    2.19
 -10   2   3   65.49    2.20
 -10   3   0    2.21    0.63
 -10   3   1   79.10    2.71
 -10   3   2  260.51    6.27
 -10   3   3   41.74    1.83
 -10   4  -1   84.84    2.72
 -10   4   1  182.63    4.83
 -10   4   2   80.94    2.73
 -10   4   3   85.43    2.65
 -10   5  -1    2.13    0.59
 -10   5   0    5.64    0.77
 -10   5   1    6.39    0.76
  -9  -1   2   71.64    2.46
  -9  -1   2   73.90    2.59
  -9  -1   3  109.97    3.38
  -9  -1   3  102.48    3.14
  -9  -1   4    6.81    0.93
  -9  -1   4    5.53    0.73
  -9  -1   5   26.93    1.45
  -9   0  -1    7.50    0.83
  -9   0   0   25.72    1.47
  -9   0   0   24.00    1.53
  -9   0   1  216.56    5.65
  -9   0   1  221.26    5.83
  -9   0   2   63.13    2.54
  -9   0   2   67.07    2.78
  -9   0   3   40.13    1.80
  -9   0   3   40.59    1.94
  -9   0   3   43.04    2.23
  -9   0   4    4.55    0.82
  -9   0   4    4.64    0.99
  -9   0   4    3.51    0.71
  -9   0   5   20.57    1.42
  -9   0   5   19.36    1.26
  -9   0   6    6.96    0.77
  -9   0   6    7.24    0.79
  -9   1  -2  168.85    4.27
  -9   1  -1   17.46    1.27
  -9   1   0   50.43    2.24
  -9   1   0   51.07    2.19
  -9   1   1    9.16    1.31
  -9   1   1    7.98    1.06
  -9   1   1   10.07    1.20
  -9   1   2  145.15    4.49
  -9   1   2  142.47    4.51
  -9   1   3   55.96    2.66
  -9   1   3   54.38    2.58
  -9   1   4   25.44    1.80
  -9   1   4   26.82    1.73
  -9   1   5   21.92    1.65
  -9   1   5   19.20    1.34
  -9   1   6   28.39    3.85
  -9   1   6   37.93    1.91
  -9   2  -3    9.11    1.03
  -9   2  -2   16.12    1.14
  -9   2  -2   18.98    1.37
  -9   2  -1  127.32    3.84
  -9   2  -1  145.89    4.43
  -9   2   0   93.03    3.62
  -9   2   1   34.95    2.04
  -9   2   1   36.58    2.36
  -9   2   2   21.52    1.93
  -9   2   2   19.39    1.53
  -9   2   3   13.87    1.67
  -9   2   3   13.99    1.27
  -9   2   4  273.88    7.01
  -9   2   4  221.74    7.14
  -9   2   5   49.03    4.68
  -9   2   5   57.39    2.68
  -9   2   6   17.74    4.00
  -9   3  -4    5.27    0.69
  -9   3  -3  171.93    4.79
  -9   3  -3  164.98    4.92
  -9   3  -2    0.86    0.98
  -9   3  -2    0.03    0.83
  -9   3  -1  129.58    4.46
  -9   3  -1  117.74    4.37
  -9   3   0  181.67    5.79
  -9   3   1  227.87    6.84
  -9   3   2  439.26    9.93
  -9   3   3   57.63    2.62
  -9   3   4   22.56    1.90
  -9   3   4   56.99    2.54
  -9   3   5  362.57    7.66
  -9   3   5  254.47    7.29
  -9   3   6  134.34    4.99
  -9   3   6  120.78    3.62
  -9   4  -4   16.84    1.30
  -9   4  -4   18.80    1.36
  -9   4  -3   47.80    2.37
  -9   4  -3   51.58    2.50
  -9   4  -2  171.84    5.25
  -9   4   0  264.72    7.49
  -9   4   1  164.71    4.88
  -9   4   1  191.91    5.79
  -9   4   2   99.92    3.62
  -9   4   2  104.01    4.05
  -9   4   3   66.24    3.01
  -9   4   3   64.81    2.87
  -9   4   4  178.30    5.06
  -9   4   4  175.86    5.13
  -9   4   5   92.02    3.28
  -9   4   5  158.67    3.98
  -9   5  -4   17.41    1.22
  -9   5  -4   19.29    1.43
  -9   5  -3   23.77    1.55
  -9   5  -3   28.13    1.86
  -9   5  -2  133.19    4.46
  -9   5  -1   98.52    3.82
  -9   5   0   22.35    1.85
  -9   5   0   20.83    1.49
  -9   5   1   22.64    1.69
  -9   5   1   23.64    1.89
  -9   5   2   20.72    1.68
  -9   5   2   19.85    1.64
  -9   5   3   65.74    2.64
  -9   5   3   71.67    2.86
  -9   5   4   60.76    2.18
  -9   5   4   77.97    2.71
  -9   5   5   73.68    2.34
  -9   6  -4  100.65    3.17
  -9   6  -3    3.86    0.90
  -9   6  -2   56.65    2.51
  -9   6  -1  301.58    6.99
  -9   6   0   68.10    2.69
  -9   6   0   70.28    2.74
  -9   6   1  151.87    4.30
  -9   6   1  166.32    4.69
  -9   6   2   12.28    1.30
  -9   6   3   91.51    2.97
  -9   7  -1  167.82    4.33
  -9   7   0   16.61    1.24
  -9   7   1  126.92    3.62
  -9   7   2    1.00    0.54
  -8  -3   2    9.77    0.89
  -8  -3   3    6.64    0.79
  -8  -3   4    8.65    0.92
  -8  -3   5    6.09    0.89
  -8  -3   5    6.83    0.86
  -8  -3   6  199.12    4.89
  -8  -2   0  137.29    3.93
  -8  -2   1  135.89    4.19
  -8  -2   2  151.22    4.66
  -8  -2   2  142.14    4.56
  -8  -2   3  180.88    5.48
  -8  -2   3  185.90    5.45
  -8  -2   4   21.06    1.71
  -8  -2   4   19.58    1.74
  -8  -2   5   41.01    2.24
  -8  -2   6   68.38    2.75
  -8  -2   7   52.03    2.26
  -8  -2   8   60.68    2.13
  -8  -1  -1   54.99    2.54
  -8  -1   0   23.32    1.80
  -8  -1   1  177.63    5.61
  -8  -1   2   88.65    3.74
  -8  -1   3    4.32    1.33
  -8  -1   3    4.94    1.45
  -8  -1   4   19.32    1.49
  -8  -1   4   20.26    1.84
  -8  -1   4   21.32    2.04
  -8  -1   5   64.44    2.72
  -8  -1   5   68.88    3.27
  -8  -1   5   65.22    3.03
  -8  -1   6    1.18    0.87
  -8  -1   6    0.44    0.99
  -8  -1   6    0.29    0.76
  -8  -1   7   31.23    1.71
  -8  -1   7   33.23    1.98
  -8  -1   8    2.42    0.74
  -8   0  -3   12.12    1.20
  -8   0  -2   15.14    1.52
  -8   0  -2   14.55    1.40
  -8   0  -1   13.98    1.60
  -8   0  -1   14.60    1.61
  -8   0   0  179.93    5.21
  -8   0   0  184.45    5.91
  -8   0   1   30.63    2.04
  -8   0   1   28.79    2.30
  -8   0   2  317.00    8.39
  -8   0   2  322.55    8.74
  -8   0   3  124.85    4.68
  -8   0   3  124.48    4.90
  -8   0   3  125.89    4.57
  -8   0   4  148.49    5.21
  -8   0   4  141.94    4.96
  -8   0   4  151.60    5.37
  -8   0   4  148.67    5.09
  -8   0   5   95.43    3.90
  -8   0   5  107.46    5.60
  -8   0   5   98.61    4.04
  -8   0   6    3.42    1.16
  -8   0   6    3.22    1.17
  -8   0   7  105.47    3.79
  -8   0   7  112.55    6.56
  -8   0   7  104.16    3.67
  -8   0   8   35.80    1.67
  -8   1  -4   54.68    2.31
  -8   1  -4   57.45    2.40
  -8   1  -3   84.10    3.33
  -8   1  -3   88.27    3.44
  -8   1  -3   79.36    2.82
  -8   1  -2    7.01    1.16
  -8   1  -2    6.23    1.36
  -8   1  -2    6.75    1.46
  -8   1  -1   68.21    3.33
  -8   1  -1   73.97    3.31
  -8   1  -1   70.66    3.63
  -8   1   0  129.69    4.81
  -8   1   0  128.19    5.20
  -8   1   0  136.85    4.91
  -8   1   1   18.45    1.85
  -8   1   1   21.77    2.09
  -8   1   2  163.82    5.72
  -8   1   2  158.55    5.36
  -8   1   3  101.90    4.30
  -8   1   3   97.90    3.89
  -8   1   3  112.42    4.01
  -8   1   3  100.08    4.39
  -8   1   4  561.43   13.35
  -8   1   4  546.36   13.04
  -8   1   4  585.29   12.88
  -8   1   5  374.53   10.29
  -8   1   5  383.22   10.01
  -8   1   6  110.16    3.92
  -8   1   6  113.75    4.39
  -8   1   7  112.88    3.66
  -8   1   7  123.14    4.26
  -8   1   8   93.15    5.42
  -8   2  -5  115.37    3.63
  -8   2  -5  115.00    3.46
  -8   2  -4   43.87    2.50
  -8   2  -4   45.23    2.33
  -8   2  -4   47.76    2.30
  -8   2  -3   37.48    2.59
  -8   2  -3   39.23    2.41
  -8   2  -3   39.21    2.36
  -8   2  -2   78.89    3.65
  -8   2  -2   74.26    3.37
  -8   2  -1   24.03    1.95
  -8   2  -1   22.57    2.40
  -8   2  -1   27.18    2.33
  -8   2   0   32.84    2.21
  -8   2   0   38.40    2.76
  -8   2   0   37.96    2.76
  -8   2   1    6.07    1.65
  -8   2   1    4.99    1.60
  -8   2   1    4.53    1.08
  -8   2   2   69.91    3.37
  -8   2   2   67.90    3.17
  -8   2   2   69.89    3.74
  -8   2   3  220.95    6.61
  -8   2   3  215.80    6.48
  -8   2   3  213.15    7.03
  -8   2   4  656.13   14.74
  -8   2   4  665.34   15.14
  -8   2   5  235.65    6.58
  -8   2   5  277.41    7.48
  -8   2   6    0.85    1.27
  -8   2   6  102.06    3.76
  -8   2   7  194.76    7.97
  -8   2   7  258.99    6.64
  -8   2   8   75.17    4.51
  -8   3  -6  388.95    8.05
  -8   3  -6  320.25    7.47
  -8   3  -5  193.16    5.33
  -8   3  -5  179.21    4.92
  -8   3  -4   36.83    2.44
  -8   3  -4   36.28    2.05
  -8   3  -4   39.10    2.45
  -8   3  -3   81.11    3.81
  -8   3  -3   71.94    3.08
  -8   3  -3   80.22    3.72
  -8   3  -2   99.67    4.36
  -8   3  -2   91.28    3.53
  -8   3  -2   96.98    4.42
  -8   3  -1  185.75    6.36
  -8   3  -1  171.06    6.24
  -8   3   0   57.74    3.37
  -8   3   1  267.14    7.37
  -8   3   2   31.22    2.66
  -8   3   2   30.34    2.32
  -8   3   3   21.12    2.15
  -8   3   3   25.61    2.42
  -8   3   4  291.96    8.47
  -8   3   4  296.24    8.29
  -8   3   5  117.26    4.53
  -8   3   5  127.72    4.72
  -8   3   6   45.29    2.62
  -8   3   6   80.15    3.28
  -8   4  -6   73.99    2.81
  -8   4  -6   77.44    2.89
  -8   4  -5    2.39    1.12
  -8   4  -5    2.92    1.08
  -8   4  -4  129.13    4.72
  -8   4  -3  396.67   10.38
  -8   4  -2   17.75    2.18
  -8   4  -2   17.63    1.95
  -8   4  -1   90.63    4.28
  -8   4  -1   86.58    4.01
  -8   4   0  259.90    7.67
  -8   4   0  276.04    8.10
  -8   4   0  255.41    7.24
  -8   4   1   99.07    4.15
  -8   4   1  105.97    4.58
  -8   4   2  140.44    5.16
  -8   4   2  140.90    5.40
  -8   4   3  152.57    5.48
  -8   4   3  154.48    5.44
  -8   4   4  173.64    5.65
  -8   4   4  161.43    5.57
  -8   4   5    1.74    1.04
  -8   4   5    1.75    1.24
  -8   4   6   15.54    1.34
  -8   4   6   47.03    2.25
  -8   5  -6   40.75    2.01
  -8   5  -6   38.70    2.06
  -8   5  -5   79.20    3.22
  -8   5  -5   78.72    3.34
  -8   5  -4   16.72    1.85
  -8   5  -4   15.53    1.66
  -8   5  -3   58.33    3.01
  -8   5  -3   63.71    2.95
  -8   5  -3   66.55    3.41
  -8   5  -2  532.91   12.75
  -8   5  -2  495.36   12.00
  -8   5  -2  503.50   12.31
  -8   5  -1   74.08    3.27
  -8   5  -1   68.25    3.18
  -8   5  -1   79.64    3.75
  -8   5  -1   77.92    3.75
  -8   5   0    1.92    1.29
  -8   5   0    1.90    1.20
  -8   5   1  192.69    6.25
  -8   5   1  187.33    6.16
  -8   5   2  111.74    4.37
  -8   5   2  112.33    4.47
  -8   5   3  128.38    4.40
  -8   5   3  117.95    4.54
  -8   5   4  111.40    4.05
  -8   5   4  102.94    3.62
  -8   5   5   37.81    2.09
  -8   5   6  133.54    3.55
  -8   6  -6  209.94    5.29
  -8   6  -6  178.50    4.68
  -8   6  -5   26.38    1.58
  -8   6  -5   30.75    1.96
  -8   6  -4   18.48    1.71
  -8   6  -4   18.48    1.54
  -8   6  -3  237.63    6.75
  -8   6  -3  223.58    6.68
  -8   6  -2   89.21    3.51
  -8   6  -2   92.20    3.97
  -8   6  -2   94.38    3.85
  -8   6  -1   60.51    3.00
  -8   6  -1   62.78    3.07
  -8   6  -1   59.40    3.29
  -8   6   0  211.77    6.43
  -8   6   0  212.65    6.73
  -8   6   0  198.66    6.01
  -8   6   1  196.25    5.69
  -8   6   1  200.76    6.31
  -8   6   1  209.85    6.47
  -8   6   2   79.36    3.41
  -8   6   3   49.42    2.59
  -8   6   4    2.53    0.97
  -8   7  -6  111.12    3.10
  -8   7  -5   23.73    1.43
  -8   7  -5   24.64    1.45
  -8   7  -4  219.53    6.00
  -8   7  -4  207.57    5.53
  -8   7  -3  133.23    4.51
  -8   7  -3  125.06    3.93
  -8   7  -3  119.32    3.83
  -8   7  -2  116.36    4.03
  -8   7  -2  114.31    4.37
  -8   7  -1   11.70    1.53
  -8   7   0   45.81    2.66
  -8   7   0   45.22    2.58
  -8   7   1   15.54    1.60
  -8   7   2  105.36    3.61
  -8   7   2   99.42    3.48
  -8   7   3   76.11    2.67
  -8   8  -5   83.11    2.69
  -8   8  -4   67.43    2.69
  -8   8  -3  153.21    4.27
  -8   8  -3  146.84    4.60
  -8   8  -2   57.46    2.47
  -8   8  -2   55.44    2.58
  -8   8  -1   92.19    3.31
  -8   8   0   29.83    1.80
  -8   8   1    4.94    0.88
  -7  -4   2   22.61    1.39
  -7  -4   3   92.19    2.99
  -7  -4   3  109.17    3.46
  -7  -4   4  268.38    6.74
  -7  -4   4  256.21    6.34
  -7  -4   5   68.44    2.61
  -7  -4   5   71.61    2.84
  -7  -4   6  172.90    4.86
  -7  -4   6  167.26    4.60
  -7  -4   7   72.31    2.48
  -7  -3  -1  106.30    3.14
  -7  -3   0  236.63    6.07
  -7  -3   0  220.13    5.61
  -7  -3   1  101.40    3.78
  -7  -3   1  100.84    3.44
  -7  -3   2   42.68    2.54
  -7  -3   2   42.46    2.24
  -7  -3   2   45.00    2.49
  -7  -3   3   30.23    2.25
  -7  -3   3   28.37    2.12
  -7  -3   3   27.29    1.87
  -7  -3   4  160.75    5.33
  -7  -3   5  183.65    5.62
  -7  -3   5  164.14    5.61
  -7  -3   6   18.91    1.79
  -7  -3   6   22.58    1.92
  -7  -3   7   10.17    1.34
  -7  -3   7   10.88    1.07
  -7  -3   8   60.27    2.59
  -7  -3   9   90.19    2.85
  -7  -2  -3    0.41    0.49
  -7  -2  -2   66.44    2.69
  -7  -2  -2   56.59    2.14
  -7  -2  -1  178.45    5.03
  -7  -2  -1  188.00    5.67
  -7  -2   0    0.04    1.17
  -7  -2   0   -0.03    0.80
  -7  -2   1   24.86    1.84
  -7  -2   2   43.73    2.42
  -7  -2   3  163.10    5.72
  -7  -2   3  149.87    4.93
  -7  -2   4  139.34    5.44
  -7  -2   4  156.46    5.54
  -7  -2   5  167.97    5.80
  -7  -2   6  161.59    4.90
  -7  -2   6  156.71    4.84
  -7  -2   6  169.34    5.65
  -7  -2   7   11.46    1.26
  -7  -2   8  110.30    4.03
  -7  -2   9   30.36    1.44
  -7  -2   9   36.45    1.92
  -7  -1  -4  177.28    4.77
  -7  -1  -3  227.54    6.37
  -7  -1  -2   56.93    2.67
  -7  -1  -2   56.25    2.44
  -7  -1  -1  446.95   10.68
  -7  -1  -1  408.90    9.92
  -7  -1   0  100.45    4.41
  -7  -1   0   93.92    4.11
  -7  -1   0   92.61    3.56
  -7  -1   1  311.96    8.18
  -7  -1   1  344.01    9.38
  -7  -1   2  271.81    8.17
  -7  -1   2  264.07    7.15
  -7  -1   2  273.91    7.40
  -7  -1   3  119.91    4.44
  -7  -1   3  125.44    5.01
  -7  -1   4    3.59    1.24
  -7  -1   4    3.06    1.34
  -7  -1   4    2.39    1.29
  -7  -1   4    3.49    1.63
  -7  -1   5  124.99    5.14
  -7  -1   5  125.25    4.96
  -7  -1   5  123.10    4.68
  -7  -1   5  133.05    4.93
  -7  -1   6  251.66    7.49
  -7  -1   6  244.31    7.34
  -7  -1   6  264.30    7.79
  -7  -1   6  265.87    9.08
  -7  -1   7   58.35    3.06
  -7  -1   7   54.86    3.14
  -7  -1   7   57.53    7.22
  -7  -1   8  124.21    4.40
  -7  -1   8  121.22    4.22
  -7  -1   9   32.19    1.88
  -7   0  -4   38.41    2.09
  -7   0  -3  113.49    4.49
  -7   0  -3  109.41    4.24
  -7   0  -2  439.72   11.29
  -7   0  -2  433.58   10.45
  -7   0  -2  463.92   11.61
  -7   0  -1  290.14    7.96
  -7   0  -1  301.78    8.72
  -7   0  -1  302.28    8.71
  -7   0   0  384.97   10.30
  -7   0   0  374.66    9.67
  -7   0   0  365.35   10.28
  -7   0   1   46.89    3.19
  -7   0   1   44.31    2.76
  -7   0   1   48.95    3.06
  -7   0   2  611.19   14.48
  -7   0   2  589.92   14.21
  -7   0   3  195.87    5.99
  -7   0   3  199.27    6.52
  -7   0   3  200.08    6.52
  -7   0   4  540.72   12.63
  -7   0   4  526.88   13.20
  -7   0   4  507.70   12.91
  -7   0   4  518.64   12.85
  -7   0   5  305.91    8.69
  -7   0   5  290.27    9.03
  -7   0   5  298.42    8.89
  -7   0   6  137.40    5.29
  -7   0   6  138.14    5.31
  -7   0   6  142.45    7.63
  -7   0   6  134.48    4.82
  -7   0   7   28.78    2.32
  -7   0   7   30.84    2.46
  -7   0   8   19.82    1.94
  -7   0   8   18.57    1.73
  -7   0   9  147.06    4.06
  -7   0   9   82.09    6.36
  -7   1  -6   27.55    1.41
  -7   1  -6   31.90    1.72
  -7   1  -5    9.27    1.30
  -7   1  -5   10.41    1.42
  -7   1  -5    8.50    1.16
  -7   1  -4  127.40    4.74
  -7   1  -4  123.80    4.45
  -7   1  -4  123.25    4.74
  -7   1  -4  120.61    4.22
  -7   1  -3  924.51   20.23
  -7   1  -3  888.00   19.79
  -7   1  -3  899.41   19.69
  -7   1  -3  931.43   20.41
  -7   1  -2  514.17   13.10
  -7   1  -2  489.49   12.52
  -7   1  -2  535.92   12.98
  -7   1  -1  395.67   10.83
  -7   1  -1  412.16   10.56
  -7   1  -1  387.94   10.54
  -7   1   0  281.75    8.29
  -7   1   0  301.68    8.52
  -7   1   1  108.95    4.62
  -7   1   1  106.10    4.43
  -7   1   2  459.87   11.96
  -7   1   2  478.02   11.87
  -7   1   2  449.96   11.25
  -7   1   2  434.30   10.89
  -7   1   3   11.49    1.73
  -7   1   3   11.46    1.54
  -7   1   3   11.29    1.75
  -7   1   3   11.85    1.96
  -7   1   4  263.63    7.75
  -7   1   4  272.77    7.97
  -7   1   4  261.77    8.08
  -7   1   4  246.75    7.28
  -7   1   5   11.67    2.10
  -7   1   5    5.83    1.59
  -7   1   5    7.33    1.84
  -7   1   6  158.44    5.42
  -7   1   6   87.96    4.14
  -7   1   7  138.42    5.33
  -7   1   7  311.26    7.37
  -7   1   8    3.74    0.94
  -7   1   8    2.65    6.49
  -7   1   8    4.38    1.29
  -7   1   9   -4.19    4.62
  -7   2  -7  125.49    3.48
  -7   2  -7  113.43    3.30
  -7   2  -6    4.02    1.05
  -7   2  -6    3.93    1.12
  -7   2  -6    3.66    0.89
  -7   2  -5   40.71    2.55
  -7   2  -5   42.86    2.71
  -7   2  -5   39.22    2.22
  -7   2  -4   35.78    2.78
  -7   2  -4   34.79    2.24
  -7   2  -4   34.04    2.54
  -7   2  -3  364.92    9.85
  -7   2  -2  137.45    5.19
  -7   2  -1   22.84    2.05
  -7   2  -1   22.88    2.39
  -7   2  -1   27.91    2.62
  -7   2   0  192.05    6.65
  -7   2   0  179.20    5.86
  -7   2   0  199.83    6.58
  -7   2   1   66.87    3.64
  -7   2   1   64.77    3.05
  -7   2   1   63.19    3.61
  -7   2   1   64.45    3.09
  -7   2   2   84.96    4.17
  -7   2   2   88.80    3.91
  -7   2   3  349.99    9.36
  -7   2   3  361.48    9.66
  -7   2   4  293.63    8.08
  -7   2   4  282.25    8.72
  -7   2   4  296.77    8.57
  -7   2   5  135.20    4.80
  -7   2   5  137.61    5.39
  -7   2   6   74.18    3.86
  -7   2   6   67.57    3.06
  -7   2   7  274.13    7.00
  -7   2   7  177.70    6.37
  -7   2   8   18.68    5.68
  -7   2   9   10.83    0.96
  -7   3  -7   31.40    1.89
  -7   3  -7   32.33    1.78
  -7   3  -6   62.85    2.92
  -7   3  -5   18.30    1.85
  -7   3  -4  445.87   11.49
  -7   3  -4  418.66   10.78
  -7   3  -3   18.59    1.87
  -7   3  -3   15.67    2.18
  -7   3  -2  287.59    7.90
  -7   3  -2  288.86    7.95
  -7   3  -2  304.32    8.86
  -7   3  -1   99.78    4.44
  -7   3  -1   90.78    4.00
  -7   3   0  868.82   19.03
  -7   3   0  867.43   18.79
  -7   3   0  845.32   18.15
  -7   3   1  115.23    4.78
  -7   3   1  122.34    4.64
  -7   3   1  118.15    4.89
  -7   3   2  315.07    9.10
  -7   3   2  310.76    8.81
  -7   3   3  676.44   16.07
  -7   3   3  690.90   16.34
  -7   3   4 1341.20   28.44
  -7   3   5  325.24    9.14
  -7   3   5  311.39    8.96
  -7   3   6  276.28    7.81
  -7   3   6  271.90    7.95
  -7   3   7  167.09    5.58
  -7   3   7  238.69    6.10
  -7   3   8  201.96    6.13
  -7   4  -7   57.72    2.37
  -7   4  -7   59.84    2.77
  -7   4  -6  142.96    5.08
  -7   4  -6  144.03    4.57
  -7   4  -5   23.39    2.31
  -7   4  -5   23.76    1.82
  -7   4  -4  369.28    9.44
  -7   4  -4  412.87   10.66
  -7   4  -3  176.47    5.73
  -7   4  -3  178.63    6.25
  -7   4  -2   51.43    3.16
  -7   4  -2   54.14    3.10
  -7   4  -1   40.09    2.77
  -7   4  -1   39.15    2.51
  -7   4  -1   43.89    2.86
  -7   4   0  378.08    9.90
  -7   4   0  387.38   10.49
  -7   4   0  369.88   10.28
  -7   4   0  382.22   10.27
  -7   4   0  357.17    9.76
  -7   4   1  139.57    5.36
  -7   4   1  144.82    5.34
  -7   4   1  135.39    5.44
  -7   4   1  145.20    5.53
  -7   4   2  106.00    4.54
  -7   4   2  108.66    4.71
  -7   4   2  106.61    4.64
  -7   4   3  105.09    4.53
  -7   4   3  101.31    4.26
  -7   4   4  452.09   11.17
  -7   4   4  484.75   12.02
  -7   4   4  479.07   11.90
  -7   4   5   21.65    2.17
  -7   4   5   21.78    1.96
  -7   4   6  110.15    4.01
  -7   4   6  104.35    3.79
  -7   4   7  114.28    3.64
  -7   5  -8  322.00    7.47
  -7   5  -7   31.45    2.01
  -7   5  -6   89.51    3.74
  -7   5  -5  131.85    4.93
  -7   5  -4   77.97    3.71
  -7   5  -4   73.00    3.40
  -7   5  -3  816.87   18.04
  -7   5  -3  777.08   17.21
  -7   5  -3  828.95   18.32
  -7   5  -2  571.28   13.89
  -7   5  -2  583.67   14.11
  -7   5  -2  548.56   13.28
  -7   5  -1  195.78    6.10
  -7   5  -1  205.60    6.99
  -7   5   0  154.54    5.65
  -7   5   0  159.41    5.62
  -7   5   0  160.99    5.97
  -7   5   1  129.05    5.45
  -7   5   1  140.26    5.47
  -7   5   1  136.28    5.36
  -7   5   1  139.00    5.17
  -7   5   2  622.51   14.57
  -7   5   2  565.22   13.90
  -7   5   3  123.31    4.87
  -7   5   3  113.30    4.52
  -7   5   3  113.67    4.31
  -7   5   4   10.08    1.79
  -7   5   4    7.49    1.23
  -7   5   4    7.66    1.24
  -7   5   5  144.21    4.78
  -7   5   6   30.41    1.67
  -7   6  -8  177.91    4.45
  -7   6  -7   36.11    1.94
  -7   6  -6   96.72    3.60
  -7   6  -5  137.05    4.59
  -7   6  -5  142.87    4.83
  -7   6  -4  468.41   11.54
  -7   6  -4  438.30   10.63
  -7   6  -3  727.20   16.45
  -7   6  -3  714.45   16.84
  -7   6  -2  295.82    9.17
  -7   6  -2  317.70    8.60
  -7   6  -2  307.04    8.97
  -7   6  -1  191.38    6.04
  -7   6   0  172.13    5.57
  -7   6   0  193.90    6.60
  -7   6   0  180.74    6.39
  -7   6   1  119.43    4.92
  -7   6   1  114.75    4.94
  -7   6   2  142.90    5.30
  -7   6   2  137.17    5.25
  -7   6   3   44.43    2.73
  -7   6   3   43.69    2.58
  -7   6   4  100.99    3.54
  -7   6   4  115.83    3.99
  -7   6   5    7.43    0.94
  -7   7  -7   83.80    2.87
  -7   7  -6   12.27    1.28
  -7   7  -6   12.51    1.32
  -7   7  -5   51.87    2.83
  -7   7  -5   49.77    2.47
  -7   7  -4   77.15    3.18
  -7   7  -4   82.48    3.75
  -7   7  -3  159.72    5.67
  -7   7  -3  161.19    5.81
  -7   7  -2  395.60   10.57
  -7   7  -1    3.73    1.49
  -7   7   0  106.47    4.40
  -7   7   0  109.47    4.62
  -7   7   1  197.55    6.38
  -7   7   1  197.51    6.23
  -7   7   2   91.25    3.70
  -7   7   2   84.59    3.60
  -7   7   3   30.99    1.90
  -7   7   4  144.27    3.70
  -7   8  -6    6.28    1.04
  -7   8  -5  125.69    4.36
  -7   8  -4   77.44    3.50
  -7   8  -3   19.94    1.96
  -7   8  -3   24.00    1.91
  -7   8  -2  665.44   14.97
  -7   8  -2  646.47   14.95
  -7   8  -1  264.95    7.31
  -7   8  -1  264.31    7.49
  -7   8   0    1.15    1.15
  -7   8   1   28.88    1.97
  -7   8   1   30.63    1.95
  -7   8   2  368.77    8.43
  -7   8   2  359.60    8.14
  -7   9  -6   11.93    1.00
  -7   9  -4   40.73    2.11
  -7   9  -3  112.61    3.72
  -7   9  -2  249.67    6.29
  -7   9  -2  249.58    6.39
  -7   9  -1   72.71    2.69
  -7   9  -1   67.04    2.64
  -7   9   0   19.91    1.23
  -6  -5   1   15.84    1.13
  -6  -5   2   19.99    1.44
  -6  -5   2   15.11    1.06
  -6  -5   3   68.34    2.64
  -6  -5   3   71.81    2.86
  -6  -5   4   81.91    3.10
  -6  -5   5   56.10    2.56
  -6  -5   6   49.19    2.04
  -6  -5   6   54.28    2.51
  -6  -5   7   35.01    1.61
  -6  -5   8   18.08    1.25
  -6  -4  -1   33.91    1.74
  -6  -4   0  190.08    5.13
  -6  -4   0  202.02    5.42
  -6  -4   1   38.86    2.28
  -6  -4   1   34.60    1.86
  -6  -4   1   37.88    2.22
  -6  -4   2  140.30    4.83
  -6  -4   2  128.39    4.46
  -6  -4   2  141.13    4.79
  -6  -4   3  118.74    4.36
  -6  -4   3  124.86    4.67
  -6  -4   3  125.13    4.56
  -6  -4   4   11.25    1.55
  -6  -4   4   11.20    1.67
  -6  -4   4   12.24    1.63
  -6  -4   5   23.88    2.00
  -6  -4   5   24.97    2.24
  -6  -4   6  464.08   11.50
  -6  -4   6  462.38   11.18
  -6  -4   7   49.63    2.66
  -6  -4   8  131.37    4.26
  -6  -4   8  133.78    4.37
  -6  -4   9  156.82    4.42
  -6  -4   9  163.25    4.60
  -6  -3  -3   60.76    2.23
  -6  -3  -2   58.22    2.55
  -6  -3  -2   59.06    2.59
  -6  -3  -2   50.95    2.15
  -6  -3  -1   55.12    2.51
  -6  -3  -1   56.13    2.81
  -6  -3   0   45.93    2.70
  -6  -3   0   43.69    2.78
  -6  -3   0   40.51    2.24
  -6  -3   1   62.85    3.24
  -6  -3   1   64.79    3.43
  -6  -3   1   56.04    2.68
  -6  -3   2  106.95    4.70
  -6  -3   2  109.79    4.44
  -6  -3   3   53.99    3.27
  -6  -3   3   48.55    2.94
  -6  -3   4   41.44    2.73
  -6  -3   4   38.71    2.77
  -6  -3   5   45.86    3.09
  -6  -3   6  219.62    7.26
  -6  -3   6  235.97    7.28
  -6  -3   7  189.35    6.31
  -6  -3   7  183.78    6.21
  -6  -3   8   53.25    3.01
  -6  -3   8   56.04    2.77
  -6  -3   9   47.60    2.54
  -6  -3   9   47.75    2.28
  -6  -3  10   42.29    2.05
  -6  -2  -4   35.06    1.78
  -6  -2  -4   34.73    1.85
  -6  -2  -3  125.69    4.20
  -6  -2  -3  125.69    4.37
  -6  -2  -2  237.29    6.66
  -6  -2  -2  236.70    7.00
  -6  -2  -1  119.90    4.26
  -6  -2  -1  119.61    4.61
  -6  -2  -1  114.53    4.14
  -6  -2  -1  121.31    4.93
  -6  -2   0   48.34    2.91
  -6  -2   0   45.17    2.72
  -6  -2   0   47.38    3.15
  -6  -2   1   28.44    2.27
  -6  -2   2   55.38    3.05
  -6  -2   3  269.10    7.70
  -6  -2   3  260.36    8.15
  -6  -2   4  231.99    6.75
  -6  -2   4  240.44    7.63
  -6  -2   4  258.74    7.89
  -6  -2   4  247.96    7.28
  -6  -2   4  245.83    7.25
  -6  -2   5   97.71    4.69
  -6  -2   5  107.62    4.19
  -6  -2   5  109.27    4.77
  -6  -2   6  116.25    5.27
  -6  -2   6  120.61    5.00
  -6  -2   6  121.92    4.60
  -6  -2   7  147.85    5.45
  -6  -2   7  144.72    5.09
  -6  -2   7  149.98    5.09
  -6  -2   8   49.90    2.64
  -6  -2   9   28.04    2.19
  -6  -2   9   29.03    1.79
  -6  -2  10   81.30    3.04
  -6  -2  10   77.28    2.77
  -6  -1  -5   13.93    1.42
  -6  -1  -5   12.98    1.15
  -6  -1  -4   90.04    3.53
  -6  -1  -4   96.78    3.95
  -6  -1  -3   30.80    2.52
  -6  -1  -3   29.69    2.09
  -6  -1  -3   30.01    2.19
  -6  -1  -2  559.54   13.30
  -6  -1  -2  545.04   13.07
  -6  -1  -1   37.00    2.81
  -6  -1  -1   41.05    2.57
  -6  -1  -1   40.63    2.74
  -6  -1   0  305.63    8.06
  -6  -1   0  320.94    8.99
  -6  -1   0  306.89    9.03
  -6  -1   0  320.85    8.48
  -6  -1   1   58.47    3.42
  -6  -1   1   56.40    2.92
  -6  -1   1   60.92    3.37
  -6  -1   1   56.96    2.85
  -6  -1   2  416.88   10.42
  -6  -1   2  420.50   10.49
  -6  -1   2  430.74   11.27
  -6  -1   2  437.98   11.17
  -6  -1   3  289.68    8.05
  -6  -1   3  308.80    8.32
  -6  -1   3  311.69    8.17
  -6  -1   3  318.44    8.86
  -6  -1   4  224.66    7.26
  -6  -1   4  225.76    6.98
  -6  -1   4  246.63    7.11
  -6  -1   4  230.41    7.43
  -6  -1   5  330.63    9.63
  -6  -1   5  341.78    9.40
  -6  -1   5  316.45    9.50
  -6  -1   6   41.31    2.86
  -6  -1   6   38.62    2.44
  -6  -1   6   37.60    2.78
  -6  -1   6   38.86    2.89
  -6  -1   7  102.04    4.63
  -6  -1   7   97.33    4.42
  -6  -1   7   93.80    3.80
  -6  -1   8  471.49   11.31
  -6  -1   8  503.01   12.34
  -6  -1   8  507.69   12.41
  -6  -1   8  511.24   14.40
  -6  -1   9   25.38    1.80
  -6  -1   9   25.12    2.08
  -6  -1  10  197.81    5.23
  -6  -1  10  194.47    5.19
  -6   0  -6    8.71    0.90
  -6   0  -6   11.22    1.25
  -6   0  -6    9.71    1.33
  -6   0  -5  129.39    4.60
  -6   0  -5  122.47    4.26
  -6   0  -5  117.45    4.01
  -6   0  -5  121.37    4.64
  -6   0  -4  100.57    3.94
  -6   0  -4  108.31    4.38
  -6   0  -3  155.53    5.68
  -6   0  -3  152.15    5.09
  -6   0  -3  141.80    5.68
  -6   0  -3  157.77    5.74
  -6   0  -2  160.20    5.98
  -6   0  -2  160.55    5.82
  -6   0  -2  156.01    5.14
  -6   0  -2  155.87    5.77
  -6   0  -1    3.55    1.52
  -6   0  -1    5.10    1.24
  -6   0  -1    5.15    1.47
  -6   0  -1    4.63    1.41
  -6   0  -1    5.05    1.12
  -6   0   0  197.91    6.09
  -6   0   0  189.54    5.60
  -6   0   0  187.43    6.43
  -6   0   0  195.38    6.45
  -6   0   1  121.92    4.88
  -6   0   1  126.26    4.61
  -6   0   1  121.80    4.71
  -6   0   2  422.63   11.09
  -6   0   2  453.50   10.93
  -6   0   2  417.37   10.19
  -6   0   2  437.98   10.98
  -6   0   3  181.40    5.78
  -6   0   3  183.70    6.06
  -6   0   3  192.21    6.12
  -6   0   4  216.08    6.77
  -6   0   4  216.86    6.72
  -6   0   4  227.27    7.02
  -6   0   4  212.25    6.84
  -6   0   5  254.23    7.66
  -6   0   5  271.56    7.91
  -6   0   5  266.91    8.07
  -6   0   5  263.34    8.00
  -6   0   6   48.82    3.21
  -6   0   6   50.69    3.28
  -6   0   7  297.84    9.33
  -6   0   7  289.52    9.12
  -6   0   8   16.60    1.94
  -6   0   8   17.33    1.60
  -6   0   8   14.57    8.30
  -6   0   9   89.28    3.61
  -6   0   9   82.97    3.12
  -6   0  10  103.63    3.51
  -6   0  10   96.42    3.14
  -6   1  -7   50.78    2.19
  -6   1  -7   54.07    2.30
  -6   1  -6    3.60    1.16
  -6   1  -6    2.97    1.06
  -6   1  -6    3.56    1.14
  -6   1  -5    1.06    1.18
  -6   1  -5    0.29    1.39
  -6   1  -5   -0.17    1.13
  -6   1  -5    1.24    1.31
  -6   1  -4  744.85   17.49
  -6   1  -4  735.25   17.18
  -6   1  -4  722.99   17.26
  -6   1  -3   53.23    3.09
  -6   1  -3   61.13    3.51
  -6   1  -3   59.29    3.31
  -6   1  -3   60.77    3.48
  -6   1  -2   15.55    1.91
  -6   1  -2   14.67    2.03
  -6   1  -2   18.26    1.81
  -6   1  -1  274.02    7.68
  -6   1  -1  267.17    7.90
  -6   1  -1  255.17    7.68
  -6   1   0  248.83    7.33
  -6   1   0  268.15    7.54
  -6   1   1  369.32    9.02
  -6   1   1  362.19    9.44
  -6   1   1  366.93    9.89
  -6   1   1  385.48    9.78
  -6   1   2  178.95    5.63
  -6   1   2  181.63    6.15
  -6   1   2  185.35    5.72
  -6   1   2  190.08    6.04
  -6   1   3  487.11   11.69
  -6   1   3  492.64   11.96
  -6   1   3  508.47   12.34
  -6   1   4  625.74   14.79
  -6   1   4  661.50   14.95
  -6   1   4  647.20   14.40
  -6   1   5  202.95    6.37
  -6   1   5  196.35    5.91
  -6   1   6   30.41    2.46
  -6   1   6   30.95    2.61
  -6   1   7  164.20    5.88
  -6   1   7  179.14    6.48
  -6   1   8   17.54    2.09
  -6   1   8   16.75    1.71
  -6   1   9   11.83    1.21
  -6   1   9   35.64    5.69
  -6   1  10  127.86    3.74
  -6   2  -8   20.60    1.43
  -6   2  -8   19.36    1.33
  -6   2  -7   76.09    3.17
  -6   2  -7   75.26    3.29
  -6   2  -7   83.69    3.52
  -6   2  -7   74.60    2.96
  -6   2  -6  305.78    8.57
  -6   2  -6  288.87    8.12
  -6   2  -6  285.04    7.88
  -6   2  -6  303.61    8.46
  -6   2  -5  121.15    5.09
  -6   2  -5  121.40    5.19
  -6   2  -5  133.48    4.83
  -6   2  -5  131.83    4.98
  -6   2  -4  332.23    9.12
  -6   2  -4  319.13    9.55
  -6   2  -4  342.39    9.04
  -6   2  -4  340.03    9.43
  -6   2  -3  483.00   11.86
  -6   2  -3  505.07   12.32
  -6   2  -3  489.03   12.03
  -6   2  -2  237.69    7.47
  -6   2  -2  238.17    7.05
  -6   2  -2  240.87    6.88
  -6   2  -1   86.80    3.94
  -6   2  -1   80.04    3.45
  -6   2  -1   80.18    3.37
  -6   2   0  505.77   12.23
  -6   2   0  494.60   11.61
  -6   2   0  514.26   11.97
  -6   2   0  502.10   12.22
  -6   2   0  488.95   11.43
  -6   2   1 1146.95   24.48
  -6   2   1 1148.75   23.77
  -6   2   1 1209.14   24.75
  -6   2   1 1172.61   24.14
  -6   2   2   47.90    2.86
  -6   2   2   52.56    2.78
  -6   2   2   49.60    2.81
  -6   2   3  533.47   12.56
  -6   2   3  541.45   12.93
  -6   2   3  558.43   13.23
  -6   2   3  523.57   12.51
  -6   2   4   51.97    3.20
  -6   2   4   55.67    2.90
  -6   2   5  173.02    6.08
  -6   2   5  159.90    5.35
  -6   2   5  158.97    5.90
  -6   2   6  320.18    9.06
  -6   2   6  299.44    8.14
  -6   2   6  296.33    8.66
  -6   2   7   26.75    2.44
  -6   2   7    2.00    1.52
  -6   2   9  161.23    4.67
  -6   3  -8   26.56    1.87
  -6   3  -8   26.87    1.79
  -6   3  -7  304.73    7.83
  -6   3  -7  290.11    7.39
  -6   3  -6  469.85   11.12
  -6   3  -6  466.08   11.43
  -6   3  -6  483.71   11.87
  -6   3  -6  484.43   11.96
  -6   3  -5  437.52   10.94
  -6   3  -5  464.32   11.49
  -6   3  -5  432.97   10.64
  -6   3  -5  455.25   11.59
  -6   3  -4  471.20   11.39
  -6   3  -4  489.86   12.24
  -6   3  -4  479.51   11.23
  -6   3  -4  461.34   11.78
  -6   3  -3  466.38   11.12
  -6   3  -3  460.85   10.91
  -6   3  -3  473.99   11.45
  -6   3  -3  475.27   12.13
  -6   3  -2   57.18    2.93
  -6   3  -2   58.92    3.26
  -6   3  -2   57.26    2.79
  -6   3  -1  282.55    7.84
  -6   3  -1  282.54    7.95
  -6   3  -1  276.32    7.39
  -6   3   0  341.12    8.94
  -6   3   0  352.33    9.25
  -6   3   0  351.17    9.25
  -6   3   0  364.91    9.56
  -6   3   0  342.48    9.34
  -6   3   1   38.95    2.62
  -6   3   1   37.52    2.45
  -6   3   1   37.38    2.41
  -6   3   1   34.58    2.50
  -6   3   1   35.46    2.44
  -6   3   2  285.18    8.17
  -6   3   2  289.14    8.11
  -6   3   2  285.51    8.09
  -6   3   3  344.57    9.29
  -6   3   3  323.63    8.86
  -6   3   4   36.77    2.33
  -6   3   4   40.42    2.77
  -6   3   4   37.82    2.74
  -6   3   5   79.85    3.98
  -6   3   5   79.54    3.94
  -6   3   6  246.95    7.55
  -6   3   6  249.22    7.46
  -6   3   7   49.25    2.72
  -6   3   7   24.77    2.10
  -6   3   8   16.82    4.06
  -6   4  -9   58.87    2.13
  -6   4  -8  108.01    4.08
  -6   4  -8  103.93    3.72
  -6   4  -7  125.50    4.53
  -6   4  -7  128.42    4.77
  -6   4  -6   32.70    2.33
  -6   4  -6   37.20    2.67
  -6   4  -5 1317.85   27.32
  -6   4  -5 1334.96   28.32
  -6   4  -4   22.30    1.81
  -6   4  -4   25.07    1.98
  -6   4  -3   25.18    2.31
  -6   4  -3   25.89    2.12
  -6   4  -3   22.93    2.16
  -6   4  -2  116.32    4.59
  -6   4  -2  115.60    4.76
  -6   4  -2  114.07    4.48
  -6   4  -1  111.24    4.26
  -6   4  -1  111.06    4.49
  -6   4   0  674.95   15.28
  -6   4   0  640.56   14.71
  -6   4   0  649.50   15.46
  -6   4   0  662.01   15.40
  -6   4   1  296.04    8.43
  -6   4   1  290.15    8.18
  -6   4   1  281.26    7.61
  -6   4   2    9.62    1.66
  -6   4   2   11.82    1.72
  -6   4   2   10.45    1.70
  -6   4   3   11.79    1.73
  -6   4   3   12.83    1.74
  -6   4   3   12.28    1.93
  -6   4   4  153.89    5.64
  -6   4   4  140.08    5.14
  -6   4   4  154.71    5.34
  -6   4   5   16.20    1.97
  -6   4   5   17.14    1.82
  -6   4   6   22.83    2.03
  -6   4   6   25.75    1.87
  -6   4   7  118.72    3.74
  -6   5  -9  305.41    7.36
  -6   5  -8   15.15    1.60
  -6   5  -8   15.41    1.31
  -6   5  -7  117.33    4.04
  -6   5  -7  119.36    4.71
  -6   5  -5    3.92    1.56
  -6   5  -5    3.95    1.21
  -6   5  -4  986.18   21.96
  -6   5  -4  993.48   21.50
  -6   5  -4  988.72   21.66
  -6   5  -3   46.87    2.71
  -6   5  -3   46.86    3.03
  -6   5  -3   46.60    3.02
  -6   5  -2  165.20    5.83
  -6   5  -2  160.55    5.86
  -6   5  -2  157.01    5.14
  -6   5  -1  195.96    6.65
  -6   5  -1  214.01    6.56
  -6   5   0  217.11    7.13
  -6   5   0  230.72    7.39
  -6   5   0  222.97    6.76
  -6   5   1 1569.44   32.75
  -6   5   1 1572.03   32.03
  -6   5   1 1590.00   33.11
  -6   5   2   71.41    3.73
  -6   5   2   70.79    3.31
  -6   5   2   76.05    3.93
  -6   5   2   77.72    3.94
  -6   5   3  117.41    4.31
  -6   5   3  124.91    5.06
  -6   5   3  125.15    4.98
  -6   5   4   22.88    2.02
  -6   5   4   23.01    2.28
  -6   5   5   80.03    3.50
  -6   5   6   48.24    2.17
  -6   6  -9  100.68    3.15
  -6   6  -8    4.35    1.04
  -6   6  -7  122.56    4.38
  -6   6  -7  117.68    3.98
  -6   6  -7  125.48    4.79
  -6   6  -6  204.06    6.26
  -6   6  -6  201.24    6.12
  -6   6  -6  194.20    6.52
  -6   6  -5  114.16    4.73
  -6   6  -5  113.86    4.23
  -6   6  -5  114.72    4.80
  -6   6  -4    3.39    1.28
  -6   6  -4    1.61    1.34
  -6   6  -4    2.56    1.20
  -6   6  -4    2.65    1.27
  -6   6  -3   14.87    2.01
  -6   6  -3   14.88    2.05
  -6   6  -3   15.98    1.87
  -6   6  -2  766.83   17.93
  -6   6  -2  768.68   17.16
  -6   6  -2  802.51   18.17
  -6   6  -1  226.83    7.66
  -6   6  -1  238.39    6.78
  -6   6  -1  251.31    7.86
  -6   6   0   69.89    3.95
  -6   6   0   73.19    3.91
  -6   6   1  485.81   12.68
  -6   6   1  473.06   12.21
  -6   6   2   47.91    3.15
  -6   6   2   51.16    3.37
  -6   6   3   66.99    3.50
  -6   6   3   75.26    3.60
  -6   6   3   71.23    3.28
  -6   6   4  238.05    6.71
  -6   6   4  241.68    6.87
  -6   7  -8   31.61    1.97
  -6   7  -7   93.16    3.74
  -6   7  -7   92.70    3.59
  -6   7  -6  116.57    4.53
  -6   7  -6  116.80    4.45
  -6   7  -5  109.35    4.61
  -6   7  -5  110.79    4.34
  -6   7  -4   76.22    3.76
  -6   7  -4   75.73    3.72
  -6   7  -4   78.96    3.95
  -6   7  -3   90.34    4.23
  -6   7  -3   91.65    4.35
  -6   7  -2  201.31    6.99
  -6   7  -2  220.09    7.12
  -6   7  -2  199.29    6.96
  -6   7  -1  317.09    9.31
  -6   7  -1  296.68    8.93
  -6   7   0   66.67    3.52
  -6   7   1  181.04    6.47
  -6   7   1  179.77    5.87
  -6   7   2   71.44    3.64
  -6   7   2   68.42    3.38
  -6   7   3    2.09    1.09
  -6   7   3    1.88    0.97
  -6   7   4  230.44    5.89
  -6   8  -8   27.30    1.45
  -6   8  -7    5.90    1.13
  -6   8  -6   68.16    3.22
  -6   8  -6   65.73    2.89
  -6   8  -5   14.62    1.78
  -6   8  -5   13.32    1.59
  -6   8  -4    9.88    1.70
  -6   8  -4    9.86    1.70
  -6   8  -4    9.85    1.46
  -6   8  -3  219.82    6.97
  -6   8  -3  212.23    6.72
  -6   8  -3  219.01    6.93
  -6   8  -2  102.58    4.32
  -6   8  -2   94.98    4.18
  -6   8  -1  408.89   10.90
  -6   8  -1  428.75   10.60
  -6   8   0  131.44    4.45
  -6   8   1   51.48    2.61
  -6   8   1   46.28    2.75
  -6   8   2  164.54    4.97
  -6   8   2  156.58    4.43
  -6   8   3   34.88    1.68
  -6   9  -7  140.01    4.09
  -6   9  -5   12.66    1.45
  -6   9  -4  113.73    3.77
  -6   9  -4  127.33    4.32
  -6   9  -3  108.58    3.82
  -6   9  -3  107.98    3.92
  -6   9  -2   61.03    2.82
  -6   9  -2   63.52    2.70
  -6   9  -1  134.68    4.44
  -6   9   0   73.95    2.66
  -6   9   0   70.01    2.86
  -6   9   1   71.04    2.54
  -6  10  -5  216.28    5.14
  -5  -6   1    7.54    0.86
  -5  -6   2   14.69    1.14
  -5  -6   3  125.10    3.81
  -5  -6   4    6.45    0.84
  -5  -6   4    6.66    0.99
  -5  -6   5  103.80    3.45
  -5  -6   5  108.91    3.46
  -5  -6   6   26.41    1.55
  -5  -6   8  175.75    4.87
  -5  -6   9   17.73    1.16
  -5  -5  -1   60.15    2.28
  -5  -5   0   58.47    2.70
  -5  -5   0   67.31    2.75
  -5  -5   0   61.16    2.43
  -5  -5   1   21.51    1.97
  -5  -5   1   24.14    1.66
  -5  -5   1   24.81    1.63
  -5  -5   1   24.48    1.84
  -5  -5   2  409.00    9.93
  -5  -5   2  390.58    9.60
  -5  -5   2  386.80    9.42
  -5  -5   3   37.72    2.39
  -5  -5   3   43.46    2.74
  -5  -5   3   39.26    2.43
  -5  -5   3   39.77    2.26
  -5  -5   4   43.94    2.37
  -5  -5   4   48.61    2.90
  -5  -5   4   47.13    2.61
  -5  -5   4   48.51    2.79
  -5  -5   5   27.48    1.96
  -5  -5   5   28.63    2.03
  -5  -5   5   30.25    2.37
  -5  -5   6   41.77    2.31
  -5  -5   6   40.87    2.35
  -5  -5   7  369.31    8.98
  -5  -5   7  390.43    9.33
  -5  -5   8   66.51    3.11
  -5  -5   8   60.06    2.71
  -5  -5   9  291.68    7.22
  -5  -5   9  318.32    7.72
  -5  -5  10   61.86    2.27
  -5  -5  10   45.42    1.79
  -5  -4  -3   72.63    2.55
  -5  -4  -3   80.06    2.78
  -5  -4  -2   12.31    1.11
  -5  -4  -2   14.62    1.56
  -5  -4  -2   12.12    1.21
  -5  -4  -2   13.50    1.40
  -5  -4  -1    5.96    1.13
  -5  -4  -1    6.22    1.15
  -5  -4  -1    6.96    1.35
  -5  -4  -1    5.74    1.40
  -5  -4   0   80.71    3.63
  -5  -4   0   79.64    3.57
  -5  -4   0   75.18    3.33
  -5  -4   0   85.85    3.88
  -5  -4   1   78.59    3.49
  -5  -4   1   93.26    4.19
  -5  -4   1   85.74    3.82
  -5  -4   1   89.82    3.94
  -5  -4   2   34.16    2.41
  -5  -4   2   39.02    2.76
  -5  -4   2   33.31    2.23
  -5  -4   2   39.35    2.73
  -5  -4   3  155.36    5.65
  -5  -4   3  139.37    4.87
  -5  -4   3  149.24    5.19
  -5  -4   3  150.06    5.56
  -5  -4   4  148.85    5.58
  -5  -4   4  147.78    5.44
  -5  -4   4  129.08    4.84
  -5  -4   4  143.92    5.27
  -5  -4   5   25.63    2.33
  -5  -4   5   28.87    2.54
  -5  -4   5   29.30    2.12
  -5  -4   5   25.23    2.41
  -5  -4   6  161.45    5.71
  -5  -4   6  156.89    5.86
  -5  -4   6  154.02    5.08
  -5  -4   7   73.04    3.60
  -5  -4   7   68.11    3.71
  -5  -4   8    4.24    1.37
  -5  -4   8    3.89    1.30
  -5  -4   9  280.21    7.61
  -5  -4   9  276.37    7.58
  -5  -4  10  103.46    3.65
  -5  -4  10  109.67    3.71
  -5  -4  11    7.94    0.85
  -5  -3  -4    8.29    0.90
  -5  -3  -4    9.33    1.17
  -5  -3  -3   39.16    2.28
  -5  -3  -3   42.27    2.58
  -5  -3  -3   47.15    2.52
  -5  -3  -2   11.97    1.60
  -5  -3  -2   10.63    1.72
  -5  -3  -2   12.46    1.65
  -5  -3  -1  348.11    9.44
  -5  -3  -1  339.01    9.58
  -5  -3  -1  348.41    9.53
  -5  -3   0  225.97    6.93
  -5  -3   0  223.94    7.21
  -5  -3   0  221.74    7.11
  -5  -3   1  473.75   11.96
  -5  -3   1  477.06   11.64
  -5  -3   1  511.60   12.48
  -5  -3   1  524.35   12.64
  -5  -3   2  743.61   16.59
  -5  -3   2  760.48   16.97
  -5  -3   2  794.91   17.67
  -5  -3   2  756.85   17.50
  -5  -3   3 1013.78   21.93
  -5  -3   3 1048.50   22.94
  -5  -3   3 1079.46   22.70
  -5  -3   4   19.58    1.73
  -5  -3   4   18.41    2.25
  -5  -3   4   19.13    2.08
  -5  -3   5   16.81    1.61
  -5  -3   5   19.06    2.18
  -5  -3   5   20.27    2.23
  -5  -3   5   16.56    2.02
  -5  -3   6  116.22    4.97
  -5  -3   6  111.06    4.14
  -5  -3   6  122.30    5.11
  -5  -3   7   94.09    4.47
  -5  -3   7   98.96    4.60
  -5  -3   7   91.13    3.81
  -5  -3   8   22.20    2.17
  -5  -3   8   22.35    2.32
  -5  -3   9   12.50    1.68
  -5  -3   9    9.60    1.77
  -5  -3  10  114.51    4.17
  -5  -3  10  112.00    3.78
  -5  -3  11   10.79    1.20
  -5  -3  11   13.56    1.16
  -5  -3  11   13.02    1.01
  -5  -2  -6   42.56    1.75
  -5  -2  -6   42.42    1.78
  -5  -2  -5  266.27    6.83
  -5  -2  -5  265.14    7.03
  -5  -2  -5  270.21    7.13
  -5  -2  -4  137.80    4.97
  -5  -2  -4  131.20    4.80
  -5  -2  -4  132.24    4.80
  -5  -2  -3  114.03    4.74
  -5  -2  -3  116.10    4.76
  -5  -2  -3  115.07    4.68
  -5  -2  -2   31.99    2.54
  -5  -2  -2   31.36    2.12
  -5  -2  -2   32.06    2.64
  -5  -2  -2   35.34    2.73
  -5  -2  -1  675.15   16.11
  -5  -2  -1  688.14   15.87
  -5  -2  -1  658.63   15.22
  -5  -2  -1  691.23   15.97
  -5  -2   0 1156.88   24.62
  -5  -2   0 1212.77   25.06
  -5  -2   0 1148.66   24.76
  -5  -2   0 1117.21   24.14
  -5  -2   1 1263.39   26.29
  -5  -2   1 1269.11   26.21
  -5  -2   1 1214.98   25.75
  -5  -2   1 1306.57   26.78
  -5  -2   2  817.30   17.67
  -5  -2   2  770.89   16.97
  -5  -2   2  803.45   17.73
  -5  -2   3 1228.49   24.94
  -5  -2   3 1183.23   24.59
  -5  -2   3 1222.74   25.35
  -5  -2   4  294.63    7.97
  -5  -2   4  280.50    8.22
  -5  -2   4  285.58    7.97
  -5  -2   4  270.00    7.49
  -5  -2   5  109.33    4.24
  -5  -2   5  120.56    4.74
  -5  -2   5  109.39    4.74
  -5  -2   5  110.24    4.75
  -5  -2   6  230.26    7.06
  -5  -2   6  214.36    7.38
  -5  -2   7  149.36    5.62
  -5  -2   7  144.40    5.35
  -5  -2   8   24.11    2.18
  -5  -2   8   21.23    2.23
  -5  -2   9   72.08    3.45
  -5  -2   9   70.33    3.63
  -5  -2  10    4.13    1.22
  -5  -2  10    4.13    1.26
  -5  -2  11  105.45    3.42
  -5  -2  11  110.22    3.59
  -5  -2  11  107.52    3.48
  -5  -1  -7   31.49    1.44
  -5  -1  -6  169.79    5.15
  -5  -1  -6  169.85    5.09
  -5  -1  -5   13.37    1.71
  -5  -1  -5   12.70    1.78
  -5  -1  -4  193.34    6.38
  -5  -1  -4  186.40    5.90
  -5  -1  -4  198.95    6.66
  -5  -1  -3   46.33    3.06
  -5  -1  -3   41.41    2.65
  -5  -1  -3   44.84    2.87
  -5  -1  -2  260.60    7.61
  -5  -1  -2  271.64    7.98
  -5  -1  -1  823.75   17.69
  -5  -1  -1  823.71   17.59
  -5  -1   0  234.87    6.53
  -5  -1   0  252.20    7.15
  -5  -1   0  246.42    6.91
  -5  -1   1   94.23    3.57
  -5  -1   1   81.69    3.69
  -5  -1   1   83.73    3.34
  -5  -1   1   89.80    3.75
  -5  -1   2  327.92    8.21
  -5  -1   2  349.29    8.64
  -5  -1   2  360.29    9.15
  -5  -1   2  354.84    9.10
  -5  -1   2  344.09    8.64
  -5  -1   3  140.72    4.63
  -5  -1   3  139.11    4.58
  -5  -1   3  145.80    5.04
  -5  -1   3  144.76    4.78
  -5  -1   4  338.07    8.57
  -5  -1   4  327.64    8.71
  -5  -1   4  332.20    8.93
  -5  -1   4  334.44    8.66
  -5  -1   5  176.18    6.26
  -5  -1   5  188.63    6.12
  -5  -1   5  179.58    6.12
  -5  -1   6   90.08    4.20
  -5  -1   6   89.58    4.22
  -5  -1   7 1500.98   31.58
  -5  -1   7 1485.43   30.95
  -5  -1   7 1453.27   30.38
  -5  -1   7 1481.57   31.13
  -5  -1   8  306.76    8.50
  -5  -1   8  323.88   12.05
  -5  -1   8  295.41    8.91
  -5  -1   8  312.36    9.13
  -5  -1   9  107.92    4.62
  -5  -1   9   97.67    9.48
  -5  -1  10   30.12    2.17
  -5  -1  10   28.65    2.04
  -5  -1  11  144.16    4.12
  -5  -1  11  159.86    4.35
  -5   0  -8  118.29    3.25
  -5   0  -8  106.30    3.11
  -5   0  -7   41.17    2.13
  -5   0  -7   42.67    2.36
  -5   0  -7   44.92    2.46
  -5   0  -7   40.50    2.31
  -5   0  -6    5.69    1.21
  -5   0  -6    4.15    1.35
  -5   0  -6    5.40    1.49
  -5   0  -6    5.41    1.45
  -5   0  -5   88.83    4.30
  -5   0  -5   90.02    4.24
  -5   0  -5   87.51    4.24
  -5   0  -5   89.35    3.98
  -5   0  -4  106.26    4.75
  -5   0  -4  107.97    4.68
  -5   0  -4  101.96    4.46
  -5   0  -3   74.53    3.83
  -5   0  -3   77.00    3.76
  -5   0  -3   80.35    3.80
  -5   0  -2   95.21    4.08
  -5   0  -2   95.06    3.72
  -5   0  -2   92.70    3.99
  -5   0  -2   92.00    4.03
  -5   0  -2   98.44    4.06
  -5   0  -1  264.60    7.56
  -5   0  -1  285.80    7.81
  -5   0  -1  275.60    7.63
  -5   0  -1  259.43    7.08
  -5   0  -1  286.59    7.73
  -5   0   0  876.58   18.47
  -5   0   0  831.77   17.80
  -5   0   0  861.90   18.63
  -5   0   0  870.51   18.55
  -5   0   1  309.59    7.55
  -5   0   1  325.30    8.33
  -5   0   1  313.29    8.14
  -5   0   1  317.70    8.02
  -5   0   1  301.54    7.42
  -5   0   2  423.95    9.79
  -5   0   2  442.88   10.44
  -5   0   2  426.87   10.05
  -5   0   2  451.38   10.45
  -5   0   3   59.86    2.83
  -5   0   3   61.02    2.89
  -5   0   3   62.75    3.00
  -5   0   4  365.97    9.37
  -5   0   4  351.84    9.17
  -5   0   4  357.79    9.15
  -5   0   4  375.40    9.47
  -5   0   5  471.99   11.58
  -5   0   5  478.64   11.34
  -5   0   5  485.43   11.68
  -5   0   6  562.46   12.88
  -5   0   6  549.59   13.66
  -5   0   6  563.57   13.30
  -5   0   6  560.14   13.47
  -5   0   6  556.47   13.63
  -5   0   7 1739.21   35.13
  -5   0   7 1679.24   34.84
  -5   0   7 1700.07   34.21
  -5   0   8   41.27    2.91
  -5   0   8   22.99    7.82
  -5   0   9  208.46    6.55
  -5   0   9  208.11    6.45
  -5   0  10  172.11    5.19
  -5   0  10  172.39    5.16
  -5   0  10  180.95    5.54
  -5   0  11   73.27    2.55
  -5   1  -8  130.85    4.15
  -5   1  -8  123.67    3.93
  -5   1  -8  122.50    3.72
  -5   1  -8  126.68    4.12
  -5   1  -7   21.57    1.96
  -5   1  -7   22.55    1.95
  -5   1  -7   23.60    2.09
  -5   1  -6   20.31    2.06
  -5   1  -6   19.30    2.17
  -5   1  -5  491.28   12.29
  -5   1  -5  491.63   12.51
  -5   1  -5  484.59   12.54
  -5   1  -4  168.94    5.54
  -5   1  -4  174.24    6.14
  -5   1  -4  177.44    5.87
  -5   1  -4  170.96    6.00
  -5   1  -3  116.20    4.41
  -5   1  -3  117.45    4.52
  -5   1  -3  107.27    4.16
  -5   1  -3  120.35    4.57
  -5   1  -2   86.77    3.59
  -5   1  -2   92.18    3.76
  -5   1  -2   90.25    3.69
  -5   1  -1  483.92   11.37
  -5   1  -1  487.32   11.29
  -5   1  -1  484.61   11.33
  -5   1   0  232.73    6.36
  -5   1   0  232.52    6.33
  -5   1   0  233.66    8.27
  -5   1   0  228.85    6.15
  -5   1   1  229.19    6.02
  -5   1   1  224.97    6.09
  -5   1   1  219.77    8.04
  -5   1   1  232.46    6.39
  -5   1   1  224.55    6.43
  -5   1   2  132.50    4.50
  -5   1   2  126.80    4.37
  -5   1   2  125.33    4.14
  -5   1   2  126.92    4.23
  -5   1   2  126.54    4.07
  -5   1   3   38.13    2.31
  -5   1   3   36.23    2.04
  -5   1   3   39.27    2.04
  -5   1   4  380.43    9.39
  -5   1   4  356.91    8.88
  -5   1   5 3355.62   64.84
  -5   1   5 3349.27   65.71
  -5   1   5 3477.74   65.54
  -5   1   5 3411.54   65.61
  -5   1   6  757.61   16.98
  -5   1   6  745.13   17.03
  -5   1   6  737.09   17.34
  -5   1   7  244.16    7.39
  -5   1   7  238.48    7.18
  -5   1   7  241.82    7.75
  -5   1   7  250.24    7.52
  -5   1   8    3.84    1.63
  -5   1   8    4.22    1.30
  -5   1   8    4.97    1.32
  -5   1   9   15.92    1.55
  -5   1   9   16.17    1.61
  -5   1  10  471.86   10.44
  -5   1  10  441.53    9.98
  -5   2  -9   56.52    2.23
  -5   2  -9   54.47    2.16
  -5   2  -8   67.70    2.94
  -5   2  -8   71.50    3.30
  -5   2  -8   71.03    3.16
  -5   2  -7   20.47    2.09
  -5   2  -7   21.45    2.20
  -5   2  -7   21.86    1.78
  -5   2  -7   19.72    1.88
  -5   2  -7   23.34    2.19
  -5   2  -6   32.40    2.57
  -5   2  -6   32.25    2.41
  -5   2  -6   31.53    2.42
  -5   2  -6   32.44    2.68
  -5   2  -6   33.38    2.38
  -5   2  -5  549.84   13.67
  -5   2  -5  533.49   13.32
  -5   2  -5  565.45   13.60
  -5   2  -5  589.65   13.92
  -5   2  -5  566.88   13.50
  -5   2  -4 1441.87   30.40
  -5   2  -4 1529.97   30.60
  -5   2  -4 1441.83   30.58
  -5   2  -4 1526.57   30.30
  -5   2  -3  313.13    8.33
  -5   2  -3  297.74    8.14
  -5   2  -3  311.68    8.02
  -5   2  -3  309.60    8.12
  -5   2  -2  198.05    6.02
  -5   2  -2  204.41    5.76
  -5   2  -2  208.38    5.72
  -5   2  -2  215.04    5.89
  -5   2  -2  202.87    5.89
  -5   2  -1  251.96    6.50
  -5   2  -1  265.70    6.95
  -5   2  -1  272.41    6.90
  -5   2  -1  270.73    7.24
  -5   2  -1  273.52    6.80
  -5   2   0  529.20   12.14
  -5   2   0  525.43   11.93
  -5   2   0  527.00   12.02
  -5   2   0  516.85   11.59
  -5   2   0  514.37   11.45
  -5   2   0  531.70   14.88
  -5   2   1  827.60   17.51
  -5   2   1  801.26   17.41
  -5   2   1  807.05   17.22
  -5   2   1  832.63   17.46
  -5   2   1  809.60   17.43
  -5   2   1  818.86   20.22
  -5   2   2  637.96   17.01
  -5   2   2  679.67   14.79
  -5   2   2  673.94   14.80
  -5   2   2  688.77   14.96
  -5   2   2  662.00   14.71
  -5   2   3   40.81    2.21
  -5   2   3   41.58    2.27
  -5   2   3   37.87    2.41
  -5   2   4  237.75    6.57
  -5   2   4  238.77    7.02
  -5   2   4  242.34    7.13
  -5   2   5   66.28    3.07
  -5   2   5   64.23    3.36
  -5   2   5   64.81    3.43
  -5   2   6  311.35    8.83
  -5   2   6  305.14    8.34
  -5   2   6  319.50    8.36
  -5   2   7   76.29    3.43
  -5   2   7   86.65    3.81
  -5   2   7   77.80    3.40
  -5   2   7   86.04    4.12
  -5   2   8    0.49    0.89
  -5   2   9   42.34    2.11
  -5   2   9   47.65    2.39
  -5   3  -9   22.89    1.70
  -5   3  -9   22.65    1.52
  -5   3  -8    2.02    1.03
  -5   3  -8    1.48    0.94
  -5   3  -8    1.30    1.17
  -5   3  -8    1.91    0.82
  -5   3  -8    1.44    1.13
  -5   3  -7   61.92    3.37
  -5   3  -7   55.00    2.78
  -5   3  -7   57.26    3.15
  -5   3  -7   56.19    3.07
  -5   3  -6  624.15   14.63
  -5   3  -6  596.94   14.13
  -5   3  -6  612.29   14.94
  -5   3  -6  605.58   14.47
  -5   3  -6  582.37   13.70
  -5   3  -5 1849.48   37.03
  -5   3  -5 1788.94   35.99
  -5   3  -5 1838.71   37.07
  -5   3  -5 1766.99   36.26
  -5   3  -5 1866.76   36.80
  -5   3  -5 1805.44   37.18
  -5   3  -4 1791.40   36.88
  -5   3  -4 1859.71   37.08
  -5   3  -4 1897.42   36.91
  -5   3  -4 1945.51   37.91
  -5   3  -4 1860.40   37.90
  -5   3  -4 1957.99   37.57
  -5   3  -3  275.53    7.26
  -5   3  -3  288.64    7.69
  -5   3  -3  258.14    7.54
  -5   3  -3  280.02    7.35
  -5   3  -2  149.03    4.51
  -5   3  -2  155.30    4.89
  -5   3  -2  154.31    5.17
  -5   3  -1  363.60    9.09
  -5   3  -1  370.00    9.05
  -5   3   0  817.94   20.48
  -5   3   0  850.78   17.88
  -5   3   0  842.59   18.25
  -5   3   0  861.32   18.17
  -5   3   1  673.91   14.81
  -5   3   1  685.30   15.31
  -5   3   1  701.50   15.19
  -5   3   2  161.58    5.20
  -5   3   2  161.82    5.27
  -5   3   2  159.06    5.25
  -5   3   2  162.69    4.77
  -5   3   3   72.77    3.31
  -5   3   3   63.74    3.08
  -5   3   3   64.42    3.23
  -5   3   4 1091.79   22.84
  -5   3   4 1094.23   23.14
  -5   3   4 1079.10   23.27
  -5   3   5   86.76    3.99
  -5   3   5   88.80    3.98
  -5   3   6  466.03   11.88
  -5   3   6  510.48   12.21
  -5   3   7   50.75    2.69
  -5   3   8   60.87    2.62
  -5   4 -10   55.94    2.12
  -5   4  -9   85.79    3.34
  -5   4  -9   84.53    3.26
  -5   4  -9   75.00    3.30
  -5   4  -8   10.02    1.54
  -5   4  -8   12.25    1.76
  -5   4  -8   11.24    1.28
  -5   4  -8   11.92    1.70
  -5   4  -7  108.91    4.66
  -5   4  -7  108.74    4.70
  -5   4  -7  100.29    3.88
  -5   4  -7  111.47    4.69
  -5   4  -7  108.91    4.44
  -5   4  -6  471.09   12.09
  -5   4  -6  471.98   11.90
  -5   4  -6  443.61   11.44
  -5   4  -6  465.33   11.88
  -5   4  -5  102.76    4.04
  -5   4  -5  106.80    4.05
  -5   4  -5  104.79    4.35
  -5   4  -4  209.32    6.44
  -5   4  -4  209.52    6.58
  -5   4  -4  205.93    5.93
  -5   4  -4  214.05    6.36
  -5   4  -3  369.92    9.62
  -5   4  -3  367.33    9.61
  -5   4  -3  379.94    9.54
  -5   4  -3  363.09    9.11
  -5   4  -2  147.88    5.07
  -5   4  -2  152.33    5.00
  -5   4  -2  151.06    5.06
  -5   4  -2  149.53    4.80
  -5   4  -2  145.36    4.85
  -5   4  -1  337.05    8.73
  -5   4  -1  337.80    8.83
  -5   4  -1  336.66    8.30
  -5   4   0  234.27    6.54
  -5   4   0  235.04    6.90
  -5   4   0  222.32    6.70
  -5   4   1  773.41   16.84
  -5   4   1  737.28   16.36
  -5   4   1  770.66   16.98
  -5   4   1  737.05   16.34
  -5   4   2   25.21    1.89
  -5   4   2   26.50    1.91
  -5   4   2   24.60    2.07
  -5   4   3  394.29   10.20
  -5   4   3  399.39   10.31
  -5   4   3  400.30    9.89
  -5   4   3  387.23    9.77
  -5   4   4   49.30    3.02
  -5   4   4   49.60    2.91
  -5   4   4   46.58    2.65
  -5   4   4   49.68    2.63
  -5   4   5    3.17    1.04
  -5   4   5    3.86    1.16
  -5   4   5    3.82    1.37
  -5   4   6  132.37    4.59
  -5   5 -10  174.76    4.52
  -5   5 -10  187.56    4.83
  -5   5  -9   55.42    2.77
  -5   5  -9   54.06    2.50
  -5   5  -9   55.22    2.74
  -5   5  -8   41.39    2.77
  -5   5  -8   41.72    2.45
  -5   5  -8   44.50    2.74
  -5   5  -7  266.81    7.83
  -5   5  -7  261.88    7.38
  -5   5  -6  249.90    7.60
  -5   5  -6  226.60    6.58
  -5   5  -6  230.21    6.93
  -5   5  -6  232.51    7.10
  -5   5  -5  211.75    6.78
  -5   5  -5  209.94    6.53
  -5   5  -5  194.19    5.92
  -5   5  -5  199.13    6.29
  -5   5  -4  195.89    6.28
  -5   5  -4  199.00    6.13
  -5   5  -4  202.15    6.05
  -5   5  -4  199.57    6.47
  -5   5  -4  199.24    6.43
  -5   5  -3  338.51    9.00
  -5   5  -3  334.94    8.50
  -5   5  -3  327.99    9.01
  -5   5  -3  338.65    9.18
  -5   5  -3  339.51    8.96
  -5   5  -2  103.15    4.37
  -5   5  -2  118.08    4.34
  -5   5  -2  115.85    4.48
  -5   5  -2  119.71    4.63
  -5   5  -1    6.99    1.38
  -5   5  -1    7.21    1.37
  -5   5  -1    5.41    1.43
  -5   5  -1    6.81    1.19
  -5   5   0  246.65    7.26
  -5   5   0  246.16    7.51
  -5   5   0  251.57    6.78
  -5   5   0  247.42    7.40
  -5   5   1  365.22    9.46
  -5   5   1  352.00    9.54
  -5   5   2  301.92    8.70
  -5   5   2  326.66    8.70
  -5   5   3  321.26    8.87
  -5   5   3  310.18    8.63
  -5   5   4  306.49    8.39
  -5   5   4  306.89    8.54
  -5   5   5  108.16    3.95
  -5   5   5  100.11    4.00
  -5   5   5  105.52    3.96
  -5   6 -10    1.58    0.75
  -5   6  -8   19.26    2.01
  -5   6  -8   15.43    1.42
  -5   6  -8   15.41    1.60
  -5   6  -7  105.94    4.52
  -5   6  -7  101.91    4.16
  -5   6  -7  101.27    4.05
  -5   6  -6  166.73    5.86
  -5   6  -6  163.20    5.78
  -5   6  -6  159.90    5.25
  -5   6  -6  154.03    5.17
  -5   6  -5  520.36   12.61
  -5   6  -5  484.04   12.26
  -5   6  -5  505.08   12.79
  -5   6  -4   64.27    3.35
  -5   6  -4   64.97    3.56
  -5   6  -4   68.66    3.45
  -5   6  -4   67.32    3.51
  -5   6  -3   53.85    3.19
  -5   6  -3   52.07    2.81
  -5   6  -3   47.97    2.98
  -5   6  -2  172.01    6.14
  -5   6  -2  171.86    6.11
  -5   6  -2  169.53    6.02
  -5   6  -1  315.54    8.89
  -5   6  -1  295.24    8.98
  -5   6   0  759.20   17.88
  -5   6   0  783.92   17.68
  -5   6   0  764.49   17.62
  -5   6   1  758.02   17.27
  -5   6   1  733.22   17.03
  -5   6   2  165.09    5.83
  -5   6   2  154.17    5.36
  -5   6   3  229.78    6.96
  -5   6   3  226.47    7.00
  -5   6   4  810.84   17.60
  -5   6   4  843.32   18.12
  -5   6   5    6.12    1.05
  -5   6   5    6.25    1.06
  -5   7 -10   68.50    2.46
  -5   7  -9   38.93    2.17
  -5   7  -8   50.30    2.59
  -5   7  -8   49.10    2.72
  -5   7  -7  251.61    6.89
  -5   7  -7  256.60    7.43
  -5   7  -7  255.05    7.52
  -5   7  -6  118.70    4.67
  -5   7  -6  120.56    4.66
  -5   7  -6  123.59    4.99
  -5   7  -5   76.39    3.52
  -5   7  -5   77.54    3.87
  -5   7  -5   74.98    3.43
  -5   7  -5   76.48    3.99
  -5   7  -4  556.80   14.02
  -5   7  -4  567.62   13.62
  -5   7  -3  312.37    9.15
  -5   7  -3  314.78    9.28
  -5   7  -3  314.92    9.05
  -5   7  -2  162.85    6.04
  -5   7  -2  162.76    5.94
  -5   7  -1   66.83    3.54
  -5   7  -1   71.04    3.95
  -5   7  -1   73.31    3.87
  -5   7   0   58.66    3.22
  -5   7   0   55.40    3.45
  -5   7   1   91.22    4.21
  -5   7   1   87.88    3.68
  -5   7   2    6.45    1.52
  -5   7   2    7.17    1.44
  -5   7   3    6.44    1.37
  -5   7   3    5.49    1.08
  -5   7   4   70.55    3.00
  -5   7   4   73.34    2.96
  -5   8  -9  114.77    3.35
  -5   8  -9  109.53    3.36
  -5   8  -8   71.76    3.01
  -5   8  -8   66.51    2.72
  -5   8  -7   32.45    2.09
  -5   8  -7   32.72    2.40
  -5   8  -7   32.28    1.93
  -5   8  -6   42.99    2.69
  -5   8  -6   45.24    2.94
  -5   8  -5  178.01    5.44
  -5   8  -5  172.07    6.22
  -5   8  -5  191.07    6.30
  -5   8  -4   31.01    2.56
  -5   8  -4   28.29    2.50
  -5   8  -4   28.12    2.17
  -5   8  -3  490.95   12.45
  -5   8  -3  507.96   12.68
  -5   8  -2    9.60    1.85
  -5   8  -2   12.05    1.72
  -5   8  -2   10.03    1.70
  -5   8  -1   11.44    1.87
  -5   8  -1   10.66    1.51
  -5   8   0  340.73    9.62
  -5   8   1  127.38    4.64
  -5   8   1  121.87    4.26
  -5   8   1  116.85    4.74
  -5   8   2   49.77    2.71
  -5   8   2   51.86    2.61
  -5   8   3   64.91    2.64
  -5   9  -8   73.32    2.42
  -5   9  -8   92.40    3.08
  -5   9  -7   11.18    1.24
  -5   9  -6   23.81    1.88
  -5   9  -6   22.57    1.91
  -5   9  -5   52.60    2.86
  -5   9  -5   44.65    2.63
  -5   9  -4   32.74    1.99
  -5   9  -4   36.85    2.35
  -5   9  -3   14.67    1.72
  -5   9  -3   14.47    1.53
  -5   9  -3   16.16    1.61
  -5   9  -2   65.62    2.76
  -5   9  -2   71.64    3.22
  -5   9  -1   10.67    1.46
  -5   9   0    2.36    0.79
  -5   9   0    2.34    1.00
  -5  10  -7    8.94    0.85
  -5  10  -6  159.48    4.30
  -5  10  -5   22.40    1.35
  -5  10  -4   48.41    1.82
  -4  -7   2   27.41    1.49
  -4  -7   2   26.39    1.42
  -4  -7   3   50.30    2.24
  -4  -7   4   71.23    2.83
  -4  -7   5  236.10    6.23
  -4  -7   6    5.79    1.03
  -4  -7   7   61.26    2.47
  -4  -7   8   19.67    1.26
  -4  -7   8   25.24    1.52
  -4  -7   9    2.73    0.63
  -4  -6  -1   17.13    1.15
  -4  -6  -1   15.26    1.05
  -4  -6  -1   16.73    1.21
  -4  -6   0  101.91    3.58
  -4  -6   0  101.16    3.46
  -4  -6   0  108.76    3.62
  -4  -6   1   14.63    1.58
  -4  -6   1   13.24    1.43
  -4  -6   1   13.29    1.50
  -4  -6   2   45.88    2.55
  -4  -6   2   47.29    2.67
  -4  -6   2   47.18    2.73
  -4  -6   3   42.47    2.62
  -4  -6   3   41.31    2.67
  -4  -6   3   43.22    2.56
  -4  -6   4  106.90    3.92
  -4  -6   4  117.42    4.53
  -4  -6   4  117.36    4.47
  -4  -6   5  286.34    7.61
  -4  -6   5  279.34    7.85
  -4  -6   6  157.62    5.30
  -4  -6   6  155.50    5.15
  -4  -6   7   84.86    3.54
  -4  -6   8   11.10    1.36
  -4  -6   9   73.77    2.79
  -4  -5  -3  127.26    3.55
  -4  -5  -3  120.22    3.54
  -4  -5  -2  139.92    4.41
  -4  -5  -2  130.25    4.21
  -4  -5  -2  136.27    4.40
  -4  -5  -1   95.27    3.93
  -4  -5  -1   97.33    3.96
  -4  -5  -1   93.22    3.75
  -4  -5   0   12.79    1.67
  -4  -5   0   11.55    1.71
  -4  -5   0   12.46    1.87
  -4  -5   1  140.29    5.18
  -4  -5   1  122.94    4.44
  -4  -5   1  131.99    4.97
  -4  -5   2  234.43    6.69
  -4  -5   2  258.34    7.49
  -4  -5   2  246.94    7.16
  -4  -5   2  245.78    7.59
  -4  -5   3  608.08   13.99
  -4  -5   3  600.82   13.98
  -4  -5   3  589.30   14.15
  -4  -5   4  231.14    6.79
  -4  -5   4  250.07    7.49
  -4  -5   4  246.57    7.35
  -4  -5   4  248.25    7.53
  -4  -5   5   90.00    4.11
  -4  -5   5   89.25    3.76
  -4  -5   5   97.24    4.29
  -4  -5   6   73.04    3.64
  -4  -5   6   73.54    3.77
  -4  -5   6   72.35    3.41
  -4  -5   7   64.98    3.24
  -4  -5   7   68.46    3.66
  -4  -5   7   63.37    3.26
  -4  -5   8  336.12    8.75
  -4  -5   8  322.92    8.68
  -4  -5   9   41.29    2.56
  -4  -5   9   35.67    2.20
  -4  -5   9   41.60    2.40
  -4  -5  10   42.19    1.99
  -4  -5  10   48.63    2.52
  -4  -5  10   47.31    2.27
  -4  -5  11  181.14    4.54
  -4  -4  -3   32.03    1.96
  -4  -4  -2    6.87    1.24
  -4  -4  -2    5.78    1.09
  -4  -4  -1   45.16    2.69
  -4  -4  -1   44.50    2.60
  -4  -4   0  362.93    9.58
  -4  -4   1  431.88   10.76
  -4  -4   1  416.77   10.91
  -4  -4   2  621.11   14.20
  -4  -4   2  603.74   14.15
  -4  -4   2  595.51   14.30
  -4  -4   3  146.43    5.49
  -4  -4   3  152.68    5.32
  -4  -4   3  150.43    5.47
  -4  -4   3  146.83    5.36
  -4  -4   4  787.58   18.00
  -4  -4   4  828.91   18.46
  -4  -4   4  813.02   18.21
  -4  -4   4  843.04   18.63
  -4  -4   4  806.74   18.16
  -4  -4   5  213.24    6.77
  -4  -4   5  215.84    6.67
  -4  -4   5  213.78    7.06
  -4  -4   5  208.93    6.92
  -4  -4   6  199.84    6.43
  -4  -4   6  206.86    6.91
  -4  -4   6  206.33    6.69
  -4  -4   7  351.24    9.73
  -4  -4   7  353.10   10.05
  -4  -4   7  350.39    9.36
  -4  -4   8   41.92    2.64
  -4  -4   8   46.04    3.03
  -4  -4   9  398.65   10.02
  -4  -4   9  435.69   10.94
  -4  -4   9  414.16   10.71
  -4  -4   9  400.55    9.78
  -4  -4  10  116.15    4.28
  -4  -4  10  116.94    4.39
  -4  -4  10  110.62    3.76
  -4  -4  11   10.80    1.29
  -4  -4  11   11.01    0.99
  -4  -3  -6   58.13    2.17
  -4  -3  -5   27.88    1.80
  -4  -3  -5   28.62    2.01
  -4  -3  -4  144.26    4.76
  -4  -3  -4  155.04    5.39
  -4  -3  -4  153.32    5.14
  -4  -3  -3  111.36    4.79
  -4  -3  -3  113.83    4.62
  -4  -3  -3  108.12    4.31
  -4  -3  -2  387.65   10.45
  -4  -3  -2  419.15   10.97
  -4  -3  -2  401.39   10.58
  -4  -3  -1  314.46    8.68
  -4  -3  -1  300.80    8.60
  -4  -3  -1  296.62    8.81
  -4  -3   0  151.95    5.35
  -4  -3   0  141.71    5.09
  -4  -3   1  457.31   11.69
  -4  -3   1  478.30   11.58
  -4  -3   1  480.79   11.72
  -4  -3   2  895.08   19.51
  -4  -3   2  903.91   19.54
  -4  -3   2  884.77   19.09
  -4  -3   2  893.12   19.33
  -4  -3   3  659.49   15.09
  -4  -3   3  650.88   14.75
  -4  -3   3  672.41   15.20
  -4  -3   3  652.12   14.60
  -4  -3   4  111.62    4.40
  -4  -3   4  111.25    4.13
  -4  -3   4  114.49    4.51
  -4  -3   4  112.40    4.08
  -4  -3   4  110.04    4.32
  -4  -3   5   96.86    3.85
  -4  -3   5  100.21    4.32
  -4  -3   5   94.12    4.21
  -4  -3   5  101.98    4.22
  -4  -3   5  100.04    4.18
  -4  -3   6   15.06    1.63
  -4  -3   6   12.83    2.20
  -4  -3   6   12.62    1.96
  -4  -3   6   14.13    1.53
  -4  -3   7  392.16    9.76
  -4  -3   7  374.09   10.28
  -4  -3   7  401.21    9.72
  -4  -3   7  394.68   10.31
  -4  -3   8  120.23    4.90
  -4  -3   8  116.55    4.28
  -4  -3   8  119.43    4.95
  -4  -3   9   81.80    4.04
  -4  -3   9   81.50    3.43
  -4  -3   9   87.82    4.21
  -4  -3  10  156.17    5.38
  -4  -3  10  156.53    5.56
  -4  -3  10  156.75    5.24
  -4  -3  11    7.49    1.31
  -4  -3  11    8.37    1.20
  -4  -3  12   54.55    2.04
  -4  -2  -7   12.94    1.12
  -4  -2  -7   12.21    1.02
  -4  -2  -6  178.80    5.59
  -4  -2  -6  194.25    5.64
  -4  -2  -6  186.46    5.57
  -4  -2  -6  179.19    5.17
  -4  -2  -5   90.53    4.04
  -4  -2  -5   98.79    4.22
  -4  -2  -5   86.09    3.79
  -4  -2  -4  491.38   12.35
  -4  -2  -4  508.27   12.61
  -4  -2  -4  480.05   12.62
  -4  -2  -3  167.37    6.08
  -4  -2  -3  167.23    5.98
  -4  -2  -3  166.31    5.92
  -4  -2  -2  491.97   12.38
  -4  -2  -2  500.88   12.31
  -4  -2  -2  479.55   11.42
  -4  -2  -2  493.94   12.29
  -4  -2  -1   51.63    2.85
  -4  -2  -1   49.96    2.82
  -4  -2  -1   50.52    2.96
  -4  -2  -1   50.12    2.51
  -4  -2  -1   47.47    2.81
  -4  -2   0  263.66    7.31
  -4  -2   0  264.66    7.41
  -4  -2   0  259.93    7.29
  -4  -2   0  255.14    6.95
  -4  -2   1    4.28    1.14
  -4  -2   1    4.32    1.14
  -4  -2   1    3.32    0.94
  -4  -2   1    4.46    1.07
  -4  -2   2  360.01    8.47
  -4  -2   2  353.64    9.00
  -4  -2   2  356.69    8.42
  -4  -2   2  358.19    8.87
  -4  -2   2  351.42    8.57
  -4  -2   2  348.54    8.86
  -4  -2   3  627.40   13.86
  -4  -2   3  640.45   13.75
  -4  -2   3  647.31   14.21
  -4  -2   3  624.33   13.61
  -4  -2   4    2.49    0.82
  -4  -2   4    2.46    0.87
  -4  -2   4    1.92    0.98
  -4  -2   4    2.54    1.13
  -4  -2   5  153.40    5.00
  -4  -2   5  154.56    5.41
  -4  -2   5  149.71    4.74
  -4  -2   5  155.96    5.31
  -4  -2   6  108.41    4.54
  -4  -2   6  105.91    4.27
  -4  -2   6  102.85    3.87
  -4  -2   6  101.11    4.39
  -4  -2   7   38.69    2.73
  -4  -2   7   40.41    2.86
  -4  -2   8  182.47    6.33
  -4  -2   8  182.41    6.28
  -4  -2   9   87.11    3.98
  -4  -2   9  -10.50    8.54
  -4  -2  10   40.60    2.80
  -4  -2  10   45.78    2.85
  -4  -2  11  159.95    5.01
  -4  -2  11  170.23    5.15
  -4  -2  11  158.51    5.02
  -4  -2  12    9.63    0.87
  -4  -2  12   11.16    0.94
  -4  -2  12   11.90    0.96
  -4  -1  -8   46.14    1.91
  -4  -1  -7    3.63    1.02
  -4  -1  -7    4.94    1.24
  -4  -1  -6   70.94    3.67
  -4  -1  -6   69.50    3.50
  -4  -1  -5  449.31   11.61
  -4  -1  -5  466.66   11.90
  -4  -1  -5  427.10   10.75
  -4  -1  -4   53.72    3.35
  -4  -1  -4   54.96    2.93
  -4  -1  -4   61.25    3.39
  -4  -1  -3  178.68    6.10
  -4  -1  -3  181.17    5.71
  -4  -1  -2  390.37    9.67
  -4  -1  -2  393.62   10.02
  -4  -1  -1  194.83    5.91
  -4  -1  -1  198.03    5.76
  -4  -1   0  119.56    4.07
  -4  -1   0  122.87    4.06
  -4  -1   0  129.73    5.88
  -4  -1   1 1188.61   23.70
  -4  -1   1 1151.65   27.29
  -4  -1   1 1167.31   26.26
  -4  -1   1 1186.35   23.44
  -4  -1   1 1200.49   23.89
  -4  -1   1 1249.16   27.64
  -4  -1   1 1109.17   23.83
  -4  -1   2  755.49   16.23
  -4  -1   2  783.55   15.97
  -4  -1   2  762.64   19.41
  -4  -1   2  760.66   15.88
  -4  -1   2  756.20   17.40
  -4  -1   2  795.84   16.33
  -4  -1   2  720.92   15.60
  -4  -1   3   91.05    3.27
  -4  -1   3   85.62    3.22
  -4  -1   3   91.45    3.44
  -4  -1   3   93.61    3.27
  -4  -1   4  102.44    3.60
  -4  -1   4   96.68    3.66
  -4  -1   4  101.93    3.70
  -4  -1   4  101.03    3.77
  -4  -1   5   77.22    3.46
  -4  -1   5   75.68    3.32
  -4  -1   5   70.72    3.26
  -4  -1   6   45.71    2.82
  -4  -1   6   47.79    2.78
  -4  -1   7  441.81   11.76
  -4  -1   7  472.71   11.70
  -4  -1   7  467.11   12.75
  -4  -1   7  484.08   12.16
  -4  -1   8  202.71    6.76
  -4  -1   8  212.01    7.14
  -4  -1   8  215.70    7.11
  -4  -1   8  227.99    9.89
  -4  -1   9   -7.53    7.39
  -4  -1   9    1.23    1.48
  -4  -1  10   35.11    2.42
  -4  -1  10   32.32    2.44
  -4  -1  11   57.32    2.67
  -4  -1  11   61.80    2.79
  -4  -1  11   58.31    2.64
  -4   0  -9   38.84    1.63
  -4   0  -8   31.25    2.01
  -4   0  -8   31.94    2.07
  -4   0  -7  142.81    5.25
  -4   0  -7  144.21    5.21
  -4   0  -6  357.54    9.94
  -4   0  -6  338.77    9.36
  -4   0  -5  856.97   19.14
  -4   0  -5  848.61   18.97
  -4   0  -5  805.18   18.54
  -4   0  -5  838.46   19.03
  -4   0  -4  125.78    4.79
  -4   0  -4  121.23    4.80
  -4   0  -4  128.75    4.65
  -4   0  -4  128.45    5.00
  -4   0  -3  843.43   18.20
  -4   0  -3  829.42   17.82
  -4   0  -3  833.14   17.98
  -4   0  -3  794.93   17.21
  -4   0  -2  223.71    6.29
  -4   0  -2  228.49    6.41
  -4   0  -2  216.54    5.86
  -4   0  -1  183.15    7.59
  -4   0  -1  195.89    5.55
  -4   0  -1  193.51    5.49
  -4   0  -1  197.45    5.57
  -4   0  -1  184.07    7.05
  -4   0  -1  199.84    5.59
  -4   0   0  280.40    7.02
  -4   0   0  277.86    7.05
  -4   0   0  269.94    8.97
  -4   0   0  284.93    8.58
  -4   0   0  281.81    7.12
  -4   0   0  291.30    7.13
  -4   0   1  505.44   12.74
  -4   0   1  542.34   11.84
  -4   0   1  528.46   11.69
  -4   0   1  536.73   11.64
  -4   0   1  556.95   14.59
  -4   0   1  545.28   14.14
  -4   0   1  533.89   11.68
  -4   0   2   53.24    2.33
  -4   0   2   53.25    3.56
  -4   0   2   54.26    3.51
  -4   0   2   53.75    2.29
  -4   0   2   57.40    2.42
  -4   0   3  229.14    5.70
  -4   0   3  230.71    6.04
  -4   0   3  223.29    6.10
  -4   0   3  221.93    8.06
  -4   0   3  230.59    5.98
  -4   0   4  484.78   11.33
  -4   0   4  488.83   11.08
  -4   0   4  490.55   11.31
  -4   0   5   66.95    2.83
  -4   0   5   66.65    3.07
  -4   0   5   60.09    3.02
  -4   0   5   63.04    3.04
  -4   0   5   66.04    2.93
  -4   0   6  605.00   13.74
  -4   0   6  601.56   14.01
  -4   0   6  619.54   14.25
  -4   0   7  191.79    6.85
  -4   0   7  203.71    6.46
  -4   0   7  209.71    6.76
  -4   0   8  119.02    4.93
  -4   0   8  105.24    7.25
  -4   0   8  114.26    4.77
  -4   0   9  104.03    4.49
  -4   0   9  112.15    7.16
  -4   0   9  101.87    4.41
  -4   0  10   95.83    3.95
  -4   0  10   99.83    3.98
  -4   0  10   97.86    3.87
  -4   0  11  180.52    4.84
  -4   0  11  180.86    4.84
  -4   1  -9  110.02    3.78
  -4   1  -9  113.48    3.72
  -4   1  -9  105.50    3.59
  -4   1  -9  101.78    3.26
  -4   1  -8    4.55    1.22
  -4   1  -8    6.03    1.42
  -4   1  -8    5.49    1.16
  -4   1  -8    5.69    1.52
  -4   1  -7   43.28    2.92
  -4   1  -7   42.00    2.72
  -4   1  -7   44.40    3.07
  -4   1  -7   40.00    2.74
  -4   1  -7   43.58    2.94
  -4   1  -6 1153.47   24.83
  -4   1  -6 1238.58   26.10
  -4   1  -6 1225.99   25.71
  -4   1  -6 1219.98   25.82
  -4   1  -5  369.68   10.00
  -4   1  -5  350.44    9.19
  -4   1  -5  366.14    9.71
  -4   1  -5  370.18    9.70
  -4   1  -4  129.59    4.47
  -4   1  -4  134.18    4.90
  -4   1  -4  138.30    4.84
  -4   1  -4  130.85    4.71
  -4   1  -4  134.42    4.68
  -4   1  -3  364.81    9.43
  -4   1  -3  385.78    9.24
  -4   1  -3  401.71    9.49
  -4   1  -3  379.75    9.49
  -4   1  -3  394.09    9.50
  -4   1  -3  370.40   11.52
  -4   1  -3  392.26    9.37
  -4   1  -2  274.66    7.03
  -4   1  -2  284.62    7.04
  -4   1  -2  255.07    6.81
  -4   1  -2  259.54    8.90
  -4   1  -2  275.97    6.96
  -4   1  -2  279.03    6.90
  -4   1  -2  260.57    8.58
  -4   1  -1   62.51    2.51
  -4   1  -1   61.94    3.44
  -4   1  -1   62.34    2.50
  -4   1  -1   60.59    2.45
  -4   1  -1   59.18    3.18
  -4   1  -1   57.45    2.42
  -4   1   0    4.61    1.15
  -4   1   0    3.51    0.90
  -4   1   0    6.97    0.90
  -4   1   0    5.47    1.01
  -4   1   0    5.01    0.92
  -4   1   0    3.20    1.17
  -4   1   1  542.85   13.05
  -4   1   1  534.42   11.28
  -4   1   1  530.93   11.21
  -4   1   1  562.47   13.80
  -4   1   2  502.17   11.22
  -4   1   2  526.77   13.43
  -4   1   2  496.96   11.10
  -4   1   2  521.15   11.31
  -4   1   3  811.81   17.16
  -4   1   3  822.60   16.70
  -4   1   3  823.15   19.31
  -4   1   3  815.56   16.96
  -4   1   4 1023.23   21.11
  -4   1   4 1036.03   21.36
  -4   1   4 1040.70   21.44
  -4   1   4 1019.02   20.77
  -4   1   5   14.52    1.65
  -4   1   5   15.27    1.68
  -4   1   5   16.15    1.59
  -4   1   6  842.71   18.29
  -4   1   6  823.44   18.67
  -4   1   6  840.93   18.37
  -4   1   7  326.81    9.17
  -4   1   7  312.58    8.55
  -4   1   7  311.61    8.76
  -4   1   7  325.76    9.00
  -4   1   8   51.17    2.98
  -4   1   8   53.77    3.17
  -4   1   9    4.83    1.25
  -4   1   9    5.94    1.43
  -4   1  10   53.02    2.60
  -4   1  10   51.01    2.24
  -4   1  10   55.34    2.58
  -4   2 -10   61.21    2.30
  -4   2 -10   54.79    1.96
  -4   2 -10   59.31    2.31
  -4   2 -10   55.76    2.07
  -4   2  -9    1.91    1.02
  -4   2  -9    3.22    0.99
  -4   2  -9    3.21    1.00
  -4   2  -8  366.39    9.66
  -4   2  -8  365.47    9.99
  -4   2  -8  346.61    8.94
  -4   2  -8  357.12    9.62
  -4   2  -8  364.36    9.44
  -4   2  -7  467.91   12.02
  -4   2  -7  458.79   11.51
  -4   2  -7  447.15   12.12
  -4   2  -7  488.59   11.81
  -4   2  -6  723.32   16.84
  -4   2  -6  771.11   17.24
  -4   2  -6  746.45   16.89
  -4   2  -5  451.84   11.01
  -4   2  -5  445.26   10.84
  -4   2  -5  434.18   11.04
  -4   2  -4  334.33    8.74
  -4   2  -4  351.02    8.98
  -4   2  -4  349.93    8.54
  -4   2  -3  580.60   12.65
  -4   2  -3  543.80   12.25
  -4   2  -3  559.28   12.67
  -4   2  -3  558.20   15.60
  -4   2  -3  535.06   14.67
  -4   2  -3  570.45   12.60
  -4   2  -3  563.18   15.24
  -4   2  -3  566.55   12.22
  -4   2  -2 2047.53   40.02
  -4   2  -2 2074.33   39.65
  -4   2  -2 2093.68   39.60
  -4   2  -2 2070.29   40.18
  -4   2  -2 2073.41   40.00
  -4   2  -2 2078.37   43.59
  -4   2  -2 2016.42   39.71
  -4   2  -2 2049.93   39.68
  -4   2  -2 2131.33   42.46
  -4   2  -1  820.47   17.68
  -4   2  -1  821.47   16.71
  -4   2  -1  827.71   18.15
  -4   2  -1  783.88   17.30
  -4   2   0  522.24   11.16
  -4   2   0  500.21   11.16
  -4   2   0  482.23   10.50
  -4   2   0  516.31   13.11
  -4   2   0  523.46   11.28
  -4   2   0  502.53   13.46
  -4   2   0  522.83   11.11
  -4   2   1   83.34    2.94
  -4   2   1   88.39    3.08
  -4   2   1   81.72    3.03
  -4   2   1   87.47    3.12
  -4   2   1   89.61    4.08
  -4   2   2   72.95    2.83
  -4   2   2   76.21    2.76
  -4   2   2   68.90    2.79
  -4   2   2   70.17    3.52
  -4   2   2   73.64    2.89
  -4   2   3  250.75    6.41
  -4   2   3  245.42    6.59
  -4   2   3  239.44    6.10
  -4   2   3  251.42    6.58
  -4   2   3  241.85    6.54
  -4   2   4  390.08    9.02
  -4   2   4  376.69    8.99
  -4   2   4  377.96    9.43
  -4   2   4  390.11    9.46
  -4   2   5   52.35    2.62
  -4   2   5   53.87    2.88
  -4   2   5   48.87    2.72
  -4   2   5   48.33    2.49
  -4   2   6  186.23    5.95
  -4   2   6  183.81    5.68
  -4   2   6  185.18    6.18
  -4   2   6  185.60    5.89
  -4   2   7  151.93    5.38
  -4   2   7  143.45    4.93
  -4   2   7  150.39    5.04
  -4   2   8   33.31    2.44
  -4   2   9   51.17    2.67
  -4   2   9   51.89    2.52
  -4   2  10   68.58    2.50
  -4   3 -10   35.58    1.86
  -4   3 -10   34.86    1.93
  -4   3 -10   34.25    1.99
  -4   3  -9    8.70    1.17
  -4   3  -9    9.29    1.31
  -4   3  -9    9.72    1.52
  -4   3  -9   10.51    1.50
  -4   3  -9    7.96    1.34
  -4   3  -8  247.64    7.81
  -4   3  -8  263.66    7.63
  -4   3  -8  255.29    7.20
  -4   3  -7 1362.00   28.93
  -4   3  -7 1413.88   29.31
  -4   3  -7 1362.89   28.23
  -4   3  -6  633.22   14.96
  -4   3  -6  615.25   14.04
  -4   3  -6  628.04   14.81
  -4   3  -5  469.64   11.53
  -4   3  -5  452.85   10.77
  -4   3  -4  473.34   11.16
  -4   3  -4  472.02   11.23
  -4   3  -4  482.77   11.20
  -4   3  -4  462.04   10.72
  -4   3  -3 1378.63   27.40
  -4   3  -3 1346.15   30.02
  -4   3  -3 1332.91   29.17
  -4   3  -3 1359.07   27.15
  -4   3  -3 1359.45   27.22
  -4   3  -3 1374.15   27.29
  -4   3  -3 1353.35   30.88
  -4   3  -2 1515.58   30.71
  -4   3  -2 1580.50   31.09
  -4   3  -2 1638.45   32.03
  -4   3  -2 1569.50   31.16
  -4   3  -2 1557.72   30.95
  -4   3  -2 1588.81   33.02
  -4   3  -2 1605.65   30.87
  -4   3  -1 1905.61   38.95
  -4   3  -1 1867.97   35.34
  -4   3  -1 1848.99   35.22
  -4   3  -1 1841.49   35.24
  -4   3   0  192.63    5.14
  -4   3   0  198.39    7.25
  -4   3   0  189.98    5.32
  -4   3   0  195.31    6.36
  -4   3   0  184.29    5.39
  -4   3   1   49.60    2.20
  -4   3   1   50.85    2.28
  -4   3   1   50.72    2.39
  -4   3   1   46.79    2.56
  -4   3   2 1329.50   26.44
  -4   3   2 1310.45   26.25
  -4   3   2 1290.85   26.10
  -4   3   2 1342.03   26.56
  -4   3   3  305.36    7.87
  -4   3   3  327.11    8.19
  -4   3   3  319.17    7.92
  -4   3   3  309.02    8.01
  -4   3   3  309.80    7.70
  -4   3   4  653.31   14.48
  -4   3   4  678.59   14.70
  -4   3   4  665.65   14.80
  -4   3   4  634.39   14.28
  -4   3   5   74.36    3.12
  -4   3   5   76.99    3.42
  -4   3   5   76.84    3.45
  -4   3   5   75.36    3.25
  -4   3   6   77.45    3.50
  -4   3   6   70.67    3.32
  -4   3   6   76.80    3.47
  -4   3   7   45.13    2.72
  -4   3   8   84.52    3.51
  -4   3   9   27.59    1.59
  -4   4 -11   79.26    2.48
  -4   4 -10   49.35    2.17
  -4   4 -10   51.76    2.42
  -4   4 -10   51.96    2.53
  -4   4 -10   52.87    2.62
  -4   4  -9    5.68    1.43
  -4   4  -9    5.05    1.34
  -4   4  -9    5.90    1.35
  -4   4  -9    5.79    1.13
  -4   4  -8  778.12   17.67
  -4   4  -8  758.25   17.76
  -4   4  -8  754.52   17.62
  -4   4  -7  278.60    8.23
  -4   4  -7  281.78    8.34
  -4   4  -6 1659.66   33.35
  -4   4  -6 1628.17   33.05
  -4   4  -6 1559.86   32.29
  -4   4  -6 1633.31   33.12
  -4   4  -5  379.14    9.50
  -4   4  -5  380.82    9.61
  -4   4  -5  381.48    9.63
  -4   4  -4  268.02    7.38
  -4   4  -4  270.65    7.18
  -4   4  -4  281.67    7.20
  -4   4  -4  259.69    7.17
  -4   4  -4  258.94    7.37
  -4   4  -4  263.13    6.96
  -4   4  -4  268.57    7.11
  -4   4  -3  356.25    8.93
  -4   4  -3  351.37    8.78
  -4   4  -3  359.07   11.35
  -4   4  -3  375.05    9.03
  -4   4  -3  372.83    9.05
  -4   4  -3  361.55    8.62
  -4   4  -2 1461.86   29.25
  -4   4  -2 1451.15   29.35
  -4   4  -2 1467.36   29.55
  -4   4  -2 1503.64   29.51
  -4   4  -1  320.04   10.52
  -4   4  -1  324.98    8.11
  -4   4  -1  329.46    7.92
  -4   4  -1  325.60    8.20
  -4   4   0   50.85    2.54
  -4   4   0   57.76    2.70
  -4   4   0   57.44    2.62
  -4   4   0   56.87    2.39
  -4   4   0   56.79    3.68
  -4   4   1  146.86    4.65
  -4   4   1  146.44    4.83
  -4   4   1  142.86    4.29
  -4   4   1  145.29    4.71
  -4   4   1  141.74    4.67
  -4   4   2  632.75   14.16
  -4   4   2  642.24   13.76
  -4   4   2  630.51   14.22
  -4   4   2  640.28   14.36
  -4   4   3  164.07    5.26
  -4   4   3  163.49    5.16
  -4   4   3  160.46    5.29
  -4   4   4  146.18    5.07
  -4   4   4  149.34    5.08
  -4   4   4  144.39    5.04
  -4   4   5   77.38    3.38
  -4   4   5   72.81    3.39
  -4   4   5   73.89    3.32
  -4   4   5   76.24    3.32
  -4   4   6  159.87    5.11
  -4   4   6  153.95    5.14
  -4   4   7   19.75    1.66
  -4   4   8    0.25    0.60
  -4   5 -11  139.37    3.73
  -4   5 -11  140.56    3.82
  -4   5 -10   21.17    1.74
  -4   5 -10   22.01    1.66
  -4   5 -10   22.67    1.74
  -4   5 -10   21.13    1.67
  -4   5  -9   32.29    2.45
  -4   5  -9   32.35    2.32
  -4   5  -9   32.10    2.30
  -4   5  -8  355.72    9.58
  -4   5  -8  345.84    9.51
  -4   5  -7  142.29    5.05
  -4   5  -7  143.39    5.17
  -4   5  -7  144.27    5.22
  -4   5  -6  777.51   17.25
  -4   5  -6  745.30   16.53
  -4   5  -6  745.40   17.00
  -4   5  -6  762.46   16.90
  -4   5  -6  775.60   17.65
  -4   5  -5   17.42    1.51
  -4   5  -5   17.97    1.85
  -4   5  -5   19.47    1.89
  -4   5  -5   20.38    1.77
  -4   5  -5   16.79    1.55
  -4   5  -5   18.78    1.63
  -4   5  -4 1427.22   29.04
  -4   5  -4 1417.72   28.38
  -4   5  -4 1428.78   28.85
  -4   5  -4 1412.22   29.03
  -4   5  -4 1415.18   29.22
  -4   5  -4 1432.72   29.08
  -4   5  -3  355.03    9.01
  -4   5  -3  354.26    9.04
  -4   5  -3  352.15    8.75
  -4   5  -3  331.44    8.96
  -4   5  -3  337.65    9.00
  -4   5  -2  380.23    9.79
  -4   5  -2  400.15    9.37
  -4   5  -2  396.91    9.89
  -4   5  -2  383.39   10.01
  -4   5  -1  133.19    4.68
  -4   5  -1  133.07    4.62
  -4   5  -1  137.47    4.70
  -4   5   0  463.85   11.07
  -4   5   0  426.42   11.05
  -4   5   0  460.44   11.26
  -4   5   0  455.68   10.98
  -4   5   1  492.38   12.03
  -4   5   1  500.98   11.96
  -4   5   1  489.07   11.78
  -4   5   1  510.68   12.18
  -4   5   1  489.32   12.02
  -4   5   2  494.50   11.91
  -4   5   2  511.71   12.48
  -4   5   2  518.15   12.39
  -4   5   3  115.26    4.66
  -4   5   3  115.44    4.62
  -4   5   3  118.23    4.50
  -4   5   4    0.85    1.18
  -4   5   4    1.03    1.18
  -4   5   4    2.57    1.12
  -4   5   5  136.47    4.78
  -4   5   5  130.94    4.87
  -4   5   6   14.99    1.48
  -4   6 -11   81.46    2.69
  -4   6 -10   58.04    2.34
  -4   6 -10   60.17    2.59
  -4   6  -9  238.93    6.43
  -4   6  -9  263.25    7.45
  -4   6  -9  247.96    6.75
  -4   6  -9  240.97    6.86
  -4   6  -8   32.33    2.58
  -4   6  -8   33.68    2.35
  -4   6  -8   32.66    2.26
  -4   6  -8   32.76    2.14
  -4   6  -7   69.77    3.63
  -4   6  -7   66.52    3.03
  -4   6  -7   73.17    3.63
  -4   6  -7   67.30    3.78
  -4   6  -7   70.12    3.25
  -4   6  -7   67.30    3.19
  -4   6  -6  282.96    8.56
  -4   6  -6  303.98    8.35
  -4   6  -6  289.42    8.37
  -4   6  -6  291.49    7.75
  -4   6  -6  299.19    8.61
  -4   6  -5  165.46    5.79
  -4   6  -5  148.69    5.41
  -4   6  -5  155.90    5.61
  -4   6  -5  157.07    5.46
  -4   6  -5  160.63    5.12
  -4   6  -4 1187.32   25.28
  -4   6  -4 1206.28   24.70
  -4   6  -4 1199.96   24.86
  -4   6  -4 1150.91   25.21
  -4   6  -3  677.00   15.37
  -4   6  -3  664.02   15.64
  -4   6  -3  647.65   14.58
  -4   6  -3  682.54   15.57
  -4   6  -3  661.04   15.55
  -4   6  -2  178.53    6.16
  -4   6  -2  171.86    5.82
  -4   6  -2  183.30    6.00
  -4   6  -1  507.47   12.45
  -4   6  -1  516.72   12.67
  -4   6  -1  515.40   12.93
  -4   6  -1  499.09   12.39
  -4   6   0 1888.27   37.85
  -4   6   0 1892.40   38.13
  -4   6   0 1879.75   37.49
  -4   6   0 1797.92   37.78
  -4   6   1  233.98    7.34
  -4   6   1  223.44    6.76
  -4   6   1  224.78    7.34
  -4   6   2  922.93   20.80
  -4   6   2  951.25   20.91
  -4   6   3  571.72   13.82
  -4   6   3  568.66   13.73
  -4   6   3  543.78   12.94
  -4   6   4  253.34    7.48
  -4   6   4  253.34    7.48
  -4   6   5   26.31    1.95
  -4   6   6   29.84    1.58
  -4   7 -11   37.52    1.56
  -4   7 -10   33.83    1.93
  -4   7  -9   89.52    3.69
  -4   7  -9   90.28    3.48
  -4   7  -8   45.63    2.70
  -4   7  -8   46.36    2.79
  -4   7  -8   40.49    2.34
  -4   7  -7  219.40    7.07
  -4   7  -7  222.25    6.82
  -4   7  -7  219.36    6.82
  -4   7  -6  477.94   11.70
  -4   7  -6  475.47   12.38
  -4   7  -6  475.86   12.11
  -4   7  -5  202.13    6.63
  -4   7  -5  188.78    5.92
  -4   7  -5  209.17    6.86
  -4   7  -5  202.94    6.09
  -4   7  -4  296.71    8.87
  -4   7  -4  303.45    8.93
  -4   7  -4  300.63    8.84
  -4   7  -4  292.95    8.34
  -4   7  -3  317.14    9.06
  -4   7  -3  316.44    8.96
  -4   7  -3  311.41    9.36
  -4   7  -2  390.38   10.43
  -4   7  -2  376.22   10.28
  -4   7  -2  389.04   10.62
  -4   7  -1 1440.84   31.28
  -4   7  -1 1397.10   31.06
  -4   7  -1 1557.82   31.35
  -4   7  -1 1551.17   31.88
  -4   7  -1 1538.30   30.94
  -4   7   0  379.31   10.38
  -4   7   0  350.08    9.34
  -4   7   0  364.61   10.07
  -4   7   0  365.12   10.13
  -4   7   1  131.53    5.15
  -4   7   1  109.43    4.94
  -4   7   2  345.57    8.92
  -4   7   2  367.24    9.83
  -4   7   2  359.44    9.94
  -4   7   3   44.44    2.73
  -4   7   3   47.59    2.84
  -4   7   4   88.32    3.48
  -4   7   5   32.40    1.61
  -4   8 -10  210.91    5.12
  -4   8  -9  127.42    3.95
  -4   8  -9  129.75    4.21
  -4   8  -8  245.47    6.55
  -4   8  -8  250.17    6.83
  -4   8  -8  250.35    7.24
  -4   8  -7  115.65    3.97
  -4   8  -7  118.55    4.74
  -4   8  -7  121.54    4.66
  -4   8  -6   82.81    4.12
  -4   8  -6   97.46    4.32
  -4   8  -5  281.79    8.46
  -4   8  -5  277.05    8.28
  -4   8  -5  279.57    8.38
  -4   8  -4  432.31   10.87
  -4   8  -4  454.34   11.50
  -4   8  -3   73.33    3.66
  -4   8  -3   72.06    3.91
  -4   8  -3   69.02    3.60
  -4   8  -3   64.40    3.87
  -4   8  -2  217.07    7.36
  -4   8  -2  214.35    7.08
  -4   8  -2  214.31    6.65
  -4   8  -1  119.83    4.32
  -4   8  -1  123.14    5.18
  -4   8  -1  128.17    5.00
  -4   8  -1  130.03    5.11
  -4   8   0  623.04   14.72
  -4   8   0  601.77   14.62
  -4   8   1   59.39    2.62
  -4   8   2   53.24    2.72
  -4   8   3    4.73    0.96
  -4   9  -9    5.09    0.86
  -4   9  -8   89.19    3.25
  -4   9  -7  181.85    5.60
  -4   9  -7  175.07    5.50
  -4   9  -6  123.15    4.58
  -4   9  -6  131.41    4.76
  -4   9  -5   34.21    2.35
  -4   9  -4   49.08    2.72
  -4   9  -4   51.24    3.03
  -4   9  -4   50.78    2.47
  -4   9  -3  105.47    3.86
  -4   9  -3  106.34    4.05
  -4   9  -3  111.88    4.39
  -4   9  -2   10.91    1.49
  -4   9  -2   10.47    1.48
  -4   9  -1   31.29    2.22
  -4  10  -7   17.69    1.24
  -4  10  -7   20.75    1.37
  -4  10  -6   28.98    1.56
  -4  10  -5  448.99   10.08
  -4  10  -5  516.19   10.87
  -3  -8   4   14.91    1.24
  -3  -8   5   70.35    2.68
  -3  -8   6   56.71    2.39
  -3  -8   7   32.48    1.70
  -3  -8   7   27.87    1.41
  -3  -8   8   46.95    1.92
  -3  -7   0   23.83    1.30
  -3  -7   0   24.24    1.50
  -3  -7   0   21.19    1.22
  -3  -7   1  192.82    5.22
  -3  -7   1  205.97    5.62
  -3  -7   1  203.05    5.37
  -3  -7   2  163.45    5.16
  -3  -7   2  167.52    4.85
  -3  -7   2  152.31    4.56
  -3  -7   2  165.36    5.21
  -3  -7   2  164.88    4.99
  -3  -7   3  251.53    7.16
  -3  -7   3  262.15    7.24
  -3  -7   3  244.16    6.39
  -3  -7   3  255.92    6.99
  -3  -7   3  246.35    6.65
  -3  -7   4  106.02    3.82
  -3  -7   4  115.69    4.44
  -3  -7   4  114.50    4.25
  -3  -7   5   21.62    1.64
  -3  -7   5   24.25    2.10
  -3  -7   6   57.71    3.10
  -3  -7   7  123.12    4.44
  -3  -7   8   65.77    3.00
  -3  -7   8   65.26    2.99
  -3  -7   9   57.09    2.53
  -3  -7   9   51.76    2.43
  -3  -7  10   94.49    3.02
  -3  -7  10  106.25    3.19
  -3  -6  -2   89.36    3.07
  -3  -6  -2   91.69    3.25
  -3  -6  -1   43.94    2.40
  -3  -6  -1   43.70    2.51
  -3  -6   0  114.64    4.30
  -3  -6   0  112.90    4.41
  -3  -6   1   70.92    3.48
  -3  -6   1   70.69    3.70
  -3  -6   1   72.11    3.61
  -3  -6   2  207.57    6.38
  -3  -6   2  205.29    6.67
  -3  -6   2  204.74    6.73
  -3  -6   2  202.04    6.80
  -3  -6   3  352.20    9.06
  -3  -6   3  348.51    9.23
  -3  -6   3  363.43    9.72
  -3  -6   3  345.27    9.69
  -3  -6   3  361.74    9.92
  -3  -6   4  228.58    6.79
  -3  -6   4  219.63    6.43
  -3  -6   4  237.36    7.31
  -3  -6   4  231.50    6.65
  -3  -6   4  219.40    7.11
  -3  -6   4  239.14    7.48
  -3  -6   5  160.53    5.97
  -3  -6   5  171.91    5.61
  -3  -6   5  177.41    6.14
  -3  -6   5  167.73    5.45
  -3  -6   6    2.90    1.27
  -3  -6   6    3.37    1.50
  -3  -6   7   46.01    3.01
  -3  -6   8   67.38    3.50
  -3  -6   9   33.05    2.39
  -3  -6   9   31.27    2.24
  -3  -6  10   48.50    2.51
  -3  -6  10   43.03    2.28
  -3  -6  11   53.59    2.05
  -3  -5  -4   37.79    1.84
  -3  -5  -3   32.74    2.15
  -3  -5  -2   67.31    3.39
  -3  -5  -1  114.12    4.75
  -3  -5   0 1347.08   28.36
  -3  -5   0 1301.52   28.04
  -3  -5   1  204.68    6.72
  -3  -5   1  205.44    6.86
  -3  -5   1  188.63    5.88
  -3  -5   2 1057.79   22.79
  -3  -5   2 1055.95   22.65
  -3  -5   2 1013.07   21.85
  -3  -5   2 1013.70   22.62
  -3  -5   3   69.99    3.31
  -3  -5   3   71.19    3.37
  -3  -5   3   59.62    3.39
  -3  -5   3   73.35    3.81
  -3  -5   3   69.42    3.60
  -3  -5   4  380.15   10.24
  -3  -5   4  383.93    9.90
  -3  -5   4  378.02   10.07
  -3  -5   4  382.64    9.57
  -3  -5   4  366.29    9.24
  -3  -5   4  377.42   10.22
  -3  -5   4  350.14    9.17
  -3  -5   5  366.67    9.74
  -3  -5   5  362.89    9.81
  -3  -5   5  347.94    9.03
  -3  -5   5  345.98    9.78
  -3  -5   5  349.96    9.04
  -3  -5   6  199.96    6.61
  -3  -5   6  195.82    6.61
  -3  -5   6  187.59    5.99
  -3  -5   7 1192.51   25.29
  -3  -5   7 1166.03   25.30
  -3  -5   7 1160.16   24.66
  -3  -5   8  231.74    7.04
  -3  -5   8  234.65    7.26
  -3  -5   9   92.10    4.08
  -3  -5   9   92.24    3.88
  -3  -5  10  142.62    4.85
  -3  -5  10  138.87    4.70
  -3  -5  11  195.94    5.29
  -3  -5  11  194.37    5.33
  -3  -5  12    4.45    0.70
  -3  -4  -5   12.85    1.40
  -3  -4  -5   10.44    0.96
  -3  -4  -4   54.82    2.98
  -3  -4  -4   56.69    2.67
  -3  -4  -3  206.41    6.31
  -3  -4  -3  211.89    6.85
  -3  -4  -2  179.41    6.24
  -3  -4  -2  165.38    5.34
  -3  -4  -2  169.75    5.64
  -3  -4  -1  297.30    8.27
  -3  -4  -1  294.75    8.12
  -3  -4   0 1275.96   26.62
  -3  -4   0 1245.77   25.83
  -3  -4   0 1228.79   25.78
  -3  -4   1  654.40   15.50
  -3  -4   1  683.79   15.03
  -3  -4   1  682.08   15.19
  -3  -4   2  581.38   13.52
  -3  -4   2  594.36   13.90
  -3  -4   3   13.98    1.64
  -3  -4   3   14.38    1.64
  -3  -4   3   14.34    1.71
  -3  -4   4  432.41   10.69
  -3  -4   4  442.40   10.45
  -3  -4   4  431.77   11.00
  -3  -4   4  441.02   11.00
  -3  -4   5  113.89    3.99
  -3  -4   5  116.56    4.49
  -3  -4   5  117.32    4.60
  -3  -4   5  115.53    4.35
  -3  -4   6  494.38   12.16
  -3  -4   6  458.85   11.65
  -3  -4   6  474.55   11.78
  -3  -4   7  161.02    5.59
  -3  -4   7  151.97    5.77
  -3  -4   7  148.31    5.46
  -3  -4   8  141.95    5.30
  -3  -4   8  135.86    5.27
  -3  -4   9  225.40    6.76
  -3  -4   9  220.34    7.38
  -3  -4   9  242.51    7.39
  -3  -4   9  233.32    7.17
  -3  -4  10  308.57    8.19
  -3  -4  10  286.33    8.43
  -3  -4  10  294.93    8.34
  -3  -4  10  292.88    7.94
  -3  -4  11   21.29    1.84
  -3  -4  11   21.27    1.59
  -3  -4  11   21.04    1.65
  -3  -4  12   10.41    1.07
  -3  -4  12   10.74    1.04
  -3  -3  -7  175.08    4.51
  -3  -3  -6  127.29    4.42
  -3  -3  -6  133.55    4.23
  -3  -3  -5    1.71    1.05
  -3  -3  -5    2.91    0.94
  -3  -3  -5    1.63    1.04
  -3  -3  -4   11.89    1.54
  -3  -3  -4   12.81    1.74
  -3  -3  -4   14.64    1.79
  -3  -3  -3   92.84    3.95
  -3  -3  -3   91.00    4.14
  -3  -3  -3   93.75    4.14
  -3  -3  -2  728.03   16.83
  -3  -3  -2  732.44   16.55
  -3  -3  -2  753.90   16.77
  -3  -3  -1   21.96    1.90
  -3  -3  -1   23.41    1.98
  -3  -3  -1   24.04    1.90
  -3  -3   0  784.92   17.13
  -3  -3   0  793.78   17.09
  -3  -3   1  212.34    6.29
  -3  -3   1  213.09    6.07
  -3  -3   1  231.56    6.32
  -3  -3   2   17.28    1.65
  -3  -3   2   15.80    1.52
  -3  -3   2   15.35    1.52
  -3  -3   3 1027.98   21.15
  -3  -3   3  975.80   20.50
  -3  -3   3 1065.90   21.16
  -3  -3   3 1007.58   21.25
  -3  -3   3 1030.59   21.09
  -3  -3   3 1021.22   21.27
  -3  -3   4 1043.18   20.82
  -3  -3   4  991.16   20.71
  -3  -3   4  942.52   20.49
  -3  -3   4 1010.78   20.81
  -3  -3   4  976.68   20.43
  -3  -3   4  989.96   20.53
  -3  -3   4  898.43   22.73
  -3  -3   5   53.58    2.85
  -3  -3   5   52.58    2.45
  -3  -3   5   57.58    2.96
  -3  -3   5   59.02    2.83
  -3  -3   5   57.53    2.88
  -3  -3   5   61.23    3.11
  -3  -3   6  426.67   10.23
  -3  -3   6  427.78   10.43
  -3  -3   6  404.97   10.55
  -3  -3   7  183.73    5.81
  -3  -3   7  194.61    6.16
  -3  -3   8  464.40   11.89
  -3  -3   8  484.93   11.96
  -3  -3   8  486.00   11.61
  -3  -3   9  462.81   11.98
  -3  -3   9  456.22   11.94
  -3  -3   9  452.06   11.50
  -3  -3  10   35.01    2.38
  -3  -3  10   37.54    2.75
  -3  -3  10   36.59    2.66
  -3  -3  10   36.48    2.75
  -3  -3  11  147.48    4.92
  -3  -3  11  150.96    5.03
  -3  -3  12   26.79    1.65
  -3  -2  -8   88.73    2.75
  -3  -2  -7   49.68    2.54
  -3  -2  -7   50.81    2.55
  -3  -2  -6   90.44    3.97
  -3  -2  -6   84.98    3.61
  -3  -2  -5  308.96    8.76
  -3  -2  -5  322.00    9.18
  -3  -2  -5  328.88    9.18
  -3  -2  -4   17.90    1.90
  -3  -2  -4   16.43    1.94
  -3  -2  -4   17.47    2.03
  -3  -2  -3  403.90   10.18
  -3  -2  -3  390.04   10.37
  -3  -2  -3  410.54   10.34
  -3  -2  -2  232.13    6.75
  -3  -2  -2  237.74    6.76
  -3  -2  -2  244.41    6.95
  -3  -2  -1  481.94   11.19
  -3  -2  -1  470.20   13.39
  -3  -2  -1  507.67   11.42
  -3  -2  -1  484.40   11.24
  -3  -2  -1  474.16   10.68
  -3  -2  -1  463.10   13.65
  -3  -2   0  286.59    7.34
  -3  -2   0  290.74    9.74
  -3  -2   0  290.64    7.34
  -3  -2   0  286.05    9.68
  -3  -2   0  279.19    6.90
  -3  -2   0  281.50    7.22
  -3  -2   0  289.35    7.34
  -3  -2   0  293.40    9.54
  -3  -2   1  146.94    6.04
  -3  -2   1  136.29    5.89
  -3  -2   1  141.72    4.35
  -3  -2   1  137.97    4.07
  -3  -2   1  140.11    4.30
  -3  -2   1  137.68    4.20
  -3  -2   1  143.93    6.04
  -3  -2   2  570.98   12.33
  -3  -2   2  581.99   12.52
  -3  -2   2  570.12   14.50
  -3  -2   2  650.91   15.62
  -3  -2   2  501.94   14.81
  -3  -2   2  569.93   12.36
  -3  -2   2  583.97   12.57
  -3  -2   3  469.58   10.79
  -3  -2   3  508.06   13.97
  -3  -2   3  471.90   11.02
  -3  -2   3  505.96   11.10
  -3  -2   3  501.76   12.41
  -3  -2   3  487.01   13.61
  -3  -2   3  508.70   10.87
  -3  -2   3  504.06   10.78
  -3  -2   4 2697.22   54.33
  -3  -2   4 2802.69   52.97
  -3  -2   4 2755.74   52.72
  -3  -2   4 2717.02   52.47
  -3  -2   4 2787.36   52.84
  -3  -2   4 2787.69   52.54
  -3  -2   4 2712.06   54.71
  -3  -2   5   66.02    2.88
  -3  -2   5   70.00    3.13
  -3  -2   5   74.40    2.91
  -3  -2   5   69.06    3.07
  -3  -2   6  112.42    4.33
  -3  -2   6  107.41    4.17
  -3  -2   6  115.07    4.39
  -3  -2   6  111.81    4.05
  -3  -2   7  107.41    4.12
  -3  -2   7  108.38    4.42
  -3  -2   7  110.32    4.42
  -3  -2   7   99.61    6.31
  -3  -2   8  345.62    9.08
  -3  -2   8  342.45    9.52
  -3  -2   9  728.57   16.99
  -3  -2   9  714.50   16.38
  -3  -2  10  139.83    4.84
  -3  -2  10  145.75    5.46
  -3  -2  10  150.44    5.46
  -3  -2  11   70.33    3.32
  -3  -2  11   81.34    3.52
  -3  -2  12  100.06    3.24
  -3  -1  -9    5.47    0.69
  -3  -1  -9    6.31    0.74
  -3  -1  -9    5.94    0.74
  -3  -1  -8   96.78    3.39
  -3  -1  -8   98.05    3.76
  -3  -1  -8  103.63    3.79
  -3  -1  -7  118.84    4.76
  -3  -1  -7  111.19    4.61
  -3  -1  -7  119.98    4.49
  -3  -1  -6  333.33    9.40
  -3  -1  -6  336.50    9.13
  -3  -1  -6  310.81    8.25
  -3  -1  -6  304.74    9.11
  -3  -1  -5   67.71    3.72
  -3  -1  -5   64.38    3.03
  -3  -1  -5   66.78    3.49
  -3  -1  -5   65.97    3.30
  -3  -1  -4   36.52    2.14
  -3  -1  -4   32.17    2.20
  -3  -1  -4   31.57    2.31
  -3  -1  -3  370.56    9.16
  -3  -1  -3  363.68    9.30
  -3  -1  -3  357.57    9.27
  -3  -1  -3  363.33    8.88
  -3  -1  -2 2493.27   50.50
  -3  -1  -2 2560.85   48.13
  -3  -1  -2 2546.24   48.21
  -3  -1  -2 2424.79   47.71
  -3  -1  -2 2455.59   48.02
  -3  -1  -2 2477.07   51.30
  -3  -1  -1  621.01   15.82
  -3  -1  -1  635.38   15.75
  -3  -1  -1  577.41   14.50
  -3  -1  -1  622.86   13.22
  -3  -1  -1  609.46   13.16
  -3  -1   0 1397.40   29.88
  -3  -1   0 1461.42   29.90
  -3  -1   0 1374.89   27.24
  -3  -1   0 1362.79   27.17
  -3  -1   0 1394.47   29.54
  -3  -1   1  325.27    9.19
  -3  -1   1  348.33    9.46
  -3  -1   1  358.05   10.08
  -3  -1   1  348.24    9.98
  -3  -1   2 2724.55   53.19
  -3  -1   2 2735.42   52.49
  -3  -1   2 2797.75   54.84
  -3  -1   3  526.51   11.94
  -3  -1   3  513.56   11.30
  -3  -1   3  537.51   11.49
  -3  -1   4 2921.33   54.89
  -3  -1   4 2846.00   54.95
  -3  -1   4 2859.55   55.15
  -3  -1   4 2927.00   56.49
  -3  -1   5  567.58   14.60
  -3  -1   5  549.03   12.76
  -3  -1   5  556.67   12.59
  -3  -1   5  585.32   12.81
  -3  -1   5  589.09   12.81
  -3  -1   5  569.65   12.23
  -3  -1   6 1011.97   20.75
  -3  -1   6  963.78   20.45
  -3  -1   6  950.11   20.35
  -3  -1   6  978.95   20.64
  -3  -1   6  971.45   20.54
  -3  -1   6  946.89   19.96
  -3  -1   7  547.63   12.89
  -3  -1   7  552.13   13.13
  -3  -1   7  517.86   13.27
  -3  -1   7  526.47   12.33
  -3  -1   7  532.10   13.00
  -3  -1   8 1091.59   23.46
  -3  -1   8 1100.77   23.92
  -3  -1   8 1112.75   23.70
  -3  -1   8 1048.12   22.86
  -3  -1   9  154.33    5.15
  -3  -1   9  158.55    5.88
  -3  -1  10  707.76   16.07
  -3  -1  10  684.50   15.83
  -3  -1  11   18.96    1.76
  -3  -1  11   17.54    1.63
  -3  -1  11   19.67    1.85
  -3  -1  12   47.52    1.91
  -3   0  -9   44.35    2.37
  -3   0  -9   46.35    2.33
  -3   0  -9   44.24    2.16
  -3   0  -8  130.40    4.81
  -3   0  -8  127.95    4.64
  -3   0  -7  165.90    5.55
  -3   0  -7  170.38    6.05
  -3   0  -7  170.58    5.90
  -3   0  -6  678.50   16.22
  -3   0  -6  694.92   15.78
  -3   0  -6  704.78   16.15
  -3   0  -5  188.52    6.03
  -3   0  -5  184.49    5.80
  -3   0  -4  118.91    3.82
  -3   0  -4  122.14    4.20
  -3   0  -4  124.13    4.38
  -3   0  -3  272.31    6.69
  -3   0  -3  279.40    7.01
  -3   0  -3  280.80    7.18
  -3   0  -3  276.90    9.48
  -3   0  -2 3761.27   70.27
  -3   0  -2 3663.70   70.37
  -3   0  -2 3742.20   70.38
  -3   0  -2 3813.24   73.23
  -3   0  -1 2542.72   49.16
  -3   0  -1 2592.69   50.64
  -3   0   0 2132.81   41.06
  -3   0   0 2325.40   43.11
  -3   0   1  519.80   11.75
  -3   0   1  531.31   12.72
  -3   0   1  506.67   12.86
  -3   0   2 2722.03   52.63
  -3   0   2 2658.03   49.92
  -3   0   2 2619.64   52.50
  -3   0   2 2668.09   50.05
  -3   0   3 4738.45   91.46
  -3   0   3 4791.62   89.69
  -3   0   4  372.32    9.77
  -3   0   4  366.57    8.62
  -3   0   4  374.13    8.54
  -3   0   4  373.55    8.68
  -3   0   5  271.51    7.05
  -3   0   5  272.24    6.96
  -3   0   5  273.54    7.13
  -3   0   5  272.35    6.92
  -3   0   6 1660.17   32.90
  -3   0   6 1650.05   32.67
  -3   0   6 1643.02   33.01
  -3   0   6 1591.24   32.51
  -3   0   7  305.25    8.86
  -3   0   7  296.90    8.63
  -3   0   8 1522.44   31.39
  -3   0   8 1545.01   31.89
  -3   0   9  533.19   13.69
  -3   0   9  557.29   13.44
  -3   0  10  510.22   12.41
  -3   0  10  499.12   12.00
  -3   0  10  492.42   12.04
  -3   0  11   86.48    3.25
  -3   0  11   78.92    2.91
  -3   0  11   84.97    3.10
  -3   1 -10   17.37    1.42
  -3   1 -10   17.91    1.32
  -3   1 -10   16.51    1.26
  -3   1  -9   23.52    1.96
  -3   1  -9   23.88    1.77
  -3   1  -9   23.78    2.09
  -3   1  -9   23.22    2.10
  -3   1  -9   25.14    2.03
  -3   1  -8  171.19    6.01
  -3   1  -8  163.73    5.67
  -3   1  -8  175.22    6.05
  -3   1  -7 1313.55   27.36
  -3   1  -7 1357.64   28.22
  -3   1  -7 1360.26   28.54
  -3   1  -6  412.68   10.46
  -3   1  -6  403.94   10.71
  -3   1  -5   36.98    2.40
  -3   1  -5   39.68    2.37
  -3   1  -4  631.76   15.90
  -3   1  -4  621.46   15.93
  -3   1  -4  629.96   13.97
  -3   1  -4  636.69   13.90
  -3   1  -3  826.76   20.08
  -3   1  -3  829.26   19.65
  -3   1  -3  863.54   19.44
  -3   1  -3  839.99   17.06
  -3   1  -2 1389.52   28.19
  -3   1  -2 1442.87   29.66
  -3   1  -2 1428.30   29.92
  -3   1  -1 4919.62   93.87
  -3   1   0  403.53    9.39
  -3   1   0  362.70    8.60
  -3   1   1  678.91   13.23
  -3   1   1  729.62   15.72
  -3   1   2 1975.61   39.29
  -3   1   4 2175.65   42.32
  -3   1   4 2162.57   42.40
  -3   1   4 2285.35   42.59
  -3   1   5  344.78    8.40
  -3   1   5  353.10    8.82
  -3   1   5  353.83    8.61
  -3   1   5  367.72    8.73
  -3   1   6  161.80    5.38
  -3   1   6  155.40    4.96
  -3   1   6  157.31    5.16
  -3   1   7  399.03   10.57
  -3   1   7  419.20   11.03
  -3   1   8  712.39   16.54
  -3   1   8  676.82   15.95
  -3   1   9   79.85    3.92
  -3   1   9   82.73    3.62
  -3   1   9   83.09    3.69
  -3   1  10   54.08    2.44
  -3   1  10   60.10    2.93
  -3   1  10   52.44    2.52
  -3   1  11   54.20    2.15
  -3   2 -10  285.72    7.38
  -3   2 -10  296.61    7.66
  -3   2 -10  295.03    7.62
  -3   2 -10  291.99    7.33
  -3   2 -10  294.03    7.65
  -3   2  -9   42.91    2.32
  -3   2  -9   46.99    2.98
  -3   2  -9   46.61    2.75
  -3   2  -8   81.80    4.08
  -3   2  -8   80.30    3.92
  -3   2  -7  379.69   10.26
  -3   2  -6  150.19    5.19
  -3   2  -6  142.16    4.89
  -3   2  -5 1171.54   24.64
  -3   2  -5 1190.02   24.48
  -3   2  -5 1130.84   27.32
  -3   2  -4 1050.76   24.02
  -3   2  -4 1035.03   24.40
  -3   2  -4 1046.56   21.11
  -3   2  -4 1044.93   21.14
  -3   2  -4 1052.64   21.21
  -3   2  -4 1056.27   24.10
  -3   2  -4  963.83   20.99
  -3   2  -3   35.61    1.84
  -3   2  -3   35.20    2.86
  -3   2  -3   34.11    2.55
  -3   2  -3   37.86    1.86
  -3   2  -3   33.17    1.74
  -3   2  -3   37.46    2.86
  -3   2  -3   34.40    2.71
  -3   2  -2 2913.80   58.26
  -3   2  -2 2964.79   57.12
  -3   2  -2 3023.70   58.39
  -3   2  -2 2910.99   57.65
  -3   2  -1  735.50   15.84
  -3   2  -1  711.38   15.17
  -3   2  -1  742.78   14.97
  -3   2   0  229.64    6.80
  -3   2   0  205.76    4.41
  -3   2   1 1292.04   26.58
  -3   2   1 1266.52   25.86
  -3   2   2 1046.37   21.42
  -3   2   3 2735.56   51.63
  -3   2   3 2685.25   51.49
  -3   2   3 2710.48   51.54
  -3   2   4  419.74    9.55
  -3   2   4  399.22    9.20
  -3   2   4  416.06    9.56
  -3   2   4  401.26    9.49
  -3   2   4  407.45    9.26
  -3   2   5  180.56    5.56
  -3   2   5  172.72    5.04
  -3   2   5  174.60    5.15
  -3   2   5  181.16    5.49
  -3   2   5  181.57    5.29
  -3   2   6  215.98    6.23
  -3   2   6  216.05    6.67
  -3   2   6  213.45    6.49
  -3   2   6  210.31    6.03
  -3   2   7  140.21    5.38
  -3   2   7  133.23    4.69
  -3   2   8  275.19    8.22
  -3   2   8  270.52    7.36
  -3   2   8  278.36    7.65
  -3   2   9  150.50    5.16
  -3   2   9  139.06    4.39
  -3   2  10    3.50    0.92
  -3   3 -11   61.98    2.37
  -3   3 -11   70.20    2.51
  -3   3 -10   63.34    2.76
  -3   3 -10   64.06    3.08
  -3   3 -10   62.77    2.70
  -3   3  -9  105.45    4.60
  -3   3  -9  118.57    4.74
  -3   3  -8  534.18   13.28
  -3   3  -8  575.29   13.88
  -3   3  -7  982.17   20.57
  -3   3  -7  853.03   20.08
  -3   3  -7  968.77   20.32
  -3   3  -7  876.45   20.17
  -3   3  -6  218.83    6.62
  -3   3  -6  227.38    6.66
  -3   3  -6  222.79    6.69
  -3   3  -6  224.53    6.68
  -3   3  -5  173.48    5.34
  -3   3  -5  172.93    5.37
  -3   3  -5  177.57    5.43
  -3   3  -5  173.85    5.32
  -3   3  -4  883.69   18.37
  -3   3  -4  869.68   21.36
  -3   3  -4  912.28   21.94
  -3   3  -4  887.51   21.07
  -3   3  -4  893.26   18.37
  -3   3  -3  144.89    5.92
  -3   3  -3  143.46    5.72
  -3   3  -3  150.14    5.48
  -3   3  -3  142.96    4.07
  -3   3  -3  143.17    4.26
  -3   3  -2 1304.74   27.77
  -3   3  -2 1327.41   27.89
  -3   3  -1  637.72   13.25
  -3   3   0   28.99    1.70
  -3   3   0   26.50    2.14
  -3   3   1  258.05    7.47
  -3   3   1  268.06    6.56
  -3   3   1  246.45    5.87
  -3   3   1  274.23    6.54
  -3   3   1  255.39    6.38
  -3   3   2 2166.03   41.19
  -3   3   2 2147.26   41.20
  -3   3   2 2108.57   41.22
  -3   3   3  243.02    6.53
  -3   3   3  245.82    6.28
  -3   3   3  246.23    6.38
  -3   3   3  244.27    6.51
  -3   3   4  497.80   11.38
  -3   3   4  475.83   11.21
  -3   3   4  493.65   11.43
  -3   3   4  501.76   11.17
  -3   3   4  487.31   11.22
  -3   3   5  427.36   10.34
  -3   3   5  435.12   10.55
  -3   3   5  427.86   10.11
  -3   3   5  399.02    9.91
  -3   3   5  408.13    9.89
  -3   3   6  689.83   15.94
  -3   3   6  679.09   15.39
  -3   3   7  160.41    5.16
  -3   3   7  167.79    5.91
  -3   3   8  303.25    8.34
  -3   3   9   40.46    2.13
  -3   4 -11   21.77    1.55
  -3   4 -11   21.92    1.41
  -3   4 -11   20.09    1.26
  -3   4 -11   25.19    1.68
  -3   4 -10   16.73    1.67
  -3   4 -10   17.34    1.85
  -3   4 -10   15.80    1.80
  -3   4  -9   89.29    4.17
  -3   4  -9   91.62    4.16
  -3   4  -9   87.96    3.98
  -3   4  -8  313.56    9.19
  -3   4  -8  340.72    9.44
  -3   4  -8  327.61    9.30
  -3   4  -8  341.32    9.35
  -3   4  -7  408.73   10.33
  -3   4  -7  398.30   10.35
  -3   4  -6  188.83    6.13
  -3   4  -6  180.32    6.08
  -3   4  -6  207.39    6.12
  -3   4  -6  209.48    6.12
  -3   4  -5  187.67    5.45
  -3   4  -5  191.77    5.76
  -3   4  -5  193.28    5.56
  -3   4  -5  176.33    5.67
  -3   4  -4   56.35    2.61
  -3   4  -4   55.90    2.43
  -3   4  -4   55.87    2.39
  -3   4  -4   59.68    2.68
  -3   4  -4   62.96    4.05
  -3   4  -4   56.78    2.41
  -3   4  -4   56.75    2.36
  -3   4  -3  430.04    9.72
  -3   4  -3  415.76   11.68
  -3   4  -3  419.23    9.68
  -3   4  -3  421.48    9.81
  -3   4  -2 1077.34   21.63
  -3   4  -2 1055.33   21.09
  -3   4  -2 1043.14   21.36
  -3   4  -2 1046.06   22.72
  -3   4  -2 1053.16   21.10
  -3   4  -1  581.21   12.79
  -3   4  -1  602.96   12.67
  -3   4  -1  591.99   12.84
  -3   4   0  275.64    6.88
  -3   4   0  272.34    6.95
  -3   4   0  262.73    8.16
  -3   4   0  260.97    6.73
  -3   4   0  274.50    7.07
  -3   4   1 1440.26   29.04
  -3   4   1 1455.28   28.89
  -3   4   1 1454.58   28.92
  -3   4   1 1413.41   28.90
  -3   4   1 1474.61   28.68
  -3   4   2  134.27    4.45
  -3   4   2  140.33    4.59
  -3   4   2  135.04    4.55
  -3   4   2  134.08    4.18
  -3   4   3  346.83    9.05
  -3   4   3  362.48    9.21
  -3   4   3  354.31    8.70
  -3   4   4  256.14    7.33
  -3   4   4  247.03    7.01
  -3   4   4  239.17    6.63
  -3   4   4  241.77    7.02
  -3   4   5   96.38    4.14
  -3   4   5   91.76    3.82
  -3   4   5   94.13    4.04
  -3   4   6  242.93    7.23
  -3   4   6  247.68    7.37
  -3   4   7  105.33    3.89
  -3   4   7  111.42    4.24
  -3   4   8  260.53    6.71
  -3   5 -11  108.80    3.66
  -3   5 -11  107.36    3.62
  -3   5 -11  106.74    3.60
  -3   5 -10   36.96    2.36
  -3   5 -10   35.58    2.37
  -3   5  -9  290.12    8.35
  -3   5  -9  278.61    8.13
  -3   5  -9  287.62    8.15
  -3   5  -8  439.93   11.10
  -3   5  -8  420.07   11.41
  -3   5  -8  435.68   11.45
  -3   5  -8  431.59   11.13
  -3   5  -7  143.88    5.35
  -3   5  -7  133.94    4.85
  -3   5  -7  136.93    4.94
  -3   5  -6  375.50    9.90
  -3   5  -6  374.72    9.52
  -3   5  -6  373.85    9.38
  -3   5  -6  405.26   10.13
  -3   5  -5  723.75   16.11
  -3   5  -5  758.63   16.51
  -3   5  -5  780.80   16.70
  -3   5  -5  745.22   15.97
  -3   5  -4  268.32    7.20
  -3   5  -4  262.39    7.07
  -3   5  -4  258.91    6.85
  -3   5  -3  600.10   13.11
  -3   5  -3  603.11   13.05
  -3   5  -3  591.24   13.64
  -3   5  -2   40.40    2.28
  -3   5  -2   40.85    2.28
  -3   5  -2   38.50    2.39
  -3   5  -2   38.29    2.17
  -3   5  -1  278.94    7.66
  -3   5  -1  290.70    7.52
  -3   5  -1  286.58    7.34
  -3   5  -1  274.84    7.33
  -3   5   0  319.84    8.31
  -3   5   0  321.64    8.47
  -3   5   0  306.93    7.95
  -3   5   1  221.85    6.25
  -3   5   1  227.22    6.79
  -3   5   1  233.89    6.68
  -3   5   1  234.94    6.75
  -3   5   1  232.78    6.79
  -3   5   2 1001.47   21.74
  -3   5   2 1063.36   22.09
  -3   5   2 1009.70   21.95
  -3   5   3   34.43    2.65
  -3   5   3   34.44    2.19
  -3   5   3   32.34    2.49
  -3   5   3   35.03    2.19
  -3   5   4   21.20    2.26
  -3   5   4   21.90    2.08
  -3   5   4   20.22    1.88
  -3   5   5  232.43    6.89
  -3   5   5  243.30    7.27
  -3   5   5  227.14    6.86
  -3   5   6   83.22    3.57
  -3   5   6   85.28    3.47
  -3   5   7  220.80    5.60
  -3   5   7  213.81    5.58
  -3   6 -11   17.51    1.27
  -3   6 -11   14.97    1.12
  -3   6 -10   12.17    1.32
  -3   6 -10   10.97    1.55
  -3   6 -10   11.21    1.35
  -3   6  -9  375.59    9.54
  -3   6  -9  364.06    9.27
  -3   6  -8   81.73    4.12
  -3   6  -8   78.63    3.53
  -3   6  -8   82.57    3.44
  -3   6  -7   50.93    3.16
  -3   6  -7   51.24    2.65
  -3   6  -6  671.23   15.18
  -3   6  -6  699.71   15.97
  -3   6  -5  166.19    5.48
  -3   6  -5  167.95    5.58
  -3   6  -4  197.40    5.89
  -3   6  -4  201.95    5.77
  -3   6  -4  201.50    5.99
  -3   6  -4  204.99    6.42
  -3   6  -3  504.96   12.21
  -3   6  -3  528.69   12.71
  -3   6  -3  507.72   11.99
  -3   6  -2  228.19    6.90
  -3   6  -2  227.18    6.67
  -3   6  -2  225.88    6.74
  -3   6  -2  225.55    6.68
  -3   6  -1    5.69    1.26
  -3   6  -1    5.26    1.19
  -3   6  -1    6.35    1.39
  -3   6  -1    5.00    1.14
  -3   6  -1    5.61    1.42
  -3   6   0  219.50    6.70
  -3   6   0  210.93    6.71
  -3   6   0  212.36    6.22
  -3   6   0  215.05    6.92
  -3   6   1  315.12    8.52
  -3   6   1  296.71    8.72
  -3   6   2  991.54   21.67
  -3   6   2  995.72   22.15
  -3   6   2 1023.04   22.23
  -3   6   3  737.28   17.33
  -3   6   3  720.54   16.16
  -3   6   3  773.44   17.46
  -3   6   4   97.80    4.18
  -3   6   4   99.67    3.75
  -3   6   4  103.69    4.40
  -3   6   5   28.79    2.09
  -3   6   5   25.52    1.67
  -3   6   5   27.89    1.93
  -3   6   6    0.14    0.68
  -3   7 -11    6.96    0.93
  -3   7 -10  117.19    3.89
  -3   7 -10  122.83    4.19
  -3   7  -9   98.61    4.16
  -3   7  -9   93.98    3.57
  -3   7  -9   98.18    4.02
  -3   7  -8  142.24    5.35
  -3   7  -7  254.69    7.67
  -3   7  -6  563.92   13.40
  -3   7  -6  553.57   12.96
  -3   7  -6  558.09   13.36
  -3   7  -5  125.68    4.96
  -3   7  -5  117.81    4.37
  -3   7  -4  747.07   17.21
  -3   7  -4  787.05   17.87
  -3   7  -4  811.22   18.25
  -3   7  -3  112.25    4.91
  -3   7  -3  106.59    4.31
  -3   7  -3  108.85    4.81
  -3   7  -3  111.37    4.54
  -3   7  -3  108.68    4.50
  -3   7  -2 1070.26   22.98
  -3   7  -2 1097.56   22.91
  -3   7  -2 1092.80   23.29
  -3   7  -2 1069.55   22.73
  -3   7  -1  170.85    5.97
  -3   7  -1  155.45    5.80
  -3   7  -1  164.57    5.89
  -3   7  -1  160.75    5.32
  -3   7  -1  165.64    6.20
  -3   7   0  222.06    7.14
  -3   7   0  210.98    6.80
  -3   7   0  210.29    7.18
  -3   7   0  218.23    7.09
  -3   7   1  648.53   15.43
  -3   7   2  132.54    5.21
  -3   7   3  118.33    4.56
  -3   7   3  113.37    4.46
  -3   7   4   26.84    1.93
  -3   7   4   25.53    1.81
  -3   7   5   86.43    2.87
  -3   8 -10   24.59    1.41
  -3   8 -10   26.51    1.65
  -3   8  -9   78.25    3.16
  -3   8  -9   78.96    2.95
  -3   8  -9   78.97    3.44
  -3   8  -8  220.72    6.72
  -3   8  -8  201.09    5.73
  -3   8  -8  214.75    6.28
  -3   8  -8  218.68    6.63
  -3   8  -7  189.75    6.43
  -3   8  -7  179.08    6.28
  -3   8  -6    0.82    1.13
  -3   8  -6   -0.21    1.47
  -3   8  -6    1.34    1.41
  -3   8  -5  277.44    8.34
  -3   8  -5  274.83    8.45
  -3   8  -4  351.01   10.12
  -3   8  -4  345.10    9.26
  -3   8  -4  367.93    9.81
  -3   8  -4  361.29   10.22
  -3   8  -3   57.53    3.45
  -3   8  -3   53.34    3.03
  -3   8  -2  187.22    6.84
  -3   8  -2  189.63    6.29
  -3   8  -2  200.87    6.56
  -3   8  -2  184.37    5.76
  -3   8  -2  190.08    6.38
  -3   8  -1  107.08    4.77
  -3   8  -1  113.62    4.65
  -3   8  -1  106.19    4.33
  -3   8  -1  105.36    4.51
  -3   8   0   39.75    2.74
  -3   8   0   40.99    2.74
  -3   8   0   39.20    2.73
  -3   8   1  193.11    6.09
  -3   8   2    8.30    1.38
  -3   9 -10   88.22    2.70
  -3   9  -9  381.37    8.73
  -3   9  -8  192.38    5.71
  -3   9  -8  199.23    5.77
  -3   9  -7  121.87    4.58
  -3   9  -7  124.10    4.48
  -3   9  -6   12.24    1.56
  -3   9  -6   11.47    1.57
  -3   9  -5  266.00    7.76
  -3   9  -5  256.50    7.32
  -3   9  -5  266.85    7.77
  -3   9  -4  190.42    6.36
  -3   9  -4  192.19    6.15
  -3   9  -4  177.71    5.50
  -3   9  -3  163.67    5.42
  -3   9  -3  162.42    5.22
  -3   9  -2   -0.22    1.11
  -3   9  -2    1.11    0.85
  -3   9  -1   17.02    1.65
  -3   9  -1   16.80    1.59
  -3   9   0  266.16    6.85
  -3   9   1   83.85    2.88
  -3  10  -8   22.83    1.29
  -3  10  -8   20.99    1.18
  -3  10  -7   50.09    2.21
  -3  10  -7   51.68    2.02
  -3  10  -6  300.31    7.00
  -3  10  -6  259.03    6.29
  -3  10  -5  206.37    5.52
  -3  10  -4   53.40    2.20
  -2  -8   1   28.56    1.44
  -2  -8   1   32.52    1.60
  -2  -8   1   31.07    1.62
  -2  -8   2   15.29    1.25
  -2  -8   2   13.16    1.26
  -2  -8   2   13.90    1.35
  -2  -8   3   38.20    2.22
  -2  -8   3   36.27    1.95
  -2  -8   3   36.86    2.06
  -2  -8   4  127.14    4.20
  -2  -8   4  134.25    4.53
  -2  -8   4  122.54    3.96
  -2  -8   5   25.19    1.78
  -2  -8   5   23.32    1.59
  -2  -8   6   16.59    1.28
  -2  -8   7    0.62    0.79
  -2  -8   8    7.08    0.95
  -2  -8   8    8.58    1.27
  -2  -8   9  245.10    5.91
  -2  -8   9  276.02    6.58
  -2  -8  10  199.89    4.90
  -2  -7  -2   55.44    2.02
  -2  -7  -2   56.60    2.02
  -2  -7  -2   57.01    2.11
  -2  -7  -1  135.08    3.83
  -2  -7  -1  147.95    4.40
  -2  -7   0  217.13    5.93
  -2  -7   0  226.34    6.45
  -2  -7   1  168.71    5.50
  -2  -7   1  163.21    5.18
  -2  -7   1  171.31    5.63
  -2  -7   2  200.74    6.19
  -2  -7   2  215.86    6.81
  -2  -7   2  209.48    6.54
  -2  -7   3   54.79    2.97
  -2  -7   3   53.01    3.00
  -2  -7   3   57.44    3.12
  -2  -7   3   51.78    3.25
  -2  -7   4  397.30   10.21
  -2  -7   4  411.20   10.47
  -2  -7   4  406.70   10.79
  -2  -7   4  398.07   10.31
  -2  -7   5  240.90    7.15
  -2  -7   5  235.17    6.88
  -2  -7   6  335.76    8.64
  -2  -7   6  339.68    9.47
  -2  -7   7    6.91    1.17
  -2  -7   7    9.65    1.77
  -2  -7   8   69.11    3.28
  -2  -7   8   65.88    3.39
  -2  -7   9  146.55    4.81
  -2  -7   9  151.70    5.12
  -2  -7  10  213.43    5.81
  -2  -7  10  217.50    6.00
  -2  -7  11   43.94    1.91
  -2  -6  -4   28.42    1.39
  -2  -6  -3   53.21    2.23
  -2  -6  -3   55.15    2.53
  -2  -6  -2  124.84    4.59
  -2  -6  -2  130.64    4.37
  -2  -6  -1  105.56    4.21
  -2  -6  -1  106.30    4.53
  -2  -6   0  491.25   12.15
  -2  -6   0  490.37   12.60
  -2  -6   1  111.39    4.68
  -2  -6   1  124.39    5.08
  -2  -6   2  114.13    4.74
  -2  -6   2  122.75    5.08
  -2  -6   3   29.11    2.37
  -2  -6   3   26.22    2.51
  -2  -6   3   29.38    2.37
  -2  -6   4  203.14    6.33
  -2  -6   4  207.78    6.53
  -2  -6   4  187.14    5.79
  -2  -6   4  198.73    6.73
  -2  -6   4  208.87    6.60
  -2  -6   5  910.72   20.66
  -2  -6   5 1010.17   21.37
  -2  -6   5  952.61   20.52
  -2  -6   5  942.62   20.32
  -2  -6   5  952.37   20.95
  -2  -6   5  933.17   21.25
  -2  -6   6  127.17    4.66
  -2  -6   6  127.25    4.85
  -2  -6   6  135.88    5.37
  -2  -6   7   46.04    2.59
  -2  -6   7   47.78    3.22
  -2  -6   8   34.80    2.78
  -2  -6   9   16.51    1.98
  -2  -6   9   17.79    2.12
  -2  -6  10   21.16    1.93
  -2  -6  10   20.40    1.96
  -2  -6  11   24.17    1.73
  -2  -5  -5   17.40    1.35
  -2  -5  -5   16.74    1.19
  -2  -5  -4   72.26    3.12
  -2  -5  -3    4.26    1.41
  -2  -5  -2  277.01    8.12
  -2  -5  -1  761.69   17.53
  -2  -5   0   50.21    3.12
  -2  -5   1  362.40    9.69
  -2  -5   2  330.88    8.49
  -2  -5   2  356.40    9.25
  -2  -5   3  435.16   10.57
  -2  -5   3  451.56   11.31
  -2  -5   3  442.33   11.06
  -2  -5   3  445.22   11.25
  -2  -5   4  637.61   14.72
  -2  -5   4  655.04   14.59
  -2  -5   4  639.40   14.59
  -2  -5   4  655.91   15.12
  -2  -5   4  663.50   15.21
  -2  -5   4  626.76   14.84
  -2  -5   5  215.46    6.41
  -2  -5   5  220.96    6.65
  -2  -5   5  226.16    7.05
  -2  -5   5  228.92    6.91
  -2  -5   5  225.19    6.75
  -2  -5   5  224.06    7.00
  -2  -5   6  275.16    7.61
  -2  -5   6  259.94    7.29
  -2  -5   6  276.52    7.88
  -2  -5   6  261.23    7.94
  -2  -5   6  262.88    7.26
  -2  -5   7  149.87    4.98
  -2  -5   7  150.95    5.77
  -2  -5   7  151.25    5.17
  -2  -5   8  145.24    5.23
  -2  -5   8  152.91    5.75
  -2  -5   9  155.56    5.38
  -2  -5   9  160.40    5.82
  -2  -5   9  157.09    5.82
  -2  -5   9  142.64    4.80
  -2  -5  10   76.11    3.69
  -2  -5  10   70.36    3.06
  -2  -5  10   74.87    3.39
  -2  -5  10   70.47    3.61
  -2  -5  11   49.82    2.51
  -2  -5  11   53.54    2.74
  -2  -5  12   28.91    1.61
  -2  -5  12   31.38    1.59
  -2  -5  12   29.92    1.48
  -2  -4  -6  371.53    8.79
  -2  -4  -5   26.04    1.79
  -2  -4  -5   28.45    2.17
  -2  -4  -4   23.05    1.84
  -2  -4  -4   23.58    1.92
  -2  -4  -3  267.43    7.61
  -2  -4  -3  270.01    7.62
  -2  -4  -2   58.96    2.99
  -2  -4  -2   56.35    2.89
  -2  -4  -1  415.09   10.09
  -2  -4  -1  425.82   10.32
  -2  -4   0  261.83    6.84
  -2  -4   0  251.85    6.80
  -2  -4   0  264.27    7.42
  -2  -4   1   66.61    2.74
  -2  -4   1   70.70    2.88
  -2  -4   1   73.42    3.24
  -2  -4   2  115.62    3.86
  -2  -4   2  114.03    4.22
  -2  -4   2  113.42    4.12
  -2  -4   3  649.24   14.49
  -2  -4   3  645.61   14.24
  -2  -4   3  663.02   14.60
  -2  -4   3  653.48   14.59
  -2  -4   4  150.42    4.56
  -2  -4   4  148.48    4.89
  -2  -4   4  147.23    4.66
  -2  -4   4  149.84    4.84
  -2  -4   4  156.47    5.00
  -2  -4   4  158.12    5.05
  -2  -4   4  142.98    4.52
  -2  -4   5  441.93   10.37
  -2  -4   5  455.77   10.62
  -2  -4   5  459.59   10.96
  -2  -4   5  444.31   10.92
  -2  -4   5  456.57   11.01
  -2  -4   5  447.95   10.56
  -2  -4   6  510.33   11.81
  -2  -4   6  541.87   12.62
  -2  -4   6  533.76   12.64
  -2  -4   6  506.24   12.18
  -2  -4   7  171.22    5.32
  -2  -4   7  191.59    6.18
  -2  -4   7  179.84    5.86
  -2  -4   8  378.90   10.45
  -2  -4   8  392.42   10.49
  -2  -4   8  380.69   10.26
  -2  -4   8  382.35    9.83
  -2  -4   9  287.01    8.60
  -2  -4   9  302.30    8.53
  -2  -4  10  181.08    6.18
  -2  -4  10  181.89    6.25
  -2  -4  10  179.52    5.96
  -2  -4  11  158.96    5.34
  -2  -4  11  171.83    5.36
  -2  -4  11  165.35    5.38
  -2  -4  12   29.62    1.76
  -2  -4  12   32.53    1.83
  -2  -3  -7  370.46    8.74
  -2  -3  -7  414.51    9.18
  -2  -3  -6  298.52    8.12
  -2  -3  -6  316.50    8.30
  -2  -3  -5   40.15    2.60
  -2  -3  -5   36.86    2.54
  -2  -3  -4 1099.02   23.55
  -2  -3  -4 1111.25   24.22
  -2  -3  -3   49.26    2.61
  -2  -3  -3   50.94    2.88
  -2  -3  -3   50.80    2.78
  -2  -3  -2  196.42    5.85
  -2  -3  -2  196.16    5.72
  -2  -3  -2  197.22    5.95
  -2  -3  -1   24.91    1.71
  -2  -3  -1   24.17    1.65
  -2  -3  -1   24.08    1.75
  -2  -3   0  476.42   14.27
  -2  -3   0  518.41   11.09
  -2  -3   0  504.36   11.13
  -2  -3   0  484.38   10.93
  -2  -3   0  487.60   12.78
  -2  -3   1 1535.72   34.24
  -2  -3   1 1583.87   34.20
  -2  -3   1 1567.74   30.70
  -2  -3   1 1571.29   30.84
  -2  -3   1 1564.02   31.07
  -2  -3   1 1619.00   33.40
  -2  -3   1 1621.85   33.25
  -2  -3   2  357.82    8.49
  -2  -3   2  383.54   10.56
  -2  -3   2  347.51    8.42
  -2  -3   2  351.57   10.71
  -2  -3   2  358.96    8.32
  -2  -3   3   29.12    1.82
  -2  -3   3   28.98    1.72
  -2  -3   3   28.85    1.75
  -2  -3   3   24.57    2.42
  -2  -3   3   28.94    1.75
  -2  -3   4  777.03   19.46
  -2  -3   4  820.72   17.20
  -2  -3   4  819.12   16.99
  -2  -3   4  882.57   17.60
  -2  -3   4  836.16   20.04
  -2  -3   4  825.22   17.32
  -2  -3   4  830.81   17.35
  -2  -3   5  773.61   19.72
  -2  -3   5  781.79   16.39
  -2  -3   5  772.07   16.33
  -2  -3   5  802.96   16.95
  -2  -3   5  810.22   16.85
  -2  -3   5  767.54   19.08
  -2  -3   5  790.31   16.74
  -2  -3   6   81.81    3.28
  -2  -3   6   85.90    3.88
  -2  -3   6   82.79    3.58
  -2  -3   6   82.14    3.46
  -2  -3   6   82.32    3.47
  -2  -3   7  175.73    5.53
  -2  -3   7  169.71    5.50
  -2  -3   8  145.04    5.51
  -2  -3   8  153.35    5.58
  -2  -3   9  330.72    9.30
  -2  -3   9  332.01    9.40
  -2  -3   9  343.60    9.29
  -2  -3  10  294.97    8.59
  -2  -3  10  300.73    8.70
  -2  -3  10  297.66    8.74
  -2  -3  11    7.02    1.52
  -2  -3  11    6.50    1.45
  -2  -3  11    7.70    1.51
  -2  -3  11    6.50    1.31
  -2  -3  12   66.81    2.72
  -2  -3  12   67.60    2.75
  -2  -2  -8  344.47    8.27
  -2  -2  -8  329.13    8.14
  -2  -2  -7  177.32    5.35
  -2  -2  -7  190.79    6.07
  -2  -2  -7  198.67    6.20
  -2  -2  -6  183.86    5.88
  -2  -2  -6  192.08    6.41
  -2  -2  -5   82.91    3.67
  -2  -2  -4   38.16    2.36
  -2  -2  -4   38.23    2.15
  -2  -2  -3  677.09   14.48
  -2  -2  -3  638.10   14.04
  -2  -2  -2  494.22   13.05
  -2  -2  -2  497.01   14.15
  -2  -2  -2  495.81   11.18
  -2  -2  -2  519.70   11.40
  -2  -2  -2  464.48   14.03
  -2  -2  -1  572.57   13.97
  -2  -2  -1  554.58   14.89
  -2  -2  -1  556.59   12.00
  -2  -2  -1  563.26   12.14
  -2  -2  -1  553.07   12.03
  -2  -2   0  821.65   19.13
  -2  -2   0  800.10   19.03
  -2  -2   0  816.51   18.45
  -2  -2   1  611.40   14.90
  -2  -2   1  606.23   14.71
  -2  -2   1  618.17   14.60
  -2  -2   2 2259.01   45.19
  -2  -2   2 2259.95   45.42
  -2  -2   3 3744.90   72.93
  -2  -2   3 3745.61   72.18
  -2  -2   4 2764.26   55.20
  -2  -2   4 2785.61   53.41
  -2  -2   4 2901.35   55.85
  -2  -2   4 2826.26   53.43
  -2  -2   5  464.57   12.19
  -2  -2   5  506.36   10.92
  -2  -2   5  489.48   10.74
  -2  -2   5  476.15   10.83
  -2  -2   5  481.47   10.69
  -2  -2   6   79.41    3.36
  -2  -2   6   84.26    3.36
  -2  -2   6   82.93    3.42
  -2  -2   7   31.20    2.33
  -2  -2   7   36.06    2.36
  -2  -2   7   33.25    2.37
  -2  -2   8  499.03   12.73
  -2  -2   8  539.61   12.61
  -2  -2   9  542.82   13.49
  -2  -2   9  544.78   13.63
  -2  -2  10    5.59    1.70
  -2  -2  10    3.97    1.37
  -2  -2  11  108.08    4.26
  -2  -2  11  101.36    4.14
  -2  -2  12  294.88    7.13
  -2  -2  12  286.90    7.06
  -2  -1  -9   68.90    2.85
  -2  -1  -9   68.15    2.83
  -2  -1  -8   90.42    3.87
  -2  -1  -8   83.21    3.44
  -2  -1  -7  193.02    6.00
  -2  -1  -7  182.08    6.19
  -2  -1  -6   70.30    3.52
  -2  -1  -6   70.63    3.12
  -2  -1  -6   71.23    3.37
  -2  -1  -5   12.18    1.45
  -2  -1  -5   11.47    1.28
  -2  -1  -4  116.78    3.84
  -2  -1  -4  119.92    4.06
  -2  -1  -3 1614.01   33.96
  -2  -1  -3 1551.84   30.36
  -2  -1  -3 1551.45   30.15
  -2  -1  -2  622.30   15.23
  -2  -1  -1 3539.97   70.05
  -2  -1  -1 3745.26   71.01
  -2  -1  -1 3693.28   70.63
  -2  -1   0  161.60    5.42
  -2  -1   0  168.89    5.43
  -2  -1   0  162.59    5.35
  -2  -1   1 3492.90   68.04
  -2  -1   1 3676.38   68.56
  -2  -1   2 1026.93   20.83
  -2  -1   3 4700.55   86.80
  -2  -1   3 4519.29   87.38
  -2  -1   4  441.86   11.42
  -2  -1   5  290.53    7.05
  -2  -1   5  308.36    7.33
  -2  -1   5  285.63    7.17
  -2  -1   5  287.59    9.20
  -2  -1   5  290.98    7.01
  -2  -1   5  276.33    7.16
  -2  -1   6  202.67    8.33
  -2  -1   6  210.47    6.16
  -2  -1   6  205.20    6.08
  -2  -1   6  207.44    5.95
  -2  -1   7   45.87    2.64
  -2  -1   7   42.35    2.65
  -2  -1   7   43.06    2.72
  -2  -1   8 1028.74   22.57
  -2  -1   8 1048.00   22.57
  -2  -1   8 1066.66   22.87
  -2  -1   9  324.46    9.22
  -2  -1   9  328.42    9.43
  -2  -1   9  346.53    9.56
  -2  -1  10  240.74    7.57
  -2  -1  10  263.19    7.71
  -2  -1  11  411.56    9.98
  -2  -1  11  406.37    9.95
  -2  -1  12    8.49    0.90
  -2  -1  12    8.40    0.84
  -2   0 -10   80.63    2.86
  -2   0 -10   73.49    2.73
  -2   0  -9  355.30    8.98
  -2   0  -9  341.92    8.37
  -2   0  -8  722.92   16.24
  -2   0  -8  737.20   16.68
  -2   0  -7  675.77   15.20
  -2   0  -7  643.45   15.46
  -2   0  -6   96.11    3.90
  -2   0  -6  101.23    4.15
  -2   0  -5  182.51    5.42
  -2   0  -5  178.76    5.55
  -2   0  -4   24.93    1.42
  -2   0  -4   23.62    2.44
  -2   0  -4   25.05    1.60
  -2   0  -4   22.05    1.67
  -2   0  -3 2483.75   50.45
  -2   0  -3 2563.40   50.71
  -2   0  -3 2500.66   48.79
  -2   0  -2 2648.50   50.53
  -2   0  -2 2593.86   51.11
  -2   0  -2 2581.43   51.03
  -2   0  -2 2551.79   50.04
  -2   0  -1  756.64   15.92
  -2   0  -1  792.00   16.43
  -2   0   0  202.14    4.52
  -2   0   0  192.61    5.22
  -2   0   1 7651.48  140.56
  -2   0   1 7574.80  141.07
  -2   0   1 7724.25  141.36
  -2   0   1 7617.24  142.20
  -2   0   1 7573.12  142.39
  -2   0   2 8483.84  153.97
  -2   0   2 8505.58  154.98
  -2   0   2 8187.73  153.14
  -2   0   3  970.13   20.33
  -2   0   4   49.54    2.11
  -2   0   4   49.10    2.97
  -2   0   5  257.86    7.10
  -2   0   5  267.58    6.73
  -2   0   5  278.03    6.92
  -2   0   5  267.83    6.57
  -2   0   5  259.63    6.51
  -2   0   5  266.12    6.80
  -2   0   6 1092.86   22.46
  -2   0   6 1099.77   22.61
  -2   0   6 1051.04   21.83
  -2   0   6 1082.70   22.23
  -2   0   6 1096.97   22.51
  -2   0   7  237.58    7.32
  -2   0   7  229.21    6.79
  -2   0   7  234.47    6.96
  -2   0   8 1066.79   22.96
  -2   0   8  989.40   22.26
  -2   0   9  509.33   12.90
  -2   0   9  501.35   12.56
  -2   0   9  485.05   12.54
  -2   0  10   51.90    2.88
  -2   0  10   53.24    2.91
  -2   0  11   94.91    3.27
  -2   1 -11  149.84    3.86
  -2   1 -10   97.63    3.63
  -2   1 -10   97.70    3.39
  -2   1 -10  103.91    3.70
  -2   1  -9  186.25    5.97
  -2   1  -9  200.83    6.38
  -2   1  -8  353.82    9.62
  -2   1  -8  354.69    9.87
  -2   1  -7   17.04    1.63
  -2   1  -7   16.59    1.81
  -2   1  -6  370.79    8.99
  -2   1  -6  351.70    8.69
  -2   1  -6  355.35    9.19
  -2   1  -5  221.74    8.39
  -2   1  -5  228.24    5.97
  -2   1  -5  214.38    5.80
  -2   1  -4 1275.26   27.68
  -2   1  -4 1256.17   25.05
  -2   1  -4 1275.38   28.31
  -2   1  -4 1322.23   28.27
  -2   1  -3 1351.47   28.22
  -2   1  -3 1411.36   28.87
  -2   1  -3 1342.75   29.07
  -2   1  -2   54.93    2.43
  -2   1  -2   54.05    2.71
  -2   1  -1 2273.16   43.13
  -2   1  -1 2186.56   43.05
  -2   1  -1 2199.48   42.38
  -2   1   0 3482.49   67.40
  -2   1   0 3553.29   66.55
  -2   1   0 3596.99   66.31
  -2   1   1 1468.56   28.64
  -2   1   2 3734.75   70.32
  -2   1   4  451.91    9.99
  -2   1   5  351.96    8.46
  -2   1   5  337.08    8.02
  -2   1   5  359.76    8.42
  -2   1   5  334.22    8.12
  -2   1   6   93.95    3.70
  -2   1   6   89.66    3.46
  -2   1   6  100.07    4.00
  -2   1   7 1022.35   22.58
  -2   1   7 1002.33   21.65
  -2   1   7 1060.27   22.13
  -2   1   8   67.02    3.68
  -2   1   8   60.16    3.28
  -2   1   8   60.74    3.25
  -2   1   9  246.91    7.48
  -2   1   9  236.68    6.88
  -2   1  10    1.09    1.09
  -2   1  10    1.44    0.85
  -2   1  11   63.49    2.38
  -2   2 -11  229.15    5.76
  -2   2 -11  240.15    6.01
  -2   2 -11  235.50    6.05
  -2   2 -11  226.01    5.79
  -2   2 -10  225.71    6.15
  -2   2 -10  235.51    6.80
  -2   2  -9  179.72    6.32
  -2   2  -9  185.00    6.19
  -2   2  -8  113.52    4.41
  -2   2  -8  103.14    4.49
  -2   2  -8  105.26    4.07
  -2   2  -7  118.21    4.45
  -2   2  -7  116.43    4.30
  -2   2  -6  465.69   11.00
  -2   2  -6  463.26   10.91
  -2   2  -5  678.94   14.63
  -2   2  -5  670.95   17.99
  -2   2  -5  682.72   14.63
  -2   2  -5  702.58   17.95
  -2   2  -4   95.75    4.52
  -2   2  -4   85.52    2.97
  -2   2  -4   82.44    2.91
  -2   2  -4   88.26    4.43
  -2   2  -3 2489.38   48.46
  -2   2  -3 2359.13   48.39
  -2   2  -2 4373.62   83.24
  -2   2  -2 4382.80   83.16
  -2   2  -1  760.04   15.94
  -2   2  -1  768.13   16.07
  -2   2   0  986.23   18.68
  -2   2   0 1002.74   20.43
  -2   2   1 2870.62   53.25
  -2   2   1 2753.59   52.15
  -2   2   4  209.45    5.74
  -2   2   4  199.83    5.34
  -2   2   4  199.56    5.49
  -2   2   4  211.49    5.47
  -2   2   4  204.17    5.27
  -2   2   4  201.40    5.26
  -2   2   5  510.61   12.17
  -2   2   5  506.76   11.57
  -2   2   5  534.94   11.80
  -2   2   5  512.53   11.80
  -2   2   6   51.27    2.99
  -2   2   6   48.38    2.66
  -2   2   6   46.94    2.54
  -2   2   7  239.47    6.97
  -2   2   7  234.73    6.97
  -2   2   7  257.51    7.74
  -2   2   7  244.00    6.97
  -2   2   8  146.26    5.47
  -2   2   8  130.18    4.51
  -2   2   8  139.87    4.71
  -2   2   8  140.17    4.68
  -2   2   9   18.69    1.95
  -2   2  10   22.83    1.59
  -2   3 -11  204.49    5.37
  -2   3 -11  210.90    5.84
  -2   3 -10  132.69    4.94
  -2   3  -9  209.96    6.74
  -2   3  -9  200.99    6.36
  -2   3  -8  224.44    6.97
  -2   3  -8  229.72    7.16
  -2   3  -7  349.24    9.29
  -2   3  -7  365.13    9.44
  -2   3  -6   16.64    1.57
  -2   3  -6   18.19    1.67
  -2   3  -5 1677.67   33.10
  -2   3  -4 4090.39   79.55
  -2   3  -4 4060.92   76.43
  -2   3  -3 1754.21   34.88
  -2   3  -3 1656.03   31.91
  -2   3  -2 5342.12  100.78
  -2   3  -1  553.51   12.07
  -2   3  -1  561.84   12.05
  -2   3   0  364.46    7.38
  -2   3   0  311.12    6.43
  -2   3   1 3575.95   67.00
  -2   3   1 3510.09   66.22
  -2   3   2 1284.25   25.37
  -2   3   2 1267.79   25.31
  -2   3   3  699.00   15.22
  -2   3   3  717.35   15.13
  -2   3   3  713.44   15.29
  -2   3   4  543.06   12.39
  -2   3   4  539.50   12.56
  -2   3   4  545.05   12.56
  -2   3   5  207.17    6.46
  -2   3   5  194.32    5.93
  -2   3   5  204.98    6.31
  -2   3   6  375.62   10.00
  -2   3   6  378.17   10.26
  -2   3   7  181.77    6.01
  -2   3   7  190.42    6.44
  -2   3   8   15.62    1.48
  -2   3   8   15.66    1.81
  -2   3   9   42.49    2.21
  -2   4 -12   77.45    2.53
  -2   4 -12   77.71    2.55
  -2   4 -11    7.61    1.27
  -2   4 -10  200.65    6.34
  -2   4 -10  217.18    6.78
  -2   4 -10  217.64    6.73
  -2   4 -10  214.35    6.75
  -2   4  -9   69.10    3.58
  -2   4  -9   65.79    3.66
  -2   4  -9   63.19    3.55
  -2   4  -8  428.19   11.18
  -2   4  -7  633.11   14.79
  -2   4  -6  483.60   11.48
  -2   4  -5  431.98   10.30
  -2   4  -5  424.74   10.06
  -2   4  -5  431.23   10.11
  -2   4  -4 1503.22   29.77
  -2   4  -4 1536.15   29.66
  -2   4  -4 1436.25   29.38
  -2   4  -4 1530.62   29.52
  -2   4  -3 3673.86   70.05
  -2   4  -3 3718.89   69.76
  -2   4  -3 3758.60   70.00
  -2   4  -3 3675.35   69.70
  -2   4  -2 1786.51   35.48
  -2   4  -2 1874.77   35.50
  -2   4  -2 1802.82   36.08
  -2   4  -2 1865.92   36.72
  -2   4  -2 1801.22   35.20
  -2   4  -1  230.88    6.28
  -2   4  -1  235.77    6.09
  -2   4  -1  242.52    6.07
  -2   4  -1  242.31    5.40
  -2   4  -1  244.49    6.10
  -2   4   0 2506.05   48.24
  -2   4   0 2486.12   48.10
  -2   4   0 2486.58   47.98
  -2   4   0 2573.83   48.62
  -2   4   1  451.20   10.63
  -2   4   1  473.49   10.69
  -2   4   1  480.67   10.78
  -2   4   1  460.12   10.41
  -2   4   1  442.33   10.75
  -2   4   1  467.00   10.20
  -2   4   2  206.72    5.86
  -2   4   2  215.53    6.20
  -2   4   2  220.48    6.21
  -2   4   2  211.02    5.74
  -2   4   2  219.71    5.91
  -2   4   3   82.09    3.58
  -2   4   3   84.48    3.62
  -2   4   3   83.18    3.47
  -2   4   4   82.89    3.78
  -2   4   4   92.36    4.02
  -2   4   4   89.33    3.88
  -2   4   5  704.73   16.37
  -2   4   5  738.58   16.90
  -2   4   5  731.51   16.87
  -2   4   6   84.84    3.91
  -2   4   6   76.81    3.33
  -2   4   6   80.37    3.97
  -2   4   7  447.54   10.87
  -2   4   7  440.29   11.06
  -2   4   8   43.12    1.91
  -2   4   8   45.61    2.29
  -2   5 -12    1.62    0.59
  -2   5 -12    1.62    0.57
  -2   5 -12    1.27    0.53
  -2   5 -11   18.55    1.54
  -2   5 -11   19.14    1.62
  -2   5 -11   18.55    1.57
  -2   5 -10  159.94    5.45
  -2   5 -10  162.33    5.49
  -2   5 -10  158.71    5.59
  -2   5  -9  158.90    5.84
  -2   5  -9  155.24    5.54
  -2   5  -9  149.90    5.74
  -2   5  -8  994.54   21.99
  -2   5  -7   47.56    2.90
  -2   5  -7   45.49    2.89
  -2   5  -6  553.46   12.98
  -2   5  -6  533.27   12.68
  -2   5  -6  541.94   12.85
  -2   5  -5  466.36   10.71
  -2   5  -5  463.08   11.11
  -2   5  -5  436.87   10.77
  -2   5  -5  445.47   10.58
  -2   5  -4  894.33   19.65
  -2   5  -4  956.09   19.65
  -2   5  -4  939.41   19.30
  -2   5  -4  919.18   22.15
  -2   5  -4  926.83   19.03
  -2   5  -4  916.86   21.54
  -2   5  -3  209.10    5.69
  -2   5  -3  195.71    5.38
  -2   5  -3  205.63    6.01
  -2   5  -3  194.84    5.30
  -2   5  -3  207.69    7.35
  -2   5  -3  204.06    5.98
  -2   5  -2   82.91    3.19
  -2   5  -2   80.32    3.41
  -2   5  -2   85.77    3.38
  -2   5  -2   79.60    3.07
  -2   5  -2   84.66    4.12
  -2   5  -1  489.78   11.31
  -2   5  -1  483.61   11.07
  -2   5  -1  497.21   11.39
  -2   5  -1  499.61   11.70
  -2   5  -1  494.20   11.35
  -2   5   0  291.89    7.79
  -2   5   0  295.81    7.77
  -2   5   0  295.11    7.65
  -2   5   0  288.18    7.19
  -2   5   0  288.64    7.89
  -2   5   0  291.82    7.18
  -2   5   1  410.22   10.40
  -2   5   1  417.97   10.07
  -2   5   1  431.49   10.01
  -2   5   2  682.44   15.60
  -2   5   2  623.66   15.18
  -2   5   2  669.89   14.90
  -2   5   2  666.74   14.96
  -2   5   3  417.91   10.90
  -2   5   3  418.03   10.94
  -2   5   3  402.55   10.48
  -2   5   4  331.97    9.41
  -2   5   4  339.98    9.65
  -2   5   4  337.19    9.30
  -2   5   5  249.39    7.63
  -2   5   5  242.11    7.25
  -2   5   5  248.07    7.43
  -2   5   6   38.50    2.12
  -2   5   6   44.33    2.61
  -2   5   6   44.89    2.55
  -2   5   7  226.48    5.80
  -2   5   7  216.95    5.78
  -2   6 -11   15.48    1.48
  -2   6 -11   16.83    1.40
  -2   6 -11   15.28    1.26
  -2   6 -10  179.39    5.38
  -2   6 -10  176.64    5.53
  -2   6  -9   23.83    2.33
  -2   6  -9   26.17    2.34
  -2   6  -9   26.12    2.03
  -2   6  -9   23.39    1.85
  -2   6  -8  906.80   20.41
  -2   6  -8 1049.67   21.92
  -2   6  -8 1055.98   21.67
  -2   6  -8  953.58   20.77
  -2   6  -7  254.04    7.85
  -2   6  -7  265.41    7.65
  -2   6  -7  260.89    7.04
  -2   6  -6  229.52    6.78
  -2   6  -6  237.12    7.37
  -2   6  -6  244.65    7.11
  -2   6  -6  232.92    6.79
  -2   6  -5  308.80    8.60
  -2   6  -5  316.09    8.26
  -2   6  -5  315.12    7.98
  -2   6  -5  314.29    8.83
  -2   6  -4  106.35    3.73
  -2   6  -4  112.67    3.86
  -2   6  -4  113.50    4.46
  -2   6  -4  106.21    4.40
  -2   6  -3 1667.69   33.29
  -2   6  -3 1619.05   33.04
  -2   6  -3 1731.29   34.15
  -2   6  -3 1655.61   33.85
  -2   6  -2  512.37   12.29
  -2   6  -2  528.57   12.47
  -2   6  -2  546.54   12.69
  -2   6  -1   68.87    3.57
  -2   6  -1   67.61    3.30
  -2   6  -1   67.20    2.95
  -2   6  -1   68.47    3.27
  -2   6  -1   72.71    3.39
  -2   6   0  104.67    4.42
  -2   6   0  106.47    4.19
  -2   6   0  116.90    4.50
  -2   6   0  110.10    4.58
  -2   6   1   13.84    1.93
  -2   6   1   12.84    1.44
  -2   6   1   11.86    1.74
  -2   6   1   12.48    1.52
  -2   6   2  844.83   19.43
  -2   6   2  830.31   18.55
  -2   6   2  854.75   18.61
  -2   6   3  531.27   13.04
  -2   6   3  498.57   12.43
  -2   6   4   97.95    4.27
  -2   6   4   91.10    4.03
  -2   6   4   93.19    3.83
  -2   6   5   75.01    3.15
  -2   6   5   79.32    3.44
  -2   6   5   81.18    3.21
  -2   6   6    8.00    1.00
  -2   7 -11   40.19    2.04
  -2   7 -11   37.89    1.75
  -2   7 -10  246.26    6.86
  -2   7 -10  218.80    6.02
  -2   7  -9  215.49    6.76
  -2   7  -8   62.49    3.45
  -2   7  -7  946.48   20.53
  -2   7  -7  984.41   21.07
  -2   7  -6  253.66    7.63
  -2   7  -6  250.97    7.27
  -2   7  -6  259.04    8.16
  -2   7  -5  101.99    4.53
  -2   7  -5  104.67    3.87
  -2   7  -4  327.87    8.57
  -2   7  -4  358.27    9.91
  -2   7  -4  341.03    9.66
  -2   7  -3  519.98   12.58
  -2   7  -3  503.35   12.25
  -2   7  -3  505.29   12.42
  -2   7  -3  533.21   12.95
  -2   7  -2  487.90   11.92
  -2   7  -2  487.37   12.58
  -2   7  -2  456.45   11.74
  -2   7  -2  488.32   12.11
  -2   7  -2  459.85   11.34
  -2   7  -1  256.69    7.78
  -2   7  -1  257.24    7.81
  -2   7  -1  266.27    7.68
  -2   7  -1  255.23    8.20
  -2   7   0  236.39    7.74
  -2   7   0  247.30    7.62
  -2   7   0  238.48    6.89
  -2   7   0  241.45    7.64
  -2   7   1   67.18    3.44
  -2   7   1   63.73    3.53
  -2   7   2  117.33    4.78
  -2   7   2  118.01    4.82
  -2   7   3   54.08    2.93
  -2   7   4   67.79    2.92
  -2   7   4   72.60    2.91
  -2   7   5   11.24    0.94
  -2   8 -11  208.87    5.03
  -2   8 -10   91.44    3.24
  -2   8 -10   88.84    3.09
  -2   8 -10   95.80    3.41
  -2   8  -9  205.90    5.99
  -2   8  -8  199.21    5.96
  -2   8  -7   85.68    3.71
  -2   8  -7   92.16    3.57
  -2   8  -6  237.20    7.43
  -2   8  -5  200.32    6.78
  -2   8  -5  177.90    6.27
  -2   8  -4  422.15   11.19
  -2   8  -4  413.46   10.61
  -2   8  -4  412.77   11.52
  -2   8  -3  498.96   12.46
  -2   8  -3  536.03   13.14
  -2   8  -3  530.45   12.58
  -2   8  -3  520.52   12.22
  -2   8  -2   87.71    4.33
  -2   8  -2   85.31    3.84
  -2   8  -2   83.89    3.87
  -2   8  -2   82.69    3.84
  -2   8  -1    1.22    1.19
  -2   8  -1    0.61    1.28
  -2   8  -1    0.98    0.85
  -2   8  -1   -0.04    1.06
  -2   8   0   47.21    2.81
  -2   8   0   48.61    2.86
  -2   8   0   48.43    2.92
  -2   8   1   38.99    2.42
  -2   8   1   37.92    2.50
  -2   8   2   60.99    2.75
  -2   8   3   64.83    2.41
  -2   8   3   60.08    2.34
  -2   9 -10   28.46    1.50
  -2   9  -9   77.23    3.02
  -2   9  -9   78.88    3.05
  -2   9  -8   46.14    2.53
  -2   9  -8   47.16    2.47
  -2   9  -7   86.41    3.38
  -2   9  -7   78.32    3.65
  -2   9  -7   89.34    3.55
  -2   9  -6   41.48    2.56
  -2   9  -6   41.00    2.67
  -2   9  -6   42.07    2.43
  -2   9  -5  164.97    5.69
  -2   9  -5  160.45    5.48
  -2   9  -5  154.52    4.91
  -2   9  -4  173.00    5.96
  -2   9  -4  174.83    5.64
  -2   9  -3   17.56    1.97
  -2   9  -3   15.92    1.55
  -2   9  -2   84.62    3.36
  -2   9  -2   92.64    3.88
  -2   9  -1   27.52    1.89
  -2   9  -1   25.80    1.70
  -2   9  -1   25.62    1.77
  -2   9   0   37.48    1.83
  -2   9   0   36.34    1.96
  -2  10  -8   29.05    1.46
  -2  10  -7  184.32    4.89
  -2  10  -6  216.32    5.65
  -2  10  -6  221.71    5.62
  -2  10  -5  140.12    4.16
  -2  10  -5  120.15    3.58
  -2  10  -3   30.42    1.67
  -1  -9   2   17.87    1.08
  -1  -9   3   70.97    2.46
  -1  -9   3   74.38    2.59
  -1  -9   3   71.26    2.46
  -1  -9   4   40.26    1.87
  -1  -9   4   40.90    1.98
  -1  -9   4   40.90    1.95
  -1  -9   5    8.22    0.98
  -1  -9   5    8.19    1.10
  -1  -9   6   38.18    1.78
  -1  -9   6   42.18    2.09
  -1  -9   7   54.38    2.03
  -1  -9   7   73.07    2.67
  -1  -9   8   57.77    2.31
  -1  -8  -1   21.92    1.24
  -1  -8  -1   23.88    1.28
  -1  -8   0   68.82    2.72
  -1  -8   0   65.48    2.63
  -1  -8   0   62.52    2.46
  -1  -8   1  137.52    4.58
  -1  -8   1  145.78    4.61
  -1  -8   1  138.73    4.59
  -1  -8   1  140.02    4.50
  -1  -8   2   78.88    3.51
  -1  -8   2   81.79    3.61
  -1  -8   2   85.73    3.59
  -1  -8   2   88.79    3.61
  -1  -8   3  262.84    7.39
  -1  -8   3  257.11    7.47
  -1  -8   3  268.57    7.58
  -1  -8   3  256.80    7.42
  -1  -8   4   13.27    1.74
  -1  -8   4   12.01    1.72
  -1  -8   4   15.00    1.79
  -1  -8   5  293.90    8.12
  -1  -8   5  287.67    7.98
  -1  -8   5  294.80    8.29
  -1  -8   6  113.20    4.28
  -1  -8   6  124.41    4.77
  -1  -8   7  142.93    4.71
  -1  -8   7  139.17    4.43
  -1  -8   7  153.98    5.21
  -1  -8   8  130.21    4.14
  -1  -8   8  137.60    4.79
  -1  -8   9  123.70    3.63
  -1  -7  -3   42.58    1.75
  -1  -7  -2  239.11    6.39
  -1  -7  -2  238.53    6.21
  -1  -7  -1  217.16    5.87
  -1  -7  -1  240.06    6.80
  -1  -7  -1  231.28    6.58
  -1  -7   0   74.99    3.68
  -1  -7   0   67.82    2.99
  -1  -7   0   74.04    3.53
  -1  -7   1  290.77    8.51
  -1  -7   1  275.45    7.62
  -1  -7   1  291.44    8.36
  -1  -7   2    7.49    1.84
  -1  -7   2    8.06    1.70
  -1  -7   2    7.62    1.34
  -1  -7   3  372.98   10.26
  -1  -7   3  389.02   10.42
  -1  -7   3  361.57    9.61
  -1  -7   3  391.24   10.44
  -1  -7   4  112.27    4.82
  -1  -7   4  116.10    4.43
  -1  -7   4  111.25    4.76
  -1  -7   4  110.73    4.85
  -1  -7   4  120.63    4.99
  -1  -7   5  718.06   16.59
  -1  -7   5  710.35   16.66
  -1  -7   5  718.47   16.87
  -1  -7   6   82.25    4.09
  -1  -7   6   88.01    4.31
  -1  -7   6   81.58    3.84
  -1  -7   7  162.12    5.56
  -1  -7   8  268.86    7.67
  -1  -7   8  294.31    7.97
  -1  -7   9  131.71    4.44
  -1  -7   9  142.99    4.79
  -1  -7  10   35.70    2.11
  -1  -7  10   36.04    2.42
  -1  -7  11  148.86    4.51
  -1  -6  -4   13.42    1.02
  -1  -6  -4   15.50    1.33
  -1  -6  -3    9.88    1.24
  -1  -6  -3    8.39    1.43
  -1  -6  -2   75.44    3.37
  -1  -6  -1  102.34    4.15
  -1  -6  -1   97.30    4.55
  -1  -6   0  223.89    6.85
  -1  -6   0  233.14    7.45
  -1  -6   1   11.08    1.88
  -1  -6   1    9.13    1.48
  -1  -6   2    8.17    1.61
  -1  -6   2    8.97    1.74
  -1  -6   2    7.35    1.42
  -1  -6   3  288.61    8.28
  -1  -6   3  332.74    8.98
  -1  -6   4  215.72    6.71
  -1  -6   4  211.38    6.76
  -1  -6   4  207.73    6.46
  -1  -6   4  214.43    6.97
  -1  -6   5  215.47    6.62
  -1  -6   5  218.11    6.81
  -1  -6   5  218.38    6.88
  -1  -6   6 2082.48   41.90
  -1  -6   6 2112.03   42.14
  -1  -6   7  355.60    9.51
  -1  -6   8   52.52    2.95
  -1  -6   8   52.95    3.12
  -1  -6   8   45.43    3.15
  -1  -6   9   65.16    3.42
  -1  -6   9   65.87    3.77
  -1  -6  10   85.50    3.90
  -1  -6  10   84.94    3.68
  -1  -6  10   77.05    3.17
  -1  -6  11  871.12   18.69
  -1  -6  12  117.16    3.58
  -1  -5  -6   14.31    1.01
  -1  -5  -5   44.30    2.25
  -1  -5  -4  309.29    8.33
  -1  -5  -3  257.17    7.59
  -1  -5  -2  136.98    5.13
  -1  -5  -1  192.04    6.22
  -1  -5   0  104.13    4.11
  -1  -5   1  899.90   19.32
  -1  -5   2  427.13   10.39
  -1  -5   2  432.08   10.72
  -1  -5   3  513.99   12.01
  -1  -5   3  524.36   12.36
  -1  -5   4   65.40    3.07
  -1  -5   4   58.79    2.68
  -1  -5   4   61.38    2.91
  -1  -5   5  754.54   16.37
  -1  -5   5  758.24   16.37
  -1  -5   5  756.34   16.50
  -1  -5   5  748.05   16.14
  -1  -5   6  248.85    6.90
  -1  -5   6  241.77    6.95
  -1  -5   6  231.40    6.33
  -1  -5   7  128.28    4.70
  -1  -5   7  125.97    5.07
  -1  -5   7  122.36    4.40
  -1  -5   8  319.40    8.79
  -1  -5   8  334.37    9.21
  -1  -5   8  321.79    8.69
  -1  -5   8  314.89    9.34
  -1  -5   8  322.08    8.37
  -1  -5   9  705.75   16.06
  -1  -5   9  695.11   16.33
  -1  -5   9  651.94   15.17
  -1  -5   9  662.12   15.47
  -1  -5  10  166.44    5.83
  -1  -5  10  160.57    5.22
  -1  -5  10  159.61    5.30
  -1  -5  10  162.66    5.47
  -1  -5  10  167.34    6.01
  -1  -5  11  316.55    8.44
  -1  -5  11  299.96    7.90
  -1  -5  12   22.05    1.36
  -1  -5  12   24.27    1.66
  -1  -5  12   24.11    1.41
  -1  -4  -7  129.81    3.74
  -1  -4  -6    3.67    0.81
  -1  -4  -5  105.03    3.97
  -1  -4  -4  955.51   20.78
  -1  -4  -4 1022.18   21.13
  -1  -4  -3   55.70    2.78
  -1  -4  -3   55.88    2.80
  -1  -4  -2  245.29    6.59
  -1  -4  -2  235.95    6.50
  -1  -4  -1  464.33   10.50
  -1  -4   0  204.90    8.69
  -1  -4   0  215.48    6.05
  -1  -4   1  631.85   16.86
  -1  -4   1  629.14   13.64
  -1  -4   1  612.32   16.03
  -1  -4   2  391.42    8.93
  -1  -4   2  410.41    9.39
  -1  -4   2  409.07   11.43
  -1  -4   2  398.58   11.35
  -1  -4   3 1003.55   19.75
  -1  -4   3  927.77   21.24
  -1  -4   3  956.48   20.11
  -1  -4   3  969.39   22.24
  -1  -4   3  984.17   19.98
  -1  -4   4   11.38    1.82
  -1  -4   4   10.67    1.20
  -1  -4   4   11.91    1.29
  -1  -4   4   12.59    1.23
  -1  -4   4   14.18    1.44
  -1  -4   4   12.11    1.32
  -1  -4   5  878.04   18.36
  -1  -4   5  870.38   18.47
  -1  -4   5  909.48   18.56
  -1  -4   5  867.63   18.67
  -1  -4   5  868.76   18.12
  -1  -4   6   19.79    1.67
  -1  -4   6   19.66    1.84
  -1  -4   6   18.84    1.65
  -1  -4   6   20.20    1.49
  -1  -4   7  338.50    8.69
  -1  -4   7  349.28    9.23
  -1  -4   7  328.24    8.76
  -1  -4   7  324.36    8.47
  -1  -4   8  459.88   11.70
  -1  -4   8  483.08   11.98
  -1  -4   8  456.31   11.35
  -1  -4   9 1289.66   27.61
  -1  -4   9 1288.98   26.93
  -1  -4   9 1301.63   27.34
  -1  -4   9 1306.92   27.87
  -1  -4   9 1282.86   27.24
  -1  -4  10  109.17    4.21
  -1  -4  10  107.04    4.57
  -1  -4  10  114.80    4.93
  -1  -4  10  118.70    4.69
  -1  -4  11   68.93    3.31
  -1  -4  11   73.34    3.54
  -1  -4  11   72.69    3.42
  -1  -4  12   63.77    2.65
  -1  -4  12   64.03    2.57
  -1  -3  -8  215.36    5.35
  -1  -3  -7   80.80    3.19
  -1  -3  -7   78.12    3.30
  -1  -3  -6  239.88    7.18
  -1  -3  -6  245.23    7.09
  -1  -3  -5  130.71    4.82
  -1  -3  -4 1678.19   33.78
  -1  -3  -3  182.62    5.50
  -1  -3  -2  453.16   10.35
  -1  -3  -1 2671.90   52.97
  -1  -3  -1 2801.16   56.37
  -1  -3  -1 2871.50   57.24
  -1  -3  -1 2818.85   55.94
  -1  -3  -1 2747.06   52.24
  -1  -3  -1 2742.07   52.16
  -1  -3   0  328.26   10.12
  -1  -3   0  313.91    9.61
  -1  -3   0  321.98    8.22
  -1  -3   1  759.39   16.70
  -1  -3   1  768.27   17.83
  -1  -3   2 4785.20   90.33
  -1  -3   2 4725.15   90.99
  -1  -3   3 1480.21   30.58
  -1  -3   3 1427.40   28.59
  -1  -3   3 1435.75   30.08
  -1  -3   4  380.91   10.62
  -1  -3   4  378.64    8.58
  -1  -3   4  396.90   11.06
  -1  -3   4  386.62    8.68
  -1  -3   4  372.52    8.47
  -1  -3   4  369.25    8.56
  -1  -3   4  386.33    8.72
  -1  -3   4  351.19    8.13
  -1  -3   5  235.59    8.41
  -1  -3   5  223.87    5.81
  -1  -3   5  221.64    6.28
  -1  -3   5  231.16    6.10
  -1  -3   5  230.59    6.14
  -1  -3   5  221.53    7.86
  -1  -3   5  223.46    5.90
  -1  -3   6  521.63   11.67
  -1  -3   6  520.37   12.02
  -1  -3   6  516.95   11.88
  -1  -3   7  299.13    7.99
  -1  -3   7  304.60    8.34
  -1  -3   7  316.93    8.46
  -1  -3   7  316.56    8.33
  -1  -3   8   36.73    2.66
  -1  -3   8   43.53    2.59
  -1  -3   8   38.48    2.78
  -1  -3   8   40.16    2.71
  -1  -3   8   42.57    2.79
  -1  -3   9  253.27    7.43
  -1  -3   9  250.54    7.84
  -1  -3   9  266.93    8.18
  -1  -3   9  258.18    7.85
  -1  -3  10  158.46    5.33
  -1  -3  10  153.36    5.76
  -1  -3  10  162.49    5.97
  -1  -3  10  158.72    5.86
  -1  -3  11  338.51    9.12
  -1  -3  11  352.69    9.17
  -1  -3  11  337.54    9.03
  -1  -3  12  141.14    4.25
  -1  -3  12  146.97    4.41
  -1  -2  -9    9.84    0.90
  -1  -2  -9    9.30    1.01
  -1  -2  -8   56.87    2.83
  -1  -2  -7   82.41    3.34
  -1  -2  -6   16.62    1.60
  -1  -2  -5  143.19    4.74
  -1  -2  -4  280.30    7.21
  -1  -2  -3  406.84   12.62
  -1  -2  -3  403.08    9.18
  -1  -2  -3  393.97   11.94
  -1  -2  -2  258.22    8.69
  -1  -2  -2  268.09    8.76
  -1  -2  -2  271.95    9.34
  -1  -2  -2  261.76    8.46
  -1  -2  -1 1015.23   22.20
  -1  -2  -1  911.73   21.48
  -1  -2  -1  948.16   20.15
  -1  -2  -1 1007.21   21.47
  -1  -2   0  437.23   10.97
  -1  -2   0  436.02   10.73
  -1  -2   0  412.36    9.99
  -1  -2   1  110.01    3.90
  -1  -2   1  107.60    3.94
  -1  -2   2  291.63    6.68
  -1  -2   2  289.00    7.68
  -1  -2   3 2114.91   40.32
  -1  -2   3 2245.40   42.45
  -1  -2   3 2206.16   42.76
  -1  -2   4 1202.03   25.34
  -1  -2   4 1247.01   24.86
  -1  -2   5  113.65    3.61
  -1  -2   5  113.08    3.85
  -1  -2   5  104.97    3.51
  -1  -2   5  113.99    3.62
  -1  -2   5  112.55    3.60
  -1  -2   6  356.21   11.78
  -1  -2   6  351.12    9.03
  -1  -2   6  372.13    8.95
  -1  -2   6  367.23    8.91
  -1  -2   7  251.21    7.08
  -1  -2   7  251.44    6.76
  -1  -2   7  255.11    7.13
  -1  -2   8   40.40    2.53
  -1  -2   8   42.73    2.84
  -1  -2   9  257.05    7.58
  -1  -2   9  259.18    8.11
  -1  -2  10  469.62   12.16
  -1  -2  10  470.68   11.56
  -1  -2  10  490.85   12.23
  -1  -2  10  458.93   11.97
  -1  -2  11   20.22    1.89
  -1  -2  11   16.39    1.89
  -1  -2  11   18.70    1.87
  -1  -2  12   47.82    2.17
  -1  -2  12   45.47    2.06
  -1  -1 -10  100.13    3.10
  -1  -1 -10  111.54    3.33
  -1  -1  -8  273.83    7.60
  -1  -1  -8  279.07    7.54
  -1  -1  -7  122.04    4.25
  -1  -1  -7  119.99    4.52
  -1  -1  -6  246.57    6.74
  -1  -1  -6  244.71    7.01
  -1  -1  -5   50.29    2.34
  -1  -1  -4  118.00    5.97
  -1  -1  -4  120.70    5.10
  -1  -1  -4  115.94    3.57
  -1  -1  -3  412.17   11.47
  -1  -1  -3  399.94   10.45
  -1  -1  -2  145.18    5.27
  -1  -1  -2  142.41    4.70
  -1  -1  -2  144.97    5.75
  -1  -1  -1 2081.71   41.31
  -1  -1   0   58.90    2.52
  -1  -1   0   57.51    2.38
  -1  -1   1  742.20   15.44
  -1  -1   1  749.96   14.64
  -1  -1   2  750.41   15.42
  -1  -1   2  764.42   15.68
  -1  -1   3   71.53    2.21
  -1  -1   3   79.93    2.91
  -1  -1   4 1138.45   23.27
  -1  -1   4 1182.38   24.90
  -1  -1   5  166.85    6.53
  -1  -1   5  157.27    4.55
  -1  -1   5  158.37    5.42
  -1  -1   5  158.58    4.53
  -1  -1   6  570.26   12.71
  -1  -1   6  551.56   14.44
  -1  -1   6  557.01   12.35
  -1  -1   6  577.61   12.35
  -1  -1   6  555.63   12.60
  -1  -1   6  543.66   12.60
  -1  -1   7  733.32   16.22
  -1  -1   7  699.18   15.79
  -1  -1   7  721.05   16.12
  -1  -1   8   74.33    3.54
  -1  -1   8   69.18    3.68
  -1  -1   8   72.68    3.69
  -1  -1   8   71.56    3.68
  -1  -1   9   19.92    2.24
  -1  -1   9   20.84    2.07
  -1  -1   9   21.46    2.36
  -1  -1   9   19.73    2.25
  -1  -1  10   93.89    4.29
  -1  -1  10   91.22    3.81
  -1  -1  10   87.49    4.06
  -1  -1  10   93.93    4.17
  -1  -1  11   17.73    1.72
  -1  -1  11   19.68    1.72
  -1  -1  12   39.26    1.64
  -1   0 -10   21.76    1.50
  -1   0 -10   24.71    1.57
  -1   0  -9  509.07   11.81
  -1   0  -9  508.01   12.20
  -1   0  -8  191.06    6.28
  -1   0  -8  184.02    5.94
  -1   0  -7  429.07   10.67
  -1   0  -6  556.20   12.31
  -1   0  -5   72.67    4.54
  -1   0  -5   76.37    4.38
  -1   0  -5   73.92    2.68
  -1   0  -4  333.94    9.76
  -1   0  -4  332.37    9.53
  -1   0  -4  314.17    7.74
  -1   0  -3 3182.94   61.44
  -1   0  -3 3159.09   61.61
  -1   0  -2 2927.51   56.88
  -1   0  -2 3014.42   56.87
  -1   0  -1 2363.84   43.36
  -1   0  -1 2350.72   43.18
  -1   0  -1 2212.29   43.56
  -1   0  -1 2196.75   43.39
  -1   0   0 5235.78  101.35
  -1   0   0 5750.63  101.42
  -1   0   1 7392.52  136.78
  -1   0   2   36.12    1.88
  -1   0   2   35.12    1.64
  -1   0   3  791.38   17.15
  -1   0   3  781.36   16.73
  -1   0   4  524.73   13.25
  -1   0   4  526.85   12.82
  -1   0   4  516.89   12.07
  -1   0   5  212.95    7.63
  -1   0   5  226.21    7.11
  -1   0   5  221.65    5.88
  -1   0   5  219.74    5.70
  -1   0   5  218.99    5.86
  -1   0   5  222.50    5.87
  -1   0   5  224.60    5.92
  -1   0   6   79.17    2.98
  -1   0   6   80.23    3.24
  -1   0   6   83.98    3.42
  -1   0   6   80.13    3.33
  -1   0   7   83.58    3.33
  -1   0   7   85.70    3.72
  -1   0   7   92.52    3.96
  -1   0   7   90.63    3.94
  -1   0   8    3.45    1.38
  -1   0   8    3.71    1.45
  -1   0   8    6.13    1.47
  -1   0   9   66.06    3.71
  -1   0   9   66.26    3.40
  -1   0   9   61.05    3.41
  -1   0   9   70.93    3.57
  -1   0  10  105.53    4.30
  -1   0  10  101.06    4.09
  -1   0  11   63.84    2.52
  -1   0  11   70.33    2.83
  -1   1 -11   13.07    1.08
  -1   1 -11   11.24    0.86
  -1   1 -11   13.41    1.14
  -1   1 -10   22.74    1.76
  -1   1 -10   23.97    2.00
  -1   1  -9  282.76    7.59
  -1   1  -9  295.13    8.25
  -1   1  -8   91.95    3.76
  -1   1  -7   61.21    2.73
  -1   1  -7   62.91    2.94
  -1   1  -6  129.64    4.06
  -1   1  -6  124.21    4.14
  -1   1  -5  625.97   13.44
  -1   1  -5  646.47   16.67
  -1   1  -5  662.03   16.66
  -1   1  -5  650.03   16.55
  -1   1  -4 1030.36   22.77
  -1   1  -4 1012.16   22.58
  -1   1  -3 1168.33   22.70
  -1   1  -3  977.00   22.49
  -1   1  -2 3140.46   56.13
  -1   1  -2 2765.46   55.72
  -1   1  -1  272.74    6.26
  -1   1   1 2445.05   45.68
  -1   1   3 1078.25   23.56
  -1   1   4  110.39    3.59
  -1   1   4  108.64    5.25
  -1   1   5  213.98    6.04
  -1   1   5  206.03    5.70
  -1   1   5  206.25    5.81
  -1   1   5  208.32    5.75
  -1   1   6  433.36   10.87
  -1   1   6  421.87   10.41
  -1   1   6  447.37   10.78
  -1   1   6  437.99   10.59
  -1   1   7  322.12    8.56
  -1   1   7  319.15    8.96
  -1   1   7  308.47    8.70
  -1   1   7  324.84    8.65
  -1   1   8  131.43    4.74
  -1   1   8  140.65    5.32
  -1   1   8  132.59    5.08
  -1   1   8  134.43    4.91
  -1   1   9   75.40    3.44
  -1   1  10  133.56    4.11
  -1   1  11   20.73    1.18
  -1   2 -11   25.60    1.73
  -1   2 -11   25.91    1.83
  -1   2 -10  478.87   11.50
  -1   2 -10  499.27   11.99
  -1   2  -9   96.37    4.05
  -1   2  -9   86.73    3.58
  -1   2  -8  122.21    4.42
  -1   2  -8  114.89    4.53
  -1   2  -7   53.96    2.76
  -1   2  -7   57.87    2.86
  -1   2  -6  431.96   10.16
  -1   2  -5  231.62    8.10
  -1   2  -5  238.88    8.11
  -1   2  -5  234.14    6.05
  -1   2  -4  231.37    7.57
  -1   2  -4  237.66    7.48
  -1   2  -3 1880.96   38.03
  -1   2  -2  399.12    9.36
  -1   2  -2  382.17    8.06
  -1   2  -1 2331.89   45.17
  -1   2   0 4482.69   83.47
  -1   2   1 1957.66   36.68
  -1   2   1 1936.28   37.33
  -1   2   3  232.54    5.86
  -1   2   3  223.33    5.80
  -1   2   4 1677.58   32.56
  -1   2   4 1608.99   32.11
  -1   2   4 1654.17   32.43
  -1   2   4 1632.23   32.50
  -1   2   4 1634.08   31.90
  -1   2   5  347.18    8.36
  -1   2   5  352.23    9.08
  -1   2   5  345.42    8.54
  -1   2   5  349.05    8.92
  -1   2   5  347.14    9.08
  -1   2   5  354.40    8.59
  -1   2   6  348.91    9.43
  -1   2   6  329.44    9.00
  -1   2   6  326.75    8.61
  -1   2   6  333.13    8.41
  -1   2   7  177.38    6.30
  -1   2   7  172.41    5.86
  -1   2   7  166.22    5.53
  -1   2   7  168.17    5.28
  -1   2   8   32.76    2.72
  -1   2   8   33.31    2.31
  -1   2   8   27.56    2.02
  -1   2   9   96.00    3.32
  -1   3 -12   59.58    2.24
  -1   3 -12   62.02    2.37
  -1   3 -11   23.67    1.92
  -1   3 -10 1238.21   25.84
  -1   3 -10 1262.62   26.35
  -1   3 -10 1267.63   26.55
  -1   3  -9  196.94    6.39
  -1   3  -9  200.66    6.55
  -1   3  -8   98.79    4.17
  -1   3  -8   88.27    4.09
  -1   3  -7  184.83    5.80
  -1   3  -7  174.86    5.43
  -1   3  -6  415.34   13.09
  -1   3  -6  424.62   10.00
  -1   3  -6  405.79    9.68
  -1   3  -6  406.40    9.44
  -1   3  -6  394.79   11.72
  -1   3  -5  200.61    7.83
  -1   3  -5  196.38    5.43
  -1   3  -5  200.27    5.29
  -1   3  -5  210.47    6.70
  -1   3  -4 1047.79   24.18
  -1   3  -4 1071.73   22.12
  -1   3  -3  385.42   10.56
  -1   3  -3  373.36    8.47
  -1   3  -2 1152.19   24.61
  -1   3  -1  123.84    4.38
  -1   3  -1  126.60    4.22
  -1   3  -1  116.93    3.26
  -1   3   0 1475.42   29.42
  -1   3   1  344.37    7.34
  -1   3   1  369.77    8.99
  -1   3   2  860.68   17.73
  -1   3   2  865.40   17.89
  -1   3   2  850.37   17.83
  -1   3   2  881.79   19.22
  -1   3   3   59.19    2.77
  -1   3   3   61.94    2.80
  -1   3   3   60.69    2.79
  -1   3   4  298.73    8.16
  -1   3   4  311.78    8.32
  -1   3   4  309.52    8.29
  -1   3   5   27.04    2.07
  -1   3   5   29.40    2.35
  -1   3   5   26.68    2.29
  -1   3   6   42.95    3.01
  -1   3   6   39.20    2.41
  -1   3   6   42.58    2.93
  -1   3   7  247.08    7.42
  -1   3   7  236.03    7.69
  -1   3   8    1.15    1.09
  -1   3   8    1.73    1.01
  -1   3   9   37.28    1.96
  -1   4 -12  212.64    5.58
  -1   4 -11   87.48    3.40
  -1   4 -11   94.35    3.72
  -1   4 -11   88.16    3.72
  -1   4 -11   85.74    3.72
  -1   4 -10  215.75    6.90
  -1   4 -10  209.08    6.63
  -1   4  -9  342.42    9.26
  -1   4  -9  289.88    8.90
  -1   4  -8   54.21    3.25
  -1   4  -7  129.50    4.73
  -1   4  -7  136.86    4.76
  -1   4  -7  121.18    4.24
  -1   4  -6  439.73   10.47
  -1   4  -6  454.81   10.85
  -1   4  -6  452.78   10.84
  -1   4  -6  446.73   10.56
  -1   4  -5  409.82   12.95
  -1   4  -5  403.77    9.62
  -1   4  -5  401.36    9.52
  -1   4  -5  387.58    9.46
  -1   4  -4 1464.69   29.04
  -1   4  -4 1421.34   28.73
  -1   4  -4 1495.41   32.83
  -1   4  -4 1482.85   28.91
  -1   4  -4 1489.62   31.23
  -1   4  -3 1131.08   22.98
  -1   4  -3 1149.64   26.06
  -1   4  -3 1160.77   22.98
  -1   4  -3 1134.34   22.87
  -1   4  -3 1135.74   25.06
  -1   4  -3 1174.42   24.39
  -1   4  -2 1068.97   21.50
  -1   4  -2 1088.28   23.63
  -1   4  -2 1022.34   21.03
  -1   4  -2 1011.50   21.17
  -1   4  -2 1089.46   23.06
  -1   4  -1 1479.04   29.49
  -1   4  -1 1383.13   27.37
  -1   4  -1 1438.01   27.72
  -1   4  -1 1428.05   29.17
  -1   4   0  571.76   12.62
  -1   4   0  570.60   12.60
  -1   4   0  566.62   12.46
  -1   4   0  591.04   14.06
  -1   4   0  571.94   12.25
  -1   4   1  717.74   15.36
  -1   4   1  707.83   16.79
  -1   4   1  703.93   15.22
  -1   4   1  708.18   15.13
  -1   4   2   30.94    1.89
  -1   4   2   30.84    2.11
  -1   4   2   30.83    2.02
  -1   4   3  485.72   11.99
  -1   4   3  488.77   11.96
  -1   4   3  492.12   11.87
  -1   4   4  229.16    7.35
  -1   4   4  251.67    7.52
  -1   4   4  239.87    7.43
  -1   4   5  115.82    4.69
  -1   4   5  119.00    5.04
  -1   4   5  121.79    5.03
  -1   4   6  266.60    7.57
  -1   4   6  289.74    8.37
  -1   4   6  283.11    8.39
  -1   4   7   55.15    2.90
  -1   4   7   57.78    3.08
  -1   4   8   10.45    1.01
  -1   4   8   11.32    1.18
  -1   5 -12  281.74    6.76
  -1   5 -12  272.37    6.64
  -1   5 -11   30.08    2.11
  -1   5 -11   31.64    2.15
  -1   5 -11   32.67    2.13
  -1   5 -10   26.23    2.33
  -1   5 -10   23.78    2.31
  -1   5  -9   32.94    2.73
  -1   5  -9   30.70    2.58
  -1   5  -8   28.65    2.36
  -1   5  -8   26.71    1.99
  -1   5  -7   49.86    2.81
  -1   5  -7   49.50    2.83
  -1   5  -7   46.77    2.89
  -1   5  -6  370.42    9.58
  -1   5  -6  354.20    9.68
  -1   5  -6  383.86    9.70
  -1   5  -6  372.78    9.26
  -1   5  -5   28.75    1.94
  -1   5  -5   28.96    1.96
  -1   5  -5   29.21    2.15
  -1   5  -5   30.28    1.82
  -1   5  -4  899.24   18.83
  -1   5  -4  874.51   18.29
  -1   5  -4  862.43   20.59
  -1   5  -3   46.30    2.17
  -1   5  -3   46.70    2.52
  -1   5  -3   41.65    2.02
  -1   5  -3   41.60    2.42
  -1   5  -3   45.16    3.61
  -1   5  -3   46.96    3.42
  -1   5  -2    5.69    1.12
  -1   5  -2    5.79    1.31
  -1   5  -2    5.60    1.02
  -1   5  -2    6.34    1.45
  -1   5  -2    8.07    1.09
  -1   5  -1  280.08    7.24
  -1   5  -1  288.40    7.71
  -1   5  -1  275.79    7.31
  -1   5  -1  279.72    7.42
  -1   5   0  717.52   16.46
  -1   5   0  744.42   16.29
  -1   5   0  732.71   15.83
  -1   5   0  760.20   16.57
  -1   5   0  753.19   16.07
  -1   5   1  162.42    5.37
  -1   5   1  167.00    5.49
  -1   5   1  163.39    5.30
  -1   5   2  144.18    4.98
  -1   5   2  156.07    5.66
  -1   5   2  159.62    5.54
  -1   5   2  156.55    5.41
  -1   5   3  157.52    5.80
  -1   5   3  150.30    5.57
  -1   5   4  530.17   13.45
  -1   5   4  552.57   13.60
  -1   5   4  521.03   13.26
  -1   5   5  174.63    5.83
  -1   5   5  179.52    6.09
  -1   5   5  169.38    5.93
  -1   5   6   96.80    3.79
  -1   5   6   92.57    3.73
  -1   5   7  181.58    4.83
  -1   6 -12   57.50    2.21
  -1   6 -12   50.60    1.93
  -1   6 -11  104.18    3.83
  -1   6 -11  104.68    3.89
  -1   6 -11   96.36    3.49
  -1   6 -11   94.31    3.32
  -1   6 -10   54.33    3.00
  -1   6 -10   50.56    2.68
  -1   6  -9  197.21    6.63
  -1   6  -9  184.58    6.29
  -1   6  -8  229.21    7.29
  -1   6  -8  216.89    6.87
  -1   6  -8  221.77    7.00
  -1   6  -7  229.58    7.32
  -1   6  -7  232.28    6.84
  -1   6  -7  234.06    7.31
  -1   6  -6 2120.48   43.22
  -1   6  -6 2184.02   43.28
  -1   6  -6 2264.09   43.91
  -1   6  -6 2177.20   42.69
  -1   6  -5  599.99   14.23
  -1   6  -5  596.24   13.56
  -1   6  -4   14.03    1.37
  -1   6  -4   16.18    1.83
  -1   6  -4   17.55    1.86
  -1   6  -3  594.51   13.51
  -1   6  -3  562.89   12.76
  -1   6  -3  574.55   13.70
  -1   6  -2    3.87    1.10
  -1   6  -2    3.35    1.13
  -1   6  -2    4.41    1.11
  -1   6  -2    3.97    1.30
  -1   6  -1   25.08    2.21
  -1   6  -1   22.90    2.02
  -1   6  -1   23.96    1.91
  -1   6  -1   24.31    1.99
  -1   6  -1   23.03    1.86
  -1   6   0  104.27    4.58
  -1   6   0  109.10    4.42
  -1   6   0  112.48    4.63
  -1   6   1   97.06    4.38
  -1   6   1   94.38    4.15
  -1   6   2 1072.34   23.11
  -1   6   2 1037.24   23.29
  -1   6   2 1037.29   22.78
  -1   6   3  210.09    6.92
  -1   6   3  211.95    6.88
  -1   6   3  195.22    6.53
  -1   6   4   24.37    2.11
  -1   6   4   23.81    2.05
  -1   6   5   58.68    2.61
  -1   6   5   65.04    2.90
  -1   6   6   94.19    2.91
  -1   7 -11  129.79    4.23
  -1   7 -10   28.61    1.98
  -1   7 -10   29.79    2.22
  -1   7  -9  191.40    6.30
  -1   7  -9  195.60    5.94
  -1   7  -8  787.51   17.80
  -1   7  -8  761.71   17.09
  -1   7  -8  817.05   18.15
  -1   7  -7  738.52   16.82
  -1   7  -7  727.64   16.81
  -1   7  -7  775.12   17.70
  -1   7  -6 1763.21   35.61
  -1   7  -6 1699.53   34.57
  -1   7  -5   21.39    2.33
  -1   7  -5   16.24    2.06
  -1   7  -4   96.89    4.46
  -1   7  -4   98.78    4.60
  -1   7  -3   38.98    2.40
  -1   7  -3   38.16    2.40
  -1   7  -3   38.47    2.72
  -1   7  -2  472.58   11.68
  -1   7  -2  485.01   12.72
  -1   7  -2  459.15   11.79
  -1   7  -2  480.54   11.88
  -1   7  -2  478.76   11.82
  -1   7  -1  450.69   11.54
  -1   7  -1  461.03   11.90
  -1   7  -1  445.77   11.03
  -1   7   0  930.00   20.81
  -1   7   0  940.86   20.53
  -1   7   0  910.98   20.77
  -1   7   1  237.75    7.14
  -1   7   1  253.99    7.59
  -1   7   1  242.22    7.68
  -1   7   2  148.92    5.27
  -1   7   3   13.05    1.52
  -1   7   3   15.22    1.64
  -1   7   4  103.62    3.41
  -1   7   4   95.15    3.26
  -1   8 -11   41.04    1.81
  -1   8 -11   37.87    1.68
  -1   8 -10  138.83    4.26
  -1   8  -9   72.36    3.04
  -1   8  -8  121.33    4.18
  -1   8  -7  274.32    7.79
  -1   8  -7  263.56    8.20
  -1   8  -6   22.45    2.21
  -1   8  -6   22.81    2.48
  -1   8  -5  132.77    5.38
  -1   8  -5  135.01    5.50
  -1   8  -4  114.45    5.17
  -1   8  -4  122.23    4.84
  -1   8  -4  115.73    4.22
  -1   8  -4  113.32    4.82
  -1   8  -3  119.90    4.24
  -1   8  -3  135.97    5.49
  -1   8  -3  120.06    4.65
  -1   8  -3  124.91    4.48
  -1   8  -2  260.53    7.36
  -1   8  -2  267.66    7.62
  -1   8  -1  164.46    5.29
  -1   8  -1  155.50    5.67
  -1   8  -1  153.20    5.39
  -1   8   0  125.82    4.43
  -1   8   0  123.57    4.44
  -1   8   0  122.18    4.55
  -1   8   1   28.64    1.89
  -1   8   1   27.83    1.97
  -1   8   2    8.78    1.06
  -1   9 -10  172.44    4.46
  -1   9 -10  177.77    4.52
  -1   9  -9   49.13    2.25
  -1   9  -9   49.10    2.34
  -1   9  -8  201.45    5.85
  -1   9  -8  197.05    5.58
  -1   9  -7  138.25    4.53
  -1   9  -7  137.06    4.74
  -1   9  -7  138.58    4.44
  -1   9  -6    6.06    1.33
  -1   9  -6    6.28    1.30
  -1   9  -6    5.89    1.01
  -1   9  -5   22.23    2.07
  -1   9  -5   19.12    1.76
  -1   9  -4   49.13    2.41
  -1   9  -3   67.54    3.34
  -1   9  -2  100.33    3.81
  -1   9  -2   93.94    3.25
  -1   9  -1   20.05    1.44
  -1   9  -1   19.28    1.38
  -1   9   0  232.19    5.63
  -1  10  -6   20.36    1.30
  -1  10  -5   69.13    2.57
  -1  10  -4   33.86    1.67
   0  -9   1   41.55    1.87
   0  -9   1   41.12    1.85
   0  -9   2   90.51    3.18
   0  -9   2   78.72    2.66
   0  -9   3   96.14    3.52
   0  -9   3   86.22    3.11
   0  -9   4  118.00    4.12
   0  -9   4  114.68    4.11
   0  -9   4  119.31    3.97
   0  -9   5   36.03    2.21
   0  -9   5   34.56    2.20
   0  -9   5   30.95    2.00
   0  -9   6   17.29    1.60
   0  -9   6   17.71    1.58
   0  -9   7   63.79    2.74
   0  -9   7   65.04    2.81
   0  -9   8   73.30    2.77
   0  -9   8   79.08    2.99
   0  -9   9   15.50    1.23
   0  -8  -2   59.33    2.10
   0  -8  -1   74.81    2.90
   0  -8  -1   71.95    2.67
   0  -8   0  289.41    7.54
   0  -8   0  273.04    7.24
   0  -8   0  270.02    6.99
   0  -8   1  128.46    4.62
   0  -8   1  129.18    4.50
   0  -8   2  390.35   10.11
   0  -8   2  381.14    9.81
   0  -8   3   27.67    2.38
   0  -8   3   30.59    2.47
   0  -8   3   28.69    2.31
   0  -8   4   86.41    4.07
   0  -8   4   77.90    3.96
   0  -8   4   82.29    3.80
   0  -8   5   24.89    2.25
   0  -8   5   24.39    2.36
   0  -8   5   24.94    2.25
   0  -8   6  122.03    4.81
   0  -8   6  112.62    4.06
   0  -8   6  120.69    4.75
   0  -8   7  342.83    9.09
   0  -8   7  329.41    9.15
   0  -8   8    1.65    1.14
   0  -8   8    1.39    0.84
   0  -8   8    2.21    1.25
   0  -8   9   88.18    3.44
   0  -8   9   93.03    3.81
   0  -8  10  161.46    4.63
   0  -8  10  194.10    5.31
   0  -8  11  119.39    3.51
   0  -7  -3   44.72    2.12
   0  -7  -3   38.92    1.76
   0  -7  -2  351.41    8.68
   0  -7  -1    4.91    1.26
   0  -7   0  168.69    6.01
   0  -7   0  169.78    5.82
   0  -7   1   47.90    3.16
   0  -7   1   49.27    3.05
   0  -7   2  169.23    5.36
   0  -7   2  186.47    6.37
   0  -7   2  186.65    6.24
   0  -7   3   25.90    1.90
   0  -7   3   26.92    2.42
   0  -7   3   29.96    2.51
   0  -7   4  150.10    5.74
   0  -7   4  147.82    5.60
   0  -7   4  145.77    4.86
   0  -7   4  155.13    5.72
   0  -7   4  153.60    5.62
   0  -7   5  358.73    9.81
   0  -7   5  338.79    9.76
   0  -7   5  354.55    9.85
   0  -7   6  233.53    7.38
   0  -7   6  231.48    7.45
   0  -7   6  246.20    7.66
   0  -7   7  114.08    4.76
   0  -7   7  117.40    4.36
   0  -7   7  114.55    4.99
   0  -7   8  130.05    4.96
   0  -7   8  124.02    4.49
   0  -7   8  116.05    4.26
   0  -7   8  131.76    5.30
   0  -7   9   92.53    3.98
   0  -7   9   94.39    3.72
   0  -7   9   99.06    4.36
   0  -7  10  244.11    6.77
   0  -7  10  250.68    7.23
   0  -7  11   83.36    2.83
   0  -6  -4  122.95    4.10
   0  -6  -3  362.56    8.88
   0  -6  -2   94.09    3.72
   0  -6  -1  252.89    7.15
   0  -6   0   12.14    1.45
   0  -6   0   10.66    1.73
   0  -6   1   63.94    2.99
   0  -6   1   71.85    3.53
   0  -6   2    7.74    1.48
   0  -6   2    8.98    1.49
   0  -6   2    6.92    1.14
   0  -6   3   61.00    3.29
   0  -6   3   57.96    2.77
   0  -6   3   66.23    3.29
   0  -6   4  295.38    8.51
   0  -6   4  308.92    8.54
   0  -6   4  291.72    8.48
   0  -6   4  302.31    7.88
   0  -6   4  314.94    8.53
   0  -6   5  313.80    8.81
   0  -6   5  313.44    8.78
   0  -6   5  322.57    8.84
   0  -6   6  752.00   17.05
   0  -6   6  713.85   17.01
   0  -6   6  769.55   17.34
   0  -6   7  120.03    4.84
   0  -6   7  129.79    4.74
   0  -6   7  124.03    5.10
   0  -6   8  244.03    7.53
   0  -6   8  240.23    7.23
   0  -6   8  251.02    7.92
   0  -6   9  907.10   20.28
   0  -6   9  925.86   20.13
   0  -6  10  162.00    5.43
   0  -6  11   90.58    3.12
   0  -6  11   92.40    3.39
   0  -6  12   59.44    2.48
   0  -5  -5   82.48    3.30
   0  -5  -4    3.84    1.18
   0  -5  -2  265.74    7.52
   0  -5  -1 1204.01   24.80
   0  -5   0   94.60    3.57
   0  -5   1  625.10   13.65
   0  -5   2 1079.58   26.75
   0  -5   2 1091.51   22.65
   0  -5   3  368.80    9.06
   0  -5   3  346.58    8.48
   0  -5   3  369.65    9.02
   0  -5   4 1636.13   32.63
   0  -5   4 1639.84   32.60
   0  -5   4 1655.55   32.68
   0  -5   4 1607.15   32.10
   0  -5   4 1623.15   32.59
   0  -5   5  271.33    7.42
   0  -5   5  256.72    7.33
   0  -5   5  277.71    7.50
   0  -5   6 1144.95   23.86
   0  -5   6 1112.59   23.23
   0  -5   6 1168.82   24.12
   0  -5   7 1234.37   25.51
   0  -5   7 1240.80   25.31
   0  -5   7 1195.93   25.62
   0  -5   7 1171.73   24.55
   0  -5   7 1202.87   24.65
   0  -5   8  295.39    8.53
   0  -5   8  309.88    8.55
   0  -5   8  299.56    8.08
   0  -5   8  291.66    8.07
   0  -5   9  132.66    5.12
   0  -5   9  134.61    4.90
   0  -5   9  124.87    4.74
   0  -5  10  280.35    7.89
   0  -5  10  269.06    7.52
   0  -5  11   78.53    3.17
   0  -5  11   80.01    3.75
   0  -5  11   81.04    3.34
   0  -5  11   79.27    3.28
   0  -5  12   19.55    1.29
   0  -4  -6   14.97    1.42
   0  -4  -5  301.22    8.03
   0  -4  -1  306.74    9.92
   0  -4   0  779.35   20.16
   0  -4   0  765.39   15.95
   0  -4   1 1011.31   23.84
   0  -4   1 1011.04   22.05
   0  -4   2 2992.29   59.81
   0  -4   2 2998.53   58.09
   0  -4   2 2988.04   56.81
   0  -4   3  346.11    9.97
   0  -4   3  356.31    8.24
   0  -4   3  337.36    8.14
   0  -4   4  154.34    4.59
   0  -4   4  158.73    4.63
   0  -4   4  154.02    4.37
   0  -4   4  160.02    6.66
   0  -4   4  153.79    4.32
   0  -4   4  150.12    4.58
   0  -4   4  150.00    4.57
   0  -4   4  160.25    6.53
   0  -4   5  122.09    6.02
   0  -4   5  116.01    3.96
   0  -4   5  117.81    3.98
   0  -4   5  118.54    4.06
   0  -4   5  126.68    5.97
   0  -4   5  113.96    3.58
   0  -4   6  109.67    4.02
   0  -4   6  107.80    3.72
   0  -4   6  108.74    3.70
   0  -4   7  439.36   10.69
   0  -4   7  410.40   10.30
   0  -4   7  435.68   10.61
   0  -4   7  422.08   10.38
   0  -4   8  129.90    4.91
   0  -4   8  123.37    4.76
   0  -4   8  131.68    4.87
   0  -4   9   99.25    4.45
   0  -4   9   99.35    4.79
   0  -4   9  105.42    4.44
   0  -4   9  101.74    4.47
   0  -4  10   13.52    1.94
   0  -4  10   11.95    1.81
   0  -4  10   12.51    1.80
   0  -4  10   11.63    2.01
   0  -4  11   33.32    2.17
   0  -4  11   33.67    2.24
   0  -4  11   38.63    2.67
   0  -4  11   36.22    2.42
   0  -4  12   96.51    3.01
   0  -4  12  108.57    3.50
   0  -3  -8   52.51    2.39
   0  -3  -7  172.96    5.31
   0  -3  -2  949.20   23.66
   0  -3  -2  898.47   21.87
   0  -3  -2  948.14   21.72
   0  -3  -1  123.79    5.27
   0  -3  -1  122.04    4.97
   0  -3  -1  122.42    5.77
   0  -3   0  127.27    5.42
   0  -3   0  125.75    4.74
   0  -3   1 1596.82   32.99
   0  -3   2 3657.11   69.36
   0  -3   3 2096.66   42.12
   0  -3   4  472.52   13.30
   0  -3   4  572.74   13.63
   0  -3   5  532.57   14.64
   0  -3   5  550.12   11.94
   0  -3   5  568.67   14.63
   0  -3   5  548.93   11.78
   0  -3   5  539.02   11.73
   0  -3   6 1096.53   22.51
   0  -3   6 1101.14   22.51
   0  -3   6 1102.36   22.43
   0  -3   6 1087.02   22.41
   0  -3   7  678.66   15.32
   0  -3   7  694.91   15.55
   0  -3   7  684.28   15.24
   0  -3   7  661.09   15.21
   0  -3   8  230.14    7.17
   0  -3   8  243.75    7.27
   0  -3   8  238.60    7.36
   0  -3   8  227.02    7.11
   0  -3   8  230.27    7.20
   0  -3   9  387.73   10.31
   0  -3   9  384.05   10.58
   0  -3   9  352.44   10.14
   0  -3   9  385.00   10.37
   0  -3  10  408.43   10.77
   0  -3  10  414.95   10.91
   0  -3  10  421.14   11.39
   0  -3  10  401.83   11.02
   0  -3  10  435.05   11.15
   0  -3  11  166.35    5.37
   0  -3  11  175.22    5.48
   0  -3  11  180.60    5.78
   0  -3  12  322.34    7.65
   0  -3  12  379.00    8.34
   0  -2  -9   56.91    2.41
   0  -2  -4 1850.56   39.33
   0  -2  -3  738.07   19.38
   0  -2  -3  746.15   17.60
   0  -2  -2   41.40    2.80
   0  -2  -2   45.13    2.64
   0  -2  -1 1903.94   37.51
   0  -2  -1 1956.76   39.51
   0  -2  -1 2073.81   40.50
   0  -2  -1 2145.53   39.21
   0  -2   0   45.14    2.70
   0  -2   0   49.30    2.29
   0  -2   0   42.41    1.57
   0  -2   2 2470.96   47.68
   0  -2   3  888.49   19.05
   0  -2   5   62.40    2.48
   0  -2   5   64.99    3.45
   0  -2   5   53.97    3.66
   0  -2   5   62.75    2.51
   0  -2   5   63.45    2.57
   0  -2   5   63.98    2.54
   0  -2   6 1043.43   21.64
   0  -2   6 1042.66   21.69
   0  -2   6 1057.45   21.84
   0  -2   6 1029.51   24.01
   0  -2   6 1076.41   21.70
   0  -2   7  218.49    6.66
   0  -2   7  226.57    6.66
   0  -2   7  226.08    6.77
   0  -2   7  228.73    6.71
   0  -2   8  152.40    5.47
   0  -2   8  146.02    5.40
   0  -2   8  155.37    5.67
   0  -2   9   95.73    4.38
   0  -2   9   95.58    4.66
   0  -2   9  108.34    4.64
   0  -2   9  100.44    4.61
   0  -2  10  848.52   19.11
   0  -2  10  848.59   19.29
   0  -2  10  880.85   19.42
   0  -2  11  237.07    6.64
   0  -2  11  243.59    6.71
   0  -2  12   62.27    2.39
   0  -1  -9    7.49    1.06
   0  -1  -8  164.04    5.44
   0  -1  -5  188.99    7.51
   0  -1  -4  979.42   21.23
   0  -1  -4  965.33   22.02
   0  -1  -3 1033.12   21.78
   0  -1  -3 1078.17   23.88
   0  -1  -3 1070.62   22.63
   0  -1  -2  686.21   16.26
   0  -1  -2  717.64   14.74
   0  -1  -2  734.88   15.43
   0  -1  -1 1450.32   28.85
   0  -1  -1 1498.19   28.04
   0  -1   0 9999.00  178.19
   0  -1   0 9623.72  179.12
   0  -1   1 3709.00   68.78
   0  -1   2 8364.51  154.94
   0  -1   3 2049.84   39.92
   0  -1   4  510.74   12.52
   0  -1   5  402.06    9.18
   0  -1   5  395.41   11.36
   0  -1   5  403.05    9.29
   0  -1   6   64.30    2.99
   0  -1   6   61.74    4.01
   0  -1   6   65.73    2.92
   0  -1   6   61.45    4.20
   0  -1   6   58.06    2.81
   0  -1   6   62.17    2.86
   0  -1   7 1090.95   22.83
   0  -1   7 1078.58   22.94
   0  -1   7 1045.47   22.69
   0  -1   7 1066.02   22.68
   0  -1   8   15.39    1.96
   0  -1   8   10.07    1.35
   0  -1   8   12.44    1.80
   0  -1   8    9.65    1.93
   0  -1   8   12.51    1.76
   0  -1   8    9.10    1.75
   0  -1   9  129.54    5.16
   0  -1   9  128.06    5.21
   0  -1   9  133.18    5.23
   0  -1   9  123.24    5.04
   0  -1  10  430.10   10.95
   0  -1  10  422.92   10.94
   0  -1  10  426.16   10.82
   0  -1  11    0.46    0.81
   0  -1  11    0.30    0.92
   0   0 -10  143.54    4.33
   0   0 -10  157.29    4.80
   0   0  -9    8.69    1.30
   0   0  -7   91.40    3.47
   0   0  -5 4457.99   85.85
   0   0  -5 4340.00   85.58
   0   0  -4 1362.15   27.89
   0   0  -4 1285.24   26.18
   0   0  -3  834.95   17.06
   0   0  -3  865.15   18.20
   0   0  -2 3707.55   70.13
   0   0  -2 3877.48   71.15
   0   0  -1 3082.98   53.78
   0   0  -1 2620.00   54.11
   0   0   1 2894.93   54.10
   0   0   2 3811.31   71.96
   0   0   3  845.90   17.91
   0   0   3  829.14   18.45
   0   0   4 1281.41   27.33
   0   0   4 1314.39   28.32
   0   0   5 4333.23   82.65
   0   0   5 4323.11   82.62
   0   0   5 4408.82   85.34
   0   0   5 4384.93   82.55
   0   0   5 4303.21   86.61
   0   0   5 4484.83   82.55
   0   0   6  200.69    6.12
   0   0   6  206.44    5.91
   0   0   6  206.78    6.17
   0   0   6  189.29    6.11
   0   0   6  198.51    6.01
   0   0   6  210.09    5.98
   0   0   7   98.82    4.02
   0   0   7   97.34    4.34
   0   0   7  104.24    4.35
   0   0   7   95.63    4.18
   0   0   7  103.43    4.13
   0   0   8  283.75    8.64
   0   0   8  284.33    8.13
   0   0   8  288.21    8.75
   0   0   8  298.50    8.58
   0   0   8  300.01    8.38
   0   0   9    5.93    1.54
   0   0   9    7.43    1.20
   0   0   9    5.63    1.59
   0   0   9    7.03    1.50
   0   0  10  165.21    5.39
   0   0  10  159.18    5.23
   0   0  11   14.24    1.16
   0   1 -11    0.58    0.61
   0   1 -11    0.55    0.75
   0   1 -10  414.92   10.08
   0   1 -10  384.96    9.34
   0   1  -9  126.02    4.59
   0   1  -8   13.39    1.54
   0   1  -7 1001.26   20.79
   0   1  -6   63.63    4.02
   0   1  -5  404.71   10.75
   0   1  -5  414.07   11.33
   0   1  -4  518.39   12.41
   0   1  -4  526.25   12.63
   0   1  -3 2050.67   40.99
   0   1  -3 2156.03   41.01
   0   1  -2 8362.00  152.77
   0   1  -2 8113.46  153.02
   0   1  -1 3070.48   64.07
   0   1  -1 3705.52   63.78
   0   1   0 8912.87  164.33
   0   1   1 1546.72   29.85
   0   1   2  718.66   16.46
   0   1   3 1010.67   23.05
   0   1   4  949.36   19.26
   0   1   4  957.38   19.55
   0   1   4  948.76   19.43
   0   1   4  929.27   23.12
   0   1   5  202.05    6.11
   0   1   5  212.61    6.12
   0   1   5  210.65    6.22
   0   1   5  211.14    5.72
   0   1   5  217.87    5.99
   0   1   6 1428.93   29.15
   0   1   6 1377.51   28.97
   0   1   6 1399.65   29.25
   0   1   6 1444.86   28.88
   0   1   6 1393.61   28.43
   0   1   7   61.33    3.58
   0   1   7   61.91    3.35
   0   1   7   65.31    3.75
   0   1   7   71.45    3.52
   0   1   7   65.65    3.16
   0   1   8  175.28    6.10
   0   1   8  181.36    6.46
   0   1   8  185.14    6.55
   0   1   8  186.90    6.15
   0   1   9    7.48    1.52
   0   1   9    7.01    1.24
   0   1   9    7.21    1.35
   0   1  10   70.64    2.93
   0   2 -12   59.43    2.06
   0   2 -12   60.62    2.26
   0   2 -11  252.71    6.81
   0   2 -11  238.61    6.32
   0   2 -10  859.17   18.77
   0   2  -9  102.39    4.06
   0   2  -9  101.35    4.24
   0   2  -8  157.09    5.28
   0   2  -7  224.87    6.17
   0   2  -6 1016.90   24.17
   0   2  -6 1046.28   24.37
   0   2  -6 1059.60   21.16
   0   2  -6 1026.85   20.80
   0   2  -5   70.62    3.81
   0   2  -5   68.73    3.93
   0   2  -4  341.48    9.23
   0   2  -4  329.71    9.53
   0   2  -4  342.97    9.08
   0   2  -3  840.72   19.61
   0   2  -3  949.56   18.90
   0   2  -2 2660.66   50.73
   0   2  -2 2626.85   49.68
   0   2  -2 2573.24   49.97
   0   2  -1 4056.95   72.22
   0   2  -1 3991.20   71.44
   0   2   0   44.78    2.27
   0   2   0   48.94    1.99
   0   2   1 1870.70   35.24
   0   2   1 2092.04   37.65
   0   2   2   51.43    2.88
   0   2   3  736.50   15.43
   0   2   3  734.07   19.33
   0   2   3  720.35   15.34
   0   2   3  734.98   15.46
   0   2   3  723.14   15.55
   0   2   4 1951.15   38.17
   0   2   4 1877.34   37.81
   0   2   4 2001.11   38.49
   0   2   4 1945.68   38.58
   0   2   4 1971.96   37.80
   0   2   5  707.49   16.05
   0   2   5  763.75   16.62
   0   2   5  736.69   16.72
   0   2   5  724.00   15.92
   0   2   6  876.77   19.34
   0   2   6  935.72   20.28
   0   2   6  913.22   20.43
   0   2   6  896.04   19.52
   0   2   7  404.31   10.63
   0   2   7  381.94    9.97
   0   2   8   82.25    3.78
   0   2   8   87.23    4.07
   0   2   9   55.96    2.46
   0   2   9   55.19    2.78
   0   3 -12  384.81    8.83
   0   3 -11  169.74    4.97
   0   3 -11  180.62    5.52
   0   3 -10  416.52   10.48
   0   3 -10  404.96   10.76
   0   3  -9  368.22    9.82
   0   3  -9  352.44    9.24
   0   3  -9  365.31    9.96
   0   3  -8  232.58    6.91
   0   3  -8  235.02    6.49
   0   3  -8  238.64    7.19
   0   3  -7  688.43   15.33
   0   3  -7  685.27   14.95
   0   3  -6 1095.67   22.32
   0   3  -6 1088.11   26.62
   0   3  -6 1137.38   22.85
   0   3  -6 1117.82   22.55
   0   3  -6 1086.49   25.35
   0   3  -5  530.25   11.77
   0   3  -5  542.25   15.06
   0   3  -5  546.32   11.99
   0   3  -5  547.83   11.88
   0   3  -5  565.04   14.68
   0   3  -5  549.50   13.77
   0   3  -4  557.97   14.11
   0   3  -4  577.03   13.50
   0   3  -3 2035.40   42.55
   0   3  -3 2142.46   41.75
   0   3  -2 3645.98   71.07
   0   3  -2 3684.55   70.75
   0   3  -2 3695.27   69.91
   0   3  -1 1624.99   31.70
   0   3  -1 1641.64   32.87
   0   3  -1 1635.76   33.14
   0   3   0  124.42    4.01
   0   3   0  124.01    3.34
   0   3   1  120.56    3.78
   0   3   1  130.78    5.08
   0   3   1  123.74    3.80
   0   3   2  917.55   19.24
   0   3   2  920.91   19.16
   0   3   2  918.50   19.11
   0   3   2  911.21   21.38
   0   3   2  929.60   19.19
   0   3   3   94.99    3.73
   0   3   3   91.76    3.56
   0   3   3   93.88    3.79
   0   3   4 1955.39   38.53
   0   3   4 1914.79   38.64
   0   3   4 1877.96   38.00
   0   3   4 1931.45   38.65
   0   3   5  748.88   16.86
   0   3   5  761.48   17.27
   0   3   6  554.31   13.42
   0   3   6  592.28   14.29
   0   3   7  191.41    6.31
   0   3   8   51.90    2.58
   0   3   9  114.55    3.34
   0   4 -12  110.08    3.49
   0   4 -12  110.83    3.59
   0   4 -11   36.41    2.43
   0   4 -11   37.10    2.27
   0   4 -10   10.95    1.74
   0   4 -10    8.69    1.67
   0   4  -9   99.96    4.53
   0   4  -9   91.74    4.17
   0   4  -8  125.00    4.88
   0   4  -8  126.71    4.63
   0   4  -7  408.65   10.17
   0   4  -7  430.15   10.74
   0   4  -7  432.58   10.48
   0   4  -6  105.17    3.92
   0   4  -6  108.43    4.10
   0   4  -6  110.10    4.02
   0   4  -5  116.77    4.03
   0   4  -5  107.61    3.69
   0   4  -5  111.16    3.94
   0   4  -5  115.67    5.57
   0   4  -4  160.40    4.83
   0   4  -4  156.74    4.72
   0   4  -4  159.74    6.49
   0   4  -4  163.29    4.81
   0   4  -4  158.40    6.98
   0   4  -4  157.68    4.71
   0   4  -4  166.74    6.29
   0   4  -3  349.41    8.36
   0   4  -3  346.48    8.38
   0   4  -3  348.76    8.19
   0   4  -3  336.92   10.68
   0   4  -3  350.04    8.22
   0   4  -3  353.97   10.42
   0   4  -3  346.64    9.56
   0   4  -2 3063.19   57.36
   0   4  -2 3114.18   58.25
   0   4  -2 2948.01   59.93
   0   4  -2 2936.92   57.00
   0   4  -2 3030.84   60.02
   0   4  -1 1030.55   20.80
   0   4  -1 1037.90   23.32
   0   4  -1 1047.67   21.20
   0   4  -1 1033.03   20.92
   0   4  -1 1009.76   20.66
   0   4  -1 1045.12   22.64
   0   4  -1 1022.89   20.84
   0   4   0  757.12   16.65
   0   4   0  783.13   16.67
   0   4   0  785.92   16.45
   0   4   0  799.76   19.05
   0   4   0  786.16   16.52
   0   4   1  312.66    7.95
   0   4   1  314.55    8.06
   0   4   1  298.94    9.93
   0   4   1  316.26    8.09
   0   4   2  278.60    7.89
   0   4   2  269.24    7.66
   0   4   2  284.28    7.74
   0   4   3  387.67   10.29
   0   4   3  370.90   10.03
   0   4   3  389.79   10.21
   0   4   4 1447.21   30.16
   0   4   4 1413.14   30.17
   0   4   5  324.67    9.09
   0   4   5  320.31    9.44
   0   4   5  322.51    9.36
   0   4   6   13.77    1.54
   0   4   6   14.76    1.94
   0   4   6   14.42    1.96
   0   4   7   82.60    3.37
   0   4   7   75.04    3.32
   0   5 -12   21.28    1.43
   0   5 -12   20.84    1.45
   0   5 -12   20.95    1.42
   0   5 -11   86.49    3.62
   0   5 -11   74.05    3.48
   0   5 -10  293.20    8.42
   0   5 -10  277.53    8.32
   0   5  -9  124.70    5.15
   0   5  -9  128.96    5.12
   0   5  -8  299.63    8.37
   0   5  -8  306.28    9.02
   0   5  -8  307.80    8.71
   0   5  -7 1259.69   26.01
   0   5  -7 1210.79   26.18
   0   5  -7 1218.89   26.03
   0   5  -6 1183.83   24.15
   0   5  -6 1109.44   23.49
   0   5  -6 1167.75   24.19
   0   5  -6 1086.47   23.81
   0   5  -5  282.60    7.86
   0   5  -5  274.01    7.64
   0   5  -5  283.88    7.71
   0   5  -5  279.98    7.62
   0   5  -4 1610.58   32.24
   0   5  -4 1579.50   32.24
   0   5  -4 1595.91   31.96
   0   5  -4 1585.94   31.93
   0   5  -3  372.54    9.17
   0   5  -3  354.77    9.22
   0   5  -3  346.91    8.39
   0   5  -3  346.75   11.66
   0   5  -3  365.67    8.83
   0   5  -2 1155.93   23.23
   0   5  -2 1117.71   23.58
   0   5  -2 1090.94   22.53
   0   5  -2 1112.63   22.91
   0   5  -1  633.23   14.07
   0   5  -1  639.07   14.70
   0   5  -1  637.40   14.06
   0   5  -1  636.68   14.39
   0   5   0   98.45    4.09
   0   5   0   98.46    4.09
   0   5   0   99.55    3.88
   0   5   0   99.64    3.96
   0   5   1 1185.75   25.31
   0   5   1 1168.27   25.74
   0   5   1 1205.08   25.46
   0   5   2  286.23    8.67
   0   5   2  284.87    8.37
   0   5   2  281.19    8.33
   0   5   3  350.77   10.09
   0   5   3  342.77    9.76
   0   5   3  345.96    9.83
   0   5   4    4.65    1.47
   0   5   4    4.59    1.59
   0   5   4    4.93    1.60
   0   5   5   89.99    3.81
   0   5   5   89.07    3.92
   0   5   6   54.71    2.28
   0   5   6   61.96    2.83
   0   5   6   61.77    2.77
   0   6 -12   63.67    2.39
   0   6 -12   54.58    2.03
   0   6 -11   95.26    3.43
   0   6 -11   99.36    3.78
   0   6 -10  151.75    5.63
   0   6 -10  162.37    5.45
   0   6  -9  933.37   20.62
   0   6  -9  903.27   19.98
   0   6  -9  890.26   19.73
   0   6  -8  240.95    7.48
   0   6  -8  244.47    7.56
   0   6  -8  226.30    7.04
   0   6  -7  122.37    5.02
   0   6  -7  119.51    4.47
   0   6  -7  118.95    4.79
   0   6  -7  119.29    5.08
   0   6  -7  115.26    4.29
   0   6  -6  720.67   17.41
   0   6  -6  756.11   17.00
   0   6  -5  304.13    8.74
   0   6  -5  298.46    7.90
   0   6  -4  288.87    8.53
   0   6  -4  301.60    8.76
   0   6  -3   57.08    3.15
   0   6  -3   54.99    2.72
   0   6  -2    6.35    1.32
   0   6  -2    6.82    1.33
   0   6  -2    7.07    1.52
   0   6  -2    6.05    1.10
   0   6  -1   69.71    3.17
   0   6  -1   67.83    3.66
   0   6  -1   66.10    3.22
   0   6  -1   68.83    3.52
   0   6   0   11.45    1.69
   0   6   0   11.43    1.81
   0   6   0    9.85    1.57
   0   6   1  262.10    7.85
   0   6   1  274.78    8.43
   0   6   1  273.30    8.13
   0   6   2  104.80    4.53
   0   6   3  380.38   10.39
   0   6   3  389.02   10.26
   0   6   4  133.62    4.71
   0   6   4  136.56    4.78
   0   6   5   35.66    1.77
   0   6   5   39.93    2.01
   0   7 -12  212.21    5.07
   0   7 -11   92.25    3.36
   0   7 -10  258.16    7.15
   0   7 -10  246.22    6.63
   0   7  -9   95.81    4.07
   0   7  -9   94.70    3.60
   0   7  -9   93.00    4.04
   0   7  -8  128.32    5.22
   0   7  -8  122.92    4.74
   0   7  -7  116.52    5.06
   0   7  -7  110.22    4.56
   0   7  -7  112.48    4.38
   0   7  -6  229.19    7.46
   0   7  -6  224.16    6.45
   0   7  -5  354.99   10.07
   0   7  -5  346.67   10.10
   0   7  -4  151.65    5.79
   0   7  -4  160.51    6.16
   0   7  -3   26.80    2.32
   0   7  -3   28.26    2.69
   0   7  -3   24.96    1.99
   0   7  -2  169.53    5.47
   0   7  -2  181.82    6.73
   0   7  -2  180.71    6.00
   0   7  -2  180.61    5.87
   0   7  -1   45.34    2.64
   0   7  -1   46.90    3.15
   0   7  -1   46.67    3.03
   0   7   0  175.06    6.03
   0   7   0  163.81    5.60
   0   7   0  173.47    6.05
   0   7   1    4.04    1.40
   0   7   1    4.07    1.19
   0   7   2  386.31    9.54
   0   7   3   46.16    2.23
   0   7   3   47.84    2.37
   0   8 -10  187.09    5.03
   0   8  -9   90.24    3.24
   0   8  -8    1.58    1.28
   0   8  -8    1.86    0.86
   0   8  -8    1.96    0.75
   0   8  -7  336.20    9.05
   0   8  -6  118.02    4.99
   0   8  -6  120.82    4.93
   0   8  -5   23.55    2.38
   0   8  -5   25.03    2.28
   0   8  -4   78.55    3.55
   0   8  -4   86.58    3.98
   0   8  -3   28.12    2.62
   0   8  -3   27.74    1.87
   0   8  -3   27.66    2.11
   0   8  -2  380.71    9.95
   0   8  -2  333.12    8.83
   0   8  -1  115.17    3.82
   0   8  -1  124.15    4.58
   0   8  -1  125.54    4.40
   0   8   0  256.55    6.58
   0   8   0  273.65    6.82
   0   8   0  269.16    7.14
   0   8   1   64.06    2.35
   0   8   1   78.59    2.92
   0   8   2   58.33    2.11
   0   9  -9   15.76    1.13
   0   9  -9   16.18    1.28
   0   9  -8   73.46    2.65
   0   9  -7   61.32    2.73
   0   9  -7   60.48    2.67
   0   9  -7   54.28    2.21
   0   9  -6   16.26    1.64
   0   9  -6   15.78    1.48
   0   9  -5   36.35    2.36
   0   9  -5   31.11    1.75
   0   9  -4  115.57    4.28
   0   9  -3   90.84    3.58
   0   9  -2   85.37    3.12
   1 -10   4   30.19    1.53
   1 -10   5   72.10    2.57
   1 -10   6   19.17    1.28
   1 -10   6   18.16    1.21
   1 -10   7   22.13    1.25
   1  -9   0  264.83    6.24
   1  -9   0  248.97    6.04
   1  -9   1   21.70    1.66
   1  -9   1   21.38    1.58
   1  -9   2  106.58    3.85
   1  -9   3   66.76    3.10
   1  -9   3   66.03    2.67
   1  -9   4   54.46    2.89
   1  -9   4   50.29    2.45
   1  -9   5   19.20    1.93
   1  -9   5   20.52    1.93
   1  -9   5   20.37    1.66
   1  -9   6    7.89    1.49
   1  -9   6    6.50    1.09
   1  -9   6    6.57    1.21
   1  -9   7  145.02    4.83
   1  -9   7  141.48    4.58
   1  -9   8  187.58    5.23
   1  -9   8  197.29    5.53
   1  -9   9   47.83    2.15
   1  -8  -2    9.30    1.03
   1  -8  -1   29.34    1.96
   1  -8  -1   27.40    1.72
   1  -8   0  126.15    4.58
   1  -8   0  121.26    4.23
   1  -8   0  112.35    3.83
   1  -8   1  162.73    5.53
   1  -8   1  152.47    5.19
   1  -8   1  150.95    4.92
   1  -8   2  284.83    8.26
   1  -8   2  279.72    7.95
   1  -8   2  271.78    7.63
   1  -8   3  135.65    5.24
   1  -8   3  128.63    4.95
   1  -8   3  127.78    4.78
   1  -8   4  130.25    5.17
   1  -8   4  122.52    4.71
   1  -8   5  136.55    5.30
   1  -8   5  123.92    5.15
   1  -8   5  131.45    5.00
   1  -8   6   24.80    2.45
   1  -8   6   22.29    2.03
   1  -8   6   24.66    2.21
   1  -8   7  288.14    8.24
   1  -8   7  263.28    7.39
   1  -8   7  278.80    8.05
   1  -8   8  129.71    4.86
   1  -8   8  118.97    4.37
   1  -8   8  129.96    4.81
   1  -8   9   74.82    3.40
   1  -8   9   79.28    3.48
   1  -8  10  149.72    4.69
   1  -8  11   32.46    1.52
   1  -8  11   36.54    1.72
   1  -7  -3   13.17    1.34
   1  -7  -2  130.95    4.29
   1  -7  -1  229.08    6.63
   1  -7   0  885.80   19.67
   1  -7   0  885.95   19.34
   1  -7   1  477.74   11.87
   1  -7   1  455.88   11.55
   1  -7   2  490.21   12.19
   1  -7   2  479.68   11.88
   1  -7   3   38.40    2.80
   1  -7   3   40.10    2.71
   1  -7   3   40.34    2.68
   1  -7   4   96.48    4.38
   1  -7   4   98.16    4.28
   1  -7   4  100.90    4.21
   1  -7   5   17.82    2.23
   1  -7   5   18.81    1.94
   1  -7   6 1819.61   36.41
   1  -7   6 1727.54   35.77
   1  -7   6 1752.03   36.04
   1  -7   7  750.20   17.69
   1  -7   7  739.74   16.89
   1  -7   7  776.38   17.54
   1  -7   8  749.73   17.06
   1  -7   8  743.06   16.75
   1  -7   8  789.09   17.84
   1  -7   9  196.84    6.51
   1  -7   9  203.88    6.65
   1  -7  10   29.13    2.17
   1  -7  10   31.85    2.32
   1  -7  11  130.60    4.14
   1  -7  11  131.93    4.33
   1  -6  -4   18.56    1.51
   1  -6  -1   95.28    3.98
   1  -6   0  104.87    4.13
   1  -6   1   24.44    1.97
   1  -6   2    4.78    1.18
   1  -6   2    3.68    1.13
   1  -6   3  577.81   13.52
   1  -6   3  565.54   13.28
   1  -6   3  576.36   13.27
   1  -6   4   13.27    1.68
   1  -6   4   15.20    1.74
   1  -6   4   15.53    1.69
   1  -6   4   14.81    1.59
   1  -6   5  584.63   14.24
   1  -6   5  626.16   14.14
   1  -6   6 2284.38   44.33
   1  -6   6 2163.19   43.22
   1  -6   6 2220.14   43.90
   1  -6   6 2237.05   44.18
   1  -6   7  230.36    7.29
   1  -6   7  211.39    6.35
   1  -6   7  216.10    6.61
   1  -6   7  230.43    7.11
   1  -6   8  223.81    7.18
   1  -6   8  217.22    6.49
   1  -6   8  213.82    6.49
   1  -6   8  220.50    7.20
   1  -6   9  185.38    6.55
   1  -6  10   52.89    3.06
   1  -6  10   53.13    3.14
   1  -6  11  100.85    3.81
   1  -6  11  102.35    4.00
   1  -6  12   53.42    2.02
   1  -5   1  286.15    7.27
   1  -5   2    8.20    1.10
   1  -5   2    5.68    1.62
   1  -5   2    6.09    1.03
   1  -5   3   42.67    3.60
   1  -5   3   45.48    2.35
   1  -5   3   43.13    2.24
   1  -5   3   49.40    2.36
   1  -5   4  861.10   18.32
   1  -5   4  884.49   18.24
   1  -5   4  883.74   18.18
   1  -5   5   30.73    2.15
   1  -5   5   33.01    2.12
   1  -5   6  391.58    9.99
   1  -5   6  383.23    9.38
   1  -5   6  399.65    9.74
   1  -5   6  389.58    9.91
   1  -5   7   49.69    2.90
   1  -5   7   47.97    2.62
   1  -5   7   48.19    2.66
   1  -5   7   46.51    2.60
   1  -5   7   43.25    2.78
   1  -5   7   46.22    2.42
   1  -5   8   25.26    1.91
   1  -5   8   27.71    2.45
   1  -5   8   24.40    2.04
   1  -5   8   28.56    2.52
   1  -5   8   24.76    1.95
   1  -5   9   29.30    2.21
   1  -5   9   32.05    2.73
   1  -5  10   24.96    1.81
   1  -5  10   24.65    2.32
   1  -5  10   26.31    2.54
   1  -5  10   24.07    2.00
   1  -5  11   33.06    2.25
   1  -5  11   32.59    2.02
   1  -5  11   29.29    2.33
   1  -5  12  258.89    6.21
   1  -5  12  249.90    5.91
   1  -4  -2   29.84    2.80
   1  -4  -1  691.82   17.59
   1  -4  -1  714.04   19.37
   1  -4   0  572.45   16.00
   1  -4   1 1463.76   31.39
   1  -4   1 1372.51   27.61
   1  -4   2 1092.29   24.25
   1  -4   3 1131.04   22.72
   1  -4   3 1166.91   25.63
   1  -4   4 1500.44   31.80
   1  -4   4 1388.88   28.44
   1  -4   4 1496.31   28.55
   1  -4   4 1423.51   28.38
   1  -4   5  371.91   11.97
   1  -4   5  400.12    9.42
   1  -4   5  384.39   12.11
   1  -4   5  396.15    8.98
   1  -4   5  387.64    8.94
   1  -4   5  391.40    9.22
   1  -4   5  388.50    9.30
   1  -4   6  425.19   10.63
   1  -4   6  443.45   10.31
   1  -4   6  453.19   10.36
   1  -4   6  450.45   10.44
   1  -4   6  456.42   10.74
   1  -4   6  435.99   10.32
   1  -4   6  426.42   10.09
   1  -4   7  132.30    4.83
   1  -4   7  127.77    4.54
   1  -4   7  131.82    4.89
   1  -4   7  128.96    4.35
   1  -4   7  127.34    4.60
   1  -4   7  125.99    4.47
   1  -4   8   56.25    3.18
   1  -4   8   58.67    3.48
   1  -4   8   54.84    3.07
   1  -4   9  347.68    9.64
   1  -4   9  332.14    9.24
   1  -4  10  197.54    6.10
   1  -4  10  214.97    7.00
   1  -4  10  219.03    6.74
   1  -4  11   85.70    3.10
   1  -4  11   88.07    3.78
   1  -4  11   89.64    3.63
   1  -4  12  221.01    5.49
   1  -4  12  205.69    5.38
   1  -3  -9   30.84    1.38
   1  -3  -3   54.62    3.26
   1  -3  -2  858.00   19.34
   1  -3  -2  859.93   18.78
   1  -3  -1  348.22    8.88
   1  -3   0 1486.20   31.77
   1  -3   1  120.79    3.23
   1  -3   2 1117.33   23.56
   1  -3   3  364.09    9.80
   1  -3   4 1052.99   22.95
   1  -3   4  983.01   22.81
   1  -3   5  192.53    5.37
   1  -3   5  197.83    5.17
   1  -3   5  191.64    5.23
   1  -3   5  189.79    5.34
   1  -3   5  189.59    5.12
   1  -3   5  187.71    5.08
   1  -3   5  197.32    5.26
   1  -3   6  393.59    9.75
   1  -3   6  405.57    9.60
   1  -3   6  406.90   12.47
   1  -3   6  402.50    9.35
   1  -3   6  409.15    9.88
   1  -3   6  399.31    9.56
   1  -3   6  402.61    9.70
   1  -3   7  175.24    5.19
   1  -3   7  182.98    5.94
   1  -3   7  174.11    5.65
   1  -3   7  181.73    5.78
   1  -3   8  100.06    4.45
   1  -3   8   97.89    4.31
   1  -3   8   98.57    4.38
   1  -3   9  192.57    6.20
   1  -3   9  192.69    6.77
   1  -3   9  197.27    6.63
   1  -3  10 1309.74   27.02
   1  -3  10 1286.94   26.82
   1  -3  11   22.51    1.57
   1  -3  11   25.04    2.01
   1  -3  11   26.34    2.02
   1  -3  12   55.12    2.11
   1  -3  12   68.71    2.45
   1  -2 -10   25.95    1.36
   1  -2  -4 1601.78   34.24
   1  -2  -4 1684.54   36.48
   1  -2  -4 1697.15   37.27
   1  -2  -3  239.59    8.50
   1  -2  -3  231.95    6.76
   1  -2  -3  217.31    5.40
   1  -2  -3  227.63    5.38
   1  -2  -2  761.15   16.20
   1  -2  -2  721.35   15.09
   1  -2  -2  644.14   12.83
   1  -2  -2  700.54   16.65
   1  -2  -2  682.56   12.85
   1  -2  -2  711.32   14.65
   1  -2  -1 1950.07   37.29
   1  -2  -1 2019.72   37.92
   1  -2   0 4527.20   84.67
   1  -2   1 2413.24   44.96
   1  -2   1 2266.22   45.41
   1  -2   2  397.83    9.32
   1  -2   2  383.96    9.34
   1  -2   3 1983.95   39.25
   1  -2   3 1969.49   39.66
   1  -2   4  238.25    7.67
   1  -2   5  225.76    6.00
   1  -2   5  217.16    8.07
   1  -2   5  233.05    5.91
   1  -2   5  235.26    8.30
   1  -2   5  227.30    6.04
   1  -2   5  227.56    5.91
   1  -2   5  219.91    5.90
   1  -2   6  428.90   13.54
   1  -2   6  440.12   10.47
   1  -2   6  425.32   10.25
   1  -2   7   54.88    3.10
   1  -2   7   55.68    3.01
   1  -2   7   55.36    3.01
   1  -2   8  105.32    4.41
   1  -2   8  118.15    4.87
   1  -2   8  119.53    4.99
   1  -2   8  116.70    4.85
   1  -2   9   90.84    4.00
   1  -2   9   82.23    3.60
   1  -2   9   94.44    4.51
   1  -2  10  469.88   11.59
   1  -2  10  504.35   12.49
   1  -2  11   24.24    1.86
   1  -2  11   23.28    1.53
   1  -1  -5  202.29    7.18
   1  -1  -5  201.34    6.63
   1  -1  -5  205.82    6.99
   1  -1  -4  119.69    5.37
   1  -1  -4  112.66    4.11
   1  -1  -3 1108.90   23.08
   1  -1  -3 1032.50   19.95
   1  -1  -3 1069.79   22.60
   1  -1  -3 1022.01   20.06
   1  -1  -3 1033.21   21.41
   1  -1  -3 1051.98   21.09
   1  -1  -2 4672.87   86.04
   1  -1  -2 4644.40   85.00
   1  -1  -2 4520.80   84.42
   1  -1  -2 4648.55   86.45
   1  -1  -2 4433.45   84.80
   1  -1  -1 2441.70   45.26
   1  -1  -1 2392.66   44.04
   1  -1  -1 2298.13   43.93
   1  -1   0 5611.11  103.35
   1  -1   0 5561.85  103.38
   1  -1   0 5619.37  103.06
   1  -1   1  272.94    6.01
   1  -1   2 2798.16   53.54
   1  -1   3 1169.93   24.30
   1  -1   3 1141.13   24.03
   1  -1   3 1176.29   24.80
   1  -1   4 1004.32   22.83
   1  -1   4 1040.30   23.39
   1  -1   5  624.16   16.64
   1  -1   5  609.01   16.29
   1  -1   5  630.36   13.77
   1  -1   5  635.07   17.23
   1  -1   5  641.48   13.63
   1  -1   6  129.39    4.42
   1  -1   6  128.19    4.62
   1  -1   6  128.12    4.46
   1  -1   7   63.83    3.20
   1  -1   7   63.98    3.41
   1  -1   7   61.20    3.46
   1  -1   7   59.74    3.32
   1  -1   7   61.91    3.23
   1  -1   8   83.57    3.96
   1  -1   8   92.15    4.06
   1  -1   8   94.26    4.47
   1  -1   8   95.89    4.27
   1  -1   8   87.02    4.22
   1  -1   9  281.10    8.31
   1  -1   9  291.50    8.72
   1  -1   9  296.68    8.16
   1  -1   9  296.14    8.95
   1  -1  10   23.39    1.91
   1  -1  10   27.21    2.36
   1  -1  10   25.41    2.15
   1  -1  11   12.23    1.04
   1   0 -11   53.33    2.01
   1   0 -10   99.53    3.58
   1   0  -6   76.88    4.42
   1   0  -6   78.09    4.38
   1   0  -5  227.28    8.00
   1   0  -5  221.92    6.46
   1   0  -5  232.35    7.46
   1   0  -5  216.09    7.25
   1   0  -5  204.14    6.79
   1   0  -4  524.35   13.11
   1   0  -4  537.38   12.08
   1   0  -4  516.70   12.54
   1   0  -4  516.36   12.12
   1   0  -3  772.37   16.75
   1   0  -3  757.39   16.33
   1   0  -3  781.67   16.43
   1   0  -3  767.26   15.84
   1   0  -2   33.59    1.75
   1   0  -2   32.27    1.37
   1   0  -2   34.16    1.60
   1   0  -1 8522.12  148.92
   1   0  -1 7398.33  149.36
   1   0   0 5569.51  101.40
   1   0   0 5473.76  101.42
   1   0   0 5387.49  101.63
   1   0   1 2327.00   44.29
   1   0   2 2935.53   51.89
   1   0   2 2458.72   52.51
   1   0   3 3198.59   61.92
   1   0   3 3142.07   60.27
   1   0   3 3227.54   62.83
   1   0   4  314.43    7.52
   1   0   4  334.80    9.90
   1   0   4  304.52    7.61
   1   0   4  317.42   10.46
   1   0   4  327.30    7.64
   1   0   5   79.44    3.17
   1   0   5   69.14    4.47
   1   0   5   73.05    5.08
   1   0   5   74.05    3.14
   1   0   5   75.00    3.02
   1   0   6  569.01   13.36
   1   0   6  581.83   13.74
   1   0   6  553.87   13.38
   1   0   6  589.83   13.23
   1   0   7  410.84   10.80
   1   0   7  422.30   11.00
   1   0   7  424.13   11.32
   1   0   7  406.30   10.54
   1   0   7  426.42   10.92
   1   0   8  179.25    6.29
   1   0   8  180.31    6.22
   1   0   8  183.79    6.68
   1   0   8  178.17    6.28
   1   0   9  518.90   12.43
   1   0   9  515.29   13.22
   1   0   9  521.97   12.67
   1   0   9  514.29   12.59
   1   0  10   19.03    1.35
   1   0  10   22.58    1.67
   1   1 -11   19.59    1.49
   1   1 -10   91.05    3.59
   1   1  -8   72.88    3.19
   1   1  -7  711.49   15.30
   1   1  -6  560.71   14.27
   1   1  -6  546.01   14.42
   1   1  -6  559.96   15.28
   1   1  -5  160.94    5.66
   1   1  -5  159.82    6.34
   1   1  -5  169.17    6.17
   1   1  -5  164.46    6.27
   1   1  -4 1185.13   24.44
   1   1  -4 1206.78   25.30
   1   1  -4 1177.25   25.17
   1   1  -4 1182.36   25.34
   1   1  -3   80.88    3.39
   1   1  -3   77.17    3.33
   1   1  -2  796.89   16.66
   1   1  -1  785.12   15.71
   1   1  -1  744.46   14.82
   1   1  -1  757.38   15.57
   1   1   0   57.05    2.48
   1   1   1 2094.36   40.07
   1   1   1 2045.46   40.47
   1   1   1 2070.89   41.22
   1   1   2  139.04    3.61
   1   1   2  142.89    5.13
   1   1   3  378.82    8.64
   1   1   4  118.47    3.99
   1   1   4  104.82    3.98
   1   1   4  119.05    6.51
   1   1   4  119.72    3.91
   1   1   4  121.47    3.64
   1   1   5   49.28    2.75
   1   1   5   49.67    2.53
   1   1   5   50.79    2.87
   1   1   5   48.57    2.75
   1   1   5   50.59    2.58
   1   1   5   47.71    2.63
   1   1   5   50.79    2.40
   1   1   6  247.30    7.41
   1   1   6  231.39    6.74
   1   1   6  227.65    6.80
   1   1   6  251.07    7.63
   1   1   6  254.55    7.77
   1   1   6  241.70    7.20
   1   1   7  118.14    5.00
   1   1   7  125.42    5.15
   1   1   7  124.82    5.44
   1   1   7  125.98    4.97
   1   1   8  288.86    8.16
   1   1   8  282.38    8.32
   1   1   8  279.07    8.31
   1   1   9   50.66    2.62
   1   1   9   51.61    2.75
   1   1  10   97.83    3.02
   1   2 -12   44.91    1.93
   1   2 -12   46.22    2.07
   1   2 -11   18.31    1.58
   1   2 -10  450.78   11.00
   1   2 -10  482.62   11.68
   1   2  -9  252.45    7.29
   1   2  -9  236.61    6.80
   1   2  -8   37.37    2.34
   1   2  -7  259.74    7.05
   1   2  -7  249.61    6.68
   1   2  -6  369.23   11.60
   1   2  -6  359.85    8.36
   1   2  -6  366.00    8.61
   1   2  -6  345.99   11.38
   1   2  -6  362.13   11.49
   1   2  -5  117.35    5.48
   1   2  -5  118.28    5.33
   1   2  -5  114.83    5.20
   1   2  -4 1225.60   26.57
   1   2  -4 1193.01   25.84
   1   2  -3 2221.79   43.54
   1   2  -3 2171.03   43.35
   1   2  -2  298.59    7.79
   1   2  -1  123.85    4.08
   1   2   0  440.44   11.21
   1   2   0  436.54   10.14
   1   2   1  978.94   19.40
   1   2   1 1000.19   22.49
   1   2   1  970.75   20.35
   1   2   1  964.53   21.50
   1   2   2  260.29    6.60
   1   2   2  249.22    9.22
   1   2   2  258.77    6.68
   1   2   2  252.84    6.52
   1   2   2  276.57    8.60
   1   2   2  261.03    6.52
   1   2   3  431.16    9.95
   1   2   3  417.26    9.95
   1   2   3  408.38   13.71
   1   2   3  429.06    9.54
   1   2   3  416.32    9.89
   1   2   4  284.90    7.92
   1   2   4  292.64    7.61
   1   2   4  289.58    7.85
   1   2   4  297.82    7.98
   1   2   5  140.25    5.08
   1   2   5  140.68    5.37
   1   2   5  146.34    5.57
   1   2   5  140.62    4.90
   1   2   5  138.37    4.99
   1   2   5  141.57    5.29
   1   2   6   19.51    1.89
   1   2   6   18.33    2.22
   1   2   6   16.45    1.72
   1   2   6   18.55    1.87
   1   2   6   18.63    2.16
   1   2   7   91.96    4.34
   1   2   7   88.22    4.26
   1   2   8   51.18    2.85
   1   2   8   53.53    2.89
   1   2   9    9.54    1.02
   1   2   9    8.96    1.09
   1   3 -12  141.15    4.13
   1   3 -12  144.88    4.32
   1   3 -11  328.07    8.31
   1   3 -11  341.57    8.83
   1   3 -10  164.26    5.57
   1   3 -10  145.54    5.00
   1   3  -9  251.49    7.52
   1   3  -9  252.69    7.04
   1   3  -8   42.31    2.72
   1   3  -8   41.04    2.45
   1   3  -7  298.32    7.65
   1   3  -7  313.75    8.36
   1   3  -7  303.41    8.06
   1   3  -6  500.52   11.53
   1   3  -6  532.48   12.01
   1   3  -6  513.49   11.66
   1   3  -6  511.86   11.72
   1   3  -6  498.17   14.46
   1   3  -5  218.02    5.94
   1   3  -5  233.00    8.83
   1   3  -5  226.09    6.01
   1   3  -5  223.45    6.00
   1   3  -5  227.25    8.24
   1   3  -5  222.60    7.84
   1   3  -4  379.54   10.69
   1   3  -4  370.27    8.61
   1   3  -4  373.81    8.58
   1   3  -4  384.76   10.81
   1   3  -3 1471.39   31.45
   1   3  -3 1438.94   30.48
   1   3  -2 4900.75   90.85
   1   3  -2 4605.51   91.56
   1   3  -1  796.85   18.49
   1   3   0  300.18    7.35
   1   3   0  303.33    7.97
   1   3   0  295.84    8.02
   1   3   0  309.90    9.36
   1   3   0  294.89    7.22
   1   3   1 2815.22   53.37
   1   3   1 2740.25   53.46
   1   3   1 2846.57   53.85
   1   3   1 2794.66   56.55
   1   3   2  475.03   11.39
   1   3   2  476.81   11.25
   1   3   2  474.21   11.37
   1   3   3  192.23    6.15
   1   3   3  184.43    6.02
   1   3   3  186.19    6.05
   1   3   4 1607.94   33.06
   1   3   4 1533.19   33.06
   1   3   5  134.31    5.24
   1   3   5  121.31    4.83
   1   3   5  132.00    5.33
   1   3   6  231.88    7.16
   1   3   6  256.26    7.85
   1   3   6  239.53    7.65
   1   3   7   81.62    3.76
   1   3   7   85.38    3.82
   1   3   8  224.91    5.93
   1   3   8  223.58    5.93
   1   4 -12   65.14    2.65
   1   4 -12   55.56    2.24
   1   4 -11   70.72    3.29
   1   4 -11   74.81    3.43
   1   4 -10  109.88    4.63
   1   4 -10  103.37    4.40
   1   4  -9 1331.03   27.63
   1   4  -9 1259.82   27.01
   1   4  -8  453.67   10.92
   1   4  -8  485.14   11.89
   1   4  -7  330.85    8.90
   1   4  -7  354.28    9.33
   1   4  -7  338.83    9.09
   1   4  -6   19.54    1.77
   1   4  -6   18.41    1.50
   1   4  -6   19.18    1.79
   1   4  -6   19.58    1.82
   1   4  -5  868.69   18.52
   1   4  -5  864.28   18.27
   1   4  -5  866.98   18.48
   1   4  -5  870.77   18.44
   1   4  -5  841.26   18.27
   1   4  -4   13.35    1.42
   1   4  -4   12.95    1.38
   1   4  -4   14.04    2.21
   1   4  -4   11.74    1.41
   1   4  -4   12.09    1.33
   1   4  -4   16.04    2.10
   1   4  -3 1006.30   20.89
   1   4  -3 1001.45   22.84
   1   4  -3 1018.80   21.03
   1   4  -3 1023.80   20.56
   1   4  -3 1020.63   24.29
   1   4  -3 1003.18   20.75
   1   4  -3 1000.85   20.57
   1   4  -3  977.41   23.79
   1   4  -2  408.92    9.68
   1   4  -2  415.13    9.99
   1   4  -2  404.89    9.40
   1   4  -2  415.98   12.06
   1   4  -2  412.43    9.32
   1   4  -2  412.71   12.10
   1   4  -1  618.39   13.41
   1   4  -1  628.47   13.91
   1   4  -1  615.88   13.62
   1   4  -1  610.32   13.14
   1   4  -1  609.81   15.31
   1   4   0  224.27    6.35
   1   4   0  212.24    6.32
   1   4   0  213.29    5.96
   1   4   0  214.11    6.26
   1   4   1  502.42   11.76
   1   4   1  497.04   12.06
   1   4   1  492.97   11.75
   1   4   1  492.22   12.18
   1   4   1  500.17   12.00
   1   4   2  248.25    7.58
   1   4   2  245.82    7.35
   1   4   2  250.51    7.58
   1   4   2  234.87    7.27
   1   4   3   57.67    3.48
   1   4   3   59.38    3.36
   1   4   4 1099.18   23.69
   1   4   4 1033.39   23.47
   1   4   5  111.10    4.68
   1   4   6    3.03    1.18
   1   4   6    4.10    0.99
   1   4   7  142.54    4.30
   1   5 -12   23.49    1.51
   1   5 -12   22.89    1.56
   1   5 -12   23.22    1.49
   1   5 -11  307.98    8.49
   1   5 -11  334.53    8.60
   1   5 -10  176.35    5.99
   1   5 -10  169.13    6.09
   1   5 -10  174.38    6.10
   1   5  -9  651.13   15.18
   1   5  -9  686.51   16.37
   1   5  -9  699.47   16.03
   1   5  -8  320.20    8.96
   1   5  -8  300.52    9.23
   1   5  -8  329.98    9.23
   1   5  -7  130.67    5.07
   1   5  -7  120.40    4.38
   1   5  -7  119.78    5.03
   1   5  -7  120.48    4.91
   1   5  -6  242.62    7.51
   1   5  -6  240.36    7.13
   1   5  -6  250.22    7.49
   1   5  -6  243.77    7.32
   1   5  -5  749.55   16.96
   1   5  -5  755.42   16.78
   1   5  -5  755.18   16.88
   1   5  -4   62.44    3.27
   1   5  -4   63.27    3.25
   1   5  -4   64.17    3.04
   1   5  -4   65.62    3.04
   1   5  -3  536.02   12.51
   1   5  -3  494.65   11.62
   1   5  -3  529.10   11.88
   1   5  -3  526.28   11.98
   1   5  -2  430.34   10.58
   1   5  -2  430.50   10.99
   1   5  -2  426.35   10.43
   1   5  -1  910.67   19.10
   1   5  -1  910.33   19.89
   1   5  -1  864.63   18.76
   1   5  -1  889.42   19.47
   1   5   0  105.02    4.45
   1   5   0  109.34    4.49
   1   5   0  106.87    4.14
   1   5   1  194.75    6.68
   1   5   1  193.09    6.23
   1   5   1  201.15    6.54
   1   5   2  148.46    5.54
   1   5   2  142.96    5.58
   1   5   3  234.71    8.10
   1   5   3  253.62    7.86
   1   5   3  261.10    8.04
   1   5   4  310.77    8.87
   1   5   4  321.07    8.83
   1   5   4  302.06    8.72
   1   5   5   46.34    2.49
   1   5   5   45.90    2.55
   1   5   6   16.15    1.25
   1   6 -12  115.04    3.50
   1   6 -12  118.02    3.45
   1   6 -11  872.93   18.37
   1   6 -10   85.47    3.86
   1   6 -10   82.65    3.56
   1   6  -9   65.34    3.36
   1   6  -9   66.63    3.64
   1   6  -9   65.64    3.24
   1   6  -8   55.20    3.37
   1   6  -8   60.94    3.56
   1   6  -8   48.52    3.20
   1   6  -8   51.39    2.79
   1   6  -7  362.08   10.05
   1   6  -7  340.80    9.39
   1   6  -7  349.88    9.94
   1   6  -7  339.97    9.79
   1   6  -7  337.14    8.70
   1   6  -6 2185.87   42.81
   1   6  -6 2191.16   42.67
   1   6  -6 2151.89   42.64
   1   6  -5  219.28    7.19
   1   6  -5  218.54    7.20
   1   6  -5  211.70    6.69
   1   6  -4  197.30    6.80
   1   6  -4  213.82    7.17
   1   6  -3  319.14    8.89
   1   6  -3  307.66    8.08
   1   6  -2    8.56    1.48
   1   6  -2    7.54    1.68
   1   6  -2    6.76    1.30
   1   6  -1    8.68    1.28
   1   6  -1    9.57    1.76
   1   6  -1    8.96    1.68
   1   6   0  220.96    7.22
   1   6   0  223.01    6.75
   1   6   0  221.46    7.41
   1   6   1  101.09    4.11
   1   6   1   94.67    4.65
   1   6   1  100.51    4.23
   1   6   2   79.05    3.67
   1   6   3    9.02    1.50
   1   6   3    9.28    1.40
   1   6   4   15.65    1.43
   1   6   4   15.15    1.39
   1   7 -11  153.55    4.25
   1   7 -11  121.22    3.48
   1   7 -10   35.29    2.16
   1   7 -10   31.88    1.70
   1   7  -9  144.47    5.15
   1   7  -9  143.78    4.98
   1   7  -8  254.05    7.24
   1   7  -8  268.01    7.57
   1   7  -7  162.78    6.15
   1   7  -7  159.76    5.72
   1   7  -7  159.21    5.24
   1   7  -6   89.99    4.46
   1   7  -6   88.46    4.42
   1   7  -5  715.07   16.94
   1   7  -5  704.53   17.20
   1   7  -4  116.82    4.89
   1   7  -3  363.61    9.71
   1   7  -3  373.62   10.58
   1   7  -3  338.61    8.95
   1   7  -2    7.50    1.26
   1   7  -2    8.45    1.84
   1   7  -2    8.11    1.43
   1   7  -1  282.34    8.44
   1   7  -1  284.34    8.21
   1   7   0   68.27    2.95
   1   7   0   72.08    3.35
   1   7   0   75.07    3.62
   1   7   1  211.12    5.94
   1   7   1  239.80    6.76
   1   7   2  236.09    6.01
   1   7   2  249.86    6.64
   1   7   3   42.18    1.81
   1   8 -10    8.02    0.76
   1   8  -9  136.67    4.51
   1   8  -8  123.28    4.10
   1   8  -8  132.79    4.77
   1   8  -7  138.75    5.15
   1   8  -7  142.99    4.99
   1   8  -6  115.75    4.68
   1   8  -6  123.38    4.82
   1   8  -5  286.14    8.19
   1   8  -5  289.48    8.52
   1   8  -4   12.81    1.60
   1   8  -3  277.26    8.10
   1   8  -2   86.91    3.68
   1   8  -2   78.34    3.01
   1   8  -1  130.76    4.23
   1   8  -1  128.67    4.06
   1   8   0   66.48    2.53
   1   9  -8   49.60    1.96
   1   9  -7   68.29    2.56
   1   9  -7   62.13    2.24
   1   9  -6   42.41    2.20
   1   9  -5    7.21    1.15
   1   9  -4   42.47    2.16
   1   9  -3   73.76    2.67
   2 -10   3   29.05    1.56
   2 -10   3   29.53    1.60
   2 -10   4   34.42    1.82
   2 -10   4   33.09    1.75
   2 -10   5  134.72    4.04
   2 -10   5  127.67    3.80
   2 -10   6  193.12    5.01
   2 -10   6  225.87    5.58
   2 -10   7  165.16    4.43
   2 -10   8   26.60    1.39
   2  -9   0   36.89    1.93
   2  -9   0   34.98    1.75
   2  -9   1   29.26    2.00
   2  -9   1   28.43    1.83
   2  -9   2   95.34    3.77
   2  -9   2   85.14    3.50
   2  -9   3   18.86    1.95
   2  -9   3   18.11    1.76
   2  -9   4  190.52    6.08
   2  -9   4  182.70    5.88
   2  -9   5  151.96    5.36
   2  -9   6   47.96    2.68
   2  -9   6   44.17    2.25
   2  -9   7   89.00    3.61
   2  -9   7   82.47    3.30
   2  -9   7   79.76    3.10
   2  -9   8   46.17    2.50
   2  -9   8   42.44    2.28
   2  -9   8   42.14    2.09
   2  -9   9   62.87    2.27
   2  -9   9   66.34    2.38
   2  -9  10   25.86    1.41
   2  -8  -2   55.78    2.37
   2  -8  -1   39.13    2.28
   2  -8   0   48.04    2.72
   2  -8   0   43.78    2.29
   2  -8   1    1.65    1.27
   2  -8   1    1.22    0.95
   2  -8   2   86.51    4.16
   2  -8   2   89.14    4.06
   2  -8   2   89.05    3.70
   2  -8   3  553.58   13.73
   2  -8   3  535.10   12.70
   2  -8   4  424.01   11.10
   2  -8   4  429.27   11.05
   2  -8   5  175.53    6.35
   2  -8   5  188.69    6.45
   2  -8   5  185.49    5.86
   2  -8   6  233.64    6.96
   2  -8   6  235.80    7.34
   2  -8   7   93.19    4.20
   2  -8   7   93.24    4.03
   2  -8   7   91.99    3.93
   2  -8   8  208.80    6.65
   2  -8   8  200.28    6.31
   2  -8   8  210.92    6.35
   2  -8   9  208.31    6.22
   2  -8   9  194.01    5.56
   2  -8   9  196.39    5.88
   2  -8  10   95.44    3.55
   2  -8  10   91.11    3.31
   2  -8  11  214.56    5.34
   2  -7  -2  104.00    3.82
   2  -7  -1   62.71    3.02
   2  -7   0  231.41    6.79
   2  -7   1  251.16    7.15
   2  -7   1  247.08    6.85
   2  -7   2  473.28   11.68
   2  -7   2  457.44   11.20
   2  -7   2  447.83   10.89
   2  -7   3  523.12   12.71
   2  -7   3  521.57   12.62
   2  -7   3  503.85   11.87
   2  -7   4  357.91    9.62
   2  -7   4  350.76    9.49
   2  -7   5  107.56    4.71
   2  -7   5  114.38    4.69
   2  -7   5  107.19    4.27
   2  -7   6  253.40    7.79
   2  -7   6  256.35    7.54
   2  -7   7 1015.11   21.69
   2  -7   7  971.70   21.47
   2  -7   7  951.74   21.34
   2  -7   8   63.04    3.61
   2  -7   8   68.88    3.53
   2  -7   8   60.90    3.28
   2  -7   9  202.16    6.04
   2  -7   9  210.32    6.60
   2  -7  10  250.59    7.16
   2  -7  10  246.48    7.03
   2  -7  11   38.75    2.09
   2  -7  11   39.79    2.07
   2  -6   0  101.80    3.68
   2  -6   1   72.45    3.09
   2  -6   1   67.12    2.87
   2  -6   2  551.34   12.63
   2  -6   2  521.14   12.13
   2  -6   2  530.00   12.02
   2  -6   3 1750.35   33.88
   2  -6   3 1644.81   33.64
   2  -6   3 1680.93   33.25
   2  -6   3 1627.78   33.05
   2  -6   4  119.41    4.52
   2  -6   4  118.93    4.39
   2  -6   4  114.22    4.11
   2  -6   5  324.95    8.84
   2  -6   5  328.73    8.74
   2  -6   5  317.80    8.45
   2  -6   6  223.30    7.00
   2  -6   6  227.49    6.84
   2  -6   7  272.30    8.02
   2  -6   7  278.51    8.07
   2  -6   7  268.81    7.99
   2  -6   8  995.52   21.68
   2  -6   8  978.54   21.41
   2  -6   8  991.42   20.99
   2  -6   9   24.24    1.91
   2  -6   9   26.67    2.38
   2  -6  10  189.27    6.29
   2  -6  10  190.85    6.21
   2  -6  11   14.54    1.56
   2  -6  11   14.89    1.55
   2  -6  12   83.67    2.67
   2  -5   0  282.10    9.35
   2  -5   1  463.09   13.04
   2  -5   2   84.19    3.18
   2  -5   2   85.46    3.01
   2  -5   2   82.07    2.90
   2  -5   2   90.62    4.81
   2  -5   3  202.04    5.78
   2  -5   3  206.13    5.70
   2  -5   3  200.99    5.45
   2  -5   3  203.15    5.43
   2  -5   3  206.97    7.97
   2  -5   4  955.12   19.85
   2  -5   4  957.82   19.73
   2  -5   4  918.35   19.36
   2  -5   5  431.80   10.61
   2  -5   5  441.11   10.71
   2  -5   5  439.57   10.41
   2  -5   6  539.37   12.78
   2  -5   6  543.93   12.95
   2  -5   6  552.36   12.81
   2  -5   7   44.57    2.69
   2  -5   7   44.93    2.79
   2  -5   7   46.36    2.81
   2  -5   7   41.97    2.29
   2  -5   8  952.66   20.64
   2  -5   8  921.53   20.20
   2  -5   9  158.79    6.03
   2  -5   9  161.97    5.92
   2  -5   9  151.09    5.20
   2  -5  10  155.86    5.13
   2  -5  10  163.13    5.82
   2  -5  10  162.09    5.81
   2  -5  11   19.20    1.83
   2  -5  11   17.55    1.44
   2  -5  12    1.06    0.62
   2  -4  -1  467.65   12.25
   2  -4   0 2268.58   48.23
   2  -4   1  258.27    7.80
   2  -4   1  250.40    8.03
   2  -4   2 1910.59   39.94
   2  -4   2 1903.44   39.17
   2  -4   3 3738.70   73.33
   2  -4   3 3710.93   70.66
   2  -4   3 3715.68   70.53
   2  -4   3 3796.25   74.69
   2  -4   3 3942.77   73.83
   2  -4   4 1546.51   33.09
   2  -4   4 1548.96   30.24
   2  -4   4 1511.24   29.93
   2  -4   5  426.57   10.26
   2  -4   5  438.57   10.32
   2  -4   5  432.77   10.10
   2  -4   6  473.48   11.15
   2  -4   6  464.93   11.23
   2  -4   6  456.66   11.15
   2  -4   6  463.43   10.67
   2  -4   7  622.49   14.13
   2  -4   7  626.06   14.49
   2  -4   7  602.62   13.61
   2  -4   7  605.20   13.92
   2  -4   8  441.64   11.51
   2  -4   8  427.73   11.37
   2  -4   8  411.74   10.74
   2  -4   9   69.87    4.00
   2  -4   9   69.93    3.90
   2  -4   9   68.70    3.55
   2  -4  10  220.73    7.08
   2  -4  10  208.76    6.55
   2  -4  11    6.93    1.36
   2  -4  11    6.26    1.17
   2  -4  12   69.11    2.40
   2  -3  -3  691.77   18.16
   2  -3  -3  732.16   19.53
   2  -3  -2 1320.01   28.15
   2  -3  -2 1258.64   26.30
   2  -3  -2 1331.06   29.56
   2  -3  -2 1272.98   25.34
   2  -3  -1 3633.72   70.11
   2  -3  -1 3474.97   67.02
   2  -3   0  361.82    8.91
   2  -3   0  366.64    9.40
   2  -3   1  583.17   14.05
   2  -3   1  589.31   13.34
   2  -3   2 5492.58  102.56
   2  -3   2 5264.15  101.57
   2  -3   3 1728.19   35.17
   2  -3   4 3951.57   74.45
   2  -3   4 3933.57   74.54
   2  -3   4 4062.22   78.29
   2  -3   4 3949.93   74.47
   2  -3   5 1648.58   32.51
   2  -3   5 1619.25   31.99
   2  -3   5 1663.49   35.79
   2  -3   5 1648.28   32.36
   2  -3   5 1674.10   32.56
   2  -3   5 1634.60   32.40
   2  -3   5 1634.05   32.12
   2  -3   6   17.65    1.70
   2  -3   6   15.81    1.38
   2  -3   6   16.55    1.58
   2  -3   6   17.12    1.56
   2  -3   7  342.84    8.59
   2  -3   7  354.23    9.44
   2  -3   7  344.46    8.54
   2  -3   7  347.79    9.18
   2  -3   8  221.95    6.49
   2  -3   8  234.09    7.59
   2  -3   8  228.45    7.46
   2  -3   8  231.69    7.21
   2  -3   9  213.34    7.11
   2  -3   9  209.34    6.80
   2  -3  10  129.37    5.15
   2  -3  10  130.68    4.90
   2  -3  11  208.62    6.12
   2  -3  11  214.95    6.00
   2  -2  -4  219.29    8.43
   2  -2  -4  219.72    8.01
   2  -2  -3 5942.21  111.55
   2  -2  -3 5868.16  111.43
   2  -2  -3 6131.24  114.42
   2  -2  -3 6293.99  115.66
   2  -2  -3 6099.22  111.89
   2  -2  -2 4914.65   91.84
   2  -2  -2 4870.37   93.01
   2  -2  -2 4804.97   89.64
   2  -2  -1 2732.98   51.51
   2  -2  -1 2757.49   51.47
   2  -2   0 1030.76   20.71
   2  -2   0  970.97   18.77
   2  -2   0  991.10   19.52
   2  -2   1  746.78   16.88
   2  -2   1  786.96   16.18
   2  -2   2 4474.95   83.83
   2  -2   2 4420.36   85.18
   2  -2   3 2459.92   48.06
   2  -2   3 2418.57   48.85
   2  -2   4   85.69    3.00
   2  -2   4   83.71    4.16
   2  -2   4   86.12    4.37
   2  -2   4   81.36    2.93
   2  -2   5  669.90   14.41
   2  -2   5  657.55   13.97
   2  -2   5  678.00   17.48
   2  -2   5  667.38   14.15
   2  -2   5  676.54   18.51
   2  -2   5  669.83   14.58
   2  -2   5  671.50   14.19
   2  -2   5  674.42   14.49
   2  -2   6  446.05   10.43
   2  -2   6  467.12   11.17
   2  -2   6  449.99   10.91
   2  -2   7  113.99    4.17
   2  -2   7  119.10    4.88
   2  -2   7  118.91    4.64
   2  -2   8  104.10    4.13
   2  -2   8  106.51    4.85
   2  -2   8  109.58    4.77
   2  -2   9  167.95    5.42
   2  -2   9  167.79    5.76
   2  -2   9  157.16    6.02
   2  -2  10  226.57    6.24
   2  -2  10  218.39    6.02
   2  -2  11  231.51    6.20
   2  -1  -5  348.47   10.81
   2  -1  -5  347.47   10.61
   2  -1  -5  349.46    9.59
   2  -1  -4  458.32   10.24
   2  -1  -4  460.83   12.01
   2  -1  -4  438.77   10.32
   2  -1  -4  452.35   10.86
   2  -1  -3 1181.64   22.82
   2  -1  -3 1161.22   24.44
   2  -1  -3 1200.79   23.50
   2  -1  -3 1191.81   23.71
   2  -1  -3 1102.11   22.15
   2  -1  -2 3735.35   68.97
   2  -1  -2 3714.01   69.23
   2  -1  -2 3473.70   69.06
   2  -1  -2 3653.13   69.73
   2  -1  -2 3645.88   67.69
   2  -1  -2 3728.88   69.55
   2  -1  -1 1443.52   27.08
   2  -1  -1 1426.68   27.84
   2  -1  -1 1387.97   28.24
   2  -1   0 2920.13   55.94
   2  -1   1 2237.16   41.84
   2  -1   1 2187.29   43.13
   2  -1   2   56.03    2.90
   2  -1   2   56.55    2.53
   2  -1   3 1385.59   28.40
   2  -1   3 1385.90   28.48
   2  -1   3 1313.46   28.79
   2  -1   3 1357.03   29.63
   2  -1   4 1246.27   24.84
   2  -1   4 1292.92   29.29
   2  -1   4 1287.16   25.11
   2  -1   4 1249.97   26.99
   2  -1   4 1230.26   24.76
   2  -1   4 1253.09   25.00
   2  -1   5  212.05    5.86
   2  -1   5  230.44    6.44
   2  -1   5  229.91    6.45
   2  -1   6  352.97    8.88
   2  -1   8  349.66    9.36
   2  -1   8  347.16   10.27
   2  -1   8  358.19    9.96
   2  -1   8  355.80    9.92
   2  -1   9  192.18    6.45
   2  -1   9  187.59    6.28
   2  -1   9  206.55    6.85
   2  -1   9  186.68    5.87
   2  -1  10   92.42    3.29
   2  -1  10   89.08    3.12
   2   0 -11   82.82    2.81
   2   0  -6 1085.14   25.21
   2   0  -5  273.74    8.87
   2   0  -5  271.14    8.23
   2   0  -5  270.77    9.31
   2   0  -5  280.24    8.73
   2   0  -4   51.08    2.96
   2   0  -4   55.20    3.37
   2   0  -4   54.10    3.03
   2   0  -3  977.25   20.46
   2   0  -3  969.42   19.69
   2   0  -3  992.66   21.37
   2   0  -3 1030.63   21.14
   2   0  -2 8346.57  154.41
   2   0  -2 8219.03  152.82
   2   0  -2 8359.15  153.24
   2   0  -2 8230.83  154.37
   2   0  -1 7760.94  143.66
   2   0   0  219.41    5.89
   2   0   0  198.51    5.49
   2   0   1  769.08   17.20
   2   0   1  811.25   17.40
   2   0   1  760.70   17.65
   2   0   2 2619.00   50.76
   2   0   2 2614.53   52.38
   2   0   2 2600.58   51.52
   2   0   3 2497.61   49.34
   2   0   3 2536.37   48.09
   2   0   4   22.43    1.56
   2   0   4   21.86    2.54
   2   0   4   24.19    1.79
   2   0   4   24.55    1.53
   2   0   4   24.40    2.99
   2   0   4   23.27    1.75
   2   0   5  179.65    5.48
   2   0   5  186.93    5.89
   2   0   5  180.84    5.73
   2   0   6   96.76    3.99
   2   0   6   92.77    3.74
   2   0   6  105.11    4.33
   2   0   7  691.35   16.08
   2   0   7  638.53   15.16
   2   0   7  655.74   15.76
   2   0   7  653.19   15.38
   2   0   8  754.43   17.40
   2   0   8  728.65   17.81
   2   0   8  764.94   17.22
   2   0   8  722.70   16.80
   2   0   9  371.08    9.43
   2   0   9  365.80    9.12
   2   0  10   63.58    2.29
   2   1 -11  361.25    8.36
   2   1  -9  309.61    8.18
   2   1  -6  206.41    7.92
   2   1  -5  287.81    9.61
   2   1  -5  305.54    9.56
   2   1  -4  450.47   11.99
   2   1  -3 4598.34   86.47
   2   1  -3 4520.53   87.37
   2   1  -2 1055.25   21.83
   2   1  -1 3342.06   65.78
   2   1  -1 3529.65   65.08
   2   1   0  165.88    5.40
   2   1   0  168.18    5.20
   2   1   0  161.57    5.40
   2   1   0  167.36    5.37
   2   1   1 3678.47   69.34
   2   1   1 3564.30   69.99
   2   1   1 3511.73   69.49
   2   1   2  573.80   15.48
   2   1   3 1614.63   31.84
   2   1   3 1535.96   36.25
   2   1   3 1579.86   31.37
   2   1   3 1592.13   31.52
   2   1   3 1633.38   31.51
   2   1   4  125.54    4.66
   2   1   4  124.84    4.39
   2   1   4  125.84    4.36
   2   1   5   12.28    1.89
   2   1   5   10.57    1.67
   2   1   5   12.44    1.61
   2   1   5   11.76    1.55
   2   1   6   73.10    3.65
   2   1   6   70.60    3.47
   2   1   6   74.61    4.03
   2   1   6   74.68    3.74
   2   1   6   72.67    3.71
   2   1   7  193.15    6.69
   2   1   7  191.28    6.31
   2   1   8   89.74    4.02
   2   1   8   93.90    3.86
   2   1   9   60.13    2.63
   2   1   9   62.52    2.50
   2   2 -12  230.43    5.71
   2   2 -12  286.42    6.33
   2   2 -11  103.50    3.83
   2   2 -10    4.55    1.11
   2   2 -10    3.18    0.97
   2   2  -9  544.95   12.85
   2   2  -9  518.88   12.17
   2   2  -8  526.07   12.36
   2   2  -7   35.00    2.08
   2   2  -6   78.25    2.98
   2   2  -6   81.08    3.15
   2   2  -5  482.80   10.81
   2   2  -5  499.14   13.78
   2   2  -5  478.10   13.76
   2   2  -4 2806.31   52.97
   2   2  -4 2824.38   55.37
   2   2  -4 2852.60   56.05
   2   2  -3 3782.46   73.35
   2   2  -3 3734.83   72.81
   2   2  -2 2215.32   44.82
   2   2  -2 2264.54   44.80
   2   2  -1  580.07   14.20
   2   2  -1  584.56   13.64
   2   2   0  870.17   19.69
   2   2   0  849.73   18.49
   2   2   0  811.23   18.91
   2   2   1  543.73   11.65
   2   2   1  548.88   14.87
   2   2   1  566.07   13.65
   2   2   1  538.54   11.69
   2   2   2  501.49   15.30
   2   2   2  514.51   11.62
   2   2   2  494.95   11.81
   2   2   2  498.33   14.45
   2   2   2  511.75   11.55
   2   2   3  674.31   15.66
   2   2   3  683.89   15.71
   2   2   3  698.34   15.63
   2   2   3  705.90   15.49
   2   2   4   38.71    2.72
   2   2   4   36.08    2.56
   2   2   4   36.39    2.65
   2   2   4   37.16    2.56
   2   2   5   84.76    4.06
   2   2   5   85.65    4.16
   2   2   5   89.98    4.15
   2   2   6  174.20    5.99
   2   2   6  162.99    6.31
   2   2   6  175.87    6.04
   2   2   7  203.98    6.67
   2   2   7  206.64    6.44
   2   2   8  330.35    8.30
   2   2   8  323.03    8.02
   2   3 -12   62.86    2.50
   2   3 -11    7.41    1.17
   2   3 -11    7.27    1.37
   2   3 -10  290.82    8.17
   2   3 -10  284.67    7.54
   2   3  -9  327.05    9.31
   2   3  -9  329.59    8.90
   2   3  -8  145.32    5.47
   2   3  -8  143.24    4.93
   2   3  -8  143.93    5.24
   2   3  -7  171.63    5.45
   2   3  -7  172.68    5.59
   2   3  -7  178.65    5.70
   2   3  -6   88.57    3.55
   2   3  -6   86.23    3.58
   2   3  -5  788.47   17.09
   2   3  -5  823.76   17.19
   2   3  -5  764.54   19.90
   2   3  -4  831.27   20.71
   2   3  -4  847.00   17.75
   2   3  -4  821.13   17.48
   2   3  -4  871.63   20.69
   2   3  -3   28.13    1.81
   2   3  -3   27.23    2.51
   2   3  -3   27.58    1.75
   2   3  -3   27.67    1.78
   2   3  -3   23.18    2.37
   2   3  -2  365.00    8.56
   2   3  -2  362.69    8.41
   2   3  -2  351.15    8.14
   2   3  -2  355.10    8.53
   2   3  -2  356.81    8.52
   2   3  -2  342.35   10.56
   2   3  -1 1606.03   31.16
   2   3  -1 1609.21   31.26
   2   3  -1 1584.00   33.46
   2   3  -1 1563.62   30.88
   2   3  -1 1587.49   31.52
   2   3  -1 1554.29   32.98
   2   3   0  510.14   11.01
   2   3   0  493.44   11.18
   2   3   0  502.97   11.06
   2   3   0  480.79   12.96
   2   3   0  502.93   11.76
   2   3   0  488.85   14.13
   2   3   0  495.70   11.44
   2   3   1   25.79    1.82
   2   3   1   24.48    1.81
   2   3   1   25.11    2.07
   2   3   1   28.48    2.02
   2   3   2  205.94    6.20
   2   3   2  207.25    6.62
   2   3   2  203.12    6.23
   2   3   3   52.20    3.25
   2   3   3   47.67    3.02
   2   3   3   51.39    3.22
   2   3   3   51.69    3.08
   2   3   4 1120.16   25.26
   2   3   4 1158.50   25.29
   2   3   4 1161.47   25.22
   2   3   4 1183.97   25.16
   2   3   5   37.95    2.75
   2   3   5   36.48    2.94
   2   3   5   38.68    2.77
   2   3   5   35.96    2.80
   2   3   6  296.53    8.22
   2   3   6  314.12    8.57
   2   3   7  352.73    9.15
   2   3   7  406.67    9.28
   2   4 -12   30.59    1.61
   2   4 -12   32.16    1.80
   2   4 -11  169.15    5.38
   2   4 -11  159.92    5.16
   2   4 -10  186.92    6.28
   2   4 -10  183.56    5.88
   2   4  -9  291.59    8.78
   2   4  -9  286.25    8.37
   2   4  -8  396.66   10.33
   2   4  -8  399.11   10.99
   2   4  -8  413.87   10.74
   2   4  -7  183.56    6.04
   2   4  -7  178.73    6.09
   2   4  -7  181.12    6.13
   2   4  -6  545.63   12.85
   2   4  -6  515.62   12.43
   2   4  -6  537.99   12.88
   2   4  -6  526.97   12.82
   2   4  -5  446.97   11.16
   2   4  -5  449.78   11.07
   2   4  -5  452.23   10.94
   2   4  -5  448.22   10.91
   2   4  -4  142.17    5.00
   2   4  -4  147.51    4.75
   2   4  -4  150.42    4.97
   2   4  -4  141.91    4.73
   2   4  -3  666.23   14.73
   2   4  -3  658.09   14.18
   2   4  -3  653.90   14.58
   2   4  -3  644.95   14.25
   2   4  -2  114.43    4.13
   2   4  -2  111.97    3.93
   2   4  -2  113.60    3.70
   2   4  -2  111.37    3.96
   2   4  -1   69.04    2.99
   2   4  -1   70.09    3.34
   2   4  -1   68.17    3.16
   2   4   0  275.78    7.76
   2   4   0  267.78    7.77
   2   4   0  262.49    7.14
   2   4   1  432.78   10.84
   2   4   1  446.04   11.42
   2   4   1  441.98   10.80
   2   4   1  435.39   11.48
   2   4   1  412.11   11.03
   2   4   2   60.25    3.29
   2   4   2   57.01    3.60
   2   4   2   64.55    3.52
   2   4   3  273.79    8.67
   2   4   3  278.09    8.30
   2   4   3  278.28    8.49
   2   4   4   24.57    2.42
   2   4   4   25.63    2.35
   2   4   4   24.49    2.37
   2   4   5   27.49    2.16
   2   4   5   28.77    2.27
   2   4   5   26.22    2.21
   2   4   6  331.11    8.05
   2   4   6  372.53    8.63
   2   5 -12   32.38    1.72
   2   5 -12   32.33    1.67
   2   5 -11   57.71    2.86
   2   5 -11   56.28    2.76
   2   5 -10   75.90    3.82
   2   5 -10   77.68    3.60
   2   5  -9  160.63    5.49
   2   5  -9  153.67    5.97
   2   5  -9  161.34    5.90
   2   5  -8  158.19    5.79
   2   5  -8  155.51    5.96
   2   5  -8  157.80    5.92
   2   5  -7  154.85    5.84
   2   5  -7  152.25    5.36
   2   5  -7  150.01    5.79
   2   5  -6  247.27    8.01
   2   5  -6  270.95    7.94
   2   5  -6  267.53    7.93
   2   5  -6  257.35    7.79
   2   5  -5  229.92    7.25
   2   5  -5  218.99    6.83
   2   5  -5  225.07    6.84
   2   5  -4  653.92   15.13
   2   5  -4  642.56   15.34
   2   5  -4  628.96   14.40
   2   5  -4  624.71   14.53
   2   5  -3  426.71   10.90
   2   5  -3  410.09   10.10
   2   5  -3  431.81   10.28
   2   5  -2  352.49    9.35
   2   5  -2  354.08    9.91
   2   5  -2  347.88    9.20
   2   5  -1  358.09    9.15
   2   5  -1  335.36    9.80
   2   5  -1  358.49    9.63
   2   5   0   48.20    3.06
   2   5   0   51.27    3.24
   2   5   0   47.97    2.65
   2   5   1  745.09   17.10
   2   5   1  763.77   18.08
   2   5   1  761.86   17.02
   2   5   2  266.25    7.84
   2   5   3    1.19    1.38
   2   5   3    1.33    1.17
   2   5   4   68.87    3.25
   2   5   4   69.96    3.11
   2   5   5   17.39    1.29
   2   5   5   17.24    1.31
   2   6 -12   45.22    1.81
   2   6 -11   24.53    1.73
   2   6 -11   22.40    1.52
   2   6 -10   19.05    1.89
   2   6 -10   15.85    1.48
   2   6 -10   15.87    1.41
   2   6  -9   16.86    1.83
   2   6  -9   15.75    2.07
   2   6  -9   16.75    2.00
   2   6  -9   15.93    1.56
   2   6  -8   33.39    2.81
   2   6  -8   33.40    2.23
   2   6  -8   38.70    2.87
   2   6  -8   36.10    2.80
   2   6  -7   52.34    3.45
   2   6  -7   49.64    3.01
   2   6  -7   47.71    3.18
   2   6  -7   49.24    3.17
   2   6  -6  127.15    5.28
   2   6  -6  121.76    4.93
   2   6  -6  126.87    5.09
   2   6  -5  931.40   21.36
   2   6  -5  979.67   21.60
   2   6  -5  903.82   20.37
   2   6  -5  965.27   20.75
   2   6  -4  186.53    6.58
   2   6  -3   26.62    2.33
   2   6  -3   28.60    2.76
   2   6  -3   24.55    1.89
   2   6  -2  118.98    4.63
   2   6  -2  111.02    4.55
   2   6  -1  120.25    5.03
   2   6  -1  114.62    4.81
   2   6   0  481.25   12.02
   2   6   0  460.76   11.06
   2   6   0  495.98   12.37
   2   6   1   98.05    3.71
   2   6   1  103.52    4.47
   2   6   2  128.02    4.21
   2   6   2  133.38    4.85
   2   6   3   54.40    2.24
   2   6   3   53.81    2.58
   2   7 -11   44.73    1.84
   2   7 -10  207.69    5.56
   2   7 -10  197.86    5.39
   2   7  -9  149.15    4.96
   2   7  -9  141.25    4.58
   2   7  -8   66.17    3.41
   2   7  -8   60.50    2.90
   2   7  -8   61.71    2.83
   2   7  -7    8.71    1.52
   2   7  -6  373.46   10.29
   2   7  -6  358.01   10.17
   2   7  -5  236.33    7.61
   2   7  -5  250.15    7.95
   2   7  -4  397.36   10.50
   2   7  -3   50.84    2.81
   2   7  -3   51.11    3.34
   2   7  -2  217.94    6.96
   2   7  -2  197.52    5.97
   2   7  -1  169.72    5.55
   2   7  -1  163.66    5.29
   2   7   0  217.64    6.23
   2   7   1  149.98    4.51
   2   7   2   60.35    2.17
   2   8  -9  286.98    7.05
   2   8  -8    5.69    0.85
   2   8  -7    0.64    0.99
   2   8  -7    0.59    0.86
   2   8  -6   16.38    1.68
   2   8  -6   17.05    1.74
   2   8  -5   24.31    1.85
   2   8  -5   25.19    2.14
   2   8  -4  140.95    4.78
   2   8  -4  120.53    3.96
   2   8  -3   38.05    2.30
   2   8  -2   13.81    1.29
   3 -10   2   38.67    1.60
   3 -10   3   28.99    1.58
   3 -10   3   29.66    1.76
   3 -10   4   57.28    2.52
   3 -10   4   59.35    2.46
   3 -10   4   60.58    2.58
   3 -10   5  209.51    5.56
   3 -10   5  204.69    5.59
   3 -10   6  294.67    7.18
   3 -10   6  291.44    7.09
   3 -10   6  294.30    7.26
   3 -10   7   54.27    2.24
   3 -10   7   51.52    2.20
   3 -10   7   46.59    1.87
   3  -9   0  245.85    6.21
   3  -9   1   17.08    1.56
   3  -9   1   15.52    1.32
   3  -9   2    0.43    1.02
   3  -9   2    0.47    0.90
   3  -9   3  184.91    5.79
   3  -9   3  171.70    5.48
   3  -9   4  198.04    6.26
   3  -9   5  266.23    7.65
   3  -9   5  262.49    7.74
   3  -9   6   11.17    1.66
   3  -9   6   11.53    1.70
   3  -9   6   12.57    1.74
   3  -9   7  128.68    4.67
   3  -9   7  127.42    4.51
   3  -9   7  129.59    4.67
   3  -9   8  195.29    5.73
   3  -9   8  197.46    5.61
   3  -9   8  185.82    5.09
   3  -9   9  335.30    7.66
   3  -8  -2    8.34    1.07
   3  -8  -1  186.40    5.54
   3  -8  -1  175.85    5.18
   3  -8   0   40.36    2.52
   3  -8   0   37.96    2.33
   3  -8   1  107.33    4.36
   3  -8   1  101.65    4.08
   3  -8   2  193.33    6.41
   3  -8   2  195.01    6.19
   3  -8   3   61.84    3.40
   3  -8   3   60.06    3.21
   3  -8   4  370.08   10.13
   3  -8   4  366.86    9.77
   3  -8   5  288.44    8.54
   3  -8   5  294.99    8.82
   3  -8   6    0.10    1.42
   3  -8   6    0.54    1.30
   3  -8   7  195.34    6.51
   3  -8   7  189.52    6.41
   3  -8   7  182.41    5.61
   3  -8   8  226.61    6.78
   3  -8   8  220.04    6.55
   3  -8   8  199.65    5.89
   3  -8   8  203.88    5.96
   3  -8   9   75.60    3.10
   3  -8   9   75.78    2.93
   3  -8  11   26.35    1.34
   3  -7   0  204.89    6.34
   3  -7   1  159.85    5.42
   3  -7   2 1120.34   23.36
   3  -7   2 1042.65   22.85
   3  -7   3  111.17    4.59
   3  -7   3  114.85    4.44
   3  -7   4  814.56   18.21
   3  -7   4  787.02   17.83
   3  -7   5  120.31    4.89
   3  -7   5  123.12    5.13
   3  -7   5  113.31    4.15
   3  -7   6  606.22   14.36
   3  -7   6  594.67   14.29
   3  -7   6  582.81   14.34
   3  -7   7  255.65    7.96
   3  -7   7  250.04    7.81
   3  -7   7  249.30    7.85
   3  -7   7  248.99    7.22
   3  -7   8  143.45    5.55
   3  -7   8  139.17    5.26
   3  -7   8  142.36    5.03
   3  -7   8  141.74    4.84
   3  -7   9   95.64    3.81
   3  -7   9   94.82    3.83
   3  -7  10  115.18    3.91
   3  -7  11    6.52    1.00
   3  -6   1    7.77    1.17
   3  -6   2  217.34    6.38
   3  -6   2  218.40    6.24
   3  -6   3  510.79   12.10
   3  -6   3  503.22   11.84
   3  -6   4  209.11    6.37
   3  -6   4  208.37    6.19
   3  -6   5  165.25    5.65
   3  -6   5  168.37    5.87
   3  -6   5  162.98    5.13
   3  -6   6  716.14   16.46
   3  -6   6  726.41   16.47
   3  -6   6  695.46   16.48
   3  -6   6  682.55   15.73
   3  -6   7   50.93    3.22
   3  -6   7   48.81    3.23
   3  -6   7   48.34    3.06
   3  -6   7   50.34    2.88
   3  -6   8   82.22    3.91
   3  -6   8   81.66    3.83
   3  -6   8   83.74    3.58
   3  -6   9  386.94   10.11
   3  -6  10   11.22    1.49
   3  -6  11   16.02    1.48
   3  -5   1  273.44    6.94
   3  -5   1  299.13    9.82
   3  -5   1  285.36    9.03
   3  -5   2   39.31    2.14
   3  -5   2   38.67    1.97
   3  -5   2   36.75    3.35
   3  -5   2   37.66    2.98
   3  -5   3  592.31   15.78
   3  -5   3  607.24   13.35
   3  -5   3  604.99   13.16
   3  -5   4  263.07    7.10
   3  -5   5  714.61   16.51
   3  -5   5  773.71   16.80
   3  -5   5  764.48   16.83
   3  -5   5  743.95   16.12
   3  -5   6  393.30   10.13
   3  -5   6  373.42    9.54
   3  -5   6  378.53   10.06
   3  -5   6  390.69   10.18
   3  -5   6  390.62    9.74
   3  -5   7  139.73    5.38
   3  -5   7  141.20    5.24
   3  -5   7  146.61    5.28
   3  -5   7  141.74    5.02
   3  -5   8  443.92   11.71
   3  -5   8  432.53   11.14
   3  -5   8  430.50   11.27
   3  -5   8  428.53   10.58
   3  -5   8  428.90   10.54
   3  -5   9  275.31    8.03
   3  -5   9  265.32    7.38
   3  -5  10   36.06    2.11
   3  -5  11  100.41    3.71
   3  -4  -2  131.44    5.99
   3  -4  -1 1469.16   33.25
   3  -4  -1 1363.65   29.33
   3  -4   0  265.39    8.51
   3  -4   0  268.82    7.57
   3  -4   1  592.83   15.65
   3  -4   1  611.46   14.43
   3  -4   2 1017.44   20.77
   3  -4   2 1051.82   24.60
   3  -4   2 1092.72   23.39
   3  -4   3  420.12   11.26
   3  -4   3  418.13    9.51
   3  -4   3  413.92   12.89
   3  -4   4   57.48    2.60
   3  -4   4   53.53    2.64
   3  -4   4   54.81    2.32
   3  -4   5  185.91    5.64
   3  -4   5  182.54    5.46
   3  -4   5  186.30    5.75
   3  -4   5  186.50    5.82
   3  -4   5  186.14    5.41
   3  -4   5  184.32    5.12
   3  -4   6  192.71    6.15
   3  -4   6  195.12    5.80
   3  -4   6  193.83    6.18
   3  -4   6  197.90    6.06
   3  -4   6  194.72    5.71
   3  -4   6  199.44    6.01
   3  -4   7  403.97   10.02
   3  -4   7  424.98   11.04
   3  -4   7  408.27   10.67
   3  -4   7  428.04   10.83
   3  -4   7  409.62   10.29
   3  -4   8  338.99    9.54
   3  -4   8  318.96    9.28
   3  -4   8  321.86    8.94
   3  -4   9   87.74    3.94
   3  -4  10   17.37    1.47
   3  -4  10   16.11    1.71
   3  -4  11   21.62    1.71
   3  -3  -3  232.61    8.06
   3  -3  -3  244.56    9.38
   3  -3  -2 2089.10   39.47
   3  -3  -2 2194.02   40.33
   3  -3  -2 2206.08   42.71
   3  -3  -2 2128.64   39.38
   3  -3  -1  276.85    8.04
   3  -3  -1  258.16    6.51
   3  -3  -1  267.11    6.28
   3  -3   0   28.41    2.36
   3  -3   0   27.24    1.68
   3  -3   1  612.85   15.40
   3  -3   2 1332.22   26.43
   3  -3   2 1231.74   28.54
   3  -3   3  135.91    6.21
   3  -3   3  142.39    4.28
   3  -3   4  857.74   17.83
   3  -3   4  863.10   17.89
   3  -3   4  881.43   20.11
   3  -3   4  859.30   21.62
   3  -3   4  869.73   18.04
   3  -3   4  857.69   17.61
   3  -3   4  831.67   17.49
   3  -3   5  164.66    7.02
   3  -3   5  175.63    5.22
   3  -3   5  178.40    5.45
   3  -3   5  167.65    5.15
   3  -3   5  165.07    5.06
   3  -3   5  176.47    5.28
   3  -3   6  215.53    6.25
   3  -3   6  218.65    6.66
   3  -3   6  212.87    6.49
   3  -3   6  214.08    6.28
   3  -3   6  210.41    6.33
   3  -3   7 1013.52   21.71
   3  -3   7  965.59   21.33
   3  -3   7  940.70   20.35
   3  -3   7  966.69   21.11
   3  -3   8  573.37   14.04
   3  -3   8  530.37   13.49
   3  -3   9  120.33    4.84
   3  -3  10   62.13    2.77
   3  -3  11   64.41    2.63
   3  -2  -4  388.48   11.73
   3  -2  -4  410.88   12.24
   3  -2  -3 2663.50   54.14
   3  -2  -3 2690.73   53.25
   3  -2  -2 1123.41   24.89
   3  -2  -2 1108.18   22.98
   3  -2  -2 1141.78   23.10
   3  -2  -2 1135.35   23.57
   3  -2  -1 1266.60   24.92
   3  -2  -1 1320.33   26.13
   3  -2  -1 1282.78   25.65
   3  -2   0  207.44    4.52
   3  -2   0  220.90    6.28
   3  -2   1  708.26   14.16
   3  -2   2 2966.90   58.05
   3  -2   2 2868.66   55.31
   3  -2   3   31.61    2.23
   3  -2   3   36.19    1.90
   3  -2   3   31.62    2.78
   3  -2   3   33.95    1.83
   3  -2   4 1007.92   23.19
   3  -2   4 1013.39   21.11
   3  -2   4 1017.94   24.29
   3  -2   4 1013.97   24.46
   3  -2   4 1015.89   21.05
   3  -2   4 1053.73   21.23
   3  -2   4 1053.39   25.78
   3  -2   4 1034.43   20.94
   3  -2   4 1013.19   21.00
   3  -2   4 1048.27   21.07
   3  -2   5 1181.88   24.46
   3  -2   5 1216.73   24.68
   3  -2   5 1163.16   27.89
   3  -2   5 1191.52   24.30
   3  -2   5 1191.07   24.54
   3  -2   5 1207.69   24.46
   3  -2   5 1176.46   24.55
   3  -2   6  145.80    4.80
   3  -2   6  150.80    5.40
   3  -2   6  152.64    5.31
   3  -2   7  396.51   10.71
   3  -2   7  383.94   10.46
   3  -2   8   81.48    4.27
   3  -2   8   76.65    4.07
   3  -2   9   44.34    2.78
   3  -2   9   49.61    3.09
   3  -2  10  267.60    6.84
   3  -1  -5  323.79   10.07
   3  -1  -4 2262.53   42.44
   3  -1  -4 2265.72   42.58
   3  -1  -4 2190.83   42.30
   3  -1  -4 2198.00   42.34
   3  -1  -4 2107.73   40.04
   3  -1  -4 2183.84   43.74
   3  -1  -3 1903.62   36.74
   3  -1  -3 1970.51   38.05
   3  -1  -3 1913.22   37.44
   3  -1  -3 1804.78   35.09
   3  -1  -3 1853.79   35.11
   3  -1  -3 1975.07   38.36
   3  -1  -2 1974.60   37.19
   3  -1  -2 2003.06   36.74
   3  -1  -1  684.43   13.80
   3  -1  -1  694.98   16.05
   3  -1   0  402.90    9.23
   3  -1   0  410.10   10.42
   3  -1   1 4981.01   92.43
   3  -1   1 4740.11   93.07
   3  -1   2 1483.57   31.30
   3  -1   2 1451.73   30.76
   3  -1   3  815.85   17.16
   3  -1   3  788.55   19.41
   3  -1   3  839.28   20.11
   3  -1   3  808.15   16.94
   3  -1   3  842.05   21.07
   3  -1   3  828.64   17.10
   3  -1   3  831.03   17.10
   3  -1   3  839.29   17.11
   3  -1   4  618.09   16.24
   3  -1   4  637.47   14.00
   3  -1   4  634.39   13.83
   3  -1   4  629.22   14.00
   3  -1   5   36.80    2.01
   3  -1   5   38.43    2.44
   3  -1   5   36.76    2.15
   3  -1   6  425.04   10.94
   3  -1   6  384.94    9.69
   3  -1   7 1312.07   27.99
   3  -1   7 1260.77   26.35
   3  -1   8  155.58    5.34
   3  -1   8  153.98    6.08
   3  -1   8  165.01    5.90
   3  -1   8  148.92    4.85
   3  -1   9   25.42    2.09
   3  -1  10   13.37    1.09
   3   0  -5  275.49    8.97
   3   0  -5  289.60    9.97
   3   0  -5  292.14    9.60
   3   0  -4  388.29   10.63
   3   0  -4  382.03   10.77
   3   0  -4  351.64    9.07
   3   0  -4  386.66   11.16
   3   0  -3 4822.43   88.72
   3   0  -3 4826.31   88.76
   3   0  -3 4805.86   86.68
   3   0  -3 4866.59   88.81
   3   0  -2 2756.71   53.30
   3   0  -2 2874.85   55.28
   3   0  -1  538.30   11.83
   3   0  -1  493.78   12.85
   3   0   0 2304.02   45.60
   3   0   0 2363.19   45.15
   3   0   0 2218.08   45.99
   3   0   1 2636.32   52.25
   3   0   1 2550.37   51.89
   3   0   1 2598.50   51.46
   3   0   2 3959.91   76.02
   3   0   2 3804.90   71.72
   3   0   2 3756.06   71.49
   3   0   3  269.38    8.54
   3   0   3  288.31    7.22
   3   0   3  279.25    7.13
   3   0   3  271.90    6.87
   3   0   3  275.77    7.22
   3   0   3  268.39   10.36
   3   0   3  267.45    6.69
   3   0   4  129.72    4.60
   3   0   4  121.52    3.98
   3   0   4  127.12    4.32
   3   0   4  128.88    4.60
   3   0   4  124.83    4.12
   3   0   5  193.96    6.33
   3   0   5  179.56    5.62
   3   0   5  188.42    6.19
   3   0   5  177.09    5.62
   3   0   6  674.57   15.95
   3   0   6  623.65   15.47
   3   0   6  652.96   14.96
   3   0   7  164.52    5.94
   3   0   7  173.59    6.53
   3   0   7  173.26    6.37
   3   0   7  156.65    5.43
   3   0   8  117.50    4.73
   3   0   8  126.08    4.98
   3   0   8  103.03    3.97
   3   0   8  109.89    3.91
   3   0   9   43.11    2.28
   3   1 -11   18.65    1.40
   3   1  -9  163.24    5.50
   3   1  -7  521.12   12.00
   3   1  -5  595.86   16.09
   3   1  -5  557.57   14.23
   3   1  -5  570.23   12.32
   3   1  -4 2950.87   58.97
   3   1  -4 3006.89   57.50
   3   1  -3  503.79   13.43
   3   1  -3  513.00   12.50
   3   1  -2 2688.43   48.48
   3   1  -2 2709.24   49.60
   3   1  -1  354.84   10.03
   3   1  -1  356.83    9.67
   3   1  -1  326.01    8.80
   3   1   0 1477.87   30.90
   3   1   0 1469.20   30.50
   3   1   0 1387.04   30.21
   3   1   0 1396.02   30.20
   3   1   1  608.93   15.86
   3   1   1  627.26   13.58
   3   1   1  622.44   13.42
   3   1   1  636.10   16.07
   3   1   1  618.76   16.38
   3   1   1  614.60   13.22
   3   1   1  627.93   13.16
   3   1   2 2512.77   48.59
   3   1   2 2549.61   48.77
   3   1   2 2554.96   48.58
   3   1   2 2487.74   53.42
   3   1   2 2491.54   48.05
   3   1   2 2518.71   48.34
   3   1   3  373.82    9.50
   3   1   3  375.02    9.37
   3   1   3  366.84    9.12
   3   1   4   31.78    2.42
   3   1   4   29.71    2.13
   3   1   5   65.35    3.76
   3   1   5   65.56    3.76
   3   1   5   66.76    3.81
   3   1   5   66.56    3.33
   3   1   6  305.69    8.83
   3   1   6  321.80    9.24
   3   1   6  320.65    8.82
   3   1   7  102.97    3.89
   3   1   7  106.76    4.70
   3   1   7  110.24    4.34
   3   1   7  113.05    4.20
   3   1   8  102.76    3.83
   3   1   8   89.18    3.15
   3   1   9    5.40    0.73
   3   2 -12   84.33    2.61
   3   2 -10  153.14    5.18
   3   2  -9  726.62   16.88
   3   2  -9  720.39   16.27
   3   2  -8  327.36    8.68
   3   2  -8  338.91    9.14
   3   2  -7  109.86    4.01
   3   2  -7  113.18    4.31
   3   2  -6  112.56    4.06
   3   2  -5   74.57    3.20
   3   2  -5   72.96    2.96
   3   2  -5   74.58    4.37
   3   2  -4 2788.69   57.48
   3   2  -4 2812.11   53.52
   3   2  -4 2781.27   56.38
   3   2  -4 2795.28   53.69
   3   2  -3  475.81   10.65
   3   2  -3  495.35   11.08
   3   2  -3  506.96   11.22
   3   2  -3  482.08   13.01
   3   2  -2  569.72   12.41
   3   2  -2  595.66   14.86
   3   2  -2  562.96   14.90
   3   2  -1  133.58    5.38
   3   2  -1  138.24    4.40
   3   2  -1  149.81    6.01
   3   2  -1  147.98    6.19
   3   2  -1  149.96    6.24
   3   2  -1  141.29    4.40
   3   2  -1  151.16    4.49
   3   2  -1  142.57    4.50
   3   2   0  288.80    8.95
   3   2   0  279.39    9.50
   3   2   0  277.79    6.86
   3   2   0  277.15    9.38
   3   2   0  284.75    9.63
   3   2   0  295.50    7.60
   3   2   0  288.05    7.25
   3   2   0  287.54    7.34
   3   2   1  461.24   14.62
   3   2   1  489.66   11.20
   3   2   1  495.05   11.82
   3   2   1  485.94   11.08
   3   2   1  500.77   11.36
   3   2   2  236.37    6.71
   3   2   2  237.44    6.63
   3   2   3  402.26   10.45
   3   2   3  401.19   10.85
   3   2   3  390.91   10.17
   3   2   4   16.62    2.11
   3   2   4   17.02    2.08
   3   2   4   15.63    2.16
   3   2   4   16.90    1.92
   3   2   5  308.96    9.11
   3   2   5  324.21    9.35
   3   2   5  310.01    9.38
   3   2   5  311.24    8.87
   3   2   6   90.64    3.92
   3   2   6   87.23    4.22
   3   2   6   87.50    3.98
   3   2   6   87.04    3.80
   3   2   7   53.85    2.49
   3   2   8   88.19    2.89
   3   3 -12   25.44    1.51
   3   3 -11  137.44    4.57
   3   3 -11  143.98    4.55
   3   3 -10   38.55    2.61
   3   3 -10   34.79    2.29
   3   3  -9  458.07   11.95
   3   3  -9  450.05   11.56
   3   3  -8  453.10   11.24
   3   3  -8  463.25   11.68
   3   3  -8  475.33   11.94
   3   3  -7  194.47    6.18
   3   3  -7  193.43    6.37
   3   3  -6  431.96   10.69
   3   3  -6  403.98   10.66
   3   3  -5   58.99    2.99
   3   3  -5   55.93    2.84
   3   3  -4  962.74   20.62
   3   3  -4  973.58   20.50
   3   3  -4  969.03   20.64
   3   3  -3 1050.60   21.93
   3   3  -3 1046.83   21.73
   3   3  -3 1028.27   21.94
   3   3  -2   18.47    1.64
   3   3  -2   14.89    1.44
   3   3  -2   13.86    1.55
   3   3  -2   15.04    1.55
   3   3  -2   14.52    1.65
   3   3  -1  231.45    6.42
   3   3  -1  231.89    6.17
   3   3  -1  226.10    6.72
   3   3  -1  226.79    6.52
   3   3   0  772.52   16.65
   3   3   0  750.98   16.49
   3   3   0  809.37   17.70
   3   3   0  810.19   17.10
   3   3   1   23.43    1.95
   3   3   1   22.70    1.86
   3   3   2  724.24   16.72
   3   3   2  728.60   17.46
   3   3   2  755.18   16.97
   3   3   3   97.67    4.55
   3   3   3   89.46    4.21
   3   3   3   96.18    4.71
   3   3   3   91.51    4.27
   3   3   4   14.70    2.12
   3   3   4   13.48    1.97
   3   3   4   14.19    2.03
   3   3   4   13.56    1.90
   3   3   5    1.16    1.15
   3   3   5    1.64    1.26
   3   3   5    1.61    1.27
   3   3   5    1.05    1.11
   3   3   6  126.81    4.21
   3   3   6  134.87    4.52
   3   3   7  178.28    4.61
   3   4 -12    9.62    0.90
   3   4 -11   24.27    1.86
   3   4 -11   23.80    1.85
   3   4 -10  295.22    8.63
   3   4 -10  306.20    8.29
   3   4  -9  216.71    6.64
   3   4  -9  230.31    7.34
   3   4  -8  132.32    5.07
   3   4  -8  125.57    5.17
   3   4  -8  131.87    5.29
   3   4  -7  148.59    5.64
   3   4  -7  142.37    5.14
   3   4  -7  158.36    5.87
   3   4  -7  154.42    5.78
   3   4  -6  476.87   11.99
   3   4  -6  454.67   11.69
   3   4  -6  454.73   11.77
   3   4  -6  465.09   11.75
   3   4  -5  107.81    4.36
   3   4  -5  111.98    4.59
   3   4  -5  110.24    4.35
   3   4  -4  472.01   11.62
   3   4  -4  441.62   10.92
   3   4  -4  453.64   11.42
   3   4  -4  459.24   11.09
   3   4  -3   17.33    1.84
   3   4  -3   15.41    1.70
   3   4  -3   14.20    1.47
   3   4  -2  599.05   13.74
   3   4  -2  565.50   13.41
   3   4  -2  579.43   13.35
   3   4  -1  684.18   15.49
   3   4  -1  707.92   16.28
   3   4  -1  675.04   15.84
   3   4   0 1195.33   26.44
   3   4   0 1237.18   26.68
   3   4   0 1228.30   25.34
   3   4   1  317.17    8.70
   3   4   1  323.50    9.44
   3   4   1  300.89    8.37
   3   4   2  166.26    5.71
   3   4   2  171.33    6.59
   3   4   3  211.13    7.18
   3   4   3  212.62    6.70
   3   4   4   51.32    3.04
   3   4   4   53.06    2.87
   3   4   5   10.74    1.30
   3   4   5    9.40    1.20
   3   5 -12    5.24    0.69
   3   5 -12    4.86    0.64
   3   5 -11  203.20    5.86
   3   5 -11  213.83    5.93
   3   5 -11  203.52    5.63
   3   5 -10  139.37    5.11
   3   5 -10  140.91    4.96
   3   5  -9   90.43    3.94
   3   5  -9   92.76    4.37
   3   5  -9   97.58    4.29
   3   5  -8  243.88    7.66
   3   5  -8  231.47    7.61
   3   5  -7 1154.65   25.23
   3   5  -7 1144.22   24.67
   3   5  -7 1147.58   24.94
   3   5  -7 1130.33   24.97
   3   5  -6  174.67    6.57
   3   5  -6  195.34    6.63
   3   5  -6  186.30    6.34
   3   5  -6  188.63    6.62
   3   5  -6  190.42    6.48
   3   5  -5  367.79   10.21
   3   5  -5  364.07   10.29
   3   5  -5  347.88    9.40
   3   5  -5  349.10    9.54
   3   5  -5  355.54    9.94
   3   5  -4  393.73   10.65
   3   5  -4  373.11   10.81
   3   5  -4  387.48    9.92
   3   5  -3   66.37    3.54
   3   5  -3   70.83    3.94
   3   5  -2 1010.10   21.97
   3   5  -2 1025.30   22.82
   3   5  -2  999.27   21.84
   3   5  -1  187.39    5.90
   3   5  -1  199.40    6.88
   3   5  -1  190.78    6.56
   3   5   0 1275.56   27.79
   3   5   0 1356.86   28.13
   3   5   1  116.47    4.88
   3   5   1  102.18    3.88
   3   5   2   64.07    3.51
   3   5   2   60.77    2.83
   3   5   3   29.26    1.80
   3   5   4   31.49    1.50
   3   5   4   37.62    1.92
   3   6 -11   63.07    2.47
   3   6 -10   41.50    2.03
   3   6 -10   38.82    1.85
   3   6  -9   32.85    2.26
   3   6  -9   31.35    2.34
   3   6  -8   68.98    3.59
   3   6  -8   64.02    3.07
   3   6  -8   65.72    3.40
   3   6  -8   67.75    3.51
   3   6  -7   47.37    3.22
   3   6  -7   44.89    2.95
   3   6  -7   47.19    2.92
   3   6  -7   50.46    2.99
   3   6  -6    4.56    1.69
   3   6  -6    3.06    1.53
   3   6  -6    4.49    1.18
   3   6  -6    3.46    1.30
   3   6  -5  161.72    6.16
   3   6  -5  159.47    6.40
   3   6  -5  172.78    5.60
   3   6  -4  231.80    7.45
   3   6  -3  354.08    9.78
   3   6  -3  380.59   10.63
   3   6  -2  195.42    6.02
   3   6  -2  205.21    7.05
   3   6  -2  202.29    6.19
   3   6  -1   69.23    3.55
   3   6  -1   68.29    3.42
   3   6   0   96.46    3.78
   3   6   0  113.52    4.33
   3   6   1   46.47    2.57
   3   6   2   86.78    3.19
   3   7 -10   81.96    2.54
   3   7 -10   84.18    2.62
   3   7  -9   60.53    2.64
   3   7  -9   49.36    2.06
   3   7  -8   65.15    3.06
   3   7  -8   54.99    2.55
   3   7  -7  103.91    4.30
   3   7  -7  121.04    4.39
   3   7  -6   59.01    3.18
   3   7  -6   60.61    3.28
   3   7  -5   21.82    2.03
   3   7  -5   20.17    2.15
   3   7  -4  112.93    4.20
   3   7  -4  110.79    4.69
   3   7  -3  269.10    7.79
   3   7  -2  161.48    5.19
   3   7  -1  174.79    4.84
   3   7  -1  178.93    4.77
   3   7   0   20.72    1.22
   3   8  -7   31.21    1.73
   3   8  -7   30.58    1.64
   3   8  -6   55.66    2.32
   3   8  -6   59.29    2.51
   3   8  -5   56.72    2.11
   3   8  -4   15.20    1.29
   3   8  -3  150.01    4.01
   4 -10   2   19.05    1.35
   4 -10   3   46.65    1.84
   4 -10   3   49.67    2.07
   4 -10   4   20.56    1.32
   4 -10   4   22.99    1.59
   4 -10   5  477.28   10.63
   4 -10   5  502.17   11.05
   4 -10   5  503.71   11.14
   4 -10   6   29.17    1.59
   4 -10   6   30.21    1.78
   4 -10   7   20.28    1.38
   4 -10   7   19.12    1.20
   4  -9   1   28.44    1.71
   4  -9   2    8.82    1.25
   4  -9   3  109.44    4.04
   4  -9   4   53.65    2.82
   4  -9   5   36.25    2.56
   4  -9   5   34.71    2.61
   4  -9   6  122.78    4.41
   4  -9   6  123.80    4.65
   4  -9   7  181.66    5.43
   4  -9   7  175.19    5.54
   4  -9   7  170.95    5.43
   4  -9   7  173.52    5.29
   4  -9   8   95.75    3.47
   4  -9   8   90.17    3.09
   4  -9   9    4.71    0.85
   4  -8   0  577.96   13.05
   4  -8   1  117.49    4.36
   4  -8   2  221.70    6.61
   4  -8   2  207.31    6.11
   4  -8   3   69.59    3.45
   4  -8   4  454.53   11.47
   4  -8   5  276.96    7.93
   4  -8   5  272.60    8.35
   4  -8   6   94.46    4.13
   4  -8   6   85.79    4.21
   4  -8   6   95.92    4.48
   4  -8   7  125.44    4.75
   4  -8   7  117.91    4.18
   4  -8   7  127.85    4.95
   4  -8   7  129.36    4.97
   4  -8   8  263.45    7.32
   4  -8   8  246.93    6.85
   4  -8   9  134.30    4.46
   4  -8  10  235.92    6.00
   4  -7  -1  124.62    4.38
   4  -7   0  357.60    9.17
   4  -7   1 1497.96   29.96
   4  -7   1 1433.95   29.38
   4  -7   2  388.42    9.76
   4  -7   2  362.51    9.27
   4  -7   3  304.16    8.42
   4  -7   4  306.71    8.55
   4  -7   5  217.98    6.74
   4  -7   5  182.89    6.78
   4  -7   6  466.84   12.02
   4  -7   6  470.86   12.37
   4  -7   6  476.61   12.42
   4  -7   7  215.16    7.01
   4  -7   7  216.82    6.45
   4  -7   7  228.80    7.23
   4  -7   7  211.68    6.84
   4  -7   8   46.55    2.92
   4  -7   8   47.62    2.65
   4  -7   9   88.86    3.29
   4  -7   9   97.53    3.94
   4  -7  10   35.52    2.10
   4  -7  11   35.23    1.58
   4  -6   0 1752.12   34.72
   4  -6   1  501.73   11.65
   4  -6   2  178.86    5.44
   4  -6   2  167.20    5.03
   4  -6   3  647.49   14.57
   4  -6   4 1234.70   25.66
   4  -6   5  149.42    5.37
   4  -6   6  296.68    8.60
   4  -6   6  297.07    8.40
   4  -6   6  307.69    8.90
   4  -6   6  312.77    8.99
   4  -6   7   68.46    3.80
   4  -6   7   67.18    3.26
   4  -6   7   65.14    3.09
   4  -6   7   71.06    3.55
   4  -6   8   35.38    2.74
   4  -6   8   34.14    2.27
   4  -6   8   34.25    2.35
   4  -6   9  272.31    7.89
   4  -6  10   64.32    3.00
   4  -6  11   80.24    2.76
   4  -5   1  134.03    4.11
   4  -5   2  381.97    9.01
   4  -5   3  340.43    8.53
   4  -5   3  359.64    9.17
   4  -5   4 1431.88   29.16
   4  -5   4 1435.15   29.67
   4  -5   4 1462.16   29.70
   4  -5   5   17.57    1.77
   4  -5   5   19.01    1.88
   4  -5   5   14.03    1.82
   4  -5   6  754.64   17.36
   4  -5   6  814.99   18.04
   4  -5   6  753.61   16.89
   4  -5   6  796.90   17.65
   4  -5   7  141.46    4.99
   4  -5   7  145.09    5.45
   4  -5   7  135.05    5.39
   4  -5   7  134.10    4.92
   4  -5   7  147.23    5.26
   4  -5   8  339.92    9.04
   4  -5   8  361.63    9.89
   4  -5   9   32.57    2.50
   4  -5  10   20.75    1.83
   4  -5  11  143.65    4.07
   4  -4  -1  130.75    5.90
   4  -4   0   58.80    4.00
   4  -4   1  325.30   11.06
   4  -4   2 1427.64   28.36
   4  -4   2 1500.74   29.10
   4  -4   2 1473.77   29.09
   4  -4   3  363.60    8.63
   4  -4   3  365.73    9.14
   4  -4   3  370.49    9.20
   4  -4   4  267.18    7.12
   4  -4   4  272.03    7.57
   4  -4   5  385.09    9.79
   4  -4   5  379.51    9.97
   4  -4   5  372.04    9.19
   4  -4   5  388.16    9.86
   4  -4   6 1565.22   32.31
   4  -4   6 1605.71   32.64
   4  -4   6 1579.26   32.82
   4  -4   6 1599.54   32.06
   4  -4   6 1567.90   31.94
   4  -4   6 1587.01   32.48
   4  -4   7  273.83    7.90
   4  -4   7  276.76    8.32
   4  -4   7  275.22    8.00
   4  -4   7  284.07    7.92
   4  -4   8  780.36   17.69
   4  -4   8  728.04   16.30
   4  -4   9    7.03    1.54
   4  -4  10   51.03    2.35
   4  -4  10   54.84    2.73
   4  -4  11   82.73    2.69
   4  -3  -3  303.89   10.86
   4  -3  -2 1261.07   28.76
   4  -3  -2 1365.84   30.54
   4  -3  -1   47.35    3.40
   4  -3  -1   41.58    1.82
   4  -3   0  147.40    3.48
   4  -3   0  160.99    3.56
   4  -3   1 1927.66   37.79
   4  -3   1 1815.61   33.08
   4  -3   1 1833.98   33.08
   4  -3   2 1567.35   30.15
   4  -3   2 1557.63   30.10
   4  -3   3 1393.82   28.00
   4  -3   3 1378.99   27.95
   4  -3   3 1387.51   27.96
   4  -3   4  488.58   11.46
   4  -3   4  471.20   11.36
   4  -3   5  473.54   11.57
   4  -3   5  474.67   11.46
   4  -3   5  466.68   11.32
   4  -3   5  476.58   11.51
   4  -3   6  602.08   14.50
   4  -3   6  608.34   14.39
   4  -3   6  634.22   14.70
   4  -3   6  627.25   14.50
   4  -3   7 1413.56   29.12
   4  -3   7 1393.69   28.78
   4  -3   8  266.49    8.17
   4  -3   9   10.09    1.72
   4  -3  10   30.93    1.76
   4  -3  10   33.24    2.06
   4  -2  -3  253.20    7.84
   4  -2  -3  258.66    8.56
   4  -2  -3  246.49    8.11
   4  -2  -2   70.72    3.58
   4  -2  -1   91.25    4.21
   4  -2   0  510.83   11.27
   4  -2   0  513.14   13.30
   4  -2   1  839.12   17.16
   4  -2   1  831.58   18.35
   4  -2   1  810.34   16.93
   4  -2   1  832.10   17.01
   4  -2   2 2219.94   45.12
   4  -2   2 2099.93   43.10
   4  -2   2 2094.96   40.75
   4  -2   2 2077.67   40.72
   4  -2   3  542.44   12.48
   4  -2   3  566.99   15.99
   4  -2   3  571.43   15.24
   4  -2   3  538.67   11.94
   4  -2   4  338.69    8.83
   4  -2   4  343.96    8.62
   4  -2   4  336.56    8.75
   4  -2   4  337.82    8.27
   4  -2   4  341.57    8.79
   4  -2   5  455.11   11.17
   4  -2   5  455.11   11.09
   4  -2   5  422.22   11.02
   4  -2   6  747.25   17.25
   4  -2   6  736.52   16.65
   4  -2   7  467.02   12.20
   4  -2   7  445.06   10.92
   4  -2   8  357.79    9.98
   4  -2   9    3.57    1.21
   4  -2   9    2.34    1.18
   4  -2   9    2.49    0.92
   4  -2  10   51.90    2.01
   4  -1  -4 1029.34   24.15
   4  -1  -4 1047.07   24.55
   4  -1  -3  787.87   17.61
   4  -1  -3  823.93   19.70
   4  -1  -2  532.67   13.28
   4  -1  -2  518.11   13.55
   4  -1  -1  523.42   13.76
   4  -1   0    4.27    1.36
   4  -1   0    6.43    0.99
   4  -1   1   55.75    2.50
   4  -1   1   61.65    3.92
   4  -1   1   62.14    2.62
   4  -1   1   60.38    2.48
   4  -1   2  275.12    9.67
   4  -1   2  269.52    9.01
   4  -1   2  272.12    9.97
   4  -1   2  268.07    7.14
   4  -1   2  272.85    6.95
   4  -1   2  280.24    7.11
   4  -1   3  392.83    9.80
   4  -1   3  399.15   12.49
   4  -1   3  389.93    9.32
   4  -1   3  386.91    9.68
   4  -1   3  396.93    9.39
   4  -1   4  133.39    4.72
   4  -1   4  136.53    4.81
   4  -1   4  130.85    4.40
   4  -1   5  367.79    9.87
   4  -1   5  358.77    9.56
   4  -1   6 1193.64   25.66
   4  -1   6 1157.81   24.64
   4  -1   7   42.85    3.09
   4  -1   8    5.45    1.26
   4  -1   8    5.40    1.55
   4  -1   8    5.51    1.61
   4  -1   9  105.62    3.71
   4   0  -4  491.81   14.24
   4   0  -3  226.43    5.71
   4   0  -3  239.10    8.56
   4   0  -2   54.72    2.75
   4   0  -2   58.58    2.34
   4   0  -1  523.56   12.85
   4   0  -1  529.75   14.37
   4   0  -1  526.16   11.56
   4   0  -1  544.29   12.88
   4   0  -1  529.14   14.47
   4   0  -1  524.40   11.55
   4   0   0  282.05    7.02
   4   0   0  275.60    8.90
   4   0   0  292.67    7.22
   4   0   0  304.99    8.80
   4   0   1  188.94    7.72
   4   0   1  188.57    7.70
   4   0   1  190.64    5.47
   4   0   2  223.17    6.01
   4   0   2  228.32    6.33
   4   0   2  224.21    6.01
   4   0   2  223.87    6.49
   4   0   3  811.66   17.75
   4   0   3  842.11   18.10
   4   0   3  808.65   17.71
   4   0   4  130.12    4.91
   4   0   4  123.73    4.48
   4   0   4  135.13    4.97
   4   0   5  794.30   17.89
   4   0   5  749.84   17.18
   4   0   5  746.03   16.49
   4   0   6  355.62   10.15
   4   0   6  366.88   10.32
   4   0   7  140.30    5.13
   4   0   7  122.59    4.32
   4   0   8   31.70    2.14
   4   0   8   26.41    1.70
   4   0   9   38.01    1.64
   4   1 -10   33.81    2.10
   4   1  -9    2.08    1.02
   4   1  -8  204.57    6.17
   4   1  -6   43.03    2.44
   4   1  -6   43.93    2.36
   4   1  -5   75.81    3.08
   4   1  -5   75.50    3.22
   4   1  -4  103.85    3.72
   4   1  -3   92.79    3.23
   4   1  -2  767.79   18.39
   4   1  -2  769.37   16.41
   4   1  -2  785.78   16.40
   4   1  -2  795.99   20.04
   4   1  -1 1243.12   28.27
   4   1  -1 1193.05   26.88
   4   1  -1 1209.15   24.63
   4   1  -1 1212.90   24.53
   4   1  -1 1207.80   24.36
   4   1  -1 1202.45   27.94
   4   1   0  120.44    5.65
   4   1   0  121.41    4.30
   4   1   0  129.59    5.95
   4   1   0  120.67    4.22
   4   1   1  198.71    6.03
   4   1   1  206.91    5.89
   4   1   1  208.00    6.23
   4   1   1  198.41    5.82
   4   1   2  389.90    9.81
   4   1   2  391.26   10.04
   4   1   2  379.51    9.31
   4   1   2  381.74    9.31
   4   1   3  190.86    6.24
   4   1   3  181.89    5.65
   4   1   4   56.01    3.56
   4   1   4   48.81    2.73
   4   1   5  444.06   11.69
   4   1   5  452.20   11.86
   4   1   5  419.07   10.64
   4   1   6   68.85    3.37
   4   1   6   73.87    3.74
   4   1   6   64.73    3.62
   4   1   6   65.74    2.91
   4   1   7    5.17    1.32
   4   1   7    4.66    1.14
   4   2 -11  141.73    4.07
   4   2 -11  144.21    4.19
   4   2 -10   43.83    2.67
   4   2 -10   41.45    2.32
   4   2  -9   82.43    3.49
   4   2  -9   88.37    3.92
   4   2  -8  186.52    6.19
   4   2  -7   42.06    2.59
   4   2  -7   41.86    2.82
   4   2  -6  107.47    4.26
   4   2  -6   96.11    3.76
   4   2  -6   99.90    3.95
   4   2  -5  152.66    5.31
   4   2  -5  157.91    5.12
   4   2  -5  150.69    5.19
   4   2  -4    2.87    1.11
   4   2  -4    3.18    0.80
   4   2  -3  640.44   14.28
   4   2  -3  673.49   14.78
   4   2  -3  647.94   14.95
   4   2  -2  348.54    8.85
   4   2  -2  346.32    8.64
   4   2  -2  346.69    9.01
   4   2  -2  365.11    9.27
   4   2  -1    4.92    1.18
   4   2  -1    4.24    1.14
   4   2  -1    4.95    1.24
   4   2  -1    3.66    1.20
   4   2   0  266.67    7.70
   4   2   0  266.63    7.39
   4   2   0  265.45    7.49
   4   2   1   50.20    2.60
   4   2   1   51.48    3.05
   4   2   1   47.48    2.63
   4   2   2  521.81   12.58
   4   2   3  171.86    5.95
   4   2   3  157.57    6.29
   4   2   4  477.19   12.37
   4   2   4  447.94   11.91
   4   2   4  463.34   12.53
   4   2   5   89.36    4.12
   4   2   5   85.61    4.01
   4   2   5   90.81    4.25
   4   2   6  174.18    5.31
   4   2   6  189.10    5.66
   4   2   6  178.71    5.56
   4   2   7   11.64    1.07
   4   3 -12   59.59    2.10
   4   3 -11    7.98    1.11
   4   3 -11    7.62    1.15
   4   3 -11    7.10    0.88
   4   3 -10  168.01    5.76
   4   3 -10  168.80    5.42
   4   3  -9   85.71    4.24
   4   3  -9   85.22    3.79
   4   3  -9   83.84    3.96
   4   3  -8  116.66    4.63
   4   3  -8  124.20    4.99
   4   3  -8  119.49    5.00
   4   3  -7  394.36   10.64
   4   3  -7  399.63   10.75
   4   3  -6   14.63    1.94
   4   3  -6   14.65    2.01
   4   3  -5   97.13    4.33
   4   3  -5   98.71    4.37
   4   3  -5   97.19    4.14
   4   3  -4  117.41    4.57
   4   3  -4  116.76    4.51
   4   3  -4  115.62    4.63
   4   3  -3  664.96   15.46
   4   3  -3  665.63   15.25
   4   3  -2  886.88   19.47
   4   3  -2  904.98   19.58
   4   3  -2  874.98   19.06
   4   3  -2  871.52   19.29
   4   3  -1  468.30   11.58
   4   3  -1  482.37   12.06
   4   3  -1  477.60   11.85
   4   3   0  139.42    4.78
   4   3   0  146.41    5.68
   4   3   0  140.16    5.14
   4   3   1  283.73    8.21
   4   3   1  291.06    7.89
   4   3   1  305.92    9.10
   4   3   2  385.41   10.03
   4   3   3  114.27    5.01
   4   3   3  113.30    4.49
   4   3   3  103.73    4.97
   4   3   4  146.58    5.46
   4   3   4  148.58    5.09
   4   3   4  145.90    5.52
   4   3   5   27.34    1.97
   4   3   5   27.31    1.84
   4   3   6   51.44    1.91
   4   4 -11   11.32    1.27
   4   4 -11   10.89    1.27
   4   4 -11   12.03    1.13
   4   4 -10  116.73    4.51
   4   4 -10  118.85    4.38
   4   4  -9  405.26   10.34
   4   4  -9  440.41   11.09
   4   4  -8   44.88    2.95
   4   4  -8   45.78    3.13
   4   4  -8   42.42    3.05
   4   4  -7  347.36    9.87
   4   4  -7  333.53    9.38
   4   4  -7  349.76    9.81
   4   4  -7  345.65    9.95
   4   4  -7  351.29    9.83
   4   4  -6  209.71    7.19
   4   4  -6  203.91    6.76
   4   4  -6  220.29    6.93
   4   4  -5  206.44    6.69
   4   4  -5  224.38    7.21
   4   4  -5  221.75    6.88
   4   4  -4  844.59   18.86
   4   4  -4  833.50   18.65
   4   4  -4  834.87   18.07
   4   4  -3  147.08    5.54
   4   4  -3  142.98    5.23
   4   4  -3  136.40    4.67
   4   4  -2  580.28   13.89
   4   4  -2  571.49   13.67
   4   4  -2  567.47   13.34
   4   4  -1  399.73   10.44
   4   4  -1  420.26   11.31
   4   4  -1  421.46   10.98
   4   4   0  355.43    9.86
   4   4   0  365.16   10.21
   4   4   1   39.38    2.45
   4   4   1   41.11    3.00
   4   4   2    8.83    1.74
   4   4   2    7.73    1.20
   4   4   3   30.25    1.86
   4   4   4   69.57    2.90
   4   4   4   60.70    2.30
   4   5 -11  200.04    4.95
   4   5 -10   49.62    2.61
   4   5 -10   46.35    2.48
   4   5  -9   37.05    2.36
   4   5  -9   41.64    2.66
   4   5  -8  349.22    9.59
   4   5  -8  358.23    9.49
   4   5  -8  359.86    9.56
   4   5  -7   69.97    3.83
   4   5  -7   62.26    3.46
   4   5  -7   67.73    3.49
   4   5  -7   69.61    3.63
   4   5  -6   72.81    4.01
   4   5  -6   71.42    3.51
   4   5  -6   76.15    3.72
   4   5  -5   98.68    4.60
   4   5  -5   99.22    4.70
   4   5  -5   90.17    3.93
   4   5  -4  241.00    7.72
   4   5  -4  233.95    6.68
   4   5  -3  618.58   14.95
   4   5  -3  627.42   15.65
   4   5  -2  243.35    7.17
   4   5  -2  243.45    7.90
   4   5  -2  232.58    7.00
   4   5  -1  126.59    5.12
   4   5  -1  132.01    4.96
   4   5   0   11.21    1.50
   4   5   0   13.58    1.84
   4   5   1   95.27    3.98
   4   5   2  130.47    4.43
   4   6 -10   22.55    1.40
   4   6  -9   80.45    3.23
   4   6  -9   87.94    3.34
   4   6  -8   10.35    1.51
   4   6  -8    9.51    1.21
   4   6  -8    8.83    1.28
   4   6  -8    8.75    1.31
   4   6  -7   85.20    3.76
   4   6  -7   87.18    3.58
   4   6  -6  164.07    5.82
   4   6  -6  171.54    5.89
   4   6  -6  156.52    5.06
   4   6  -5  295.74    8.50
   4   6  -5  302.39    8.86
   4   6  -4  115.19    4.50
   4   6  -4  112.96    4.84
   4   6  -3   35.50    2.24
   4   6  -3   41.93    2.85
   4   6  -2   44.61    2.70
   4   6  -1   12.88    1.38
   4   6  -1   12.13    1.25
   4   6   0  100.98    3.42
   4   6   1   17.52    1.15
   4   7  -9    2.74    0.63
   4   7  -8   21.34    1.50
   4   7  -7   68.80    2.87
   4   7  -7   65.29    2.71
   4   7  -6    5.44    1.12
   4   7  -6    4.85    1.13
   4   7  -5  231.78    6.10
   4   7  -4   68.39    2.99
   4   7  -3   43.39    2.17
   5 -10   2   84.46    2.72
   5 -10   3   51.10    1.92
   5 -10   3   61.02    2.37
   5 -10   4   53.18    2.18
   5 -10   4   58.17    2.44
   5 -10   5   23.10    1.39
   5 -10   5   25.56    1.54
   5 -10   6  170.55    4.54
   5 -10   6  162.09    4.44
   5  -9   0    2.04    0.82
   5  -9   1   11.22    1.44
   5  -9   2   68.76    2.89
   5  -9   2   73.22    3.30
   5  -9   3   15.17    1.62
   5  -9   3   17.21    1.82
   5  -9   4   34.36    1.97
   5  -9   4   38.83    2.43
   5  -9   4   36.51    2.58
   5  -9   5   46.56    2.32
   5  -9   5   51.09    2.81
   5  -9   6   21.82    1.61
   5  -9   6   22.27    1.69
   5  -9   6   21.54    1.89
   5  -9   6   19.73    1.88
   5  -9   6   22.00    1.89
   5  -9   7    7.91    1.29
   5  -9   7   11.28    1.26
   5  -9   8   79.75    2.70
   5  -9   8   80.59    2.69
   5  -8   1    9.57    1.36
   5  -8   2   11.14    1.63
   5  -8   3  469.61   11.35
   5  -8   3  494.88   12.17
   5  -8   3  498.52   12.44
   5  -8   4   27.54    2.04
   5  -8   4   29.88    2.51
   5  -8   4   26.43    2.48
   5  -8   5  189.12    5.94
   5  -8   5  203.25    6.62
   5  -8   6   42.72    2.55
   5  -8   6   44.32    2.68
   5  -8   6   43.78    2.85
   5  -8   7   28.35    1.92
   5  -8   7   31.57    2.41
   5  -8   7   29.24    2.18
   5  -8   8   70.01    2.92
   5  -8   8   63.00    2.76
   5  -8   9  112.95    3.44
   5  -8   9   97.95    3.01
   5  -7   0   51.51    2.63
   5  -7   2  159.37    5.62
   5  -7   3  305.17    8.22
   5  -7   3  312.16    8.98
   5  -7   3  330.14    9.21
   5  -7   4  570.71   13.48
   5  -7   4  592.27   14.36
   5  -7   4  590.58   14.46
   5  -7   5   78.14    3.60
   5  -7   5   80.95    4.17
   5  -7   5   75.12    4.12
   5  -7   6  122.10    4.66
   5  -7   6  121.83    4.82
   5  -7   6  125.24    5.02
   5  -7   7  236.89    6.99
   5  -7   7  254.01    7.73
   5  -7   7  252.13    7.42
   5  -7   8   49.87    2.66
   5  -7   8   49.76    2.69
   5  -7   8   48.61    2.61
   5  -7   9   37.83    2.11
   5  -7   9   35.49    1.75
   5  -7  10   64.16    2.30
   5  -6   0  718.85   15.81
   5  -6   1  299.54    8.19
   5  -6   2  176.40    5.85
   5  -6   3   50.26    2.60
   5  -6   3   56.07    3.17
   5  -6   3   52.24    3.13
   5  -6   4   65.73    3.13
   5  -6   4   70.04    3.71
   5  -6   4   66.42    3.68
   5  -6   5  487.93   12.12
   5  -6   5  523.84   12.82
   5  -6   5  498.48   12.85
   5  -6   5  496.37   12.94
   5  -6   5  513.78   12.83
   5  -6   6  161.16    5.75
   5  -6   6  158.53    5.84
   5  -6   7  104.46    4.24
   5  -6   7  104.66    4.34
   5  -6   7  103.87    4.42
   5  -6   8   14.98    1.73
   5  -6   8   16.54    1.68
   5  -6   9   33.38    2.15
   5  -6  10    1.55    0.72
   5  -5   0  242.55    6.58
   5  -5   1    7.84    1.26
   5  -5   2  116.87    4.37
   5  -5   2  115.99    4.43
   5  -5   3  329.48    9.11
   5  -5   3  346.39    9.17
   5  -5   4  186.66    5.81
   5  -5   4  204.32    6.64
   5  -5   4  203.02    6.63
   5  -5   4  211.56    6.72
   5  -5   5  203.13    6.77
   5  -5   5  215.02    6.94
   5  -5   6  227.07    7.26
   5  -5   6  237.57    7.21
   5  -5   6  235.17    7.56
   5  -5   6  249.48    7.60
   5  -5   7  266.31    7.80
   5  -5   7  278.79    7.99
   5  -5   7  269.10    7.92
   5  -5   7  262.74    7.89
   5  -5   8   45.45    2.77
   5  -5   8   44.37    2.52
   5  -5   9   56.23    2.79
   5  -5  10  183.81    4.68
   5  -5  10  150.63    4.16
   5  -4   0  215.87    5.87
   5  -4   0  218.13    5.95
   5  -4   1  328.43    8.31
   5  -4   1  334.95    8.38
   5  -4   2  141.97    4.83
   5  -4   2  143.13    4.83
   5  -4   3  384.50    9.73
   5  -4   3  375.19    9.65
   5  -4   3  395.82    9.78
   5  -4   4  203.99    6.62
   5  -4   4  204.05    5.99
   5  -4   4  213.81    6.74
   5  -4   5  104.73    4.53
   5  -4   5   98.41    4.03
   5  -4   5  103.50    4.45
   5  -4   6  449.86   11.75
   5  -4   6  453.74   11.57
   5  -4   6  458.29   11.77
   5  -4   6  462.57   11.73
   5  -4   7  101.95    4.41
   5  -4   7  107.02    4.37
   5  -4   8   12.56    1.72
   5  -4   8   10.96    1.34
   5  -4   9   85.52    3.45
   5  -4  10   44.59    1.81
   5  -4  10   54.20    2.07
   5  -3   0  794.86   16.77
   5  -3   0  826.28   17.04
   5  -3   1  364.55    8.78
   5  -3   1  353.61    8.65
   5  -3   1  362.33    8.89
   5  -3   2  159.83    5.28
   5  -3   2  160.40    5.15
   5  -3   2  159.09    5.13
   5  -3   3  289.06    7.94
   5  -3   4 1976.52   39.00
   5  -3   4 1970.69   38.98
   5  -3   4 1839.99   37.91
   5  -3   4 1952.13   38.16
   5  -3   5 1849.17   36.84
   5  -3   5 1781.57   36.17
   5  -3   5 1787.53   36.73
   5  -3   5 1783.91   35.66
   5  -3   6  614.01   14.59
   5  -3   6  612.57   14.68
   5  -3   7   59.24    3.34
   5  -3   7   52.32    2.92
   5  -3   8    1.45    1.17
   5  -3   9   19.10    1.60
   5  -3   9   22.65    1.77
   5  -3   9   20.79    1.56
   5  -2  -2  661.70   17.22
   5  -2  -1  813.31   16.99
   5  -2  -1  800.74   20.16
   5  -2  -1  812.42   16.95
   5  -2   0  522.22   11.87
   5  -2   0  514.38   14.89
   5  -2   0  541.19   11.94
   5  -2   0  511.37   11.57
   5  -2   1  262.64    7.28
   5  -2   1  277.53    7.39
   5  -2   1  277.06    7.21
   5  -2   2  213.72    6.41
   5  -2   2  209.95    6.22
   5  -2   3  318.38    8.68
   5  -2   3  310.06    8.29
   5  -2   4 1437.97   29.76
   5  -2   4 1473.52   30.55
   5  -2   4 1497.95   29.88
   5  -2   5  550.80   13.35
   5  -2   5  576.77   13.71
   5  -2   5  544.46   12.72
   5  -2   6   33.32    2.57
   5  -2   6   32.41    2.45
   5  -2   7   20.26    2.04
   5  -2   7   19.03    1.71
   5  -2   8   65.28    3.10
   5  -2   8   67.94    3.32
   5  -2   8   68.77    3.21
   5  -2   9   53.01    2.32
   5  -1  -2  129.18    4.01
   5  -1  -1  225.80    6.01
   5  -1  -1  225.40    6.15
   5  -1   0  228.50    6.36
   5  -1   0  227.54    8.53
   5  -1   0  234.82    6.52
   5  -1   1  481.20   11.48
   5  -1   1  484.13   11.55
   5  -1   1  483.01   11.42
   5  -1   2   92.30    3.77
   5  -1   3  116.19    4.67
   5  -1   3  114.11    4.38
   5  -1   4  164.76    5.56
   5  -1   4  182.81    6.15
   5  -1   4  168.83    5.61
   5  -1   5  458.89   11.59
   5  -1   5  448.63   11.74
   5  -1   6   22.46    2.16
   5  -1   6   18.08    1.86
   5  -1   7   18.89    1.55
   5  -1   7   22.36    2.12
   5  -1   8  116.20    3.88
   5   0  -9  183.07    5.40
   5   0  -8   38.68    2.32
   5   0  -6  537.35   12.53
   5   0  -5  468.74   11.01
   5   0  -4  345.05    8.29
   5   0  -3   60.21    2.68
   5   0  -2  420.27   10.13
   5   0  -2  446.60   10.39
   5   0  -1  328.76    8.34
   5   0  -1  315.44    8.29
   5   0   0  895.46   19.36
   5   0   1  272.17    7.65
   5   0   2  101.64    4.34
   5   0   2   96.74    4.10
   5   0   2   94.87    3.76
   5   0   3   72.03    3.57
   5   0   3   83.19    4.05
   5   0   3   77.48    3.27
   5   0   4  100.28    4.55
   5   0   5   90.39    4.56
   5   0   6    6.01    1.30
   5   0   6    6.80    1.58
   5   0   6    3.92    1.46
   5   0   7   41.19    2.38
   5   0   7   39.08    2.33
   5   0   8  116.10    3.38
   5   1 -10   27.78    1.92
   5   1 -10   25.05    1.58
   5   1  -9  104.93    4.14
   5   1  -8  287.27    8.16
   5   1  -7 1423.45   29.20
   5   1  -6   90.36    3.98
   5   1  -6   81.11    3.41
   5   1  -6   82.31    3.67
   5   1  -5  186.50    5.86
   5   1  -5  184.44    6.12
   5   1  -4  324.18    8.32
   5   1  -4  353.57    9.04
   5   1  -4  339.53    9.20
   5   1  -3  150.62    4.93
   5   1  -3  155.16    5.25
   5   1  -3  155.94    5.48
   5   1  -2  362.77    9.31
   5   1  -2  370.51    9.76
   5   1  -1   93.16    3.93
   5   1  -1   92.17    3.83
   5   1  -1   87.38    3.61
   5   1  -1   90.85    3.86
   5   1  -1   90.27    3.99
   5   1   0  256.92    7.67
   5   1   0  249.93    7.47
   5   1   0  258.43    7.48
   5   1   0  257.65    7.50
   5   1   1  835.63   18.41
   5   1   1  833.54   18.64
   5   1   1  802.72   18.04
   5   1   1  789.60   17.97
   5   1   2  262.93    7.97
   5   1   2  280.62    8.48
   5   1   2  255.57    7.34
   5   1   3   42.53    2.82
   5   1   3   39.38    3.12
   5   1   4  194.96    6.47
   5   1   4  181.19    6.82
   5   1   5   11.99    1.70
   5   1   5   12.97    1.70
   5   1   5   12.93    1.97
   5   1   6  160.86    5.00
   5   1   6  169.50    5.23
   5   1   6  164.27    5.34
   5   1   7   33.32    1.63
   5   2 -11   78.78    2.54
   5   2 -11   92.33    2.90
   5   2 -10    4.50    1.23
   5   2 -10    4.63    1.04
   5   2  -9   66.11    3.15
   5   2  -9   73.65    3.49
   5   2  -8   23.61    1.96
   5   2  -8   22.49    2.25
   5   2  -7  146.57    5.47
   5   2  -7  151.22    5.76
   5   2  -6  217.11    7.02
   5   2  -6  215.07    6.63
   5   2  -6  217.53    6.86
   5   2  -5  105.47    4.57
   5   2  -5  105.32    4.37
   5   2  -5  104.06    4.58
   5   2  -4  299.43    8.53
   5   2  -4  297.41    8.76
   5   2  -3 1240.09   25.86
   5   2  -3 1242.06   26.32
   5   2  -2  809.59   18.33
   5   2  -2  792.01   17.87
   5   2  -2  834.96   18.71
   5   2  -1 1279.15   27.24
   5   2  -1 1256.58   27.10
   5   2  -1 1324.95   27.41
   5   2  -1 1322.65   27.55
   5   2   0 1098.36   23.94
   5   2   0 1187.20   24.85
   5   2   0 1157.66   24.46
   5   2   0 1116.72   24.47
   5   2   1  705.52   16.47
   5   2   1  642.82   15.35
   5   2   2   35.99    2.37
   5   2   2   34.25    3.06
   5   2   3  107.76    4.31
   5   2   4  138.80    5.16
   5   2   4  126.74    4.62
   5   2   4  124.64    5.14
   5   2   5  256.12    6.99
   5   2   5  262.87    6.79
   5   2   5  258.53    7.20
   5   2   6   37.85    1.59
   5   3 -11   11.42    1.03
   5   3 -11   12.12    1.15
   5   3 -11    9.94    0.84
   5   3 -10  119.48    4.33
   5   3 -10  121.43    4.16
   5   3  -9    9.70    1.26
   5   3  -9   12.51    1.63
   5   3  -9   10.90    1.71
   5   3  -8   22.06    2.05
   5   3  -8   21.77    2.25
   5   3  -7   88.32    4.25
   5   3  -7   98.73    4.55
   5   3  -6  123.76    5.17
   5   3  -5   19.25    2.27
   5   3  -5   18.88    2.21
   5   3  -4   18.14    2.21
   5   3  -4   19.12    2.17
   5   3  -4   21.53    2.26
   5   3  -3 1089.23   23.44
   5   3  -3 1066.68   22.93
   5   3  -3 1037.65   22.24
   5   3  -2  811.83   18.08
   5   3  -2  805.29   18.32
   5   3  -1  494.19   12.27
   5   3  -1  493.41   12.70
   5   3  -1  504.99   12.68
   5   3   0  225.36    7.47
   5   3   1  320.52    8.80
   5   3   1  344.36    9.90
   5   3   1  355.98   10.05
   5   3   2   12.73    1.91
   5   3   2   13.39    2.07
   5   3   3   39.53    2.05
   5   3   4    9.44    1.26
   5   3   4    8.41    0.88
   5   4 -11    9.51    0.91
   5   4 -11    9.96    0.95
   5   4 -11    9.52    0.82
   5   4 -10  112.85    3.87
   5   4  -9  268.77    7.28
   5   4  -9  293.49    7.88
   5   4  -8    6.18    1.47
   5   4  -8    4.83    1.09
   5   4  -8    3.93    1.46
   5   4  -8    5.91    1.52
   5   4  -8    5.75    1.49
   5   4  -7   70.92    3.77
   5   4  -7   66.95    3.50
   5   4  -7   69.26    3.55
   5   4  -7   70.22    3.63
   5   4  -6  163.64    6.08
   5   4  -6  166.56    6.15
   5   4  -6  159.86    5.60
   5   4  -6  165.90    6.16
   5   4  -6  168.96    5.83
   5   4  -5   33.36    2.80
   5   4  -5   26.20    2.03
   5   4  -5   29.53    2.60
   5   4  -5   28.48    2.28
   5   4  -4  146.37    5.64
   5   4  -4  137.29    5.34
   5   4  -4  137.11    4.78
   5   4  -3  161.52    5.83
   5   4  -3  144.37    5.22
   5   4  -2   37.44    2.60
   5   4  -2   41.84    3.07
   5   4  -2   35.99    2.43
   5   4  -1   81.98    3.45
   5   4  -1   89.04    4.17
   5   4  -1   80.80    3.81
   5   4   0   70.21    3.40
   5   4   0   83.68    3.87
   5   4   1    7.00    1.48
   5   4   2   15.88    1.63
   5   5 -10   56.50    2.28
   5   5  -9  280.24    7.28
   5   5  -9  294.53    7.42
   5   5  -9  305.30    7.55
   5   5  -8   66.85    3.14
   5   5  -8   54.73    2.56
   5   5  -8   59.67    2.81
   5   5  -8   71.88    3.10
   5   5  -7  419.51   10.49
   5   5  -7  386.82   10.09
   5   5  -7  382.41    9.58
   5   5  -7  409.11    9.97
   5   5  -6   48.37    3.03
   5   5  -6   44.27    2.93
   5   5  -6   46.00    2.54
   5   5  -5   27.90    2.38
   5   5  -5   26.96    2.53
   5   5  -5   26.21    1.78
   5   5  -4   44.26    2.79
   5   5  -4   40.40    2.96
   5   5  -3   38.17    2.44
   5   5  -3   38.99    2.84
   5   5  -2  373.16    9.61
   5   5  -2  343.77    8.52
   5   5  -1   22.06    1.80
   5   5  -1   23.31    1.73
   5   5   0   69.20    2.89
   5   5   1   59.86    2.38
   5   6  -9   16.78    1.08
   5   6  -8  180.46    5.08
   5   6  -7   16.41    1.45
   5   6  -6   32.32    2.07
   5   6  -6   31.57    2.10
   5   6  -5  108.38    3.86
   5   6  -4    5.97    0.99
   5   6  -4    7.78    1.33
   5   6  -3  126.49    4.23
   5   6  -2   12.40    1.09
   6 -10   2    4.11    0.65
   6 -10   3  101.42    3.08
   6 -10   4   90.00    2.80
   6 -10   4   84.61    2.68
   6 -10   5  227.25    5.42
   6  -9   1  129.10    3.91
   6  -9   2   61.26    2.73
   6  -9   3  110.11    3.71
   6  -9   3  115.40    4.06
   6  -9   4  121.01    4.32
   6  -9   4  118.28    4.06
   6  -9   4  120.21    4.27
   6  -9   4  128.52    4.30
   6  -9   5   11.98    1.41
   6  -9   5   12.20    1.39
   6  -9   6  434.21    9.87
   6  -9   6  434.79   10.11
   6  -9   6  438.73   10.06
   6  -9   7  131.87    3.98
   6  -9   7  132.82    3.90
   6  -8   0  133.45    4.34
   6  -8   1  414.97   10.25
   6  -8   2   99.59    3.83
   6  -8   2  101.73    4.16
   6  -8   3  217.76    6.57
   6  -8   3  216.28    6.73
   6  -8   4    9.97    1.62
   6  -8   4   10.54    1.74
   6  -8   5   12.55    1.76
   6  -8   5   12.48    1.74
   6  -8   5   12.81    1.76
   6  -8   6   67.92    3.18
   6  -8   6   68.43    3.29
   6  -8   6   67.01    3.26
   6  -8   7    4.87    1.00
   6  -8   7    5.60    1.15
   6  -8   8   27.50    1.62
   6  -7   0   66.21    3.16
   6  -7   1  299.06    8.02
   6  -7   1  315.52    8.55
   6  -7   2  199.46    6.32
   6  -7   2  201.71    6.58
   6  -7   3   95.48    4.23
   6  -7   3   90.26    4.20
   6  -7   4   80.20    4.14
   6  -7   4   80.70    3.92
   6  -7   4   79.44    3.92
   6  -7   4   76.72    3.96
   6  -7   5  115.88    4.83
   6  -7   5  113.69    4.82
   6  -7   6  117.14    4.59
   6  -7   6  107.91    3.92
   6  -7   6  125.24    4.83
   6  -7   6  119.95    4.68
   6  -7   7   91.87    3.61
   6  -7   7   84.27    3.22
   6  -7   7   92.02    3.81
   6  -7   7   90.36    3.73
   6  -7   8   29.77    1.63
   6  -7   8   30.49    1.90
   6  -6   0   72.01    3.28
   6  -6   1  229.45    6.77
   6  -6   1  244.19    7.08
   6  -6   2  767.34   17.43
   6  -6   2  780.18   17.57
   6  -6   3   12.15    1.78
   6  -6   3   13.13    1.84
   6  -6   3   14.71    1.96
   6  -6   4    2.34    1.67
   6  -6   4    4.29    1.50
   6  -6   4    2.16    1.47
   6  -6   4    1.90    1.47
   6  -6   5  119.94    4.95
   6  -6   5  113.55    4.94
   6  -6   6  193.36    6.42
   6  -6   6  184.67    5.71
   6  -6   6  201.38    6.66
   6  -6   6  205.37    6.61
   6  -6   7  121.50    4.52
   6  -6   7  125.28    4.26
   6  -6   7  130.42    4.76
   6  -6   8    3.14    0.89
   6  -6   8    3.92    1.02
   6  -5   0  220.68    6.31
   6  -5   1  200.42    6.17
   6  -5   1  215.84    6.33
   6  -5   2  157.34    5.48
   6  -5   2  163.34    5.54
   6  -5   2  157.19    5.57
   6  -5   3   45.06    2.90
   6  -5   3   42.93    2.93
   6  -5   4 1046.09   22.87
   6  -5   4 1052.66   22.79
   6  -5   4 1006.32   22.69
   6  -5   5    3.68    1.55
   6  -5   5    3.54    1.67
   6  -5   6  238.43    7.61
   6  -5   6  243.02    6.93
   6  -5   6  259.99    7.80
   6  -5   6  251.35    7.65
   6  -5   7  118.11    4.23
   6  -5   7  123.19    4.62
   6  -5   8   15.88    1.40
   6  -5   8   13.62    1.35
   6  -4  -1  266.44    7.12
   6  -4   0  659.48   14.71
   6  -4   1  109.13    4.46
   6  -4   1  108.10    4.05
   6  -4   1  104.23    3.93
   6  -4   1  114.15    4.28
   6  -4   2  114.41    4.72
   6  -4   2  112.91    4.50
   6  -4   3   24.27    2.24
   6  -4   4   23.27    2.46
   6  -4   4   27.57    2.54
   6  -4   4   25.09    2.42
   6  -4   5 1317.05   28.03
   6  -4   5 1330.80   28.05
   6  -4   5 1286.69   26.86
   6  -4   6   34.62    2.25
   6  -4   6   36.52    2.71
   6  -4   7  114.16    4.16
   6  -4   7  120.10    4.45
   6  -4   8   98.13    3.41
   6  -4   9   64.09    2.42
   6  -4   9   59.05    2.25
   6  -3  -2  255.47    6.87
   6  -3  -1   33.74    2.21
   6  -3  -1   34.41    2.12
   6  -3   0  371.92    9.44
   6  -3   0  350.28    9.23
   6  -3   0  357.76    8.94
   6  -3   1  290.19    8.15
   6  -3   1  289.66    8.09
   6  -3   1  279.31    7.78
   6  -3   2   61.35    3.30
   6  -3   2   62.68    3.37
   6  -3   2   51.97    3.02
   6  -3   3  488.71   12.04
   6  -3   3  492.35   12.37
   6  -3   4  459.78   12.42
   6  -3   4  495.34   12.58
   6  -3   4  484.18   11.89
   6  -3   5  446.75   11.67
   6  -3   5  423.82   10.55
   6  -3   6  459.53   11.17
   6  -3   6  477.70   11.86
   6  -3   7  297.98    7.65
   6  -3   7  288.55    7.73
   6  -3   8   23.09    1.80
   6  -2  -1 1199.83   24.44
   6  -2  -1 1170.22   24.47
   6  -2   0  501.05   12.13
   6  -2   0  516.64   12.28
   6  -2   1   88.95    3.91
   6  -2   1   81.68    3.82
   6  -2   1   84.46    3.80
   6  -2   2  242.43    7.66
   6  -2   2  249.97    7.72
   6  -2   2  257.76    7.54
   6  -2   3  488.67   12.46
   6  -2   3  469.10   11.93
   6  -2   4  336.06    9.75
   6  -2   4  351.91    9.29
   6  -2   5  121.10    4.40
   6  -2   5  132.28    5.19
   6  -2   6  265.73    7.28
   6  -2   6  281.10    7.87
   6  -2   7   71.73    3.41
   6  -2   8   19.89    1.41
   6  -1  -6   27.29    2.11
   6  -1  -5  193.87    5.84
   6  -1  -4  625.50   13.94
   6  -1  -3  492.96   11.72
   6  -1  -2  187.32    5.69
   6  -1  -2  193.45    6.00
   6  -1  -1  381.97    9.85
   6  -1  -1  392.58   10.04
   6  -1   0  258.56    7.61
   6  -1   1  275.17    8.12
   6  -1   1  277.11    8.04
   6  -1   2   18.85    2.14
   6  -1   2   14.94    1.76
   6  -1   3   58.55    3.49
   6  -1   3   58.05    3.35
   6  -1   4  693.22   16.23
   6  -1   4  740.09   16.97
   6  -1   5    1.00    1.18
   6  -1   6    4.54    1.30
   6  -1   6    4.62    1.51
   6  -1   7   54.14    2.52
   6  -1   7   57.09    2.67
   6   0 -10   85.08    2.77
   6   0  -9   85.89    3.31
   6   0  -8   17.15    1.66
   6   0  -7  279.14    7.55
   6   0  -6   46.30    2.81
   6   0  -5  266.76    7.63
   6   0  -5  272.14    8.10
   6   0  -4  204.95    6.03
   6   0  -4  208.58    6.64
   6   0  -3  187.73    5.94
   6   0  -2  429.97   10.89
   6   0  -2  456.47   11.19
   6   0  -1  127.71    4.84
   6   0  -1  116.54    4.26
   6   0  -1  123.48    4.79
   6   0   0  193.38    6.68
   6   0   0  199.25    6.35
   6   0   0  209.68    6.73
   6   0   1    3.51    1.63
   6   0   1    3.30    1.47
   6   0   1    3.60    1.35
   6   0   2  157.57    6.11
   6   0   2  163.99    5.92
   6   0   2  157.04    5.44
   6   0   2  148.92    5.17
   6   0   3  156.22    6.03
   6   0   3  159.74    6.23
   6   0   4  109.30    4.47
   6   0   4  105.04    4.90
   6   0   5  121.25    4.44
   6   0   5  104.77    4.58
   6   0   6   10.22    1.17
   6   0   6   10.17    1.25
   6   0   6   10.19    1.44
   6   1 -10  179.03    4.95
   6   1 -10  163.89    4.47
   6   1  -9   22.29    1.63
   6   1  -9   24.70    1.89
   6   1  -8  487.78   11.98
   6   1  -7   97.64    4.10
   6   1  -7   92.31    3.79
   6   1  -6   39.81    2.83
   6   1  -6   37.62    2.43
   6   1  -6   38.43    2.71
   6   1  -5  334.67    9.32
   6   1  -5  354.09    9.79
   6   1  -4  232.22    6.83
   6   1  -4  239.81    7.49
   6   1  -4  248.18    7.83
   6   1  -3  317.48    8.67
   6   1  -3  307.96    9.06
   6   1  -2  414.87   11.10
   6   1  -2  448.37   11.79
   6   1  -1   66.23    3.54
   6   1  -1   56.56    3.04
   6   1  -1   61.26    3.58
   6   1  -1   58.83    3.45
   6   1   0  307.93    9.07
   6   1   0  339.05    9.38
   6   1   0  334.52    9.38
   6   1   1   42.46    3.15
   6   1   1   42.77    2.81
   6   1   1   43.44    2.75
   6   1   2  521.69   12.18
   6   1   2  523.33   13.49
   6   1   2  514.08   12.25
   6   1   3   27.57    2.03
   6   1   3   32.23    2.72
   6   1   4   91.95    3.98
   6   1   4   87.05    3.47
   6   1   5   11.16    1.33
   6   1   5   11.75    1.14
   6   1   5   11.94    1.49
   6   2 -10   78.95    3.03
   6   2 -10   77.97    2.84
   6   2  -9   26.09    1.89
   6   2  -9   29.01    2.07
   6   2  -8   45.33    2.56
   6   2  -8   51.06    3.02
   6   2  -7  147.58    5.44
   6   2  -7  152.88    5.77
   6   2  -6  121.43    5.12
   6   2  -6  123.09    4.76
   6   2  -6  114.53    4.88
   6   2  -5  115.07    4.99
   6   2  -5  107.95    4.73
   6   2  -5  110.51    4.99
   6   2  -4  246.82    7.93
   6   2  -4  257.18    8.20
   6   2  -3  295.34    8.86
   6   2  -2   62.12    3.56
   6   2  -2   57.95    3.13
   6   2  -2   61.96    3.64
   6   2  -2   67.59    3.86
   6   2  -1   31.26    2.50
   6   2  -1   28.37    2.28
   6   2  -1   30.82    2.67
   6   2  -1   30.89    2.68
   6   2   0   47.31    2.73
   6   2   0   46.82    3.09
   6   2   0   50.86    3.13
   6   2   1  121.86    5.11
   6   2   1  116.10    4.41
   6   2   2  233.73    7.38
   6   2   3  115.78    4.59
   6   2   4   33.88    2.02
   6   3 -10   40.15    1.92
   6   3  -9   41.50    1.98
   6   3  -9   47.89    2.58
   6   3  -9   47.00    2.43
   6   3  -9   50.40    2.56
   6   3  -8   51.87    2.80
   6   3  -8   51.92    2.97
   6   3  -8   55.91    3.08
   6   3  -8   56.31    3.02
   6   3  -7  185.07    6.28
   6   3  -7  185.86    6.10
   6   3  -7  197.42    6.29
   6   3  -6  218.66    7.20
   6   3  -6  218.22    7.26
   6   3  -6  226.35    6.97
   6   3  -5   55.40    3.31
   6   3  -5   46.86    2.85
   6   3  -4   45.96    3.15
   6   3  -4   41.28    2.82
   6   3  -4   43.99    2.55
   6   3  -4   43.24    3.10
   6   3  -3   46.19    3.07
   6   3  -3   44.40    2.77
   6   3  -3   52.13    3.26
   6   3  -2   91.06    4.15
   6   3  -2  101.02    4.03
   6   3  -2  101.97    4.52
   6   3  -1   57.26    2.94
   6   3  -1   60.86    3.20
   6   3   0   44.83    2.60
   6   3   0   47.76    2.90
   6   3   1   61.41    3.19
   6   3   2   57.67    2.79
   6   4 -10  362.25    8.15
   6   4 -10  388.51    8.20
   6   4  -9  168.52    4.68
   6   4  -9  168.75    4.69
   6   4  -8  123.04    4.28
   6   4  -8  125.97    4.19
   6   4  -8  134.53    4.35
   6   4  -7   51.91    2.87
   6   4  -7   48.70    2.71
   6   4  -7   47.84    2.47
   6   4  -7   51.62    2.91
   6   4  -7   54.82    2.74
   6   4  -6  440.08   11.27
   6   4  -6  470.73   11.19
   6   4  -6  455.52   10.65
   6   4  -5   25.09    2.31
   6   4  -5   24.86    2.35
   6   4  -5   23.34    1.70
   6   4  -5   25.34    2.13
   6   4  -4   11.89    1.77
   6   4  -3  111.17    4.37
   6   4  -3  124.15    4.90
   6   4  -2  125.20    4.24
   6   4  -2  127.66    4.82
   6   4  -1   36.28    2.21
   6   4  -1   37.58    2.11
   6   4   0  184.63    5.27
   6   4   1   35.36    1.80
   6   5  -8   18.10    1.35
   6   5  -8   15.63    1.08
   6   5  -7   39.20    2.02
   6   5  -7   38.18    1.72
   6   5  -6   55.84    2.67
   6   5  -6   55.90    2.68
   6   5  -5   54.79    2.63
   6   5  -5   52.44    2.73
   6   5  -4   78.05    3.07
   6   5  -4   83.71    3.45
   6   5  -3   71.76    3.03
   6   5  -2   15.14    1.21
   7  -9   1   69.43    2.60
   7  -9   2  259.47    6.38
   7  -9   2  229.86    5.66
   7  -9   3  101.02    3.16
   7  -9   3  104.85    3.32
   7  -9   4   42.90    2.14
   7  -9   4   39.51    1.94
   7  -9   4   36.14    1.90
   7  -9   5  377.74    8.62
   7  -9   5  366.26    8.56
   7  -9   5  381.60    8.57
   7  -9   6   11.55    0.93
   7  -9   6   12.19    1.06
   7  -8  -1   27.24    1.57
   7  -8   1  243.73    6.27
   7  -8   2  605.08   13.70
   7  -8   2  626.03   13.88
   7  -8   3   21.87    1.63
   7  -8   3   20.47    1.76
   7  -8   4   80.09    3.60
   7  -8   4   85.94    3.51
   7  -8   5  135.13    4.54
   7  -8   5  130.02    4.51
   7  -8   5  131.38    4.42
   7  -8   6    6.01    1.09
   7  -8   7   87.56    3.01
   7  -7   1    4.37    1.05
   7  -7   1    3.57    1.08
   7  -7   2  403.78   10.37
   7  -7   2  362.40    9.30
   7  -7   2  382.31    9.60
   7  -7   2  387.42    9.84
   7  -7   3  152.52    5.75
   7  -7   3  159.75    5.33
   7  -7   4   79.20    3.86
   7  -7   4   82.21    3.77
   7  -7   5   48.87    2.85
   7  -7   5   46.76    2.78
   7  -7   6   12.02    1.52
   7  -7   6   10.33    1.50
   7  -7   7   84.23    3.19
   7  -6  -2  123.07    4.21
   7  -6   0  166.36    5.23
   7  -6   0  169.68    5.23
   7  -6   1  181.44    6.41
   7  -6   1  183.12    5.88
   7  -6   2  329.12    9.41
   7  -6   2  315.12    8.85
   7  -6   3  714.15   16.98
   7  -6   3  725.83   16.61
   7  -6   4  462.89   12.06
   7  -6   4  482.11   12.01
   7  -6   5  139.73    5.24
   7  -6   5  135.91    4.54
   7  -6   5  130.56    5.10
   7  -6   6   94.53    3.92
   7  -6   6   95.99    4.07
   7  -6   7   37.02    2.16
   7  -6   8  167.78    4.25
   7  -5  -2  588.74   13.39
   7  -5  -1  136.47    4.93
   7  -5   0  158.02    5.64
   7  -5   0  153.28    5.21
   7  -5   0  155.62    5.05
   7  -5   1  206.39    6.76
   7  -5   1  189.61    6.41
   7  -5   1  200.23    6.30
   7  -5   2  548.50   14.07
   7  -5   2  583.65   14.01
   7  -5   2  570.70   13.71
   7  -5   3  860.38   19.71
   7  -5   3  866.06   19.77
   7  -5   3  870.60   19.43
   7  -5   4   72.44    3.54
   7  -5   4   79.23    3.87
   7  -5   5  124.77    5.01
   7  -5   5  134.55    5.24
   7  -5   5  126.88    4.42
   7  -5   6   91.62    3.95
   7  -5   7   27.70    1.84
   7  -4  -1  137.30    4.90
   7  -4  -1  129.70    4.51
   7  -4   0  389.14   10.07
   7  -4   0  368.27    9.69
   7  -4   0  357.60    9.29
   7  -4   1   44.03    2.91
   7  -4   1   39.86    2.74
   7  -4   1   44.82    2.72
   7  -4   2   52.64    3.29
   7  -4   2   52.14    3.25
   7  -4   2   51.13    3.10
   7  -4   3  183.05    6.58
   7  -4   3  188.68    6.64
   7  -4   3  191.99    6.38
   7  -4   4  385.42   10.08
   7  -4   5   20.61    2.25
   7  -4   5   23.51    1.83
   7  -4   6  139.42    4.93
   7  -4   7   57.32    2.53
   7  -4   8   27.30    1.52
   7  -3  -4 1260.28   25.73
   7  -3  -1  120.76    4.44
   7  -3  -1  109.31    4.24
   7  -3   0  842.99   18.61
   7  -3   0  818.99   18.61
   7  -3   1   97.59    4.36
   7  -3   1   99.97    4.43
   7  -3   1   90.58    4.33
   7  -3   2  312.88    9.08
   7  -3   2  308.33    9.16
   7  -3   2  313.81    8.95
   7  -3   3   17.53    2.04
   7  -3   4  438.82   11.46
   7  -3   4  419.51   10.81
   7  -3   5   14.69    1.47
   7  -3   5   19.18    2.06
   7  -3   6   64.61    3.08
   7  -3   7   33.72    2.04
   7  -2  -6   66.35    3.00
   7  -2  -4  286.06    7.65
   7  -2  -3  361.41    9.46
   7  -2  -2   81.74    3.42
   7  -2  -2   88.99    4.00
   7  -2  -1   67.29    3.36
   7  -2  -1   72.78    3.69
   7  -2   0  201.94    6.60
   7  -2   0  192.56    6.65
   7  -2   1   26.62    2.46
   7  -2   1   24.88    2.45
   7  -2   2  154.23    5.86
   7  -2   2  150.42    5.63
   7  -2   3  342.64    9.51
   7  -2   4   38.61    2.80
   7  -2   4   33.35    2.30
   7  -2   5   39.04    2.59
   7  -2   6    3.74    1.04
   7  -2   7  120.71    3.48
   7  -2   7  125.82    3.71
   7  -1  -8    3.44    0.85
   7  -1  -6   84.84    3.68
   7  -1  -5    5.95    1.24
   7  -1  -4  237.13    6.77
   7  -1  -3   10.79    1.56
   7  -1  -2  439.08   11.13
   7  -1  -2  484.68   11.85
   7  -1  -1  112.05    4.58
   7  -1  -1  111.57    4.70
   7  -1   0  290.57    8.63
   7  -1   0  282.38    7.92
   7  -1   1  402.36   11.15
   7  -1   1  395.19   10.94
   7  -1   1  406.30   10.69
   7  -1   2  518.12   12.77
   7  -1   2  495.79   12.39
   7  -1   2  478.91   11.89
   7  -1   3  880.02   19.54
   7  -1   3  911.39   20.21
   7  -1   3  938.02   20.26
   7  -1   4  126.62    5.04
   7  -1   5    9.96    1.26
   7  -1   5    8.19    1.53
   7  -1   6   24.93    1.36
   7  -1   6   30.66    1.52
   7   0  -9  147.84    4.24
   7   0  -8   20.52    1.69
   7   0  -7   27.13    1.92
   7   0  -6  138.09    5.07
   7   0  -6  127.71    4.43
   7   0  -6  131.84    4.94
   7   0  -5  282.96    8.34
   7   0  -5  312.32    8.87
   7   0  -4  483.13   11.91
   7   0  -4  521.33   12.78
   7   0  -4  520.63   13.16
   7   0  -3  199.43    6.49
   7   0  -3  211.32    6.95
   7   0  -2  631.80   15.09
   7   0  -2  624.54   15.62
   7   0  -1   47.15    3.15
   7   0  -1   52.62    3.42
   7   0  -1   48.83    3.31
   7   0   0  359.91    9.61
   7   0   0  383.98   10.25
   7   0   0  360.18   10.17
   7   0   1  309.02    8.96
   7   0   1  303.49    8.66
   7   0   1  298.49    8.62
   7   0   1  293.02    8.39
   7   0   2  438.95   11.28
   7   0   2  423.27   10.54
   7   0   3  110.42    4.58
   7   0   4   35.37    1.87
   7   0   4   38.74    2.50
   7   0   5   26.54    1.59
   7   0   5   23.61    1.68
   7   1  -9   31.75    1.95
   7   1  -9   26.35    1.49
   7   1  -9   31.18    1.79
   7   1  -8  126.09    4.41
   7   1  -7   52.83    2.84
   7   1  -7   57.77    3.16
   7   1  -6  243.22    7.43
   7   1  -6  235.27    6.85
   7   1  -6  245.97    7.36
   7   1  -5  128.85    5.16
   7   1  -5  119.14    4.79
   7   1  -5  124.13    5.14
   7   1  -4    2.76    1.45
   7   1  -4    4.33    1.57
   7   1  -3  120.52    4.78
   7   1  -3  125.16    5.17
   7   1  -2  282.61    8.50
   7   1  -2  290.43    8.82
   7   1  -2  300.52    9.01
   7   1  -1  311.84    8.32
   7   1  -1  326.64    9.46
   7   1   0   96.39    4.01
   7   1   0   96.95    4.06
   7   1   0   97.32    4.26
   7   1   0   90.03    4.13
   7   1   1  433.51   11.01
   7   1   1  428.25   10.62
   7   1   2   55.36    3.01
   7   1   3  221.53    6.42
   7   1   4  181.88    4.98
   7   1   4  184.92    5.11
   7   2  -9   36.18    1.94
   7   2  -9   35.28    1.76
   7   2  -9   35.73    1.87
   7   2  -8  103.51    3.58
   7   2  -8  113.56    4.04
   7   2  -8  116.21    4.05
   7   2  -7   12.50    1.55
   7   2  -7   12.56    1.69
   7   2  -7   15.53    1.70
   7   2  -6  182.66    6.03
   7   2  -6  174.12    6.02
   7   2  -5  161.28    5.71
   7   2  -5  160.31    5.61
   7   2  -4  142.68    5.58
   7   2  -4  148.66    5.43
   7   2  -4  157.70    5.61
   7   2  -3  166.15    5.86
   7   2  -3  154.99    5.36
   7   2  -2   46.62    2.91
   7   2  -2   42.47    2.34
   7   2  -2   45.90    3.00
   7   2  -1   29.97    2.16
   7   2  -1   30.16    2.39
   7   2   0    0.36    0.90
   7   2   1  183.28    5.70
   7   2   2   63.60    2.82
   7   3  -9   86.56    2.76
   7   3  -9   94.16    2.90
   7   3  -8   59.84    2.48
   7   3  -8   61.93    2.49
   7   3  -8   62.75    2.67
   7   3  -8   67.13    2.66
   7   3  -7   10.73    1.41
   7   3  -7    9.54    1.23
   7   3  -7   10.97    1.20
   7   3  -7   11.92    1.51
   7   3  -7   12.31    1.32
   7   3  -6   22.26    1.98
   7   3  -6   23.16    1.94
   7   3  -6   18.51    1.42
   7   3  -6   20.72    1.81
   7   3  -6   19.26    1.61
   7   3  -5  177.80    5.84
   7   3  -5  183.64    5.64
   7   3  -5  168.58    4.98
   7   3  -4  157.95    5.28
   7   3  -4  142.42    4.77
   7   3  -3   29.50    2.18
   7   3  -2   41.30    2.25
   7   3  -2   39.06    2.49
   7   3  -1   88.40    3.42
   7   3  -1   97.03    3.30
   7   3   0  210.76    5.59
   7   3   1   96.22    3.01
   7   4  -7   72.39    2.65
   7   4  -7   57.26    2.24
   7   4  -6  168.18    4.88
   7   4  -6  165.38    4.85
   7   4  -5   69.84    2.86
   7   4  -5   70.76    3.01
   7   4  -4  259.86    6.66
   7   4  -4  272.04    7.02
   7   4  -3   86.60    2.84
   7   4  -3  103.89    3.49
   7   4  -2   18.72    1.24
   8  -9   3  181.38    4.50
   8  -8   0   26.48    1.40
   8  -8   1   89.39    3.14
   8  -8   2   57.64    2.54
   8  -8   2   51.14    2.02
   8  -8   3  145.45    4.25
   8  -8   3  147.49    4.23
   8  -8   4   65.28    2.58
   8  -8   4   67.31    2.49
   8  -8   5   89.70    3.04
   8  -8   5   90.97    3.03
   8  -7   0   45.51    2.35
   8  -7   1   10.31    1.42
   8  -7   2  114.79    4.25
   8  -7   2  108.99    3.86
   8  -7   2  106.76    3.74
   8  -7   3  134.43    4.71
   8  -7   3  129.35    4.42
   8  -7   3  129.36    4.32
   8  -7   4  223.12    6.23
   8  -7   4  211.96    5.89
   8  -7   5   27.95    1.86
   8  -7   5   27.50    1.81
   8  -7   5   23.59    1.35
   8  -7   6  123.81    3.78
   8  -6  -3   45.48    1.98
   8  -6  -1  182.67    5.32
   8  -6   0  211.58    6.32
   8  -6   1   59.93    3.09
   8  -6   1   57.11    2.81
   8  -6   1   57.87    2.67
   8  -6   2   95.26    4.10
   8  -6   2   94.16    3.94
   8  -6   2   96.19    3.77
   8  -6   3  238.48    7.14
   8  -6   3  233.35    7.01
   8  -6   3  232.83    6.85
   8  -6   4   19.32    1.92
   8  -6   4   15.85    1.54
   8  -6   5   27.50    1.60
   8  -6   6  216.43    5.79
   8  -5  -3  122.28    4.07
   8  -5  -1  183.81    5.58
   8  -5   0    1.10    1.04
   8  -5   0    2.21    0.95
   8  -5   1   78.19    3.73
   8  -5   1   78.00    3.57
   8  -5   2  523.52   12.98
   8  -5   2  519.79   12.81
   8  -5   2  533.25   12.98
   8  -5   3   69.82    3.60
   8  -5   3   64.93    3.46
   8  -5   3   73.32    3.47
   8  -5   4   17.98    1.90
   8  -5   4   14.63    1.51
   8  -5   5   79.21    3.39
   8  -5   5   70.41    2.69
   8  -5   6   37.51    2.01
   8  -4  -3  153.12    5.02
   8  -4  -2  137.17    5.00
   8  -4  -1   91.22    3.69
   8  -4  -1  100.05    4.26
   8  -4   0  267.94    7.75
   8  -4   0  256.62    7.51
   8  -4   1   92.86    4.12
   8  -4   1   84.22    3.92
   8  -4   2   17.15    2.06
   8  -4   2   16.54    2.04
   8  -4   2   19.42    2.10
   8  -4   3  411.32   10.87
   8  -4   3  421.92   10.59
   8  -4   4  120.31    4.27
   8  -4   5    2.52    1.14
   8  -4   5    2.90    0.71
   8  -4   6   72.40    2.75
   8  -3  -3   23.79    2.00
   8  -3  -2   28.69    2.31
   8  -3  -1  259.86    7.40
   8  -3  -1  290.14    8.27
   8  -3   0   60.47    3.26
   8  -3   0   60.44    3.46
   8  -3   1  186.15    6.20
   8  -3   1  163.61    6.00
   8  -3   2   97.76    4.35
   8  -3   2  101.05    4.31
   8  -3   3   84.31    3.94
   8  -3   3   77.99    3.61
   8  -3   4   34.38    2.46
   8  -3   4   32.86    2.05
   8  -3   4   32.08    1.81
   8  -3   5  186.06    5.55
   8  -3   5  198.26    5.71
   8  -3   6  358.64    8.00
   8  -3   6  385.17    8.47
   8  -2  -6    0.03    0.76
   8  -2  -5  258.83    7.42
   8  -2  -4  650.59   14.45
   8  -2  -4  675.89   15.14
   8  -2  -3  204.73    6.31
   8  -2  -2   73.48    3.62
   8  -2  -1    3.28    1.14
   8  -2  -1    4.97    1.53
   8  -2   0   35.91    2.62
   8  -2   0   36.15    2.77
   8  -2   1   25.95    2.37
   8  -2   1   25.19    2.38
   8  -2   1   23.26    1.86
   8  -2   1   23.28    2.20
   8  -2   2   79.93    3.86
   8  -2   2   85.15    3.85
   8  -2   2   74.76    3.45
   8  -2   3   41.75    2.50
   8  -2   3   39.71    2.52
   8  -2   3   41.09    2.23
   8  -2   4   44.64    2.08
   8  -2   4   45.78    2.52
   8  -2   5   92.98    2.85
   8  -2   5  116.32    3.62
   8  -1  -6  103.10    3.78
   8  -1  -6  105.55    3.83
   8  -1  -5  338.66    8.85
   8  -1  -5  377.61    9.61
   8  -1  -4  522.06   12.23
   8  -1  -4  550.23   13.03
   8  -1  -4  557.04   13.48
   8  -1  -3   98.99    4.07
   8  -1  -3  100.60    4.40
   8  -1  -3   98.21    4.68
   8  -1  -2  167.42    5.81
   8  -1  -2  174.48    6.17
   8  -1  -2  171.54    6.34
   8  -1  -1   21.53    2.20
   8  -1  -1   18.23    2.27
   8  -1  -1   20.05    2.34
   8  -1   0  134.51    5.23
   8  -1   0  132.40    5.15
   8  -1   1   73.56    3.61
   8  -1   1   62.69    2.99
   8  -1   1   68.94    3.41
   8  -1   1   63.46    3.16
   8  -1   2    6.41    1.27
   8  -1   2    7.57    1.26
   8  -1   2    6.43    1.44
   8  -1   3   87.60    3.49
   8  -1   4   55.10    2.45
   8   0  -8   36.53    1.75
   8   0  -8   41.85    1.97
   8   0  -7   89.49    3.10
   8   0  -7  103.43    3.71
   8   0  -6    3.74    1.12
   8   0  -6    2.66    0.82
   8   0  -6    4.11    1.18
   8   0  -5   90.92    3.93
   8   0  -5   81.08    3.52
   8   0  -5   92.41    3.99
   8   0  -4  149.73    5.35
   8   0  -4  149.24    5.57
   8   0  -3  128.85    4.70
   8   0  -3  128.12    5.11
   8   0  -2  332.51    8.99
   8   0  -2  326.80    9.38
   8   0  -1   31.24    2.41
   8   0  -1   31.62    2.55
   8   0  -1   29.88    2.44
   8   0   0  194.50    6.09
   8   0   0  181.99    5.91
   8   0   1   14.62    1.41
   8   0   1   13.27    1.46
   8   0   2   14.62    1.41
   8   0   3   12.30    1.17
   8   1  -8    1.79    0.73
   8   1  -8    1.36    0.69
   8   1  -7   31.85    1.81
   8   1  -7   34.88    2.04
   8   1  -7   36.03    2.01
   8   1  -6    0.47    0.94
   8   1  -6    1.30    1.09
   8   1  -5   66.73    3.30
   8   1  -5   71.71    3.38
   8   1  -5   68.60    3.11
   8   1  -4   22.39    1.98
   8   1  -4   20.96    1.97
   8   1  -4   20.16    2.13
   8   1  -3    3.57    1.34
   8   1  -3    4.07    1.15
   8   1  -3    5.56    1.56
   8   1  -2   91.75    3.80
   8   1  -2   95.48    3.92
   8   1  -1  161.28    5.14
   8   1  -1  174.95    5.50
   8   1   0   20.85    1.67
   8   1   1   53.26    2.50
   8   1   2   16.38    1.25
   8   2  -8   59.83    2.06
   8   2  -7   52.09    2.16
   8   2  -7   52.35    2.11
   8   2  -6   65.54    2.83
   8   2  -6   66.49    2.77
   8   2  -6   64.28    2.49
   8   2  -5   39.37    2.16
   8   2  -5   36.79    1.78
   8   2  -4   20.87    1.76
   8   2  -4   18.41    1.47
   8   2  -3  177.52    5.34
   8   2  -2  130.34    4.06
   8   2  -1  126.78    3.84
   8   3  -6  189.10    4.77
   8   3  -5    6.14    0.89
   8   3  -5    6.26    0.91
   8   3  -4    8.59    0.91
   8   3  -4    8.72    1.03
   8   3  -3    5.38    0.80
   9  -7  -1  115.37    3.25
   9  -7   0   14.94    1.23
   9  -7   1  158.17    4.21
   9  -7   2   63.11    2.45
   9  -7   2   65.65    2.55
   9  -7   3   97.85    3.01
   9  -7   3  113.74    3.31
   9  -7   4   12.01    0.94
   9  -6  -2   10.47    0.95
   9  -6  -1  169.16    4.88
   9  -6   0   72.48    3.00
   9  -6   1  326.18    7.89
   9  -6   2   52.86    2.33
   9  -6   2   59.74    2.65
   9  -6   3    3.17    0.88
   9  -6   3    3.98    0.92
   9  -6   4   97.75    3.19
   9  -6   4   91.00    2.80
   9  -6   5   14.82    1.03
   9  -5  -4   61.43    2.19
   9  -5  -2   21.06    1.55
   9  -5  -1   23.71    1.82
   9  -5   0   22.63    1.85
   9  -5   1   92.01    3.35
   9  -5   2  130.65    4.34
   9  -5   2  137.48    4.53
   9  -5   3   28.04    1.87
   9  -5   3   27.59    1.78
   9  -5   4   17.36    1.39
   9  -5   4   15.60    1.08
   9  -4  -3   60.09    2.44
   9  -4  -3   60.69    2.58
   9  -4  -2  103.80    3.78
   9  -4  -1  192.83    5.87
   9  -4   0  235.00    6.35
   9  -4   0  263.08    7.19
   9  -4   1   48.41    2.51
   9  -4   2  180.72    5.44
   9  -4   2  185.90    5.51
   9  -4   3   51.30    2.54
   9  -4   3   51.57    2.40
   9  -4   4   17.16    1.41
   9  -3  -5  238.19    5.96
   9  -3  -4   18.46    1.34
   9  -3  -4   20.84    1.78
   9  -3  -3   47.14    2.27
   9  -3  -3   47.36    2.48
   9  -3  -2  498.90   11.66
   9  -3  -1  258.04    7.26
   9  -3   0  182.86    5.85
   9  -3   0  188.81    5.96
   9  -3   1  116.97    4.11
   9  -3   1  114.31    4.05
   9  -3   2   -0.26    0.95
   9  -3   2    0.74    0.84
   9  -3   2    0.47    0.88
   9  -3   3  164.92    4.45
   9  -3   3  139.55    3.94
   9  -2  -5   59.51    2.49
   9  -2  -5   59.32    2.58
   9  -2  -4  250.05    6.64
   9  -2  -4  271.35    7.24
   9  -2  -3   13.27    1.33
   9  -2  -3   14.04    1.57
   9  -2  -2   19.66    1.74
   9  -2  -2   22.00    1.93
   9  -2  -2   19.65    1.98
   9  -2  -1   40.12    2.44
   9  -2  -1   38.21    2.53
   9  -2   0   96.91    3.83
   9  -2   0   96.89    3.90
   9  -2   0   99.21    3.87
   9  -2   1  146.54    4.68
   9  -2   1  140.27    4.50
   9  -2   2   15.96    1.24
   9  -1  -6   29.58    1.45
   9  -1  -6   38.34    1.91
   9  -1  -5   20.04    1.55
   9  -1  -5   17.38    1.23
   9  -1  -5   19.88    1.59
   9  -1  -4   26.99    1.99
   9  -1  -4   26.96    1.79
   9  -1  -4   29.72    2.07
   9  -1  -3   54.06    2.72
   9  -1  -2  139.67    4.52
   9  -1  -2  135.15    4.72
   9  -1  -2  147.62    4.97
   9  -1  -1   11.47    1.41
   9  -1  -1   10.72    1.48
   9  -1  -1    7.51    1.37
   9  -1   0   52.41    2.54
   9  -1   0   52.58    2.45
   9  -1   1   17.32    1.31
   9   0  -6    7.42    0.84
   9   0  -6    8.12    0.90
   9   0  -5   18.99    1.46
   9   0  -5   21.61    1.55
   9   0  -4    4.17    0.98
   9   0  -4    4.47    1.01
   9   0  -4    4.93    1.15
   9   0  -3   43.92    2.34
   9   0  -3   41.11    2.03
   9   0  -3   44.11    2.28
   9   0  -3   44.09    2.44
   9   0  -2   65.90    2.77
   9   0  -2   56.31    2.66
   9   0  -1  208.51    5.51
   9   0  -1  217.10    5.77
   9   0   0   22.78    1.39
   9   1  -5   25.26    1.46
   9   1  -5   24.69    1.33
   9   1  -4    5.92    0.89
   9   1  -3  102.05    3.24
   9   1  -2   65.77    2.40
  10  -5  -2   81.65    2.61
  10  -5  -1    6.38    0.71
  10  -5  -1    6.46    0.76
  10  -5  -1    7.35    0.92
  10  -5   0    6.59    0.80
  10  -5   0    6.41    0.83
  10  -5   0    6.05    0.82
  10  -5   1    2.53    0.66
  10  -4  -3   84.92    2.69
  10  -4  -2   71.02    2.36
  10  -4  -1  175.22    4.58
  10  -4  -1  179.86    4.75
  10  -4  -1  183.65    4.89
  10  -4   0  121.15    3.51
  10  -4   0  111.15    3.40
  10  -4   1   76.54    2.55
  10  -3  -3   45.59    1.97
  10  -3  -2  245.35    5.97
  10  -3  -2  250.70    6.19
  10  -3  -1   73.26    2.54
  10  -3  -1   78.25    2.74
  10  -3  -1   77.94    2.75
  10  -3   0    2.91    0.71
  10  -3   0    3.88    0.74
  10  -2  -3   63.09    2.27
  10  -2  -2   69.78    2.47
  10  -2  -2   69.36    2.41
  10  -2  -2   67.39    2.47
  10  -2  -1   32.52    1.50
  10  -2  -1   29.41    1.51
   0   0   0    0.00    0.00


TITL liangxiao_LX-T-30_collect in P1
REM P1 (#1 in standard setting)
CELL 1.54184   8.218507   8.446456  10.202150 112.7062  95.0172 110.1650
ZERR    1.00   0.000182   0.000245   0.000277   0.0026   0.0020   0.0024
LATT -1
SFAC C H O
UNIT 26.00 29.00 10.00
TREF
HKLF 4
END
_computing_structure_solution     'SHELXT 2014/5 (Sheldrick, 2014)'
;
_shelx_hkl_checksum              34076
_olex2_submission_special_instructions 'No special instructions were received'
_oxdiff_exptl_absorpt_empirical_details
;
Empirical correction (ABSPACK) includes:
- Absorption correction using spherical harmonics
- Frame scaling
;
_oxdiff_exptl_absorpt_empirical_full_max 1.281
_oxdiff_exptl_absorpt_empirical_full_min 0.876
loop_
_space_group_symop_operation_xyz
'x, y, z'
loop_
_atom_site_label
_atom_site_type_symbol
_atom_site_fract_x
_atom_site_fract_y
_atom_site_fract_z
_atom_site_U_iso_or_equiv
_atom_site_adp_type
_atom_site_occupancy
_atom_site_site_symmetry_order
_atom_site_calc_flag
_atom_site_refinement_flags_posn
_atom_site_refinement_flags_adp
_atom_site_refinement_flags_occupancy
_atom_site_disorder_assembly
_atom_site_disorder_group
O15 O 0.60766(16) 0.71360(17) 0.51186(14) 0.0159(3) Uani 1 1 d . . . . .
O1 O 0.90391(17) 0.78364(18) 0.82917(14) 0.0199(3) Uani 1 1 d . . . . .
O19 O 0.27023(17) 0.68801(19) 0.63310(15) 0.0205(3) Uani 1 1 d . . . . .
H19 H 0.1745 0.6424 0.6511 0.031 Uiso 1 1 calc GR . . . .
O24 O 0.42666(19) 0.6462(2) 0.90716(15) 0.0243(3) Uani 1 1 d . . . . .
O12 O 0.93551(17) 0.51174(19) 0.69655(15) 0.0201(3) Uani 1 1 d . . . . .
O27 O 0.25556(18) 0.56050(19) 0.20728(15) 0.0204(3) Uani 1 1 d . . . . .
O22 O 0.5824(2) 0.8864(2) 0.86238(15) 0.0254(3) Uani 1 1 d . . . . .
O33 O 0.4726(2) 0.4359(2) 0.04837(15) 0.0255(3) Uani 1 1 d . . . . .
H33 H 0.4448 0.4964 0.0112 0.038 Uiso 1 1 calc GR . . . .
O13 O 0.84920(19) 0.2779(2) 0.46963(17) 0.0269(3) Uani 1 1 d . . . . .
O36 O 0.0174(2) 0.4256(2) 0.01776(17) 0.0322(4) Uani 1 1 d . . . . .
C10 C 0.6703(2) 0.6981(2) 0.6338(2) 0.0143(3) Uani 1 1 d . . . . .
C14 C 0.4206(2) 0.6386(2) 0.4414(2) 0.0152(3) Uani 1 1 d . . . . .
H14 H 0.3955 0.7464 0.4479 0.018 Uiso 1 1 calc R . . . .
C11 C 0.5494(2) 0.5776(2) 0.69350(19) 0.0139(4) Uani 1 1 d . . . . .
C9 C 0.8430(2) 0.7980(3) 0.7025(2) 0.0172(4) Uani 1 1 d . . . . .
C20 C 0.5104(3) 0.7050(3) 0.8312(2) 0.0181(4) Uani 1 1 d . . . . .
C12 C 0.3716(2) 0.4321(3) 0.5716(2) 0.0146(3) Uani 1 1 d . . . . .
C13 C 0.2947(2) 0.5447(3) 0.5165(2) 0.0165(4) Uani 1 1 d . . . . .
H13 H 0.1786 0.4579 0.4453 0.020 Uiso 1 1 calc R . . . .
C8 C 0.8122(2) 0.3513(3) 0.5817(2) 0.0183(4) Uani 1 1 d . . . . .
C4 C 0.2889(2) 0.2004(3) 0.2972(2) 0.0180(4) Uani 1 1 d . . . . .
C23 C 0.8515(2) 0.5968(3) 0.8064(2) 0.0173(4) Uani 1 1 d . . . . .
H23 H 0.8939 0.5946 0.8982 0.021 Uiso 1 1 calc R . . . .
C17 C 0.6314(3) 0.7587(3) 0.2369(2) 0.0217(4) Uani 1 1 d . . . . .
H17A H 0.7205 0.7772 0.1830 0.033 Uiso 1 1 calc GR . . . .
H17B H 0.6865 0.8346 0.3402 0.033 Uiso 1 1 calc GR . . . .
H17C H 0.5406 0.7945 0.2079 0.033 Uiso 1 1 calc GR . . . .
C22 C 0.6474(2) 0.4739(2) 0.7453(2) 0.0144(3) Uani 1 1 d . . . . .
H22 H 0.5993 0.4499 0.8236 0.017 Uiso 1 1 calc R . . . .
C19 C 0.2319(2) 0.3168(3) 0.6267(2) 0.0197(4) Uani 1 1 d . . . . .
H19A H 0.2872 0.2671 0.6784 0.029 Uiso 1 1 calc GR . . . .
H19B H 0.1364 0.2149 0.5445 0.029 Uiso 1 1 calc GR . . . .
H19C H 0.1846 0.3962 0.6916 0.029 Uiso 1 1 calc GR . . . .
C6 C 0.4805(2) 0.1721(2) 0.4911(2) 0.0165(4) Uani 1 1 d . . . . .
H6A H 0.5125 0.0901 0.4112 0.020 Uiso 1 1 calc R . . . .
H6B H 0.3797 0.0939 0.5129 0.020 Uiso 1 1 calc R . . . .
C16 C 0.5462(3) 0.5511(3) 0.2044(2) 0.0188(4) Uani 1 1 d . . . . .
C15 C 0.3823(2) 0.5084(2) 0.2741(2) 0.0166(4) Uani 1 1 d . . . . .
C1 C 0.1230(3) 0.4078(3) 0.0944(2) 0.0234(4) Uani 1 1 d . . . . .
C7 C 0.6394(2) 0.2868(2) 0.6267(2) 0.0156(4) Uani 1 1 d . . . . .
C3 C 0.2741(2) 0.2975(3) 0.2237(2) 0.0197(4) Uani 1 1 d . . . . .
C5 C 0.4268(2) 0.3015(2) 0.4443(2) 0.0150(4) Uani 1 1 d . . . . .
H5 H 0.5355 0.3845 0.4321 0.018 Uiso 1 1 calc R . . . .
C25 C 0.1689(3) -0.0065(3) 0.2394(2) 0.0269(5) Uani 1 1 d . . . . .
H25A H 0.1006 -0.0243 0.3082 0.040 Uiso 1 1 calc GR . . . .
H25B H 0.2410 -0.0771 0.2268 0.040 Uiso 1 1 calc GR . . . .
H25C H 0.0888 -0.0495 0.1467 0.040 Uiso 1 1 calc GR . . . .
C18 C 0.6878(3) 0.4889(3) 0.2459(2) 0.0228(4) Uani 1 1 d . . . . .
H18A H 0.6311 0.3604 0.2296 0.034 Uiso 1 1 calc GR . . . .
H18B H 0.7500 0.5677 0.3477 0.034 Uiso 1 1 calc GR . . . .
H18C H 0.7716 0.4993 0.1865 0.034 Uiso 1 1 calc GR . . . .
C21 C 0.9819(3) 0.9330(3) 0.6686(2) 0.0218(4) Uani 1 1 d . . . . .
H21A H 1.0175 1.0584 0.7445 0.033 Uiso 1 1 calc GR . . . .
H21B H 0.9341 0.9255 0.5761 0.033 Uiso 1 1 calc GR . . . .
H21C H 1.0841 0.9023 0.6633 0.033 Uiso 1 1 calc GR . . . .
C24 C 0.6568(3) 0.1625(3) 0.7001(2) 0.0215(4) Uani 1 1 d . . . . .
H24A H 0.6707 0.0556 0.6306 0.032 Uiso 1 1 calc GR . . . .
H24B H 0.5510 0.1200 0.7326 0.032 Uiso 1 1 calc GR . . . .
H24C H 0.7596 0.2343 0.7829 0.032 Uiso 1 1 calc GR . . . .
C2 C 0.1293(3) 0.2294(3) 0.0890(2) 0.0265(4) Uani 1 1 d . . . . .
H2A H 0.0152 0.1471 0.0928 0.032 Uiso 1 1 calc R . . . .
H2B H 0.1596 0.1622 0.0004 0.032 Uiso 1 1 calc R . . . .
C26 C 0.5347(5) 1.0072(4) 0.9816(3) 0.0450(7) Uani 1 1 d . . . . .
H26A H 0.4066 0.9626 0.9615 0.067 Uiso 1 1 calc GR . . . .
H26B H 0.5857 1.1333 0.9915 0.067 Uiso 1 1 calc GR . . . .
H26C H 0.5799 1.0063 1.0711 0.067 Uiso 1 1 calc GR . . . .
loop_
_atom_site_aniso_label
_atom_site_aniso_U_11
_atom_site_aniso_U_22
_atom_site_aniso_U_33
_atom_site_aniso_U_23
_atom_site_aniso_U_13
_atom_site_aniso_U_12
O15 0.0148(6) 0.0185(6) 0.0153(6) 0.0105(5) 0.0027(5) 0.0048(5)
O1 0.0226(6) 0.0152(6) 0.0167(6) 0.0077(5) -0.0028(5) 0.0032(5)
O19 0.0230(6) 0.0232(7) 0.0256(7) 0.0146(6) 0.0138(6) 0.0149(5)
O24 0.0347(8) 0.0316(8) 0.0216(7) 0.0177(6) 0.0161(6) 0.0214(6)
O12 0.0150(6) 0.0217(7) 0.0219(7) 0.0087(6) 0.0038(5) 0.0071(5)
O27 0.0231(6) 0.0204(6) 0.0184(7) 0.0101(6) 0.0003(5) 0.0094(5)
O22 0.0452(9) 0.0178(7) 0.0178(7) 0.0072(6) 0.0108(6) 0.0181(6)
O33 0.0409(8) 0.0238(7) 0.0143(7) 0.0089(6) 0.0062(6) 0.0157(6)
O13 0.0225(7) 0.0345(8) 0.0251(8) 0.0103(7) 0.0094(6) 0.0158(6)
O36 0.0304(8) 0.0330(8) 0.0314(8) 0.0171(7) -0.0060(7) 0.0111(7)
C10 0.0190(8) 0.0132(8) 0.0121(8) 0.0062(7) 0.0039(6) 0.0074(7)
C14 0.0161(8) 0.0155(8) 0.0156(8) 0.0075(7) 0.0029(7) 0.0078(7)
C11 0.0164(8) 0.0140(8) 0.0141(9) 0.0074(7) 0.0049(7) 0.0075(7)
C9 0.0198(9) 0.0162(8) 0.0158(9) 0.0081(8) 0.0022(7) 0.0069(7)
C20 0.0244(9) 0.0206(9) 0.0162(9) 0.0106(8) 0.0053(7) 0.0143(7)
C12 0.0133(7) 0.0159(8) 0.0172(8) 0.0091(7) 0.0052(6) 0.0066(6)
C13 0.0158(8) 0.0169(8) 0.0201(9) 0.0105(7) 0.0051(7) 0.0079(7)
C8 0.0172(8) 0.0193(9) 0.0208(9) 0.0096(8) 0.0036(7) 0.0097(7)
C4 0.0178(8) 0.0149(9) 0.0186(9) 0.0064(8) 0.0016(7) 0.0055(7)
C23 0.0173(8) 0.0159(8) 0.0184(9) 0.0082(7) 0.0028(7) 0.0063(7)
C17 0.0274(10) 0.0206(10) 0.0186(9) 0.0112(8) 0.0076(8) 0.0083(8)
C22 0.0157(8) 0.0145(8) 0.0156(8) 0.0085(7) 0.0039(6) 0.0072(6)
C19 0.0167(8) 0.0228(9) 0.0264(10) 0.0159(9) 0.0081(7) 0.0095(7)
C6 0.0169(8) 0.0132(8) 0.0190(9) 0.0071(7) 0.0030(7) 0.0064(7)
C16 0.0259(9) 0.0185(9) 0.0134(9) 0.0070(8) 0.0068(7) 0.0102(7)
C15 0.0192(8) 0.0170(9) 0.0154(9) 0.0089(7) 0.0018(7) 0.0083(7)
C1 0.0231(9) 0.0225(10) 0.0200(10) 0.0091(8) -0.0017(8) 0.0064(8)
C7 0.0147(8) 0.0143(8) 0.0186(9) 0.0081(7) 0.0037(7) 0.0060(7)
C3 0.0206(8) 0.0168(9) 0.0171(9) 0.0052(7) 0.0002(7) 0.0064(7)
C5 0.0140(8) 0.0126(8) 0.0166(9) 0.0063(7) 0.0019(7) 0.0042(6)
C25 0.0278(10) 0.0165(9) 0.0271(11) 0.0091(8) -0.0060(8) 0.0027(8)
C18 0.0257(10) 0.0253(10) 0.0227(10) 0.0119(8) 0.0110(8) 0.0138(8)
C21 0.0178(8) 0.0201(9) 0.0256(10) 0.0129(8) 0.0021(7) 0.0033(7)
C24 0.0239(9) 0.0175(9) 0.0235(10) 0.0103(8) 0.0013(7) 0.0089(7)
C2 0.0279(10) 0.0197(9) 0.0238(10) 0.0092(8) -0.0065(8) 0.0045(8)
C26 0.095(2) 0.0337(12) 0.0259(12) 0.0145(11) 0.0290(13) 0.0437(14)
loop_
_atom_type_symbol
_atom_type_description
_atom_type_scat_dispersion_real
_atom_type_scat_dispersion_imag
_atom_type_scat_source
C C 0.0181 0.0091 'International Tables Vol C Tables 4.2.6.8 and 6.1.1.4'
H H 0.0000 0.0000 'International Tables Vol C Tables 4.2.6.8 and 6.1.1.4'
O O 0.0492 0.0322 'International Tables Vol C Tables 4.2.6.8 and 6.1.1.4'
loop_
_geom_angle_atom_site_label_1
_geom_angle_atom_site_label_2
_geom_angle_atom_site_label_3
_geom_angle
_geom_angle_site_symmetry_1
_geom_angle_site_symmetry_3
_geom_angle_publ_flag
C10 O15 C14 123.58(13) . . ?
C23 O1 C9 112.80(14) . . ?
C13 O19 H19 109.5 . . ?
C8 O12 C23 111.33(14) . . ?
C1 O27 C15 111.76(14) . . ?
C20 O22 C26 115.38(17) . . ?
C16 O33 H33 109.5 . . ?
O15 C10 C11 122.48(14) . . ?
C9 C10 O15 117.82(15) . . ?
C9 C10 C11 119.67(15) . . ?
O15 C14 H14 106.3 . . ?
O15 C14 C13 114.26(13) . . ?
O15 C14 C15 110.44(14) . . ?
C13 C14 H14 106.3 . . ?
C13 C14 C15 112.65(14) . . ?
C15 C14 H14 106.3 . . ?
C10 C11 C20 109.38(15) . . ?
C10 C11 C12 109.28(13) . . ?
C10 C11 C22 110.01(14) . . ?
C20 C11 C12 111.02(14) . . ?
C20 C11 C22 106.35(13) . . ?
C12 C11 C22 110.76(13) . . ?
O1 C9 C21 114.32(15) . . ?
C10 C9 O1 117.01(15) . . ?
C10 C9 C21 128.58(16) . . ?
O24 C20 O22 122.86(19) . . ?
O24 C20 C11 123.27(17) . . ?
O22 C20 C11 113.82(15) . . ?
C13 C12 C11 107.16(13) . . ?
C13 C12 C5 109.52(14) . . ?
C19 C12 C11 113.16(15) . . ?
C19 C12 C13 109.64(15) . . ?
C19 C12 C5 111.08(15) . . ?
C5 C12 C11 106.13(14) . . ?
O19 C13 C14 107.79(14) . . ?
O19 C13 C12 111.98(15) . . ?
O19 C13 H13 108.8 . . ?
C14 C13 C12 110.56(14) . . ?
C14 C13 H13 108.8 . . ?
C12 C13 H13 108.8 . . ?
O12 C8 C7 109.06(16) . . ?
O13 C8 O12 121.42(17) . . ?
O13 C8 C7 129.43(18) . . ?
C3 C4 C5 119.12(16) . . ?
C3 C4 C25 121.56(16) . . ?
C25 C4 C5 119.31(16) . . ?
O1 C23 O12 106.90(14) . . ?
O1 C23 H23 109.6 . . ?
O1 C23 C22 114.79(14) . . ?
O12 C23 H23 109.6 . . ?
O12 C23 C22 106.30(14) . . ?
C22 C23 H23 109.6 . . ?
H17A C17 H17B 109.5 . . ?
H17A C17 H17C 109.5 . . ?
H17B C17 H17C 109.5 . . ?
C16 C17 H17A 109.5 . . ?
C16 C17 H17B 109.5 . . ?
C16 C17 H17C 109.5 . . ?
C11 C22 H22 108.6 . . ?
C23 C22 C11 110.90(14) . . ?
C23 C22 H22 108.6 . . ?
C23 C22 C7 102.56(14) . . ?
C7 C22 C11 117.22(14) . . ?
C7 C22 H22 108.6 . . ?
C12 C19 H19A 109.5 . . ?
C12 C19 H19B 109.5 . . ?
C12 C19 H19C 109.5 . . ?
H19A C19 H19B 109.5 . . ?
H19A C19 H19C 109.5 . . ?
H19B C19 H19C 109.5 . . ?
H6A C6 H6B 108.1 . . ?
C7 C6 H6A 109.5 . . ?
C7 C6 H6B 109.5 . . ?
C5 C6 H6A 109.5 . . ?
C5 C6 H6B 109.5 . . ?
C5 C6 C7 110.67(14) . . ?
O33 C16 C17 109.62(14) . . ?
O33 C16 C15 105.25(15) . . ?
O33 C16 C18 104.95(16) . . ?
C17 C16 C15 111.36(15) . . ?
C18 C16 C17 110.67(16) . . ?
C18 C16 C15 114.56(14) . . ?
O27 C15 C14 102.20(14) . . ?
O27 C15 C16 105.11(13) . . ?
O27 C15 C3 102.62(13) . . ?
C14 C15 C16 115.52(14) . . ?
C3 C15 C14 115.95(14) . . ?
C3 C15 C16 113.15(15) . . ?
O27 C1 C2 110.33(15) . . ?
O36 C1 O27 120.86(18) . . ?
O36 C1 C2 128.77(19) . . ?
C8 C7 C22 102.50(14) . . ?
C8 C7 C6 109.88(15) . . ?
C8 C7 C24 106.32(14) . . ?
C6 C7 C22 118.05(15) . . ?
C6 C7 C24 110.11(14) . . ?
C24 C7 C22 109.17(15) . . ?
C4 C3 C15 126.19(16) . . ?
C4 C3 C2 126.40(17) . . ?
C2 C3 C15 106.74(15) . . ?
C12 C5 H5 106.2 . . ?
C4 C5 C12 113.30(15) . . ?
C4 C5 C6 114.29(15) . . ?
C4 C5 H5 106.2 . . ?
C6 C5 C12 109.93(15) . . ?
C6 C5 H5 106.2 . . ?
C4 C25 H25A 109.5 . . ?
C4 C25 H25B 109.5 . . ?
C4 C25 H25C 109.5 . . ?
H25A C25 H25B 109.5 . . ?
H25A C25 H25C 109.5 . . ?
H25B C25 H25C 109.5 . . ?
C16 C18 H18A 109.5 . . ?
C16 C18 H18B 109.5 . . ?
C16 C18 H18C 109.5 . . ?
H18A C18 H18B 109.5 . . ?
H18A C18 H18C 109.5 . . ?
H18B C18 H18C 109.5 . . ?
C9 C21 H21A 109.5 . . ?
C9 C21 H21B 109.5 . . ?
C9 C21 H21C 109.5 . . ?
H21A C21 H21B 109.5 . . ?
H21A C21 H21C 109.5 . . ?
H21B C21 H21C 109.5 . . ?
C7 C24 H24A 109.5 . . ?
C7 C24 H24B 109.5 . . ?
C7 C24 H24C 109.5 . . ?
H24A C24 H24B 109.5 . . ?
H24A C24 H24C 109.5 . . ?
H24B C24 H24C 109.5 . . ?
C1 C2 H2A 111.0 . . ?
C1 C2 H2B 111.0 . . ?
C3 C2 C1 103.71(16) . . ?
C3 C2 H2A 111.0 . . ?
C3 C2 H2B 111.0 . . ?
H2A C2 H2B 109.0 . . ?
O22 C26 H26A 109.5 . . ?
O22 C26 H26B 109.5 . . ?
O22 C26 H26C 109.5 . . ?
H26A C26 H26B 109.5 . . ?
H26A C26 H26C 109.5 . . ?
H26B C26 H26C 109.5 . . ?
loop_
_geom_bond_atom_site_label_1
_geom_bond_atom_site_label_2
_geom_bond_distance
_geom_bond_site_symmetry_2
_geom_bond_publ_flag
O15 C10 1.375(2) . ?
O15 C14 1.437(2) . ?
O1 C9 1.409(2) . ?
O1 C23 1.400(2) . ?
O19 H19 0.8200 . ?
O19 C13 1.421(2) . ?
O24 C20 1.214(2) . ?
O12 C8 1.362(2) . ?
O12 C23 1.451(2) . ?
O27 C15 1.472(2) . ?
O27 C1 1.357(2) . ?
O22 C20 1.329(2) . ?
O22 C26 1.440(3) . ?
O33 H33 0.8200 . ?
O33 C16 1.441(2) . ?
O13 C8 1.195(3) . ?
O36 C1 1.204(3) . ?
C10 C11 1.511(2) . ?
C10 C9 1.327(2) . ?
C14 H14 0.9800 . ?
C14 C13 1.526(2) . ?
C14 C15 1.563(3) . ?
C11 C20 1.544(3) . ?
C11 C12 1.568(2) . ?
C11 C22 1.570(2) . ?
C9 C21 1.483(3) . ?
C12 C13 1.544(2) . ?
C12 C19 1.532(2) . ?
C12 C5 1.566(3) . ?
C13 H13 0.9800 . ?
C8 C7 1.516(2) . ?
C4 C3 1.334(3) . ?
C4 C5 1.521(2) . ?
C4 C25 1.514(3) . ?
C23 H23 0.9800 . ?
C23 C22 1.548(2) . ?
C17 H17A 0.9600 . ?
C17 H17B 0.9600 . ?
C17 H17C 0.9600 . ?
C17 C16 1.529(2) . ?
C22 H22 0.9800 . ?
C22 C7 1.550(3) . ?
C19 H19A 0.9600 . ?
C19 H19B 0.9600 . ?
C19 H19C 0.9600 . ?
C6 H6A 0.9700 . ?
C6 H6B 0.9700 . ?
C6 C7 1.528(2) . ?
C6 C5 1.521(2) . ?
C16 C15 1.575(3) . ?
C16 C18 1.522(3) . ?
C15 C3 1.532(2) . ?
C1 C2 1.506(3) . ?
C7 C24 1.541(2) . ?
C3 C2 1.505(3) . ?
C5 H5 0.9800 . ?
C25 H25A 0.9600 . ?
C25 H25B 0.9600 . ?
C25 H25C 0.9600 . ?
C18 H18A 0.9600 . ?
C18 H18B 0.9600 . ?
C18 H18C 0.9600 . ?
C21 H21A 0.9600 . ?
C21 H21B 0.9600 . ?
C21 H21C 0.9600 . ?
C24 H24A 0.9600 . ?
C24 H24B 0.9600 . ?
C24 H24C 0.9600 . ?
C2 H2A 0.9700 . ?
C2 H2B 0.9700 . ?
C26 H26A 0.9600 . ?
C26 H26B 0.9600 . ?
C26 H26C 0.9600 . ?
loop_
_geom_torsion_atom_site_label_1
_geom_torsion_atom_site_label_2
_geom_torsion_atom_site_label_3
_geom_torsion_atom_site_label_4
_geom_torsion
_geom_torsion_site_symmetry_1
_geom_torsion_site_symmetry_2
_geom_torsion_site_symmetry_3
_geom_torsion_site_symmetry_4
_geom_torsion_publ_flag
O15 C10 C11 C20 -103.16(19) . . . . ?
O15 C10 C11 C12 18.6(2) . . . . ?
O15 C10 C11 C22 140.38(17) . . . . ?
O15 C10 C9 O1 178.57(16) . . . . ?
O15 C10 C9 C21 2.1(3) . . . . ?
O15 C14 C13 O19 83.62(17) . . . . ?
O15 C14 C13 C12 -39.1(2) . . . . ?
O15 C14 C15 O27 -138.93(13) . . . . ?
O15 C14 C15 C16 -25.44(19) . . . . ?
O15 C14 C15 C3 110.35(16) . . . . ?
O1 C23 C22 C11 11.2(2) . . . . ?
O1 C23 C22 C7 137.13(15) . . . . ?
O12 C8 C7 C22 27.38(17) . . . . ?
O12 C8 C7 C6 153.69(14) . . . . ?
O12 C8 C7 C24 -87.17(17) . . . . ?
O12 C23 C22 C11 -106.75(16) . . . . ?
O12 C23 C22 C7 19.18(16) . . . . ?
O27 C15 C3 C4 -149.12(19) . . . . ?
O27 C15 C3 C2 21.9(2) . . . . ?
O27 C1 C2 C3 5.1(2) . . . . ?
O33 C16 C15 O27 -59.32(17) . . . . ?
O33 C16 C15 C14 -171.13(14) . . . . ?
O33 C16 C15 C3 51.87(18) . . . . ?
O13 C8 C7 C22 -156.21(19) . . . . ?
O13 C8 C7 C6 -29.9(3) . . . . ?
O13 C8 C7 C24 89.2(2) . . . . ?
O36 C1 C2 C3 -172.5(2) . . . . ?
C10 O15 C14 C13 1.9(2) . . . . ?
C10 O15 C14 C15 -126.30(17) . . . . ?
C10 C11 C20 O24 -174.80(17) . . . . ?
C10 C11 C20 O22 3.0(2) . . . . ?
C10 C11 C12 C13 -53.03(19) . . . . ?
C10 C11 C12 C19 -174.01(16) . . . . ?
C10 C11 C12 C5 63.92(17) . . . . ?
C10 C11 C22 C23 33.1(2) . . . . ?
C10 C11 C22 C7 -84.16(18) . . . . ?
C14 O15 C10 C11 8.5(3) . . . . ?
C14 O15 C10 C9 -169.52(16) . . . . ?
C14 C15 C3 C4 -38.6(3) . . . . ?
C14 C15 C3 C2 132.39(18) . . . . ?
C11 C10 C9 O1 0.5(3) . . . . ?
C11 C10 C9 C21 -176.0(2) . . . . ?
C11 C12 C13 O19 -55.44(18) . . . . ?
C11 C12 C13 C14 64.78(18) . . . . ?
C11 C12 C5 C4 -159.00(14) . . . . ?
C11 C12 C5 C6 71.77(16) . . . . ?
C11 C22 C7 C8 94.62(17) . . . . ?
C11 C22 C7 C6 -26.2(2) . . . . ?
C11 C22 C7 C24 -152.93(15) . . . . ?
C9 O1 C23 O12 63.10(17) . . . . ?
C9 O1 C23 C22 -54.5(2) . . . . ?
C9 C10 C11 C20 74.9(2) . . . . ?
C9 C10 C11 C12 -163.41(17) . . . . ?
C9 C10 C11 C22 -41.6(2) . . . . ?
C20 C11 C12 C13 67.70(17) . . . . ?
C20 C11 C12 C19 -53.28(19) . . . . ?
C20 C11 C12 C5 -175.35(13) . . . . ?
C20 C11 C22 C23 -85.24(18) . . . . ?
C20 C11 C22 C7 157.49(14) . . . . ?
C12 C11 C20 O24 64.5(2) . . . . ?
C12 C11 C20 O22 -117.71(16) . . . . ?
C12 C11 C22 C23 154.03(15) . . . . ?
C12 C11 C22 C7 36.8(2) . . . . ?
C13 C14 C15 O27 91.97(15) . . . . ?
C13 C14 C15 C16 -154.53(14) . . . . ?
C13 C14 C15 C3 -18.7(2) . . . . ?
C13 C12 C5 C4 -43.64(18) . . . . ?
C13 C12 C5 C6 -172.87(14) . . . . ?
C8 O12 C23 O1 -125.75(15) . . . . ?
C8 O12 C23 C22 -2.70(18) . . . . ?
C4 C3 C2 C1 154.1(2) . . . . ?
C23 O1 C9 C10 50.2(2) . . . . ?
C23 O1 C9 C21 -132.88(17) . . . . ?
C23 O12 C8 O13 167.35(16) . . . . ?
C23 O12 C8 C7 -15.89(19) . . . . ?
C23 C22 C7 C8 -27.09(16) . . . . ?
C23 C22 C7 C6 -147.93(15) . . . . ?
C23 C22 C7 C24 85.36(16) . . . . ?
C17 C16 C15 O27 59.38(18) . . . . ?
C17 C16 C15 C14 -52.42(19) . . . . ?
C17 C16 C15 C3 170.58(15) . . . . ?
C22 C11 C20 O24 -56.0(2) . . . . ?
C22 C11 C20 O22 121.72(16) . . . . ?
C22 C11 C12 C13 -174.38(15) . . . . ?
C22 C11 C12 C19 64.64(19) . . . . ?
C22 C11 C12 C5 -57.43(17) . . . . ?
C19 C12 C13 O19 67.73(19) . . . . ?
C19 C12 C13 C14 -172.04(16) . . . . ?
C19 C12 C5 C4 77.62(18) . . . . ?
C19 C12 C5 C6 -51.62(18) . . . . ?
C16 C15 C3 C4 98.2(2) . . . . ?
C16 C15 C3 C2 -90.80(19) . . . . ?
C15 O27 C1 O36 -172.65(19) . . . . ?
C15 O27 C1 C2 9.5(2) . . . . ?
C15 C14 C13 O19 -149.29(14) . . . . ?
C15 C14 C13 C12 88.01(18) . . . . ?
C15 C3 C2 C1 -16.9(2) . . . . ?
C1 O27 C15 C14 -140.02(15) . . . . ?
C1 O27 C15 C16 98.98(17) . . . . ?
C1 O27 C15 C3 -19.6(2) . . . . ?
C7 C6 C5 C12 -60.18(18) . . . . ?
C7 C6 C5 C4 171.13(15) . . . . ?
C3 C4 C5 C12 74.2(2) . . . . ?
C3 C4 C5 C6 -158.78(18) . . . . ?
C5 C12 C13 O19 -170.14(13) . . . . ?
C5 C12 C13 C14 -49.92(18) . . . . ?
C5 C4 C3 C15 -1.2(3) . . . . ?
C5 C4 C3 C2 -170.5(2) . . . . ?
C5 C6 C7 C8 -80.11(19) . . . . ?
C5 C6 C7 C22 36.8(2) . . . . ?
C5 C6 C7 C24 163.10(15) . . . . ?
C25 C4 C3 C15 177.30(19) . . . . ?
C25 C4 C3 C2 8.0(3) . . . . ?
C25 C4 C5 C12 -104.3(2) . . . . ?
C25 C4 C5 C6 22.7(3) . . . . ?
C18 C16 C15 O27 -174.06(15) . . . . ?
C18 C16 C15 C14 74.13(19) . . . . ?
C18 C16 C15 C3 -62.9(2) . . . . ?
C26 O22 C20 O24 -8.0(3) . . . . ?
C26 O22 C20 C11 174.26(18) . . . . ?
