#------------------------------------------------------------------------------
#$Date: 2022-03-06 06:37:54 +0200 (Sun, 06 Mar 2022) $
#$Revision: 273468 $
#$URL: file:///home/coder/svn-repositories/cod/cif/1/56/59/1565954.cif $
#------------------------------------------------------------------------------
#
# This file is available in the Crystallography Open Database (COD),
# http://www.crystallography.net/
#
# All data on this site have been placed in the public domain by the
# contributors.
#
data_1565954
loop_
_publ_author_name
'Wildner, Manfred'
'Zakharov, Boris A.'
'Bogdanov, Nikita E.'
'Talla, Dominik'
'Boldyreva, Elena V.'
'Miletich, Ronald'
_publ_section_title
;
 Crystallography relevant to Mars and Galilean icy moons: crystal behavior
 of kieserite-type monohydrate sulfates at extraterrestrial conditions
 down to 15 K
;
_journal_issue                   2
_journal_name_full               IUCrJ
_journal_page_first              194
_journal_page_last               203
_journal_paper_doi               10.1107/S2052252521012720
_journal_volume                  9
_journal_year                    2022
_chemical_formula_sum            'Co H2 O5 S'
_chemical_formula_weight         173.01
_space_group_crystal_system      monoclinic
_space_group_IT_number           15
_space_group_name_Hall           '-C 2yc'
_space_group_name_H-M_alt        'C 1 2/c 1'
_atom_sites_solution_hydrogens   difmap
_audit_creation_method           SHELXL-2017/1
_cell_angle_alpha                90
_cell_angle_beta                 118.397(10)
_cell_angle_gamma                90
_cell_formula_units_Z            4
_cell_length_a                   6.9354(10)
_cell_length_b                   7.6179(10)
_cell_length_c                   7.6043(10)
_cell_measurement_temperature    153(2)
_cell_volume                     353.42(9)
_computing_structure_refinement  'SHELXL-2017/1 (Sheldrick, 2017)'
_diffrn_ambient_temperature      153(2)
_diffrn_measured_fraction_theta_full 0.991
_diffrn_measured_fraction_theta_max 0.997
_diffrn_radiation_type           MoK\a
_diffrn_radiation_wavelength     0.71073
_diffrn_reflns_av_R_equivalents  0.0197
_diffrn_reflns_av_unetI/netI     0.0087
_diffrn_reflns_Laue_measured_fraction_full 0.991
_diffrn_reflns_Laue_measured_fraction_max 0.997
_diffrn_reflns_limit_h_max       12
_diffrn_reflns_limit_h_min       -12
_diffrn_reflns_limit_k_max       13
_diffrn_reflns_limit_k_min       -13
_diffrn_reflns_limit_l_max       13
_diffrn_reflns_limit_l_min       -13
_diffrn_reflns_number            11432
_diffrn_reflns_point_group_measured_fraction_full 0.991
_diffrn_reflns_point_group_measured_fraction_max 0.997
_diffrn_reflns_theta_full        25.242
_diffrn_reflns_theta_max         39.994
_diffrn_reflns_theta_min         4.233
_exptl_absorpt_coefficient_mu    5.326
_exptl_absorpt_correction_T_max  0.7479
_exptl_absorpt_correction_T_min  0.5769
_exptl_absorpt_correction_type   multi-scan
_exptl_absorpt_process_details
;
 SADABS 2016/2: Krause, L., Herbst-Irmer, R., Sheldrick G.M. & Stalke D.,
 J. Appl. Cryst. 48 (2015) 3-10
;
_exptl_crystal_density_diffrn    3.251
_exptl_crystal_F_000             340
_refine_diff_density_max         0.522
_refine_diff_density_min         -0.482
_refine_diff_density_rms         0.077
_refine_ls_extinction_coef       0.0182(8)
_refine_ls_extinction_expression Fc^*^=kFc[1+0.001xFc^2^\l^3^/sin(2\q)]^-1/4^
_refine_ls_extinction_method     'SHELXL-2017/1 (Sheldrick 2017)'
_refine_ls_goodness_of_fit_ref   1.139
_refine_ls_hydrogen_treatment    refall
_refine_ls_matrix_type           full
_refine_ls_number_parameters     40
_refine_ls_number_reflns         1098
_refine_ls_number_restraints     0
_refine_ls_restrained_S_all      1.139
_refine_ls_R_factor_all          0.0120
_refine_ls_R_factor_gt           0.0118
_refine_ls_shift/su_max          0.000
_refine_ls_shift/su_mean         0.000
_refine_ls_structure_factor_coef Fsqd
_refine_ls_weighting_details
'w=1/[\s^2^(Fo^2^)+(0.0110P)^2^+0.3200P] where P=(Fo^2^+2Fc^2^)/3'
_refine_ls_weighting_scheme      calc
_refine_ls_wR_factor_gt          0.0294
_refine_ls_wR_factor_ref         0.0295
_reflns_Friedel_coverage         0.000
_reflns_number_gt                1089
_reflns_number_total             1098
_reflns_threshold_expression     'I > 2\s(I)'
_cod_data_source_file            lt5044.cif
_cod_data_source_block           CoSO4H2O_N2_153K
_cod_depositor_comments
'Adding full bibliography for 1565934--1565967.cif.'
_cod_original_sg_symbol_H-M      'C 2/c'
_cod_database_code               1565954
_shelx_shelxl_version_number     2017/1
_shelx_space_group_comment
;
The symmetry employed for this shelxl refinement is uniquely defined
by the following loop, which should always be used as a source of
symmetry information in preference to the above space-group names.
They are only intended as comments.
;
_shelx_res_file
;
TITL 217a03x (nach Umkleben) 153K Apex in C2/c kieserite cell
    latt_corr_for_Nonius20C_217a03x_153_0m.res
    created by SHELXL-2017/1 at 21:33:44 on 10-Feb-2021
REM meas. mon  6.9217(1) 7.6055(1) 7.4543(1)   90  116.4117(4)   90
REM trans. cryscomp  6.9217 7.6055 7.5878    90 118.374 90
REM meas.trcl  6.9216(1) 7.6054(1) 7.4542(1) 90.0016(4) 116.4117(4) 89.9961(5)
REM CELL 0.71073   6.9217 7.6055 7.5878    90 118.374 90
REM latt corr for Nonius20C +0.0137 +0.0124 +0.0165    +0.0226
CELL 0.71073  6.9354 7.6179 7.6043 90 118.3966 90
ZERR    4.00   0.001   0.001   0.001   0.00   0.01   0.00
LATT  7
SYMM -X, Y, .5-Z
SFAC O H S CO
UNIT 20 8 4 4
SHEL 20 0.55285
OMIT -2 2 2
OMIT 1 3 1
OMIT -3 1 1
REM DAMP 10000
L.S. 10
CONN 12 1.8 $O
EQIV $9 -x+1/2, y+1/2, -z+1/2
BOND $H
FMAP 2
PLAN 20
ACTA
HTAB O3 O2_$9
HTAB
WGHT    0.011000    0.320000
EXTI    0.018208
FVAR       0.71985
CO    4    0.000000    0.500000    0.000000    10.50000    0.00381    0.00393 =
         0.00408    0.00027    0.00195   -0.00008
S     3    0.000000    0.154975    0.250000    10.50000    0.00310    0.00347 =
         0.00437    0.00000    0.00180    0.00000
O1    1    0.172194    0.044443    0.401610    11.00000    0.00509    0.00865 =
         0.00855    0.00426    0.00265    0.00232
O2    1    0.099286    0.267949    0.155052    11.00000    0.00699    0.00600 =
         0.00904    0.00279    0.00532    0.00071
O3    1    0.000000    0.637895    0.250000    10.50000    0.00612    0.00649 =
         0.00630    0.00000    0.00327    0.00000
H     2    0.110270    0.704947    0.292852    11.00000    0.01946
HKLF 4 1  1 0 0 0 -1 0 -1 0 -1




REM  217a03x (nach Umkleben) 153K Apex in C2/c kieserite cell
REM R1 =  0.0118 for    1089 Fo > 4sig(Fo)  and  0.0120 for all    1098 data
REM     40 parameters refined using      0 restraints

END

WGHT      0.0108      0.3270

REM Instructions for potential hydrogen bonds
EQIV $5 x+1/2, y+1/2, z
HTAB O3 S_$5
HTAB O3 O2_$9

REM Highest difference peak  0.522,  deepest hole -0.482,  1-sigma level  0.077
Q1    1   0.0639  0.4471  0.0024  11.00000  0.05    0.52
Q2    1   0.1001  0.1074  0.3455  11.00000  0.05    0.45
Q3    1   0.0578  0.2313  0.2115  11.00000  0.05    0.42
Q4    1   0.0577  0.5526  0.0577  11.00000  0.05    0.40
Q5    1  -0.0150  0.4672  0.0583  11.00000  0.05    0.26
Q6    1   0.0858  0.3746  0.1818  11.00000  0.05    0.25
Q7    1   0.2521  0.0310  0.3728  11.00000  0.05    0.24
Q8    1   0.0321  0.3149  0.1044  11.00000  0.05    0.24
Q9    1   0.0750  0.3880  0.0998  11.00000  0.05    0.23
Q10   1  -0.0623  0.3995  0.0165  11.00000  0.05    0.20
Q11   1   0.0053  0.5884  0.1961  11.00000  0.05    0.19
Q12   1  -0.0680  0.3073  0.0547  11.00000  0.05    0.18
Q13   1  -0.1417  0.2872 -0.0326  11.00000  0.05    0.17
Q14   1   0.2153 -0.0924  0.4178  11.00000  0.05    0.17
Q15   1   0.0257  0.2291  0.0762  11.00000  0.05    0.16
Q16   1  -0.1002  0.2318  0.0317  11.00000  0.05    0.16
Q17   1  -0.0205  0.5332  0.1196  11.00000  0.05    0.15
Q18   1  -0.0401  0.3654  0.1313  11.00000  0.05    0.14
Q19   1   0.2641  0.1258  0.4053  11.00000  0.05    0.14
Q20   1   0.1515  0.0982  0.4564  11.00000  0.05    0.14
;
_shelx_res_checksum              35872
_shelx_hkl_file
;
   2   0   0 19.5292 1.09312  13
  -2   0   0 18.9059 1.03734   8
   2   0   0 22.7345 0.76770   6
  -2   0   0 22.5212 1.32493   5
  -2   0   0 19.1522 1.09080   2
  -2   0   0 18.9996 1.32716   3
   4   0   0 9440.72 180.837   1
   4   0   0 9463.74 177.002   6
   4   0   0 9412.96 184.084  13
  -4   0   0 9528.62 180.543   2
  -4   0   0 9280.73 185.550   3
  -4   0   0 9419.85 179.857   8
  -4   0   0 9850.87 185.181   5
   6   0   0 45.0373 2.45079   6
   6   0   0 41.2696 2.74284   1
  -6   0   0 41.7013 3.40469   5
   6   0   0 40.5860 2.95148  11
  -6   0   0 36.4668 2.64070   8
   6   0   0 39.6564 2.87113  13
  -6   0   0 41.8375 3.32630   3
  -6   0   0 41.5676 2.56730   2
   8   0   0 1688.19 34.2136   6
   8   0   0 1676.54 36.5151  11
   8   0   0 1707.33 35.3316   1
  -8   0   0 1691.88 35.6182   8
  -8   0   0 1691.95 37.1075   5
  10   0   0 19.7626 2.84141   6
 -10   0   0 17.6098 3.20747   8
 -10   0   0 22.0505 3.85857   5
  10   0   0 17.4032 3.80247  11
  10   0   0 15.1201 2.81107   1
  -1  -1   0 1554.27 30.5103  13
   3  -1   0 25.5310 0.69001   6
   3  -1   0 22.1175 1.21678   1
   3  -1   0 23.4952 1.67988  13
  -3  -1   0 23.1031 1.42948   2
  -3  -1   0 23.7071 1.53370   8
  -3   1   0 25.2678 1.36453   2
   3   1   0 22.5645 1.57216   1
  -3   1   0 22.8251 1.78892   3
   3   1   0 24.1976 1.29862   6
  -3   1   0 23.6789 1.41532   8
   3   1   0 20.5094 1.51920  11
  -3   1   0 22.6381 1.64437   5
   3   1   0 23.9348 1.25677  13
  -5  -1   0 944.543 20.1056   8
  -5  -1   0 973.267 20.7334   5
   5  -1   0 961.423 18.4236   6
  -5  -1   0 963.995 19.8132   2
   5  -1   0 969.681 19.4434   1
   5  -1   0 950.204 20.9915  13
  -5   1   0 944.799 21.2077   3
   5   1   0 922.488 20.4115  11
  -5   1   0 967.125 19.5009   2
   5   1   0 921.521 19.3208  13
  -5   1   0 956.439 19.8932   8
   5   1   0 971.972 20.4517   1
   5   1   0 959.006 19.4277   6
  -5   1   0 954.530 20.9681   5
   7  -1   0 36.1044 2.69183   1
   7  -1   0 32.0686 2.24007   6
  -7  -1   0 31.9739 2.68222   2
   7  -1   0 36.5310 3.71709  11
  -7  -1   0 34.7244 3.21038   8
  -7  -1   0 36.7756 3.49608   5
  -7   1   0 33.9929 3.77559   5
  -7   1   0 39.6202 3.92459   3
   7   1   0 34.5524 2.71272   6
   7   1   0 35.2285 3.75011  11
   7   1   0 38.2254 3.17779   1
  -7   1   0 36.2789 2.81774   8
   9  -1   0 84.0749 4.75315   1
  -9  -1   0 73.0943 5.29778   8
   9  -1   0 83.5395 5.58897  11
  -9  -1   0 81.6498 6.06882   5
   9  -1   0 79.1557 4.37749   6
  -9   1   0 83.4515 5.20409   8
   9   1   0 94.5800 6.56981  11
  -9   1   0 82.3218 6.29462   5
   9   1   0 88.7016 5.02551   6
   9   1   0 76.4452 5.15728   1
 -11  -1   0 101.982 7.52357   5
  11  -1   0 109.161 7.67581  11
 -11  -1   0 107.638 6.99752   8
 -11   1   0 89.1114 7.66918   8
 -11   1   0 114.626 8.12486   5
  11   1   0 98.1279 7.10739  11
   0  -2   0 1751.62 33.6972   6
   0  -2   0 1656.71 35.6177   1
   0   2   0 1742.07 33.6738  10
   0   2   0 1723.02 32.9010   4
   0   2   0 1728.20 31.4536  11
   0   2   0 1720.74 32.7353   7
  -2  -2   0 596.962 12.6275   1
   2  -2   0 610.154 13.4972  13
  -2  -2   0 607.035 11.6560  13
   2  -2   0 599.075 11.7098   1
  -2  -2   0 624.288 12.2945   8
  -2   2   0 601.071 12.6636   4
  -2   2   0 619.358 12.6427   5
  -2   2   0 590.391 12.9084   7
   2   2   0 608.785 12.9116   1
  -2   2   0 620.886 12.7684   3
   2   2   0 606.854 12.4422  11
   2   2   0 617.340 12.2288   6
  -4  -2   0 2138.74 40.6231   2
   4  -2   0 2109.39 39.8386   6
  -4  -2   0 2142.78 40.7184   5
   4  -2   0 2148.06 40.0467   6
   4  -2   0 2179.28 42.2656  13
  -4  -2   0 2148.63 40.7645   8
  -4  -2   0 2153.86 39.3743  14
  -4  -2   0 2052.77 40.3580   1
   4  -2   0 2147.74 39.5743   1
  -4   2   0 2143.76 41.4565   5
  -4   2   0 2138.18 40.1621   8
   4   2   0 2166.95 40.3625   6
  -4   2   0 2167.90 39.8362   2
  -4   2   0 2199.69 41.9109   3
   4   2   0 2101.96 41.4011   1
  -4   2   0 2134.62 39.7110  14
   4   2   0 2160.35 41.0907  11
  -6  -2   0 1568.21 31.8892   2
  -6  -2   0 1578.16 32.3808   8
   6  -2   0 1582.10 30.8828   1
   6  -2   0 1559.27 33.7184  13
   6  -2   0 1574.58 29.9072   6
  -6  -2   0 1587.45 32.5685   5
   6   2   0 1614.27 31.7835   6
   6   2   0 1572.94 32.9919  11
  -6   2   0 1603.78 33.5818   5
  -6   2   0 1563.80 31.5511   8
  -6   2   0 1615.04 33.9429   3
   6   2   0 1548.03 32.8683   1
   8  -2   0 903.127 20.2174   1
   8  -2   0 918.759 19.4261   6
  -8  -2   0 869.786 21.6500   8
  -8  -2   0 893.571 21.1066   2
  -8  -2   0 920.656 22.4384   5
   8   2   0 885.116 20.9742   6
  -8   2   0 944.659 23.7930   3
  -8   2   0 903.609 20.9104   8
   8   2   0 908.079 22.3264   1
  -8   2   0 906.750 23.0981   5
   8   2   0 905.769 22.7143  11
 -10  -2   0 840.954 22.3744   8
  10  -2   0 854.039 22.7544  11
  10  -2   0 858.150 19.8607   6
 -10  -2   0 842.394 22.7785   5
  10   2   0 828.212 22.2931   1
  10   2   0 844.777 21.4482   6
  10   2   0 855.836 23.8682  11
 -10   2   0 821.504 23.7740   5
  -1  -3   0 166.133 4.83790   1
  -1  -3   0 164.901 4.20870   6
   1  -3   0 166.223 4.36498   1
  -1  -3   0 164.923 4.02949   8
   1  -3   0 167.426 3.83195   6
   1  -3   0 168.649 4.29289  10
  -1   3   0 156.523 4.79239   7
  -1   3   0 166.240 3.76657   9
   1   3   0 169.229 4.49915  11
   1   3   0 173.689 4.31707   4
   1   3   0 164.898 3.69547   9
  -1   3   0 165.910 4.54616   3
  -1   3   0 171.502 4.27075   5
   1   3   0 165.140 4.84365   1
  -1   3   0 167.700 4.85653   4
   1   3   0 177.266 4.35728   7
   3  -3   0 1142.41 21.8174   1
   3  -3   0 1122.04 21.6938   6
   3  -3   0 1126.32 20.7147   6
  -3  -3   0 1135.29 22.6302   8
  -3  -3   0 1104.86 23.1348   1
  -3  -3   0 1167.18 21.9852   5
   3  -3   0 1153.16 24.5679  13
  -3   3   0 1119.71 23.6599   7
  -3   3   0 1183.83 23.4514   3
   3   3   0 1177.38 22.0119   7
   3   3   0 1141.84 22.9809  11
  -3   3   0 1172.62 21.8452   8
   3   3   0 1181.98 22.7126   6
  -3   3   0 1116.54 23.1789   5
   3   3   0 1126.42 23.6952   1
  -3   3   0 1182.20 21.9264   2
  -5  -3   0 15.3150 1.96468   8
   5  -3   0 16.1755 1.04343   6
  -5  -3   0 15.3662 1.26634  14
  -5  -3   0 16.8578 2.07150   2
   5  -3   0 14.5511 1.36060   1
   5  -3   0 14.4138 2.38481  13
  -5  -3   0 14.6542 1.68466   1
   5  -3   0 13.8331 0.94698   6
  -5  -3   0 16.8327 1.92324   5
  -5   3   0 18.4222 1.45233   2
  -5   3   0 18.2448 2.51107   3
   5   3   0 16.0759 1.96679   6
   5   3   0 17.4062 2.40089   1
  -5   3   0 13.7187 2.16444   5
  -5   3   0 15.3223 1.69762   8
   5   3   0 17.8526 2.48675  11
   7  -3   0 143.088 4.63118   6
  -7  -3   0 143.984 6.16519   2
   7  -3   0 134.613 7.10705  13
   7  -3   0 136.565 5.03517   1
  -7  -3   0 138.968 6.22768   5
  -7  -3   0 144.248 6.31733   8
   7   3   0 145.685 7.12787  11
   7   3   0 179.274 7.42310   1
  -7   3   0 141.558 5.60471   8
   7   3   0 145.477 6.24900   6
  -7   3   0 145.857 7.33303   3
  -7   3   0 148.658 7.23324   5
   9  -3   0 6.70469 1.51238   6
   9  -3   0 12.2257 3.13778  11
  -9  -3   0 6.61595 1.80146   2
  -9  -3   0 9.16478 2.82594   8
   9   3   0 6.22759 2.40715   1
   9   3   0 9.26642 2.43549   6
  -9   3   0 7.06130 2.94571   5
  -9   3   0 9.02111 3.06558   3
   9   3   0 5.96771 2.58300  11
 -11  -3   0 5.06901 2.26692   8
  11  -3   0 5.08565 2.46380  11
  11  -3   0 3.51921 1.55058   6
  11   3   0 3.32602 2.33349   1
  11   3   0 2.21411 3.39596  11
  11   3   0 6.44365 2.69253   6
 -11   3   0 5.69825 3.14081   5
   0  -4   0 2989.25 59.8246   1
   0  -4   0 3130.24 60.7005   6
   0   4   0 3116.67 58.5083  10
   0   4   0 3050.55 58.8530   1
   0   4   0 3013.69 57.0358   7
   0   4   0 3154.95 57.8366   9
   0   4   0 3098.32 57.1533   4
   0   4   0 3137.77 56.7228  11
   2  -4   0 6465.98 121.158   6
  -2  -4   0 6478.36 124.804   8
  -2  -4   0 6389.02 124.331   6
   2  -4   0 6223.16 121.984   1
  -2  -4   0 6510.83 128.877   1
   2  -4   0 6623.93 132.413  10
  -2   4   0 6520.81 127.372   3
   2   4   0 6349.69 120.899   7
  -2   4   0 6324.58 124.540   4
   2   4   0 6787.06 126.716  11
   2   4   0 6650.27 125.929   6
  -2   4   0 6575.15 125.608   5
  -2   4   0 6502.71 125.416   7
   2   4   0 6291.11 128.061   1
   4  -4   0 592.358 11.6132   6
  -4  -4   0 574.036 12.6058   5
   4  -4   0 606.635 12.5906   1
   4  -4   0 593.979 15.8349  13
   4  -4   0 589.916 11.6030   6
  -4  -4   0 575.708 14.0167   1
  -4  -4   0 590.635 13.6731   8
  -4   4   0 599.208 14.2880   5
  -4   4   0 574.369 14.7434   7
   4   4   0 603.304 15.1143   1
   4   4   0 593.765 13.6966   6
   4   4   0 605.268 14.2857  11
   4   4   0 571.299 12.5613   7
  -4   4   0 601.070 12.4233   8
  -4   4   0 603.776 14.6096   3
   6  -4   0 1694.85 31.9502   6
   6  -4   0 1715.72 38.0096  13
  -6  -4   0 1592.33 34.1038   5
  -6  -4   0 1715.05 35.0412   8
  -6  -4   0 1719.12 35.0201   2
   6  -4   0 1704.26 32.8371   1
  -6   4   0 1703.66 33.4281   8
  -6   4   0 1749.87 36.5417   3
   6   4   0 1661.86 36.5078   1
  -6   4   0 1683.91 36.1695   5
   6   4   0 1733.82 35.0558   6
   6   4   0 1691.08 35.8835  11
  -8  -4   0 20.9575 2.98368   2
   8  -4   0 26.1098 2.23169   6
  -8  -4   0 18.0635 2.97131   8
  -8   4   0 15.7489 2.94367   3
   8   4   0 17.5560 2.90479   6
   8   4   0 22.6929 3.62160   1
   8   4   0 23.3862 4.05427  11
  -8   4   0 11.6031 3.02379   5
  10  -4   0 549.427 14.0126   6
 -10  -4   0 544.938 17.2463   8
  10  -4   0 546.132 16.8485  11
 -10   4   0 559.807 18.2395   3
  10   4   0 562.937 18.2064   1
  10   4   0 556.351 18.4909  11
 -10   4   0 567.389 18.7911   5
  10   4   0 556.253 16.7709   6
  -1  -5   0 104.274 3.18805   8
   1  -5   0 103.403 3.41535   6
   1  -5   0 96.7317 2.32695  10
  -1  -5   0 120.747 4.61431   1
  -1  -5   0 101.904 3.53156   6
   1  -5   0 95.8529 3.89542   1
   1   5   0 99.3901 4.21827   1
  -1   5   0 101.798 3.33021   5
   1   5   0 102.262 2.79903   9
  -1   5   0 96.3344 4.20730   7
  -1   5   0 109.074 4.03923   3
  -1   5   0 105.686 2.83575   9
  -1   5   0 103.589 4.34973   4
   1   5   0 93.9035 3.72590   7
   1   5   0 103.772 3.93162  11
  -1   5   0 99.9538 3.49387   1
   1   5   0 102.078 3.31767  10
  -3  -5   0 127.849 4.37146   6
  -3  -5   0 135.715 4.69119   8
  -3  -5   0 134.248 5.38822   1
   3  -5   0 138.441 3.86759   6
   3  -5   0 132.203 6.27305  13
   3  -5   0 130.581 5.54258  10
   3   5   0 132.846 4.40011   7
  -3   5   0 129.730 4.98466   5
  -3   5   0 139.473 5.25720   3
   3   5   0 133.112 5.75195   1
   3   5   0 138.050 4.77987   6
   3   5   0 139.029 5.32784  11
  -3   5   0 138.970 5.90592   7
   5  -5   0 23.5303 1.79980   1
   5  -5   0 22.9098 1.53221   6
   5  -5   0 24.9773 3.68030  13
  -5  -5   0 23.3811 2.37789   8
  -5  -5   0 21.6479 2.49233   1
  -5   5   0 20.8275 2.93363   7
   5   5   0 23.3312 2.33366   6
  -5   5   0 32.4232 3.30011   3
   5   5   0 33.7202 3.56786   1
   5   5   0 18.7757 2.88640  11
  -5   5   0 17.3550 2.60378   5
  -7  -5   0 125.236 6.19355   8
   7  -5   0 116.174 7.39140  13
  -7  -5   0 118.972 6.21750   2
   7  -5   0 120.950 4.24858   6
   7   5   0 117.747 6.87313   1
  -7   5   0 116.800 6.47842   5
   7   5   0 113.627 7.00568  11
  -7   5   0 123.035 6.66824   3
   7   5   0 111.798 6.04741   6
  -9  -5   0 46.0677 4.55159   8
  -9  -5   0 45.8452 4.53348   2
   9  -5   0 42.3273 3.11968   6
  -9   5   0 49.8887 5.70434   3
  -9   5   0 41.7166 5.35794   5
   9   5   0 38.1425 5.42410  11
   9   5   0 42.8877 4.64750   6
   9   5   0 39.2008 5.27043   1
   0  -6   0 2447.58 47.6942   1
   0  -6   0 2434.98 44.7217   8
   0  -6   0 2410.67 46.1730   6
   0   6   0 2441.90 44.5295   9
   0   6   0 2420.80 46.9145   1
   0   6   0 2601.23 47.2380  11
   0   6   0 2479.77 47.1837   3
   0   6   0 2434.05 47.5498   7
   2  -6   0 92.3356 5.40415  13
  -2  -6   0 87.7133 4.60146   1
  -2  -6   0 84.9183 3.39370   8
   2  -6   0 89.0177 3.40013   6
  -2  -6   0 85.7879 3.67042   6
   2  -6   0 98.2910 4.12363   1
  -2   6   0 82.8165 4.11834   3
   2   6   0 96.3976 4.38757  11
   2   6   0 87.3664 3.90395  10
  -2   6   0 95.6637 3.80898   5
   2   6   0 85.8928 2.88235   9
   2   6   0 89.2322 4.61343   1
   2   6   0 89.2114 3.71761   6
  -2   6   0 88.2433 4.57775   7
   4  -6   0 2400.32 45.1731   6
  -4  -6   0 2423.97 46.9546   8
   4  -6   0 2362.90 45.9513   1
   4  -6   0 2388.63 50.9131  13
  -4  -6   0 2425.83 48.6004   1
   4   6   0 2489.61 49.8382   1
   4   6   0 2435.51 48.1079  11
   4   6   0 2374.09 47.1325   6
  -4   6   0 2421.45 48.3174   3
  -4   6   0 2424.90 47.8559   5
  -4   6   0 2475.52 49.4867   7
   6  -6   0 194.393 9.53214  13
   6  -6   0 191.633 6.26525   1
  -6  -6   0 212.287 8.33173   2
   6  -6   0 206.850 5.99759   6
  -6  -6   0 204.230 7.97986   8
   6   6   0 213.199 9.65808   1
   6   6   0 195.696 8.46908  11
  -6   6   0 205.509 8.48334   5
   6   6   0 200.970 7.95533   6
  -6   6   0 218.541 8.73689   3
   8  -6   0 1456.25 37.6798  13
  -8  -6   0 1591.74 35.1261   8
  -8  -6   0 1546.69 34.7524   2
   8  -6   0 1569.60 30.8599   6
   8   6   0 1502.13 34.8477   6
  -8   6   0 1528.74 35.9864   5
   8   6   0 1523.65 36.6477  11
  -8   6   0 1550.78 35.9634   3
   8   6   0 1557.87 37.3737   1
 -10  -6   0 138.523 8.34241   8
  10  -6   0 149.527 5.92277   6
 -10  -6   0 141.204 7.92637   2
 -10   6   0 150.969 8.81466   5
  10   6   0 145.863 9.86076  11
 -10   6   0 164.359 9.50484   3
  -1  -7   0 375.703 8.81217   8
   1  -7   0 377.507 9.80185   6
   1  -7   0 390.643 10.9597   1
  -1  -7   0 402.358 11.4882   1
  -1  -7   0 383.335 9.96671   6
   1   7   0 389.407 10.5982  11
   1   7   0 378.925 10.8378   1
   1   7   0 365.987 10.5513   7
  -1   7   0 371.579 11.2944   7
  -1   7   0 394.205 10.7347   3
  -3  -7   0 694.025 15.8922   8
   3  -7   0 701.216 15.4118   6
   3  -7   0 711.252 19.8348  13
  -3  -7   0 707.129 18.0877   1
   3   7   0 653.451 15.9099   7
  -3   7   0 705.445 17.2157   3
   3   7   0 715.889 18.4370   1
   3   7   0 722.784 17.3286  11
  -3   7   0 696.326 16.3485   5
  -3   7   0 709.103 18.5144   7
   5  -7   0 78.1474 3.86598   1
  -5  -7   0 82.3749 5.17687   1
   5  -7   0 80.9865 3.54099   6
  -5  -7   0 81.6768 4.69417   8
   5  -7   0 84.6655 6.54456  13
   5   7   0 73.6675 3.81300   9
  -5   7   0 83.6463 5.94846   7
   5   7   0 76.0441 5.36585  11
  -5   7   0 85.9773 5.25420   3
  -5   7   0 74.1900 4.86221   5
   5   7   0 83.3827 5.71656   1
   7  -7   0 242.436 11.9564  13
  -7  -7   0 236.712 9.66482   2
  -7  -7   0 250.698 9.73581   8
   7  -7   0 249.310 7.42785   6
  -7   7   0 259.269 10.5774   5
   7   7   0 234.143 10.7445  11
   7   7   0 247.485 11.4659   1
  -7   7   0 254.317 10.8191   3
  -9  -7   0 58.8108 5.20004   8
   9  -7   0 49.1501 3.33999   6
  -9  -7   0 54.2378 5.29234   2
  -9   7   0 57.1880 6.28574   5
   9   7   0 49.5683 6.42302   1
   9   7   0 45.5276 6.21172  11
  -9   7   0 54.3902 6.10275   3
   0  -8   0 1427.27 29.3761   6
   0  -8   0 1413.42 32.3574  13
   0  -8   0 1452.93 31.3095   1
   0   8   0 1432.61 30.4194   3
   0   8   0 1441.73 30.2448  11
   0   8   0 1370.80 30.8552   7
   2  -8   0 1290.58 26.8093   6
   2  -8   0 1310.75 28.2115   1
  -2  -8   0 1307.16 29.6174   1
   2  -8   0 1294.56 31.3041  13
  -2  -8   0 1277.52 27.2051   6
  -2  -8   0 1293.25 28.5645  13
  -2   8   0 1307.49 29.7641   7
   2   8   0 1265.76 29.0367   1
   2   8   0 1266.84 27.7627   7
   2   8   0 1305.00 28.3548  11
  -2   8   0 1303.26 28.3392   3
   4  -8   0 797.685 18.6998   1
   4  -8   0 819.254 17.9455   6
   4  -8   0 818.593 23.3776  13
  -4  -8   0 836.988 21.4889   1
  -4  -8   0 765.996 18.6172   8
   4   8   0 820.223 22.0372   1
   4   8   0 804.958 20.4675  11
  -4   8   0 785.163 20.1331   3
  -4   8   0 803.841 19.4535   5
  -4   8   0 789.115 21.6306   7
  -6  -8   0 380.713 12.4815   8
   6  -8   0 399.832 10.5564   6
   6  -8   0 383.955 15.7098  13
  -6  -8   0 417.244 13.4367   2
  -6  -8   0 405.489 13.8376   1
   6   8   0 408.442 14.0954  11
  -6   8   0 388.839 13.1315   5
  -6   8   0 399.617 13.4949   3
   6   8   0 388.414 14.8102   1
  -8  -8   0 275.145 11.4318   2
   8  -8   0 273.021 8.47798   6
  -8  -8   0 281.127 11.3447   8
  -8   8   0 279.244 11.8104   5
   8   8   0 268.529 12.9746   1
  -8   8   0 253.418 11.5089   3
   8   8   0 275.151 12.2821  11
   1  -9   0 154.916 8.35365  13
   1  -9   0 161.588 7.37780   1
   1  -9   0 162.655 6.41959   6
  -1  -9   0 154.500 7.49319  13
  -1  -9   0 151.969 6.30235   6
  -1  -9   0 156.301 7.54674   1
  -1   9   0 165.704 7.80267   7
   1   9   0 152.367 6.93347   7
   1   9   0 156.001 7.11752   3
   1   9   0 149.257 6.95373  11
  -1   9   0 161.107 7.11610   3
   1   9   0 149.928 6.75155   1
  -3  -9   0 39.5397 4.45286   1
   3  -9   0 34.6947 2.98707   6
   3  -9   0 30.6656 4.76184  13
   3   9   0 38.9446 4.31406  11
  -3   9   0 44.6389 3.90300   3
   3   9   0 39.5819 4.36659   1
  -3   9   0 36.1816 4.40314   7
   5  -9   0 142.800 6.18548   1
   5  -9   0 136.053 9.20661  13
  -5  -9   0 133.932 7.78652   1
  -5  -9   0 146.813 6.77352   8
   5  -9   0 134.638 5.70510   6
  -5   9   0 129.233 7.19681   3
   5   9   0 143.415 8.44582   1
   5   9   0 134.984 7.77772  11
  -5   9   0 140.075 8.58393   7
  -7  -9   0 11.2827 3.00448   8
  -7  -9   0 9.21328 2.65096   2
   7  -9   0 9.84041 2.05104   6
   7   9   0 5.35088 3.30970  11
   7   9   0 11.6886 3.85204   1
  -7   9   0 10.3646 3.29187   3
  -7   9   0 15.9496 3.28369   5
   0 -10   0 23.1611 2.78617   6
   0 -10   0 19.1249 3.21243   1
   0 -10   0 17.6910 3.21742  13
   0  10   0 20.2718 3.01218   3
   2 -10   0 1939.04 46.0382  13
   2 -10   0 1994.80 42.2065   1
  -2 -10   0 2059.40 44.2328   1
   2 -10   0 1977.04 40.6454   6
  -2  10   0 1978.59 42.3255   3
  -2  10   0 1920.66 43.8613   7
   2  10   0 1963.04 42.3129  11
   4 -10   0 8.17015 2.80010  13
  -4 -10   0 5.59865 2.66498   1
   4 -10   0 3.70967 1.65155   6
   4 -10   0 7.51329 2.07383   1
   4  10   0 6.34210 3.01376  11
   4  10   0 5.99583 2.72372   1
  -4  10   0 14.5010 3.29565   7
  -4  10   0 4.20313 2.29616   3
   6 -10   0 1446.37 30.0430   6
  -6 -10   0 1398.86 33.5528   2
   6  10   0 1349.01 34.0935  11
   6  10   0 1349.68 35.9758   1
  -1 -11   0 169.869 9.09050   1
   1 -11   0 172.145 9.69039  13
   1 -11   0 168.222 8.76914   1
  -1  11   0 173.063 9.11803   7
   1  11   0 156.497 8.30441   3
   1  11   0 166.319 8.34476  11
  -1  11   0 165.445 8.15638   3
   1  11   0 152.528 8.04364   7
   3 -11   0 97.4831 6.28016   1
   3 -11   0 85.9515 5.27811   6
  -3 -11   0 88.7494 7.13885   1
   3 -11   0 96.3803 8.11020  13
  -3  11   0 92.7626 6.98980   7
  -3  11   0 93.5977 6.50118   3
   3  11   0 90.7619 6.56675  11
  -5 -11   0 155.302 9.36036   1
   5 -11   0 159.796 7.42877   1
  -5 -11   0 162.282 9.17351   2
   5 -11   0 167.660 7.25868   6
   5  11   0 155.175 9.82080   1
   5  11   0 152.175 9.10027  11
  -5  11   0 157.644 9.49265   7
  -5  11   0 168.320 9.19877   3
   0 -12   0 464.821 14.2155   6
   0 -12   0 471.349 16.4665   1
   0  12   0 465.096 15.6006   3
   0  12   0 429.095 15.6615   7
   2 -12   0 426.237 13.4859   6
   2 -12   0 431.189 14.9414   1
  -2 -12   0 456.244 16.6145   1
  -2  12   0 413.846 14.7184   3
   2  12   0 420.302 15.0800   3
   2  12   0 409.172 14.8171  11
  -2  12   0 429.737 16.2475   7
  -4 -12   0 379.282 14.5180   2
  -4 -12   0 399.605 15.7984   1
   4 -12   0 390.267 12.5905   6
  -4  12   0 383.335 14.4501   3
   4  12   0 375.332 14.5661  11
  -4  12   0 372.564 15.5361   7
  -1 -13   0 7.78869 3.29557   1
   1 -13   0 3.17757 2.16062   6
   1 -13   0 4.87866 2.89864   1
   1  13   0 2.55651 2.48383   3
  -1  13   0 1.95979 1.85918   3
  -1  13   0 2.73900 2.69892   7
  -3 -13   0 3.60423 3.15328   1
   3 -13   0 2.12372 2.00567   6
  -3 -13   0 3.31497 2.76925   2
   3 -13   0 2.88911 2.28678   1
  -3  13   0 0.14428 1.63180   3
   3  13   0 3.58087 3.14803  11
   3  13   0 -0.9745 2.41034   3
  -3  13   0 4.61163 3.34965   7
 -10   0   1 3.09939 2.58420   5
  10   0  -1 6.98001 2.27061   1
  10   0  -1 2.13463 2.65149  11
 -10   0   1 4.18561 1.76103   8
  10   0  -1 2.83174 1.78750   6
   8   0  -1 4.06303 1.42218   6
   8   0  -1 12.1226 2.76542  11
   8   0  -1 0.09540 1.13275   1
  -8   0   1 1.32090 1.63801   5
  -8   0   1 5.73509 1.82046   8
   6   0  -1 0.01604 0.68263   6
  -6   0   1 6.31488 1.68170   3
   6   0  -1 1.16181 0.90990   1
   6   0  -1 1.59832 1.24610  11
  -6   0   1 3.53777 1.32841   5
  -6   0   1 -0.1443 0.53146   2
  -6   0   1 1.45594 0.97213   8
   6   0  -1 1.28820 1.15344  13
   4   0  -1 1.23235 0.52962   6
  -4   0   1 0.91200 0.46930   8
  -4   0   1 1.16245 0.59236  12
   4   0  -1 1.05354 0.67289  13
  -4   0   1 1.82926 0.82062   3
   4   0  -1 3.32281 0.87720   1
  -4   0   1 0.32753 0.61113   5
  -4   0   1 1.30552 0.47327   2
   2   0  -1 0.96074 0.41696  13
   2   0  -1 0.39386 0.28682   1
  -2   0   1 1.12048 0.30491  12
   2   0  -1 1.11497 0.34421   6
  -2   0   1 2.75877 0.58476   3
   0   0   1 3.53800 0.41884  13
   0   0  -1 4.76165 0.46174  13
   0   0   1 3.31314 0.53412  10
  -2   0  -1 3.11198 0.64797   3
   2   0   1 3.94748 0.55117   1
  -2   0  -1 2.04662 0.49763  14
  -2   0  -1 3.33719 0.65431   8
  -2   0  -1 3.55375 0.79783   5
  -2   0  -1 3.78184 0.68811   2
  -4   0  -1 0.13232 0.44071  14
   4   0   1 1.11017 0.43844   6
  -4   0  -1 6.08926 1.25083   3
  -4   0  -1 1.87307 0.78594   2
   4   0   1 3.31494 0.83551  13
   4   0   1 1.19573 0.66014   1
  -4   0  -1 1.21598 0.98717   5
   4   0   1 0.68487 0.34828   6
  -4   0  -1 1.27591 0.82710   8
   6   0   1 4.00507 1.25933   1
   6   0   1 2.26184 0.93359   6
  -6   0  -1 2.15142 1.49547   5
  -6   0  -1 0.40834 0.96768   2
   6   0   1 3.49046 1.53871  11
  -6   0  -1 1.34628 1.12592   8
  -8   0  -1 6.26453 2.11470   8
   8   0   1 1.79890 1.68598  11
   8   0   1 8.10217 1.92078   6
  -8   0  -1 7.05312 2.54583   5
  10   0   1 9.21846 2.86424  11
 -10   0  -1 1.15765 2.61703   5
  10   0   1 1.38802 1.78718   6
 -10   0  -1 7.02615 2.66647   8
  11  -1  -1 321.371 12.7869  11
 -11  -1   1 319.537 11.9347   8
 -11  -1   1 299.925 12.4395   5
  11  -1  -1 319.766 10.7015   6
 -11   1   1 313.455 13.1547   5
  11   1  -1 305.771 11.7210   1
  11   1  -1 314.495 12.9073  11
 -11   1   1 291.952 11.0299   8
  11   1  -1 305.165 11.0310   6
   9  -1  -1 440.164 12.8707   1
   9  -1  -1 453.047 13.9507  11
   9  -1  -1 456.141 12.3151   6
  -9  -1   1 459.700 14.2971   5
  -9  -1   1 458.869 13.4979   8
   9   1  -1 427.508 12.6780   6
  -9   1   1 433.686 14.4462   5
   9   1  -1 455.164 13.8843   1
   9   1  -1 448.803 14.5745  11
  -9   1   1 445.826 12.9518   8
  -7  -1   1 1243.08 27.1970   5
   7  -1  -1 1169.03 27.8017  13
   7  -1  -1 1221.30 26.1787   1
  -7  -1   1 1447.29 27.1279   8
   7  -1  -1 1221.31 25.1742   6
  -7  -1   1 1196.16 25.4450   2
  -7   1   1 1202.26 25.9506   8
   7   1  -1 1238.46 25.9924   6
   7   1  -1 1265.44 27.5053  11
  -7   1   1 1261.36 28.3640   3
   7   1  -1 1248.43 27.1873   1
  -7   1   1 1239.56 27.4630   5
   5  -1  -1 1342.21 26.6705   1
  -5  -1   1 1361.92 27.2670   5
  -5  -1   1 1269.34 26.3456   1
   5  -1  -1 1371.02 25.8703   6
  -5  -1   1 1359.32 26.8522   8
   5  -1  -1 1371.68 28.4986  13
  -5  -1   1 1338.36 26.3157   2
   5   1  -1 1389.43 27.4884  11
  -5   1   1 1353.03 25.7885   2
  -5   1   1 1361.01 27.6209   5
   5   1  -1 1309.39 27.1332  13
  -5   1   1 1347.39 28.1824   3
  -5   1   1 1362.05 26.5145   8
   5   1  -1 1391.28 27.6586   1
   5   1  -1 1381.72 26.6268   6
   3  -1  -1 4985.54 96.0830   6
  -3  -1   1 5120.72 96.5134   5
  -3  -1   1 5042.10 95.9751  12
   3  -1  -1 5108.22 103.261  13
   3  -1  -1 5001.32 99.0633   1
  -3  -1   1 5125.64 99.6299   1
  -3   1   1 5094.74 95.9610   8
   3   1  -1 4907.32 99.2550   1
   3   1  -1 5019.52 97.2918   6
  -3   1   1 5192.87 96.1778  12
   3   1  -1 5098.22 101.856  13
   3   1  -1 5029.14 97.0855  11
  -3   1   1 5153.42 98.6366   5
  -3   1   1 4782.22 99.5060   3
   1  -1  -1 2244.11 48.4114  10
   1  -1  -1 2158.07 46.1950  13
  -1  -1   1 2177.61 45.9063  10
  -1   1   1 2206.71 48.7797  10
   1   1  -1 2222.28 46.0751  10
  -1  -1  -1 7632.41 150.740   2
  -1  -1  -1 8016.93 148.993   8
  -1  -1  -1 8366.63 152.027   5
  -1   1  -1 7313.98 150.157   4
  -1   1  -1 7910.11 150.615  14
  -1   1  -1 8310.91 150.380   7
   1   1   1 8141.11 148.381  11
   1   1   1 8062.07 150.751   1
  -1   1  -1 7924.76 150.278   2
  -1   1  -1 8171.41 149.622   8
  -1   1  -1 8377.18 150.975   3
  -1   1  -1 8273.04 152.014   5
  -3  -1  -1 553.649 12.1371   2
   3  -1   1 547.733 10.8551   1
   3  -1   1 561.538 12.4878  13
  -3  -1  -1 554.326 11.4043  14
  -3  -1  -1 550.517 12.2253   8
  -3  -1  -1 546.433 12.3882   5
  -3   1  -1 576.352 12.1655   2
  -3   1  -1 570.844 11.7130  14
  -3   1  -1 549.714 11.7108   4
   3   1   1 540.028 10.6087  13
   3   1   1 559.624 12.0499   1
  -3   1  -1 563.467 12.1893   7
  -3   1  -1 552.162 12.5915   3
  -3   1  -1 544.265 12.7205   5
  -3   1  -1 571.416 12.1403   8
   3   1   1 561.709 11.2389   6
   3   1   1 555.749 12.0373  11
   5  -1   1 3013.52 55.7136   1
  -5  -1  -1 2981.34 57.9262   5
   5  -1   1 3011.81 57.1864   6
  -5  -1  -1 2996.94 56.9834   2
  -5  -1  -1 2924.79 55.4655  14
  -5  -1  -1 3024.98 57.3271   8
   5  -1   1 2989.76 57.4739  13
  -5   1  -1 3013.55 56.8629   2
   5   1   1 3011.16 57.0203   1
  -5   1  -1 3033.99 55.7572  14
  -5   1  -1 3011.24 58.3373   3
  -5   1  -1 3073.05 58.4452   5
   5   1   1 3108.39 55.9799   6
   5   1   1 3025.61 57.4540  11
  -5   1  -1 3061.86 57.1680   8
  -7  -1  -1 139.541 5.98888   2
  -7  -1  -1 147.866 6.47585   8
   7  -1   1 136.218 5.19416   1
   7  -1   1 138.840 4.75635   6
   7  -1   1 135.872 6.12791  11
  -7  -1  -1 145.382 7.04974   5
   7   1   1 144.114 5.48295   6
   7   1   1 151.271 6.88931  11
  -7   1  -1 139.590 6.06964   8
   7   1   1 142.176 6.02059   1
  -7   1  -1 110.226 6.14596   2
  -7   1  -1 133.077 6.94979   5
  -7   1  -1 137.811 7.05434   3
   9  -1   1 990.417 24.7260  11
  -9  -1  -1 977.289 25.4031   5
   9  -1   1 977.907 21.8179   6
  -9  -1  -1 985.136 24.4012   8
  -9   1  -1 988.639 25.8617   5
  -9   1  -1 993.981 23.9816   8
   9   1   1 983.243 22.8037   6
   9   1   1 961.383 23.4134   1
 -10  -2   1 152.155 8.12473   5
  10  -2  -1 144.577 6.36768   6
  10  -2  -1 139.297 7.50441  11
  10  -2  -1 149.626 7.49393   1
 -10  -2   1 151.653 7.56555   8
  10   2  -1 148.694 7.96137   1
  10   2  -1 155.030 7.42969   6
  10   2  -1 149.075 8.69287  11
 -10   2   1 156.510 8.76741   5
  -8  -2   1 379.828 10.8036   2
   8  -2  -1 372.196 10.7600   1
  -8  -2   1 379.460 11.9459   5
  -8  -2   1 381.482 11.5749   8
   8  -2  -1 373.413 10.0305   6
  -8   2   1 372.901 12.5867   5
   8   2  -1 372.201 11.1964   6
   8   2  -1 378.285 12.2233   1
   8   2  -1 392.062 12.5005  11
  -8   2   1 374.659 10.7418   8
  -8   2   1 428.002 13.5371   3
  -6  -2   1 444.310 11.5236   5
  -6  -2   1 441.874 11.4213   8
  -6  -2   1 452.164 11.0566   2
   6  -2  -1 452.864 10.1848   6
   6  -2  -1 436.041 13.0084  13
   6  -2  -1 437.192 10.8547   1
   6   2  -1 460.939 11.3935   6
   6   2  -1 438.297 12.2277   1
  -6   2   1 444.508 10.7734   8
  -6   2   1 454.487 12.6267   3
  -6   2   1 453.823 12.3898   5
   6   2  -1 443.570 12.1238  11
   4  -2  -1 1311.23 25.3026   1
  -4  -2   1 1303.12 25.5900   8
  -4  -2   1 1245.94 25.7629   1
  -4  -2   1 1348.66 25.4439   5
  -4  -2   1 1293.11 25.3329  12
   4  -2  -1 1317.49 27.4482  13
   4  -2  -1 1294.35 24.4349   6
   4   2  -1 1323.50 25.6801  13
  -4   2   1 1302.33 26.5618   3
   4   2  -1 1330.74 25.5582   6
   4   2  -1 1279.15 26.5230   1
  -4   2   1 1313.17 24.8076   8
   4   2  -1 1319.61 25.9954  11
  -4   2   1 1302.97 26.0955   5
   2  -2  -1 2836.17 56.5032   1
  -2  -2   1 2789.62 55.5618   1
   2  -2  -1 2811.49 54.7747   6
   2  -2  -1 2820.50 60.9652  10
  -2  -2   1 2742.50 53.7445  12
   2  -2  -1 2763.63 55.1453  13
  -2   2   1 2929.29 55.8761   3
  -2   2   1 2908.39 53.8141  12
  -2   2   1 2824.71 53.6372   9
   2   2  -1 2794.18 54.3176   1
  -2   2   1 2790.32 52.1330   7
   2   2  -1 2825.28 51.3197   6
   2   2  -1 2913.72 51.5066  11
   0  -2  -1 2906.62 59.8150  13
   0  -2  -1 3041.68 64.4690  10
   0  -2   1 3044.59 55.9380   6
   0  -2  -1 2786.57 59.0953   1
   0  -2   1 2867.74 55.9981   1
   0   2   1 3052.14 64.1958  10
   0   2  -1 3044.75 57.4574  11
   0   2  -1 2941.54 55.2202  14
   0   2  -1 2909.32 58.4134   7
   0   2   1 2982.68 54.6307   9
   0   2  -1 2940.64 58.3463   4
   0   2   1 3051.00 58.2648  11
   0   2   1 2967.45 59.9600   1
   0   2  -1 3116.13 59.5847   3
  -2  -2  -1 3241.12 60.4439   1
  -2  -2  -1 3301.51 64.1422   5
  -2  -2  -1 3311.20 64.7439   2
  -2  -2  -1 3284.49 64.4196   8
  -2   2  -1 3351.81 63.3206   3
  -2   2  -1 3345.35 63.9741   2
  -2   2  -1 3407.91 65.8639  14
   2   2   1 3223.83 65.6899   1
   2   2   1 3373.10 65.4114   6
  -2   2  -1 3299.55 60.8769   7
  -2   2  -1 3264.95 62.8601   8
  -2   2  -1 3361.36 61.0198   5
  -2   2  -1 3193.70 62.8463   4
   2   2   1 3353.32 62.2737  11
  -4  -2  -1 1185.67 23.3742  14
  -4  -2  -1 1191.13 24.6555   5
  -4  -2  -1 1238.35 24.7747   8
   4  -2   1 1206.53 22.6424   1
  -4  -2  -1 1133.62 23.5935   1
   4  -2   1 1202.61 25.5086  13
  -4  -2  -1 1195.39 24.5541   2
   4   2   1 1224.53 23.8719   6
   4   2   1 1232.28 25.0392   1
  -4   2  -1 1193.90 24.1482   2
  -4   2  -1 1250.95 24.3484   8
   4   2   1 1211.58 24.6743  11
  -4   2  -1 1230.59 25.1511   7
  -4   2  -1 1197.78 24.2872   4
  -4   2  -1 1202.08 25.4335   5
  -4   2  -1 1226.18 23.9893  14
  -4   2  -1 1208.61 25.3023   3
  -6  -2  -1 749.920 18.1059   5
   6  -2   1 736.235 14.5490   6
   6  -2   1 713.136 15.4040   1
  -6  -2  -1 744.408 17.3965   2
   6  -2   1 707.482 17.9888  13
  -6  -2  -1 753.150 17.6033   8
   6   2   1 739.825 17.7860   1
  -6   2  -1 741.103 18.6460   5
  -6   2  -1 747.322 18.5256   3
   6   2   1 742.710 16.6449   6
   6   2   1 717.655 17.7797  11
  -6   2  -1 719.538 16.5226   2
  -6   2  -1 718.485 16.9764   8
   8  -2   1 510.366 14.7785  11
   8  -2   1 507.927 12.1933   6
  -8  -2  -1 511.944 14.5232   2
  -8  -2  -1 515.182 15.0887   8
  -8   2  -1 554.621 16.5626   3
   8   2   1 527.546 14.1490   6
  -8   2  -1 516.850 16.3793   5
  -8   2  -1 509.741 14.2999   8
   8   2   1 504.702 14.8370   1
   8   2   1 502.360 15.5126  11
 -10  -2  -1 200.905 9.57707   8
  10  -2   1 202.526 9.59208  11
  10  -2   1 204.334 7.48758   6
  10   2   1 202.529 10.0172  11
  10   2   1 205.927 8.69745   6
  10   2   1 201.653 9.07223   1
 -10   2  -1 202.024 10.6291   5
  11  -3  -1 101.132 5.45441   6
  11  -3  -1 98.5396 7.08229  11
 -11  -3   1 104.114 6.65168   8
  11   3  -1 100.587 6.57026   6
 -11   3   1 91.4424 7.57288   5
  11   3  -1 97.4156 8.18635  11
  11   3  -1 93.3673 6.92408   1
  -9  -3   1 1312.30 29.7591   2
  -9  -3   1 1348.54 30.7654   8
  -9  -3   1 1337.24 30.6074   5
   9  -3  -1 1297.80 28.6965   1
   9  -3  -1 1351.65 28.1730   6
   9   3  -1 1376.53 32.1250   1
   9   3  -1 1368.32 30.5715   6
  -9   3   1 1345.21 32.1309   5
   9   3  -1 1333.55 32.3770  11
  -9   3   1 1404.48 32.9017   3
  -7  -3   1 205.042 7.52069   5
   7  -3  -1 200.678 8.98154  13
   7  -3  -1 218.341 6.30530   6
   7  -3  -1 219.063 6.79902   1
  -7  -3   1 218.484 7.72613   8
  -7  -3   1 215.230 7.40298   2
   7   3  -1 196.456 8.03108  11
  -7   3   1 204.091 6.64442   8
  -7   3   1 225.005 8.88117   3
   7   3  -1 215.445 7.61645   6
   7   3  -1 221.918 8.72441   1
  -7   3   1 215.890 8.40241   5
  -5  -3   1 2534.00 47.7710   5
   5  -3  -1 2523.59 50.8487  13
   5  -3  -1 2481.80 47.4255   1
   5  -3  -1 2522.14 48.3375   6
  -5  -3   1 2571.12 48.2745   8
  -5  -3   1 2462.67 48.4804   1
   5   3  -1 2546.80 48.8699  11
  -5   3   1 2543.93 46.9764   8
   5   3  -1 2529.62 48.1501   6
   5   3  -1 2501.84 49.7134   1
  -5   3   1 2533.57 48.9617   5
  -5   3   1 2589.07 49.6061   3
  -3  -3   1 972.779 18.9841  12
   3  -3  -1 962.928 19.2618   1
   3  -3  -1 994.988 21.4880  13
  -3  -3   1 904.011 19.2541   6
   3  -3  -1 972.823 18.5095   6
  -3  -3   1 969.225 20.1284   1
  -3  -3   1 982.348 18.5307   5
   3  -3  -1 972.179 21.8590  10
   3   3  -1 998.589 19.4316   6
   3   3  -1 989.685 18.3781   4
   3   3  -1 958.179 19.3363   7
  -3   3   1 967.821 19.5713   5
  -3   3   1 955.030 20.5233   7
  -3   3   1 999.591 20.1551   3
   3   3  -1 962.202 20.4800   1
   3   3  -1 976.250 19.6835  11
  -3   3   1 987.079 19.1030   9
   1  -3  -1 3016.61 63.7022  13
  -1  -3   1 2956.58 58.4626   1
   1  -3  -1 3023.20 63.6844  10
   1  -3  -1 2967.23 57.9353   6
  -1  -3   1 2970.61 57.8112   6
  -1  -3   1 2888.19 54.4706  12
   1  -3  -1 2820.54 58.0603   1
  -1   3   1 2900.03 57.7225   3
  -1   3   1 3040.98 65.1073  10
   1   3  -1 2910.17 56.0517   1
  -1   3   1 2942.33 58.3057   1
   1   3  -1 2937.00 56.5778  11
  -1   3   1 2878.32 54.2288   7
   1   3  -1 2975.10 58.7135  10
   1   3  -1 2976.93 57.8447   4
   1   3  -1 2987.46 57.5619   7
  -1   3   1 2946.94 55.8110   9
  -1  -3  -1 2735.22 53.7167   1
   1  -3   1 2641.75 54.4370   1
   1  -3   1 2752.32 50.9602   6
   1  -3   1 2782.07 50.6455   6
  -1  -3  -1 2629.24 53.6376  13
  -1  -3  -1 2725.16 51.7040   8
  -1   3  -1 2701.54 52.1228   3
   1   3   1 2832.08 52.3805  11
   1   3   1 2753.63 53.9628   1
   1   3   1 2855.18 54.9897  10
   1   3   1 2804.68 53.2253   6
  -1   3  -1 2776.87 50.6046   5
   1   3   1 2790.82 52.1319   9
  -1   3  -1 2692.79 51.1973   4
  -1   3  -1 2782.33 51.1636   7
  -1   3  -1 2739.74 53.6474  14
  -3  -3  -1 2759.27 51.4844   8
  -3  -3  -1 2678.62 51.5517   1
  -3  -3  -1 2687.57 50.7557   5
  -3  -3  -1 2723.22 51.6489   2
   3  -3   1 2701.42 51.1237   1
  -3   3  -1 2708.00 52.1465   5
  -3   3  -1 2775.96 50.7729   8
  -3   3  -1 2750.43 51.5424  14
   3   3   1 2772.09 52.4257   1
  -3   3  -1 2828.19 51.1928   2
  -3   3  -1 2774.33 52.3389   7
  -3   3  -1 2794.90 52.1021   3
   3   3   1 2752.45 51.5874  11
   3   3   1 2825.19 51.2457   6
  -3   3  -1 2703.50 51.9141   4
  -5  -3  -1 1082.11 23.1634   8
  -5  -3  -1 1027.59 21.2546  14
   5  -3   1 1063.57 24.4808  13
  -5  -3  -1 1030.94 22.5098   5
  -5  -3  -1 1076.21 23.0152   2
   5  -3   1 1039.26 20.4211   1
  -5   3  -1 1019.92 21.9743  14
  -5   3  -1 1073.45 23.9890   5
   5   3   1 1065.73 23.4168  11
  -5   3  -1 1085.59 23.6555   7
   5   3   1 1058.89 23.7937   1
   5   3   1 1054.26 22.3738   6
  -5   3  -1 1095.20 23.9305   3
  -5   3  -1 1085.18 22.1496   2
  -5   3  -1 1053.81 22.2120   8
  -7  -3  -1 1227.89 27.3698   2
  -7  -3  -1 1236.67 27.5789   5
  -7  -3  -1 1246.85 27.8555   8
   7  -3   1 1213.89 23.8155   6
   7   3   1 1186.66 26.7119   6
  -7   3  -1 1237.83 28.7159   3
  -7   3  -1 1259.89 26.7097   8
   7   3   1 1253.69 28.2469   1
  -7   3  -1 1249.88 29.1777   5
   7   3   1 1167.47 28.2835  11
  -9  -3  -1 266.194 10.2130   2
   9  -3   1 274.481 8.05297   6
   9  -3   1 271.148 10.3288  11
  -9  -3  -1 278.273 11.0260   8
  -9   3  -1 268.320 11.7622   5
   9   3   1 257.161 11.3943  11
   9   3   1 280.514 10.2750   6
   9   3   1 280.931 11.1306   1
 -10  -4   1 112.858 7.10378   8
  10  -4  -1 112.693 5.33866   6
  10   4  -1 127.250 7.96495   1
 -10   4   1 117.682 7.99757   5
  10   4  -1 111.420 6.90140   6
  10   4  -1 115.264 7.81019  11
 -10   4   1 110.827 7.45763   3
  -8  -4   1 330.409 10.5940   2
   8  -4  -1 325.054 8.97819   6
  -8  -4   1 338.062 11.1750   8
   8  -4  -1 326.205 12.9002  13
   8  -4  -1 315.829 9.46199   1
   8   4  -1 333.360 12.3315   1
   8   4  -1 309.560 10.7110   6
  -8   4   1 336.838 12.0879   5
   8   4  -1 336.573 12.1858  11
  -8   4   1 345.876 12.4565   3
  -6  -4   1 103.136 4.46319   5
   6  -4  -1 107.969 4.28552   1
   6  -4  -1 114.352 6.57485  13
  -6  -4   1 119.529 5.27183   8
  -6  -4   1 104.818 4.92849   1
   6  -4  -1 110.331 3.83470   6
   6   4  -1 113.155 5.99864   1
   6   4  -1 108.643 5.64555  11
  -6   4   1 110.139 5.88792   3
  -6   4   1 108.823 5.51688   5
   6   4  -1 109.541 4.92367   6
   4  -4  -1 363.496 8.89332   1
  -4  -4   1 342.575 8.06333   5
   4  -4  -1 364.675 8.17251   6
   4  -4  -1 358.527 11.3052  13
  -4  -4   1 376.904 9.25201   8
  -4  -4   1 356.362 9.94134   1
  -4   4   1 358.596 7.72183   8
   4   4  -1 353.588 8.95450   7
  -4   4   1 385.875 10.2419   3
  -4   4   1 361.110 10.5432   7
  -4   4   1 360.524 9.56551   5
   4   4  -1 359.818 9.29720   6
   4   4  -1 358.753 10.4349   1
   4   4  -1 368.930 9.79336  11
   2  -4  -1 275.815 6.56353   6
  -2  -4   1 286.837 6.93908   6
   2  -4  -1 290.725 8.71766  13
  -2  -4   1 280.902 6.28520  12
   2  -4  -1 281.558 7.75704  10
  -2  -4   1 288.464 7.84564   1
   2   4  -1 281.483 6.95659   4
  -2   4   1 268.265 7.78325   7
  -2   4   1 284.978 6.45030   9
  -2   4   1 276.928 6.76410   1
  -2   4   1 292.512 7.56159   3
   2   4  -1 275.082 7.12318   7
   2   4  -1 279.068 6.81215   6
  -2   4   1 286.714 6.80202   5
   2   4  -1 280.064 7.81039   1
   2   4  -1 289.171 7.24504  11
   0  -4  -1 6.48162 0.70851   8
   0  -4   1 2.93335 0.76786   1
   0  -4  -1 3.28578 0.89862  13
   0  -4  -1 3.14591 0.81582   1
   0  -4   1 3.58053 0.63163   6
   0  -4  -1 3.35701 0.73699   6
   0   4  -1 3.93569 1.02445   4
   0   4  -1 6.59486 0.75883   5
   0   4   1 2.90667 0.78292   1
   0   4  -1 3.75134 0.76746   1
   0   4  -1 3.65269 0.89596  11
   0   4   1 3.83378 0.90835  11
   0   4   1 3.66077 0.81349  10
   0   4   1 6.22157 0.75762   9
   0   4  -1 2.32004 0.69997   3
  -2  -4  -1 238.182 5.75299  13
  -2  -4  -1 246.496 6.48209   8
  -2  -4  -1 236.500 7.16543   1
   2  -4   1 240.217 5.86431   1
   2  -4   1 244.188 4.94485   6
   2  -4   1 240.921 4.94491   6
   2   4   1 274.370 7.72707   1
  -2   4  -1 239.388 5.68839   8
   2   4   1 259.758 6.69209   6
   2   4   1 254.502 8.36850  10
   2   4   1 242.814 6.80737  11
  -2   4  -1 244.835 6.84521   3
  -2   4  -1 250.950 7.00991   5
  -2   4  -1 240.219 7.39597   7
   2   4   1 256.228 5.82441   7
  -2   4  -1 245.034 7.38664   4
  -4  -4  -1 0.57585 0.82613   1
  -4  -4  -1 1.24156 0.66175   5
  -4  -4  -1 1.38726 1.06364   2
   4  -4   1 2.65545 0.60991   1
   4  -4   1 2.51596 1.21851  13
  -4  -4  -1 1.39047 0.85221   8
  -4   4  -1 2.46556 1.34152   7
  -4   4  -1 0.78907 0.86578   5
  -4   4  -1 2.73920 0.99401   8
   4   4   1 2.20010 1.36545  11
  -4   4  -1 0.73071 1.08457   3
   4   4   1 0.61731 0.92900   6
  -4   4  -1 0.96056 1.11304   4
  -6  -4  -1 32.3799 3.28811   2
   6  -4   1 27.3063 3.42730  13
   6  -4   1 26.0782 1.40970   6
  -6  -4  -1 35.6354 3.19178   8
  -6   4  -1 30.0167 3.61925   3
  -6   4  -1 27.2373 2.40354   8
   6   4   1 27.7017 3.64925  11
  -6   4  -1 34.3781 3.84712   5
   6   4   1 30.8912 3.01849   6
   6   4   1 34.5463 3.67967   1
   8  -4   1 38.2898 2.48101   6
  -8  -4  -1 40.1675 3.70343   2
  -8  -4  -1 44.4487 4.86855   8
   8   4   1 38.6714 4.52560   1
  -8   4  -1 43.4605 5.16374   5
  -8   4  -1 31.8119 4.37133   3
   8   4   1 36.4804 4.07695   6
   8   4   1 43.4751 4.92643  11
 -10  -4  -1 1.65081 2.48563   8
  10  -4   1 0.88423 2.59014  11
  10  -4   1 0.00554 1.25201   6
 -10   4  -1 4.07730 2.97857   5
  10   4   1 0.22797 1.85184   6
  10   4   1 -0.5500 1.92595   1
  10   4   1 4.91682 2.75210  11
   9  -5  -1 246.682 7.97589   6
  -9  -5   1 260.285 10.2435   8
  -9  -5   1 254.162 9.79398   2
  -9   5   1 246.311 11.1438   3
   9   5  -1 270.090 11.7320   1
   9   5  -1 250.432 11.2879  11
   9   5  -1 234.318 9.93790   6
  -9   5   1 257.968 10.9227   5
   7  -5  -1 882.083 19.7774   1
   7  -5  -1 894.608 19.1375   6
   7  -5  -1 883.738 24.6185  13
  -7  -5   1 899.982 21.6471   8
  -7  -5   1 931.032 21.6178   2
   7   5  -1 923.734 23.8034   1
   7   5  -1 889.746 21.5860   6
   7   5  -1 901.177 22.8155  11
  -7   5   1 929.950 23.2259   3
  -7   5   1 900.046 22.5871   5
   5  -5  -1 1103.41 21.7204   6
  -5  -5   1 1103.10 23.3622   8
   5  -5  -1 1104.07 26.6898  13
  -5  -5   1 1058.59 24.1340   1
   5  -5  -1 1076.70 22.5750   1
  -5   5   1 1123.90 24.7963   3
   5   5  -1 1060.07 25.2766   1
   5   5  -1 1113.59 24.3119  11
   5   5  -1 1084.27 22.7223   7
   5   5  -1 1063.57 23.3882   6
  -5   5   1 1073.65 23.9047   5
   3  -5  -1 3099.04 62.7696   6
   3  -5  -1 3283.67 59.6157   1
   3  -5  -1 3264.73 62.6562  13
  -3  -5   1 3200.12 58.9839   8
  -3  -5   1 3145.55 58.9223   6
  -3  -5   1 3176.09 60.6702   1
   3  -5  -1 3154.54 61.0629  10
  -3   5   1 3222.27 60.1827   3
  -3   5   1 3182.78 58.3544   9
   3   5  -1 3096.30 59.1062   6
   3   5  -1 3163.31 58.4790   4
  -3   5   1 3110.74 59.2026   5
   3   5  -1 3214.08 59.9143  11
   3   5  -1 3128.47 59.2521   7
  -3   5   1 3137.34 61.0183   7
   3   5  -1 3269.69 61.0938   1
   1  -5  -1 2184.75 42.4789  13
  -1  -5   1 2145.26 40.0994   6
  -1  -5   1 2164.06 41.3945   1
   1  -5  -1 2088.41 44.6427  10
   1  -5  -1 2130.04 40.1060   6
   1  -5  -1 2114.66 41.2593   1
  -1  -5   1 2066.83 38.5569  12
   1   5  -1 2176.52 41.0151   4
  -1   5   1 2145.88 39.2250   9
   1   5  -1 2125.02 41.0460   7
   1   5  -1 2168.17 40.9683   1
  -1   5   1 2125.72 40.6195   1
  -1   5   1 2117.95 39.2023   5
  -1   5   1 2129.90 43.1231  10
  -1   5   1 2151.40 40.9582   3
  -1   5   1 2059.60 41.1456   7
   1   5  -1 2163.28 40.6665  11
  -1   5   1 2164.12 40.7181  11
   1  -5   1 2872.15 58.2568   1
  -1  -5  -1 3070.22 57.0369   1
  -1  -5  -1 2895.31 55.2709   6
  -1  -5  -1 3005.83 56.0776  13
   1  -5   1 3046.16 59.3890   6
  -1  -5  -1 2992.27 54.8050   8
   1   5   1 3051.49 56.6109  10
  -1   5  -1 2976.04 56.9626   4
   1   5   1 3067.03 57.0760   1
  -1   5  -1 3005.71 55.8472   3
   1   5   1 3009.35 54.5141   9
   1   5   1 2898.74 55.2925   7
   1   5   1 2934.33 55.2800   6
  -1   5  -1 3040.19 55.2589   5
   1   5   1 3031.97 55.9580  11
  -1   5  -1 2944.25 56.8297   7
  -3  -5  -1 659.125 15.0779  13
  -3  -5  -1 750.811 16.2663   8
  -3  -5  -1 724.931 17.1656   1
   3  -5   1 739.401 14.0863   6
   3  -5   1 701.767 14.0255   6
   3  -5   1 708.676 15.0271   1
   3   5   1 750.040 16.4333   6
  -3   5  -1 764.814 17.0545   3
  -3   5  -1 708.956 17.4807   4
   3   5   1 763.923 19.5011  10
  -3   5  -1 739.664 16.9703   5
   3   5   1 724.224 17.7747   1
  -3   5  -1 762.236 17.9015   7
   3   5   1 739.620 16.8914  11
  -5  -5  -1 976.901 22.3575   2
   5  -5   1 990.643 24.7143  13
   5  -5   1 937.439 19.3116   1
   5  -5   1 974.616 18.4502   6
  -5  -5  -1 987.252 22.1778   8
  -5  -5  -1 912.276 21.6659   1
   5   5   1 980.151 22.0221   6
  -5   5  -1 996.662 22.9928   3
   5   5   1 982.983 22.7376  11
  -5   5  -1 1014.00 23.5565   7
   5   5   1 962.278 23.7277   1
  -5   5  -1 969.334 22.9879   5
   7  -5   1 218.690 5.88978   6
  -7  -5  -1 229.270 9.12023   8
   7  -5   1 232.449 10.4210  13
  -7  -5  -1 217.905 8.88279   2
  -7   5  -1 219.104 9.50528   3
   7   5   1 230.255 10.1199   1
  -7   5  -1 215.037 9.65093   5
   7   5   1 209.343 9.32495  11
   7   5   1 202.334 8.50076   6
  -9  -5  -1 456.176 15.3410   8
   9  -5   1 454.010 11.2670   6
  -9  -5  -1 486.464 15.1933   2
   9   5   1 424.100 14.4802   6
   9   5   1 450.745 15.9672   1
  -9   5  -1 442.989 15.9309   5
   9   5   1 417.837 15.8201  11
 -10  -6   1 141.488 7.53948   2
 -10  -6   1 158.834 8.65577   8
  10  -6  -1 159.870 6.64185   6
  10   6  -1 157.030 9.40851   1
 -10   6   1 156.087 8.95368   5
 -10   6   1 163.782 9.31736   3
  10   6  -1 152.757 9.96320  11
   8  -6  -1 54.1372 5.96879  13
   8  -6  -1 64.6734 3.66245   6
  -8  -6   1 60.3402 4.75324   8
  -8  -6   1 55.3158 4.79172   2
  -8   6   1 61.1929 5.17018   3
   8   6  -1 55.3951 4.53354   6
   8   6  -1 60.1863 5.91608   1
   8   6  -1 64.3298 6.14847  11
  -8   6   1 70.7230 5.76155   5
  -6  -6   1 359.173 10.8413   8
   6  -6  -1 348.379 13.4083  13
   6  -6  -1 350.789 9.69539   1
  -6  -6   1 335.636 11.0218   1
   6  -6  -1 350.397 9.00410   6
   6   6  -1 346.748 11.5130  11
   6   6  -1 347.272 10.8315   6
   6   6  -1 345.326 12.4974   1
  -6   6   1 340.017 11.1180   5
  -6   6   1 342.798 11.5527   3
  -4  -6   1 98.1107 5.04596   1
   4  -6  -1 91.1917 3.68415   6
   4  -6  -1 96.0251 4.27592   1
   4  -6  -1 93.9752 6.09171  13
  -4  -6   1 92.2868 4.15587   8
  -4   6   1 97.4634 5.51638   7
   4   6  -1 91.0892 4.23023   6
   4   6  -1 102.887 5.04276  11
  -4   6   1 98.5239 4.91421   3
  -4   6   1 91.1254 4.43203   5
   4   6  -1 96.4490 4.26334   7
   2  -6  -1 60.3042 3.49149   1
   2  -6  -1 62.7050 3.00164   6
  -2  -6   1 62.2671 3.05668   6
  -2  -6   1 62.0410 3.71617   1
   2  -6  -1 70.2859 4.62907  13
   2  -6  -1 59.9923 3.16670  10
  -2  -6   1 60.9402 2.80011   8
  -2   6   1 59.3595 3.82903   7
   2   6  -1 75.2553 3.53021   4
   2   6  -1 63.2807 3.53099  11
   2   6  -1 61.7072 3.69452   1
  -2   6   1 71.1459 3.77191   3
   2   6  -1 59.4106 2.59819  10
  -2   6   1 61.0440 2.95729   1
   2   6  -1 63.6786 3.48549   7
   2   6  -1 64.3919 2.60949  10
  -2   6   1 59.6224 2.88171   5
   0  -6  -1 215.494 6.33467   6
   0  -6   1 213.220 6.91696   1
   0  -6   1 222.433 6.17956   6
   0  -6  -1 218.141 7.34041   1
   0  -6  -1 223.540 7.59564  13
   0  -6  -1 208.353 5.11044   8
   0   6   1 218.491 6.70154  11
   0   6  -1 214.282 7.23778   7
   0   6   1 214.744 7.01314   1
   0   6  -1 225.634 6.70270   3
   0   6  -1 220.293 5.12322   5
   0   6  -1 208.187 6.22740   1
   0   6   1 210.869 6.81991   7
   0   6  -1 220.908 6.72767  11
   0   6  -1 230.678 7.39257   4
   0   6   1 214.353 5.36377   9
  -2  -6  -1 16.8003 1.67769   8
  -2  -6  -1 15.9787 2.22968   1
   2  -6   1 16.1541 1.64429   1
   2  -6   1 20.0222 1.52190   6
   2  -6   1 16.2218 1.47174  10
  -2  -6  -1 16.4275 1.64951  13
   2   6   1 16.4459 2.25217  11
   2   6   1 17.8927 2.19268  10
   2   6   1 16.4930 1.59737   7
   2   6   1 18.2669 2.61508   1
  -2   6  -1 21.4961 2.38580   3
   2   6   1 16.1514 1.93985   6
  -2   6  -1 17.1754 2.55064   7
  -2   6  -1 24.2085 2.96075   4
  -2   6  -1 19.4888 1.95857   5
   2   6   1 20.6728 1.58825   9
  -4  -6  -1 62.1406 3.97828   2
  -4  -6  -1 60.8529 3.99884   1
  -4  -6  -1 56.9556 3.67476   8
   4  -6   1 62.6725 2.84898   1
   4  -6   1 59.7139 2.43105   6
   4  -6   1 64.9812 5.16792  13
   4   6   1 64.9735 5.25264  10
   4   6   1 64.9336 3.39602   9
  -4   6  -1 65.0448 4.71475   7
  -4   6  -1 67.7893 4.33907   3
  -4   6  -1 59.5577 4.10288   5
   4   6   1 65.8968 4.46681  11
   4   6   1 57.5734 3.70437   6
   4   6   1 56.3702 4.39444   1
  -6  -6  -1 11.5463 2.39215   2
   6  -6   1 13.2021 1.45111   6
   6  -6   1 22.4148 3.81340  13
  -6  -6  -1 14.9966 2.81081   8
   6   6   1 13.9483 3.73274  10
  -6   6  -1 13.8612 3.13700   7
   6   6   1 13.7132 3.21602  11
   6   6   1 13.6580 2.85332   1
  -6   6  -1 15.1441 3.00837   5
  -6   6  -1 18.6533 3.18751   3
   6   6   1 13.9055 2.61033   6
  -8  -6  -1 0.89729 2.38402   8
  -8  -6  -1 4.02775 2.35488   2
   8  -6   1 3.79452 1.19091   6
   8   6   1 2.44266 2.06044   6
  -8   6  -1 3.14044 2.46017   3
  -8   6  -1 2.41078 2.38367   5
   8   6   1 0.47296 2.23581  11
   8   6   1 8.12815 3.11713   1
   9  -7  -1 220.851 7.64953   6
  -9  -7   1 202.590 9.26293   2
  -9  -7   1 226.653 10.1333   8
   9   7  -1 225.312 11.7139   1
   9   7  -1 209.856 11.2072  11
  -9   7   1 198.597 10.2010   5
  -9   7   1 221.312 10.7607   3
   7  -7  -1 1011.87 22.2962   1
   7  -7  -1 956.749 27.9821  13
  -7  -7   1 1024.44 24.6796   2
   7  -7  -1 1000.34 21.6358   6
  -7  -7   1 995.008 24.0712   8
  -7   7   1 988.618 25.5241   3
  -7   7   1 1014.41 24.9752   5
   7   7  -1 1010.44 27.2648   1
   7   7  -1 985.404 25.7123  11
   5  -7  -1 186.598 9.56596  13
   5  -7  -1 186.351 6.72450   1
  -5  -7   1 179.171 7.81103   1
  -5  -7   1 190.344 7.12497   8
   5  -7  -1 197.476 6.26963   6
  -5   7   1 182.203 7.92812   3
   5   7  -1 184.580 7.92779  11
   5   7  -1 183.079 8.56785   1
  -5   7   1 167.796 7.13474   5
  -5   7   1 184.054 8.60173   7
   3  -7  -1 1177.29 28.6144  13
  -3  -7   1 1156.43 24.5947   6
  -3  -7   1 1155.26 24.1469   8
   3  -7  -1 1185.04 25.4104   1
  -3  -7   1 1223.22 26.8462   1
   3   7  -1 1190.43 25.7022  11
   3   7  -1 1179.43 26.8159   1
  -3   7   1 1187.74 25.8732   3
  -3   7   1 1159.81 26.8238   7
   3   7  -1 1168.83 25.2554   7
  -3   7   1 1132.75 24.3850   5
  -1  -7   1 373.465 9.70208   6
   1  -7  -1 377.187 9.75166   6
   1  -7  -1 361.770 10.8253   1
  -1  -7   1 376.433 10.9613   1
  -1  -7   1 364.858 8.59018   8
   1  -7  -1 378.240 11.8901  13
  -1   7   1 363.933 10.8623   7
  -1   7   1 360.762 9.95418   1
   1   7  -1 353.536 10.1294   1
  -1   7   1 383.260 10.6746   3
   1   7  -1 381.394 10.3116  11
   1   7  -1 368.724 10.7220   7
  -1   7   1 354.838 8.18934   9
   1   7  -1 367.556 10.6295   4
  -1  -7  -1 1697.37 34.6852  13
  -1  -7  -1 1692.82 35.4417   1
   1  -7   1 1700.78 32.8307   6
  -1  -7  -1 1687.64 33.3724   6
   1  -7   1 1658.54 33.9201   1
   1   7   1 1703.54 35.1539   1
   1   7   1 1659.84 33.7776   7
  -1   7  -1 1653.14 35.2546   7
   1   7   1 1671.46 31.7313   9
  -1   7  -1 1697.72 34.0372   3
  -1   7  -1 1633.92 35.3639   4
   1   7   1 1659.85 34.0548  11
  -3  -7  -1 717.991 16.6999   8
   3  -7   1 734.947 20.5934  13
   3  -7   1 724.130 16.4686   1
   3  -7   1 729.872 15.5618   6
  -3  -7  -1 744.375 18.8671   1
   3   7   1 750.933 19.5316   1
   3   7   1 726.163 19.2878  10
   3   7   1 725.842 17.9036  11
  -3   7  -1 725.391 17.7476   3
   3   7   1 710.566 15.7369   9
  -3   7  -1 732.555 19.1989   7
  -3   7  -1 732.280 17.4163   5
   5  -7   1 1465.62 28.2262   6
  -5  -7  -1 1444.89 31.3610   8
   5  -7   1 1413.52 35.0599  13
  -5  -7  -1 1424.69 32.1207   1
  -5  -7  -1 1481.64 32.2214   2
  -5   7  -1 1446.53 33.2530   7
  -5   7  -1 1497.66 32.5444   5
  -5   7  -1 1412.91 32.1693   3
   5   7   1 1401.09 33.9556   1
   5   7   1 1445.91 29.9907   9
   5   7   1 1413.43 31.4700   6
   5   7   1 1467.84 32.7053  11
   7  -7   1 462.474 10.8404   6
   7  -7   1 442.213 16.9201  13
  -7  -7  -1 440.063 14.3183   8
  -7  -7  -1 449.989 14.7284   2
   7   7   1 429.572 15.1315  11
  -7   7  -1 467.168 15.2004   5
   7   7   1 444.063 13.3291   9
   7   7   1 438.196 16.1299   1
   7   7   1 438.985 14.2766   6
  -7   7  -1 440.732 14.6701   3
  -9  -7  -1 500.578 16.6428   8
  -9  -7  -1 524.742 16.8363   2
   9  -7   1 517.862 12.5406   6
  -9   7  -1 549.326 18.2514   5
  -9   7  -1 517.796 17.2287   3
   9   7   1 519.036 18.5796   1
   9   7   1 493.560 18.0140  11
  -8  -8   1 38.8226 4.76336   2
  -8  -8   1 38.9699 4.73911   8
   8  -8  -1 43.5080 3.56488   6
  -8   8   1 36.6488 5.11038   3
  -8   8   1 41.7092 5.01569   5
   8   8  -1 37.5323 5.67618   1
   8   8  -1 37.1889 5.49357  11
   6  -8  -1 479.968 12.9339   1
   6  -8  -1 441.331 17.1143  13
   6  -8  -1 460.451 12.0811   6
  -6  -8   1 449.452 14.5969   1
  -6  -8   1 472.467 13.7522   8
   6   8  -1 478.088 15.0492  11
   6   8  -1 453.712 15.9239   1
  -6   8   1 462.822 14.0753   5
  -6   8   1 466.514 14.8846   3
   4  -8  -1 271.991 8.38006   6
  -4  -8   1 278.619 8.62819   8
  -4  -8   1 289.223 10.7620   1
   4  -8  -1 289.012 12.2621  13
   4  -8  -1 275.001 9.06103   1
  -4   8   1 271.348 9.76938   3
  -4   8   1 269.903 8.78585   5
   4   8  -1 273.448 10.7322   1
   4   8  -1 281.248 9.95391  11
  -4   8   1 272.903 10.8032   7
  -2  -8   1 449.704 12.0685   6
  -2  -8   1 449.257 10.9816   8
  -2  -8   1 479.924 13.9589   1
   2  -8  -1 475.545 15.2509  13
   2  -8  -1 451.648 13.0162   1
  -2   8   1 457.910 13.7610   7
   2   8  -1 463.841 12.8619  11
   2   8  -1 466.669 13.3338   1
  -2   8   1 459.203 13.0144   3
   2   8  -1 460.134 13.0046   7
   0  -8   1 1089.37 25.0175   1
   0  -8   1 1092.16 23.4627   6
   0  -8  -1 1115.43 23.8736   6
   0  -8  -1 1146.50 26.3540  13
   0  -8  -1 1161.95 26.0186   1
   0   8   1 1116.48 24.9588   3
   0   8   1 1062.21 24.6386   7
   0   8  -1 1114.33 25.5717   7
   0   8   1 1097.14 24.4614  11
   0   8  -1 1122.25 24.5020  11
   0   8  -1 1124.25 24.5732   3
   0   8   1 1041.84 24.5164   1
   2  -8   1 336.650 10.0915   1
   2  -8   1 322.705 8.94829   6
  -2  -8  -1 355.540 11.7856   1
  -2   8  -1 340.883 10.3944   3
   2   8   1 336.431 11.4023   1
  -2   8  -1 341.783 11.6588   7
   2   8   1 341.985 10.8129  11
  -4  -8  -1 842.154 20.0023   8
  -4  -8  -1 882.842 22.2211   1
   4  -8   1 854.718 18.4223   6
  -4  -8  -1 850.558 21.4498   2
   4  -8   1 833.103 24.1147  13
   4  -8   1 834.845 19.0332   1
   4   8   1 837.329 21.4915  11
   4   8   1 846.064 23.2297   1
  -4   8  -1 837.383 20.6544   5
  -4   8  -1 874.783 22.7703   7
  -4   8  -1 853.023 21.1963   3
   6  -8   1 418.676 10.5253   6
  -6  -8  -1 417.508 14.0599   2
   6  -8   1 404.379 16.0214  13
  -6  -8  -1 422.677 13.2769   8
  -6   8  -1 433.876 15.0131   7
   6   8   1 407.509 14.5413  11
   6   8   1 404.997 15.7457   1
  -6   8  -1 398.534 13.6554   5
  -6   8  -1 407.100 13.9862   3
  -8  -8  -1 195.623 9.71805   2
  -8  -8  -1 196.970 9.30754   8
   8  -8   1 186.362 6.38193   6
  -8   8  -1 183.228 9.79827   5
   8   8   1 186.020 10.5275   1
   8   8   1 187.812 10.4948  11
  -8   8  -1 188.466 9.74040   3
  -7  -9   1 136.559 7.15223   8
   7  -9  -1 148.343 6.28571   6
  -7  -9   1 144.580 7.85315   2
  -7   9   1 155.554 8.04023   5
  -7   9   1 142.368 8.34736   3
   7   9  -1 128.714 7.93132  11
   7   9  -1 145.501 9.44795   1
   5  -9  -1 1486.29 31.8401   6
  -5  -9   1 1572.80 35.8515   1
   5  -9  -1 1529.25 39.1247  13
  -5  -9   1 1506.67 32.7016   8
   5  -9  -1 1508.36 32.8564   1
  -5   9   1 1533.62 35.1303   3
   5   9  -1 1532.15 34.8472  11
  -5   9   1 1514.82 36.2701   7
   5   9  -1 1525.05 36.5644   1
  -3  -9   1 383.672 13.1586   1
   3  -9  -1 378.174 10.9570   6
   3  -9  -1 381.881 14.6872  13
   3  -9  -1 384.617 12.0860   1
   3   9  -1 385.592 12.2181  11
  -3   9   1 373.365 13.1660   7
  -3   9   1 370.913 12.0925   3
   3   9  -1 378.265 11.8846   7
   3   9  -1 378.569 12.8892   1
   1  -9  -1 2637.90 53.1300   1
  -1  -9   1 2610.34 50.7951   6
  -1  -9   1 2581.47 52.8243   1
   1  -9  -1 2599.57 54.6744  13
   1   9  -1 2525.62 52.4256   7
   1   9  -1 2630.22 51.7402  11
   1   9  -1 2595.04 51.8797   3
  -1   9   1 2588.86 52.1455   3
  -1   9   1 2414.86 52.2879   7
   1  -9   1 130.030 6.39803   1
  -1  -9  -1 140.407 7.20228   1
  -1  -9  -1 137.235 6.79978  13
   1  -9   1 127.924 5.60207   6
  -1   9  -1 134.406 6.24135   3
   1   9   1 121.681 5.93411   7
   1   9   1 128.688 6.29438  11
   1   9   1 127.352 6.43105   1
  -1   9  -1 132.717 7.17049   7
   3  -9   1 1452.41 36.5315  13
   3  -9   1 1473.48 30.5599   6
  -3  -9  -1 1499.29 34.5236   1
  -3   9  -1 1505.51 34.9304   7
   3   9   1 1424.46 33.0677  11
   3   9   1 1517.99 34.9497   1
  -3   9  -1 1496.43 32.9030   3
  -5  -9  -1 6.86596 2.64680   2
  -5  -9  -1 6.53607 2.17297   8
   5  -9   1 5.86116 2.55082  13
  -5  -9  -1 4.27173 1.91364   1
   5   9   1 5.35959 2.82499  11
  -5   9  -1 7.69881 2.62661   3
  -5   9  -1 7.58535 2.98676   7
   5   9   1 8.86866 3.23645   1
  -7  -9  -1 713.606 20.7164   2
   7  -9   1 697.892 16.4095   6
  -7  -9  -1 690.391 19.7489   8
   7   9   1 683.988 21.3813  11
   7   9   1 721.758 23.2892   1
  -7   9  -1 683.108 20.5640   3
  -7   9  -1 687.871 20.4382   5
   8 -10  -1 8.64182 2.19352   6
  -8 -10   1 6.10199 3.05108   2
  -8 -10   1 10.6485 3.15491   8
  -8  10   1 8.38568 3.30948   3
   8  10  -1 8.66393 3.99586  11
   8  10  -1 14.9265 3.91976   1
   6 -10  -1 60.1532 4.22311   6
   6 -10  -1 57.7547 4.44079   1
  -6 -10   1 62.1582 6.11954   1
   6  10  -1 67.8654 6.84738   1
   6  10  -1 55.8733 6.11581  11
  -6  10   1 60.9042 5.87239   3
   4 -10  -1 2.21486 2.03738  13
   4 -10  -1 1.35752 1.69709   1
   4 -10  -1 3.61106 1.67284   6
   4  10  -1 2.23098 1.78098   1
   4  10  -1 1.38497 1.75505  11
  -4  10   1 5.75678 2.61602   3
  -4  10   1 3.89506 2.81219   7
   2 -10  -1 2.07906 1.56444   6
  -2 -10   1 3.05666 2.35278   1
   2 -10  -1 1.15141 1.60805  13
  -2 -10   1 3.02698 1.69307   6
   2  10  -1 -0.1160 1.63859   3
   2  10  -1 1.34498 1.75669   7
   2  10  -1 1.46337 1.54390  11
  -2  10   1 2.53488 2.00948   3
  -2  10   1 5.38668 2.15317   7
   0 -10  -1 46.3702 4.74683  13
   0 -10  -1 43.6726 3.52097   6
   0 -10   1 47.2536 4.63205   1
   0 -10   1 42.1692 3.63258   6
   0 -10   1 43.0883 4.64210  13
   0 -10  -1 42.8389 4.73290   1
   0  10  -1 41.6415 3.82900   3
   0  10   1 42.5596 4.21659   7
   0  10  -1 43.3230 4.69082   7
   0  10   1 49.5409 4.70068   3
   2 -10   1 56.6959 5.63783  13
  -2 -10  -1 69.0801 5.53829   1
   2 -10   1 57.5942 4.58713   1
   2 -10   1 57.5462 4.05058   6
   2  10   1 60.5033 4.80735  11
  -2  10  -1 57.8944 5.25781   7
  -2  10  -1 65.8972 4.75291   3
   2  10   1 59.7766 5.31650   1
   4 -10   1 11.2645 2.38204   1
   4 -10   1 14.0431 3.54382  13
  -4 -10  -1 13.2788 3.24862   2
  -4 -10  -1 12.9005 3.45558   1
  -4  10  -1 14.3495 3.10879   3
  -4  10  -1 17.3453 4.03094   7
   4  10   1 13.9415 3.48771  11
   4  10   1 14.1639 3.35018   1
   6 -10   1 1.99486 1.54080   6
  -6 -10  -1 -0.4742 1.63834   2
   6  10   1 1.12744 2.12042  11
   6  10   1 0.01990 2.70046   1
  -6  10  -1 2.22034 1.87131   3
   7 -11  -1 333.227 11.0180   6
  -7 -11   1 336.681 13.6028   2
   7  11  -1 312.779 13.8916  11
   7  11  -1 345.919 15.5226   1
  -7  11   1 328.971 13.6632   3
  -5 -11   1 231.034 11.1029   1
   5 -11  -1 231.887 8.95377   6
   5 -11  -1 220.350 9.33516   1
  -5  11   1 212.508 10.5091   3
   5  11  -1 228.272 11.4953   1
   5  11  -1 204.110 10.2645  11
   3 -11  -1 161.305 10.0078  13
  -3 -11   1 184.508 9.80089   1
   3 -11  -1 153.022 7.90152   1
   3 -11  -1 166.116 7.51783   6
  -3  11   1 159.590 8.56921   3
   3  11  -1 164.686 8.55525  11
  -3  11   1 163.494 9.31592   7
   3  11  -1 163.683 8.20431   3
  -1 -11   1 393.795 12.2371   6
  -1 -11   1 404.367 14.3262   1
   1 -11  -1 384.063 14.9487  13
   1 -11  -1 367.504 12.1265   6
  -1 -11   1 381.100 14.5748  13
   1  11  -1 365.259 13.4338   7
  -1  11   1 384.758 13.5049   3
  -1  11   1 376.640 13.6170   7
   1  11  -1 367.036 12.8090   3
   1 -11   1 247.692 10.4113   1
  -1 -11  -1 248.168 11.2318   1
   1 -11   1 231.729 11.8980  13
   1 -11   1 253.915 9.19007   6
  -1  11  -1 244.955 9.92321   3
   1  11   1 246.657 10.4336   3
  -1  11  -1 232.527 11.0801   7
   1  11   1 257.780 10.5281  11
   3 -11   1 800.525 25.8702  13
  -3 -11  -1 849.756 24.3561   1
   3 -11   1 855.853 21.4895   1
  -3 -11  -1 838.904 22.6506   2
  -3  11  -1 805.017 22.1580   3
   3  11   1 791.182 22.3545  11
  -3  11  -1 844.046 24.3315   7
   3  11   1 831.156 24.0367   1
   5 -11   1 370.066 11.2007   6
  -5 -11  -1 356.248 13.8597   2
  -5  11  -1 367.638 15.0430   7
   5  11   1 332.034 13.7831  11
   5  11   1 334.268 15.0123   1
  -5  11  -1 343.902 13.3324   3
   4 -12  -1 182.034 8.40552   6
  -4 -12   1 182.549 10.5987   1
   4 -12  -1 193.789 9.18922   1
   4  12  -1 189.374 9.70101   3
  -4  12   1 193.066 9.85060   3
   4  12  -1 179.056 9.36996  11
   2 -12  -1 205.262 8.85030   6
  -2 -12   1 201.729 10.5907   1
   2 -12  -1 209.509 10.1806   1
   2  12  -1 189.150 9.53818  11
   2  12  -1 189.544 9.21019   3
  -2  12   1 192.237 9.48302   3
  -2  12   1 184.579 10.0485   7
   0 -12   1 52.5299 5.53367   1
   0 -12   1 45.0128 5.29935  13
   0 -12   1 47.0047 4.15006   6
   0  12  -1 50.6482 5.21593   7
   0  12   1 54.3609 5.16319   3
   0  12  -1 50.3489 4.77612   3
  -2 -12  -1 350.906 14.1967   1
   2  12   1 324.210 13.0460  11
  -2  12  -1 349.004 12.9678   3
  -2  12  -1 331.369 13.8766   7
   2  12   1 339.631 13.5379   3
   4 -12   1 57.2510 4.53076   6
  -4 -12  -1 44.3561 5.47552   2
  -4 -12  -1 49.0628 6.33134   1
   4 -12   1 53.4984 4.57797   1
  -4  12  -1 49.7950 6.19537   7
  -4  12  -1 55.7398 5.65615   3
   4  12   1 44.9704 6.06327   1
   4  12   1 54.7429 6.33845  11
   3 -13  -1 991.677 25.2794   6
  -3 -13   1 1031.19 28.9470   1
   3 -13  -1 1006.00 26.7862   1
  -3  13   1 997.865 27.1507   3
   3  13  -1 947.591 26.5627   3
  -3  13   1 1007.71 28.3059   7
   3  13  -1 991.321 26.8376  11
   1 -13  -1 245.689 11.8005   1
  -1 -13   1 252.064 12.1071   1
  -1  13   1 230.594 11.1881   3
   1  13  -1 228.949 10.7261   3
   1 -13   1 625.893 17.8399   6
  -1 -13  -1 538.755 19.1478   2
  -1  13  -1 626.425 20.6860   7
   1  13   1 643.563 19.8893   3
  -1  13  -1 647.669 19.3387   3
   3 -13   1 91.2191 6.00560   6
  -3 -13  -1 87.1203 6.97975   2
   3 -13   1 88.3177 6.30183   1
  -3  13  -1 83.6451 6.36714   3
  -3  13  -1 91.2301 8.03986   7
   3  13   1 80.3027 7.19256  11
   3  13   1 88.1435 6.93381   3
 -10   0   2 939.708 23.0875   8
  10   0  -2 993.594 23.2761   6
  10   0  -2 953.989 24.8685  11
  10   0  -2 960.884 24.0729   1
 -10   0   2 983.126 25.1809   5
   8   0  -2 480.431 13.9574  11
   8   0  -2 503.183 13.8226   1
   8   0  -2 492.852 12.9137   6
  -8   0   2 491.014 12.9925   8
  -8   0   2 504.075 14.2860   5
   6   0  -2 4276.28 82.4091  13
   6   0  -2 4451.24 81.2211  11
  -6   0   2 4278.20 80.1291   8
  -6   0   2 4431.63 81.2528   5
   6   0  -2 4480.37 81.4916   1
  -6   0   2 4468.19 80.2415  12
  -6   0   2 4188.95 81.9013   3
   6   0  -2 4381.45 80.1635   6
  -6   0   2 4282.34 79.0523   2
  -4   0   2 2594.68 50.0060   3
  -4   0   2 2670.46 49.4317   1
   4   0  -2 2613.91 51.1186   6
   4   0  -2 2683.15 49.9247   1
  -4   0   2 2738.08 48.9970  12
   4   0  -2 2694.80 55.3787  13
   2   0  -2 9428.63 180.567  13
   2   0  -2 7893.34 172.279   1
  -2   0   2 9702.95 171.172   9
  -2   0   2 9447.59 169.574  12
  -2   0   2 8646.95 173.069   1
  -2   0   2 9929.75 187.847  10
   2   0  -2 9999.99 185.384  10
   2   0  -2 8994.93 170.891   6
   0   0  -2 63.5710 2.13554   8
   0   0  -2 68.1304 2.97582  10
   0   0   2 65.6049 3.05377  10
   0   0  -2 66.2456 2.31594  14
   0   0  -2 63.3220 2.34169   2
   0   0  -2 67.1828 2.48174  13
   0   0   2 65.8722 1.68401   6
   0   0  -2 67.9094 2.13612   4
  -2   0  -2 4740.34 91.4914  14
  -2   0  -2 4753.05 87.5908   8
  -2   0  -2 4663.93 88.6453   7
  -2   0  -2 4549.58 89.8502   4
  -2   0  -2 4679.69 91.7923   2
  -2   0  -2 4621.55 90.7566   5
   2   0   2 4645.47 90.3703   1
   4   0   2 63.7917 2.70709   1
   4   0   2 60.2317 2.07375   6
   4   0   2 57.6896 2.92185  11
   4   0   2 58.8033 2.65487  13
  -4   0  -2 57.5657 2.80595  14
  -4   0  -2 53.4441 3.37147   5
  -4   0  -2 62.1500 3.31090   2
  -4   0  -2 61.1767 2.40731   4
  -4   0  -2 61.2933 3.35963   8
   6   0   2 2406.85 45.4393   6
   6   0   2 2379.91 47.7509  11
  -6   0  -2 2360.31 47.6620   2
  -6   0  -2 2466.91 49.3170   5
  -6   0  -2 2448.33 48.1367   8
   6   0   2 2435.39 46.5424   1
  -8   0  -2 4.15140 2.47733   5
   8   0   2 5.74992 2.53205  11
   8   0   2 3.45106 1.47994   6
  -8   0  -2 12.5208 2.55817   8
  10   0   2 1473.92 31.9184   6
  10   0   2 1474.77 35.1184  11
 -10   0  -2 1494.96 34.5147   8
 -10   0  -2 1494.16 36.0944   5
  11  -1  -2 126.851 8.03176  11
 -11  -1   2 136.483 8.07796   5
 -11  -1   2 138.409 7.46816   8
  11  -1  -2 140.362 7.06458   6
 -11   1   2 129.691 6.88706   8
  11   1  -2 136.186 8.11701  11
  11   1  -2 128.986 7.07329   6
  11   1  -2 134.651 7.72964   1
 -11   1   2 132.482 8.30411   5
   9  -1  -2 2.71284 1.49964   6
   9  -1  -2 1.60777 1.43397   1
  -9  -1   2 2.05312 1.33659   8
   9  -1  -2 0.78110 2.03134  11
  -9  -1   2 6.19273 2.23514   5
  -9   1   2 1.45688 1.48791   5
   9   1  -2 0.20251 1.34815   6
  -9   1   2 1.34703 2.02048   3
   9   1  -2 1.95372 1.75591  11
   9   1  -2 0.91807 1.22191   1
  -9   1   2 4.90737 1.70771   8
   7  -1  -2 187.356 6.86483   1
  -7  -1   2 188.941 6.96565   5
   7  -1  -2 204.140 6.37356   6
  -7  -1   2 189.044 5.85851   2
  -7  -1   2 203.357 6.72987   8
   7  -1  -2 183.225 7.89448  13
  -7   1   2 186.199 7.65968   3
   7   1  -2 198.190 6.76663   6
   7   1  -2 178.591 7.20511  13
  -7   1   2 208.641 7.57376   5
  -7   1   2 193.627 6.30725   8
   7   1  -2 196.576 7.30436  11
   7   1  -2 189.687 7.26957   1
   5  -1  -2 150.587 6.09592  13
  -5  -1   2 146.744 4.90740   1
  -5  -1   2 145.048 4.86982   5
  -5  -1   2 147.102 4.71525   8
   5  -1  -2 144.296 5.06291   1
  -5  -1   2 142.886 5.32712   3
  -5  -1   2 145.898 4.68471  12
   5  -1  -2 137.801 4.39034   6
  -5   1   2 143.914 3.62921   2
   5   1  -2 153.210 4.85977   6
  -5   1   2 147.669 5.47554   3
  -5   1   2 149.908 4.51022  12
   5   1  -2 150.995 5.16573  11
   5   1  -2 144.685 5.51640  13
  -5   1   2 145.380 4.38337   8
  -5   1   2 168.705 5.33190   5
   5   1  -2 143.317 3.81108   4
   5   1  -2 146.185 5.44750   1
  -5   1   2 141.422 4.43203   1
  -3  -1   2 232.301 5.50074  12
  -3  -1   2 227.241 5.76790   3
  -3  -1   2 234.311 6.08892   1
   3  -1  -2 238.149 6.15048   1
   3  -1  -2 249.541 7.99648  10
   3  -1  -2 230.906 5.52989   6
   3  -1  -2 234.357 6.83159  13
   3   1  -2 243.761 6.75300  13
   3   1  -2 226.115 5.64130   6
  -3   1   2 234.126 5.35986  12
  -3   1   2 224.534 5.76565   1
  -3   1   2 233.835 5.69740   9
   3   1  -2 245.489 7.87962  10
   3   1  -2 237.272 5.40937   4
  -3   1   2 232.136 6.07943   3
   3   1  -2 237.186 6.35738   1
   3   1  -2 241.297 5.69228  11
  -1  -1   2 2023.69 39.6086  12
   1  -1  -2 1988.23 41.9350   1
   1  -1  -2 2121.02 45.7475  13
  -1  -1   2 2046.77 40.4910   1
  -1  -1   2 1958.73 39.8571   6
  -1  -1   2 2066.05 46.3684  10
   1  -1  -2 2071.86 44.7630  10
   1   1  -2 2031.69 40.4954  14
  -1   1   2 2069.42 42.0520   1
   1   1  -2 2122.22 45.2494  10
  -1   1   2 2115.39 46.3489  10
  -1   1   2 2099.69 39.3883  12
   1   1  -2 2070.52 40.4422   4
  -1   1   2 2112.48 40.2127   9
   1   1  -2 2024.18 40.2671   2
  -1  -1  -2 204.855 5.49876   2
   1  -1   2 212.789 6.69201  10
  -1  -1  -2 209.967 5.41142   8
  -1  -1  -2 210.370 5.31709   5
  -1  -1  -2 210.964 4.76508   4
  -1  -1  -2 210.713 5.28425  14
  -1   1  -2 208.610 5.09247   7
  -1   1  -2 219.052 5.40872   4
  -1   1  -2 211.158 5.63055   5
  -1   1  -2 201.419 5.01519   3
   1   1   2 214.538 7.03358  10
   1   1   2 209.518 5.26920   1
   1   1   2 212.503 4.70042   6
   1   1   2 209.410 4.77591  11
  -1   1  -2 210.521 5.63428   2
  -1   1  -2 219.988 5.42366   8
  -1   1  -2 215.960 5.55265  14
   3  -1   2 203.599 4.57826   1
  -3  -1  -2 196.971 6.24736   5
  -3  -1  -2 202.856 6.17751   8
  -3  -1  -2 197.669 5.50820  14
  -3  -1  -2 196.004 6.04858   2
  -3  -1  -2 192.273 4.63402   4
   3   1   2 197.828 4.54242  13
  -3   1  -2 189.455 5.93694   3
  -3   1  -2 216.124 5.79420   7
  -3   1  -2 205.368 6.16752   2
   3   1   2 197.377 5.64065  11
  -3   1  -2 206.196 5.86911  14
  -3   1  -2 188.371 6.41214   5
  -3   1  -2 203.813 6.04355   8
   3   1   2 197.747 4.39738  13
   3   1   2 193.554 5.60280   1
   3   1   2 200.279 4.95262   6
  -3   1  -2 198.096 5.53652   4
  -5  -1  -2 357.834 10.1407   8
  -5  -1  -2 348.800 9.93248   2
  -5  -1  -2 354.790 8.89798  14
  -5  -1  -2 339.658 10.3785   5
   5  -1   2 346.356 7.23761   6
   5  -1   2 343.020 8.23688   1
   5  -1   2 319.983 9.32429  13
  -5   1  -2 349.860 9.82799   8
  -5   1  -2 328.307 10.2746   3
   5   1   2 352.787 9.46095   1
   5   1   2 352.328 8.59272   6
  -5   1  -2 340.854 10.8190   5
  -5   1  -2 355.832 9.83499   2
  -5   1  -2 342.656 9.02664  14
   5   1   2 330.852 9.68548  11
  -7  -1  -2 6.08304 2.15049   8
   7  -1   2 4.90642 1.10013   6
  -7  -1  -2 6.56528 2.33694   5
  -7  -1  -2 5.07108 1.90199   2
   7  -1   2 6.15957 2.14062  11
  -7   1  -2 5.52044 2.32147   5
   7   1   2 7.75670 2.11540  11
  -7   1  -2 5.41248 1.93028   8
  -7   1  -2 5.09801 1.73723   2
   9  -1   2 207.366 9.36726  11
   9  -1   2 220.704 7.46956   6
  -9  -1  -2 223.850 9.78951   8
  -9   1  -2 200.850 10.0036   5
   9   1   2 208.735 9.84675  11
  -9   1  -2 202.912 8.92956   8
   9   1   2 212.891 8.03543   6
  10  -2  -2 106.655 6.77866  11
 -10  -2   2 117.824 6.62016   8
  10  -2  -2 104.922 5.47411   6
  10  -2  -2 105.642 5.87541   1
 -10  -2   2 90.4679 6.13879   5
  10   2  -2 100.168 6.89131  11
 -10   2   2 107.366 7.32939   5
  10   2  -2 94.8534 5.95715   6
  10   2  -2 114.421 7.08160   1
 -10   2   2 109.724 7.53050   3
   8  -2  -2 1267.34 25.9393   6
   8  -2  -2 1201.50 26.7651   1
   8  -2  -2 1175.05 29.6257  13
  -8  -2   2 1256.99 25.9984   2
  -8  -2   2 1230.89 27.3206   5
  -8  -2   2 1256.91 27.1651   8
  -8   2   2 1197.85 25.9036   8
   8   2  -2 1248.70 27.1209   6
   8   2  -2 1243.43 28.5292   1
   8   2  -2 1243.03 28.3799  11
  -8   2   2 1223.40 28.6646   3
  -8   2   2 1232.30 28.3826   5
  -6  -2   2 33.6974 2.53674  12
  -6  -2   2 41.9984 2.70702   1
  -6  -2   2 39.3716 2.60528   8
  -6  -2   2 36.2118 2.60033   5
   6  -2  -2 37.1115 2.30503   6
   6  -2  -2 35.9622 3.34454  13
   6  -2  -2 37.1237 2.64535   1
   6   2  -2 33.0537 2.80717  13
   6   2  -2 39.7642 2.60588   6
   6   2  -2 35.9112 3.06670  11
  -6   2   2 37.3474 2.79905   5
  -6   2   2 32.8086 2.87429   3
  -6   2   2 34.9048 2.15185   8
   6   2  -2 37.7162 3.02750   1
   4  -2  -2 2841.56 55.9442   6
  -4  -2   2 2746.25 52.9828   1
   4  -2  -2 2930.21 54.8776  13
  -4  -2   2 2826.51 52.0684  12
   4  -2  -2 2766.33 52.7055   1
  -4   2   2 2816.97 51.9539   1
   4   2  -2 2855.40 51.3468   4
  -4   2   2 2756.58 51.3284   8
   4   2  -2 2850.69 52.5885  11
   4   2  -2 2777.79 52.3792   6
  -4   2   2 2833.73 53.3748   3
  -4   2   2 2896.01 52.3653   9
   4   2  -2 2820.58 53.6240   1
  -4   2   2 2866.45 51.6164  12
   4   2  -2 2817.81 53.5374  13
  -2  -2   2 430.681 9.78770   1
  -2  -2   2 431.572 9.13518   6
  -2  -2   2 432.908 8.89330  12
   2  -2  -2 438.349 11.0306  10
   2  -2  -2 437.464 9.16708   6
   2  -2  -2 453.789 10.6083  13
   2  -2  -2 432.422 9.78712   1
  -2   2   2 444.605 11.0288  10
  -2   2   2 438.618 9.16343   9
   2   2  -2 446.738 9.93887   1
  -2   2   2 434.629 8.63787  12
   2   2  -2 450.500 9.21284  11
  -2   2   2 430.713 9.57203   1
   2   2  -2 442.061 9.40087   4
  -2   2   2 449.481 9.54907   3
   2   2  -2 448.150 9.32589  14
   2   2  -2 441.688 10.5598  10
   0  -2  -2 7903.72 149.691   8
   0  -2   2 7967.47 148.583   1
   0  -2  -2 7827.04 158.087  10
   0  -2   2 8192.42 147.660  12
   0  -2  -2 7649.34 151.345   2
   0  -2  -2 8432.11 153.535  13
   0  -2  -2 7291.75 151.412   1
   0   2   2 7808.05 147.371   9
   0   2  -2 8286.79 155.381  14
   0   2  -2 7821.88 153.513   4
   0   2  -2 7994.95 150.369   2
   0   2   2 8171.58 148.932  11
   0   2   2 8171.46 164.874  10
   0   2  -2 7890.36 151.343   7
   0   2  -2 8338.02 149.734   5
   0   2   2 8006.06 154.498   1
   0   2   2 8067.55 149.883   6
   0   2  -2 8228.97 157.058  10
  -2  -2  -2 3212.51 61.1670   4
  -2  -2  -2 3168.33 59.5878   2
  -2  -2  -2 3258.72 59.5414   8
  -2  -2  -2 3251.17 59.1383   5
  -2  -2  -2 3227.53 59.0886  14
  -2   2  -2 3288.38 59.3211   8
   2   2   2 3246.54 70.5650  10
  -2   2  -2 3278.48 59.5267   7
  -2   2  -2 3079.22 59.3228   3
  -2   2  -2 3179.68 60.0364   5
   2   2   2 3258.04 58.9715  11
  -2   2  -2 3196.60 59.5662   4
   2   2   2 3233.47 65.1021   6
  -2   2  -2 3266.05 59.7288  14
   2   2   2 3109.35 65.2004   1
  -2   2  -2 3212.51 59.6629   2
  -4  -2  -2 3323.78 62.0005  14
   4  -2   2 3272.64 63.4621   1
  -4  -2  -2 3411.97 63.4566   8
   4  -2   2 3369.33 63.8426  13
  -4  -2  -2 3315.54 63.3035   2
  -4  -2  -2 3263.79 63.2940   5
   4   2   2 3304.64 62.8840  11
   4   2   2 3406.65 63.3369   1
   4   2   2 3398.05 62.0500   6
  -4   2  -2 3437.44 63.9063   3
  -4   2  -2 3402.13 63.0299   8
  -4   2  -2 3374.20 62.6564  14
  -4   2  -2 3365.15 63.0501   2
  -4   2  -2 3307.26 62.9670   7
  -4   2  -2 3310.04 62.4596   4
  -4   2  -2 3374.93 64.5516   5
  -6  -2  -2 990.749 23.0028   8
  -6  -2  -2 986.275 22.7891   2
   6  -2   2 995.604 18.9801   6
  -6  -2  -2 970.162 23.1652   5
   6   2   2 985.741 22.5819   1
   6   2   2 964.409 21.4036   6
  -6   2  -2 1006.38 24.1166   5
  -6   2  -2 1010.05 23.7165   3
   6   2   2 1010.65 23.0999  11
  -6   2  -2 1011.00 22.5208   8
  -6   2  -2 979.934 22.1454   2
  -8  -2  -2 540.743 16.3845   5
   8  -2   2 541.420 15.5585  11
  -8  -2  -2 551.093 16.2579   8
   8  -2   2 536.959 12.7673   6
  -8  -2  -2 546.597 15.8445   2
   8   2   2 548.957 14.7714   6
   8   2   2 551.115 16.5808  11
   8   2   2 567.695 15.7505   1
  -8   2  -2 555.325 17.5018   5
  -8   2  -2 531.663 15.2859   8
 -10  -2  -2 157.045 8.74748   8
  10  -2   2 170.479 6.54394   6
  10   2   2 167.505 9.37284  11
 -10   2  -2 178.527 10.1544   5
  10   2   2 175.587 8.09373   6
 -11  -3   2 94.4057 6.14860   8
  11  -3  -2 88.9787 6.68189  11
  11  -3  -2 89.0910 5.33996   6
  11   3  -2 99.3301 7.24506   1
 -11   3   2 96.0839 7.45842   5
  11   3  -2 91.1320 7.10037  11
  11   3  -2 97.9877 6.41057   6
  -9  -3   2 13.2103 2.72519   8
  -9  -3   2 6.88248 2.17772   5
   9  -3  -2 8.42930 1.90606   1
   9  -3  -2 13.1254 2.18108   6
   9   3  -2 9.65486 2.87326   1
  -9   3   2 8.19094 2.73764   3
   9   3  -2 8.43261 2.34966   6
  -9   3   2 5.75882 2.56740   5
   9   3  -2 10.0549 3.38187  11
  -7  -3   2 121.850 5.30906   8
   7  -3  -2 116.920 6.89298  13
  -7  -3   2 116.573 5.20200   5
  -7  -3   2 119.843 5.06092   2
   7  -3  -2 111.506 4.51262   6
   7  -3  -2 120.720 5.15479   1
   7   3  -2 116.475 6.26939   1
  -7   3   2 121.629 6.02882   5
  -7   3   2 124.422 6.36814   3
  -7   3   2 117.878 4.51310   8
   7   3  -2 123.624 6.16239  11
   7   3  -2 123.277 5.58606   6
   5  -3  -2 155.994 5.20499   1
  -5  -3   2 141.164 5.02726   8
  -5  -3   2 133.682 5.26951   1
   5  -3  -2 144.503 4.52053   6
  -5  -3   2 138.662 4.55416   5
  -5  -3   2 145.551 4.82899  12
   5  -3  -2 142.640 6.69407  13
  -5   3   2 140.547 5.30418   5
   5   3  -2 140.871 5.39933  11
   5   3  -2 138.538 5.87095   1
   5   3  -2 138.354 4.99382   6
  -5   3   2 133.134 3.94328   8
  -5   3   2 137.634 4.21068  12
  -5   3   2 136.674 5.57982   3
  -3  -3   2 25.4394 1.52396   6
   3  -3  -2 24.7642 2.34681  10
   3  -3  -2 25.1547 2.40680  13
   3  -3  -2 24.4586 1.47398   6
  -3  -3   2 24.7685 1.42244  12
   3  -3  -2 25.3466 1.84653   1
   3   3  -2 25.3949 1.83297   7
   3   3  -2 25.6396 2.33801  10
  -3   3   2 23.4965 1.46416   9
   3   3  -2 28.6893 1.89265  11
   3   3  -2 25.2467 2.08516   1
  -3   3   2 26.3417 1.65576   1
  -3   3   2 27.8030 1.22299  12
   3   3  -2 25.7293 1.57081   4
  -3   3   2 24.5781 1.90224   3
   3   3  -2 24.3478 1.64626   6
   1  -3  -2 1388.19 27.6388   1
  -1  -3   2 1450.36 26.5161   6
  -1  -3   2 1433.19 26.1045  12
   1  -3  -2 1380.07 26.7363   6
   1  -3  -2 1443.06 28.0110  13
   1  -3  -2 1376.03 28.2120  10
  -1  -3   2 1454.15 28.5287  10
  -1  -3   2 1395.78 27.2230   1
   1  -3  -2 1441.80 26.6151   2
  -1   3   2 1408.93 27.1367   3
   1   3  -2 1389.13 27.0031   1
  -1   3   2 1431.18 26.6017   9
   1   3  -2 1452.19 26.7555  11
  -1   3   2 1409.44 27.5168   1
   1   3  -2 1448.41 27.5838  14
  -1   3   2 1442.41 26.8626  11
  -1   3   2 1412.03 25.8508  12
   1   3  -2 1392.98 29.8835  10
  -1   3   2 1401.06 27.0144   7
  -1   3   2 1445.88 28.5936  10
   1   3  -2 1442.69 27.6319   4
   1   3  -2 1408.15 27.3570   7
   1  -3   2 231.514 6.63630  10
  -1  -3  -2 211.514 5.12241  13
   1  -3   2 203.371 4.81725   1
  -1  -3  -2 215.720 6.14857   1
  -1  -3  -2 207.770 5.61507   8
  -1  -3  -2 212.516 5.90923   2
  -1   3  -2 209.951 5.96879   5
  -1   3  -2 216.986 6.26538  14
  -1   3  -2 220.003 5.49172   8
  -1   3  -2 221.174 6.18928   7
  -1   3  -2 217.236 6.04803   2
  -1   3  -2 223.781 6.43927   4
   1   3   2 213.700 5.42808   9
   1   3   2 215.802 6.35003   1
   1   3   2 207.028 5.50227  11
   1   3   2 211.426 7.32490  10
   1   3   2 211.198 5.55455   6
  -1   3  -2 216.503 5.58551   3
  -3  -3  -2 3.93688 0.94513   5
  -3  -3  -2 2.51602 1.05674   2
  -3  -3  -2 1.55328 0.79138   8
  -3  -3  -2 0.85869 0.70307  14
  -3  -3  -2 3.82929 0.98806   1
  -3   3  -2 2.26406 1.01083   3
  -3   3  -2 2.67518 1.02549  14
   3   3   2 2.37272 0.89709   6
   3   3   2 1.18939 0.79347  11
   3   3   2 1.38416 1.41470  10
  -3   3  -2 0.32570 1.05163   5
  -3   3  -2 2.07720 0.89963   8
   3   3   2 1.03894 0.96004   1
  -3   3  -2 6.16305 1.38613   7
  -3   3  -2 8.37209 1.57251   4
  -3   3  -2 2.36462 0.96947   2
  -5  -3  -2 3.12088 1.47118   2
  -5  -3  -2 1.73557 1.10902   8
   5  -3   2 1.93832 1.27582  13
  -5  -3  -2 1.80457 0.90411  14
  -5  -3  -2 3.22019 1.29398   5
  -5   3  -2 2.71534 1.55228   3
   5   3   2 7.69229 1.61938   6
  -5   3  -2 1.41279 1.52869   5
  -5   3  -2 2.74521 1.05229   8
  -5   3  -2 2.47722 1.18662   2
  -5   3  -2 7.78049 1.93931   7
   5   3   2 2.78429 1.42631   1
   5   3   2 0.97438 1.53505  11
  -5   3  -2 3.63873 1.32896   4
  -5   3  -2 1.07915 1.10290  14
  -7  -3  -2 117.184 6.23683   5
   7  -3   2 128.047 3.91125   6
  -7  -3  -2 126.334 6.53837   2
  -7  -3  -2 117.913 6.56755   8
   7   3   2 125.925 6.64027   1
   7   3   2 127.423 7.04529  11
   7   3   2 120.467 5.99596   6
  -7   3  -2 123.738 6.96116   5
  -7   3  -2 124.810 5.90729   8
  -7   3  -2 123.806 6.73676   3
   9  -3   2 3.04957 1.88816  11
  -9  -3  -2 1.27964 2.37203   8
   9  -3   2 3.54593 1.25916   6
  -9  -3  -2 2.82892 2.00424   2
   9   3   2 0.98479 1.73133   6
   9   3   2 7.08406 3.25154  11
  -9   3  -2 8.01759 3.27841   5
   9   3   2 4.82319 2.20977   1
  10  -4  -2 41.7744 3.71736   6
 -10  -4   2 41.4435 4.21789   8
 -10   4   2 40.8916 5.21255   3
  10   4  -2 27.4416 4.18324   1
  10   4  -2 33.1445 4.17329   6
  10   4  -2 38.4287 5.40277  11
 -10   4   2 32.6163 4.89262   5
   8  -4  -2 2471.26 48.8512   1
  -8  -4   2 2464.12 49.1775   2
  -8  -4   2 2448.86 49.8962   8
   8  -4  -2 2498.07 47.9256   6
   8  -4  -2 2421.39 53.9646  13
  -8   4   2 2518.13 51.9927   3
  -8   4   2 2528.24 51.2414   5
   8   4  -2 2517.77 51.6036  11
   8   4  -2 2439.28 52.1637   1
   8   4  -2 2439.96 50.0850   6
  -6  -4   2 358.304 9.57982   5
   6  -4  -2 364.257 10.0367   1
   6  -4  -2 381.023 13.1454  13
  -6  -4   2 375.982 10.3661   8
   6  -4  -2 368.442 9.38500   6
  -6  -4   2 363.334 10.8098   1
   6   4  -2 368.286 11.7951   1
  -6   4   2 388.532 11.6377   3
  -6   4   2 386.725 11.0125   5
   6   4  -2 393.886 11.1773  11
   6   4  -2 379.284 10.6048   6
   4  -4  -2 6867.13 128.812   6
  -4  -4   2 6386.54 120.188  12
   4  -4  -2 6535.19 129.888   1
  -4  -4   2 6675.09 124.441   1
  -4  -4   2 6332.40 119.794   6
  -4  -4   2 6569.99 123.680   5
   4  -4  -2 6868.45 140.245  13
  -4   4   2 6566.07 123.543   9
  -4   4   2 6753.35 128.726   3
   4   4  -2 6499.80 121.113   6
   4   4  -2 6506.54 123.596   4
  -4   4   2 6256.63 124.459   5
   4   4  -2 6427.28 124.826   7
   4   4  -2 6595.74 122.764  11
  -4   4   2 6434.29 124.583   1
   4   4  -2 6543.53 129.298   1
  -4   4   2 6688.63 122.516  12
   2  -4  -2 501.660 10.8998   6
  -2  -4   2 509.822 10.2342  12
   2  -4  -2 508.555 12.9085  13
   2  -4  -2 517.285 11.9303   1
  -2  -4   2 496.497 11.8308   1
   2  -4  -2 487.660 12.3979  10
  -2  -4   2 495.112 10.9002   6
  -2   4   2 486.957 11.3078   1
   2   4  -2 501.202 11.4692   4
  -2   4   2 501.649 11.8697   7
  -2   4   2 500.546 10.6375   9
   2   4  -2 504.204 11.1981  11
   2   4  -2 492.793 11.5006   7
  -2   4   2 493.909 11.5286   3
   2   4  -2 493.449 11.7628   1
  -2   4   2 498.519 12.3733  10
  -2   4   2 511.551 9.75567  12
   0  -4   2 5093.08 94.1605  12
   0  -4  -2 4876.40 106.522  10
   0  -4  -2 5147.82 103.722  13
   0  -4   2 4953.46 96.6782   6
   0  -4   2 4905.28 99.1820   1
   0  -4  -2 4827.45 95.5683   6
   0  -4  -2 4999.06 101.727   1
   0  -4   2 5262.07 98.7252  10
   0  -4  -2 4901.96 95.0496   8
   0   4   2 4781.92 96.1934   7
   0   4  -2 4880.64 96.1954   4
   0   4  -2 5109.31 99.5714  14
   0   4  -2 4900.54 98.0495   7
   0   4  -2 5104.01 96.7600  11
   0   4  -2 5155.66 97.3455   3
   0   4  -2 5352.51 96.9408   5
   0   4   2 5061.32 97.1766   6
   0   4   2 5103.71 96.6639   9
   0   4   2 5106.31 109.386  10
   0   4   2 5161.30 97.6837  11
   0   4   2 5175.11 98.8513   1
  -2  -4  -2 31.9896 2.19246   8
   2  -4   2 29.1358 2.50493  10
   2  -4   2 27.1469 1.38693   1
  -2  -4  -2 29.9351 2.30520   2
  -2  -4  -2 32.9091 1.35769  13
  -2  -4  -2 32.7847 2.31968   1
   2   4   2 29.3189 2.24459  11
  -2   4  -2 30.5832 2.48021  14
  -2   4  -2 28.4392 2.38980   5
  -2   4  -2 28.6386 2.16214   3
  -2   4  -2 37.0998 2.03384   8
   2   4   2 30.7145 3.15562  10
  -2   4  -2 28.9432 2.20305   2
   2   4   2 29.0036 2.55420   1
  -2   4  -2 33.8597 2.71138   4
   2   4   2 29.4179 1.99637   9
  -2   4  -2 29.2520 2.30761   7
   2   4   2 27.8207 2.02440   6
  -4  -4  -2 1753.27 34.9106  14
  -4  -4  -2 1665.41 35.1470   1
  -4  -4  -2 1678.82 34.5745   5
  -4  -4  -2 1796.49 36.2030   2
  -4  -4  -2 1755.72 35.9347   8
  -4   4  -2 1770.82 35.5103   2
   4   4   2 1818.76 36.2338  11
  -4   4  -2 1850.49 36.5982   3
  -4   4  -2 1789.54 36.0517  14
   4   4   2 1810.40 35.5952   6
   4   4   2 1786.84 41.4153  10
  -4   4  -2 1795.19 37.0837   5
  -4   4  -2 1801.41 35.0306   8
  -4   4  -2 1749.50 36.2095   4
  -4   4  -2 1824.14 36.7728   7
   4   4   2 1802.86 37.1258   1
  -6  -4  -2 56.1314 4.09769   8
  -6  -4  -2 50.4758 3.94489   2
   6  -4   2 53.9677 1.63006   6
   6  -4   2 48.6975 4.16683  13
   6   4   2 54.4908 3.96591   6
  -6   4  -2 59.4380 3.72827   8
   6   4   2 48.6734 4.38177   1
   6   4   2 50.2602 4.57955  11
   6   4   2 53.6318 6.34396  10
  -6   4  -2 54.4643 4.78086   5
  -6   4  -2 71.5600 4.79432   3
  -8  -4  -2 977.446 24.4937   2
   8  -4   2 965.552 19.6253   6
  -8  -4  -2 940.871 24.4972   8
   8   4   2 948.631 25.3211  11
  -8   4  -2 1002.63 25.6338   3
   8   4   2 964.373 23.7405   6
   8   4   2 962.594 25.1144   1
  -8   4  -2 968.373 26.0333   5
 -11  -5   2 58.9980 5.64531   8
  11  -5  -2 58.6456 5.84000  11
  11  -5  -2 55.0484 4.15659   6
  11   5  -2 51.2001 5.54514   1
 -11   5   2 51.2951 5.50737   3
  11   5  -2 57.1415 6.97056  11
 -11   5   2 53.5156 6.16334   5
  -9  -5   2 512.083 14.6293   2
   9  -5  -2 496.280 12.9935   6
   9  -5  -2 482.010 13.4648   1
   9  -5  -2 451.274 17.3480  13
  -9  -5   2 477.034 14.8205   8
   9   5  -2 489.558 16.6230  11
  -9   5   2 494.350 15.9779   5
  -9   5   2 505.820 16.4493   3
   9   5  -2 482.723 15.0861   6
   9   5  -2 485.111 16.8354   1
  -7  -5   2 292.127 9.88607   1
   7  -5  -2 280.133 12.0784  13
  -7  -5   2 287.171 9.55703   8
   7  -5  -2 276.000 8.73899   1
   7  -5  -2 277.725 8.17270   6
   7   5  -2 296.738 11.2866   1
   7   5  -2 286.839 10.3679  11
  -7   5   2 280.406 10.1294   5
   7   5  -2 279.952 9.66493   6
  -7   5   2 274.946 10.5835   3
  -5  -5   2 447.076 12.6229   1
   5  -5  -2 467.014 10.9683   6
   5  -5  -2 446.097 14.4319  13
  -5  -5   2 467.945 11.7890   8
   5  -5  -2 456.728 11.7326   1
   5   5  -2 445.057 11.6945   6
   5   5  -2 445.837 13.3613   1
  -5   5   2 477.630 12.8353   3
   5   5  -2 474.842 12.5110  11
  -5   5   2 460.093 12.0111   5
   5   5  -2 440.740 11.7231   7
   3  -5  -2 1270.42 24.7272   6
  -3  -5   2 1250.91 26.3526   1
   3  -5  -2 1223.84 25.5906   1
   3  -5  -2 1318.16 28.4782  10
  -3  -5   2 1225.09 24.7597   6
  -3  -5   2 1222.27 23.9416  12
   3  -5  -2 1245.22 27.9071  13
  -3   5   2 1288.17 25.9696   3
   3   5  -2 1244.13 25.5245   7
  -3   5   2 1262.45 24.3290   9
   3   5  -2 1176.75 24.5114   6
   3   5  -2 1271.64 26.5329   1
  -3   5   2 1224.41 24.6380   5
  -3   5   2 1216.99 24.7242   1
   3   5  -2 1278.82 25.4892  11
   3   5  -2 1230.85 25.9864  10
   3   5  -2 1211.84 24.8648   4
  -3   5   2 1197.50 26.4415   7
  -1  -5   2 45.3882 2.75295   1
  -1  -5   2 48.1315 1.68410  12
   1  -5  -2 44.0200 2.75086  10
   1  -5  -2 46.2935 3.14104  13
   1  -5  -2 46.4772 2.95665   1
  -1  -5   2 45.3293 2.26793   6
  -1   5   2 48.9609 2.84307   3
  -1   5   2 47.7483 2.64839  11
   1   5  -2 50.0320 2.53549  11
   1   5  -2 47.2168 2.52009   1
  -1   5   2 44.7496 2.12535   9
  -1   5   2 45.6374 2.93401  10
   1   5  -2 44.9888 2.78955   4
   1   5  -2 47.4683 2.89834   7
  -1   5   2 57.5117 2.93364   7
  -1   5   2 44.5843 2.73355   1
   1  -5   2 806.368 15.4722   6
   1  -5   2 779.068 14.9232  12
   1  -5   2 766.969 16.3444   1
  -1  -5  -2 789.132 18.0092   1
  -1  -5  -2 741.132 16.2873   6
  -1  -5  -2 782.357 16.3448   8
   1  -5   2 796.820 16.0576  10
  -1  -5  -2 776.103 16.5934  13
   1   5   2 770.240 16.9328  11
   1   5   2 805.294 18.9136  10
  -1   5  -2 790.999 16.7931   5
  -1   5  -2 805.523 16.8425   3
   1   5   2 769.406 15.8050   7
  -1   5  -2 792.332 18.3064   4
   1   5   2 800.510 16.2470   9
   1   5   2 795.019 18.1839   1
   1   5   2 797.402 16.7536   6
  -1   5  -2 799.305 17.9841   7
   3  -5   2 141.607 2.75045   6
  -3  -5  -2 136.560 5.59242   1
   3  -5   2 132.035 3.87978   1
   3  -5   2 136.807 2.74550   6
   3  -5   2 137.033 6.23273  10
  -3  -5  -2 139.018 5.36711   8
  -3  -5  -2 135.989 5.55221   2
   3   5   2 144.267 7.56535  10
   3   5   2 141.066 6.35889   1
  -3   5  -2 142.330 5.80805   5
  -3   5  -2 139.068 5.61724   3
   3   5   2 136.762 5.62011  11
   3   5   2 143.891 5.40199   6
  -3   5  -2 144.413 6.16519   4
  -3   5  -2 134.436 6.00421   7
   3   5   2 135.593 4.99651   9
  -3   5  -2 138.853 4.59771   8
  -3   5  -2 143.426 5.95360  14
   5  -5   2 27.9757 3.57495  13
  -5  -5  -2 24.9149 2.46855  14
  -5  -5  -2 26.2480 3.30313   2
  -5  -5  -2 22.4788 3.04868   8
  -5   5  -2 22.4979 3.15689   7
   5   5   2 25.0697 2.99128   6
   5   5   2 25.8079 4.50949  10
  -5   5  -2 22.8662 3.23256   5
   5   5   2 25.3503 3.54696   1
   5   5   2 35.8323 3.82955  11
  -5   5  -2 25.3317 3.19197   3
   7  -5   2 160.944 4.52777   6
  -7  -5  -2 167.852 7.89270   2
  -7  -5  -2 159.681 8.03524   8
  -7   5  -2 172.491 8.57695   5
   7   5   2 163.595 8.24758  11
   7   5   2 167.885 8.71417   1
  -7   5  -2 173.071 8.46652   3
   7   5   2 173.910 7.94554   6
   9  -5   2 3.55791 2.61124  11
  -9  -5  -2 4.63679 2.57739   2
   9  -5   2 4.14756 1.14699   6
  -9  -5  -2 4.70815 2.96755   8
   9   5   2 5.04503 2.43461   6
  -9   5  -2 5.90678 2.37528   3
   9   5   2 4.90287 2.75173  11
  -9   5  -2 1.40284 2.78619   5
   9   5   2 3.72409 2.62119   1
 -10  -6   2 880.989 23.0242   2
 -10  -6   2 925.882 24.2528   8
  10   6  -2 923.332 26.6205   1
 -10   6   2 939.899 25.7977   3
  10   6  -2 893.760 26.0213  11
 -10   6   2 865.690 24.7395   5
  -8  -6   2 24.9650 3.46729   2
  -8  -6   2 12.3354 2.90982   8
   8  -6  -2 13.3879 3.62727  13
   8  -6  -2 24.5465 2.83051   6
   8  -6  -2 14.9388 2.30788   1
   8   6  -2 26.2626 4.26664  11
  -8   6   2 24.9064 4.05787   3
   8   6  -2 16.0855 3.65061   1
  -8   6   2 13.0222 2.71849   5
  -6  -6   2 1561.20 33.7036   1
  -6  -6   2 1562.77 32.3022   8
   6  -6  -2 1543.79 31.9034   1
   6  -6  -2 1545.13 30.8470   6
   6  -6  -2 1521.29 36.7849  13
   6   6  -2 1539.66 33.3961  11
  -6   6   2 1486.90 33.5977   3
   6   6  -2 1457.94 31.7321   7
   6   6  -2 1515.00 34.9765   1
  -6   6   2 1547.43 33.0552   5
  -4  -6   2 30.8531 2.55328   8
  -4  -6   2 30.3206 2.20681   6
   4  -6  -2 30.7099 2.31045   6
   4  -6  -2 27.6755 2.58451   1
  -4  -6   2 32.0577 3.01748   1
   4  -6  -2 29.9717 3.51902  13
  -4   6   2 27.6317 2.40814   5
  -4   6   2 30.0862 3.07841   7
   4   6  -2 31.6568 2.72338   7
   4   6  -2 31.2726 2.96218   1
   4   6  -2 30.9257 2.16665   4
  -4   6   2 30.3010 2.77362   3
  -4   6   2 32.7658 2.25651   9
   4   6  -2 31.3444 3.18232  11
   2  -6  -2 3279.72 63.8215   1
   2  -6  -2 3351.02 62.5091   6
   2  -6  -2 3460.39 65.8453  13
  -2  -6   2 3338.24 64.0621   1
   2  -6  -2 3123.34 63.4872  10
  -2  -6   2 3432.19 62.4843   6
  -2   6   2 3401.88 61.5547   9
   2   6  -2 3324.13 63.5001   7
  -2   6   2 3287.61 61.4911   5
  -2   6   2 3373.46 63.0555   1
  -2   6   2 3465.79 63.6817   3
   2   6  -2 3371.60 63.6468   1
   2   6  -2 3359.50 63.4700   4
  -2   6   2 3262.02 63.8951   7
   2   6  -2 3438.13 63.1091  11
   0  -6   2 406.848 9.37767   6
   0  -6  -2 398.561 10.8166  13
   0  -6  -2 391.516 9.75397   6
   0  -6  -2 381.225 8.51990   8
   0  -6  -2 397.090 11.2300   1
   0  -6   2 376.920 10.1773   1
   0   6  -2 393.540 8.85206   5
   0   6   2 376.003 8.94279   9
   0   6  -2 384.561 9.90617  11
   0   6  -2 403.881 11.0558   7
   0   6  -2 379.396 11.0915   4
   0   6  -2 386.096 9.78952   3
   0   6   2 386.038 10.7828   1
   0   6   2 392.286 10.1525  11
   0   6   2 366.943 9.71703   7
   2  -6   2 4017.11 79.1541   6
  -2  -6  -2 4104.20 75.6645  13
   2  -6   2 3967.51 78.3141   1
  -2  -6  -2 4035.29 76.4799   8
  -2  -6  -2 4069.28 78.4757   1
  -2  -6  -2 4178.59 77.7556   2
  -2   6  -2 4179.10 77.4698   5
  -2   6  -2 4087.63 78.8883   4
   2   6   2 4137.74 76.0076   9
   2   6   2 4254.51 80.6051  10
   2   6   2 4175.48 77.4848  11
  -2   6  -2 4111.12 77.1359   3
   2   6   2 4213.81 79.3380   1
   2   6   2 4197.21 77.1163   6
  -2   6  -2 4226.75 78.9283   7
  -4  -6  -2 341.383 10.3603   8
  -4  -6  -2 340.404 10.7142   2
   4  -6   2 342.977 7.33336   6
  -4  -6  -2 318.757 10.4273   1
   4  -6   2 333.883 12.3802  13
   4   6   2 347.398 9.77573   9
   4   6   2 330.551 13.5526  10
   4   6   2 342.730 10.3873   6
  -4   6  -2 336.534 11.3234   4
  -4   6  -2 343.947 11.0641   5
   4   6   2 341.680 12.0123   1
   4   6   2 343.101 10.8059  11
  -4   6  -2 341.915 10.5952   3
  -4   6  -2 337.708 11.4557   7
  -6  -6  -2 1837.43 39.3735   8
   6  -6   2 1797.96 42.0509  13
  -6  -6  -2 1804.84 39.5937   2
   6   6   2 1826.45 41.2971   1
  -6   6  -2 1896.35 40.5317   7
   6   6   2 1752.70 38.9863   6
  -6   6  -2 1854.20 40.4992   5
  -6   6  -2 1862.35 39.8595   3
   6   6   2 1819.95 40.2121  11
   8  -6   2 60.2838 2.90142   6
  -8  -6  -2 61.4992 5.22298   8
  -8  -6  -2 61.7872 5.66784   2
  -8   6  -2 60.7226 5.65665   3
   8   6   2 64.7753 6.32585   1
   8   6   2 52.1111 6.21821  11
  -8   6  -2 69.8967 6.38653   5
   8   6   2 66.6682 5.52246   6
  -9  -7   2 31.5527 3.84440   2
   9  -7  -2 31.8212 3.20263   6
  -9  -7   2 27.7803 4.16482   8
  -9   7   2 23.8142 4.14979   3
  -9   7   2 26.9217 4.32945   5
   9   7  -2 30.3477 5.17991   1
   7  -7  -2 3.26486 2.04430  13
  -7  -7   2 0.44964 1.30274   8
  -7  -7   2 3.32634 1.96297   1
   7  -7  -2 3.53827 1.55011   1
   7  -7  -2 -0.4027 1.12180   6
  -7   7   2 1.31808 2.04684   3
   7   7  -2 4.06565 2.56405   1
   7   7  -2 1.12000 2.27076  11
  -7   7   2 4.11155 1.97943   5
   5  -7  -2 1.41499 1.11876   6
  -5  -7   2 1.18725 1.63033   1
   5  -7  -2 1.24103 1.21742   1
  -5  -7   2 2.61725 1.45763   8
   5  -7  -2 2.40264 2.08197  13
  -5   7   2 6.44289 1.80257   5
   5   7  -2 2.33542 1.92543  11
  -5   7   2 2.29338 1.37924   3
   5   7  -2 2.07572 1.41979   1
   5   7  -2 -0.0821 1.12654   7
  -3  -7   2 113.840 5.84432   1
  -3  -7   2 110.686 4.74838   6
   3  -7  -2 118.268 6.79112  13
   3  -7  -2 117.151 5.47975   1
   3  -7  -2 116.462 4.80356   6
  -3   7   2 112.755 5.50422   3
   3   7  -2 109.714 4.83474   4
  -3   7   2 115.527 4.14862   9
  -3   7   2 115.361 4.51169   5
  -3   7   2 111.530 5.90430   7
   3   7  -2 103.181 5.46034   1
   3   7  -2 112.928 5.30322   7
   3   7  -2 111.704 5.12582  11
   1  -7  -2 12.9023 2.25193   1
  -1  -7   2 10.3247 1.60429   6
  -1  -7   2 6.77407 1.53120   1
   1  -7  -2 7.57395 1.99309  13
   1  -7  -2 7.76111 1.52898   6
   1   7  -2 8.01493 1.39718   1
  -1   7   2 4.53144 1.34133   3
  -1   7   2 5.82889 1.06799   9
  -1   7   2 7.54361 1.72549   7
  -1   7   2 10.3584 1.83860  10
   1   7  -2 7.40173 1.74911  11
   1   7  -2 7.09761 1.50293   3
   1   7  -2 7.38978 1.64481   4
   1  -7   2 231.249 6.64801   6
  -1  -7  -2 246.423 7.93769  13
  -1  -7  -2 231.393 7.19908   6
   1  -7   2 244.173 7.55452   1
  -1  -7  -2 221.601 6.48845   8
  -1  -7  -2 254.228 9.02849   1
   1   7   2 229.631 6.92864   7
   1   7   2 234.349 8.30669  10
   1   7   2 230.178 8.60418   1
   1   7   2 230.871 6.52367   9
   1   7   2 237.796 7.89824  11
  -1   7  -2 236.797 8.82039   4
  -1   7  -2 246.758 8.71676   7
  -1   7  -2 236.460 6.97776   5
  -1   7  -2 232.601 7.49569   3
  -3  -7  -2 69.3482 4.02371   8
  -3  -7  -2 72.7949 4.75221   2
   3  -7   2 77.4195 3.11581   6
  -3  -7  -2 72.2303 4.89388   1
   3  -7   2 72.7047 3.41099   1
  -3   7  -2 80.5809 5.37747   7
   3   7   2 71.0881 5.49923  10
   3   7   2 76.1228 3.86041   9
   3   7   2 71.5196 4.13943   6
   3   7   2 72.4818 5.11934   1
   3   7   2 69.8357 4.42776  11
  -3   7  -2 76.6660 5.33872   4
  -3   7  -2 86.0544 4.83287   5
  -3   7  -2 74.0266 4.56038   3
   5  -7   2 76.7614 3.00404   6
  -5  -7  -2 74.9664 5.41794   2
   5  -7   2 79.8937 6.47559  13
  -5  -7  -2 68.6031 4.91021   8
   5   7   2 79.9819 5.98015   1
   5   7   2 70.8013 4.74644   6
  -5   7  -2 79.9614 5.36833   3
   5   7   2 79.7881 4.78152   9
  -5   7  -2 79.3110 6.00940   7
  -5   7  -2 78.4066 5.32184   5
   5   7   2 70.0775 5.52729  11
  -7  -7  -2 198.315 9.06241   8
   7  -7   2 200.542 5.78341   6
  -7  -7  -2 199.925 9.53290   2
   7   7   2 192.684 9.08851   6
   7   7   2 188.577 9.38945  11
   7   7   2 181.931 8.27402   9
   7   7   2 204.660 10.6964   1
  -7   7  -2 205.208 9.70945   5
  -7   7  -2 210.100 9.68544   3
   8  -8  -2 250.314 9.06376   1
   8  -8  -2 249.779 15.5466  13
  -8  -8   2 244.711 10.4467   2
   8  -8  -2 255.686 8.89097   6
  -8  -8   2 266.880 10.5450   8
  -8   8   2 262.141 10.8122   5
   8   8  -2 256.212 12.5799   1
  -8   8   2 245.352 11.3686   3
   8   8  -2 261.745 11.7836  11
   6  -8  -2 1434.93 29.9355   6
   6  -8  -2 1415.00 30.8413   1
   6  -8  -2 1369.08 36.2467  13
  -6  -8   2 1389.99 30.8084   8
  -6   8   2 1407.12 32.9377   3
  -6   8   2 1432.70 31.5998   5
   6   8  -2 1417.82 34.5439   1
   6   8  -2 1400.17 32.5414  11
  -4  -8   2 565.385 16.3350   1
   4  -8  -2 558.851 14.0745   6
   4  -8  -2 576.350 18.6975  13
  -4  -8   2 556.470 13.9048   8
   4  -8  -2 558.064 15.1377   1
  -4   8   2 543.137 15.5073   3
  -4   8   2 535.481 13.8457   5
   4   8  -2 541.208 14.9025   7
   4   8  -2 554.359 15.2513  11
   4   8  -2 559.286 16.3034   1
  -4   8   2 542.831 16.4564   7
  -2  -8   2 1659.58 34.1466   6
  -2  -8   2 1714.92 36.3678   1
   2  -8  -2 1675.70 36.0686   1
   2  -8  -2 1712.80 38.1474  13
   2  -8  -2 1715.18 34.5002   6
  -2   8   2 1691.41 35.7526   3
   2   8  -2 1685.25 35.5059   4
   2   8  -2 1714.83 35.8520   7
  -2   8   2 1648.44 36.0346   7
   2   8  -2 1628.39 35.1198   1
   2   8  -2 1703.95 35.0159  11
   0  -8  -2 420.380 11.5133   6
   0  -8  -2 441.597 13.4373   1
   0  -8   2 450.763 11.3542   6
   0  -8   2 425.034 12.2780   1
   0  -8  -2 427.009 12.8464  13
   0   8   2 443.408 12.2782  11
   0   8  -2 429.512 13.1404   7
   0   8  -2 437.507 11.9359   3
   0   8   2 413.786 11.6890   7
   0   8  -2 429.638 13.2849   4
   0   8   2 416.744 12.6338   1
   0   8   2 428.742 10.2229   9
   0   8   2 445.151 12.7231   3
   2  -8   2 831.549 18.1079   6
   2  -8   2 835.313 19.0562   1
  -2  -8  -2 858.955 21.5712   1
  -2  -8  -2 848.169 20.4113   2
   2   8   2 816.881 20.1988  11
  -2   8  -2 806.317 21.6063   4
   2   8   2 831.544 21.7356   1
  -2   8  -2 818.101 21.5550   7
  -2   8  -2 837.905 19.7067   3
   2   8   2 793.175 17.8334   9
  -4  -8  -2 238.244 9.58585   2
  -4  -8  -2 244.665 8.72829   8
  -4  -8  -2 227.921 9.63110   1
   4  -8   2 238.990 11.4216  13
   4  -8   2 228.559 6.71106   6
  -4   8  -2 254.246 10.6583   7
  -4   8  -2 236.154 9.30713   5
  -4   8  -2 227.301 9.10404   3
   4   8   2 243.460 10.9081   1
   4   8   2 251.664 9.85311  11
   4   8   2 232.889 7.93102   9
  -6  -8  -2 387.188 13.8132   2
   6  -8   2 395.305 9.71125   6
  -6  -8  -2 381.884 13.1231   8
   6  -8   2 379.481 15.5252  13
   6   8   2 397.172 15.4918   1
  -6   8  -2 376.989 13.6921   5
  -6   8  -2 409.614 14.8328   7
  -6   8  -2 389.947 13.6539   3
   6   8   2 375.968 14.0817  11
  -8  -8  -2 246.621 10.9974   8
  -8  -8  -2 242.753 11.1967   2
   8  -8   2 250.437 7.10884   6
   8   8   2 209.085 11.3223  11
   8   8   2 256.027 12.6766   1
  -8   8  -2 240.861 10.6876   3
  -8   8  -2 237.869 11.2244   5
   9  -9  -2 7.57114 2.08293   6
  -9  -9   2 9.07498 3.22018   8
  -9  -9   2 9.60231 2.63753   2
   9   9  -2 6.35517 3.57474   1
   9   9  -2 7.11630 3.98763  11
  -9   9   2 6.10568 2.68360   5
  -9   9   2 12.2892 3.73977   3
  -7  -9   2 2.04508 2.15623   8
  -7  -9   2 3.77903 1.91994   1
   7  -9  -2 3.10386 1.67649   1
   7  -9  -2 3.82190 1.82854   6
   7  -9  -2 2.66543 2.27074  13
   7   9  -2 1.98477 2.75178  11
  -7   9   2 6.18892 2.00126   5
   7   9  -2 4.12612 2.94444   1
  -7   9   2 4.25684 2.49795   3
  -5  -9   2 11.8733 3.13949   1
  -5  -9   2 6.04881 1.95233   8
   5  -9  -2 6.39783 1.83701   6
   5  -9  -2 7.19254 3.00964  13
   5  -9  -2 7.05238 2.14909   1
   5   9  -2 5.83526 2.23942   1
  -5   9   2 4.42011 2.21838   3
   5   9  -2 16.5812 3.12041  11
  -3  -9   2 1.08473 1.80506   1
  -3  -9   2 6.02289 1.59577   6
   3  -9  -2 2.81438 1.47023   1
   3  -9  -2 5.25039 1.80050   6
   3  -9  -2 1.85895 2.09852  13
   3   9  -2 5.23506 1.83733  11
   3   9  -2 3.36581 1.80182   1
  -3   9   2 3.60259 1.98903   3
  -3   9   2 6.55527 2.40799   7
  -1  -9   2 73.0484 5.17608   1
   1  -9  -2 88.6886 5.97892  13
  -1  -9   2 73.4238 4.31954   6
   1  -9  -2 72.4235 4.45975   6
   1   9  -2 71.0676 5.23718   7
   1   9  -2 77.2419 5.00662   4
   1   9  -2 74.1007 4.59075  11
  -1   9   2 71.6689 5.08748   3
  -1   9   2 68.7812 4.76926   7
   1   9  -2 68.4314 4.54421   3
   1  -9   2 11.0772 2.28082   1
  -1  -9  -2 4.28056 2.05901   1
   1  -9   2 5.87257 1.55062   6
   1   9   2 1.34815 1.25212   1
  -1   9  -2 3.54867 1.86616   7
   1   9   2 3.89373 1.72051  11
  -1   9  -2 1.08848 1.44470   3
  -1   9  -2 4.49696 2.22441   4
   3  -9   2 43.7066 3.29491   1
  -3  -9  -2 47.7566 4.25328   2
  -3  -9  -2 54.8393 4.79851   1
   3  -9   2 49.7098 3.23249   6
   3  -9   2 48.2797 5.54213  13
  -3   9  -2 44.1955 4.13748   3
  -3   9  -2 45.5956 5.34831   7
   3   9   2 48.3222 4.72098  11
   3   9   2 47.5426 5.18440   1
   5  -9   2 56.1132 5.93811  13
  -5  -9  -2 62.2408 4.64450   8
   5  -9   2 57.7893 3.35190   6
  -5  -9  -2 69.4997 5.98390   2
  -5   9  -2 58.5427 5.18045   3
   5   9   2 58.5384 5.83889   1
   5   9   2 52.9183 5.07371  11
  -5   9  -2 63.6293 5.66049   7
  -7  -9  -2 3.82774 2.60153   8
   7  -9   2 4.20285 1.34036   6
  -7  -9  -2 3.16808 2.10343   2
  -7   9  -2 5.94764 2.60491   3
  -7   9  -2 6.02068 2.29687   5
   7   9   2 1.65137 2.89969   1
   7   9   2 6.59967 3.42535  11
   8 -10  -2 510.579 14.5598   6
  -8 -10   2 497.991 16.0313   8
  -8 -10   2 520.368 17.1134   2
  -8  10   2 482.170 17.4596   3
   8  10  -2 519.067 19.5511   1
   8  10  -2 500.660 17.8952  11
  -6 -10   2 86.8870 6.93519   1
   6 -10  -2 72.5910 4.89988   6
  -6 -10   2 70.0916 5.16538   8
   6 -10  -2 73.6248 5.25254   1
   6  10  -2 68.4402 6.71313   1
  -6  10   2 73.0003 5.93067   3
   6  10  -2 76.8364 5.95918  11
   4 -10  -2 929.305 22.3247   6
   4 -10  -2 904.300 27.5535  13
  -4 -10   2 967.430 25.4651   1
   4 -10  -2 913.670 23.4093   1
  -4  10   2 913.754 23.9726   3
   4  10  -2 933.218 23.7148  11
   4  10  -2 907.886 24.7517   1
   2 -10  -2 106.470 7.41337  13
   2 -10  -2 101.989 6.58015   1
  -2 -10   2 105.406 5.69419   6
  -2 -10   2 105.119 6.55768   1
   2 -10  -2 107.414 5.72525   6
   2  10  -2 104.544 6.01963   3
   2  10  -2 99.2516 6.44036   7
  -2  10   2 102.291 6.52711   7
  -2  10   2 118.030 6.83078   3
   2  10  -2 101.942 6.17510  11
   0 -10   2 1569.13 34.9950   1
   0 -10  -2 1557.27 35.8799  13
   0  10  -2 1581.35 36.2475   7
   0  10   2 1473.88 43.0647   1
   0  10  -2 1556.77 33.9888   3
   0  10   2 1556.64 35.2505   3
  -2 -10  -2 105.084 6.83131   1
   2 -10   2 103.187 5.37682   6
  -2 -10  -2 109.134 6.29829   2
   2 -10   2 102.371 5.70037   1
   2 -10   2 110.994 7.88703  13
   2  10   2 96.2515 6.38760  11
  -2  10  -2 108.564 6.19140   3
   2  10   2 97.7097 6.91155   1
  -2  10  -2 99.0588 6.82300   7
   4 -10   2 1501.95 30.8900   6
  -4 -10  -2 1489.89 34.6985   2
   4 -10   2 1432.56 38.4478  13
   4  10   2 1493.80 37.1869   1
  -4  10  -2 1431.62 33.8251   3
   4  10   2 1419.72 34.5389  11
  -4  10  -2 1516.71 36.3188   7
   6 -10   2 40.3596 3.07497   6
  -6 -10  -2 39.9964 4.90337   2
   6  10   2 41.0325 5.64609  11
  -6  10  -2 41.9209 5.95715   7
  -6  10  -2 44.2489 5.31161   3
   6  10   2 45.5070 6.25231   1
  -7 -11   2 94.4751 7.36716   2
   7 -11  -2 97.7922 6.15327   1
   7 -11  -2 109.264 6.10882   6
  -7 -11   2 113.099 8.23093   1
   7  11  -2 103.915 7.99659  11
  -7  11   2 118.835 8.24217   3
   7  11  -2 100.455 8.14327   1
   5 -11  -2 132.347 7.45869   1
   5 -11  -2 141.200 6.95105   6
  -5 -11   2 147.678 9.17661   1
  -5  11   2 131.033 8.18539   3
   5  11  -2 135.061 8.21604  11
   3 -11  -2 106.660 6.89680   1
   3 -11  -2 111.870 8.58274  13
   3 -11  -2 111.928 6.25099   6
  -3 -11   2 106.538 7.28447   1
   3  11  -2 99.3945 6.77310   7
   3  11  -2 110.293 7.01918  11
   3  11  -2 107.177 6.74612   3
  -3  11   2 103.061 7.27847   7
  -3  11   2 102.395 6.63165   3
  -1 -11   2 210.520 9.91865   1
   1 -11  -2 198.910 8.50270   6
   1 -11  -2 208.689 10.5653  13
   1 -11  -2 214.241 10.2507   1
  -1 -11   2 200.904 8.36844   6
  -1  11   2 217.995 9.98501   3
   1  11  -2 211.271 10.1362   7
  -1  11   2 199.482 9.21599   7
   1  11  -2 212.793 9.13919   3
   1 -11   2 90.6734 7.71406  13
   1 -11   2 108.909 6.51741   1
  -1 -11  -2 85.1510 5.98398   2
   1 -11   2 91.9690 5.44828   6
  -1  11  -2 93.9750 6.10153   3
   1  11   2 96.3787 6.93279   3
  -1  11  -2 101.339 7.43023   7
   1  11   2 89.4338 6.44055  11
  -3 -11  -2 128.659 7.88299   2
   3 -11   2 126.884 6.11405   6
   3 -11   2 122.264 6.52879   1
   3  11   2 135.219 8.79423   1
  -3  11  -2 129.174 8.75520   7
   3  11   2 138.706 8.23056  11
  -3  11  -2 123.465 7.13390   3
   5 -11   2 87.1538 4.81008   6
  -5 -11  -2 88.9168 7.20895   2
   5  11   2 75.8685 6.95183  11
  -5  11  -2 74.0118 5.74762   3
   5  11   2 79.1311 7.24638   1
  -5  11  -2 79.6585 7.39082   7
   6 -12  -2 740.265 20.7042   1
   6 -12  -2 755.895 19.9587   6
  -6 -12   2 747.607 23.5388   1
   6  12  -2 722.548 22.1823  11
  -6  12   2 734.051 22.6480   3
  -4 -12   2 112.517 7.99989   1
   4 -12  -2 107.205 6.44558   6
   4 -12  -2 113.208 7.31848   1
  -4  12   2 100.299 7.07713   3
   4  12  -2 111.576 7.66424  11
   2 -12  -2 814.192 25.6537  13
   2 -12  -2 860.904 24.0123   1
  -2 -12   2 826.985 24.1593   1
   2 -12  -2 837.922 21.8520   6
   2  12  -2 830.010 23.7959   7
  -2  12   2 798.379 23.0818   7
   2  12  -2 809.207 22.0971   3
  -2  12   2 836.283 23.4698   3
   0 -12   2 143.014 7.30914   6
   0 -12   2 141.288 8.04142   1
   0 -12  -2 160.262 9.46267   1
   0  12  -2 143.028 7.86891   3
   0  12  -2 142.688 8.97582   7
   0  12   2 136.864 8.11693   3
  -2 -12  -2 554.820 18.8590   1
  -2 -12  -2 529.036 16.9304   2
   2 -12   2 552.031 15.5963   6
   2  12   2 527.799 17.5034  11
  -2  12  -2 534.271 18.7844   7
   2  12   2 538.563 18.1916   3
  -2  12  -2 513.804 16.5816   3
  -4 -12  -2 154.946 9.51808   1
   4 -12   2 148.345 6.84793   6
  -4 -12  -2 151.772 9.11008   2
   4  12   2 137.510 8.60012  11
   4  12   2 150.351 10.0806   1
  -4  12  -2 158.198 10.0218   7
  -4  12  -2 152.327 8.24178   3
   3 -13  -2 27.0085 3.93312   6
   3 -13  -2 27.8970 4.49481   1
  -3 -13   2 22.2873 4.79408   1
   3  13  -2 19.1567 3.86936   3
  -3  13   2 25.0343 4.10531   3
   1 -13  -2 40.1803 5.50970   1
  -1 -13   2 30.5181 4.67579   6
  -1 -13   2 35.0604 5.07967   1
   1  13  -2 27.0482 4.04154   3
   1  13  -2 43.0811 5.91189   7
  -1  13   2 28.8324 4.83812   3
  -1 -13  -2 19.5347 4.60352   1
   1 -13   2 19.4283 3.91346   1
   1 -13   2 21.0998 3.56838   6
  -1  13  -2 13.9585 2.93903   3
  -1  13  -2 21.3773 4.31901   7
   1  13   2 16.3159 3.98659   3
  12   0  -3 -1.3547 1.85711   1
  12   0  -3 5.42936 3.35350  11
 -12   0   3 -1.8308 2.21263   5
  12   0  -3 0.69078 1.99063   6
 -12   0   3 0.03788 1.86828   8
  10   0  -3 0.81407 2.33635  11
  10   0  -3 0.53369 1.66080   1
 -10   0   3 0.30756 2.04493   5
  10   0  -3 -1.6448 1.42766   6
 -10   0   3 0.11192 1.56989   8
   8   0  -3 1.06586 1.50800   1
   8   0  -3 -0.8115 1.05381  11
  -8   0   3 1.67447 1.23919   8
   8   0  -3 2.30726 1.11644   6
  -8   0   3 3.85042 1.73611   5
  -8   0   3 0.19717 1.05493   3
   8   0  -3 0.23039 1.37514  13
  -6   0   3 0.53186 0.62681  12
   6   0  -3 1.65320 1.17194   1
  -6   0   3 0.09990 0.69496   3
   6   0  -3 0.64040 1.25926  13
   6   0  -3 0.61742 0.85804   6
  -6   0   3 0.55062 0.50362   2
  -6   0   3 0.10866 0.78379   8
  -6   0   3 2.13414 0.91972   1
   6   0  -3 0.06871 0.73940  11
   4   0  -3 0.23756 0.67243   1
  -4   0   3 0.30307 0.57456   3
   4   0  -3 0.62413 0.56782   6
   4   0  -3 1.24806 0.97539  13
  -4   0   3 0.41482 0.61667   1
  -4   0   3 -0.2432 0.46451  12
  -2   0   3 1.30763 0.48391   9
  -2   0   3 6.37482 0.91830   1
   2   0  -3 2.67335 0.64803  14
  -2   0   3 5.44931 0.74252   6
   2   0  -3 3.07648 0.58021   2
   2   0  -3 2.71980 0.67669   1
  -2   0   3 6.11775 0.75026  12
   0   0  -3 0.43954 0.38391  14
   0   0  -3 1.69014 0.49447   4
   0   0  -3 0.86267 0.55026   8
   0   0   3 0.47882 0.28281   6
   0   0   3 1.02782 0.82079  10
   0   0  -3 0.53707 0.47648  10
   0   0   3 0.59116 0.42560   1
   0   0   3 1.12983 0.48499   9
  -4   0  -3 1.61740 1.35494   5
  -4   0  -3 0.47668 0.76379   2
  -4   0  -3 6.48999 1.09389   4
   4   0   3 2.02039 0.59230   6
   4   0   3 1.91514 1.01495  11
  -4   0  -3 1.18253 0.92271  14
   4   0   3 0.88538 0.70650   1
   4   0   3 1.26388 1.80763  10
   6   0   3 -0.2541 1.92975  10
   6   0   3 0.82286 0.75820   1
  -6   0  -3 0.55108 1.34063   2
   6   0   3 4.05495 1.73530  11
   6   0   3 -0.3803 0.85480   6
  -6   0  -3 0.73106 1.81605   5
  -6   0  -3 -1.0432 0.83552   8
  -8   0  -3 10.1499 2.82727   8
  -8   0  -3 -0.5048 2.18562   5
   8   0   3 -1.9899 1.98626  11
   8   0   3 3.59893 1.43956   6
 -11  -1   3 335.106 11.7432   8
 -11  -1   3 328.828 12.4686   5
  11  -1  -3 326.898 11.9662   1
  11  -1  -3 327.668 12.5127  11
  11  -1  -3 323.495 11.2185   6
 -11   1   3 317.023 12.6364   5
  11   1  -3 315.140 12.5089   1
  11   1  -3 320.639 12.9867  11
 -11   1   3 314.215 10.8626   8
   9  -1  -3 680.888 17.3036   6
  -9  -1   3 705.724 18.6054   5
   9  -1  -3 693.637 18.4018   1
  -9  -1   3 703.902 17.6658   8
   9  -1  -3 693.166 18.4920  11
  -9   1   3 723.321 19.2076   5
   9   1  -3 716.185 18.0320   6
   9   1  -3 699.891 19.0736  11
   9   1  -3 691.600 19.1098   1
  -9   1   3 714.267 19.8706   3
  -9   1   3 686.105 16.8951   8
   7  -1  -3 1291.29 30.5339  13
  -7  -1   3 1314.07 26.0298   2
  -7  -1   3 1328.35 27.8094   5
  -7  -1   3 1314.56 27.2336   8
  -7  -1   3 1345.39 27.2073  12
   7  -1  -3 1314.22 27.1927   6
   7  -1  -3 1328.93 28.4083   1
  -7   1   3 1330.34 26.9009  12
  -7   1   3 1333.68 29.0298   3
   7   1  -3 1264.43 29.5348  13
  -7   1   3 1337.74 28.1998   5
   7   1  -3 1325.93 29.0829   1
  -7   1   3 1277.68 26.5884   8
   7   1  -3 1334.39 27.6990   6
   7   1  -3 1340.93 28.3452  11
  -5  -1   3 1254.57 25.7628   3
   5  -1  -3 1319.84 25.3470   6
   5  -1  -3 1257.23 27.7254  13
  -5  -1   3 1256.21 24.9273  12
   5  -1  -3 1275.35 26.2315   1
  -5  -1   3 1288.23 26.0149   1
   5   1  -3 1252.92 26.5501   1
   5   1  -3 1263.85 25.4090   6
   5   1  -3 1264.57 24.5844   4
  -5   1   3 1263.59 25.3971   1
  -5   1   3 1263.36 24.7462  12
   5   1  -3 1278.12 27.4007  13
   5   1  -3 1293.70 25.5407  11
  -5   1   3 1271.06 26.1991   3
   3  -1  -3 4883.53 94.0183   6
  -3  -1   3 4994.95 92.7196   9
  -3  -1   3 4872.11 94.5429  12
   3  -1  -3 4722.58 99.5531   1
   3  -1  -3 5180.95 109.194  10
   3  -1  -3 5025.07 95.8352  14
   3  -1  -3 5091.25 101.213  13
  -3  -1   3 5221.32 113.615  10
  -3  -1   3 4961.89 99.0845   1
  -3  -1   3 4815.33 96.1890   6
   3   1  -3 4897.19 102.040  13
   3   1  -3 4998.16 93.5729  11
  -3   1   3 5100.23 94.4320  12
  -3   1   3 4858.12 95.8110   3
   3   1  -3 5043.95 95.6300   4
   3   1  -3 4956.16 103.993  10
  -3   1   3 4972.27 99.4906   1
   3   1  -3 4844.78 95.6373   6
  -3   1   3 5116.29 112.008  10
   3   1  -3 4884.75 95.8897  14
   3   1  -3 4867.09 100.642   1
  -3   1   3 4932.08 95.5722   9
  -1  -1   3 1106.24 23.0600  10
   1  -1  -3 1077.65 21.1640   2
  -1  -1   3 1083.98 20.4410   6
  -1  -1   3 1030.59 21.0116   1
  -1  -1   3 1100.31 20.6481  12
   1  -1  -3 1052.23 22.9146  10
   1  -1  -3 1143.09 20.9495   8
   1  -1  -3 1112.96 21.9978  13
   1  -1  -3 1085.25 21.4072   1
  -1  -1   3 1078.78 20.3463   9
   1  -1  -3 1111.08 21.3021  14
  -1   1   3 1124.44 23.6682  10
  -1   1   3 1085.71 21.4614   1
   1   1  -3 1101.83 21.3128   4
   1   1  -3 1087.84 21.0774   7
   1   1  -3 1074.96 22.5408  10
   1   1  -3 1105.55 21.4138   2
  -1   1   3 1083.09 20.6978   6
  -1   1   3 1099.19 20.8171   9
  -1   1   3 1082.17 20.5475  12
   1   1  -3 1104.06 21.5695  14
   1  -1   3 3849.49 74.4079   1
  -1  -1  -3 3936.44 79.6495  14
  -1  -1  -3 3916.16 79.6343   2
  -1  -1  -3 4037.13 76.0691   8
  -1  -1  -3 3933.24 75.4798   5
  -1  -1  -3 3967.58 76.3101   4
   1  -1   3 4244.30 87.2432  10
   1   1   3 4124.96 98.2679  10
  -1   1  -3 4102.62 76.5575   7
   1   1   3 4012.16 74.4469  11
  -1   1  -3 3833.84 75.8577  14
  -1   1  -3 3948.50 77.2982   2
  -1   1  -3 3752.69 76.7361   4
   1   1   3 3955.03 75.7312   6
   1   1   3 4102.71 82.1887   1
  -1   1  -3 4021.12 78.3793   3
  -1   1  -3 3947.80 72.9344   8
  -1   1  -3 4087.78 76.8185   5
  -3  -1  -3 1245.25 26.1384   2
   3  -1   3 1309.24 30.3498  10
  -3  -1  -3 1224.78 25.1618  14
  -3  -1  -3 1205.67 23.9166   4
   3  -1   3 1249.86 23.5695   1
  -3  -1  -3 1257.92 26.0206   8
  -3  -1  -3 1217.08 26.0639   5
  -3   1  -3 1270.45 26.2106   2
   3   1   3 1281.98 30.7175  10
  -3   1  -3 1264.40 25.9198   8
   3   1   3 1245.51 24.8449  11
  -3   1  -3 1280.84 24.8893   7
  -3   1  -3 1286.05 25.7493  14
  -3   1  -3 1213.10 26.5718   5
   3   1   3 1242.71 23.9777   6
  -3   1  -3 1221.68 25.5484   3
  -3   1  -3 1217.56 24.8517   4
   3   1   3 1255.32 25.0839   1
   5  -1   3 890.229 26.0436  10
  -5  -1  -3 870.860 20.6683   2
   5  -1   3 866.238 17.9520   1
  -5  -1  -3 862.826 19.2292  14
   5  -1   3 875.262 19.5262  11
  -5  -1  -3 890.479 20.7225   8
  -5  -1  -3 881.062 21.1631   5
   5  -1   3 910.708 17.0155   6
  -5   1  -3 874.124 21.6421   5
  -5   1  -3 894.161 20.6280   2
  -5   1  -3 897.546 20.5867   8
   5   1   3 861.414 19.9310  11
   5   1   3 885.461 18.5422   6
   5   1   3 892.694 26.5626  10
  -5   1  -3 871.175 19.5107  14
   5   1   3 867.238 19.4243   1
   7  -1   3 709.183 15.4984   6
  -7  -1  -3 714.560 18.8060   2
   7  -1   3 698.964 18.0346  11
  -7  -1  -3 726.162 19.1902   8
  -7  -1  -3 694.584 19.5218   5
   7   1   3 690.308 18.3159  11
  -7   1  -3 676.596 19.7961   5
   7   1   3 736.902 16.8910   6
  -7   1  -3 724.245 18.7606   8
   7   1   3 718.392 17.5259   1
  -7   1  -3 697.082 18.1747   2
  -9  -1  -3 252.490 10.7185   8
   9  -1   3 243.923 10.3065  11
  -9  -1  -3 237.059 10.7113   5
   9  -1   3 249.689 8.09450   6
  -9   1  -3 250.525 10.3179   8
   9   1   3 246.491 8.92859   6
   9   1   3 246.100 10.7430  11
  -9   1  -3 250.735 11.7713   5
  12  -2  -3 93.7426 6.27391   6
  12  -2  -3 93.2817 6.27228   1
  12  -2  -3 97.5931 7.31230  11
 -12  -2   3 92.5422 6.51989   8
  12   2  -3 94.4922 7.97714  11
 -12   2   3 94.4441 7.48020   5
  12   2  -3 102.013 6.78470   6
 -10  -2   3 218.974 8.96353   8
 -10  -2   3 230.095 9.41567   5
  10  -2  -3 231.095 8.64588   6
  10  -2  -3 218.501 9.55859  11
  10  -2  -3 227.896 9.25846   1
  10   2  -3 222.777 9.23579   6
  10   2  -3 231.279 10.5432  11
  10   2  -3 227.385 10.2893   1
 -10   2   3 233.928 10.1534   5
 -10   2   3 224.624 10.6082   3
  -8  -2   3 279.728 9.33726   5
   8  -2  -3 268.220 11.2846  13
   8  -2  -3 282.334 8.75116   6
  -8  -2   3 296.771 9.39524   2
  -8  -2   3 291.126 9.23428   8
   8  -2  -3 291.973 9.67246   1
   8   2  -3 284.150 10.1089  11
  -8   2   3 275.244 9.90261   5
   8   2  -3 288.331 10.4140   1
   8   2  -3 284.920 9.46523   6
  -8   2   3 294.657 10.5327   3
  -8   2   3 289.696 8.32703   8
   6  -2  -3 286.973 8.56288   1
   6  -2  -3 281.582 7.76496   6
  -6  -2   3 282.761 8.52629   1
  -6  -2   3 284.515 7.90356   5
   6  -2  -3 289.997 10.2806  13
  -6  -2   3 286.111 7.90920  12
   6   2  -3 273.503 9.26305  13
   6   2  -3 279.732 9.26340   1
   6   2  -3 276.791 8.20552   6
   6   2  -3 291.834 8.55848  11
  -6   2   3 277.202 9.03426   3
  -6   2   3 290.512 7.52446  12
  -6   2   3 282.897 8.46130   5
  -6   2   3 283.739 7.23920   8
  -4  -2   3 682.546 15.4681   1
  -4  -2   3 695.614 14.3685  12
   4  -2  -3 718.764 17.0722  13
   4  -2  -3 660.146 15.3479   1
   4  -2  -3 688.526 14.5196   6
  -4  -2   3 675.724 14.2937   6
  -4   2   3 696.267 14.8788   1
   4   2  -3 716.405 14.4582   4
  -4   2   3 699.778 15.3770   3
  -4   2   3 682.741 14.5808   9
   4   2  -3 696.318 14.6999   6
   4   2  -3 681.869 14.5918  11
   4   2  -3 710.328 16.5585  13
   4   2  -3 696.415 15.9271   1
  -4   2   3 702.857 14.0020  12
  -2  -2   3 425.832 8.22729   9
  -2  -2   3 418.042 10.7847  10
  -2  -2   3 402.755 9.51921   1
   2  -2  -3 419.060 10.3988  13
  -2  -2   3 405.070 8.82696   6
  -2  -2   3 418.553 8.74100  12
   2  -2  -3 416.378 8.61818   2
   2  -2  -3 409.137 11.1544  10
   2  -2  -3 411.962 9.80917   1
   2  -2  -3 406.982 8.96497   6
  -2   2   3 400.365 8.46276  12
  -2   2   3 427.145 9.74225   1
   2   2  -3 417.828 8.58814  11
   2   2  -3 393.897 10.3654  10
   2   2  -3 417.515 9.46807   4
  -2   2   3 416.906 9.04400   3
   2   2  -3 405.771 9.31254  14
  -2   2   3 400.233 8.95013   9
  -2   2   3 405.592 8.84393   6
   2   2  -3 417.585 9.54219   1
  -2   2   3 425.763 11.4504  10
   0  -2  -3 676.525 14.4827   1
   0  -2  -3 720.281 14.5235  13
   0  -2   3 683.291 12.7721   6
   0  -2   3 710.410 12.8054   6
   0  -2  -3 687.895 14.4832  14
   0  -2  -3 659.982 16.1538  10
   0  -2   3 680.619 13.2462   9
   0  -2   3 676.423 13.6271   1
   0  -2  -3 690.567 14.5573   2
   0  -2   3 695.666 13.6366  12
   0  -2  -3 698.400 14.1766   8
   0  -2   3 708.176 16.0618  10
   0   2   3 694.105 16.8219  10
   0   2  -3 668.064 15.3440  10
   0   2   3 690.147 14.7942   1
   0   2   3 674.844 13.8804   6
   0   2  -3 693.006 14.8759   2
   0   2  -3 688.722 14.2820   7
   0   2  -3 684.149 14.8822  14
   0   2  -3 664.846 13.5273   3
   0   2   3 685.115 13.3428  11
   0   2  -3 689.417 14.4937   5
   0   2  -3 710.933 14.8467   4
   0   2   3 692.693 14.0424   9
   2  -2   3 652.755 17.2956  10
  -2  -2  -3 631.437 13.0144   4
  -2  -2  -3 634.570 14.2659   5
  -2  -2  -3 629.957 14.5633   8
  -2  -2  -3 623.602 13.5844   1
  -2  -2  -3 649.352 14.2602  14
   2  -2   3 632.480 12.1658   1
  -2  -2  -3 657.514 14.8092   2
  -2   2  -3 649.443 14.6206   4
   2   2   3 683.178 13.7745   6
  -2   2  -3 664.303 14.2632   7
  -2   2  -3 654.965 15.2091   5
  -2   2  -3 664.472 15.0266   2
   2   2   3 642.851 13.6754  11
  -2   2  -3 654.146 14.4702   8
   2   2   3 657.079 18.0960  10
  -2   2  -3 644.081 14.0868   3
  -2   2  -3 651.714 14.7768  14
   2   2   3 654.045 14.6872   1
  -4  -2  -3 284.559 8.88889   8
   4  -2   3 276.604 11.7509  10
  -4  -2  -3 282.398 8.85408   2
  -4  -2  -3 258.280 8.50506   5
  -4  -2  -3 277.364 7.91939  14
  -4   2  -3 286.610 8.84098   2
   4   2   3 275.616 8.47108   1
   4   2   3 280.159 7.63869   6
  -4   2  -3 283.871 8.46413  14
   4   2   3 277.807 12.3203  10
  -4   2  -3 265.845 7.96837   4
  -4   2  -3 284.137 8.75327   3
  -4   2  -3 282.736 8.28753   7
  -4   2  -3 265.952 9.41186   5
  -4   2  -3 278.649 8.53664   8
   4   2   3 272.106 8.19027  11
  -6  -2  -3 371.407 11.6406   2
  -6  -2  -3 363.927 11.6859   8
   6  -2   3 354.829 10.6140  11
  -6  -2  -3 364.933 11.8103   5
   6  -2   3 361.034 7.78232   6
   6  -2   3 347.079 15.4783  10
   6   2   3 360.921 11.3419  11
  -6   2  -3 352.722 12.5347   5
   6   2   3 345.575 10.0488   6
  -6   2  -3 365.142 11.2053   8
   6   2   3 357.682 10.9960   1
  -6   2  -3 356.864 11.0581   2
  -8  -2  -3 166.698 8.23826   8
  -8  -2  -3 166.721 8.50660   5
  -8  -2  -3 158.054 7.98940   2
   8  -2   3 160.552 5.50687   6
   8   2   3 156.281 8.29650  11
  -8   2  -3 161.081 7.80600   8
   8   2   3 160.895 7.39865   1
  -8   2  -3 159.204 9.01307   5
   8   2   3 167.412 7.22273   6
  11  -3  -3 736.646 19.9314   1
  11  -3  -3 773.901 19.4350   6
 -11  -3   3 750.080 20.5058   8
  11  -3  -3 745.471 21.0898  11
 -11   3   3 762.375 22.4240   5
  11   3  -3 726.034 22.3306  11
 -11   3   3 771.110 22.5833   3
  11   3  -3 741.232 22.1821   1
  11   3  -3 748.455 20.8782   6
  -9  -3   3 53.8936 4.47126   8
   9  -3  -3 45.4306 5.25772  13
   9  -3  -3 51.6354 3.77875   6
   9  -3  -3 69.5308 4.68080   1
  -9  -3   3 56.0695 4.30128   5
  -9   3   3 60.3600 5.37711   3
  -9   3   3 52.1084 4.58645   5
   9   3  -3 51.2533 4.77482   1
   9   3  -3 48.0498 5.21641  11
   9   3  -3 47.2117 4.27282   6
  -7  -3   3 2155.35 42.6181   8
  -7  -3   3 2101.03 42.9993   1
  -7  -3   3 2173.77 42.2240  12
   7  -3  -3 2096.33 46.5603  13
   7  -3  -3 2132.67 42.9316   1
  -7  -3   3 2175.22 42.2738   5
   7  -3  -3 2156.28 41.8677   6
   7   3  -3 2200.47 45.0727   1
   7   3  -3 2170.20 43.5918  11
  -7   3   3 2152.51 43.5673   5
   7   3  -3 2151.81 43.0008   6
  -7   3   3 2164.31 44.4219   3
  -7   3   3 2080.50 40.7668   8
  -5  -3   3 183.165 5.53169  12
   5  -3  -3 195.292 7.90766  13
  -5  -3   3 186.530 6.57065   1
   5  -3  -3 189.482 6.39460   1
   5  -3  -3 177.373 5.59174   6
   5   3  -3 179.534 5.91150   6
   5   3  -3 181.179 6.84361   1
  -5   3   3 206.550 6.00417   9
   5   3  -3 175.263 5.07336   4
  -5   3   3 181.590 5.03466  12
  -5   3   3 177.853 4.66807   8
   5   3  -3 186.260 6.16683  11
  -5   3   3 178.791 5.52381   1
  -5   3   3 183.955 6.53248   3
   3  -3  -3 6472.65 131.727  13
   3  -3  -3 5839.63 121.641   1
  -3  -3   3 5804.38 115.230   6
   3  -3  -3 6082.29 118.340   6
  -3  -3   3 5830.66 115.109   1
  -3  -3   3 5992.98 111.711  12
  -3   3   3 6161.48 117.284   9
  -3   3   3 6001.20 118.630   1
   3   3  -3 6147.42 114.434   4
   3   3  -3 6029.32 130.020  10
   3   3  -3 6000.21 122.107   1
   3   3  -3 6145.64 116.249  11
   3   3  -3 5961.51 116.407   7
  -3   3   3 6346.33 120.449   3
  -3   3   3 6087.19 114.250  12
  -3   3   3 6053.85 132.249  10
   3   3  -3 6144.51 119.020  14
   1  -3  -3 791.475 16.9548  13
  -1  -3   3 794.176 15.3601   6
   1  -3  -3 774.835 15.9180   2
   1  -3  -3 797.238 15.3133   8
   1  -3  -3 778.818 15.7502   6
   1  -3  -3 770.133 18.0843  10
  -1  -3   3 785.377 15.2913  12
   1  -3  -3 758.766 16.7775   1
  -1  -3   3 773.798 16.1738   1
  -1  -3   3 804.887 17.1383  10
  -1   3   3 764.746 15.7803   6
   1   3  -3 784.451 16.8154  14
  -1   3   3 788.987 16.8113   1
   1   3  -3 770.272 16.4423   7
   1   3  -3 802.369 16.9802   4
   1   3  -3 789.659 16.6571  10
  -1   3   3 769.861 15.0975  12
  -1   3   3 795.097 15.8901   9
  -1   3   3 782.466 15.5813  11
   1   3  -3 779.715 15.3741  11
   1   3  -3 779.646 15.0302   3
  -1   3   3 784.949 18.3870  10
   1   3  -3 820.280 16.1850   1
   1  -3   3 5678.77 109.265   1
  -1  -3  -3 5704.06 108.225   8
  -1  -3  -3 5783.79 116.570   2
   1  -3   3 6132.05 131.738  10
  -1  -3  -3 5448.40 109.336   1
   1   3   3 5585.49 110.539  11
  -1   3  -3 5652.65 112.971   7
  -1   3  -3 5680.19 113.076   4
   1   3   3 5727.25 116.438   1
  -1   3  -3 6052.10 111.710   3
  -1   3  -3 5910.80 111.863   2
   1   3   3 5879.08 109.374   9
   1   3   3 5674.85 115.226   6
  -1   3  -3 5788.30 109.924   8
   1   3   3 5897.96 132.326  10
  -1   3  -3 5996.01 117.083  14
  -1   3  -3 5913.83 111.731   5
  -3  -3  -3 407.805 10.3424  14
   3  -3   3 410.010 13.4845  10
  -3  -3  -3 415.753 11.1193   2
  -3  -3  -3 399.177 10.7912   8
  -3  -3  -3 381.730 10.1828   5
   3   3   3 406.429 10.3910  11
  -3   3  -3 401.951 11.5573   5
   3   3   3 400.453 14.4517  10
   3   3   3 418.691 10.2943   6
  -3   3  -3 408.414 10.5904   8
  -3   3  -3 413.626 10.9066   4
  -3   3  -3 408.874 11.0331   2
   3   3   3 395.258 11.1960   1
  -3   3  -3 411.436 10.7742   7
  -3   3  -3 426.608 11.1973  14
  -3   3  -3 409.831 10.6424   3
  -5  -3  -3 1962.13 40.1796   8
   5  -3   3 1892.95 40.3971  13
  -5  -3  -3 1977.10 40.3664   2
  -5  -3  -3 1858.51 38.2553  14
   5  -3   3 1878.49 45.0475  10
  -5   3  -3 1998.68 41.7440   5
   5   3   3 1954.82 38.8604   6
  -5   3  -3 1987.25 39.8089   7
  -5   3  -3 1936.56 39.6896   2
   5   3   3 1939.69 40.1741   1
  -5   3  -3 1995.67 40.1940   3
   5   3   3 1869.16 39.4786  11
   5   3   3 1920.99 46.9888  10
  -5   3  -3 1938.19 38.9700   4
  -5   3  -3 1990.20 39.5404   8
  -7  -3  -3 99.2464 6.12999   2
   7  -3   3 92.4372 5.45835  11
  -7  -3  -3 88.5950 5.54404   5
  -7  -3  -3 84.3208 5.60253   8
   7  -3   3 86.2775 3.05923   6
   7   3   3 84.1856 6.00844  11
  -7   3  -3 97.5352 6.93452   5
   7   3   3 86.2732 5.11690   6
   7   3   3 88.5752 5.59815   1
  -7   3  -3 102.161 5.73548   8
   9  -3   3 535.520 12.8202   6
   9  -3   3 528.098 16.0448  11
  -9  -3  -3 543.963 17.1896   8
   9   3   3 552.936 16.0419   6
   9   3   3 518.155 16.1598   1
  -9   3  -3 526.196 17.9732   5
   9   3   3 548.393 17.5259  11
 -10  -4   3 216.428 9.12924   8
  10  -4  -3 219.078 8.28009   6
  10  -4  -3 217.875 8.77184   1
  10   4  -3 210.591 9.32003   6
 -10   4   3 212.424 10.1906   5
  10   4  -3 211.842 10.5918  11
 -10   4   3 224.557 10.5663   3
  10   4  -3 225.134 10.8896   1
   8  -4  -3 327.916 10.4723   1
   8  -4  -3 332.076 9.70629   6
  -8  -4   3 332.133 10.6351   8
   8  -4  -3 318.185 13.2062  13
   8   4  -3 338.382 12.4770   1
   8   4  -3 341.566 11.7658  11
  -8   4   3 328.732 11.4237   5
  -8   4   3 329.772 11.7283   3
   8   4  -3 332.602 10.9570   6
  -6  -4   3 394.307 10.7484   8
   6  -4  -3 410.011 13.8591  13
  -6  -4   3 391.620 9.79960   5
  -6  -4   3 388.380 10.1459  12
   6  -4  -3 403.073 10.2127   6
  -6  -4   3 379.197 11.3337   1
   6  -4  -3 403.758 11.0598   1
  -6   4   3 392.926 11.7906   3
   6   4  -3 398.883 11.2663  11
  -6   4   3 391.710 11.0923   5
   6   4  -3 374.288 10.7080   6
   6   4  -3 388.717 12.3399   1
  -6   4   3 398.114 9.35427  12
   4  -4  -3 1418.07 28.1328   6
   4  -4  -3 1465.82 29.3353   1
  -4  -4   3 1459.75 27.7884  12
   4  -4  -3 1451.56 31.6260  13
  -4  -4   3 1423.98 29.6983   1
  -4  -4   3 1441.25 28.1560   6
  -4   4   3 1424.61 26.7911  12
   4   4  -3 1457.65 30.0894   1
  -4   4   3 1450.26 28.0938   9
   4   4  -3 1437.21 28.5830  11
   4   4  -3 1412.74 28.1506   6
   4   4  -3 1394.21 28.9827   7
   4   4  -3 1398.32 28.1021   4
  -4   4   3 1353.04 28.1478   1
  -4   4   3 1451.35 29.2691   3
  -2  -4   3 916.262 18.4123  12
   2  -4  -3 920.110 19.2781   6
   2  -4  -3 968.897 21.3184  13
   2  -4  -3 936.181 20.4501   1
  -2  -4   3 935.221 20.0759   1
   2  -4  -3 962.241 18.7593   2
  -2  -4   3 935.025 19.0799   6
   2   4  -3 945.349 19.8505   1
  -2   4   3 977.665 21.8580  10
  -2   4   3 952.745 19.0907   9
   2   4  -3 957.326 20.2614   4
   2   4  -3 982.898 20.2460  14
   2   4  -3 971.817 20.1426   7
  -2   4   3 963.686 20.2032   1
  -2   4   3 969.069 19.8754   3
   2   4  -3 980.071 19.2431  11
  -2   4   3 956.824 18.0194  12
   2   4  -3 939.116 19.8522  10
   0  -4   3 1461.86 28.8642  10
   0  -4  -3 1451.12 28.4882   2
   0  -4   3 1405.95 27.7844   1
   0  -4  -3 1403.18 27.6568   6
   0  -4   3 1433.21 26.8390   6
   0  -4  -3 1413.11 27.5725   8
   0  -4   3 1429.21 26.9841  12
   0  -4  -3 1481.50 28.5978  13
   0  -4  -3 1397.77 29.1624   1
   0   4  -3 1470.95 28.2570   5
   0   4  -3 1440.33 27.4820   3
   0   4   3 1472.27 29.4654   1
   0   4  -3 1443.68 28.9517   7
   0   4  -3 1434.23 29.3741  14
   0   4   3 1457.46 27.9112  11
   0   4   3 1454.85 27.9076   9
   0   4   3 1476.20 31.2770  10
   0   4   3 1391.26 27.9806   6
   0   4  -3 1481.23 29.5709   4
  -2  -4  -3 957.435 21.1653   1
   2  -4   3 989.234 23.4507  10
  -2  -4  -3 993.859 21.5887   2
  -2  -4  -3 991.689 21.0984   8
   2  -4   3 969.341 18.8198   1
  -2   4  -3 995.415 20.8529   3
  -2   4  -3 1002.55 21.6946   7
  -2   4  -3 989.095 21.6650   2
   2   4   3 1002.49 20.8765   6
  -2   4  -3 1013.91 21.9182   5
  -2   4  -3 989.878 22.0360   4
   2   4   3 1000.37 22.3247   1
   2   4   3 972.350 20.7278  11
   2   4   3 1012.10 20.7622   9
  -2   4  -3 992.150 22.0802  14
   2   4   3 1009.64 25.3927  10
  -2   4  -3 1005.31 20.7619   8
  -4  -4  -3 274.940 9.28315   2
   4  -4   3 253.162 10.9752  10
  -4  -4  -3 271.129 8.28116  14
  -4  -4  -3 282.664 9.23553   8
  -4  -4  -3 278.324 8.29346   5
   4   4   3 284.669 9.78109   1
  -4   4  -3 293.039 9.25498  14
  -4   4  -3 277.059 8.97766   4
   4   4   3 279.508 12.7285  10
  -4   4  -3 285.621 9.11072   2
  -4   4  -3 281.842 9.96419   5
  -4   4  -3 286.237 8.68767   8
  -4   4  -3 278.183 8.94312   3
  -4   4  -3 306.749 9.58369   7
   4   4   3 273.732 8.55964   6
   4   4   3 275.208 8.92993  11
   6  -4   3 269.162 13.0796  10
  -6  -4  -3 339.319 11.4582   2
  -6  -4  -3 301.847 10.8827   8
   6   4   3 307.040 11.0468  11
  -6   4  -3 315.588 11.7512   5
  -6   4  -3 312.354 9.99537   8
   6   4   3 309.892 11.2692   1
  -6   4  -3 313.469 10.8652   3
   6   4   3 312.959 10.3555   6
   8  -4   3 93.1479 5.90072  11
  -8  -4  -3 99.7933 6.35106   2
   8  -4   3 92.3707 3.46788   6
  -8  -4  -3 85.1794 6.16452   8
  -8   4  -3 99.3966 7.31034   5
   8   4   3 87.1719 5.79911   6
   8   4   3 87.0771 6.83497  11
   8   4   3 83.9197 6.16045   1
  11  -5  -3 294.103 10.2951   6
 -11  -5   3 290.901 11.5958   8
 -11   5   3 328.132 13.6941   3
  11   5  -3 319.285 13.9651   1
  11   5  -3 286.823 13.0945  11
 -11   5   3 282.898 12.7160   5
   9  -5  -3 830.047 19.5980   6
   9  -5  -3 780.959 24.7700  13
  -9  -5   3 824.424 20.3403   2
  -9  -5   3 803.365 21.0929   8
   9  -5  -3 825.594 20.4636   1
   9   5  -3 817.557 22.7802  11
  -9   5   3 831.119 22.8401   3
   9   5  -3 831.666 23.7852   1
  -9   5   3 872.621 22.5386   5
  -7  -5   3 851.417 20.1618   8
  -7  -5   3 851.229 21.1296   1
   7  -5  -3 853.058 19.2431   6
   7  -5  -3 826.633 24.1199  13
   7  -5  -3 853.186 20.1565   1
  -7   5   3 855.249 21.6810   3
   7   5  -3 842.217 22.5024   1
   7   5  -3 882.025 21.4418  11
   7   5  -3 865.585 20.5387   7
   7   5  -3 810.662 20.1923   6
  -7   5   3 865.737 20.9454   5
  -5  -5   3 1660.67 34.9962   1
   5  -5  -3 1678.48 33.0971   6
   5  -5  -3 1664.94 34.1749   1
  -5  -5   3 1659.06 32.7406  12
   5  -5  -3 1673.18 37.7960  13
   5   5  -3 1698.40 34.2145  11
   5   5  -3 1645.84 35.7019   1
   5   5  -3 1662.59 34.1975   7
  -5   5   3 1697.87 34.9493   3
  -5   5   3 1665.22 33.7261   5
  -5   5   3 1648.71 32.9709   9
   3  -5  -3 1085.90 22.5619   6
  -3  -5   3 1104.95 22.6223   6
   3  -5  -3 1128.54 25.6659  13
  -3  -5   3 1131.32 24.1651   1
   3  -5  -3 1099.70 23.8827   1
   3  -5  -3 1089.86 21.2537   2
  -3  -5   3 1112.67 21.7128  12
   3   5  -3 1100.17 23.9106   1
  -3   5   3 1131.42 23.6284   3
   3   5  -3 1154.12 23.0821  11
   3   5  -3 1079.04 23.2281   4
  -3   5   3 1094.53 23.1367   1
  -3   5   3 1125.34 22.3405   9
   3   5  -3 1123.88 23.6539   7
   3   5  -3 1087.51 23.4831  10
  -3   5   3 1096.03 20.7205  12
  -3   5   3 1133.24 25.5282  10
  -1  -5   3 1555.34 28.8835   6
  -1  -5   3 1474.46 27.8527  12
   1  -5  -3 1474.10 27.7287   8
   1  -5  -3 1553.17 31.0455  13
   1  -5  -3 1490.13 29.2562   2
   1  -5  -3 1520.07 31.0012   1
  -1  -5   3 1494.33 29.9600   1
   1  -5  -3 1437.30 29.1210   6
  -1   5   3 1520.58 30.6721   1
  -1   5   3 1490.43 29.9914   3
  -1   5   3 1468.83 29.3424  11
   1   5  -3 1512.79 30.7122  14
  -1   5   3 1429.76 28.8944   6
   1   5  -3 1518.12 30.3980   7
   1   5  -3 1503.11 29.1697  11
  -1   5   3 1528.82 31.9460  10
   1   5  -3 1486.44 28.7829   3
   1   5  -3 1435.21 28.8680   1
  -1   5   3 1468.69 27.6067  12
   1   5  -3 1492.60 30.8123   4
  -1   5   3 1506.54 28.9494   9
   1  -5   3 770.209 17.4296  10
   1  -5   3 767.887 15.1174   6
  -1  -5  -3 769.086 16.3944  13
   1  -5   3 760.646 15.3576  12
  -1  -5  -3 786.396 17.5528   2
  -1  -5  -3 761.495 16.6021   8
   1  -5   3 773.802 16.1039   1
   1   5   3 774.103 16.6316   9
  -1   5  -3 798.882 17.4017   5
  -1   5  -3 797.565 18.5728   4
  -1   5  -3 786.101 16.7098   3
  -1   5  -3 787.326 18.5492  14
  -1   5  -3 785.765 18.0541   7
   1   5   3 763.466 18.4873   1
   1   5   3 754.089 16.8569  11
   1   5   3 768.439 16.9086   6
   1   5   3 782.630 20.0312  10
   3  -5   3 985.216 24.7197  10
  -3  -5  -3 1018.07 23.0781   2
  -3  -5  -3 1017.57 22.6150   8
   3   5   3 1046.69 22.1265   9
   3   5   3 1025.41 27.4073  10
  -3   5  -3 1018.72 23.5461   5
   3   5   3 998.768 22.3687  11
  -3   5  -3 1035.93 23.3738   7
   3   5   3 1019.75 24.1788   1
  -3   5  -3 1008.09 23.5765   4
  -3   5  -3 1019.57 23.5426  14
  -3   5  -3 1028.65 22.4498   3
   3   5   3 1027.37 22.4361   6
  -3   5  -3 1026.99 22.8445   2
  -3   5  -3 1018.39 21.6725   8
  -5  -5  -3 518.564 14.9866   2
  -5  -5  -3 523.692 14.8026   8
  -5  -5  -3 501.174 13.4138  14
   5  -5   3 515.494 16.0925  13
  -5   5  -3 520.856 15.0764   7
  -5   5  -3 500.216 14.5356   4
   5   5   3 496.540 19.5977  10
   5   5   3 546.001 14.6211   6
   5   5   3 521.091 15.8544   1
  -5   5  -3 523.252 14.2935   2
  -5   5  -3 517.995 13.5531   8
  -5   5  -3 527.195 14.5516  14
  -5   5  -3 533.169 14.7219   3
   5   5   3 504.432 14.7490  11
  -5   5  -3 531.725 15.8586   5
  -7  -5  -3 708.610 20.3322   2
  -7  -5  -3 722.454 20.2367   8
   7  -5   3 729.283 14.2634   6
   7   5   3 717.287 20.9466   1
  -7   5  -3 750.755 20.4067   3
   7   5   3 728.500 19.6127   6
  -7   5  -3 738.348 21.4922   5
 -10  -6   3 61.0492 6.67828   2
  10  -6  -3 65.7376 4.80881   1
  10  -6  -3 74.1330 4.86554   6
 -10  -6   3 68.0457 5.78412   8
  10   6  -3 76.5346 6.62529  11
 -10   6   3 75.6499 6.84371   3
  10   6  -3 76.1841 7.11267   1
 -10   6   3 69.4315 6.43924   5
   8  -6  -3 224.198 8.47721   1
   8  -6  -3 224.326 7.86084   6
  -8  -6   3 223.253 8.94875   8
   8  -6  -3 220.019 11.7712  13
   8   6  -3 213.360 9.63481  11
  -8   6   3 219.718 9.38144   5
  -8   6   3 229.935 10.0744   3
   8   6  -3 209.199 10.5554   1
   6  -6  -3 618.397 14.9043   6
   6  -6  -3 628.958 16.0498   1
  -6  -6   3 599.828 16.9037   1
  -6  -6   3 646.796 15.8136   8
   6  -6  -3 585.445 19.1761  13
  -6   6   3 622.374 15.9848   5
   6   6  -3 611.230 16.0341   7
   6   6  -3 620.084 17.9557   1
   6   6  -3 623.895 16.3706  11
  -6   6   3 630.390 17.1508   3
   4  -6  -3 314.166 11.7305  13
   4  -6  -3 330.180 8.98351   6
   4  -6  -3 308.428 9.74861   1
  -4  -6   3 328.465 10.3883   1
  -4  -6   3 313.236 8.80287   6
  -4  -6   3 305.949 8.03789  12
   4   6  -3 322.585 9.75396   7
   4   6  -3 333.501 9.09111   4
  -4   6   3 321.916 8.55156   9
  -4   6   3 319.891 9.93279   3
   4   6  -3 330.746 9.48215  11
  -4   6   3 296.223 8.63718   5
   4   6  -3 316.892 10.3722   1
  -2  -6   3 1184.47 24.2460   6
  -2  -6   3 1184.38 25.6210   1
  -2  -6   3 1154.92 22.6985  12
   2  -6  -3 1170.21 23.7322   2
   2  -6  -3 1190.81 24.5174   6
   2  -6  -3 1199.49 26.0579   1
   2  -6  -3 1208.62 27.0483  13
   2   6  -3 1206.13 25.6977   7
   2   6  -3 1198.61 24.6398  11
  -2   6   3 1198.13 26.4219  10
   2   6  -3 1158.32 25.5818   4
  -2   6   3 1217.59 25.4627   3
  -2   6   3 1184.05 23.7652   9
  -2   6   3 1194.46 25.4271   1
   2   6  -3 1158.67 24.8331   1
   0  -6  -3 618.295 15.6986   1
   0  -6   3 638.687 13.6034   6
   0  -6  -3 607.956 14.1072   6
   0  -6   3 633.420 14.6227   1
   0  -6  -3 600.417 13.1798   8
   0  -6  -3 613.159 15.0678  13
   0  -6  -3 621.848 14.7280   2
   0   6   3 629.554 16.6633  10
   0   6   3 633.662 14.6645  11
   0   6   3 617.797 15.9176   1
   0   6   3 626.583 14.2248   6
   0   6  -3 639.811 15.7743   7
   0   6  -3 621.463 14.0863   3
   0   6   3 664.050 14.1404   9
   0   6  -3 638.199 16.1827   4
  -2  -6  -3 312.003 9.06335   8
   2  -6   3 315.612 8.03076   1
  -2  -6  -3 336.962 10.1159   2
   2  -6   3 319.610 7.28351   6
  -2   6  -3 319.248 9.27349   3
   2   6   3 314.344 10.8525   1
   2   6   3 325.858 12.2879  10
   2   6   3 314.966 9.38884  11
   2   6   3 315.766 9.35118   6
  -2   6  -3 319.533 10.3957   7
  -2   6  -3 317.955 9.73344   5
   2   6   3 331.676 8.98196   9
  -2   6  -3 330.533 10.8719   4
  -2   6  -3 322.165 10.6810  14
  -4  -6  -3 546.264 15.1638   2
   4  -6   3 525.402 10.3083   6
  -4  -6  -3 542.945 14.6738   8
  -4  -6  -3 542.715 14.2165  14
  -4   6  -3 544.127 15.5275   7
   4   6   3 529.303 14.0761   9
  -4   6  -3 537.743 15.5657   5
  -4   6  -3 547.173 14.8077   3
   4   6   3 529.277 14.8891  11
  -4   6  -3 531.130 15.4554   4
   4   6   3 522.758 16.1248   1
   4   6   3 513.898 19.0986  10
   4   6   3 524.313 14.5129   6
   6  -6   3 52.1462 1.88755   6
   6  -6   3 51.7866 5.31559  13
  -6  -6  -3 55.1443 5.00703   8
  -6  -6  -3 65.1390 5.13524   2
   6   6   3 50.7858 5.27978  11
  -6   6  -3 57.0228 5.16358   7
  -6   6  -3 59.2976 5.59429   5
   6   6   3 56.6463 5.62226   1
   6   6   3 50.9150 4.63179   6
   6   6   3 50.2297 4.58885   9
  -6   6  -3 55.9461 4.94889   3
  -8  -6  -3 110.545 7.12953   8
   8  -6   3 107.293 3.64988   6
  -8  -6  -3 106.061 7.37544   2
   8   6   3 102.778 7.51287  11
   8   6   3 112.069 7.03994   6
  -8   6  -3 109.143 7.47599   5
   8   6   3 106.322 7.00764   9
   8   6   3 114.613 7.87998   1
  -9  -7   3 560.621 16.5457   2
  -9  -7   3 557.085 16.9638   8
   9  -7  -3 581.992 15.4483   6
   9  -7  -3 578.256 16.0009   1
  -9   7   3 577.379 18.0127   5
   9   7  -3 558.809 19.6184   1
  -9   7   3 562.722 18.4341   3
   9   7  -3 561.137 18.6570  11
   7  -7  -3 59.4189 6.07099  13
  -7  -7   3 60.6937 4.62661   8
  -7  -7   3 63.2505 5.27345   1
   7  -7  -3 66.3254 4.21419   6
   7  -7  -3 59.0938 4.41630   1
   7   7  -3 63.8968 5.02655  11
  -7   7   3 55.9302 5.25659   3
   7   7  -3 68.2346 6.03004   1
  -7   7   3 61.9885 4.89473   5
   5  -7  -3 1520.52 36.5512  13
   5  -7  -3 1506.67 32.3751   1
   5  -7  -3 1498.96 31.1223   6
  -5  -7   3 1521.51 31.3917   8
  -5  -7   3 1550.66 33.9944   1
  -5   7   3 1465.94 30.4359   9
   5   7  -3 1492.91 33.9516   1
   5   7  -3 1507.30 32.3712  11
  -5   7   3 1476.06 31.3527   5
  -5   7   3 1497.87 33.0421   3
   5   7  -3 1461.98 32.0920   7
  -3  -7   3 424.988 12.6669   1
  -3  -7   3 411.307 10.9807   6
   3  -7  -3 414.640 11.1425   6
   3  -7  -3 417.491 12.2932   1
   3  -7  -3 419.352 13.9369  13
   3   7  -3 420.792 12.1081   1
   3   7  -3 433.793 11.6263  11
  -3   7   3 418.460 12.1162   3
  -3   7   3 406.203 10.2674   5
   3   7  -3 427.367 12.1904   7
   3   7  -3 417.109 11.7751   4
  -3   7   3 421.701 10.3548   9
  -3   7   3 394.888 11.1401   1
   1  -7  -3 3095.90 59.1325   1
   1  -7  -3 2873.99 56.5722   6
   1  -7  -3 3029.05 56.6913   2
  -1  -7   3 2960.38 57.7765   1
   1  -7  -3 3022.08 59.0242  13
  -1  -7   3 3003.44 56.3041   6
  -1   7   3 2926.71 58.3411  10
  -1   7   3 2952.97 57.1261  11
   1   7  -3 3003.44 56.8100  11
   1   7  -3 3032.00 58.5519   7
  -1   7   3 2945.39 55.6720   9
  -1   7   3 3075.73 58.1934   3
   1   7  -3 2935.91 58.7422   4
   1   7  -3 2900.26 56.3471   3
  -1   7   3 2861.78 56.7352   7
   1  -7   3 575.357 13.0265   6
   1  -7   3 594.339 14.1006   1
  -1  -7  -3 563.309 13.3454   8
  -1  -7  -3 588.500 14.9509   2
   1   7   3 579.778 16.7937  10
  -1   7  -3 583.728 16.3878   4
   1   7   3 575.353 14.5765  11
  -1   7  -3 612.163 16.1482   7
  -1   7  -3 563.965 14.1141   3
   1   7   3 599.031 16.3888   1
  -1   7  -3 590.434 14.1065   5
   1   7   3 566.476 13.5499   9
  -3  -7  -3 1923.03 40.2226   2
   3  -7   3 1895.01 35.9654   6
  -3  -7  -3 1920.53 38.9638   8
   3   7   3 1858.18 39.5458  11
   3   7   3 1881.38 41.9711   1
  -3   7  -3 1935.70 41.4165   4
   3   7   3 1837.19 39.2375   6
  -3   7  -3 1954.97 41.1481   7
  -3   7  -3 1913.90 39.9982   5
   3   7   3 1945.75 38.5202   9
  -3   7  -3 1904.82 39.2801   3
   3   7   3 1917.39 44.6957  10
   5  -7   3 146.801 8.74262  13
  -5  -7  -3 139.916 6.56502  14
  -5  -7  -3 149.810 7.80376   2
  -5  -7  -3 155.186 7.44796   8
   5  -7   3 150.886 4.21214   6
   5   7   3 150.118 6.96639   9
   5   7   3 137.454 7.55433  11
   5   7   3 139.827 7.01043   6
  -5   7  -3 149.731 7.36189   3
  -5   7  -3 152.219 7.89397   5
  -5   7  -3 153.050 8.19508   7
   5   7   3 138.430 8.15647   1
   7  -7   3 539.462 11.4567   6
  -7  -7  -3 538.804 17.3567   2
  -7  -7  -3 551.409 17.1023   8
  -7   7  -3 531.734 16.6068   3
  -7   7  -3 554.024 17.7140   5
   7   7   3 504.563 17.2607  11
   7   7   3 550.060 16.4143   9
   7   7   3 515.250 16.5604   6
   7   7   3 511.515 18.1892   1
 -10  -8   3 48.0187 5.22496   2
 -10  -8   3 50.0562 5.59383   8
  10  -8  -3 44.3333 3.99972   6
  10   8  -3 50.5844 6.67260  11
 -10   8   3 44.5068 5.79309   3
  10   8  -3 39.7102 6.16264   1
 -10   8   3 42.4583 5.41212   5
   8  -8  -3 104.691 5.68638   6
   8  -8  -3 107.756 6.10027   1
  -8  -8   3 115.035 6.80109   8
   8  -8  -3 93.1922 8.53610  13
  -8   8   3 112.411 7.23691   3
  -8   8   3 108.446 6.93424   5
   8   8  -3 112.691 8.48515   1
   8   8  -3 109.714 7.30080  11
  -6  -8   3 281.329 11.2720   1
   6  -8  -3 284.420 9.27561   6
   6  -8  -3 258.211 12.9676  13
  -6  -8   3 274.938 9.61186   8
   6  -8  -3 277.605 9.99210   1
   6   8  -3 274.170 11.6092   1
  -6   8   3 268.184 9.69424   5
   6   8  -3 267.595 9.94785   7
   6   8  -3 267.115 10.4401  11
  -6   8   3 272.538 10.8180   3
   4  -8  -3 29.8399 4.40161  13
  -4  -8   3 28.4325 3.89707   1
   4  -8  -3 28.4830 3.08731   1
   4  -8  -3 25.0542 2.86583   6
  -4  -8   3 37.9941 3.13676   6
   4   8  -3 23.5395 3.23666  11
  -4   8   3 36.7677 2.73585   9
   4   8  -3 28.0107 3.62511   1
   4   8  -3 32.0709 3.73786   7
  -4   8   3 24.6911 3.41395   3
   4   8  -3 29.8332 2.85698   4
   2  -8  -3 372.808 12.0644   1
   2  -8  -3 324.736 9.64808   2
  -2  -8   3 359.245 10.2437   6
  -2  -8   3 365.672 11.6766   1
   2  -8  -3 364.846 12.7294  13
   2  -8  -3 362.662 10.5129   6
  -2   8   3 353.421 11.0554   7
   2   8  -3 366.003 10.6384  11
   2   8  -3 349.424 11.5358   7
   2   8  -3 352.626 10.3006   3
  -2   8   3 354.364 10.9465   1
   2   8  -3 345.604 11.2662   4
  -2   8   3 351.181 9.16927   9
  -2   8   3 357.156 11.3463   3
   0  -8  -3 142.696 7.03905   1
   0  -8   3 131.277 5.21588   6
   0  -8  -3 140.506 6.48843  13
   0  -8  -3 125.191 5.77924   2
   0  -8   3 141.506 6.13322   1
   0   8  -3 128.309 6.71889   4
   0   8  -3 137.351 5.58201   3
   0   8   3 139.962 6.82227   1
   0   8  -3 128.409 6.77529   7
   0   8   3 140.068 6.17134  11
   0   8   3 134.754 4.97944   9
  -2  -8  -3 96.9708 5.45393   2
   2  -8   3 96.2368 4.06392   6
   2  -8   3 94.5684 4.47627   1
   2   8   3 103.390 4.79270   9
   2   8   3 98.1258 5.41485  11
   2   8   3 107.146 6.70200   1
  -2   8  -3 97.7732 5.05324   5
  -2   8  -3 94.1588 6.06790   4
  -2   8  -3 107.568 6.56201   7
  -2   8  -3 91.7535 5.05054   3
  -4  -8  -3 343.600 11.1724   8
  -4  -8  -3 342.187 12.0692   2
   4  -8   3 323.673 13.8062  13
   4  -8   3 332.394 8.49261   6
   4   8   3 321.458 11.7441  11
   4   8   3 323.828 10.4399   9
  -4   8  -3 351.333 12.0811   5
  -4   8  -3 341.056 12.7348   4
  -4   8  -3 319.381 11.1332   3
  -4   8  -3 336.517 12.7738   7
   4   8   3 337.592 13.3569   1
  -6  -8  -3 57.5663 4.90080   8
  -6  -8  -3 55.8835 5.24846   2
  -6   8  -3 59.1581 6.05691   7
  -6   8  -3 50.7048 4.99688   3
   6   8   3 54.4715 5.99483  11
   6   8   3 56.8788 4.93944   9
  -6   8  -3 54.7869 5.52080   5
   6   8   3 55.1484 6.08463   1
  -9  -9   3 321.013 11.9972   8
  -9  -9   3 306.678 12.2643   2
   9  -9  -3 299.529 10.6813   6
  -9   9   3 302.206 13.1414   3
   9   9  -3 316.996 13.8212  11
  -9   9   3 278.256 11.9376   5
   9   9  -3 316.518 14.4137   1
  -7  -9   3 1005.33 26.5393   1
   7  -9  -3 968.497 24.2898   1
  -7  -9   3 994.172 24.3570   8
   7  -9  -3 994.155 23.5209   6
   7  -9  -3 949.520 29.8591  13
   7   9  -3 961.003 25.7444  11
  -7   9   3 994.823 24.8587   5
   7   9  -3 1022.38 28.1712   1
  -7   9   3 997.853 26.3511   3
   5  -9  -3 411.107 16.6070  13
   5  -9  -3 411.660 12.3153   6
  -5  -9   3 413.155 14.3983   1
  -5  -9   3 391.264 11.7662   8
   5  -9  -3 403.037 13.2055   1
   5   9  -3 418.334 13.4293   7
   5   9  -3 401.166 14.3087   1
  -5   9   3 390.478 13.4814   3
   5   9  -3 424.500 13.4118  11
  -3  -9   3 848.417 20.1684   6
  -3  -9   3 858.196 22.4889   1
   3  -9  -3 853.195 20.4033   6
   3  -9  -3 859.105 24.3420  13
   3  -9  -3 872.094 22.0556   1
   3   9  -3 833.767 21.1239   4
   3   9  -3 811.960 21.6434   7
  -3   9   3 849.290 21.6850   3
   3   9  -3 870.596 21.0645  11
   3   9  -3 864.864 20.6025   3
  -1  -9   3 192.755 7.15720   6
   1  -9  -3 192.055 7.32435   6
   1  -9  -3 185.367 7.15414   2
   1  -9  -3 194.061 8.84159  13
   1  -9  -3 178.209 8.58453   1
  -1  -9   3 187.598 7.95744   1
   1   9  -3 183.331 7.16430   3
   1   9  -3 180.683 8.30443   7
   1   9  -3 175.903 8.39053   4
  -1   9   3 181.950 7.42206   7
  -1   9   3 195.134 8.44459   3
   1  -9   3 567.256 14.2201   6
  -1  -9  -3 607.027 17.5198   1
  -1  -9  -3 558.215 15.7597   2
   1  -9   3 568.666 15.2555   1
   1   9   3 570.644 16.0236  11
  -1   9  -3 578.658 15.3457   3
  -1   9  -3 578.910 17.7168   4
   1   9   3 586.698 17.6391   1
  -1   9  -3 575.550 17.2956   7
   3  -9   3 154.460 5.69465   6
  -3  -9  -3 160.026 8.10510   2
  -3  -9  -3 142.421 7.86778   1
   3   9   3 153.501 9.03673   1
  -3   9  -3 172.399 9.02815   7
   3   9   3 147.408 7.71251  11
  -3   9  -3 151.668 8.65880   4
  -3   9  -3 139.765 7.00168   3
  -5  -9  -3 628.324 17.9802  14
   5  -9   3 689.389 15.3029   6
  -5  -9  -3 677.115 19.8935   2
   5   9   3 654.382 21.7299   1
   5   9   3 632.689 19.4355  11
  -5   9  -3 692.739 19.5599   5
  -5   9  -3 692.758 19.3402   3
   8 -10  -3 4.98706 2.11450   1
  -8 -10   3 7.96040 2.89363   8
   8 -10  -3 3.14661 1.89029   6
   8  10  -3 0.36845 3.11156  11
   8  10  -3 2.82733 3.07974   1
  -8  10   3 3.26547 2.81907   3
   6 -10  -3 66.0435 4.87096   6
  -6 -10   3 64.9322 4.91910   8
   6 -10  -3 67.6040 5.43188   1
  -6 -10   3 64.8972 6.39677   1
   6  10  -3 67.8673 6.05912  11
  -6  10   3 64.4524 6.04057   3
   6  10  -3 67.8562 6.37244   1
   4 -10  -3 7.40048 2.70687  13
   4 -10  -3 10.9971 2.86347   1
   4 -10  -3 11.9740 2.45646   6
  -4 -10   3 17.7156 3.76519   1
   4  10  -3 8.87535 2.66866   7
  -4  10   3 8.86097 2.81418   3
   4  10  -3 10.0339 2.45763  11
  -2 -10   3 104.703 6.68844   1
   2 -10  -3 104.215 7.31775  13
   2 -10  -3 100.007 5.48846   6
   2 -10  -3 101.971 6.75802   1
  -2 -10   3 98.5177 5.51426   6
   2  10  -3 101.669 6.36707   4
   2  10  -3 94.7849 6.61922   7
   2  10  -3 101.302 6.09776  11
   2  10  -3 102.279 5.73938   3
  -2  10   3 100.483 6.54610   3
   0 -10  -3 7.56092 2.12216   2
   0 -10   3 7.26704 2.01268   6
   0 -10  -3 12.1949 3.18870   1
   0  10  -3 13.8876 3.47834   7
   0  10  -3 10.9125 3.08261   4
   0  10  -3 9.65922 2.32614   3
   0  10   3 9.55221 2.82005   3
   0  10   3 4.49452 2.19521   1
   2 -10   3 0.20633 1.11590   6
  -2 -10  -3 1.41112 1.62269   1
   2 -10   3 6.53657 1.85562   1
  -2 -10  -3 0.87522 1.97657   2
   2  10   3 2.97110 1.79986   1
  -2  10  -3 0.96075 1.74988   7
   2  10   3 1.83984 2.25801  11
  -2  10  -3 1.38939 1.70652   3
  -4 -10  -3 70.4441 6.24322   2
   4 -10   3 66.6057 3.91475   6
  -4  10  -3 70.2637 6.66382   7
   4  10   3 57.7643 6.49585   1
  -4  10  -3 65.5421 5.36214   3
   4  10   3 68.3626 5.60055  11
   6 -10   3 17.4278 2.16644   6
  -6 -10  -3 18.2373 3.63980   2
   6  10   3 17.1853 3.83889  11
   6  10   3 21.7830 4.80312   1
  -6  10  -3 17.4043 4.35079   7
   7 -11  -3 73.9035 5.43389   6
  -7 -11   3 82.1295 6.87855   1
   7 -11  -3 63.7236 5.40205   1
  -7  11   3 65.7804 6.51751   3
   7  11  -3 68.8642 6.17066  11
   5 -11  -3 522.723 16.6472   1
   5 -11  -3 516.016 15.4139   6
  -5 -11   3 527.871 18.1958   1
  -5  11   3 506.351 17.1231   3
   5  11  -3 499.390 16.2557  11
   3 -11  -3 270.341 10.1827   6
  -3 -11   3 270.711 11.9938   1
   3 -11  -3 288.864 11.9860   1
   3 -11  -3 283.084 13.5784  13
  -3  11   3 267.350 11.4523   3
   3  11  -3 280.426 11.7451   7
   3  11  -3 273.426 10.3745   3
   3  11  -3 288.273 11.1383  11
  -1 -11   3 1133.93 28.0673   1
   1 -11  -3 1112.51 29.1532   1
   1  11  -3 1094.94 26.3611   3
  -1  11   3 1102.41 28.1680   3
   1  11  -3 1086.41 28.7147   7
   1 -11   3 451.534 13.3103   6
  -1 -11  -3 439.199 14.5839   2
   1 -11   3 467.659 14.4787   1
  -1 -11  -3 483.555 16.7977   1
   1  11   3 453.748 14.9210  11
  -1  11  -3 454.811 16.3339   7
   1  11   3 429.609 15.5096   3
  -1  11  -3 449.271 14.0758   3
   1  11   3 451.142 15.9948   1
  -3 -11  -3 752.728 21.5592   2
  -3 -11  -3 745.107 22.4327   1
   3 -11   3 764.260 18.4544   6
  -3  11  -3 740.108 22.8188   7
   3  11   3 752.348 23.6489   1
   3  11   3 688.063 20.8899  11
  -3  11  -3 722.087 20.1970   3
  -5 -11  -3 199.314 10.4263   2
   5 -11   3 188.342 7.07041   6
  -5  11  -3 178.961 10.5366   7
   5  11   3 175.826 9.93460  11
   5  11   3 186.362 11.4229   1
   6 -12  -3 23.3547 3.82979   1
  -6 -12   3 23.4771 4.31969   1
   6 -12  -3 23.3663 3.57702   6
   6  12  -3 19.6342 3.81085  11
  -6  12   3 33.4371 5.18007   3
   4 -12  -3 263.795 11.6811   1
   4 -12  -3 253.701 10.3589   6
  -4 -12   3 249.649 12.0859   1
  -4  12   3 249.486 11.3412   3
   4  12  -3 261.129 10.8336   3
   4  12  -3 261.972 11.3432  11
  -2 -12   3 31.9965 4.86697   1
  -2 -12   3 36.8314 3.80800   6
   2 -12  -3 30.4640 4.80820   1
   2  12  -3 28.7124 4.79115   7
  -2  12   3 28.8412 4.30812   3
   2  12  -3 31.3716 4.12974   3
   0 -12  -3 127.026 8.37373   1
   0 -12   3 135.237 7.91161   1
   0 -12   3 122.764 6.75447   6
   0  12   3 122.482 8.30725   3
   0  12  -3 133.507 7.07506   3
   0  12  -3 141.399 9.01215   7
  -2 -12  -3 149.680 9.64562   1
  -2 -12  -3 149.598 8.62821   2
   2 -12   3 149.393 7.49236   1
   2 -12   3 158.133 7.33898   6
   2  12   3 186.113 14.6086   1
   2  12   3 132.010 8.03481  11
  -2  12  -3 151.167 9.37525   7
   2  12   3 141.241 9.20727   3
  -3 -13   3 7.19593 3.29919   1
   3 -13  -3 9.36833 3.28853   1
  -3  13   3 7.96792 2.76752   3
   1 -13  -3 692.146 21.9778   1
  -1 -13   3 705.665 21.5217   1
  -1 -13   3 660.145 19.2464   6
  -1  13   3 706.543 21.8109   3
   1  13  -3 690.678 22.1024   7
   1 -13   3 3.57577 2.37302   1
   1 -13   3 3.37433 2.00645   6
   1  13   3 5.25515 2.49842   3
  -1  13  -3 10.4823 3.31319   7
  12   0  -4 1612.54 37.8890   1
  12   0  -4 1583.73 38.1843  11
  12   0  -4 1617.40 36.5744   6
 -12   0   4 1627.81 38.2709   5
  10   0  -4 84.0095 6.00880   1
 -10   0   4 93.3460 6.24280   5
  10   0  -4 94.5934 5.72972   6
 -10   0   4 90.8209 5.31297   8
  10   0  -4 86.2112 6.27268  11
  -8   0   4 3174.74 60.1862   8
   8   0  -4 3240.65 61.7383  11
   8   0  -4 3023.94 64.2915  13
  -8   0   4 3128.81 62.3750   3
  -8   0   4 3249.04 61.6769   5
   8   0  -4 3110.95 60.9661   6
  -8   0   4 3159.73 60.1775  12
   8   0  -4 3158.66 62.3805   1
   6   0  -4 90.5803 4.73552   1
   6   0  -4 91.1949 4.02825   6
   6   0  -4 92.7728 5.33932  13
  -6   0   4 91.7266 3.80259  12
   6   0  -4 93.8422 4.06528  11
  -6   0   4 85.2976 4.05555   1
  -6   0   4 80.0470 4.07190   3
  -4   0   4 3232.65 70.5068  10
  -4   0   4 3169.47 57.4446  12
   4   0  -4 3079.51 59.7801  14
   4   0  -4 3146.62 59.1521   1
  -4   0   4 3172.10 57.5604   9
  -4   0   4 3202.88 58.8462   1
   4   0  -4 3152.08 57.7755   6
   4   0  -4 3085.35 57.1190  11
  -4   0   4 2958.82 57.4361   3
  -4   0   4 3070.47 57.3384   6
   4   0  -4 3151.06 60.4613  13
   2   0  -4 28.8913 1.89348  14
  -2   0   4 27.8888 1.57342   6
   2   0  -4 26.5383 1.81679   4
   2   0  -4 32.3992 2.49009  13
  -2   0   4 26.6616 1.90889   1
  -2   0   4 27.3446 1.55106   9
   2   0  -4 27.1031 1.86706   1
  -2   0   4 25.6671 2.53839  10
   0   0   4 3074.84 65.0008  10
   0   0  -4 2772.62 51.7204   7
   0   0   4 2768.84 52.1708   9
   0   0   4 2710.78 54.9916   1
   0   0  -4 2841.27 53.6292   2
   0   0  -4 2830.17 52.6363   4
   0   0  -4 2885.04 53.3444  14
   0   0  -4 2852.04 52.8926   8
   0   0   4 2815.33 53.9180   6
   2   0   4 534.134 11.7444  11
  -2   0  -4 565.363 11.7708   7
   2   0   4 567.770 17.5060  10
  -2   0  -4 563.301 13.9892   2
   2   0   4 532.044 11.1494   6
   2   0   4 550.466 12.2838   1
  -2   0  -4 528.416 13.5093   8
  -2   0  -4 555.715 13.3140  14
  -2   0  -4 601.669 14.0720   5
  -2   0  -4 631.935 12.7745   4
   2   0   4 549.339 11.2644   6
   4   0   4 2587.24 47.3170   6
  -4   0  -4 2643.33 51.0056   8
  -4   0  -4 2554.94 50.9903   2
   4   0   4 2537.26 57.1464  10
  -4   0  -4 2495.77 51.3503   5
  -4   0  -4 2552.90 49.8876  14
   4   0   4 2609.39 48.4883   1
   4   0   4 2503.76 48.8501  11
   6   0   4 430.578 10.6837   6
  -6   0  -4 449.248 14.4190   5
  -6   0  -4 418.636 13.2812   2
   6   0   4 435.137 12.5005  11
  -6   0  -4 424.967 13.3636   8
  -8   0  -4 1146.73 28.3342   8
  -8   0  -4 1138.83 29.4661   5
   8   0   4 1161.30 25.0309   6
  11  -1  -4 72.1832 5.71259  11
 -11  -1   4 66.7422 5.12066   8
  11  -1  -4 71.7672 5.84504   1
 -11  -1   4 70.1285 5.80551   5
  11  -1  -4 71.7879 5.37920   6
 -11   1   4 75.3823 5.78182   5
  11   1  -4 86.4594 6.84912  11
  11   1  -4 77.8913 6.32781   1
  11   1  -4 69.1478 5.45906   6
 -11   1   4 75.7109 4.78433   8
   9  -1  -4 19.6386 3.11772   1
  -9  -1   4 19.2485 2.73953   8
   9  -1  -4 17.3314 2.80096  11
  -9  -1   4 18.5823 2.98821   5
   9  -1  -4 17.5142 2.71659   6
   9   1  -4 18.3091 3.36887  11
  -9   1   4 16.3590 3.21916   3
  -9   1   4 17.4341 2.47645   8
  -9   1   4 18.2440 2.82422   5
   9   1  -4 15.4472 3.09869   1
   9   1  -4 15.0093 2.47618   6
   7  -1  -4 531.975 13.1861   6
   7  -1  -4 527.331 16.2437  13
  -7  -1   4 516.158 13.3877   1
   7  -1  -4 530.398 14.1995   1
  -7  -1   4 517.120 12.6690  12
  -7   1   4 529.264 12.5403  12
   7   1  -4 513.516 13.3181   6
  -7   1   4 487.728 13.8932   3
   7   1  -4 524.748 15.6743  13
  -7   1   4 522.433 12.3702   8
   7   1  -4 548.231 14.8597   1
   7   1  -4 540.147 13.5752  11
  -5  -1   4 6.13044 1.03270   6
  -5  -1   4 10.1190 1.61714   1
  -5  -1   4 7.47808 1.23958   9
   5  -1  -4 8.27684 0.82298  14
   5  -1  -4 5.03067 1.36880   1
  -5  -1   4 5.97763 1.12502  12
   5  -1  -4 8.83212 2.08665  13
   5  -1  -4 6.60144 1.20096   6
   5   1  -4 7.22876 1.19041   4
   5   1  -4 10.3728 0.83102  14
   5   1  -4 7.01439 1.34801   6
  -5   1   4 6.65213 1.38121   3
   5   1  -4 7.93585 1.93603  13
  -5   1   4 6.91863 1.37457   1
   5   1  -4 6.77658 1.60301   1
   5   1  -4 7.34336 1.29732  11
  -5   1   4 7.77816 1.09523  12
  -5   1   4 8.18766 1.24125   9
   3  -1  -4 303.383 6.76924   2
  -3  -1   4 309.559 9.85631  10
   3  -1  -4 284.140 7.15979   6
   3  -1  -4 307.046 7.37158  14
  -3  -1   4 299.890 6.89103   9
  -3  -1   4 287.857 7.94439   1
  -3  -1   4 288.361 7.10993   6
  -3  -1   4 289.907 7.03475  12
   3  -1  -4 294.393 8.10216   1
   3  -1  -4 309.495 9.17063  13
   3   1  -4 308.524 9.15207  13
  -3   1   4 298.928 10.0201  10
  -3   1   4 297.498 7.12362   6
  -3   1   4 302.441 8.02325   1
  -3   1   4 298.105 7.20560   9
  -3   1   4 298.843 7.00656  12
  -3   1   4 292.215 6.97640   3
   3   1  -4 298.023 7.43181  14
   3   1  -4 299.399 6.54923  11
   3   1  -4 299.103 8.05790   1
   3   1  -4 301.214 7.57927   4
   1  -1  -4 314.914 8.58844  13
   1  -1  -4 317.241 7.64678   8
   1  -1  -4 334.807 8.14170   2
  -1  -1   4 322.913 7.80402   1
  -1  -1   4 314.967 7.32732  12
  -1  -1   4 316.290 7.01618   6
  -1  -1   4 323.604 10.0516  10
   1  -1  -4 309.556 7.83909   1
  -1  -1   4 310.797 7.06172   9
   1  -1  -4 315.171 7.99263  14
   1   1  -4 312.220 7.91466   4
  -1   1   4 308.062 7.42767   9
   1   1  -4 304.538 7.52759   7
   1   1  -4 300.925 7.29570   1
  -1   1   4 310.846 7.30797   6
  -1   1   4 314.499 8.11008   1
  -1   1   4 311.674 7.25094  12
   1   1  -4 308.608 8.12675   2
   1   1  -4 309.938 10.1087  10
  -1   1   4 322.854 10.3386  10
   1   1  -4 316.838 8.26167  14
  -1  -1  -4 101.266 4.36020   2
   1  -1   4 104.252 3.36370   1
   1  -1   4 102.105 2.49212   6
  -1  -1  -4 102.863 4.07061  14
   1  -1   4 96.6972 5.64712  10
  -1  -1  -4 99.5361 3.54270   4
   1  -1   4 97.3015 2.45376   6
  -1  -1  -4 96.9594 4.12197   8
   1   1   4 100.217 2.97191  11
  -1   1  -4 102.520 4.33918  14
   1   1   4 100.232 5.93964  10
   1   1   4 105.970 3.32245   6
   1   1   4 111.880 4.07026   1
  -1   1  -4 100.984 3.86338   4
  -1   1  -4 106.457 4.52382   2
  -1   1  -4 96.2296 3.41593   7
  -1   1  -4 97.4418 4.08501   8
  -1   1  -4 98.8334 4.30656   5
   1   1   4 98.5744 3.77079   9
  -3  -1  -4 367.187 11.0577   5
   3  -1   4 398.305 7.73872   6
   3  -1   4 402.908 9.11368   1
  -3  -1  -4 411.539 11.6225   2
   3  -1   4 407.147 7.77434   6
  -3  -1  -4 391.675 9.47451   4
  -3  -1  -4 430.632 11.5242   8
   3  -1   4 398.586 14.6481  10
  -3  -1  -4 401.036 10.6336  14
   3  -1   4 397.887 9.66605  11
  -3   1  -4 413.519 11.1376  14
   3   1   4 400.170 10.3116   1
  -3   1  -4 436.181 10.5700   4
  -3   1  -4 419.954 9.92436   7
   3   1   4 417.012 9.51414   6
  -3   1  -4 401.976 11.7968   5
  -3   1  -4 418.026 11.7340   2
   3   1   4 420.494 15.4324  10
  -3   1  -4 417.124 11.4543   8
   3   1   4 413.187 9.95904  11
  -5  -1  -4 0.61139 1.54786   8
   5  -1   4 2.53978 1.46195  11
   5  -1   4 3.30965 2.33584  10
   5  -1   4 3.58856 0.79640   6
  -5  -1  -4 5.07413 2.01799   5
  -5  -1  -4 3.42420 1.37187  14
  -5  -1  -4 4.12299 1.82539   2
   5   1   4 2.64473 1.14347   1
   5   1   4 7.55480 1.91287  11
  -5   1  -4 2.84452 1.33385   2
  -5   1  -4 3.39360 1.98599   5
  -5   1  -4 3.99733 1.52248   8
  -5   1  -4 5.28541 1.57152  14
   5   1   4 1.44052 1.12511   6
   7  -1   4 40.0114 3.91906  11
   7  -1   4 32.9977 2.53665   6
  -7  -1  -4 37.0009 4.23951   8
  -7  -1  -4 30.9435 4.10764   5
  -7  -1  -4 33.7588 4.00861   2
  -7   1  -4 28.2838 4.40387   5
   7   1   4 33.5750 3.04090   6
   7   1   4 39.2188 4.41819  11
  -7   1  -4 28.8089 3.66185   2
  -7   1  -4 32.8942 4.15516   8
  -9  -1  -4 59.4846 5.86189   8
   9  -1   4 68.7332 4.09580   6
  -9  -1  -4 65.9767 6.32498   5
  -9   1  -4 67.8297 5.32006   8
   9   1   4 68.2975 4.64510   6
  12  -2  -4 119.016 7.48399  11
  12  -2  -4 108.420 7.06928   1
  12  -2  -4 114.995 6.73786   6
 -12  -2   4 118.396 7.11831   8
  12   2  -4 130.979 8.41519   1
 -12   2   4 107.330 7.53863   5
  12   2  -4 109.575 8.38981  11
  12   2  -4 112.804 6.85402   6
  10  -2  -4 321.018 11.6460   1
 -10  -2   4 341.879 11.9366   5
  10  -2  -4 344.396 12.1117  11
 -10  -2   4 327.229 11.2097   8
  10  -2  -4 352.231 11.2749   6
  10   2  -4 319.951 12.6175   1
  10   2  -4 332.761 12.5413  11
 -10   2   4 328.831 12.4534   5
 -10   2   4 332.845 12.9182   3
  10   2  -4 324.622 11.5766   6
  -8  -2   4 323.012 9.92695   5
   8  -2  -4 309.980 12.6118  13
   8  -2  -4 316.419 10.4911   1
  -8  -2   4 302.834 9.60401   8
   8  -2  -4 336.028 9.87591   6
  -8  -2   4 323.955 9.64399  12
  -8   2   4 317.219 10.3814   5
  -8   2   4 332.495 9.29314  12
  -8   2   4 317.868 8.81637   8
   8   2  -4 277.984 11.1504  13
   8   2  -4 318.674 11.3933   1
  -8   2   4 322.820 11.1295   3
   8   2  -4 321.396 10.2109   6
   8   2  -4 321.851 10.5809  11
  -6  -2   4 2273.37 45.6868   1
   6  -2  -4 2329.66 48.6339  13
   6  -2  -4 2368.56 46.2344   1
   6  -2  -4 2386.19 44.8361   6
  -6  -2   4 2359.84 44.3215  12
   6   2  -4 2235.89 44.8330   6
   6   2  -4 2315.38 44.8723  11
   6   2  -4 2341.11 47.7466  13
   6   2  -4 2265.26 43.8070   4
  -6   2   4 2326.40 44.7005   9
  -6   2   4 2321.98 46.0339   3
   6   2  -4 2332.03 46.8673   1
  -6   2   4 2315.78 43.7502  12
  -6   2   4 2289.89 44.6707   1
   4  -2  -4 1919.15 39.0512  13
  -4  -2   4 1872.05 37.3237   1
  -4  -2   4 1886.58 35.4311   9
  -4  -2   4 1900.55 35.9041   6
   4  -2  -4 1870.81 36.1922   6
   4  -2  -4 1914.73 35.7118  14
   4  -2  -4 1910.38 37.5018   1
  -4  -2   4 1899.91 35.7952  12
  -4   2   4 1921.09 40.6547  10
   4   2  -4 1852.11 35.5838  14
   4   2  -4 1905.71 36.3644   4
   4   2  -4 1891.61 37.5748   1
   4   2  -4 1838.02 35.9430   6
  -4   2   4 1899.54 36.0834   9
  -4   2   4 1879.45 36.8364   1
   4   2  -4 1901.05 35.7359  11
  -4   2   4 1876.47 36.4745   3
  -4   2   4 1884.77 35.4232  12
   4   2  -4 1927.41 39.0021  13
  -2  -2   4 8210.27 162.732   1
  -2  -2   4 8141.81 168.699  10
   2  -2  -4 8330.09 156.041  14
  -2  -2   4 8197.62 156.496   6
  -2  -2   4 8295.01 153.624   9
   2  -2  -4 7874.03 158.576   2
  -2  -2   4 8445.29 156.875  12
   2  -2  -4 8028.71 163.715   1
   2  -2  -4 8288.12 156.910   6
   2  -2  -4 8618.26 171.069  13
   2   2  -4 8353.17 168.859  10
  -2   2   4 8303.86 156.221   3
   2   2  -4 8079.74 157.910  14
   2   2  -4 8256.43 160.945   1
   2   2  -4 8348.30 152.601  11
   2   2  -4 8167.69 159.067   4
  -2   2   4 8452.96 156.651  12
  -2   2   4 8251.15 164.470   1
  -2   2   4 8599.62 178.072  10
   2   2  -4 7840.66 161.299   7
  -2   2   4 8230.16 157.285   9
  -2   2   4 8289.29 157.435   6
   0  -2   4 1313.62 25.8756   1
   0  -2  -4 1356.28 27.2766   2
   0  -2   4 1353.82 25.9558  12
   0  -2  -4 1404.55 27.0364  13
   0  -2   4 1372.33 29.6334  10
   0  -2  -4 1377.56 27.0591  14
   0  -2   4 1401.49 24.9920   6
   0  -2   4 1350.96 25.5537   9
   0  -2   4 1315.58 24.8927   6
   0  -2  -4 1328.67 26.6386   1
   0  -2  -4 1309.42 26.5081   8
   0   2  -4 1397.61 26.8808   8
   0   2   4 1381.61 30.6486  10
   0   2  -4 1356.62 27.5654   2
   0   2   4 1337.92 26.3837   9
   0   2  -4 1337.21 27.5909  14
   0   2  -4 1329.50 26.4222   7
   0   2  -4 1312.11 25.0158   3
   0   2  -4 1334.93 27.0530   4
   0   2   4 1344.66 27.2197   1
   0   2   4 1351.41 26.1155   6
   0   2   4 1360.30 25.1329  11
   2  -2   4 3745.85 74.6369  10
  -2  -2  -4 3748.74 69.8670  14
  -2  -2  -4 3616.64 68.2334   4
  -2  -2  -4 3789.24 70.8303   2
  -2  -2  -4 3690.17 70.2379   8
   2  -2   4 3643.52 70.7829   1
  -2   2  -4 3838.25 69.4222   7
   2   2   4 3861.94 76.3260  10
  -2   2  -4 3842.78 70.7184  14
  -2   2  -4 3741.78 71.0089   2
  -2   2  -4 3770.79 70.1928   8
   2   2   4 3674.33 71.5974   6
   2   2   4 3855.46 69.8193   9
   2   2   4 3644.83 68.5535  11
  -2   2  -4 3667.97 69.0567   3
   2   2   4 3838.74 75.0372   1
  -2   2  -4 3626.81 70.8816   5
  -2   2  -4 3734.87 69.9769   4
  -4  -2  -4 83.3965 4.79175   5
  -4  -2  -4 93.9551 5.18984   8
   4  -2   4 91.4033 6.99947  10
  -4  -2  -4 86.9526 4.37936  14
  -4  -2  -4 94.4348 5.18667   2
   4   2   4 85.6847 4.50486   1
  -4   2  -4 97.2109 4.40982   7
  -4   2  -4 102.303 5.15214   8
   4   2   4 91.0684 4.44293  11
  -4   2  -4 92.8945 4.76345  14
  -4   2  -4 90.1726 4.28778   4
   4   2   4 91.1959 4.08748   6
   4   2   4 92.6562 7.46109  10
  -4   2  -4 90.9333 4.69484   3
  -4   2  -4 93.0181 5.40627   5
  -4   2  -4 93.6329 5.11285   2
   6  -2   4 796.398 15.6659   6
  -6  -2  -4 748.692 20.2614   5
  -6  -2  -4 787.201 20.4679   8
  -6  -2  -4 786.391 20.5491   2
   6   2   4 739.679 19.2829  11
   6   2   4 776.944 18.3888   6
  -6   2  -4 803.813 21.8080   5
   6   2   4 779.709 19.2738   1
  -6   2  -4 801.307 20.1424   8
   8  -2   4 22.5914 2.20014   6
  -8  -2  -4 17.3840 3.64204   8
  -8  -2  -4 19.8305 3.87709   5
  -8  -2  -4 23.1338 3.82409   2
  -8   2  -4 20.5998 3.33890   8
   8   2   4 19.9749 2.83974   6
  -8   2  -4 21.6563 4.01692   5
  11  -3  -4 11.0126 2.65232   6
  11  -3  -4 7.92015 2.57013  11
 -11  -3   4 7.61637 2.75461   8
  11  -3  -4 15.2700 3.10738   1
 -11   3   4 11.0523 3.13047   3
  11   3  -4 7.88635 2.19957   6
 -11   3   4 11.2365 3.52964   5
  11   3  -4 11.3216 3.54194   1
  11   3  -4 11.4691 3.78877  11
   9  -3  -4 67.4434 6.16541  13
  -9  -3   4 79.0689 4.75157   8
  -9  -3   4 72.3138 4.74089   5
   9  -3  -4 70.3681 5.03263   1
   9  -3  -4 71.8686 4.35711   6
   9   3  -4 70.9043 5.30280  11
   9   3  -4 66.7651 5.71024   1
  -9   3   4 70.8299 5.70648   3
  -9   3   4 67.3504 5.32850   5
   9   3  -4 72.6572 5.10311   6
   7  -3  -4 88.6658 4.96429   1
  -7  -3   4 78.7470 4.00410   5
   7  -3  -4 85.9984 4.28472   6
   7  -3  -4 84.3387 6.37028  13
  -7  -3   4 82.9762 4.65436   1
  -7  -3   4 86.1077 4.14824  12
  -7   3   4 88.6980 5.13257   3
  -7   3   4 84.7642 4.77081   5
  -7   3   4 91.4237 3.51072   8
   7   3  -4 81.0979 4.46877   6
   7   3  -4 83.7889 5.24594   1
  -7   3   4 85.3238 3.81261  12
   7   3  -4 87.9398 4.74396  11
  -5  -3   4 79.1881 3.37638   6
  -5  -3   4 83.4361 3.46775  12
  -5  -3   4 92.7320 4.47007   1
   5  -3  -4 82.3748 5.32943  13
   5  -3  -4 86.7060 3.79964   6
   5  -3  -4 83.8117 4.34409   1
   5   3  -4 84.1710 3.60603   4
  -5   3   4 83.4838 3.14734  12
   5   3  -4 88.6425 3.83361   6
  -5   3   4 80.8967 3.78001   1
   5   3  -4 81.4054 4.61456   1
  -5   3   4 88.7802 4.35963   3
   5   3  -4 80.1178 3.68538  11
  -5   3   4 83.4278 3.64249   9
   3  -3  -4 166.345 4.30540   2
  -3  -3   4 161.765 4.12229   9
  -3  -3   4 160.252 5.62604   1
  -3  -3   4 166.337 4.97163   6
   3  -3  -4 166.237 6.59038  13
  -3  -3   4 166.366 4.73858  12
   3  -3  -4 163.570 5.10079   6
  -3  -3   4 172.081 6.85805  10
   3  -3  -4 164.963 5.89505   1
  -3   3   4 159.516 5.17459   3
   3   3  -4 166.323 5.55239   4
  -3   3   4 167.149 5.08366   9
   3   3  -4 166.901 5.39799  14
   3   3  -4 164.438 5.68855   1
   3   3  -4 171.156 4.76277  11
  -3   3   4 170.978 4.53366  12
   3   3  -4 191.150 5.93002   7
  -3   3   4 161.284 4.73482   6
  -3   3   4 167.975 7.32077  10
  -3   3   4 168.957 5.72204   1
  -1  -3   4 316.843 9.49191  10
  -1  -3   4 309.024 7.28315  12
  -1  -3   4 297.828 7.82356   1
   1  -3  -4 302.482 8.49481   1
   1  -3  -4 313.482 8.71663  13
   1  -3  -4 303.761 8.04319   2
  -1  -3   4 305.912 7.08790   6
  -1  -3   4 304.874 6.52127   9
   1  -3  -4 306.842 7.40202   8
   1   3  -4 315.810 6.93205  11
  -1   3   4 301.359 7.69394   9
   1   3  -4 311.127 8.22155   7
  -1   3   4 316.592 8.69969   1
   1   3  -4 298.227 8.71919  10
  -1   3   4 313.539 7.74030   6
   1   3  -4 305.692 8.71587  14
  -1   3   4 306.615 7.14113  12
   1   3  -4 335.070 8.73322   2
   1   3  -4 318.710 8.71038   4
  -1   3   4 307.354 7.08609  11
  -1   3   4 306.217 10.4955  10
  -1  -3  -4 16.4708 2.14328   2
  -1  -3  -4 19.9121 2.01081   8
  -1  -3  -4 21.0295 1.65955  13
   1  -3   4 18.6399 2.70211  10
   1  -3   4 21.9968 1.30995   1
  -1  -3  -4 19.1692 2.02051  14
   1   3   4 17.3624 3.07744  10
  -1   3  -4 27.3440 2.20710   7
  -1   3  -4 18.2225 2.36548   2
   1   3   4 18.7932 1.81122   6
  -1   3  -4 18.4555 1.57747   3
   1   3   4 21.6982 1.87312   9
   1   3   4 20.2861 1.59695  11
  -1   3  -4 19.6785 2.02254   5
  -1   3  -4 22.1364 2.21102  14
   1   3   4 19.4693 2.20396   1
  -1   3  -4 23.3999 2.35419   4
  -1   3  -4 17.9869 2.02092   8
  -3  -3  -4 274.841 8.34550  14
   3  -3   4 264.369 11.4330  10
  -3  -3  -4 278.855 9.11859   2
  -3  -3  -4 274.541 8.89625   8
  -3   3  -4 278.579 8.73061   4
   3   3   4 264.116 7.96029  11
  -3   3  -4 279.587 8.23703   3
  -3   3  -4 269.502 9.03028   2
   3   3   4 277.480 12.6727  10
  -3   3  -4 284.032 8.80451   8
  -3   3  -4 280.117 9.02956  14
  -3   3  -4 270.529 9.46456   5
   3   3   4 280.808 8.09137   6
   3   3   4 273.579 8.51782   9
   3   3   4 280.931 9.06129   1
  -3   3  -4 272.567 8.34683   7
  -5  -3  -4 2.33921 1.50320   8
  -5  -3  -4 0.24434 1.33991  14
  -5  -3  -4 4.40664 2.03028   2
   5  -3   4 2.35966 2.09502  10
  -5  -3  -4 0.92537 1.41304   5
  -5   3  -4 0.58701 1.37798   2
   5   3   4 1.90953 1.35975   6
  -5   3  -4 -0.6201 1.31520   3
  -5   3  -4 1.00378 1.52518   4
  -5   3  -4 -0.0147 1.38816   8
   5   3   4 1.13974 2.59648  10
   5   3   4 0.58692 1.52721  11
  -5   3  -4 0.44563 1.38062   7
  -5   3  -4 -0.1774 1.66365   5
  -5   3  -4 4.41321 1.62798  14
   5   3   4 1.08993 1.39671   1
   7  -3   4 13.1585 1.37752   6
  -7  -3  -4 11.4058 2.93439   2
   7  -3   4 6.42228 2.53681  11
  -7  -3  -4 9.01370 2.86489   5
  -7  -3  -4 7.71200 2.83599   8
   7   3   4 5.43308 2.62810  11
   7   3   4 9.58316 2.40590   1
  -7   3  -4 13.9840 3.50046   5
   7   3   4 6.78641 2.30832   6
  -7   3  -4 12.9336 2.57699   8
  10  -4  -4 1374.63 37.9482  13
  10  -4  -4 1482.78 32.2633   6
 -10  -4   4 1474.20 33.2300   8
  10  -4  -4 1502.79 33.6603   1
  10   4  -4 1459.22 35.2040  11
  10   4  -4 1471.59 36.3368   1
 -10   4   4 1435.44 34.7995   5
 -10   4   4 1549.26 35.7526   3
   8  -4  -4 199.577 7.33199   6
  -8  -4   4 205.110 7.75875   8
   8  -4  -4 195.408 8.02420   1
   8  -4  -4 193.567 10.3495  13
  -8  -4   4 207.310 8.32896   1
  -8  -4   4 202.827 7.53776  12
   8   4  -4 197.781 9.40019   1
  -8   4   4 192.892 8.31414   5
  -8   4   4 218.086 9.01989   3
   8   4  -4 202.070 8.56420  11
   8   4  -4 209.677 8.20244   6
   6  -4  -4 2556.28 48.8719   6
   6  -4  -4 2581.43 50.3103   1
   6  -4  -4 2524.63 53.7820  13
  -6  -4   4 2535.96 50.6959   1
  -6  -4   4 2511.92 48.4224  12
   6   4  -4 2544.12 51.5994   1
   6   4  -4 2454.90 49.0592   6
  -6   4   4 2518.49 48.8071   9
   6   4  -4 2563.75 49.5056  11
  -6   4   4 2541.53 47.3758  12
  -6   4   4 2513.31 50.5055   3
   4  -4  -4 18.9381 2.98887  13
  -4  -4   4 15.4267 1.68155   6
  -4  -4   4 16.3283 2.17950   1
   4  -4  -4 22.3659 2.42343   1
  -4  -4   4 14.9412 1.61380  12
  -4   4   4 15.4565 1.78115   9
  -4   4   4 17.4817 1.81272   1
  -4   4   4 17.8783 1.31281  12
   4   4  -4 16.8699 2.32003   1
  -4   4   4 16.2264 2.79953  10
   4   4  -4 17.2493 1.95830  11
   4   4  -4 17.8087 2.15334   4
  -4   4   4 18.8059 2.20229   3
  -2  -4   4 3150.87 58.3778  12
  -2  -4   4 3177.49 60.0405   1
   2  -4  -4 3279.65 61.4924  13
   2  -4  -4 3153.06 60.7493   1
  -2  -4   4 3197.66 58.8987   6
   2  -4  -4 3185.52 58.9471   2
  -2  -4   4 3104.34 64.7002  10
   2  -4  -4 3164.77 59.1656   6
  -2   4   4 3178.77 59.1263   9
   2   4  -4 3131.84 60.2589  10
   2   4  -4 3130.09 57.8511   3
  -2   4   4 3206.23 60.6029   1
   2   4  -4 3214.97 60.4594  14
   2   4  -4 3289.12 58.6852  11
   2   4  -4 3291.70 60.6584   4
   2   4  -4 3161.22 59.4793   1
   2   4  -4 3262.01 60.2825   7
  -2   4   4 3073.31 58.8447   6
  -2   4   4 3229.11 59.6523   3
  -2   4   4 3182.20 58.0074  12
  -2   4   4 3209.35 63.2670  10
   0  -4   4 14.5246 0.97794   9
   0  -4   4 10.4292 1.21793   1
   0  -4  -4 14.1035 1.93413   1
   0  -4  -4 8.41834 1.44272   2
   0  -4   4 11.0893 1.95767  10
   0  -4  -4 8.49180 1.37910  13
   0  -4  -4 10.4638 1.45539   8
   0  -4   4 8.39763 0.96572   6
   0  -4   4 10.6362 1.24478  12
   0   4   4 10.0785 1.54139   9
   0   4  -4 9.81470 1.20760   3
   0   4   4 11.0438 1.91640   1
   0   4   4 12.0403 1.36576  11
   0   4  -4 11.6860 2.09712   4
   0   4  -4 11.3796 1.67209   7
   0   4   4 13.9661 1.69199   6
   0   4   4 9.47413 2.26079  10
   0   4  -4 10.5484 1.92600  14
   2  -4   4 3256.35 60.8856   1
  -2  -4  -4 3370.57 63.9000  14
   2  -4   4 3334.37 67.4689  10
  -2  -4  -4 3418.15 64.6753   2
  -2  -4  -4 3318.35 64.0153   8
   2   4   4 3452.05 70.4779  10
  -2   4  -4 3384.35 65.1746  14
   2   4   4 3315.64 62.9804  11
   2   4   4 3346.64 63.5202   9
   2   4   4 3353.97 65.2148   1
   2   4   4 3410.96 63.5047   6
  -2   4  -4 3458.16 64.3331   7
  -2   4  -4 3336.10 63.1002   3
  -2   4  -4 3385.80 64.9583   2
  -2   4  -4 3361.39 64.9548   5
  -2   4  -4 3345.10 63.7349   8
  -2   4  -4 3390.12 64.8852   4
   4  -4   4 129.114 8.26881  10
  -4  -4  -4 143.753 5.98164  14
  -4  -4  -4 143.392 6.83993   2
  -4  -4  -4 142.456 6.69544   8
  -4   4  -4 159.117 6.32064   3
  -4   4  -4 154.049 6.80567  14
   4   4   4 133.284 5.88500   6
  -4   4  -4 147.631 6.65598   2
   4   4   4 137.086 6.38101   9
   4   4   4 139.333 6.70185   1
   4   4   4 133.986 6.07345  11
  -4   4  -4 142.655 6.40108   7
  -4   4  -4 146.252 6.51053   4
  -4   4  -4 142.729 6.18342   8
  -4   4  -4 139.425 7.21042   5
   4   4   4 135.437 9.55532  10
  -6  -4  -4 1978.51 43.5913   2
  -6  -4  -4 2025.92 43.5622   8
   6   4   4 2055.20 43.6549   1
  -6   4  -4 1999.95 44.7563   5
  -6   4  -4 2020.90 42.2225   8
  -6   4  -4 2099.82 43.2237   3
   6   4   4 1936.88 42.5442  11
   6   4   4 1988.94 42.0504   6
  -8  -4  -4 134.749 8.08956   8
  -8  -4  -4 121.902 7.41746   2
   8  -4   4 115.151 3.94041   6
   8   4   4 119.727 7.17523   9
   8   4   4 118.481 6.77262   6
  -8   4  -4 115.754 7.77938   5
  11  -5  -4 25.4793 3.71805   1
 -11  -5   4 19.8958 3.75752   8
  11  -5  -4 23.5890 3.47537   6
  11   5  -4 20.5297 4.28304   1
 -11   5   4 20.0809 3.85028   5
  11   5  -4 22.3554 4.36960  11
 -11   5   4 20.2235 4.16866   3
   9  -5  -4 162.455 7.61668   1
  -9  -5   4 155.449 7.53633   8
   9  -5  -4 168.465 7.06229   6
   9  -5  -4 153.044 10.2002  13
   9   5  -4 154.085 9.11739   1
   9   5  -4 157.286 8.61659  11
  -9   5   4 162.298 8.64976   3
  -9   5   4 169.738 8.49430   5
  -7  -5   4 18.3607 2.48335  12
   7  -5  -4 18.8974 2.45948   6
  -7  -5   4 17.9652 2.66569   8
  -7  -5   4 17.1699 2.90464   1
   7  -5  -4 19.5098 2.80312   1
   7  -5  -4 19.6868 3.70134  13
   7   5  -4 26.3520 3.38320   7
   7   5  -4 15.7148 2.92399  11
   7   5  -4 21.8778 3.37932   1
  -7   5   4 22.5769 3.37442   3
  -7   5   4 18.0462 2.76800   5
   5  -5  -4 618.494 15.6201   1
  -5  -5   4 591.538 13.9596   6
   5  -5  -4 592.096 14.3322   6
  -5  -5   4 602.811 15.9115   1
   5  -5  -4 605.733 17.8303  13
  -5  -5   4 586.384 13.5362  12
   5   5  -4 592.918 14.5101  11
  -5   5   4 606.140 14.1247   9
   5   5  -4 595.356 14.1651   4
   5   5  -4 586.737 15.2309   7
  -5   5   4 602.090 15.2695   3
  -5   5   4 569.117 14.0522   1
   5   5  -4 598.354 16.0772   1
  -5   5   4 607.131 12.5077  12
  -3  -5   4 297.174 9.07767   1
   3  -5  -4 290.717 10.1044  13
   3  -5  -4 281.597 7.12188   2
  -3  -5   4 288.077 7.23260  12
  -3  -5   4 297.309 7.96357   6
   3  -5  -4 293.357 8.08806   6
   3  -5  -4 287.930 9.15643   1
  -3   5   4 287.281 10.3234  10
   3   5  -4 286.763 8.63445   1
   3   5  -4 287.245 8.93308   4
  -3   5   4 282.178 6.58998  12
  -3   5   4 295.881 8.83950   1
  -3   5   4 287.933 7.78236   9
   3   5  -4 301.376 9.01071   7
   3   5  -4 288.070 7.88730  11
  -3   5   4 289.648 8.60229   3
  -1  -5   4 371.760 8.67109   6
  -1  -5   4 351.114 9.45268   1
  -1  -5   4 348.146 9.50153  10
   1  -5  -4 357.959 10.4342   1
   1  -5  -4 341.262 8.86046   6
  -1  -5   4 347.292 8.14181  12
   1  -5  -4 340.390 8.08093   8
   1  -5  -4 363.811 10.2973  13
   1  -5  -4 361.059 9.37712   2
  -1   5   4 350.340 10.3345   1
  -1   5   4 348.870 9.05035   6
   1   5  -4 367.712 10.6786   4
   1   5  -4 363.998 10.6017  14
   1   5  -4 367.487 10.1671   7
   1   5  -4 351.180 8.30269   3
  -1   5   4 347.680 8.97074  11
  -1   5   4 354.007 9.02480   9
  -1   5   4 339.178 7.91021  12
   1   5  -4 354.516 8.73521  11
  -1   5   4 349.073 11.7558  10
   1  -5   4 1089.32 24.9349  10
   1  -5   4 1090.61 21.9401   1
  -1  -5  -4 1091.43 24.0564   1
  -1  -5  -4 1099.98 23.9540   2
  -1  -5  -4 1066.42 22.9575   8
   1  -5   4 1101.28 20.9375   6
   1  -5   4 1086.56 21.7655  12
  -1  -5  -4 1094.04 22.3885  13
  -1   5  -4 1102.11 22.6016   3
   1   5   4 1117.68 23.1524   9
  -1   5  -4 1108.54 23.9020   5
  -1   5  -4 1131.76 25.0358   4
  -1   5  -4 1104.50 24.2877   7
   1   5   4 1072.80 22.7921  11
   1   5   4 1111.64 27.8669  10
  -1   5  -4 1086.59 24.9512  14
   1   5   4 1097.05 23.2197   6
   1   5   4 1109.27 25.0681   1
   3  -5   4 144.195 9.12307  10
  -3  -5  -4 154.225 6.60811   8
  -3  -5  -4 167.882 7.20210   2
  -3  -5  -4 150.417 6.29106  14
   3   5   4 151.507 6.29288   6
  -3   5  -4 168.055 7.43491   5
  -3   5  -4 153.832 6.82078   7
   3   5   4 163.797 6.37018   9
  -3   5  -4 156.195 6.08995   3
  -3   5  -4 164.695 7.27985  14
  -3   5  -4 164.950 7.24486   4
  -3   5  -4 154.416 6.90966   2
  -3   5  -4 159.581 6.16550   8
   3   5   4 155.510 7.27756   1
   3   5   4 144.084 6.16567  11
   5  -5   4 513.996 16.3039  13
  -5  -5  -4 511.296 15.6126   2
  -5  -5  -4 508.427 15.2852   8
  -5  -5  -4 499.322 13.9013  14
  -5   5  -4 515.823 15.1260  14
   5   5   4 491.337 14.6255  11
  -5   5  -4 521.497 14.9795   4
  -5   5  -4 501.889 16.0737   5
  -5   5  -4 519.540 14.9791   2
   5   5   4 513.781 14.6989   6
  -5   5  -4 524.513 14.7120   3
   5   5   4 504.932 14.7685   9
  -5   5  -4 510.499 14.2368   8
  -5   5  -4 527.899 15.1687   7
   5   5   4 507.690 15.9625   1
  -7  -5  -4 168.919 9.02343   2
  -7  -5  -4 155.352 8.34174   8
   7  -5   4 168.358 4.04755   6
   7   5   4 174.470 9.00251   1
   7   5   4 170.106 8.54440   9
  -7   5  -4 169.626 9.50108   5
  -7   5  -4 171.666 8.50500   3
   7   5   4 164.758 8.12162   6
  10  -6  -4 11.9642 2.69970   1
 -10  -6   4 12.7886 2.89078   8
  10  -6  -4 15.5298 2.88046   6
 -10   6   4 7.22627 3.02416   5
  10   6  -4 13.0221 4.15880  11
 -10   6   4 12.7768 3.60336   3
  10   6  -4 10.6300 3.71751   1
   8  -6  -4 1192.59 27.8219   1
  -8  -6   4 1200.98 27.6759   8
   8  -6  -4 1181.58 33.0567  13
   8  -6  -4 1243.79 26.9578   6
  -8  -6   4 1207.44 29.1565   1
   8   6  -4 1219.59 29.0367  11
  -8   6   4 1210.34 28.5242   5
  -8   6   4 1237.47 29.8015   3
   8   6  -4 1193.14 30.7885   1
   8   6  -4 1155.78 27.9778   7
   6  -6  -4 169.008 7.32134   1
   6  -6  -4 167.962 9.37775  13
  -6  -6   4 171.691 6.13471  12
  -6  -6   4 159.249 7.46958   1
   6  -6  -4 178.958 6.70437   6
  -6   6   4 183.098 7.09080   5
  -6   6   4 168.276 7.40464   3
  -6   6   4 164.750 6.29507   9
   6   6  -4 162.298 7.04733   7
   6   6  -4 160.420 7.99075   1
   6   6  -4 157.550 6.97224  11
  -4  -6   4 3418.57 66.8835   1
  -4  -6   4 3358.09 64.7583   6
   4  -6  -4 3454.24 66.7228   1
  -4  -6   4 3301.75 63.4465  12
   4  -6  -4 3544.60 69.6360  13
   4   6  -4 3403.19 65.5928   4
  -4   6   4 3326.07 65.1903   1
   4   6  -4 3452.76 66.7401   1
  -4   6   4 3486.05 64.4449   9
   4   6  -4 3517.56 66.3986   7
  -4   6   4 3453.45 66.0615   3
   4   6  -4 3480.57 65.0527  11
  -2  -6   4 561.957 14.5598   1
  -2  -6   4 568.844 12.1897  12
   2  -6  -4 580.199 15.7702  13
   2  -6  -4 541.765 13.4607   6
  -2  -6   4 579.790 13.4237   6
   2  -6  -4 562.435 13.1768   2
   2  -6  -4 577.752 15.2987   1
  -2   6   4 566.935 16.1801  10
  -2   6   4 574.267 13.2999   9
   2   6  -4 567.644 12.8380   3
   2   6  -4 589.061 15.1965   4
   2   6  -4 578.662 13.4638  11
  -2   6   4 579.333 14.4214   3
   2   6  -4 582.179 14.8477   7
  -2   6   4 584.645 14.9955   1
   0  -6   4 3572.67 67.7478   1
   0  -6  -4 3531.18 66.7890   8
   0  -6  -4 3639.67 69.9060   1
   0  -6  -4 3593.58 68.4670  13
   0  -6  -4 3657.20 68.6818   2
   0  -6   4 3724.24 66.6815   6
   0   6   4 3711.38 67.7148   9
   0   6   4 3509.65 67.8304   6
   0   6   4 3651.04 72.5945  10
   0   6  -4 3660.97 70.5017   4
   0   6  -4 3553.46 70.3518  14
   0   6   4 3536.10 67.8050  11
   0   6  -4 3596.75 67.0873   3
   0   6  -4 3640.19 69.6425   7
   0   6   4 3696.40 70.3880   1
  -2  -6  -4 143.779 6.39909   1
   2  -6   4 148.740 4.12876   6
  -2  -6  -4 135.695 5.82783   8
   2  -6   4 146.120 4.65711   1
  -2  -6  -4 148.131 6.50175   2
  -2   6  -4 146.377 5.76095   3
  -2   6  -4 156.135 7.18038   4
   2   6   4 154.970 6.03405  11
  -2   6  -4 154.213 6.93768   7
   2   6   4 138.940 8.44089  10
   2   6   4 147.108 6.13533   6
  -2   6  -4 158.125 7.45229  14
   2   6   4 153.760 7.46325   1
   2   6   4 151.032 6.10290   9
  -2   6  -4 155.323 6.72625   5
  -4  -6  -4 1385.26 30.8941  14
  -4  -6  -4 1392.20 32.2770   2
  -4  -6  -4 1438.46 31.8366   8
   4  -6   4 1408.58 25.7743   6
  -4   6  -4 1418.14 31.0084   3
   4   6   4 1370.67 38.6149  10
   4   6   4 1388.02 31.3658  11
   4   6   4 1457.24 31.3870   9
   4   6   4 1432.86 31.4966   6
  -4   6  -4 1435.97 32.8336   5
   4   6   4 1433.61 33.7228   1
  -4   6  -4 1462.09 32.6501  14
  -4   6  -4 1517.02 32.7517   7
  -4   6  -4 1421.55 32.3968   4
  -6  -6  -4 5.52761 2.76528   2
  -6  -6  -4 7.67960 2.86382   8
   6   6   4 11.8532 3.31053  11
   6   6   4 7.37324 2.78858   1
   6   6   4 6.94390 2.35805   6
  -6   6  -4 6.71085 2.94590   5
  -6   6  -4 7.08844 2.20358   7
  -6   6  -4 9.82938 2.28950   3
   6   6   4 4.01463 2.39330   9
   9  -7  -4 142.630 7.42866   1
  -9  -7   4 140.586 7.36306   8
   9  -7  -4 146.914 6.94536   6
   9   7  -4 144.503 9.49811   1
  -9   7   4 142.194 8.41630   3
  -9   7   4 145.880 8.17678   5
   9   7  -4 151.964 8.95312  11
   7  -7  -4 4.68294 1.74163   6
  -7  -7   4 10.9057 2.64904   1
   7  -7  -4 7.30201 2.24479   1
   7  -7  -4 6.35906 3.15156  13
  -7  -7   4 11.5373 2.57572   8
   7   7  -4 13.4970 3.51563   1
   7   7  -4 7.35118 2.39898   7
   7   7  -4 8.15890 2.68697  11
  -7   7   4 5.91726 2.16453   5
  -7   7   4 7.96114 2.29223   3
   5  -7  -4 181.581 6.91033   6
  -5  -7   4 173.793 5.95626  12
   5  -7  -4 177.544 9.61688  13
  -5  -7   4 173.867 7.96925   1
   5  -7  -4 179.817 7.76068   1
   5   7  -4 179.787 7.24021  11
   5   7  -4 161.601 7.35341   7
  -5   7   4 183.265 6.81125   5
  -5   7   4 177.889 6.47190   9
  -5   7   4 181.935 7.68230   3
   5   7  -4 169.830 7.95215   1
  -3  -7   4 13.7788 2.56888   1
  -3  -7   4 15.2321 2.18825   6
   3  -7  -4 14.2507 2.90672  13
   3  -7  -4 13.7815 2.58265   1
   3  -7  -4 11.4260 1.99775   6
   3   7  -4 11.5229 2.20338   4
   3   7  -4 10.1793 2.01452   1
  -3   7   4 13.1705 1.88751   9
  -3   7   4 12.6606 2.26934   1
  -3   7   4 15.2557 2.53389   3
   3   7  -4 17.4370 2.48886  11
  -3   7   4 14.2961 2.56061  10
   3   7  -4 13.8405 2.38927   7
  -1  -7   4 2.27270 1.28468   1
   1  -7  -4 2.79249 1.45591  13
   1  -7  -4 1.81982 1.15818   2
   1  -7  -4 0.25756 0.95303   1
  -1  -7   4 1.72153 1.08768   6
   1   7  -4 3.39620 1.11535   3
   1   7  -4 0.90491 1.52143   7
  -1   7   4 1.05332 1.17337  10
   1   7  -4 2.87271 1.46712   4
  -1   7   4 2.84299 1.55673   1
  -1   7   4 1.84874 1.46749   3
  -1   7   4 4.98422 1.30623   9
  -1  -7  -4 56.4508 3.29293   8
  -1  -7  -4 67.0445 4.45216   2
  -1  -7  -4 64.1323 4.70716   1
   1  -7   4 61.2962 2.99278   6
   1  -7   4 59.7346 3.38999   1
   1   7   4 54.3204 3.56525  11
  -1   7  -4 64.7064 4.00813   5
  -1   7  -4 63.8643 3.65178   3
   1   7   4 60.2942 4.89168   1
   1   7   4 62.8510 3.83730   9
  -1   7  -4 55.7024 4.53651   7
  -1   7  -4 63.1495 4.98019   4
   1   7   4 62.0044 5.18863  10
   3  -7   4 15.6334 1.55323   6
  -3  -7  -4 27.2150 3.72158   2
  -3  -7  -4 16.5474 2.75852   8
  -3   7  -4 16.7711 3.00409   5
   3   7   4 23.7058 2.97179   9
  -3   7  -4 18.1656 2.69235   3
   3   7   4 21.3371 3.68890   1
   3   7   4 18.8839 3.04479  11
  -3   7  -4 17.5205 3.25222   7
  -3   7  -4 21.9837 3.58687   4
   3   7   4 17.7000 2.79007   6
   3   7   4 18.7771 4.06568  10
  -5  -7  -4 16.6692 3.41482   2
  -5  -7  -4 17.6286 2.92316  14
  -5  -7  -4 22.5060 3.45450   8
   5  -7   4 15.9610 3.47373  13
   5  -7   4 18.7311 1.34065   6
   5   7   4 18.8190 3.21128  11
   5   7   4 21.3589 3.46276   9
   5   7   4 17.6722 3.28633   6
  -5   7  -4 16.0320 3.36333   4
  -5   7  -4 16.8905 3.49306   5
   5   7   4 18.5941 3.95215   1
  -5   7  -4 19.8200 3.12880   3
  -5   7  -4 19.9654 3.79644   7
  -7  -7  -4 0.84296 2.54848   2
  -7  -7  -4 2.15359 2.69233   8
   7   7   4 1.32821 2.43509   9
   7   7   4 2.44056 2.25499   6
   7   7   4 2.56635 2.78749   1
  -7   7  -4 1.18536 1.81464   5
 -10  -8   4 355.567 12.7711   2
 -10  -8   4 359.387 13.4121   8
  10  -8  -4 361.171 12.6165   1
  10  -8  -4 379.434 12.2383   6
 -10   8   4 367.997 14.2799   5
  10   8  -4 365.973 14.7935  11
   8  -8  -4 642.542 17.1533   6
   8  -8  -4 659.713 18.3213   1
  -8  -8   4 639.143 19.3890   1
   8  -8  -4 619.821 23.5470  13
  -8  -8   4 633.927 17.8917   8
   8   8  -4 603.439 20.6174   1
  -8   8   4 661.555 19.6841   3
   8   8  -4 622.756 19.0883  11
  -8   8   4 642.813 18.4038   5
   6  -8  -4 327.503 14.6180  13
   6  -8  -4 333.755 11.7120   1
  -6  -8   4 333.209 10.7296   8
  -6  -8   4 339.887 12.7909   1
   6  -8  -4 345.341 10.9339   6
  -6   8   4 338.553 12.4284   3
  -6   8   4 320.436 10.7415   5
   6   8  -4 336.232 12.8537   1
   6   8  -4 328.314 11.4988  11
   6   8  -4 347.084 11.9149   7
  -4  -8   4 816.761 19.3426   6
   4  -8  -4 827.109 21.1809   1
  -4  -8   4 800.962 21.3225   1
   4  -8  -4 814.311 19.4117   6
   4  -8  -4 807.565 23.4665  13
   4   8  -4 796.656 19.8678   4
   4   8  -4 838.583 19.8776  11
   4   8  -4 794.549 20.5963   7
  -4   8   4 803.163 20.5505   3
   4   8  -4 797.167 20.5221   1
  -4   8   4 780.025 18.1677   9
  -2  -8   4 259.931 9.28904   1
   2  -8  -4 214.029 9.29401  13
   2  -8  -4 219.703 9.13344   1
   2  -8  -4 219.561 7.81088   6
  -2  -8   4 211.534 7.48426   6
  -2   8   4 208.791 8.51148   1
   2   8  -4 227.239 7.89357  11
  -2   8   4 218.867 8.64528   3
   2   8  -4 211.238 8.94579   4
   2   8  -4 221.847 9.04861   7
  -2   8   4 221.344 7.10376   9
   2   8  -4 218.886 7.32171   3
   0  -8   4 957.644 21.9792   1
   0  -8  -4 965.119 22.3692   2
   0  -8  -4 968.836 24.1334   1
   0  -8   4 957.314 20.8657   6
   0   8   4 964.170 21.0107   9
   0   8  -4 965.282 23.8531   7
   0   8  -4 909.083 20.9895   3
   0   8   4 971.567 24.1549   1
   0   8  -4 946.072 24.3061   4
   0   8   4 919.962 21.9619  11
  -2  -8  -4 234.260 9.22848   2
  -2  -8  -4 243.802 9.86728   1
   2  -8   4 227.723 7.34325   1
   2  -8   4 235.153 7.02373   6
   2   8   4 234.339 8.24583   9
  -2   8  -4 231.358 8.26263   3
  -2   8  -4 239.101 10.3971   4
  -2   8  -4 243.786 10.0602   7
   2   8   4 234.603 8.75063  11
   2   8   4 215.827 9.99619   1
  -2   8  -4 224.489 8.67865   5
   4  -8   4 927.177 27.0660  13
  -4  -8  -4 906.166 23.1088   8
   4  -8   4 938.833 19.2852   6
  -4  -8  -4 954.496 24.7078   2
  -4  -8  -4 931.682 23.2630  14
   4   8   4 938.139 26.4576   1
  -4   8  -4 915.289 23.2181   3
  -4   8  -4 971.910 25.3521   7
  -4   8  -4 970.817 25.5158   4
  -4   8  -4 1004.47 24.7565   5
   4   8   4 937.735 22.7981   9
   4   8   4 903.997 23.6513  11
  -6  -8  -4 240.265 10.5109   8
  -6  -8  -4 229.957 10.7636   2
  -6   8  -4 243.447 11.1009   7
   6   8   4 232.822 11.9446   1
   6   8   4 243.619 10.3000   9
   6   8   4 207.411 10.7214  11
  -6   8  -4 234.885 10.9131   5
   9  -9  -4 4.14034 2.13228   1
   9  -9  -4 5.15704 2.16383   6
  -9  -9   4 3.88039 2.68819   8
   9   9  -4 7.36124 2.81581  11
   9   9  -4 4.31591 3.36158   1
  -9   9   4 6.18494 2.88130   5
  -9   9   4 5.33748 2.54590   3
  -7  -9   4 60.3724 5.99966   1
   7  -9  -4 55.4948 4.56182   6
  -7  -9   4 66.4480 5.14381   8
   7  -9  -4 53.8694 6.47724  13
   7  -9  -4 58.3013 5.07631   1
   7   9  -4 61.6545 6.23825   1
   7   9  -4 63.7126 5.86364  11
  -7   9   4 52.9496 5.20867   3
   5  -9  -4 -0.2275 1.41978  13
   5  -9  -4 -0.0766 1.73726   1
   5  -9  -4 6.01572 2.07737   6
  -5  -9   4 0.62208 1.51061   8
  -5  -9   4 0.17790 2.02060   1
  -5   9   4 -0.0836 1.85320   3
  -5   9   4 1.48237 1.24741   9
   5   9  -4 1.42557 2.06897  11
   5   9  -4 2.66968 1.68167   7
  -3  -9   4 17.1751 3.31325   1
   3  -9  -4 13.5855 3.26785  13
  -3  -9   4 15.3663 2.40763   6
   3  -9  -4 30.8327 3.32881   6
   3  -9  -4 17.1011 3.27857   1
   3   9  -4 19.4254 3.00923  11
   3   9  -4 26.0944 3.60490   7
   3   9  -4 19.8052 3.25096   4
  -3   9   4 14.1539 2.00881   9
  -3   9   4 12.3428 2.80845   3
   3   9  -4 16.3230 2.41786   3
   1  -9  -4 6.71728 2.13583   1
  -1  -9   4 5.99871 1.72618   6
  -1  -9   4 10.0525 2.28597   1
   1  -9  -4 7.92948 2.31625  13
   1  -9  -4 8.66958 2.04915   2
   1   9  -4 6.78456 1.75898   3
   1   9  -4 5.92350 2.51721   7
   1   9  -4 11.0195 2.60000   4
  -1   9   4 4.77698 1.84326   3
  -1   9   4 5.83916 1.55634   9
  -1   9   4 6.72558 2.26032   1
  -1  -9  -4 8.70418 2.16561   2
   1  -9   4 7.01331 1.75600   1
  -1  -9  -4 11.3627 2.94607   1
   1  -9   4 8.34169 1.75326   6
  -1   9  -4 7.95073 2.84284   4
   1   9   4 9.17660 2.23212  11
  -1   9  -4 8.29352 1.95796   3
   1   9   4 8.47990 2.41829   1
  -1   9  -4 8.94589 2.96312   7
   1   9   4 7.25328 1.81618   9
   3  -9   4 22.1151 2.38341   6
  -3  -9  -4 20.6960 3.42886   2
   3   9   4 27.1102 3.24887   9
  -3   9  -4 27.7186 4.57286   4
   3   9   4 21.3489 3.90830   1
   3   9   4 26.5996 4.05771  11
  -3   9  -4 23.2960 4.37157   7
   5  -9   4 9.75497 1.53956   6
  -5  -9  -4 5.24432 2.32500  14
  -5  -9  -4 8.16090 2.66715   2
   5   9   4 8.90332 3.54869   1
   5   9   4 6.21952 2.97911  11
  -5   9  -4 9.37969 3.02038   5
  -5   9  -4 8.24337 3.10519   7
   8 -10  -4 24.0679 3.54989   6
  -8 -10   4 19.9204 4.23490   1
   8 -10  -4 22.3185 3.73961   1
  -8 -10   4 18.1203 3.54340   8
   8  10  -4 19.7294 4.18917   1
   8  10  -4 22.5553 4.53452  11
  -8  10   4 22.0415 4.45966   3
  -6 -10   4 1175.74 27.3066   8
   6 -10  -4 1159.32 27.5814   6
  -6 -10   4 1197.52 30.8321   1
   6 -10  -4 1177.35 29.0922   1
  -6  10   4 1140.12 29.8794   3
   6  10  -4 1160.73 28.7632  11
   4 -10  -4 123.061 8.61072  13
   4 -10  -4 121.974 7.53635   1
   4 -10  -4 132.642 6.75805   6
  -4 -10   4 137.975 8.19200   1
   4  10  -4 118.347 7.48145   7
   4  10  -4 123.502 6.31849   3
  -4  10   4 114.992 7.26391   3
   4  10  -4 127.925 7.09700  11
  -2 -10   4 1495.34 32.0225   6
   2 -10  -4 1456.35 35.5025  13
  -2 -10   4 1439.70 33.7019   1
   2 -10  -4 1479.19 34.9238   1
   2  10  -4 1464.99 32.3176  11
   2  10  -4 1429.50 34.3354   7
   2  10  -4 1432.99 32.2101   3
   2  10  -4 1394.19 33.9579   4
  -2  10   4 1396.61 33.5132   3
   0 -10  -4 214.258 10.2502   1
   0 -10  -4 203.221 8.68931   2
   0 -10   4 200.893 8.61253   1
   0 -10   4 213.471 7.93334   6
   0  10  -4 197.732 9.91072   4
   0  10  -4 213.314 10.1085   7
   0  10   4 185.187 9.40597   1
   0  10   4 202.014 9.69712   3
  -2 -10  -4 961.718 24.8875   2
  -2 -10  -4 974.535 26.0234   1
   2 -10   4 955.727 21.7878   6
   2  10   4 947.528 26.8236   1
  -2  10  -4 957.651 26.5627   4
  -2  10  -4 970.666 26.1629   7
   2  10   4 891.815 24.1067  11
  -4 -10  -4 92.5803 6.54880  14
   4 -10   4 105.647 4.91544   6
  -4 -10  -4 104.734 7.60161   2
   4  10   4 100.561 7.09437  11
  -4  10  -4 103.603 7.82791   7
   4  10   4 102.311 8.41703   1
   7 -11  -4 130.480 7.83696   1
   7 -11  -4 141.273 7.50229   6
  -7 -11   4 144.348 9.46923   1
   7  11  -4 133.825 8.13426  11
  -7  11   4 130.545 8.83986   3
  -5 -11   4 92.9361 7.06121   1
   5 -11  -4 93.4949 6.88896   1
   5 -11  -4 97.3166 6.20761   6
   5  11  -4 87.3849 6.86303   7
   5  11  -4 79.4565 6.39956  11
  -5  11   4 88.6114 7.01081   3
   3 -11  -4 183.551 9.43317   1
  -3 -11   4 173.789 7.87288   6
  -3 -11   4 172.302 9.13786   1
   3 -11  -4 179.543 10.6772  13
   3  11  -4 167.688 9.36733   7
   3  11  -4 175.945 8.57134  11
  -3  11   4 184.409 9.18816   3
   1 -11  -4 181.617 9.80781   1
  -1 -11   4 170.782 8.65096   1
  -1 -11   4 164.659 7.54644   6
   1  11  -4 168.659 9.54180   7
   1  11  -4 155.563 8.85717   4
  -1  11   4 161.504 8.64238   3
  -1 -11  -4 104.360 7.36512   1
   1 -11   4 107.731 5.74931   6
  -1 -11  -4 105.132 6.52538   2
   1 -11   4 101.305 6.06932   1
   1  11   4 106.060 7.33690   3
  -1  11  -4 103.133 7.78515   7
   1  11   4 97.0036 7.15812   1
   3 -11   4 153.547 6.55285   6
  -3 -11  -4 155.268 8.91968   2
  -3  11  -4 151.805 9.65251   7
   3  11   4 154.246 9.67530   1
   3  11   4 135.799 7.95303  11
  -6 -12   4 122.917 8.52666   1
   6 -12  -4 127.860 7.49194   6
   6 -12  -4 123.659 7.97116   1
   6  12  -4 136.017 8.09195  11
  -6  12   4 131.579 8.92222   3
   4 -12  -4 603.458 19.4990   1
  -4 -12   4 594.862 19.9397   1
  -4  12   4 585.574 19.2749   3
   4  12  -4 575.392 19.1984   7
   4  12  -4 594.061 18.2262  11
   2 -12  -4 75.5317 6.84713   1
  -2 -12   4 79.1991 5.65365   6
  -2 -12   4 74.2136 6.43185   1
   2  12  -4 70.6786 6.79752   7
  -2  12   4 73.5701 6.65993   3
   0 -12   4 687.826 20.2491   1
   0 -12   4 742.988 19.5019   6
   0 -12  -4 737.231 22.8220   1
   0  12   4 680.573 21.5300   3
   0  12  -4 736.842 22.8902   7
   2 -12   4 51.6224 4.27692   6
  -2 -12  -4 50.6590 5.51569   1
  -2 -12  -4 63.1220 5.97956   2
   2  12   4 48.5094 5.84450   3
   2  12   4 51.1026 5.73114   1
  -2  12  -4 63.9633 6.98023   7
  -3 -13   4 21.3560 4.32643   1
   3 -13  -4 23.1636 4.58082   1
  -3  13   4 29.9433 5.01397   3
   3  13  -4 20.0827 4.48367   7
  -1 -13   4 19.1388 4.03039   1
   1 -13  -4 18.8831 4.33405   1
  -1 -13   4 21.9120 3.65420   6
   1  13  -4 15.8066 3.75702   7
  -1  13   4 21.6616 4.52950   3
  12   0  -5 2.02238 2.26750  11
  12   0  -5 2.14225 2.42431   1
 -12   0   5 1.40955 1.84675   8
 -12   0   5 2.55121 2.52070   5
  12   0  -5 2.86781 2.41161   6
  10   0  -5 2.79449 2.38092  11
  10   0  -5 0.73492 1.82418   6
 -10   0   5 5.18323 1.64967   8
  10   0  -5 2.08063 2.18987   1
 -10   0   5 1.59967 1.49190   5
   8   0  -5 0.96262 1.90040  13
   8   0  -5 1.52390 1.07273   6
   8   0  -5 2.62596 1.39317  11
  -8   0   5 1.07518 1.43875   3
  -8   0   5 0.95321 1.17610   8
   8   0  -5 -0.8193 1.42673   1
  -8   0   5 2.46596 1.29229  12
   6   0  -5 2.00423 0.99450  11
  -6   0   5 0.33766 0.83934   9
  -6   0   5 0.50959 0.94515   1
   6   0  -5 1.31563 0.98786   6
  -6   0   5 0.21366 0.54044   3
   6   0  -5 1.99531 1.59264  13
   6   0  -5 1.59473 1.07522   1
  -6   0   5 -0.0120 0.60340  12
   4   0  -5 0.48083 0.69413   1
   4   0  -5 0.34022 0.60788   6
  -4   0   5 0.04764 0.63944   9
  -4   0   5 4.79759 0.98534   6
  -4   0   5 3.55754 0.75368   3
   4   0  -5 -0.2701 1.09033  13
   4   0  -5 1.97604 0.60791  11
  -4   0   5 1.82040 0.99462   1
  -4   0   5 3.11433 1.60013  10
   4   0  -5 0.57650 0.61440  14
  -4   0   5 0.75901 0.72089  12
   2   0  -5 -0.0728 0.65349  13
   2   0  -5 2.04026 0.95141  14
  -2   0   5 2.40645 0.86100   1
   2   0  -5 0.96867 0.57909   1
   2   0  -5 1.26901 0.81071   4
  -2   0   5 0.24821 0.43277   6
  -2   0   5 0.42172 0.62758  12
  -2   0   5 1.80391 1.07836  10
  -2   0   5 -0.1083 0.59610   9
   0   0   5 0.84766 0.71876   1
   0   0  -5 0.68471 0.86182   8
   0   0   5 -0.0919 1.24023  10
   0   0   5 2.07265 0.74373   9
   0   0  -5 2.51120 0.95501   4
   0   0   5 0.53719 0.50525   6
   0   0  -5 1.93125 0.87717  14
   0   0  -5 0.22371 0.91976   2
   2   0   5 2.01876 1.98754  10
   4   0   5 4.64842 2.73166  10
  -4   0  -5 -0.0327 1.14072  14
  -4   0  -5 0.13243 1.22379   5
  -4   0  -5 -0.1468 1.55169   8
   4   0   5 2.58061 1.00454   6
  -4   0  -5 4.42428 1.61569   2
  -6   0  -5 1.79212 2.18390   8
   6   0   5 0.17640 1.09515   6
  -6   0  -5 1.49016 2.15213   5
  -6   0  -5 1.15077 1.43635   2
  -8   0  -5 0.30390 2.29919   8
  -8   0  -5 1.43932 2.71811   5
   8   0   5 3.12689 1.59985   6
  11  -1  -5 1013.58 24.9677   6
  11  -1  -5 1004.34 25.7052  11
 -11  -1   5 996.441 24.2134   8
 -11  -1   5 989.305 25.5217   5
  11  -1  -5 1008.27 26.2738   1
  11   1  -5 1003.91 26.7838   1
 -11   1   5 950.928 24.9427   8
  11   1  -5 973.797 25.8735  11
 -11   1   5 983.147 25.9592   5
  11   1  -5 1011.91 25.2417   6
  -9  -1   5 131.664 5.98560   8
   9  -1  -5 167.016 9.26230  13
  -9  -1   5 127.086 6.41563   5
   9  -1  -5 127.586 6.34604   6
  -9  -1   5 131.982 6.00511  12
   9  -1  -5 137.367 6.74407  11
   9  -1  -5 136.065 7.29382   1
  -9   1   5 123.380 5.68724  12
   9   1  -5 125.009 6.47272   6
  -9   1   5 124.739 6.92437   3
  -9   1   5 128.142 6.70017   5
   9   1  -5 123.954 7.82687  13
   9   1  -5 138.474 6.96811  11
   9   1  -5 130.887 7.46025   1
  -9   1   5 133.424 5.62989   8
   7  -1  -5 2096.25 41.5541   6
  -7  -1   5 2069.87 42.2729   1
   7  -1  -5 2048.68 45.7017  13
   7  -1  -5 2133.72 43.2542   1
  -7  -1   5 2081.26 40.7394  12
   7   1  -5 2099.28 45.3201  13
   7   1  -5 2105.75 43.4503   1
  -7   1   5 2098.14 40.5080  12
   7   1  -5 2116.21 41.4882  11
  -7   1   5 2041.94 42.2889   3
   7   1  -5 2097.17 41.7569   6
   5  -1  -5 469.919 14.0128  13
   5  -1  -5 466.043 10.5349  14
   5  -1  -5 458.418 12.5357   1
  -5  -1   5 467.761 10.9698  12
  -5  -1   5 461.761 10.8472   6
  -5  -1   5 474.475 12.3275   1
  -5  -1   5 463.407 10.8781   9
   5  -1  -5 482.468 11.4295   6
  -5   1   5 468.250 11.1177   9
  -5   1   5 469.825 12.1125   1
   5   1  -5 460.719 11.2351   6
   5   1  -5 466.594 11.5032   4
   5   1  -5 479.929 12.8248   1
  -5   1   5 468.131 10.7619  12
   5   1  -5 478.157 14.0091  13
   5   1  -5 464.456 10.6472  11
   5   1  -5 470.109 10.4327  14
  -5   1   5 457.431 11.3132   3
   3  -1  -5 3318.91 62.3432  14
  -3  -1   5 3278.96 63.0649   1
   3  -1  -5 3233.74 61.4270   6
   3  -1  -5 3426.40 64.7549  13
  -3  -1   5 3404.72 66.5185  10
   3  -1  -5 3322.57 61.5952   2
  -3  -1   5 3348.08 61.6119  12
  -3  -1   5 3433.84 63.7660   9
   3  -1  -5 3333.02 63.1323   1
  -3  -1   5 3345.00 61.7656   6
  -3   1   5 3424.27 67.1084  10
  -3   1   5 3418.39 61.5841  12
  -3   1   5 3397.64 61.8296   9
  -3   1   5 3306.92 61.7162   6
   3   1  -5 3375.93 62.6069   4
   3   1  -5 3347.04 62.8713   1
  -3   1   5 3266.89 62.4385   3
   3   1  -5 3329.86 62.1530   2
  -3   1   5 3414.60 63.2692   1
   3   1  -5 3390.29 65.0516  13
   3   1  -5 3293.53 61.5614  11
   3   1  -5 3305.11 62.5364  14
   1  -1  -5 1277.80 26.4536  13
  -1  -1   5 1259.71 24.0700   6
  -1  -1   5 1239.87 25.1244   1
   1  -1  -5 1227.97 25.6556   2
  -1  -1   5 1240.34 28.9312  10
  -1  -1   5 1246.25 24.1955   9
  -1  -1   5 1253.44 24.5510  12
   1  -1  -5 1248.97 24.9398   1
   1  -1  -5 1254.70 25.0893   8
   1  -1  -5 1267.50 25.6204  14
   1  -1  -5 1242.43 24.9757   4
  -1   1   5 1245.93 24.4296  12
   1   1  -5 1232.70 24.6032   7
  -1   1   5 1244.32 24.6678   9
  -1   1   5 1268.29 29.5479  10
  -1   1   5 1233.38 24.4265   6
  -1   1   5 1236.86 25.5948   1
   1   1  -5 1262.34 25.9618  14
   1   1  -5 1250.20 25.3502   4
   1   1  -5 1173.94 24.0553   1
   1   1  -5 1215.29 25.7547   2
  -1  -1  -5 2047.93 39.4993   4
  -1  -1  -5 2067.69 40.7203  14
   1  -1   5 2080.35 45.7229  10
   1  -1   5 1984.24 39.3755   9
  -1  -1  -5 2039.91 40.6797   8
  -1  -1  -5 2040.25 41.3035   2
   1  -1   5 2045.89 38.0162   6
   1  -1   5 2067.23 39.2216   1
   1   1   5 2065.68 39.9289   9
  -1   1  -5 2097.94 40.8004   8
  -1   1  -5 2076.10 41.5888   2
   1   1   5 2107.78 39.0711   6
   1   1   5 2040.42 40.2002   1
  -1   1  -5 2056.62 39.0767   7
  -1   1  -5 2083.17 41.1713  14
  -1   1  -5 2080.67 40.1727   4
   1   1   5 2100.30 46.4087  10
   3  -1   5 864.276 16.8991   6
   3  -1   5 867.526 25.8814  10
  -3  -1  -5 855.999 20.8864   5
  -3  -1  -5 842.282 19.8396  14
   3  -1   5 914.336 18.0463   1
  -3  -1  -5 869.039 21.0604   2
  -3  -1  -5 887.842 20.8945   8
  -3  -1  -5 846.742 19.6822   4
   3   1   5 857.459 18.3006   6
  -3   1  -5 864.576 20.4027  14
  -3   1  -5 839.483 21.0120   5
  -3   1  -5 910.070 20.7993   8
  -3   1  -5 863.432 19.3472   4
   3   1   5 836.802 19.1848   1
   3   1   5 873.835 26.5026  10
  -3   1  -5 880.628 21.0036   2
   5  -1   5 727.397 14.9604   6
  -5  -1  -5 707.096 18.8504   8
  -5  -1  -5 685.769 19.2444   5
  -5  -1  -5 720.240 19.1890   2
  -5  -1  -5 692.779 17.5548  14
  -5   1  -5 681.547 17.6952  14
   5   1   5 719.535 16.4336   6
  -5   1  -5 705.662 18.9088   2
  -5   1  -5 720.746 18.7482   8
  -5   1  -5 671.510 19.5594   5
   5   1   5 704.615 16.9634   1
  -7  -1  -5 379.205 14.2266   5
  -7  -1  -5 391.223 13.7652   8
  -7  -1  -5 380.996 13.6864   2
   7  -1   5 400.899 10.3229   6
   7   1   5 391.667 11.3171   6
  -7   1  -5 375.650 14.5521   5
  -7   1  -5 395.797 13.5655   8
  -7   1  -5 382.518 13.3758   2
  12  -2  -5 231.711 9.95892   6
 -12  -2   5 220.862 9.40199   8
  12  -2  -5 226.417 10.4043  11
 -12   2   5 239.845 11.1802   5
  12   2  -5 233.004 11.3299   1
  12   2  -5 212.909 11.1801  11
  10  -2  -5 488.766 14.4228   6
 -10  -2   5 469.193 14.4901   5
 -10  -2   5 481.469 14.1109   8
  10  -2  -5 485.711 15.5050   1
  10  -2  -5 450.921 17.6606  13
  10  -2  -5 495.148 15.0882  11
  10   2  -5 488.308 15.7416  11
 -10   2   5 492.691 15.8605   3
  10   2  -5 491.017 14.9995   6
  10   2  -5 515.594 16.8290   1
 -10   2   5 470.608 15.2636   5
   8  -2  -5 514.993 13.9525   6
  -8  -2   5 515.144 14.4429   1
   8  -2  -5 533.411 18.0317  13
   8  -2  -5 544.035 15.3177   1
  -8  -2   5 530.068 13.5262  12
  -8   2   5 519.445 12.6574   8
  -8   2   5 521.211 15.1285   3
   8   2  -5 516.987 15.8625   1
  -8   2   5 525.132 13.0343  12
   8   2  -5 533.931 14.3771   6
   8   2  -5 544.383 14.5343  11
  -8   2   5 535.594 14.5792   5
   8   2  -5 487.121 16.3833  13
   6  -2  -5 907.026 23.6095  13
   6  -2  -5 927.237 20.1383   6
  -6  -2   5 952.314 21.3162   1
  -6  -2   5 906.471 19.4722  12
   6  -2  -5 937.865 21.6576   1
   6   2  -5 911.405 19.6638  11
  -6   2   5 876.063 20.3024   1
  -6   2   5 933.918 19.9151   9
  -6   2   5 908.261 19.0159  12
   6   2  -5 900.796 19.7193   4
   6   2  -5 900.338 21.8282   1
   6   2  -5 902.057 23.0757  13
  -6   2   5 910.344 20.6573   3
   6   2  -5 888.104 19.8599   6
  -4  -2   5 1173.66 22.8281   9
   4  -2  -5 1144.72 23.5747   6
   4  -2  -5 1189.91 26.7679  13
   4  -2  -5 1184.53 22.2807   2
  -4  -2   5 1187.02 23.3441  12
  -4  -2   5 1185.54 27.9720  10
  -4  -2   5 1179.08 24.9307   1
   4  -2  -5 1167.49 25.1638   1
  -4  -2   5 1137.18 23.4087   6
   4  -2  -5 1186.36 23.6392  14
  -4   2   5 1151.94 23.5966   3
   4   2  -5 1132.79 23.5722  14
  -4   2   5 1150.89 28.1847  10
  -4   2   5 1147.05 22.9243  12
   4   2  -5 1169.15 23.3261   6
   4   2  -5 1182.79 24.2460   4
   4   2  -5 1135.36 24.8246   1
  -4   2   5 1205.93 24.8829   1
   4   2  -5 1156.72 22.6611  11
   4   2  -5 1191.62 26.8779  13
  -4   2   5 1128.35 23.1477   6
  -4   2   5 1185.35 23.6742   9
   2  -2  -5 896.863 18.8786   2
  -2  -2   5 883.878 17.6398   9
  -2  -2   5 907.156 18.2586   6
   2  -2  -5 894.192 20.4241  13
  -2  -2   5 855.244 19.0696   1
  -2  -2   5 925.023 18.4075  12
  -2  -2   5 921.649 22.2275  10
   2  -2  -5 901.825 19.5370   1
   2  -2  -5 910.203 19.2874  14
   2   2  -5 895.804 18.6721   1
   2   2  -5 912.356 19.4096   4
  -2   2   5 904.405 18.6551   9
  -2   2   5 904.544 19.8094   1
   2   2  -5 896.682 19.1029   7
  -2   2   5 904.588 17.8976   3
   2   2  -5 878.200 16.7951  11
  -2   2   5 878.854 18.4463   6
   2   2  -5 926.786 19.6349   2
  -2   2   5 903.847 22.9244  10
  -2   2   5 886.381 18.0732  12
   2   2  -5 871.994 19.5905  14
   0  -2   5 1047.85 25.7607  10
   0  -2  -5 1057.49 21.4772   4
   0  -2  -5 1100.63 22.4663  13
   0  -2  -5 1043.90 22.7121   2
   0  -2  -5 1015.19 21.5051   1
   0  -2   5 1026.79 21.0957   1
   0  -2   5 1021.58 20.7146   9
   0  -2   5 1053.68 20.0950   6
   0  -2  -5 1010.07 19.7010   7
   0  -2  -5 1029.23 21.8780   8
   0  -2  -5 1057.88 22.3321  14
   0  -2   5 1023.54 21.1363  12
   0   2   5 1069.17 26.7741  10
   0   2   5 1063.56 21.7495   9
   0   2  -5 1059.09 21.4974   7
   0   2   5 1007.14 22.3348   1
   0   2  -5 1092.38 23.1576  14
   0   2  -5 1025.82 22.0750   8
   0   2  -5 1017.57 22.9120   2
   0   2   5 1052.46 21.0994  11
   0   2   5 1045.18 21.2192   6
   0   2  -5 1061.86 22.3424   4
   2  -2   5 444.502 10.0152   1
  -2  -2  -5 452.148 12.4766   8
  -2  -2  -5 449.566 12.8491   2
   2  -2   5 439.186 15.8451  10
   2  -2   5 445.560 8.78448   6
  -2  -2  -5 440.011 10.6643   4
  -2  -2  -5 445.266 11.9953  14
   2  -2   5 443.486 8.75745   6
   2   2   5 467.439 11.9846   9
  -2   2  -5 464.459 13.1691   2
  -2   2  -5 461.496 12.3348   8
  -2   2  -5 455.568 12.9800   5
   2   2   5 473.677 11.1815   6
  -2   2  -5 456.485 11.9644   4
  -2   2  -5 449.139 11.1898   7
  -2   2  -5 467.068 12.7147  14
   2   2   5 453.574 16.8746  10
   2   2   5 457.261 12.1364   1
   4  -2   5 309.966 14.2497  10
  -4  -2  -5 325.113 11.2150   2
  -4  -2  -5 325.575 10.8161   5
  -4  -2  -5 322.039 10.8124   8
  -4  -2  -5 319.291 10.1153  14
   4  -2   5 324.915 6.78325   6
  -4   2  -5 325.444 11.1978   2
  -4   2  -5 333.884 10.6559  14
  -4   2  -5 319.107 11.6095   5
   4   2   5 329.423 9.36520   6
  -4   2  -5 331.364 10.8950   8
  -4   2  -5 322.987 9.65027   4
   4   2   5 325.126 15.5628  10
   4   2   5 326.830 10.1535   1
  -6  -2  -5 212.333 9.44779   2
  -6  -2  -5 194.269 9.08164   8
   6  -2   5 206.916 5.71343   6
  -6  -2  -5 211.789 9.59270   5
  -6   2  -5 198.346 8.88001   2
  -6   2  -5 203.643 8.79624   8
   6   2   5 209.533 7.76817   6
   6   2   5 197.780 7.93772   1
  -6   2  -5 203.178 10.0440   5
   8  -2   5 77.4175 3.80446   6
  -8  -2  -5 79.8858 6.02164   2
  -8  -2  -5 78.6099 6.58247   8
   8   2   5 75.2884 5.05188   6
   8   2   5 93.4117 6.76828   9
  -8   2  -5 80.2882 6.74972   5
  -8   2  -5 78.7146 6.09232   8
  11  -3  -5 194.355 9.03799   1
  11  -3  -5 192.822 9.03154  11
 -11  -3   5 205.336 9.05894   8
  11  -3  -5 192.967 8.65105   6
 -11   3   5 192.576 10.1196   3
  11   3  -5 198.284 10.3898   1
 -11   3   5 186.424 9.86356   5
  11   3  -5 205.209 10.0102  11
  -9  -3   5 891.783 21.4857   8
   9  -3  -5 894.074 22.6740   1
   9  -3  -5 897.375 21.5775   6
  -9  -3   5 867.430 21.2547   5
   9  -3  -5 845.643 26.1919  13
  -9  -3   5 904.934 21.3191  12
   9   3  -5 905.106 22.3304   6
   9   3  -5 911.018 22.9557  11
  -9   3   5 908.249 20.3677  12
   9   3  -5 925.164 24.6735   1
  -9   3   5 894.417 22.6846   5
  -9   3   5 909.803 23.6128   3
   7  -3  -5 657.237 17.2892   1
   7  -3  -5 638.308 15.8471   6
  -7  -3   5 654.378 17.0825   1
   7  -3  -5 645.239 19.8920  13
  -7  -3   5 661.612 15.4112  12
   7   3  -5 647.833 18.0718   1
   7   3  -5 631.978 15.8944   6
  -7   3   5 636.065 14.2394   8
  -7   3   5 634.873 15.6479   9
  -7   3   5 639.890 16.9804   3
   7   3  -5 663.418 16.1260  11
  -7   3   5 640.814 14.6056  12
   5  -3  -5 2498.47 51.5232  13
   5  -3  -5 2494.86 47.5948   6
  -5  -3   5 2493.05 49.0817   1
   5  -3  -5 2457.77 46.8581  14
  -5  -3   5 2498.11 47.1490   6
   5  -3  -5 2491.30 49.2156   1
  -5  -3   5 2488.01 46.9444  12
   5   3  -5 2400.24 47.7254   4
   5   3  -5 2451.40 46.7539  14
  -5   3   5 2476.48 48.0887   3
   5   3  -5 2385.46 49.1689   1
  -5   3   5 2488.08 53.0739  10
  -5   3   5 2474.72 48.1845   1
  -5   3   5 2534.02 47.4243   9
  -5   3   5 2484.35 46.3019  12
   3  -3  -5 1172.05 23.1171   2
  -3  -3   5 1155.73 22.3274   9
  -3  -3   5 1165.64 27.0796  10
  -3  -3   5 1151.34 23.4711   6
  -3  -3   5 1171.53 24.8846   1
   3  -3  -5 1177.47 25.3162   1
   3  -3  -5 1191.61 26.4455  13
   3  -3  -5 1186.90 24.3011  14
   3  -3  -5 1124.64 23.5119   6
  -3  -3   5 1166.79 23.3111  12
   3   3  -5 1206.53 22.7261  11
   3   3  -5 1166.55 24.4382   1
  -3   3   5 1178.34 23.6751   3
   3   3  -5 1160.68 24.5767  14
  -3   3   5 1192.59 25.1664   1
  -3   3   5 1169.60 22.9292  12
   3   3  -5 1183.32 24.7221   7
  -3   3   5 1167.21 28.2319  10
  -3   3   5 1170.49 23.7725   9
  -3   3   5 1168.07 23.4909   6
   3   3  -5 1202.80 24.8289   4
  -1  -3   5 3006.42 55.4103  12
  -1  -3   5 3021.37 54.9614   6
   1  -3  -5 2959.46 56.6881   2
  -1  -3   5 2881.03 55.9357   1
  -1  -3   5 2985.46 59.5899  10
   1  -3  -5 2996.02 57.2240  13
   1  -3  -5 2887.84 56.7842   1
   1  -3  -5 2957.51 55.6488   8
   1  -3  -5 2960.72 56.7164  14
  -1  -3   5 2993.06 54.4735   9
   1   3  -5 3024.35 56.4468   7
   1   3  -5 2957.80 57.3974   2
  -1   3   5 3072.58 56.1247   9
   1   3  -5 3029.41 57.2804   4
  -1   3   5 3050.13 61.5304  10
  -1   3   5 2932.90 55.1642  12
   1   3  -5 3000.07 57.6703  14
  -1   3   5 3004.07 55.8927   6
  -1   3   5 2999.45 57.5105   1
   1  -3   5 365.213 12.8204  10
   1  -3   5 353.641 8.44066   1
   1  -3   5 365.091 7.49142   6
  -1  -3  -5 362.342 9.05642   4
  -1  -3  -5 347.591 9.37772   1
  -1  -3  -5 372.482 10.7729   2
   1  -3   5 351.523 7.42846   6
  -1  -3  -5 361.714 10.1373   8
  -1  -3  -5 369.053 10.2332  14
   1  -3   5 356.805 8.73618   9
   1   3   5 367.274 9.56892   6
  -1   3  -5 349.282 8.48437   3
  -1   3  -5 349.947 10.8488   2
   1   3   5 355.179 13.7535  10
  -1   3  -5 372.228 10.9683  14
  -1   3  -5 372.034 9.87949   7
   1   3   5 344.039 8.43962  11
  -1   3  -5 368.907 10.5686   4
   1   3   5 372.494 9.96393   9
  -1   3  -5 362.103 10.5898   5
   1   3   5 360.313 10.6548   1
  -1   3  -5 371.075 10.2645   8
  -3  -3  -5 1646.07 35.1044   8
  -3  -3  -5 1633.63 34.3120  14
  -3  -3  -5 1688.19 35.6532   2
   3  -3   5 1604.80 40.1309  10
  -3   3  -5 1705.42 35.0364   8
  -3   3  -5 1620.93 34.4308   4
  -3   3  -5 1671.88 35.4109  14
   3   3   5 1621.55 35.0214   1
  -3   3  -5 1614.01 35.8963   5
   3   3   5 1633.44 33.5964   6
  -3   3  -5 1685.03 33.5993   3
   3   3   5 1670.54 42.5408  10
   3   3   5 1639.79 34.4465   9
  -3   3  -5 1695.97 35.8819   2
  -3   3  -5 1662.46 33.8096   7
  -5  -3  -5 88.1831 5.92999   8
  -5  -3  -5 70.4434 4.60267  14
  -5  -3  -5 69.1513 5.48841   2
   5  -3   5 66.0048 1.91051   6
   5   3   5 59.8954 4.61202   1
  -5   3  -5 77.6464 6.17969   5
  -5   3  -5 63.5237 4.95453   8
   5   3   5 75.0010 4.69464   6
  -5   3  -5 75.8371 5.01164  14
  -5   3  -5 65.2237 5.00950   2
   5   3   5 66.7343 5.10464   9
  -7  -3  -5 822.886 22.6548   2
  -7  -3  -5 828.902 22.7915   8
   7  -3   5 821.999 16.8694   6
   7   3   5 842.064 22.5314   9
  -7   3  -5 797.071 23.4905   5
   7   3   5 829.479 20.8676   6
  12  -4  -5 2.01050 2.03897   6
  12  -4  -5 1.65388 2.72064  11
  12  -4  -5 -0.0539 2.03396   1
 -12  -4   5 2.06450 2.39705   8
 -12   4   5 2.86432 2.83109   3
 -12   4   5 0.08700 2.69298   5
  12   4  -5 2.81361 2.89142   1
  12   4  -5 4.27493 3.47834  11
 -10  -4   5 48.9959 4.64482   8
  10  -4  -5 48.2694 4.73998   1
  10  -4  -5 48.0299 6.27831  13
  10  -4  -5 45.4541 4.22995   6
 -10   4   5 51.6925 5.25274   5
  10   4  -5 51.0123 5.83441  11
 -10   4   5 48.0553 5.42176   3
  10   4  -5 42.0601 5.53503   1
  -8  -4   5 2.36714 1.73121   8
   8  -4  -5 1.73402 1.74208   1
  -8  -4   5 3.56231 1.44699   5
   8  -4  -5 2.27901 2.43557  13
  -8  -4   5 3.07874 1.32336  12
  -8  -4   5 6.12232 1.88047   1
  -8   4   5 3.60217 1.92856   5
  -8   4   5 6.19065 1.49497  12
   8   4  -5 4.65467 2.28327  11
  -8   4   5 5.00502 2.18631   3
   6  -4  -5 70.7858 4.65214   1
  -6  -4   5 72.6527 3.65832  12
   6  -4  -5 74.2592 6.06252  13
   6  -4  -5 76.1431 4.13681   6
  -6  -4   5 74.1693 4.84112   1
   6   4  -5 68.5789 3.79013   4
   6   4  -5 69.5564 4.87450   1
   6   4  -5 73.3424 4.06072  11
  -6   4   5 72.0707 3.86205   9
  -6   4   5 76.4515 4.04171   1
  -6   4   5 74.3371 3.25927  12
  -6   4   5 77.3996 4.61796   3
  -4  -4   5 126.914 5.78756   1
  -4  -4   5 126.170 4.43483  12
   4  -4  -5 129.284 4.92233   6
   4  -4  -5 127.589 6.73631  13
   4  -4  -5 131.440 5.96398   1
  -4  -4   5 130.505 4.84019   6
   4   4  -5 124.321 5.50624   1
  -4   4   5 121.342 5.33155   1
   4   4  -5 129.757 5.64980   7
  -4   4   5 130.408 4.85310   9
   4   4  -5 136.942 4.61271  11
   4   4  -5 126.637 5.08604  14
  -4   4   5 129.220 4.05429  12
   4   4  -5 132.547 5.50483   4
  -4   4   5 126.580 5.13343   3
  -4   4   5 130.583 7.24871  10
   2  -4  -5 49.7125 2.84619   2
  -2  -4   5 50.1275 2.56681  12
   2  -4  -5 52.0792 3.73909  13
  -2  -4   5 52.1683 2.70902   6
  -2  -4   5 49.4848 3.13684   1
   2  -4  -5 59.7082 2.87512   6
  -2  -4   5 47.5637 3.69114  10
   2  -4  -5 49.8910 3.32643   1
  -2   4   5 51.3267 2.39927  12
  -2   4   5 50.8446 2.81242   6
   2   4  -5 52.1285 3.52962  14
  -2   4   5 54.4728 2.94038   9
   2   4  -5 56.6469 2.42696  11
  -2   4   5 47.0218 3.42214   1
   2   4  -5 54.9995 3.27427   7
  -2   4   5 54.4504 4.65655  10
  -2   4   5 51.8768 2.84870   3
   2   4  -5 50.0863 2.68568   1
   2   4  -5 58.5088 3.79386   4
   0  -4  -5 420.586 11.3130   1
   0  -4   5 421.170 9.24567   6
   0  -4  -5 428.766 11.0016  13
   0  -4   5 404.516 10.0555   1
   0  -4   5 419.780 10.0287  12
   0  -4  -5 419.723 11.4556   2
   0  -4  -5 430.268 11.4558  14
   0  -4   5 406.235 13.0332  10
   0  -4   5 370.594 9.54495   9
   0  -4  -5 397.520 10.4469   8
   0   4   5 404.148 9.66997  11
   0   4   5 421.306 10.6889   6
   0   4  -5 430.805 12.3111  14
   0   4   5 431.016 14.9531  10
   0   4   5 430.249 10.8465   9
   0   4   5 420.732 12.0853   1
   0   4  -5 406.897 11.8918   2
   0   4  -5 433.050 12.0598   4
   0   4  -5 416.166 11.2071   7
  -2  -4  -5 209.503 6.76991   4
   2  -4   5 180.141 9.14334  10
  -2  -4  -5 193.821 7.22719  14
  -2  -4  -5 181.828 7.11431   8
   2  -4   5 189.002 3.82820   6
   2  -4   5 188.293 3.82276   6
  -2  -4  -5 188.002 7.61267   2
  -2   4  -5 186.941 7.03849   7
   2   4   5 187.622 6.81568   6
  -2   4  -5 191.463 7.89875  14
  -2   4  -5 192.462 7.92306   2
  -2   4  -5 188.464 7.09769   8
   2   4   5 195.475 7.16042   9
  -2   4  -5 189.938 7.55151   4
  -2   4  -5 180.039 6.19620   3
  -2   4  -5 195.247 7.94429   5
   2   4   5 193.092 10.7997  10
   2   4   5 192.534 7.85128   1
   2   4   5 183.940 6.17942  11
   4  -4   5 172.475 10.3976  10
  -4  -4  -5 199.605 8.68535   2
  -4  -4  -5 183.775 7.51189  14
  -4  -4  -5 187.871 8.25396   8
  -4   4  -5 190.505 7.90742   8
  -4   4  -5 190.816 8.22238  14
  -4   4  -5 189.007 8.95484   5
   4   4   5 191.758 8.28466   1
   4   4   5 196.173 7.59170   6
  -4   4  -5 189.077 7.37188   3
   4   4   5 196.431 8.14709   9
  -4   4  -5 196.227 8.45802   2
  -4   4  -5 190.062 7.87739   4
  -4   4  -5 186.026 7.58078   7
  -6  -4  -5 248.660 10.8581   2
   6  -4   5 241.778 5.16450   6
  -6  -4  -5 260.101 10.8240   8
  -6   4  -5 253.271 9.89438   8
   6   4   5 240.303 10.1386   1
   6   4   5 249.156 9.56911   6
   6   4   5 242.926 10.2148   9
  -6   4  -5 230.766 11.0975   5
  11  -5  -5 566.357 16.5682   6
 -11  -5   5 573.677 17.4971   8
  11  -5  -5 563.889 17.6281   1
 -11   5   5 589.569 18.9507   5
  11   5  -5 601.535 19.5657  11
 -11   5   5 584.278 18.8143   3
  11   5  -5 598.865 20.4104   1
  -9  -5   5 290.496 10.5487   8
   9  -5  -5 298.552 10.3309   6
   9  -5  -5 292.976 11.0637   1
   9  -5  -5 272.945 13.8750  13
   9   5  -5 295.395 12.8874   1
  -9   5   5 307.120 11.5308   5
   9   5  -5 305.667 11.4914  11
  -9   5   5 290.523 11.7532   3
   9   5  -5 287.752 11.1605   7
  -7  -5   5 818.722 21.3741   1
   7  -5  -5 837.490 19.8247   6
   7  -5  -5 848.034 21.2271   1
   7  -5  -5 835.328 24.8704  13
  -7  -5   5 824.430 19.1213  12
  -7   5   5 807.501 21.0970   3
   7   5  -5 840.262 21.2085   7
   7   5  -5 844.718 22.6222   1
  -7   5   5 859.011 17.9434  12
  -7   5   5 835.034 20.1693   5
  -7   5   5 849.470 19.6747   9
   7   5  -5 816.709 20.2215  11
   5  -5  -5 398.900 13.8723  13
   5  -5  -5 410.731 12.2301   1
  -5  -5   5 388.836 9.97357  12
  -5  -5   5 372.305 10.3171   6
   5  -5  -5 376.553 10.6315   6
  -5  -5   5 382.074 12.0080   1
  -5   5   5 380.759 8.96951  12
  -5   5   5 379.848 11.3092   3
   5   5  -5 393.275 12.0714   1
  -5   5   5 369.730 10.8436   1
   5   5  -5 391.481 11.6968   7
   5   5  -5 383.021 10.9552   4
   5   5  -5 381.669 10.3733  11
  -5   5   5 393.088 10.4801   9
  -3  -5   5 1363.18 27.7691   6
   3  -5  -5 1354.45 27.9154   6
  -3  -5   5 1354.19 29.2505   1
   3  -5  -5 1405.66 29.9300   1
   3  -5  -5 1396.91 30.9618  13
  -3  -5   5 1367.25 26.9766  12
  -3   5   5 1405.09 27.9320   9
  -3   5   5 1383.23 29.4818   1
  -3   5   5 1337.35 32.2579  10
   3   5  -5 1364.20 29.2222  14
  -3   5   5 1375.39 28.5002   3
   3   5  -5 1365.53 29.4899   4
  -3   5   5 1333.44 26.2760  12
   3   5  -5 1378.95 29.2052   7
   3   5  -5 1349.67 28.3114   1
  -1  -5   5 840.770 17.4762   6
  -1  -5   5 839.917 18.7076   1
   1  -5  -5 823.649 18.8437   2
   1  -5  -5 815.311 17.4011   8
   1  -5  -5 839.968 19.8585   1
  -1  -5   5 829.459 17.3592  12
   1  -5  -5 844.775 19.6831  13
  -1  -5   5 825.385 20.0790  10
  -1   5   5 844.551 18.4581   9
  -1   5   5 830.645 17.1256  12
  -1   5   5 792.705 18.2125   6
   1   5  -5 865.532 20.4838   4
  -1   5   5 847.669 22.8551  10
  -1   5   5 832.129 20.1033   1
   1   5  -5 816.826 19.2536   7
   1   5  -5 833.073 20.1602  14
  -1  -5  -5 1454.57 30.5140  14
  -1  -5  -5 1413.10 30.2197   1
   1  -5   5 1400.38 28.3122  12
  -1  -5  -5 1442.92 30.7629   2
   1  -5   5 1408.08 28.0148   1
   1  -5   5 1453.00 27.1300   6
   1  -5   5 1364.49 32.6756  10
  -1  -5  -5 1406.13 29.7137   8
   1   5   5 1473.81 29.9669   6
   1   5   5 1383.26 28.7515  11
   1   5   5 1419.82 35.7752  10
   1   5   5 1461.17 31.9753   1
  -1   5  -5 1445.62 31.5164   4
  -1   5  -5 1450.32 31.9214  14
  -1   5  -5 1436.62 30.6240   7
   1   5   5 1484.19 29.9698   9
  -1   5  -5 1363.39 30.4488   5
  -3  -5  -5 820.850 19.8524  14
  -3  -5  -5 808.826 20.6939   2
  -3  -5  -5 793.586 20.0167   8
   3   5   5 808.721 21.3768   1
   3   5   5 795.577 19.7737   9
  -3   5  -5 830.691 21.2165   5
   3   5   5 789.032 19.5403   6
  -3   5  -5 819.032 20.9728   2
   3   5   5 783.371 26.4875  10
  -3   5  -5 788.904 19.9155   7
  -3   5  -5 820.438 21.0008  14
  -3   5  -5 828.052 20.6728   4
   3   5   5 783.938 18.9339  11
  -5  -5  -5 732.272 19.0179  14
  -5  -5  -5 752.938 20.5390   8
  -5  -5  -5 745.234 20.9490   2
  -5   5  -5 716.299 20.0479   2
  -5   5  -5 756.224 20.2946  14
  -5   5  -5 744.797 19.4421   8
   5   5   5 742.442 19.6266   6
   5   5   5 743.508 20.1225   9
  -5   5  -5 796.470 20.3163   7
  -5   5  -5 711.721 21.1555   5
  -5   5  -5 771.526 19.8526   4
   5   5   5 765.025 21.2501   1
  -7  -5  -5 284.343 11.7805   8
  -7  -5  -5 303.935 12.6866   2
   7   5   5 292.778 11.3092   6
   7   5   5 301.040 12.2260   1
  -7   5  -5 293.682 12.9847   5
   7   5   5 288.556 11.8825   9
 -10  -6   5 6.44029 2.73096   8
  10  -6  -5 5.62134 2.21469   6
  10  -6  -5 6.14823 2.45672   1
  10   6  -5 7.35303 2.85046  11
  10   6  -5 5.77521 2.54009   1
 -10   6   5 6.87405 3.06717   3
 -10   6   5 11.5165 3.40109   5
  -8  -6   5 50.1159 4.46780   8
  -8  -6   5 51.2688 3.76566  12
  -8  -6   5 51.0633 5.06096   1
   8  -6  -5 54.6434 6.65729  13
   8  -6  -5 52.6975 4.18768   6
   8  -6  -5 51.9748 4.68680   1
   8   6  -5 57.1231 5.78452   1
   8   6  -5 49.1331 4.82906   7
  -8   6   5 48.1205 4.56498   3
  -8   6   5 48.2186 4.60529   5
   8   6  -5 52.2458 4.90263  11
   6  -6  -5 12.3622 2.14931   6
   6  -6  -5 8.80510 2.93554  13
  -6  -6   5 8.77353 2.23695   1
   6  -6  -5 8.86680 2.32041   1
  -6  -6   5 9.51328 1.82392  12
   6   6  -5 8.95512 1.90457  11
   6   6  -5 9.24694 2.14724   7
   6   6  -5 6.74957 2.05029   1
  -6   6   5 6.11111 2.16879   3
  -6   6   5 9.28247 1.98589   9
  -4  -6   5 19.5821 2.79475   1
  -4  -6   5 21.9666 1.99931  12
   4  -6  -5 25.0577 3.29558   1
  -4  -6   5 20.1033 2.11129   6
   4  -6  -5 29.0821 3.89420  13
   4  -6  -5 19.3878 2.43286   6
  -4   6   5 20.1318 2.33840   9
  -4   6   5 20.9199 3.34604  10
   4   6  -5 20.1148 2.92150   7
  -4   6   5 31.2698 3.12619   3
   4   6  -5 21.1826 2.42860  11
   4   6  -5 23.3659 2.95648   1
   4   6  -5 24.0710 3.01845   4
  -4   6   5 19.9844 2.66115   1
   2  -6  -5 241.863 7.57283   2
   2  -6  -5 247.770 9.23905  13
  -2  -6   5 237.032 8.29826   1
  -2  -6   5 238.190 7.37445   6
  -2  -6   5 232.262 6.56037  12
   2  -6  -5 243.059 9.06165   1
  -2   6   5 238.733 8.87699   1
   2   6  -5 243.564 7.19627  11
   2   6  -5 268.765 9.30499   4
  -2   6   5 278.430 8.67806   3
   2   6  -5 241.952 9.07828  14
  -2   6   5 243.699 10.4854  10
  -2   6   5 256.202 7.76713   9
  -2   6   5 235.106 6.19811  12
   2   6  -5 246.021 8.66096   7
   0  -6   5 32.3750 2.13740  12
   0  -6  -5 29.5251 2.32268   8
   0  -6  -5 23.1196 2.42577  13
   0  -6  -5 25.8725 3.00340   1
   0  -6  -5 27.5045 2.69129   2
   0  -6   5 25.1209 2.09136   6
   0  -6   5 27.6107 2.41399   1
   0   6   5 27.2409 2.45814  11
   0   6  -5 27.9525 3.57803   4
   0   6   5 26.0154 2.57680   6
   0   6  -5 29.6130 3.00426   7
   0   6   5 29.6472 4.01364  10
   0   6   5 27.9260 2.52250   9
   0   6   5 26.6802 3.54238   1
   0   6  -5 29.8256 3.27163  14
   2  -6   5 269.433 6.50847   6
  -2  -6  -5 272.569 9.85929   2
  -2  -6  -5 257.801 8.92935   8
  -2  -6  -5 265.080 9.42767  14
   2   6   5 256.801 9.06222   6
   2   6   5 258.583 12.9792  10
   2   6   5 248.579 8.44244  11
  -2   6  -5 266.020 9.63071   7
   2   6   5 269.019 9.16353   9
  -2   6  -5 280.778 10.4576   4
   2   6   5 282.086 10.9314   1
  -2   6  -5 267.049 10.4994  14
  -2   6  -5 271.920 9.87062   5
  -4  -6  -5 146.627 7.72898   2
  -4  -6  -5 141.698 7.41605   8
   4  -6   5 147.592 3.49038   6
  -4  -6  -5 150.984 7.15514  14
   4   6   5 147.944 7.32047   6
  -4   6  -5 147.193 7.58447   7
   4   6   5 156.295 8.57928   1
  -4   6  -5 153.349 7.57566   4
  -4   6  -5 155.929 8.06887  14
   4   6   5 154.389 7.56273   9
  -4   6  -5 151.488 8.22188   5
  -6  -6  -5 81.6754 6.60157   8
  -6  -6  -5 78.3617 6.64540   2
   6   6   5 76.5230 5.94881   6
   6   6   5 80.3407 6.32061   9
  -6   6  -5 86.9041 7.08444   5
   6   6   5 77.8274 6.63432   1
   9  -7  -5 249.926 10.5582   1
   9  -7  -5 254.511 9.74274   6
  -9  -7   5 255.088 10.4216   8
  -9   7   5 269.736 12.0143   3
   9   7  -5 270.152 11.2117  11
   9   7  -5 252.721 12.3189   1
  -9   7   5 262.162 10.8732   5
  -7  -7   5 1156.44 28.7647   1
   7  -7  -5 1125.69 26.0798   6
   7  -7  -5 1102.36 31.9131  13
   7  -7  -5 1152.70 27.7997   1
  -7  -7   5 1154.96 26.6253   8
  -7  -7   5 1108.86 25.1100  12
   7   7  -5 1168.03 27.1844  11
   7   7  -5 1174.96 29.7270   1
  -7   7   5 1140.05 25.6857   9
  -7   7   5 1151.19 26.6681   5
   7   7  -5 1142.33 27.6678   7
  -7   7   5 1153.14 28.3004   3
  -5  -7   5 673.221 15.8353  12
   5  -7  -5 712.735 17.5384   6
  -5  -7   5 676.459 17.0084   6
   5  -7  -5 713.374 21.7587  13
   5  -7  -5 710.172 19.1282   1
  -5  -7   5 686.227 19.1267   1
   5   7  -5 703.955 17.2796  11
   5   7  -5 689.867 17.7102   4
   5   7  -5 692.963 18.8301   1
   5   7  -5 711.321 18.7038   7
  -5   7   5 687.099 16.6752   9
  -5   7   5 722.072 18.5956   3
  -3  -7   5 1747.49 35.3505   6
   3  -7  -5 1676.82 35.3282   6
  -3  -7   5 1697.33 36.9851   1
   3  -7  -5 1767.72 39.0512  13
   3  -7  -5 1706.79 37.7491   1
   3   7  -5 1775.35 35.1686  11
   3   7  -5 1731.44 37.1687   7
  -3   7   5 1733.20 36.5479   3
  -3   7   5 1739.26 34.9419   9
   3   7  -5 1769.00 37.5748   4
  -3   7   5 1704.76 39.3664  10
   1  -7  -5 450.345 12.6224   2
  -1  -7   5 464.371 12.7404   1
   1  -7  -5 437.957 13.8192   1
   1  -7  -5 460.995 13.6203  13
  -1  -7   5 455.109 11.6839   6
   1   7  -5 456.921 14.3914   4
  -1   7   5 467.263 12.1585   9
  -1   7   5 472.748 13.3470   3
   1   7  -5 456.140 13.7736   7
  -1   7   5 458.718 14.0611   1
  -1  -7  -5 912.402 21.5534   8
  -1  -7  -5 998.915 23.6038   2
   1  -7   5 960.261 20.2311   6
  -1  -7  -5 992.314 23.8340   1
   1  -7   5 974.299 21.0911   1
  -1   7  -5 938.682 23.7293   7
  -1   7  -5 1018.80 24.9946   4
  -1   7  -5 1011.44 25.1370  14
   1   7   5 967.778 24.9287   1
   1   7   5 929.613 21.9772  11
   1   7   5 986.357 22.3110   9
   1   7   5 976.663 27.8564  10
  -3  -7  -5 83.8751 5.37402   8
  -3  -7  -5 85.3945 5.71391   2
   3  -7   5 87.7315 3.25636   6
  -3  -7  -5 89.3404 5.44725  14
  -3   7  -5 96.3850 6.25546   7
   3   7   5 89.4860 5.60829   6
  -3   7  -5 90.5005 6.23970   5
   3   7   5 88.6762 5.56506   9
  -3   7  -5 85.0744 6.20166   4
   3   7   5 81.1267 5.26369  11
   3   7   5 84.3600 6.29109   1
  -5  -7  -5 520.811 16.2833   8
  -5  -7  -5 494.725 16.5843   2
   5  -7   5 505.747 10.4484   6
  -5  -7  -5 490.170 15.0627  14
  -5   7  -5 527.908 17.1825   5
   5   7   5 503.617 15.9689   9
  -5   7  -5 507.047 16.2970   7
  -5   7  -5 518.614 16.4142   4
   5   7   5 529.008 17.8256   1
   5   7   5 493.806 15.8272   6
 -10  -8   5 129.540 7.51562   8
  10  -8  -5 131.927 7.65133   1
  10  -8  -5 128.161 7.05871   6
 -10   8   5 131.551 8.78649   3
  10   8  -5 130.717 9.61042   1
  10   8  -5 129.842 8.84378  11
 -10   8   5 134.460 8.31392   5
   8  -8  -5 589.401 17.5235   1
   8  -8  -5 559.679 16.1102   6
  -8  -8   5 557.574 16.4747   8
  -8  -8   5 558.266 18.2844   1
  -8   8   5 541.603 16.7330   5
   8   8  -5 566.829 17.5048  11
   8   8  -5 570.193 17.7340   7
   8   8  -5 590.901 19.6424   1
  -8   8   5 553.392 17.8994   3
   6  -8  -5 356.920 11.5296   6
  -6  -8   5 362.303 13.4679   1
   6  -8  -5 363.860 12.8502   1
   6  -8  -5 354.650 15.5580  13
   6   8  -5 350.537 12.4835   7
   6   8  -5 334.454 11.3649  11
  -6   8   5 348.849 10.7167   9
  -6   8   5 348.148 12.4389   3
   6   8  -5 339.215 12.8060   1
  -6   8   5 340.608 11.0905   5
   4  -8  -5 366.200 14.3157  13
   4  -8  -5 348.826 12.6121   1
   4  -8  -5 379.258 11.4220   6
  -4  -8   5 372.715 11.1784   6
  -4  -8   5 366.917 12.8129   1
  -4   8   5 361.587 12.0066   3
   4   8  -5 371.969 11.1833  11
   4   8  -5 350.670 11.9712   4
  -4   8   5 363.294 10.5478   9
   4   8  -5 352.410 12.3310   7
  -2  -8   5 710.181 17.1097   6
   2  -8  -5 701.792 19.6847  13
  -2  -8   5 724.833 18.7245   1
   2  -8  -5 705.578 19.5407   1
  -2   8   5 698.112 18.9964   1
  -2   8   5 698.818 16.7697   9
   2   8  -5 713.671 17.0972  11
  -2   8   5 697.187 18.5850   3
   2   8  -5 699.555 19.1415   7
   2   8  -5 693.189 19.5131   4
   0  -8   5 137.544 6.06024   1
   0  -8   5 127.389 5.31146   6
   0  -8  -5 130.915 6.50936   2
   0  -8  -5 132.188 7.28162   1
   0   8  -5 131.898 7.71259   4
   0   8   5 121.903 5.97431  11
   0   8  -5 121.249 7.00415   7
   0   8   5 131.881 5.90730   9
   0   8   5 133.849 7.35869   1
  -2  -8  -5 329.024 11.8633   2
   2  -8   5 307.228 8.48488   6
  -2  -8  -5 306.781 11.2728  14
   2   8   5 293.055 10.4459  11
   2   8   5 307.960 12.8665   1
  -2   8  -5 311.060 11.9266   7
  -2   8  -5 329.839 12.6208   4
   2   8   5 299.220 10.3949   9
  -4  -8  -5 146.972 7.67386   8
  -4  -8  -5 147.867 7.49186  14
  -4  -8  -5 145.894 8.23643   2
   4  -8   5 151.567 4.87882   6
  -4   8  -5 161.851 8.58499   7
   4   8   5 152.117 7.81820   9
  -4   8  -5 157.234 8.38026   5
  -4   8  -5 155.903 8.86569   4
   4   8   5 161.884 9.67508   1
  -6  -8  -5 14.5623 3.86338   2
  -6  -8  -5 17.6617 3.61808   8
   6   8   5 20.9207 4.58323   1
   6   8   5 19.5118 3.60604   9
  -6   8  -5 17.5733 3.86547   5
   9  -9  -5 894.922 23.8588   1
   9  -9  -5 888.621 22.7375   6
  -9  -9   5 876.227 23.4192   8
  -9   9   5 862.885 25.2175   3
   9   9  -5 866.238 24.5664  11
   9   9  -5 858.883 26.8996   1
  -9   9   5 893.748 23.9177   5
   7  -9  -5 9.24702 2.56072   1
  -7  -9   5 4.35273 2.78966   1
   7  -9  -5 9.45604 2.53096   6
  -7  -9   5 5.35776 2.40577   8
  -7   9   5 12.8707 3.53965   3
   7   9  -5 4.06625 2.53387   7
   7   9  -5 7.91190 2.44398  11
   7   9  -5 6.40757 2.77053   1
  -5  -9   5 1003.63 26.3591   1
   5  -9  -5 962.096 25.2976   1
   5  -9  -5 957.070 28.6355  13
   5   9  -5 975.087 23.7687  11
   5   9  -5 981.060 25.2523   7
  -5   9   5 964.795 22.2703   9
  -5   9   5 962.676 24.8312   3
  -3  -9   5 19.7349 3.57908   1
   3  -9  -5 22.3919 3.80265   1
  -3  -9   5 18.7620 2.77035   6
   3  -9  -5 19.8797 3.82966  13
  -3   9   5 20.6701 2.65924   9
   3   9  -5 23.3106 3.16324  11
  -3   9   5 18.6497 3.31014   3
   3   9  -5 26.2101 4.08572   7
   3   9  -5 24.7130 3.85018   4
  -1  -9   5 1259.07 27.7342   6
  -1  -9   5 1286.35 29.2790   1
   1  -9  -5 1277.82 28.7372   2
   1  -9  -5 1322.48 31.4098   1
  -1   9   5 1280.45 27.5867   9
  -1   9   5 1264.56 30.1346   3
   1   9  -5 1252.17 30.6813   7
  -1   9   5 1283.01 31.0180   1
   1   9  -5 1260.97 31.4345   4
   1  -9   5 217.500 7.41610   6
  -1  -9  -5 205.846 9.55940   1
  -1  -9  -5 215.807 9.31672   2
   1  -9   5 200.186 7.59501   1
  -1   9  -5 217.288 10.2396   4
   1   9   5 194.287 8.45541  11
   1   9   5 208.668 8.15245   9
   1   9   5 220.631 10.7562   1
  -1   9  -5 211.669 10.0370   7
  -3  -9  -5 1134.55 28.0132  14
   3  -9   5 1122.55 23.8248   6
  -3  -9  -5 1149.27 28.9077   2
   3   9   5 1122.50 26.8317   9
  -3   9  -5 1177.38 30.3236   4
  -3   9  -5 1145.22 29.6089   7
   3   9   5 1111.42 30.9131   1
  -5  -9  -5 254.481 11.9050   2
   5  -9   5 254.516 7.03217   6
   5   9   5 236.945 10.3989   9
   5   9   5 238.992 12.5853   1
  -5   9  -5 249.844 11.1993   7
   8 -10  -5 17.9266 3.66403   1
  -8 -10   5 18.4502 3.16302   8
   8 -10  -5 25.0935 3.65937   6
  -8 -10   5 21.4454 4.06233   1
  -8  10   5 15.8255 4.02749   3
   8  10  -5 23.1499 4.47028  11
  -6 -10   5 8.09686 2.49499   8
  -6 -10   5 11.7913 3.70679   1
   6 -10  -5 4.19543 2.18564   6
   6 -10  -5 2.72618 2.52290   1
  -6  10   5 4.73174 2.29006   3
   6  10  -5 1.80573 2.48479  11
   6  10  -5 13.5181 3.55473   7
   4 -10  -5 0.69585 2.12312   1
  -4 -10   5 0.15416 2.18186   1
   4 -10  -5 1.29894 2.41347  13
  -4 -10   5 2.04326 1.74119   6
  -4  10   5 12.8050 2.81381   3
   4  10  -5 -0.1248 1.97618  11
   4  10  -5 0.52634 1.79640   4
   4  10  -5 5.36348 2.88355   7
   2 -10  -5 60.5935 5.96295   1
  -2 -10   5 60.2061 4.59152   6
  -2 -10   5 59.2619 4.95638   1
   2  10  -5 51.8973 5.54566   4
   2  10  -5 55.8084 5.66835   7
  -2  10   5 53.7917 5.35593   3
   0 -10   5 15.0166 2.47493   6
   0 -10  -5 18.1903 3.72560   1
   0 -10  -5 11.9253 2.77234   2
   0 -10   5 17.4353 2.95474   1
   0  10  -5 16.5727 3.85577   4
   0  10  -5 16.1794 4.00249   7
   0  10   5 20.7253 3.92977   3
   0  10   5 15.6257 3.30857   1
   2 -10   5 41.1545 3.31836   6
  -2 -10  -5 42.2840 5.14525   2
   2  10   5 43.9320 5.85344   1
  -2  10  -5 56.4219 6.45172   4
  -2  10  -5 43.8572 5.52419   7
   2  10   5 36.1573 4.45678  11
  -4 -10  -5 9.49694 2.89993   2
   4 -10   5 10.1400 1.82224   6
  -4 -10  -5 10.2728 2.93825  14
   4  10   5 9.99278 3.34024   1
  -4  10  -5 8.96621 3.55134   7
   7 -11  -5 297.318 12.3896   1
   7 -11  -5 298.484 11.5545   6
  -7 -11   5 290.368 13.4342   1
   7  11  -5 296.299 12.2387  11
  -7  11   5 299.494 13.3145   3
   5 -11  -5 839.797 23.9002   1
  -5 -11   5 823.612 24.4487   1
   5  11  -5 831.264 23.8783   7
  -5  11   5 802.593 23.3099   3
   5  11  -5 818.768 22.1271  11
  -3 -11   5 480.635 16.4408   1
  -3 -11   5 455.073 14.2041   6
   3 -11  -5 457.002 16.6210   1
  -3  11   5 485.700 16.4593   3
   3  11  -5 476.303 16.8559   7
  -1 -11   5 488.698 14.4900   6
   1 -11  -5 494.661 17.4117   1
  -1 -11   5 474.905 15.5197   1
  -1  11   5 469.044 16.2113   3
   1  11  -5 467.312 16.7296   7
   1  11  -5 472.020 17.3201   4
  -1 -11  -5 257.413 11.0964   2
  -1 -11  -5 258.450 11.7895   1
   1 -11   5 238.309 9.94541   1
   1 -11   5 255.970 9.20988   6
   1  11   5 259.624 11.9444   3
  -1  11  -5 270.319 12.8906   4
  -1  11  -5 257.427 12.2295   7
   1  11   5 256.145 12.4673   1
  -3 -11  -5 101.179 7.11733   2
  -3 -11  -5 100.240 7.28658  14
   3 -11   5 110.403 5.49657   6
   3  11   5 103.526 8.28937   1
  -3  11  -5 105.345 8.35762   7
   4 -12  -5 193.886 10.4812   1
  -4 -12   5 186.331 10.5341   1
   4  12  -5 176.528 9.03238  11
   4  12  -5 177.297 9.82437   7
  -4  12   5 178.620 10.0122   3
   2 -12  -5 49.3354 6.40660   1
  -2 -12   5 46.2677 4.86657   1
  -2 -12   5 52.3139 4.78423   6
  -2  12   5 51.7794 5.42361   3
   2  12  -5 49.3102 6.25722   7
   0 -12   5 274.369 10.3466   6
   0 -12  -5 319.246 13.6532   1
   0 -12   5 290.254 11.3794   1
   0  12  -5 298.485 13.8590   7
   0  12   5 281.868 12.9993   3
  12   0  -6 3.59885 2.36499   6
 -12   0   6 4.34582 2.75834   5
 -12   0   6 4.28659 2.43085   8
  12   0  -6 5.89099 2.49859   1
  12   0  -6 2.28459 2.88721  11
 -10   0   6 1575.98 35.3947   5
  10   0  -6 1625.12 37.7205   1
  10   0  -6 1599.59 35.7119  11
  10   0  -6 1580.74 35.4849   6
 -10   0   6 1593.21 33.9499   8
 -10   0   6 1592.44 34.0522  12
   8   0  -6 157.051 6.41782   4
  -8   0   6 151.370 6.57657   3
   8   0  -6 164.160 6.63778  11
   8   0  -6 172.949 7.00009   6
   8   0  -6 164.933 8.00373   1
  -8   0   6 157.356 6.12005  12
   8   0  -6 164.526 9.07152  13
  -8   0   6 154.633 6.81968   1
   6   0  -6 3632.44 68.7353   6
  -6   0   6 3677.00 68.1578  12
   6   0  -6 3622.60 67.6594  11
   6   0  -6 3660.60 73.5389  13
   6   0  -6 3669.86 69.3575   4
  -6   0   6 3484.90 67.9150   3
   6   0  -6 3662.64 70.9776   1
  -6   0   6 3746.38 68.5350   9
  -6   0   6 3744.25 70.3672   1
  -4   0   6 67.9082 3.24608  12
   4   0  -6 63.8275 2.20597  11
   4   0  -6 67.9380 4.75225  13
  -4   0   6 71.8400 3.27825   9
   4   0  -6 66.0261 3.46481  14
  -4   0   6 66.5002 3.22549   6
   4   0  -6 80.4991 3.83618   4
  -4   0   6 67.0564 3.93803   1
   4   0  -6 64.2669 3.85038   1
  -4   0   6 68.3062 5.44414  10
   2   0  -6 7530.57 140.465   2
  -2   0   6 7866.08 170.476  10
  -2   0   6 7602.35 141.319   9
   2   0  -6 7398.83 148.034   4
   2   0  -6 7848.58 158.618  13
  -2   0   6 7378.15 149.472   1
   2   0  -6 7794.00 151.207   1
   2   0  -6 8012.20 156.374  14
  -2   0   6 8036.01 150.991  12
  -2   0   6 7769.55 150.758   6
   0   0  -6 124.520 5.79742   2
   0   0  -6 121.034 4.05320   7
   0   0   6 121.917 7.78789  10
   0   0   6 126.386 5.06937   1
   0   0   6 128.149 4.86727   9
   0   0   6 125.386 4.32492   6
   0   0  -6 120.929 4.93989   4
   0   0  -6 123.429 5.36796   8
   0   0  -6 125.115 5.52361  14
   2   0   6 4950.82 91.3637   9
  -2   0  -6 4943.25 92.3724  14
  -2   0  -6 4969.12 92.7011   8
   2   0   6 4924.30 97.0668   6
   2   0   6 4870.98 90.5345   1
  -2   0  -6 4629.94 90.5135   4
  -2   0  -6 4875.69 93.4037   2
   2   0   6 4967.89 100.956  10
  -4   0  -6 52.2395 4.89329   2
   4   0   6 53.4153 3.11517   6
  -4   0  -6 44.6496 4.46937   8
  -4   0  -6 48.8904 4.51748   5
  -4   0  -6 45.0151 4.01026  14
   4   0   6 47.3520 4.12622   9
   4   0   6 51.1164 3.15608   1
   6   0   6 1242.87 29.5080   9
   6   0   6 1243.16 26.4635   6
  -6   0  -6 1235.17 31.4027   5
  -6   0  -6 1241.32 30.5304   2
  -6   0  -6 1286.28 30.6409   8
 -11  -1   6 3.44385 2.05098   8
 -11  -1   6 7.23885 2.64358   5
  11  -1  -6 5.80815 2.93799   1
  11  -1  -6 6.57651 2.54750   6
  11  -1  -6 4.59842 2.80089  11
  11   1  -6 4.64777 2.84778   1
 -11   1   6 4.34248 2.55298   5
  11   1  -6 13.2238 3.29434   6
  11   1  -6 2.85032 2.73677  11
  -9  -1   6 219.730 8.08695   8
   9  -1  -6 233.641 8.74938  11
   9  -1  -6 216.702 11.4317  13
   9  -1  -6 219.740 8.68133   6
  -9  -1   6 225.514 8.08264  12
   9  -1  -6 229.557 9.96621   1
  -9   1   6 220.360 9.08787   3
  -9   1   6 223.215 7.59671   8
   9   1  -6 206.749 10.7972  13
   9   1  -6 229.590 8.85797  11
   9   1  -6 229.013 10.1064   1
  -9   1   6 214.965 8.77059   5
  -9   1   6 224.495 7.87104  12
   9   1  -6 223.979 8.74142   6
   7  -1  -6 269.733 8.05656  11
  -7  -1   6 282.623 8.23538  12
  -7  -1   6 256.271 9.08693   1
   7  -1  -6 271.733 9.79942   1
   7  -1  -6 263.025 8.50840   6
   7  -1  -6 277.191 11.5680  13
  -7   1   6 247.859 8.38631   3
   7   1  -6 251.992 7.91077  11
   7   1  -6 255.726 9.83934   1
   7   1  -6 254.694 11.0890  13
  -7   1   6 271.263 8.37565   9
   7   1  -6 270.084 8.44932   4
   7   1  -6 255.131 8.46720   6
  -7   1   6 270.612 7.94309  12
  -7   1   6 249.240 8.73001   1
   5  -1  -6 27.0022 2.10926  14
  -5  -1   6 25.7130 2.55437   1
  -5  -1   6 28.3437 2.10451  12
   5  -1  -6 24.5682 2.01515   6
  -5  -1   6 29.5056 2.17987   9
   5  -1  -6 28.0777 2.89761   1
   5  -1  -6 28.4975 3.28924  13
  -5  -1   6 28.8722 2.18804   6
  -5  -1   6 25.4446 3.74002  10
  -5   1   6 28.0191 2.78854   1
   5   1  -6 29.6185 1.82671  11
   5   1  -6 26.6300 2.53799   4
   5   1  -6 30.3328 2.16760  14
  -5   1   6 26.0555 2.12271   9
   5   1  -6 27.9717 2.93112   1
  -5   1   6 24.4870 1.94882   3
  -5   1   6 28.6949 3.95148  10
  -5   1   6 31.3639 2.15449  12
   5   1  -6 29.0984 3.59069  13
  -5   1   6 25.6547 2.38542   6
  -3  -1   6 945.724 21.9006   1
  -3  -1   6 1003.88 25.7620  10
   3  -1  -6 1024.54 21.1135   2
   3  -1  -6 1027.18 21.8134  14
   3  -1  -6 1000.22 23.6294  13
  -3  -1   6 995.578 20.3563   9
  -3  -1   6 997.382 20.8018   6
  -3  -1   6 987.186 20.7206  12
   3  -1  -6 1001.99 22.0538   1
  -3   1   6 1036.03 20.7579  12
  -3   1   6 1015.67 20.9256   9
  -3   1   6 1000.45 20.8076   6
   3   1  -6 1027.80 21.6293   2
  -3   1   6 982.418 22.2940   1
   3   1  -6 1024.58 21.7867   4
   3   1  -6 1005.32 24.0216  13
   3   1  -6 1019.26 21.7518   1
   3   1  -6 1012.41 21.9429  14
  -3   1   6 1010.91 26.2390  10
  -1  -1   6 36.0166 2.21444   6
  -1  -1   6 35.5034 2.31528   9
   1  -1  -6 32.9655 2.81643  14
  -1  -1   6 37.2345 2.69269   1
   1  -1  -6 30.1384 2.11439   1
   1  -1  -6 32.8970 2.52890   4
   1  -1  -6 34.8502 3.10770  13
   1  -1  -6 32.8800 2.62404   8
  -1  -1   6 37.1140 2.53888  12
   1  -1  -6 34.0969 2.92679   2
  -1  -1   6 34.2736 4.13659  10
  -1   1   6 33.3493 2.35393  12
  -1   1   6 34.4285 4.28737  10
  -1   1   6 34.4756 2.81216   1
  -1   1   6 31.3945 2.47003   9
   1   1  -6 33.0317 2.96599  14
  -1   1   6 33.1690 2.28182   6
   1   1  -6 38.0425 2.68167   4
   1  -1   6 217.629 6.86350   9
  -1  -1  -6 207.896 7.72812   8
  -1  -1  -6 220.091 8.25604   2
   1  -1   6 205.592 6.43230   1
   1  -1   6 211.775 10.6760  10
  -1  -1  -6 202.415 7.36617  14
  -1  -1  -6 209.867 6.74520   4
   1  -1   6 209.383 5.70485   6
   1   1   6 209.961 6.34359   6
   1   1   6 209.838 7.00908   9
  -1   1  -6 204.682 6.17347   7
   1   1   6 207.012 7.13216   1
  -1   1  -6 207.854 8.04797   2
  -1   1  -6 203.982 7.49684   8
  -1   1  -6 204.991 7.70396  14
  -1   1  -6 210.712 7.10291   4
   1   1   6 209.815 10.8048  10
  -3  -1  -6 245.874 9.39106   8
   3  -1   6 249.623 13.1552  10
   3  -1   6 253.681 8.59210   9
   3  -1   6 248.834 7.25879   1
  -3  -1  -6 251.106 9.04627  14
   3  -1   6 251.966 6.66450   6
  -3  -1  -6 252.489 9.63019   2
  -3   1  -6 252.773 8.36943   4
  -3   1  -6 249.906 9.79200   5
  -3   1  -6 257.609 9.70024   8
  -3   1  -6 248.247 9.12986  14
  -3   1  -6 266.105 9.98839   2
   3   1   6 244.984 8.20982   1
   3   1   6 252.143 13.6110  10
   3   1   6 246.735 8.70032   9
   3   1   6 260.218 7.72318   6
  -5  -1  -6 3.21135 1.87222  14
  -5  -1  -6 1.33235 1.55171   8
   5  -1   6 3.58441 1.17498   6
  -5  -1  -6 5.85272 2.59392   2
  -5   1  -6 6.73685 2.10717  14
   5   1   6 5.73304 1.61768   6
  -5   1  -6 3.49744 2.12149   5
  -5   1  -6 5.17434 2.41665   8
  -5   1  -6 3.34445 2.15357   2
   5   1   6 3.20989 2.19808   9
   5   1   6 4.39420 1.44400   1
  -7  -1  -6 129.130 7.60241   8
  -7  -1  -6 128.900 7.88521   2
   7  -1   6 123.648 5.20102   6
   7  -1   6 126.396 7.34148   9
   7   1   6 127.709 6.17462   6
   7   1   6 125.897 7.21512   9
  -7   1  -6 123.332 8.59486   5
  -7   1  -6 126.984 7.82161   8
  -7   1  -6 122.023 7.45056   2
 -12  -2   6 369.364 13.6399   5
  12  -2  -6 410.034 13.9805   6
  12  -2  -6 412.317 14.6339  11
  12  -2  -6 369.102 14.4609   1
 -12  -2   6 405.959 13.4955   8
  12   2  -6 403.442 15.2923  11
 -12   2   6 390.073 14.9352   5
  12   2  -6 405.049 15.9387   1
 -10  -2   6 669.753 17.7034  12
  10  -2  -6 660.333 22.7496  13
 -10  -2   6 659.808 18.1976   5
  10  -2  -6 700.446 20.1529   1
 -10  -2   6 697.641 18.0003   8
  10  -2  -6 678.640 18.6007  11
  10  -2  -6 674.823 18.4000   6
 -10   2   6 686.355 17.2002  12
  10   2  -6 686.727 20.8509   1
 -10   2   6 673.185 19.5351   3
  10   2  -6 690.139 19.2515  11
 -10   2   6 685.350 19.2090   5
  -8  -2   6 1224.34 26.4117  12
   8  -2  -6 1225.57 27.2729   6
   8  -2  -6 1203.92 32.0752  13
   8  -2  -6 1224.90 28.9950   1
  -8  -2   6 1240.05 28.2270   1
  -8   2   6 1213.53 28.0027   3
  -8   2   6 1240.08 25.8989  12
   8   2  -6 1276.57 30.0369   1
   8   2  -6 1232.75 27.0668  11
   8   2  -6 1221.71 31.4141  13
  -6  -2   6 1905.14 37.3260   9
   6  -2  -6 1956.62 38.6117   6
   6  -2  -6 1996.37 40.6035   1
  -6  -2   6 1904.13 39.7255   1
   6  -2  -6 1915.25 42.9302  13
  -6  -2   6 1928.47 37.7149  12
   6   2  -6 1869.70 37.2514  11
   6   2  -6 1919.02 42.5216  13
   6   2  -6 1941.01 38.6058   4
  -6   2   6 1939.53 37.2693  12
   6   2  -6 1931.02 40.4902   1
  -6   2   6 1832.45 38.3366   3
  -6   2   6 1896.21 39.1922   1
  -6   2   6 1931.84 38.0977   9
   4  -2  -6 1424.54 31.9445  13
   4  -2  -6 1378.59 27.5250   2
  -4  -2   6 1453.80 28.5336   6
   4  -2  -6 1390.68 28.3864   6
  -4  -2   6 1420.51 27.6510   9
   4  -2  -6 1417.53 30.2348   1
  -4  -2   6 1441.15 30.1676   1
  -4  -2   6 1460.72 28.3447  12
  -4  -2   6 1446.73 33.6406  10
   4  -2  -6 1406.76 28.9175  14
  -4   2   6 1481.21 28.1968  12
  -4   2   6 1380.66 28.0052   3
  -4   2   6 1433.46 28.6231   9
  -4   2   6 1396.27 28.2837   6
  -4   2   6 1433.86 34.2159  10
   4   2  -6 1420.57 29.7739   1
   4   2  -6 1378.08 29.0518  14
   4   2  -6 1439.24 29.5386   4
  -4   2   6 1394.15 30.0093   1
   4   2  -6 1439.71 26.9796  11
   2  -2  -6 1282.61 27.1109  14
  -2  -2   6 1297.27 27.1043   1
   2  -2  -6 1345.67 28.6941  13
   2  -2  -6 1279.91 27.0822   1
   2  -2  -6 1275.91 26.8327   2
  -2  -2   6 1271.54 25.9739  12
  -2  -2   6 1300.07 25.7874   6
  -2  -2   6 1343.33 31.1807  10
  -2  -2   6 1296.72 25.2527   9
  -2   2   6 1271.79 24.9773   3
   2   2  -6 1305.79 27.5191   2
   2   2  -6 1326.69 26.7169   7
   2   2  -6 1266.21 27.6613  14
  -2   2   6 1300.17 26.1671   6
   2   2  -6 1266.43 27.0929   4
  -2   2   6 1293.24 25.7960  12
  -2   2   6 1269.06 27.5997   1
  -2   2   6 1288.63 31.7317  10
  -2   2   6 1306.16 26.3334   9
   0  -2  -6 607.001 15.4252   2
   0  -2   6 597.463 18.7649  10
   0  -2   6 577.996 13.3613   9
   0  -2   6 606.268 13.8146   1
   0  -2   6 593.276 12.7926   6
   0  -2  -6 598.352 14.9646  14
   0  -2  -6 591.895 13.9260   4
   0  -2   6 594.704 13.8342  12
   0  -2  -6 587.524 14.5464   8
   0   2   6 606.910 13.9167   6
   0   2  -6 613.086 15.6821  14
   0   2   6 615.805 14.3982   9
   0   2  -6 591.519 13.7995   7
   0   2  -6 591.319 14.7431   4
   0   2   6 572.242 14.9747   1
   0   2  -6 590.954 15.6587   2
   0   2   6 596.951 19.4960  10
  -2  -2  -6 338.569 10.6791  14
  -2  -2  -6 344.543 11.4893   2
   2  -2   6 349.211 7.88359   6
   2  -2   6 335.367 8.62025   1
   2  -2   6 323.943 9.47727   9
  -2  -2  -6 327.880 9.12349   4
  -2  -2  -6 344.629 10.9901   8
   2  -2   6 336.449 14.5292  10
  -2   2  -6 353.971 11.0251   8
  -2   2  -6 342.286 10.3532   4
   2   2   6 362.323 9.77280   6
   2   2   6 346.044 15.3891  10
   2   2   6 347.636 10.5397   9
  -2   2  -6 365.749 11.3458  14
   2   2   6 349.591 10.6247   1
  -2   2  -6 343.747 9.44158   7
  -2   2  -6 369.651 11.8937   2
  -4  -2  -6 537.442 15.0512  14
  -4  -2  -6 536.038 16.1424   2
   4  -2   6 539.767 11.4385   6
  -4  -2  -6 532.195 15.8069   8
   4   2   6 533.644 15.1679   9
  -4   2  -6 532.139 15.3951  14
   4   2   6 519.890 14.5409   1
  -4   2  -6 543.938 15.7545   8
  -4   2  -6 526.230 16.0357   2
  -4   2  -6 508.631 16.5014   5
   4   2   6 520.849 13.7412   6
  -6  -2  -6 253.419 10.9820   8
   6  -2   6 264.803 7.23396   6
  -6  -2  -6 256.546 11.2184   2
  -6   2  -6 255.944 10.7284   8
   6   2   6 261.906 9.20620   6
  -6   2  -6 260.709 10.8499   2
  -6   2  -6 254.788 11.9330   5
   6   2   6 264.238 10.7447   9
  11  -3  -6 99.6500 7.07411   1
  11  -3  -6 105.474 6.81238  11
 -11  -3   6 96.7235 5.96868   8
  11  -3  -6 103.437 6.50061   6
 -11   3   6 101.866 7.29250   5
 -11   3   6 98.3427 6.85305   3
  11   3  -6 100.846 6.94082  11
  11   3  -6 98.9674 7.82207   1
  -9  -3   6 7.42527 1.93763   8
   9  -3  -6 11.2559 2.55846   1
  -9  -3   6 5.29389 1.85169   5
  -9  -3   6 10.1609 2.36535  12
   9  -3  -6 5.96837 3.17629  13
  -9  -3   6 10.4449 2.32033   1
   9  -3  -6 8.19535 2.20534   6
   9   3  -6 7.02472 2.11575  11
  -9   3   6 9.74723 2.56515   5
  -9   3   6 12.3320 1.98404  12
   9   3  -6 10.3076 2.75660   1
  -9   3   6 7.00737 2.54004   3
   7  -3  -6 31.7315 3.40250   1
   7  -3  -6 35.3497 3.18229   6
  -7  -3   6 36.3440 3.05603  12
   7  -3  -6 33.7457 4.31704  13
  -7  -3   6 38.2641 3.81401   1
   7   3  -6 31.4204 2.99333  11
  -7   3   6 45.2492 3.57311   3
  -7   3   6 32.6659 2.60711  12
  -7   3   6 31.5031 3.00167   1
   7   3  -6 30.3759 2.83381   4
   7   3  -6 38.4588 4.14077   1
  -7   3   6 40.2162 3.11199   9
  -5  -3   6 330.489 9.15620   6
   5  -3  -6 343.778 12.3127  13
   5  -3  -6 339.584 9.48401   6
  -5  -3   6 357.721 10.8234   1
  -5  -3   6 339.444 9.08017  12
   5  -3  -6 336.137 9.29027  14
   5  -3  -6 343.222 10.9628   1
  -5  -3   6 339.860 8.43574   9
  -5   3   6 321.945 9.26572   9
   5   3  -6 336.897 9.22569  14
  -5   3   6 341.961 9.60783   3
   5   3  -6 344.162 8.68883  11
   5   3  -6 332.651 10.5877   1
  -5   3   6 346.080 13.5505  10
   5   3  -6 341.226 10.1012   4
  -5   3   6 336.695 10.3131   1
  -5   3   6 342.447 8.67494  12
   3  -3  -6 18.5640 2.33489  14
  -3  -3   6 7.41690 1.02162   9
  -3  -3   6 8.87960 2.30164  10
  -3  -3   6 8.10373 1.45659  12
   3  -3  -6 8.69706 1.82457   1
   3  -3  -6 13.0677 2.24334  13
  -3  -3   6 8.08292 1.75927   1
   3  -3  -6 6.60312 1.25497   2
   3   3  -6 7.45629 1.71450  14
  -3   3   6 7.60646 1.29439  12
   3   3  -6 10.5318 1.86186   4
   3   3  -6 9.39449 1.09929  11
  -3   3   6 6.95570 1.74118   1
  -3   3   6 8.02017 1.32942   3
   3   3  -6 10.2698 1.66945   1
  -3   3   6 9.48962 1.52782   6
  -3   3   6 8.35573 2.48278  10
  -3   3   6 9.29362 1.63832   9
  -1  -3   6 316.146 11.9333  10
  -1  -3   6 322.370 8.52942  12
   1  -3  -6 312.844 9.53386   2
  -1  -3   6 303.192 8.77006   1
   1  -3  -6 318.831 8.85935   8
  -1  -3   6 323.400 8.09489   6
  -1  -3   6 295.137 7.62973   9
   1  -3  -6 298.964 9.16744   1
   1  -3  -6 322.065 9.80759  13
   1  -3  -6 312.979 9.52192  14
  -1   3   6 312.924 10.0166   1
   1   3  -6 313.132 10.0790   2
  -1   3   6 328.059 9.08094   9
   1   3  -6 324.629 9.08123   7
  -1   3   6 322.531 8.42439  12
   1   3  -6 306.102 10.0998  14
  -1   3   6 318.949 8.79928   6
  -1   3   6 314.562 12.9089  10
   1   3  -6 325.544 9.87031   4
  -1  -3  -6 49.6445 3.70820  14
   1  -3   6 46.5075 2.81700   9
   1  -3   6 55.9258 2.32070   6
   1  -3   6 48.1966 2.62286   1
   1  -3   6 44.9397 3.03553  12
  -1  -3  -6 43.4194 2.81620   4
   1  -3   6 47.5694 5.03426  10
  -1  -3  -6 50.5941 3.82976   2
  -1  -3  -6 40.8342 3.42306   8
   1   3   6 45.7494 3.59238   9
  -1   3  -6 54.4280 3.23710   7
   1   3   6 46.7947 3.22404   6
  -1   3  -6 49.1894 4.04520  14
  -1   3  -6 48.4887 3.92954   2
  -1   3  -6 40.2812 3.47619   4
   1   3   6 44.7917 3.72861   1
   1   3   6 43.3302 5.40262  10
   3  -3   6 1.04934 2.03764  10
   3  -3   6 1.03646 1.19985   9
  -3  -3  -6 -0.1189 1.26245  14
   3  -3   6 3.10172 0.69655   6
  -3  -3  -6 1.04551 1.77465   2
  -3  -3  -6 0.89781 1.78653   8
   3   3   6 -0.5782 1.25978   1
   3   3   6 1.61377 1.25900   6
  -3   3  -6 1.94515 1.65996  14
  -3   3  -6 2.70942 2.00738   5
  -3   3  -6 2.61056 1.90868   2
  -3   3  -6 9.09585 2.13833   4
   3   3   6 0.52420 1.69176   9
  -3   3  -6 0.05142 1.10547   8
   5  -3   6 89.2342 3.07185   6
  -5  -3  -6 96.1569 6.74865   2
  -5  -3  -6 95.6460 5.80843  14
  -5  -3  -6 105.383 6.86706   8
  -5   3  -6 85.7151 6.04805   8
   5   3   6 92.2001 6.30144   9
   5   3   6 91.3519 5.78116   1
  -5   3  -6 91.2601 5.98288   2
   5   3   6 96.0284 5.46228   6
  -5   3  -6 101.255 7.31521   5
  -5   3  -6 89.7704 5.83653  14
   7  -3   6 16.2209 3.08361   9
  -7  -3  -6 16.5078 3.86370   8
  -7  -3  -6 18.1051 3.80521   2
   7  -3   6 17.3851 1.75656   6
  -7   3  -6 17.5748 3.54962   8
  -7   3  -6 19.3756 4.02793   5
   7   3   6 14.8463 2.77582   6
   7   3   6 20.2390 3.58951   9
  12  -4  -6 641.821 19.4123   1
  12  -4  -6 620.114 18.8693  11
  12  -4  -6 642.576 18.3118   6
 -12  -4   6 619.601 18.3467   8
 -12   4   6 606.883 19.9322   3
 -12   4   6 608.173 19.9618   5
  12   4  -6 664.241 20.9954  11
  12   4  -6 631.360 21.5289   1
  10  -4  -6 37.5539 4.67256   1
 -10  -4   6 43.3360 4.43962  12
 -10  -4   6 36.0291 4.19518   8
  10  -4  -6 43.0976 4.26753   6
  10  -4  -6 38.3463 6.39606  13
  10   4  -6 49.2738 6.25216   1
 -10   4   6 39.9330 4.61644   5
 -10   4   6 39.6015 5.05100   3
  10   4  -6 39.0342 4.95814  11
  -8  -4   6 866.801 20.2411  12
  -8  -4   6 854.471 22.3472   1
   8  -4  -6 891.116 22.7072   1
   8  -4  -6 862.198 21.0189   6
   8  -4  -6 814.710 25.6983  13
  -8   4   6 879.178 19.2308  12
   8   4  -6 869.869 23.6471   1
   8   4  -6 859.279 20.9882  11
  -8   4   6 876.247 22.2800   3
  -6  -4   6 92.6896 5.62558   1
   6  -4  -6 98.9972 4.80328   6
   6  -4  -6 102.720 7.10882  13
  -6  -4   6 87.0109 4.28066  12
  -6   4   6 92.3027 4.80826   1
   6   4  -6 88.7104 4.29974  11
  -6   4   6 86.5481 3.77748  12
   6   4  -6 88.8784 5.41545   7
  -6   4   6 87.6340 4.94570   3
   6   4  -6 95.0628 4.89654   4
  -6   4   6 78.4358 4.37518   9
   6   4  -6 81.8788 5.25259   1
   4  -4  -6 2029.82 41.7677   1
  -4  -4   6 2027.77 41.4504   1
   4  -4  -6 1933.65 39.5221   6
   4  -4  -6 2024.66 40.3161  14
   4  -4  -6 2030.28 43.5066  13
  -4  -4   6 1951.02 38.9776  12
   4   4  -6 2084.17 41.2197   7
  -4   4   6 2022.59 41.3579   1
   4   4  -6 1975.29 40.6292   1
  -4   4   6 2020.12 39.8805   3
  -4   4   6 2030.97 38.5098  12
   4   4  -6 2039.88 38.4753  11
  -4   4   6 2061.18 39.8076   9
  -4   4   6 2050.81 45.8876  10
   4   4  -6 2036.18 41.1160   4
   4   4  -6 1996.82 40.5095  14
   2  -4  -6 612.915 15.9772  13
  -2  -4   6 584.864 17.0769  10
   2  -4  -6 577.485 15.1393   1
  -2  -4   6 585.013 13.3680  12
   2  -4  -6 577.951 14.2715   2
  -2  -4   6 588.945 13.4692   6
  -2  -4   6 574.375 14.5060   1
   2  -4  -6 591.718 14.8492  14
   2   4  -6 607.216 15.5767   4
  -2   4   6 568.304 13.0162  12
   2   4  -6 586.648 14.6845   7
  -2   4   6 581.632 15.4970   1
  -2   4   6 590.316 14.1183   9
  -2   4   6 574.468 18.5819  10
   2   4  -6 600.913 15.6954  14
  -2   4   6 575.676 13.7498   3
  -2   4   6 569.551 13.8325   6
   0  -4  -6 3044.91 59.1448  14
   0  -4   6 3035.59 56.2048   6
   0  -4   6 3046.66 57.2413   1
   0  -4   6 2941.53 62.8167  10
   0  -4  -6 2961.53 58.5086   1
   0  -4   6 2991.70 57.3040  12
   0  -4  -6 3006.50 58.2985   8
   0  -4  -6 3002.08 59.3885   2
   0  -4  -6 3118.62 58.5095  13
   0   4  -6 3005.46 60.3972   2
   0   4  -6 3031.69 59.8420   4
   0   4  -6 3079.41 60.4702  14
   0   4   6 2976.52 58.0976   6
   0   4  -6 3119.09 58.8076   7
   0   4   6 3118.06 58.5489   9
   0   4   6 3109.71 66.1719  10
   0   4   6 3026.47 60.1518   1
   2  -4   6 444.508 9.49265   6
   2  -4   6 460.251 11.8922  12
   2  -4   6 411.131 16.2458  10
  -2  -4  -6 441.692 13.1509   8
  -2  -4  -6 449.882 13.0326  14
  -2  -4  -6 439.195 13.5746   2
   2   4   6 502.499 13.5263   9
  -2   4  -6 439.263 14.0566   2
  -2   4  -6 482.175 14.3682   5
  -2   4  -6 458.813 12.7168   7
   2   4   6 427.280 13.5549   1
  -2   4  -6 476.218 13.6762   4
  -2   4  -6 447.910 13.9962  14
   2   4   6 453.202 12.5614   6
   2   4   6 423.866 17.9672  10
  -4  -4  -6 1568.61 34.2644  14
  -4  -4  -6 1507.86 35.4544   2
   4  -4   6 1500.11 32.3436   9
  -4  -4  -6 1529.02 35.1871   8
   4  -4   6 1539.99 28.3832   6
   4   4   6 1571.75 34.8773   9
   4   4   6 1594.35 33.9801   6
  -4   4  -6 1571.01 36.5834   5
  -4   4  -6 1556.31 35.0870  14
   4   4   6 1552.33 35.2659   1
  -4   4  -6 1552.72 34.2158   4
  -4   4  -6 1567.48 34.7538   8
  -4   4  -6 1533.98 35.4379   2
  -6  -4  -6 57.5505 5.78602   8
  -6  -4  -6 61.9258 6.01189   2
   6  -4   6 59.1673 2.28252   6
   6   4   6 63.4413 5.11152   6
  -6   4  -6 56.3974 6.26677   5
   6   4   6 62.4439 5.22794   9
  -6   4  -6 62.2913 5.02660   8
   6   4   6 57.1220 5.13612   1
  11  -5  -6 78.8973 5.72422   6
  11  -5  -6 76.8308 6.23426   1
 -11  -5   6 71.2977 5.81972   8
  11   5  -6 78.5403 7.48162   1
  11   5  -6 81.6549 7.07947  11
 -11   5   6 76.1079 6.28644   5
 -11   5   6 66.1155 6.26395   3
  -9  -5   6 2.47034 1.86457  12
  -9  -5   6 2.04181 1.61306   1
   9  -5  -6 1.27655 2.75423  13
  -9  -5   6 0.94765 1.39092   8
   9  -5  -6 1.14759 1.74295   6
   9  -5  -6 3.17106 2.20970   1
  -9   5   6 2.52158 2.15626   3
   9   5  -6 2.02043 1.94210   1
  -9   5   6 7.82291 2.54669   5
   9   5  -6 4.26513 2.49770  11
  -7  -5   6 1.63556 1.38301  12
   7  -5  -6 7.26172 1.97483   6
  -7  -5   6 2.69044 1.59179   1
   7  -5  -6 1.99237 1.89120   1
  -7   5   6 1.96402 1.76714   3
  -7   5   6 2.82293 1.12760  12
   7   5  -6 3.76272 2.15464   7
   7   5  -6 4.12222 2.25991   1
   7   5  -6 1.81723 1.65848  11
  -7   5   6 0.54004 1.35744   9
  -5  -5   6 88.0918 4.18022  12
  -5  -5   6 93.8361 5.55695   1
  -5  -5   6 93.4401 4.56588   6
   5  -5  -6 94.8092 6.40015  13
   5  -5  -6 94.7205 4.78834  14
   5  -5  -6 90.8042 5.53728   1
  -5   5   6 87.5702 4.95018   1
   5   5  -6 95.4510 5.20300   4
   5   5  -6 87.8828 5.23499   1
   5   5  -6 93.4136 4.30053  11
   5   5  -6 96.8628 5.54992   7
  -5   5   6 100.042 5.12440   3
  -5   5   6 90.5964 3.61304  12
  -5   5   6 88.0445 4.37673   9
  -5   5   6 91.8765 6.77535  10
  -3  -5   6 45.1413 3.04875   6
   3  -5  -6 48.2263 3.60343  14
  -3  -5   6 51.6127 3.83923   1
  -3  -5   6 41.1794 2.70871  12
   3  -5  -6 47.9997 3.98511   1
  -3  -5   6 45.3109 4.03087  10
   3  -5  -6 48.9802 2.91786   2
   3  -5  -6 45.3101 4.21108  13
   3   5  -6 45.2184 3.71259   7
  -3   5   6 47.5583 2.52214  12
  -3   5   6 49.3284 3.36145   9
   3   5  -6 47.8121 3.79573  14
   3   5  -6 47.2273 2.58170  11
  -3   5   6 46.6340 4.88891  10
  -3   5   6 53.7777 3.43507   3
  -3   5   6 45.0341 3.60014   1
   3   5  -6 46.8585 3.94293   4
   1  -5  -6 107.523 5.37128  13
  -1  -5   6 101.400 4.16597  12
  -1  -5   6 98.3006 4.63895   1
  -1  -5   6 98.2048 6.64235  10
   1  -5  -6 95.6846 4.19843   8
  -1  -5   6 96.8588 3.99206   6
   1  -5  -6 98.3709 5.03538   2
   1  -5  -6 99.5606 5.27921  14
   1  -5  -6 90.2162 4.95740   1
  -1   5   6 96.9204 7.00277  10
  -1   5   6 102.514 5.87258   1
  -1   5   6 95.4473 4.57597   6
   1   5  -6 105.249 5.32697   7
  -1   5   6 104.816 4.80204   9
   1   5  -6 100.986 5.55524   4
   1   5  -6 93.9236 5.68587  14
  -1   5   6 96.2481 4.00468  12
   1  -5   6 17.3308 2.17470  12
   1  -5   6 17.8507 1.63623   6
  -1  -5  -6 12.4350 2.25537   8
  -1  -5  -6 10.1113 2.31524  14
  -1  -5  -6 12.4771 2.57156   2
   1  -5   6 20.9296 1.93672   1
   1   5   6 11.6320 2.19744   6
  -1   5  -6 17.1083 2.94021  14
   1   5   6 15.6339 3.91589  10
   1   5   6 12.3432 2.40113   9
  -1   5  -6 13.7575 2.80397   2
  -1   5  -6 17.7878 2.59281   7
  -1   5  -6 14.5703 2.61431   4
   1   5   6 13.8276 2.83896   1
   3  -5   6 8.49855 1.82605  12
  -3  -5  -6 11.0144 2.79594   8
  -3  -5  -6 11.0513 2.89526   2
  -3  -5  -6 10.8817 2.59693  14
   3  -5   6 13.6638 1.14057   6
  -3   5  -6 14.7716 3.08320   2
  -3   5  -6 12.4066 3.05584   5
  -3   5  -6 12.6858 2.60582   7
  -3   5  -6 9.82647 2.60902   4
  -3   5  -6 12.4622 2.99418  14
   3   5   6 10.3013 2.64304   9
   3   5   6 11.1951 2.20593   6
   3   5   6 11.6714 2.92741   1
  -5  -5  -6 117.884 6.61136  14
  -5  -5  -6 113.222 7.12628   8
  -5  -5  -6 133.464 8.04506   2
   5   5   6 124.374 6.91841   6
   5   5   6 120.330 7.54658   1
  -5   5  -6 110.449 7.93705   5
  -5   5  -6 109.763 6.92433  14
   5   5   6 122.019 7.42539   9
  -5   5  -6 110.323 6.91540   2
  10  -6  -6 1172.12 28.1870   6
 -10  -6   6 1177.13 28.6050   8
  10  -6  -6 1182.28 29.5613   1
  10   6  -6 1163.74 32.1703   1
 -10   6   6 1174.79 30.1952   3
  10   6  -6 1172.40 29.5777  11
 -10   6   6 1184.68 29.7966   5
   8  -6  -6 209.273 9.55774   1
   8  -6  -6 202.222 11.7490  13
  -8  -6   6 224.140 10.0900   1
  -8  -6   6 215.129 8.16306  12
   8  -6  -6 207.792 8.52621   6
   8   6  -6 219.921 9.09964  11
  -8   6   6 217.377 9.71408   3
  -8   6   6 217.731 9.18088   5
   8   6  -6 224.203 9.93102   7
   8   6  -6 231.254 11.0036   1
   6  -6  -6 2322.81 52.0906  13
  -6  -6   6 2296.73 48.3126   1
   6  -6  -6 2273.83 45.8399   6
  -6  -6   6 2256.23 44.4893  12
   6  -6  -6 2259.30 47.9318   1
   6   6  -6 2097.71 45.6041   4
  -6   6   6 2275.28 45.3389   9
   6   6  -6 2306.45 45.3763  11
   6   6  -6 2282.74 47.4861   7
   6   6  -6 2218.00 47.8179   1
  -6   6   6 2297.32 47.2271   3
  -4  -6   6 204.686 7.23788   6
   4  -6  -6 197.664 7.17831   6
   4  -6  -6 202.026 8.62052   1
   4  -6  -6 209.248 9.86236  13
  -4  -6   6 206.767 8.52770   1
  -4  -6   6 200.983 6.37867  12
  -4   6   6 195.868 8.05816   1
  -4   6   6 195.134 7.51367   3
  -4   6   6 198.295 7.21002   9
   4   6  -6 202.399 6.72800  11
   4   6  -6 194.532 7.99692   7
   4   6  -6 210.463 8.61042   4
  -4   6   6 193.832 9.99114  10
   2  -6  -6 1845.45 38.1243   2
  -2  -6   6 1859.09 37.4486   6
  -2  -6   6 1914.84 39.0176   1
   2  -6  -6 1927.42 40.5401  13
   2  -6  -6 1897.22 40.2792   1
  -2  -6   6 1852.78 36.6249  12
  -2   6   6 1916.41 38.1845   9
  -2   6   6 1863.01 40.4230   1
   2   6  -6 1888.58 39.6390   7
   2   6  -6 1916.65 40.6052   4
   2   6  -6 1871.38 40.6034  14
  -2   6   6 1868.07 38.6673   3
  -2   6   6 1886.77 36.2482  12
  -2   6   6 1905.46 44.1577  10
   0  -6  -6 50.6875 4.11018  14
   0  -6   6 43.0496 2.76663  12
   0  -6   6 33.1799 2.70636   1
   0  -6   6 43.6092 2.62826   6
   0  -6  -6 34.2942 2.84862   8
   0  -6  -6 33.2831 3.47369   1
   0  -6  -6 31.9432 3.18699   2
   0   6   6 30.6025 3.05896   6
   0   6   6 44.6971 2.82558  12
   0   6   6 32.5294 4.79053  10
   0   6   6 37.5872 3.42728   9
   0   6   6 34.9459 3.70659   1
   0   6  -6 40.2494 4.19656   4
   0   6  -6 45.2897 4.41570  14
   2  -6   6 994.448 20.3695   6
  -2  -6  -6 1018.03 24.6161  14
  -2  -6  -6 978.462 23.8790   8
  -2  -6  -6 1025.55 25.3902   2
   2   6   6 1006.83 24.1209   6
  -2   6  -6 1039.57 24.8646   7
  -2   6  -6 1036.40 26.2453  14
  -2   6  -6 1010.44 25.3748   4
   2   6   6 1040.22 26.5321   1
   2   6   6 1066.21 24.6473   9
  -4  -6  -6 35.3304 4.30598  14
  -4  -6  -6 37.4551 4.49251   8
  -4  -6  -6 32.3105 4.66979   2
   4  -6   6 34.8641 1.69859   6
  -4   6  -6 33.4003 4.68889   5
  -4   6  -6 31.6366 4.05294   7
  -4   6  -6 34.3906 4.32715   4
   4   6   6 33.1359 4.23362   6
   4   6   6 35.3232 4.62377   9
   4   6   6 36.1496 5.00801   1
  -4   6  -6 41.3045 4.87525  14
  -6  -6  -6 713.930 21.8451   2
   6   6   6 721.694 21.1786   9
   6   6   6 724.898 21.8582   1
   6   6   6 709.548 20.4230   6
  -6   6  -6 741.757 22.5068   5
  -9  -7   6 106.603 7.57847   1
  -9  -7   6 103.165 6.59920   8
   9  -7  -6 93.3342 6.02647   6
   9  -7  -6 103.590 6.71761   1
   9   7  -6 94.1229 6.93433   7
   9   7  -6 102.907 6.97624  11
   9   7  -6 104.195 7.83819   1
  -9   7   6 102.791 6.94037   5
  -9   7   6 96.8607 7.34150   3
   7  -7  -6 185.769 7.98524   6
  -7  -7   6 197.074 9.36030   1
   7  -7  -6 182.547 11.3854  13
  -7  -7   6 181.960 7.15356  12
   7  -7  -6 179.110 8.92311   1
   7   7  -6 189.612 9.09363   7
   7   7  -6 171.236 7.63281  11
   7   7  -6 191.057 9.61947   1
  -7   7   6 187.879 7.69308   9
  -7   7   6 188.295 9.03723   3
  -7   7   6 187.522 8.06374   5
  -5  -7   6 472.978 13.3469   6
  -5  -7   6 488.191 15.3093   1
   5  -7  -6 498.871 17.4552  13
   5  -7  -6 480.614 15.2153   1
   5  -7  -6 490.552 13.7502   6
  -5  -7   6 464.273 12.1175  12
  -5   7   6 487.327 14.2933   3
  -5   7   6 481.251 13.1449   9
   5   7  -6 451.956 14.0366   4
   5   7  -6 478.573 13.0305  11
   5   7  -6 473.945 14.6289   7
   3  -7  -6 131.560 6.99001   1
  -3  -7   6 137.424 5.91229   6
   3  -7  -6 131.807 7.54483  13
  -3  -7   6 130.290 6.73985   1
   3   7  -6 129.754 6.69389   7
  -3   7   6 125.192 6.32163   3
  -3   7   6 125.308 6.60908   1
   3   7  -6 129.974 5.33506  11
  -3   7   6 117.660 7.77673  10
   3   7  -6 131.861 7.15436   4
  -3   7   6 136.700 5.86399   9
   1  -7  -6 438.209 13.9729   1
  -1  -7   6 444.707 11.6322   6
  -1  -7   6 430.578 12.4857   1
   1  -7  -6 454.099 13.0547   2
  -1   7   6 418.438 16.2749  10
  -1   7   6 427.353 14.3842   1
   1   7  -6 432.999 13.7214   7
   1   7  -6 450.595 14.6782   4
  -1   7   6 443.897 12.3984   9
   1   7  -6 430.065 14.6145  14
  -1   7   6 453.318 13.3651   3
  -1  -7  -6 156.986 7.61483   2
   1  -7   6 154.921 5.42815   6
  -1  -7  -6 161.216 7.80315  14
  -1   7  -6 164.925 8.85679  14
  -1   7  -6 160.051 7.95942   7
  -1   7  -6 170.678 8.61274   4
   1   7   6 154.827 10.3945  10
   1   7   6 160.922 7.26132   9
   1   7   6 172.856 8.99584   1
  -3  -7  -6 54.9247 4.98128  14
   3  -7   6 55.4710 2.64356   6
  -3  -7  -6 55.3555 4.81553   8
  -3  -7  -6 54.9819 5.47790   2
  -3   7  -6 51.2963 5.39536  14
  -3   7  -6 48.7299 5.16906   4
   3   7   6 52.2134 4.70894   6
   3   7   6 58.3276 5.25431   9
   3   7   6 50.5986 5.68242   1
  -3   7  -6 61.5252 5.33618   7
  -5  -7  -6 138.529 8.34986   2
   5  -7   6 136.689 3.83196   6
   5   7   6 151.045 9.29216   1
  -5   7  -6 143.032 8.92610   5
  -5   7  -6 142.736 8.15170   4
 -10  -8   6 234.823 10.5120   8
  10  -8  -6 224.809 9.83270   6
 -10   8   6 244.805 11.1745   5
  10   8  -6 224.926 11.1023  11
  10   8  -6 242.368 12.8481   1
 -10   8   6 235.358 11.6110   3
   8  -8  -6 275.487 11.4823   1
  -8  -8   6 267.889 12.1912   1
   8  -8  -6 262.029 10.2357   6
  -8  -8   6 254.051 10.2550   8
   8   8  -6 250.228 10.4380  11
  -8   8   6 254.642 10.1901   5
   8   8  -6 250.395 11.1731   7
  -8   8   6 243.339 11.2196   3
   8   8  -6 246.869 12.0080   1
   6  -8  -6 334.254 12.8286   1
  -6  -8   6 349.705 13.4160   1
   6  -8  -6 349.628 11.5932   6
   6  -8  -6 336.418 15.3082  13
  -6   8   6 336.045 10.9383   5
  -6   8   6 342.605 10.8019   9
  -6   8   6 318.671 12.1416   3
   6   8  -6 330.981 12.5315   7
   6   8  -6 328.705 11.1369  11
   4  -8  -6 568.489 17.1722   1
  -4  -8   6 545.576 14.9117   6
  -4  -8   6 538.796 16.5473   1
   4  -8  -6 544.557 18.3469  13
  -4   8   6 525.551 15.6492   3
  -4   8   6 530.798 15.7836   1
   4   8  -6 534.392 16.2802   4
   4   8  -6 553.872 14.4813  11
  -4   8   6 529.751 14.2645   9
   4   8  -6 528.423 16.2981   7
  -2  -8   6 676.102 17.9516   1
   2  -8  -6 639.367 18.8151  13
   2  -8  -6 663.812 19.1731   1
  -2  -8   6 658.791 16.5977   6
   2   8  -6 663.155 18.9012   7
  -2   8   6 659.205 18.1645   3
   2   8  -6 665.271 19.4356   4
  -2   8   6 650.087 18.9565   1
  -2   8   6 664.975 16.7235   9
   0  -8  -6 787.046 21.0851   1
   0  -8   6 734.051 17.5554   6
   0  -8  -6 752.171 20.0586   2
   0  -8   6 759.292 18.5570   1
   0   8   6 769.510 22.0174   1
   0   8  -6 765.538 21.8863   4
   0   8   6 754.594 19.0370   9
   0   8  -6 750.692 20.7754   7
   0   8   6 752.540 20.4162   3
  -2  -8  -6 642.826 18.5331  14
   2  -8   6 635.721 14.8577   6
  -2  -8  -6 648.147 19.0607   2
  -2   8  -6 633.198 19.7530   4
  -2   8  -6 671.600 19.6764   7
   2   8   6 657.770 18.0012   9
   2   8   6 647.716 20.7804   1
  -4  -8  -6 421.655 14.1974   8
  -4  -8  -6 405.609 15.0486   2
  -4  -8  -6 386.138 13.6987  14
   4  -8   6 401.068 9.70314   6
   4   8   6 400.269 14.1311   9
  -4   8  -6 440.519 15.5217   4
   4   8   6 407.678 15.9629   1
  -9  -9   6 56.1430 5.54580   8
   9  -9  -6 61.7178 5.31948   6
   9  -9  -6 65.1702 5.89491   1
  -9  -9   6 73.2579 6.92190   1
   9   9  -6 46.9451 6.16204   1
  -9   9   6 59.1029 6.38186   3
   9   9  -6 55.6045 5.27819  11
   7  -9  -6 78.9952 6.41917   1
  -7  -9   6 76.6188 7.01623   1
   7  -9  -6 69.4091 5.04397   6
  -7  -9   6 66.5599 5.41573   8
  -7   9   6 72.6034 6.39917   3
   7   9  -6 78.1978 5.81259  11
   7   9  -6 77.7458 6.12304   7
  -7   9   6 72.0209 5.03038   9
  -5  -9   6 36.4771 5.02067   1
   5  -9  -6 26.7990 5.04014  13
   5  -9  -6 40.7240 5.02752   1
   5   9  -6 40.0982 4.28505  11
  -5   9   6 30.7237 3.35478   9
  -5   9   6 34.4383 4.53471   3
   5   9  -6 29.9664 4.15591   4
   5   9  -6 32.2906 4.35184   7
  -3  -9   6 173.449 8.58136   1
   3  -9  -6 152.965 9.03482  13
  -3  -9   6 161.362 7.01413   6
   3  -9  -6 151.448 8.40170   1
  -3   9   6 152.489 6.59892   9
   3   9  -6 157.956 8.61939   7
   3   9  -6 155.299 8.43970   4
   3   9  -6 162.323 6.98521  11
  -3   9   6 153.152 8.09858   3
  -1  -9   6 33.5358 3.32835   6
   1  -9  -6 20.1889 3.83421   1
  -1  -9   6 21.5517 3.14121   1
  -1   9   6 20.7789 2.99462   9
   1   9  -6 25.2760 3.93636   7
  -1   9   6 24.8555 4.28094   1
   1   9  -6 19.9346 3.72901   4
  -1   9   6 25.7435 4.00006   3
  -1  -9  -6 62.6547 5.55135   2
   1  -9   6 60.5100 4.02954   6
  -1  -9  -6 60.0874 5.73857  14
  -1   9  -6 58.9639 5.87534   7
  -1   9  -6 57.8927 5.58619   4
   1   9   6 65.0420 6.49960   1
   1   9   6 56.5900 4.80324   9
  -3  -9  -6 33.1270 4.44773  14
  -3  -9  -6 25.1816 4.34302   2
   3  -9   6 28.3252 2.59729   6
  -3   9  -6 20.9334 4.27147   4
   3   9   6 27.7845 5.04477   1
   3   9   6 32.4956 4.36511   9
  -3   9  -6 40.3117 5.22444   7
  -8 -10   6 1314.55 34.0226   1
   8 -10  -6 1286.54 30.7719   6
   8 -10  -6 1290.72 32.5052   1
   8  10  -6 1255.55 31.4108  11
  -8  10   6 1282.73 33.0530   3
  -6 -10   6 9.74765 2.67569   8
   6 -10  -6 9.40916 3.29595   1
  -6 -10   6 9.97457 3.43932   1
   6  10  -6 13.7678 3.14489  11
   6  10  -6 11.6216 3.50695   7
  -6  10   6 20.8345 3.01308   9
  -6  10   6 18.0652 3.81793   3
  -4 -10   6 1662.21 37.3438   6
   4 -10  -6 1739.76 40.7738   1
  -4 -10   6 1744.88 40.1899   1
   4 -10  -6 1746.89 42.9648  13
   4  10  -6 1712.39 39.4273   4
   4  10  -6 1720.85 40.1267   7
   4  10  -6 1706.98 37.0557  11
  -4  10   6 1689.46 36.0366   9
  -4  10   6 1656.88 39.0130   3
  -2 -10   6 5.47741 2.37402   1
  -2 -10   6 4.24192 1.98860   6
   2 -10  -6 5.11407 2.78679   1
   2  10  -6 7.67434 2.57348   4
  -2  10   6 3.45489 2.35202   1
   2  10  -6 3.90421 2.80245   7
  -2  10   6 5.80987 1.94019   9
  -2  10   6 2.63123 2.45826   3
   0 -10  -6 1272.78 30.9357   2
   0 -10   6 1322.12 28.7601   6
   0  10  -6 1307.68 32.7965   7
   0  10   6 1234.56 31.7734   3
   0  10  -6 1353.80 33.8946   4
   0  10   6 1263.61 29.1211   9
  -2 -10  -6 4.74536 2.31792   2
  -2 -10  -6 4.74313 2.84606  14
   2 -10   6 4.42322 1.66632   6
   2  10   6 5.39166 3.13091   1
  -2  10  -6 1.86379 2.13158   7
  -2  10  -6 7.43711 2.85619   4
   7 -11  -6 74.5171 6.69542   1
  -7 -11   6 77.5690 6.94915   1
  -7  11   6 80.3901 6.77629   3
   7  11  -6 84.2586 6.48885  11
   5 -11  -6 71.7797 6.72055   1
  -5 -11   6 73.1355 6.82177   1
  -5  11   6 61.5668 6.23060   3
   5  11  -6 63.4446 6.52114   7
   5  11  -6 61.3682 5.01906  11
   3 -11  -6 154.406 9.55044   1
  -3 -11   6 158.613 8.69827   1
  -3 -11   6 157.751 7.92341   6
  -3  11   6 146.462 8.81467   3
   3  11  -6 144.065 8.63923   4
   3  11  -6 164.086 9.74078   7
   1 -11  -6 77.5704 7.01469   1
  -1 -11   6 69.1070 4.99476   6
   1  11  -6 72.3029 6.49555   4
  -1  11   6 61.7905 6.26317   1
   1  11  -6 74.3583 6.47907   7
  -1  11   6 68.2696 6.49921   3
  -1 -11  -6 125.523 8.32243  14
  -1 -11  -6 106.915 7.48358   2
   1 -11   6 126.780 6.30767   6
   1  11   6 109.762 8.30171   3
  -1  11  -6 122.259 9.06377   4
   1  11   6 113.450 8.77229   1
  -1  11  -6 137.708 8.92043   7
   4 -12  -6 296.122 13.5192   1
  -4 -12   6 289.062 13.0042   1
  -4  12   6 257.315 12.3304   3
   4  12  -6 286.976 13.3194   7
  -2 -12   6 284.144 11.1048   6
  -2 -12   6 330.573 13.0529   1
   2  12  -6 315.139 14.0910   4
  -2  12   6 294.054 13.2684   3
   2  12  -6 294.186 13.6423   7
   0 -12   6 286.681 10.4337   6
   0 -12   6 231.225 14.4749   1
   0  12  -6 270.218 12.9257   7
   0  12   6 275.216 12.9246   3
   0  12  -6 285.213 13.6403   4
  12   0  -7 -0.8421 2.57901   1
  12   0  -7 1.71827 2.61502  11
 -12   0   7 -0.0903 2.24334   5
  10   0  -7 1.69080 2.57065  13
 -10   0   7 8.04978 2.66753   5
 -10   0   7 4.86738 1.67040   8
  10   0  -7 -0.0360 1.92732  11
 -10   0   7 3.07982 1.89094  12
  10   0  -7 6.24069 2.78670   1
   8   0  -7 1.01729 2.17923  13
   8   0  -7 1.04110 1.35718  11
  -8   0   7 1.42035 1.37722  12
   8   0  -7 -0.0299 1.33676   4
   8   0  -7 3.40706 2.17487   1
  -8   0   7 2.94132 1.64158   1
  -6   0   7 0.56817 0.74708   9
  -6   0   7 0.42250 1.04518   1
  -6   0   7 1.78000 1.92272  10
   6   0  -7 1.38878 1.20966   1
   6   0  -7 0.03573 1.20784  13
   6   0  -7 4.41639 1.07675  11
   6   0  -7 0.65124 0.89465   4
  -6   0   7 0.48090 0.77463  12
  -4   0   7 -0.1384 1.03165  10
   4   0  -7 2.85455 1.39227   4
  -4   0   7 1.88833 1.04927   9
  -4   0   7 0.08233 0.63808  12
   4   0  -7 0.68732 1.08525  14
   4   0  -7 3.71962 1.24600   1
   4   0  -7 0.67244 1.06998  13
   4   0  -7 0.77572 0.67724   2
  -4   0   7 0.02856 0.87046   6
  -4   0   7 0.77639 1.26933   1
  -2   0   7 0.17202 1.25781  10
   2   0  -7 1.06845 0.92454   7
   2   0  -7 0.03814 0.75302   4
  -2   0   7 0.98110 1.22756   1
   2   0  -7 1.29941 1.24795  14
  -2   0   7 0.44463 1.00293  12
  -2   0   7 0.54425 0.90915   6
   2   0  -7 -0.6696 0.69879   2
   2   0  -7 1.32689 0.94296   1
  -2   0   7 -0.1273 0.90763   9
   0   0  -7 1.03765 1.07955   8
   0   0  -7 -0.5227 1.30033   2
   0   0   7 1.00728 0.91677   6
   0   0   7 -0.2896 1.10910   9
   0   0  -7 3.90276 1.73021  14
   0   0  -7 2.58388 1.09333   4
   0   0   7 3.89002 1.44295  12
   0   0   7 -0.4511 1.34466  10
   0   0   7 0.67440 1.01991   1
   2   0   7 1.37392 1.32464   1
  -2   0  -7 0.50104 1.26178   2
   2   0   7 0.88359 1.45562   9
  -2   0  -7 1.02784 1.60250  14
  -2   0  -7 0.75085 1.26573   4
  -2   0  -7 -0.7496 1.57838   8
   2   0   7 2.43253 1.09008   6
   2   0   7 11.4290 3.44012  10
  -4   0  -7 0.74576 1.67819   8
  -4   0  -7 3.06720 1.56873  14
  -4   0  -7 0.34941 2.03708   2
   4   0   7 2.13559 1.18323   6
   4   0   7 -0.1981 1.32542   9
   6   0   7 0.72665 1.38091   6
  -6   0  -7 0.77148 2.56041   8
  -6   0  -7 3.11815 2.66161   2
   6   0   7 3.19771 2.52735   9
  11  -1  -7 264.930 11.9821   1
 -11  -1   7 237.358 10.0231   5
  11  -1  -7 240.134 10.3105  11
 -11  -1   7 251.919 9.46674   8
 -11  -1   7 245.889 9.52312  12
 -11   1   7 244.987 9.11284  12
  11   1  -7 262.675 12.2641   1
 -11   1   7 243.450 10.6323   5
  11   1  -7 245.755 10.5875  11
   9  -1  -7 830.218 20.6199   6
  -9  -1   7 809.326 20.9955   1
   9  -1  -7 832.939 19.9776  11
   9  -1  -7 810.526 25.6259  13
  -9  -1   7 810.484 19.3734  12
   9  -1  -7 696.551 19.7728   4
   9  -1  -7 825.482 22.6637   1
  -9   1   7 820.531 19.1603  12
   9   1  -7 793.218 24.7421  13
   9   1  -7 828.804 19.9894  11
  -9   1   7 775.875 20.1048   3
   9   1  -7 821.527 22.9488   1
  -7  -1   7 368.337 10.2648  12
  -7  -1   7 364.590 11.8708   1
  -7  -1   7 353.166 10.1410   9
   7  -1  -7 358.277 9.61485  11
   7  -1  -7 372.045 12.4591   1
   7  -1  -7 366.933 14.4617  13
  -7   1   7 359.009 10.5279   9
  -7   1   7 368.739 11.7116   1
   7   1  -7 356.409 9.72188  11
   7   1  -7 356.441 13.9202  13
   7   1  -7 363.190 10.9857   4
   7   1  -7 377.661 12.5785   1
  -7   1   7 376.386 10.2101  12
   5  -1  -7 2148.24 46.2122  13
  -5  -1   7 2137.22 48.3395  10
  -5  -1   7 2105.08 41.2085  12
   5  -1  -7 2091.79 41.7952  14
  -5  -1   7 2047.85 41.2860   6
   5  -1  -7 2094.91 43.6825   1
  -5  -1   7 2110.44 43.5910   1
  -5  -1   7 2128.26 41.0176   9
  -5   1   7 2158.24 41.5551   9
  -5   1   7 2161.59 41.1995  12
  -5   1   7 2089.38 48.5252  10
   5   1  -7 2130.91 43.5061   1
  -5   1   7 2119.37 43.4755   1
   5   1  -7 2108.74 46.2109  13
   5   1  -7 2165.13 42.7424   4
  -3  -1   7 464.914 16.2377  10
   3  -1  -7 437.368 11.6737   2
   3  -1  -7 452.301 13.7840  13
  -3  -1   7 438.599 10.8496   9
   3  -1  -7 446.411 12.2283  14
  -3  -1   7 434.311 12.3928   1
  -3  -1   7 448.277 11.2103  12
   3  -1  -7 446.859 11.9988   4
  -3  -1   7 455.294 11.3180   6
   3  -1  -7 464.493 12.2432   1
   3   1  -7 437.207 12.0135   2
  -3   1   7 427.817 12.5549   1
  -3   1   7 443.252 16.2250  10
  -3   1   7 445.425 11.3386   9
   3   1  -7 428.639 12.3261  14
  -3   1   7 478.335 11.3988   6
  -3   1   7 444.262 11.1684  12
   3   1  -7 451.179 12.2102   4
   3   1  -7 428.385 11.5093   1
   3   1  -7 453.832 11.7732   7
   1  -1  -7 2573.26 51.1824  14
  -1  -1   7 2534.04 50.3983   1
  -1  -1   7 2661.44 49.9230  12
  -1  -1   7 2526.38 56.8865  10
   1  -1  -7 2612.54 50.2798   4
  -1  -1   7 2572.55 49.3493   9
   1  -1  -7 2598.74 51.6197   2
  -1  -1   7 2585.15 49.0739   6
   1  -1  -7 2506.80 48.2984   7
  -1   1   7 2526.06 57.5005  10
   1   1  -7 2570.16 51.8447   2
  -1   1   7 2566.82 51.0580   1
   1   1  -7 2541.88 49.1769   7
  -1   1   7 2601.28 49.5617   6
   1   1  -7 2596.31 50.6283   4
   1   1  -7 2636.33 51.8368  14
  -1   1   7 2636.81 50.0466   9
  -1   1   7 2636.37 49.7826  12
  -1  -1  -7 216.816 8.36665   8
   1  -1   7 213.581 11.9137  10
   1  -1   7 216.809 7.23330   1
  -1  -1  -7 214.428 8.21041  14
  -1  -1  -7 216.343 7.41364   4
   1  -1   7 220.089 6.55876   6
   1  -1   7 215.899 7.51655   9
  -1  -1  -7 221.667 9.14341   2
   1   1   7 233.816 8.18505   1
   1   1   7 221.879 8.01254   9
  -1   1  -7 209.710 8.58200  14
  -1   1  -7 224.609 9.25766   2
  -1   1  -7 235.873 8.12342   4
   1   1   7 207.730 11.9060  10
   1   1   7 222.371 7.13831   6
  -1   1  -7 216.186 8.46381   8
  -3  -1  -7 1309.49 30.1265  14
   3  -1   7 1323.80 26.7688   6
   3  -1   7 1329.58 29.3171   9
  -3  -1  -7 1321.97 31.5354   2
  -3  -1  -7 1330.64 31.0185   8
   3   1   7 1262.59 28.5953   1
  -3   1  -7 1330.37 30.4973  14
   3   1   7 1340.62 27.9589   6
  -3   1  -7 1323.30 30.8300   8
  -3   1  -7 1348.45 31.7414   2
   3   1   7 1314.68 29.8280   9
   5  -1   7 91.3841 6.08276   9
  -5  -1  -7 89.5276 6.19066  14
  -5  -1  -7 105.093 6.81071   2
  -5  -1  -7 91.3161 6.36052   8
   5  -1   7 94.4203 4.44060   6
  -5   1  -7 96.9269 6.17267  14
  -5   1  -7 96.5842 6.70550   8
   5   1   7 100.473 5.37419   6
   5   1   7 93.5278 6.49942   9
  -5   1  -7 99.6528 6.93386   2
 -12  -2   7 137.637 7.92406   5
  12  -2  -7 155.961 8.30012  11
 -12  -2   7 145.369 7.65330   8
  12   2  -7 144.257 9.53469   1
  12   2  -7 147.244 8.81062  11
 -12   2   7 145.772 8.83106   5
 -10  -2   7 256.950 9.79996   5
  10  -2  -7 249.395 10.0098   6
  10  -2  -7 233.988 12.9054  13
  10  -2  -7 243.151 9.63914  11
 -10  -2   7 242.220 9.13386   8
 -10  -2   7 249.787 9.30327  12
  10  -2  -7 250.047 11.2959   1
 -10   2   7 253.947 10.2007   5
 -10   2   7 239.734 10.1636   3
 -10   2   7 250.940 8.76561  12
  10   2  -7 253.193 11.7488   1
  10   2  -7 261.808 10.2971  11
   8  -2  -7 326.578 9.81221  11
   8  -2  -7 309.689 10.3866   6
  -8  -2   7 336.266 10.0721  12
  -8  -2   7 347.210 11.8221   1
   8  -2  -7 325.927 12.0112   1
   8  -2  -7 320.647 14.0836  13
  -8   2   7 323.387 9.41293  12
  -8   2   7 316.642 10.5154   3
   8   2  -7 315.327 9.77821  11
   8   2  -7 312.671 13.5912  13
   8   2  -7 329.680 12.5258   1
  -8   2   7 322.806 10.2761   9
  -8   2   7 298.339 10.3581   1
  -6  -2   7 683.524 15.9037  12
  -6  -2   7 676.577 17.8446   1
  -6  -2   7 675.167 15.3961   9
   6  -2  -7 696.754 18.2931   1
   6  -2  -7 663.971 20.0457  13
  -6   2   7 652.573 15.9129   3
  -6   2   7 675.734 16.1630   9
  -6   2   7 688.014 15.4595  12
   6   2  -7 676.893 16.9044   4
   6   2  -7 666.172 20.0786  13
  -6   2   7 648.403 21.5828  10
   6   2  -7 687.874 18.1767   1
  -6   2   7 689.464 17.7386   1
   6   2  -7 661.279 14.7772  11
  -4  -2   7 633.827 19.9225  10
   4  -2  -7 648.054 15.8598  14
  -4  -2   7 646.461 15.0626   6
  -4  -2   7 645.194 16.6188   1
   4  -2  -7 662.129 18.5214  13
   4  -2  -7 635.677 16.5401   1
  -4  -2   7 657.087 15.0085  12
  -4  -2   7 634.867 14.1724   9
   4  -2  -7 646.465 14.6465   2
  -4   2   7 656.230 14.6943  12
   4   2  -7 661.392 16.3177   4
   4   2  -7 630.458 15.8400   1
   4   2  -7 635.361 15.9812  14
  -4   2   7 647.598 15.1609   9
  -4   2   7 612.124 14.8523   6
  -4   2   7 638.411 16.6395   1
  -4   2   7 625.544 20.3286  10
   4   2  -7 642.067 15.9452   7
  -2  -2   7 798.311 17.5717   6
   2  -2  -7 773.092 18.4242   1
   2  -2  -7 816.507 20.3317  13
   2  -2  -7 800.275 19.1452  14
   2  -2  -7 800.858 18.5546   4
   2  -2  -7 777.659 18.7799   2
  -2  -2   7 797.403 18.8278   1
  -2  -2   7 778.988 23.0263  10
  -2  -2   7 801.724 17.1516   9
  -2  -2   7 822.569 18.0123  12
  -2   2   7 808.845 18.2140   9
  -2   2   7 797.398 17.6880  12
  -2   2   7 797.642 17.9552   6
  -2   2   7 804.989 24.0125  10
   2   2  -7 822.177 18.3516   7
   2   2  -7 789.290 19.4707   2
   2   2  -7 818.574 19.1941   4
   2   2  -7 810.072 19.7966  14
  -2   2   7 809.029 19.6831   1
   0  -2  -7 763.752 17.7829   4
   0  -2   7 761.545 16.5984   6
   0  -2   7 798.885 17.7380   1
   0  -2  -7 758.222 18.6508   8
   0  -2  -7 766.009 19.0015  14
   0  -2   7 760.268 17.7109  12
   0  -2  -7 781.691 19.6575   2
   0  -2   7 735.803 17.1303   9
   0  -2   7 741.845 23.6645  10
   0   2  -7 764.176 18.7055   4
   0   2   7 770.046 19.1653   1
   0   2  -7 795.683 19.8445  14
   0   2   7 769.867 18.2998   9
   0   2  -7 770.575 17.3916   7
   0   2   7 767.998 17.7386  12
   0   2   7 788.940 25.1073  10
   0   2   7 765.589 17.6763   6
   0   2  -7 778.630 19.9994   2
   2  -2   7 449.838 18.5297  10
  -2  -2  -7 465.396 13.8410  14
   2  -2   7 454.899 10.7609   6
   2  -2   7 384.288 11.8652   1
  -2  -2  -7 459.709 14.4113   2
   2  -2   7 467.861 12.6631   9
  -2  -2  -7 463.010 14.1682   8
  -2   2  -7 472.971 14.2556   8
   2   2   7 466.915 12.4879   6
  -2   2  -7 461.946 13.2816   4
   2   2   7 469.510 13.4972   1
   2   2   7 478.451 13.5947   9
  -2   2  -7 471.642 14.2189  14
  -2   2  -7 477.881 14.9572   2
  -4  -2  -7 401.270 13.1529  14
  -4  -2  -7 402.003 13.8520   8
  -4  -2  -7 391.896 14.0395   2
   4  -2   7 415.171 12.6430   9
   4  -2   7 397.361 9.84788   6
   4   2   7 400.653 13.4353   9
  -4   2  -7 403.136 14.2068   2
   4   2   7 385.844 12.3074   1
  -4   2  -7 393.517 13.2464  14
   4   2   7 402.662 11.9097   6
  -4   2  -7 411.388 13.9143   8
  -6  -2  -7 211.189 10.3470   8
  -6  -2  -7 216.587 10.6260   2
   6  -2   7 207.232 6.63828   6
  -6   2  -7 206.309 9.99399   2
   6   2   7 210.803 8.56936   6
   6   2   7 207.443 9.96744   9
  -6   2  -7 223.789 10.2795   8
 -11  -3   7 939.742 23.4757   8
  11  -3  -7 933.265 25.7480   1
 -11  -3   7 911.719 22.9062  12
  11  -3  -7 914.586 23.5831  11
 -11   3   7 896.612 24.8435   3
  11   3  -7 934.891 27.1632   1
 -11   3   7 906.716 24.7483   5
  11   3  -7 922.653 24.4685  11
   9  -3  -7 217.080 10.0702   1
   9  -3  -7 220.678 12.4332  13
  -9  -3   7 215.322 9.62354   1
   9  -3  -7 229.913 8.92654   6
  -9  -3   7 218.091 8.18239  12
  -9   3   7 230.312 9.56134   3
   9   3  -7 222.573 10.8120   1
  -9   3   7 224.996 7.69570  12
   9   3  -7 228.193 8.87355  11
  -7  -3   7 1456.87 30.5273  12
   7  -3  -7 1426.28 36.5279  13
   7  -3  -7 1450.78 31.4170   6
   7  -3  -7 1471.83 33.6142   1
  -7  -3   7 1482.07 33.3410   1
  -7   3   7 1479.22 31.1526   9
  -7   3   7 1438.01 31.5483   3
   7   3  -7 1407.80 30.0130  11
  -7   3   7 1409.70 31.9516   1
   7   3  -7 1562.96 34.2635   1
   7   3  -7 1519.18 31.8564   4
  -7   3   7 1452.87 29.8097  12
  -5  -3   7 417.878 12.7081   1
   5  -3  -7 425.940 14.5710  13
   5  -3  -7 427.204 11.5628  14
  -5  -3   7 414.499 11.2165   6
  -5  -3   7 401.766 10.0456   9
  -5  -3   7 410.968 15.3125  10
  -5  -3   7 434.293 11.1110  12
   5  -3  -7 435.786 13.1185   1
   5   3  -7 402.645 12.2643   1
  -5   3   7 415.509 16.0820  10
  -5   3   7 423.674 12.6507   1
  -5   3   7 425.348 11.3963   9
  -5   3   7 404.815 10.9579   3
   5   3  -7 404.526 11.4719  14
  -5   3   7 416.181 10.5682  12
   5   3  -7 429.893 12.3846   4
   5   3  -7 421.126 12.4541   7
   3  -3  -7 1376.54 28.9711   2
  -3  -3   7 1381.65 28.6954   6
  -3  -3   7 1408.53 34.2689  10
  -3  -3   7 1394.72 30.3099   1
  -3  -3   7 1342.44 27.3320   9
   3  -3  -7 1424.46 32.1215  13
  -3  -3   7 1412.56 28.6592  12
   3  -3  -7 1390.39 30.4830   1
   3  -3  -7 1425.39 30.1307  14
   3   3  -7 1454.03 30.0362   7
  -3   3   7 1395.17 31.0275   1
   3   3  -7 1443.19 30.5759   4
  -3   3   7 1406.27 35.8147  10
  -3   3   7 1398.85 28.9990   6
  -3   3   7 1436.11 28.4696  12
   3   3  -7 1401.63 30.7639  14
  -3   3   7 1434.11 29.3379   9
  -1  -3   7 450.049 10.9526   9
   1  -3  -7 459.636 13.2911  13
   1  -3  -7 428.157 12.0922   1
   1  -3  -7 444.038 12.1553   8
   1  -3  -7 462.353 12.2369   4
   1  -3  -7 462.117 13.1745   2
  -1  -3   7 463.746 11.2454   6
   1  -3  -7 460.278 13.0431  14
  -1  -3   7 463.470 12.1972   1
  -1  -3   7 434.899 16.0245  10
  -1  -3   7 458.995 11.8406  12
  -1   3   7 456.599 12.2584   9
  -1   3   7 440.820 11.9471   6
  -1   3   7 453.130 11.6368  12
   1   3  -7 465.930 13.2847   4
   1   3  -7 487.165 12.4130   7
  -1   3   7 472.178 13.7052   1
   1   3  -7 459.172 13.7293   2
   1   3  -7 470.599 13.9649  14
  -1   3   7 478.342 17.8100  10
   1  -3   7 1003.59 20.6243   6
  -1  -3  -7 1000.82 24.4564   2
  -1  -3  -7 990.535 22.0424   4
   1  -3   7 1006.52 22.5030  12
  -1  -3  -7 979.285 23.7423   8
   1  -3   7 1009.88 21.4540   1
   1  -3   7 981.275 21.7812   9
  -1  -3  -7 1025.67 24.0085  14
   1  -3   7 988.071 29.2260  10
  -1   3  -7 1022.29 23.9842   4
   1   3   7 1032.30 24.3672   1
  -1   3  -7 1018.46 22.5555   7
   1   3   7 1029.79 23.5017   9
   1   3   7 1021.19 22.7889   6
  -1   3  -7 1050.94 25.4736   2
   1   3   7 979.808 30.7198  10
  -1   3  -7 1016.58 24.8617  14
  -3  -3  -7 340.323 11.7047  14
   3  -3   7 323.066 10.3411   9
  -3  -3  -7 332.529 12.1598   8
  -3  -3  -7 369.897 12.9646   2
   3  -3   7 344.147 8.37021   6
   3   3   7 345.880 11.9785   9
  -3   3  -7 342.716 12.7583   2
  -3   3  -7 327.276 12.1182  14
   3   3   7 345.800 10.9216   6
  -3   3  -7 335.118 12.0311   8
   3   3   7 339.850 11.7053   1
  -3   3  -7 347.087 11.4923   4
   5  -3   7 615.360 13.5586   6
  -5  -3  -7 651.648 19.4089   8
  -5  -3  -7 634.300 19.5527   2
   5   3   7 624.851 17.0905   6
  -5   3  -7 604.930 18.9273   2
  -5   3  -7 633.829 18.7111   8
   5   3   7 613.886 17.5228   1
   5   3   7 632.185 18.8508   9
 -12   4   7 121.055 7.83547   3
 -10  -4   7 114.965 6.37141  12
  10  -4  -7 108.338 9.45928  13
  10  -4  -7 124.316 6.93663   6
  10  -4  -7 116.252 7.52045   1
 -10  -4   7 115.331 6.72900   8
 -10   4   7 117.593 5.68548  12
  10   4  -7 119.209 7.23547  11
 -10   4   7 111.880 7.33040   3
  10   4  -7 119.835 8.05052   7
  10   4  -7 122.807 8.78992   1
 -10   4   7 115.110 7.26521   5
   8  -4  -7 65.7772 5.53600   1
   8  -4  -7 70.4394 7.19769  13
  -8  -4   7 60.9012 4.29584  12
  -8  -4   7 67.2414 5.59155   1
   8  -4  -7 70.0132 4.91544   6
   8   4  -7 69.2289 6.08956   1
   8   4  -7 67.4955 4.50358  11
  -8   4   7 59.2617 4.43142   9
  -8   4   7 61.8506 4.67282   3
  -8   4   7 78.5867 4.07254  12
   8   4  -7 68.0698 5.65326   7
   6  -4  -7 196.085 7.33663   6
  -6  -4   7 201.219 8.79496   1
   6  -4  -7 197.063 8.69726   1
   6  -4  -7 171.610 6.88164  14
   6  -4  -7 201.059 10.1865  13
  -6  -4   7 190.178 7.14933   6
  -6  -4   7 197.922 6.87149  12
   6   4  -7 192.650 8.45819   1
   6   4  -7 188.262 8.25388   7
  -6   4   7 195.347 7.32784   9
   6   4  -7 189.645 6.41003  11
  -6   4   7 193.391 6.30813  12
  -6   4   7 190.973 7.44034   3
  -6   4   7 188.945 10.7505  10
  -6   4   7 198.179 8.08188   1
   6   4  -7 196.070 7.83316   4
   4  -4  -7 27.6942 3.90089  13
   4  -4  -7 28.6799 3.11355   1
  -4  -4   7 28.0524 3.27141   1
  -4  -4   7 29.2852 2.61780  12
   4  -4  -7 32.5400 3.03925  14
  -4  -4   7 28.6096 3.88521  10
  -4  -4   7 30.9300 2.56541   6
  -4   4   7 33.6029 3.46958   1
   4   4  -7 25.8610 3.25208   4
  -4   4   7 27.0880 2.31674  12
  -4   4   7 28.5045 3.03462   9
  -4   4   7 27.8035 2.53151   3
   4   4  -7 31.1127 3.12464  14
  -4   4   7 28.0975 4.03952  10
   4   4  -7 26.7506 3.15670   7
   2  -4  -7 51.0249 3.63897   2
   2  -4  -7 49.4592 3.76246   1
  -2  -4   7 53.8797 3.33237  12
  -2  -4   7 53.0269 4.87561  10
   2  -4  -7 53.1383 3.81923  14
  -2  -4   7 52.7811 3.20161   6
   2  -4  -7 55.1224 4.37902  13
  -2  -4   7 46.6721 3.51704   1
  -2   4   7 49.8562 3.05721  12
  -2   4   7 52.0663 3.76051   9
   2   4  -7 53.1472 4.31253  14
   2   4  -7 52.3241 3.81938   7
  -2   4   7 51.7188 3.18288   3
  -2   4   7 57.3917 4.55448   1
  -2   4   7 49.2849 5.35036  10
   2   4  -7 53.4773 4.29115   4
  -2   4   7 51.4475 3.28307   6
   0  -4  -7 62.0502 4.78168   2
   0  -4  -7 75.7278 4.87117  14
   0  -4   7 69.2183 3.72247   1
   0  -4   7 64.7445 3.85665  12
   0  -4  -7 61.1852 4.10819   8
   0  -4   7 66.1030 3.26255   6
   0  -4   7 64.0923 5.92150  10
   0  -4  -7 72.2309 4.03125   4
   0   4   7 71.4839 4.00276  12
   0   4   7 70.9021 4.38232   9
   0   4  -7 72.3316 4.45516   7
   0   4   7 73.3882 7.26969  10
   0   4   7 73.3649 5.03761   1
   0   4  -7 64.2818 4.76383  14
   0   4   7 62.0276 4.10279   6
   0   4  -7 72.7353 5.37417   2
   0   4  -7 67.5052 4.91075   4
  -2  -4  -7 0.81842 1.24034  14
   2  -4   7 5.48609 1.49537  12
  -2  -4  -7 1.00469 2.00837   2
  -2  -4  -7 -0.0733 1.66381   8
   2  -4   7 2.80308 1.03983   6
  -2   4  -7 0.87500 1.88213  14
   2   4   7 2.65497 1.64595   6
  -2   4  -7 0.38157 1.33055   7
   2   4   7 1.32513 1.81868   9
   2   4   7 11.0074 2.72893   1
  -2   4  -7 2.42046 1.88349   4
  -2   4  -7 2.28024 1.59776   2
   4  -4   7 49.2344 2.42152   6
  -4  -4  -7 37.4825 4.83824   2
  -4  -4  -7 54.3388 4.96423   8
  -4  -4  -7 51.6574 4.48538  14
  -4   4  -7 48.6299 5.10391   2
  -4   4  -7 52.4840 4.96616   8
   4   4   7 50.8762 4.87177   1
  -4   4  -7 45.5783 4.48159  14
   4   4   7 56.2169 4.59676   6
   4   4   7 53.0187 4.81994   9
  -6  -4  -7 3.57473 2.95866   2
  -6  -4  -7 4.20856 2.94469   8
   6  -4   7 5.30422 1.03629   6
  -6   4  -7 6.55891 2.70874   8
   6   4   7 6.48877 2.67272   6
   6   4   7 2.96055 2.73663   9
   6   4   7 5.20489 2.20877   1
  11  -5  -7 150.986 8.06200  11
  11  -5  -7 142.569 7.80774   6
 -11  -5   7 143.489 7.68539   8
  11  -5  -7 146.974 8.78696   1
  11   5  -7 149.814 9.27677   7
  11   5  -7 156.023 10.4060   1
 -11   5   7 148.824 8.85874   5
  11   5  -7 142.048 8.60728  11
 -11   5   7 147.091 8.66813   3
  -9  -5   7 469.612 13.8491  12
   9  -5  -7 453.770 19.5208  13
   9  -5  -7 485.582 14.8911   6
   9  -5  -7 478.609 16.0556   1
  -9  -5   7 458.211 15.7635   1
  -9   5   7 476.866 15.5533   3
   9   5  -7 477.011 14.5773  11
  -9   5   7 500.229 15.4138   5
   9   5  -7 479.917 17.2974   1
   9   5  -7 469.487 16.1795   7
   7  -5  -7 344.877 12.5362   1
   7  -5  -7 336.227 14.7590  13
  -7  -5   7 335.100 10.2958  12
   7  -5  -7 336.973 10.9760   6
  -7  -5   7 354.142 12.6739   1
   7   5  -7 347.185 12.8270   1
  -7   5   7 331.648 11.4990   3
   7   5  -7 344.527 12.3508   7
   7   5  -7 329.311 10.1556  11
  -7   5   7 335.511 9.21574  12
  -7   5   7 342.494 10.9021   9
  -5  -5   7 1263.49 27.1119  12
  -5  -5   7 1299.62 30.2256   1
   5  -5  -7 1299.58 28.5090  14
   5  -5  -7 1309.38 32.5712  13
  -5  -5   7 1299.66 27.9550   6
   5  -5  -7 1347.51 30.7198   1
  -5   5   7 1295.68 28.3157   3
  -5   5   7 1239.36 33.9365  10
  -5   5   7 1346.07 28.1760   9
   5   5  -7 1306.94 29.7927   4
   5   5  -7 1332.08 29.7472   7
   5   5  -7 1258.19 28.9726   1
  -5   5   7 1303.15 29.6896   1
   5   5  -7 1277.95 28.6733  14
  -3  -5   7 725.236 16.7927   6
  -3  -5   7 690.358 18.0090   1
   3  -5  -7 678.306 16.4762   2
  -3  -5   7 714.764 16.2896  12
   3  -5  -7 711.659 19.6533  13
   3  -5  -7 705.012 18.7871   1
   3  -5  -7 723.581 18.1415  14
  -3   5   7 680.222 15.6219  12
  -3   5   7 707.462 22.6853  10
   3   5  -7 667.559 18.3747  14
   3   5  -7 703.380 18.6221   4
   3   5  -7 722.510 18.1694   7
  -3   5   7 684.477 16.7806   3
  -3   5   7 710.769 18.8754   1
  -3   5   7 723.824 17.2480   9
   1  -5  -7 1458.44 31.0050   8
   1  -5  -7 1483.14 32.7220   2
   1  -5  -7 1497.58 32.8495  14
   1  -5  -7 1465.87 32.5881   1
  -1  -5   7 1478.33 30.7580  12
  -1  -5   7 1514.16 31.4544   1
  -1  -5   7 1512.06 30.4520   6
   1   5  -7 1496.89 34.2986  14
   1   5  -7 1584.18 32.8468   7
   1   5  -7 1516.61 33.7909   4
  -1   5   7 1491.64 31.7672   6
  -1   5   7 1526.95 32.1073   9
  -1   5   7 1506.40 34.2588   1
  -1   5   7 1520.26 30.6258  12
  -1   5   7 1481.24 39.0123  10
   1  -5   7 476.386 11.2459   6
   1  -5   7 444.651 12.3597  12
  -1  -5  -7 483.109 14.9601   2
  -1  -5  -7 440.159 13.5217   8
  -1  -5  -7 469.663 14.1250  14
   1   5   7 476.105 14.0911   9
  -1   5  -7 471.135 15.3791  14
  -1   5  -7 455.644 14.5052   4
  -1   5  -7 471.311 13.7347   7
  -1   5  -7 492.438 15.4906   2
   1   5   7 482.679 15.4281   1
   1   5   7 484.869 13.8112   6
  -3  -5  -7 611.352 18.8795   2
  -3  -5  -7 661.739 18.2253  14
  -3  -5  -7 624.417 18.2623   8
   3  -5   7 636.242 13.4403   6
   3   5   7 639.029 18.4129   9
  -3   5  -7 635.212 19.0176  14
  -3   5  -7 610.039 17.9988   4
  -3   5  -7 627.306 19.2538   2
   3   5   7 625.651 17.6353   6
   3   5   7 638.389 19.1844   1
  -5  -5  -7 149.729 8.94328   2
   5  -5   7 146.489 4.16984   6
  -5  -5  -7 158.086 8.57544   8
   5   5   7 155.308 8.53262   9
   5   5   7 157.781 8.71431   1
   5   5   7 158.819 8.05025   6
  -5   5  -7 154.418 8.56211   2
 -10  -6   7 58.0810 5.34883   8
  10  -6  -7 55.0827 5.67663   1
  10  -6  -7 55.3599 5.30820   6
  10   6  -7 53.8945 6.76054   1
  10   6  -7 64.8356 5.87781  11
  10   6  -7 44.2002 5.54955   7
 -10   6   7 52.9304 5.70572   5
 -10   6   7 52.2448 5.16465   3
   8  -6  -7 131.642 10.0016  13
   8  -6  -7 141.997 7.10422   6
  -8  -6   7 133.022 6.38480  12
  -8  -6   7 134.728 8.20260   1
   8  -6  -7 135.082 8.00642   1
   8   6  -7 140.336 7.86715   7
  -8   6   7 129.473 7.46456   3
   8   6  -7 128.184 6.63301  11
  -8   6   7 139.471 6.87128   9
   8   6  -7 133.868 8.22081   1
   6  -6  -7 3.95988 1.83863   1
   6  -6  -7 4.14533 2.33442  13
  -6  -6   7 5.65908 1.47484  12
   6  -6  -7 9.96697 2.24142  14
  -6  -6   7 3.00550 2.24216   1
   6   6  -7 11.4289 2.05771  11
   6   6  -7 7.24651 2.34768   1
  -6   6   7 5.74570 2.14676   3
   6   6  -7 2.23770 1.87231   4
  -6   6   7 8.03051 2.17563   1
   6   6  -7 4.42174 1.94062   7
  -6   6   7 3.37996 1.43683   9
   4  -6  -7 83.5759 5.64993   1
   4  -6  -7 78.7414 5.15778  14
   4  -6  -7 106.471 6.99988  13
  -4  -6   7 87.6492 4.82142   6
  -4  -6   7 81.7683 4.20085  12
  -4  -6   7 83.8162 5.32724   1
   4   6  -7 91.0066 5.92888   4
  -4   6   7 86.6004 4.71980   9
  -4   6   7 85.2444 4.97369   3
   4   6  -7 88.6929 5.64528   7
  -4   6   7 78.5420 6.93589  10
   4   6  -7 81.8632 5.43087  14
  -4   6   7 80.3759 5.50401   1
   2  -6  -7 13.8604 2.65548  13
  -2  -6   7 13.4687 2.04431  12
   2  -6  -7 14.4925 2.87120  14
   2  -6  -7 15.0543 2.86337   1
   2  -6  -7 11.6783 2.20578   2
  -2  -6   7 11.6545 2.33741   1
  -2  -6   7 12.8269 2.04666   6
  -2   6   7 12.0795 3.41436  10
  -2   6   7 14.5890 2.47532   3
  -2   6   7 14.6793 2.82826   1
   2   6  -7 12.2126 2.89212  14
  -2   6   7 15.0993 2.60195   9
   2   6  -7 21.8576 3.30042   7
  -2   6   7 12.3981 1.72564  12
   2   6  -7 10.0514 2.78679   4
   0  -6   7 2.15390 1.05686   6
   0  -6  -7 -0.3477 1.55335  14
   0  -6   7 -0.4900 0.97595  12
   0  -6  -7 1.34885 1.73950   2
   0  -6   7 5.72521 1.50941   1
   0  -6  -7 -0.0460 1.22005   8
   0   6   7 -0.6214 1.92552  10
   0   6   7 2.65885 2.06428   1
   0   6   7 1.69277 1.36555   9
   0   6   7 0.32017 1.41483   6
   0   6  -7 -0.0220 1.86423   4
   0   6   7 1.75999 1.26172  12
   0   6  -7 0.52416 1.67511   7
   0   6  -7 -1.0881 1.56807  14
  -2  -6  -7 34.6534 4.65347   2
  -2  -6  -7 37.4879 4.50438  14
   2  -6   7 37.3478 2.42029   6
  -2  -6  -7 37.3707 4.23210   8
  -2   6  -7 34.7896 4.20594   7
  -2   6  -7 38.6394 5.05870  14
   2   6   7 40.0861 4.11803   6
   2   6   7 38.9932 4.56627   9
  -2   6  -7 34.8424 4.52411   4
   2   6   7 37.2773 4.78290   1
   4  -6   7 1.64076 0.79518   6
  -4  -6  -7 1.00797 2.59716   2
  -4  -6  -7 -0.4368 2.16302   8
  -4  -6  -7 4.55848 2.52084  14
   4   6   7 4.33970 2.71554   9
  -4   6  -7 1.61170 2.32274  14
   4   6   7 3.69921 2.20914   6
   4   6   7 0.76942 1.65627   1
  -4   6  -7 1.31227 2.02890   4
   9  -7  -7 934.297 25.6280   1
  -9  -7   7 904.946 22.5970  12
  -9  -7   7 956.961 26.2257   1
  -9  -7   7 955.472 24.1238   8
   9  -7  -7 911.510 23.7194   6
  -9   7   7 952.816 25.7029   3
   9   7  -7 906.576 23.7547  11
   9   7  -7 896.893 26.8706   1
   9   7  -7 914.114 25.5028   7
  -9   7   7 935.629 24.5415   5
   7  -7  -7 257.023 11.0848   1
   7  -7  -7 241.863 13.2573  13
  -7  -7   7 243.237 8.55486  12
  -7  -7   7 248.190 11.2171   1
   7   7  -7 238.801 10.5961   7
  -7   7   7 247.827 10.4463   3
   7   7  -7 182.537 11.6218   1
  -7   7   7 248.624 9.34587   9
   7   7  -7 248.245 9.09202  11
  -5  -7   7 931.698 23.9099   1
   5  -7  -7 855.129 21.9534  14
   5  -7  -7 898.915 23.9096   1
  -5  -7   7 881.403 19.8707  12
  -5  -7   7 941.428 21.5742   6
   5  -7  -7 891.122 25.9000  13
  -5   7   7 888.981 22.6710   1
  -5   7   7 887.622 20.8888   9
   5   7  -7 859.360 22.7807   7
   5   7  -7 857.475 22.7242   4
  -5   7   7 863.630 21.8534   3
  -5   7   7 751.828 26.1283  10
   3  -7  -7 154.517 8.13722   1
   3  -7  -7 149.471 7.59636  14
   3  -7  -7 155.007 8.19861  13
  -3  -7   7 157.786 7.62873   1
  -3  -7   7 160.123 6.72325   6
  -3   7   7 166.859 10.0599  10
  -3   7   7 153.729 7.86589   1
  -3   7   7 158.875 7.08795   3
   3   7  -7 145.447 7.91287  14
  -3   7   7 157.311 6.88299   9
   3   7  -7 157.098 8.23024   4
   3   7  -7 144.276 7.61584   7
   1  -7  -7 621.924 18.0984   1
  -1  -7   7 624.569 16.6468   1
   1  -7  -7 660.748 18.1928  14
  -1  -7   7 678.775 15.9713   6
   1  -7  -7 646.826 17.6047   2
   1   7  -7 653.125 19.7256  14
  -1   7   7 600.453 21.9616  10
  -1   7   7 673.498 19.8394   1
   1   7  -7 652.436 18.3946   7
   1   7  -7 654.843 19.3463   4
  -1   7   7 653.709 17.1436   9
  -1   7   7 626.892 17.4955   3
  -1  -7  -7 193.850 9.15491   2
   1  -7   7 184.822 6.41872   6
  -1  -7  -7 191.650 9.02503  14
  -1   7  -7 198.075 10.1723  14
   1   7   7 196.850 8.72648   9
   1   7   7 180.114 7.02648  12
  -1   7  -7 188.347 8.92521   7
   1   7   7 189.525 9.94655   1
  -1   7  -7 194.067 9.34664   4
  -3  -7  -7 598.474 17.6792   8
  -3  -7  -7 583.475 17.6924  14
   3  -7   7 574.228 13.1056   6
  -3  -7  -7 576.194 18.7367   2
   3   7   7 615.945 19.8995   1
   3   7   7 568.721 17.5612   6
  -3   7  -7 597.116 18.5813   4
   3   7   7 583.882 17.7826   9
  -3   7  -7 598.216 19.2602  14
  -3   7  -7 583.398 17.6569   7
 -10  -8   7 108.251 7.33309   8
  10  -8  -7 120.221 8.02002   1
  10  -8  -7 120.217 7.30883   6
  10   8  -7 123.576 9.34384   1
 -10   8   7 119.221 7.91687   5
 -10   8   7 117.045 7.83667   3
  10   8  -7 117.559 7.64672  11
   8  -8  -7 349.073 13.8312   1
  -8  -8   7 355.856 14.5691   1
   8   8  -7 347.673 12.2121  11
  -8   8   7 343.052 11.8577   9
  -8   8   7 355.950 12.5498   5
   8   8  -7 343.779 13.7151   7
  -8   8   7 339.727 13.4637   3
   6  -8  -7 157.323 8.55362   1
   6  -8  -7 159.542 10.5028  13
  -6  -8   7 150.225 8.76244   1
   6   8  -7 152.594 6.78696  11
  -6   8   7 156.999 7.02078   9
   6   8  -7 153.715 8.56106   7
  -6   8   7 146.687 7.96640   3
   4  -8  -7 615.855 20.1091  13
  -4  -8   7 595.519 16.3483   6
  -4  -8   7 602.340 18.0204   1
   4  -8  -7 602.244 18.7516   1
  -4   8   7 591.063 17.9010   1
   4   8  -7 617.754 18.1442   7
  -4   8   7 605.469 17.2371   3
   4   8  -7 584.170 18.3372   4
  -4   8   7 626.080 16.3148   9
   2  -8  -7 436.916 14.5203  14
  -2  -8   7 441.454 12.6242   6
  -2  -8   7 439.006 13.6663   1
   2  -8  -7 441.599 15.0725   1
  -2   8   7 415.611 12.8605   9
   2   8  -7 432.658 15.3681   4
  -2   8   7 412.217 13.4883   3
  -2   8   7 421.301 15.0654   1
   2   8  -7 430.142 14.6282   7
   0  -8  -7 284.099 11.0367   2
   0  -8   7 288.279 9.21667   6
   0  -8  -7 288.335 11.4804  14
   0  -8   7 274.788 9.38867   1
   0   8   7 302.536 12.9770   1
   0   8   7 286.277 11.2577   3
   0   8  -7 291.517 12.3919   4
   0   8  -7 294.552 11.7775   7
   0   8   7 292.938 10.6988   9
   2  -8   7 527.216 13.1944   6
  -2  -8  -7 547.856 17.2363  14
  -2  -8  -7 550.146 17.7548   2
  -2   8  -7 544.893 17.4549   7
   2   8   7 523.001 18.6009   1
  -2   8  -7 550.146 18.3798   4
   2   8   7 563.080 16.9937   9
  -4  -8  -7 113.700 8.34169   2
   4  -8   7 116.005 4.19291   6
  -4  -8  -7 120.053 7.43777  14
  -4   8  -7 113.816 7.85968   4
   4   8   7 110.281 8.05164   1
   4   8   7 117.326 7.83782   9
   9  -9  -7 25.8038 4.35812   1
  -9  -9   7 29.2688 4.54554   8
   9   9  -7 30.2034 4.45223  11
  -9   9   7 36.0279 5.32559   3
  -7  -9   7 783.155 23.5949   1
   7  -9  -7 771.283 22.7359   1
   7   9  -7 746.181 22.4417   7
   7   9  -7 730.899 19.8628  11
  -7   9   7 765.240 19.8171   9
  -7   9   7 750.227 22.0351   3
   5  -9  -7 115.852 8.09376   1
  -5  -9   7 109.751 6.32833   6
   5  -9  -7 104.976 8.57784  13
  -5  -9   7 120.965 7.89146   1
   5   9  -7 110.893 7.23741   7
  -5   9   7 106.781 7.02376   3
   5   9  -7 101.995 7.11082   4
  -5   9   7 109.056 6.02532   9
  -3  -9   7 1614.40 36.7255   1
  -3  -9   7 1569.85 34.6890   6
   3  -9  -7 1663.54 38.5268   1
  -3   9   7 1507.00 36.9374   1
   3   9  -7 1602.88 38.1218   4
   3   9  -7 1568.36 37.3500   7
  -3   9   7 1550.00 36.1642   3
  -3   9   7 1600.06 34.4994   9
   1  -9  -7 154.114 8.43715   1
  -1  -9   7 160.129 6.94454   6
   1  -9  -7 148.418 8.44963  14
  -1  -9   7 144.428 7.13509   1
  -1   9   7 141.456 7.21945   9
   1   9  -7 148.188 8.84610   4
  -1   9   7 146.017 8.99227   1
   1   9  -7 147.147 8.68308   7
  -1   9   7 141.695 7.80971   3
  -1  -9  -7 1219.27 30.6717  14
   1  -9   7 1260.06 26.8771   6
  -1   9  -7 1256.57 32.3560   4
   1   9   7 1212.56 32.8222   1
   1   9   7 1204.92 30.8570   3
  -1   9  -7 1259.54 31.4702   7
   1   9   7 1221.01 29.3526   9
  -3  -9  -7 27.4232 4.37825  14
   3  -9   7 25.5625 2.50224   6
  -3  -9  -7 24.0019 4.14196   2
  -3   9  -7 19.4568 3.88062   7
   3   9   7 24.8878 4.57224   1
  -3   9  -7 26.6256 4.84227   4
   3   9   7 27.3726 4.46386   9
  -8 -10   7 17.0424 4.38699   1
   8 -10  -7 16.8903 4.07893   1
  -8 -10   7 13.8511 3.30893   8
  -8  10   7 19.1172 3.87271   3
   8  10  -7 20.5461 4.67532  11
   8  10  -7 17.7919 4.34038   7
  -6 -10   7 37.8254 5.47125   1
   6 -10  -7 36.9317 5.41218   1
  -6  10   7 32.8287 3.85624   9
  -6  10   7 35.0663 4.90311   3
   6  10  -7 31.1090 4.83469   7
   4 -10  -7 9.01001 3.90459  13
  -4 -10   7 11.0891 3.34301   1
  -4 -10   7 11.5868 2.40408   6
   4 -10  -7 14.3187 3.85184   1
  -4  10   7 10.4040 2.52116   9
  -4  10   7 13.1286 2.96059   3
   4  10  -7 23.4303 4.48691   7
   4  10  -7 13.5020 3.22636   4
   2 -10  -7 2.16310 2.49240   1
  -2 -10   7 4.28186 2.03629   6
  -2 -10   7 2.92955 2.24317   1
   2 -10  -7 4.09494 2.88003  14
   2  10  -7 3.91398 2.42018   7
  -2  10   7 0.66858 2.36945   1
   2  10  -7 2.50604 2.28347   4
  -2  10   7 3.66023 2.07780   9
  -2  10   7 6.04218 2.38081   3
   0 -10   7 17.9020 2.92953   6
   0 -10  -7 24.2434 3.97865  14
   0  10   7 16.0776 3.22662   9
   0  10  -7 18.0712 4.10232   7
   0  10  -7 19.4921 4.38031   4
   0  10   7 14.9606 4.08717   1
   0  10   7 11.0384 2.92761   3
  -2 -10  -7 12.5407 3.66011   2
  -2 -10  -7 17.6346 3.96532  14
   2 -10   7 15.6030 2.31418   6
   2  10   7 12.4231 4.06352   1
   2  10   7 13.3627 3.32078   9
   2  10   7 10.1025 3.49395   3
  -2  10  -7 12.2170 3.87785   4
  -2  10  -7 12.5286 3.75381   7
   5 -11  -7 166.485 10.1944   1
   5  11  -7 166.467 10.0909   7
  -5  11   7 171.032 9.54295   3
   3 -11  -7 321.320 14.0855   1
  -3 -11   7 299.861 12.5718   1
  -3 -11   7 294.068 11.2653   6
  -3  11   7 274.448 12.0849   3
   3  11  -7 285.639 13.1985   7
  -1 -11   7 59.1505 4.79787   6
   1 -11  -7 64.2468 6.58852  14
  -1 -11   7 59.7959 5.04630   1
   1 -11  -7 72.1266 6.39167   1
  -1  11   7 61.0759 6.38903   3
   1  11  -7 75.1957 7.00698   7
   1  11  -7 68.5347 7.64840   4
  -1  11   7 66.8027 6.80903   1
 -12   0   8 367.295 13.6041   5
  12   0  -8 379.559 15.3186   1
 -10   0   8 61.6295 4.30332  12
  10   0  -8 61.8739 7.11414  13
  10   0  -8 67.0726 6.43634   1
   8   0  -8 1649.38 37.5450   1
   8   0  -8 1601.91 34.9785   4
  -8   0   8 1632.20 33.4787  12
   8   0  -8 1559.68 40.0175  13
  -8   0   8 1593.29 33.7476   9
  -8   0   8 1569.77 35.7241   1
  -6   0   8 394.833 10.6150  12
  -6   0   8 389.552 12.5719   1
   6   0  -8 371.158 12.4817   1
  -6   0   8 380.164 10.5302   9
   6   0  -8 356.860 10.6325  14
   6   0  -8 378.048 14.3954  13
  -6   0   8 365.210 15.9016  10
   6   0  -8 380.917 11.7642   4
   4   0  -8 3462.70 69.3423   1
  -4   0   8 3705.69 68.3452  12
  -4   0   8 3605.40 68.1617   9
  -4   0   8 3605.42 68.4836   6
   4   0  -8 3672.79 69.8445   4
  -4   0   8 3485.54 76.4081  10
  -4   0   8 3681.24 70.9424   1
   4   0  -8 3649.12 73.3197  13
   4   0  -8 3652.52 69.0689   2
   4   0  -8 3641.57 70.0828  14
   2   0  -8 225.302 8.68081  14
   2   0  -8 223.749 8.57516   2
  -2   0   8 241.420 7.87347  12
  -2   0   8 229.762 7.60143   9
  -2   0   8 228.962 7.53615   6
   2   0  -8 224.062 7.19341   7
  -2   0   8 211.690 11.7068  10
  -2   0   8 248.010 8.87371   1
   2   0  -8 222.478 8.16270   4
   0   0  -8 2571.05 52.4472  14
   0   0  -8 2545.73 51.9128   8
   0   0  -8 2577.75 51.0572   4
   0   0   8 2533.85 50.5595   9
   0   0  -8 2526.57 53.1750   2
   0   0   8 2568.10 49.7367   6
   0   0   8 2569.20 51.1057   1
   0   0   8 2473.65 60.0927  10
   0   0   8 2632.12 50.7420  12
   2   0   8 10.7783 2.28766   1
  -2   0  -8 12.3657 2.83360   2
  -2   0  -8 12.7700 2.42738   4
  -2   0  -8 11.9095 2.74052   8
   2   0   8 13.7496 2.17518   6
  -2   0  -8 11.6221 2.81103  14
   4   0   8 1033.52 25.6619   9
  -4   0  -8 1049.42 27.1571   8
  -4   0  -8 1021.19 26.1127  14
  -4   0  -8 1017.71 27.4916   2
   4   0   8 1064.78 23.3365   6
  11  -1  -8 5.05774 2.95508   1
  11  -1  -8 0.78976 2.10637  11
 -11  -1   8 0.95826 1.91844  12
 -11  -1   8 -0.1930 1.80674   8
 -11  -1   8 2.95567 2.29120   5
 -11   1   8 1.52862 2.35685   5
 -11   1   8 0.83343 1.72676  12
  11   1  -8 0.36135 2.61295   1
  11   1  -8 -2.0495 1.87175  11
  -9  -1   8 202.571 7.99994  12
  -9  -1   8 196.828 9.13253   1
   9  -1  -8 206.095 8.68668   4
   9  -1  -8 197.994 11.7562  13
   9  -1  -8 212.045 10.3462   1
  -9   1   8 206.640 7.89219  12
   9   1  -8 220.580 10.3899   1
   9   1  -8 195.040 11.5605  13
   7  -1  -8 1.61377 1.67110  13
   7  -1  -8 2.20105 1.83171   4
   7  -1  -8 0.23703 1.68595   1
  -7  -1   8 2.80522 1.37155   9
  -7  -1   8 2.17333 1.88665   1
  -7   1   8 1.18681 1.05939  12
   7   1  -8 2.63804 2.33416  13
   7   1  -8 10.7628 2.61635   1
  -7   1   8 1.44136 1.37915   9
  -7   1   8 10.6391 2.30592   1
   7   1  -8 1.91736 1.65412   4
   5  -1  -8 133.799 6.62867   1
   5  -1  -8 142.943 6.52443   4
   5  -1  -8 140.864 6.20601  14
  -5  -1   8 136.305 5.52933   6
  -5  -1   8 131.207 8.91425  10
  -5  -1   8 130.342 5.22260   9
   5  -1  -8 143.348 7.96666  13
  -5  -1   8 144.058 7.05263   1
  -5  -1   8 141.701 5.59070  12
  -5   1   8 128.899 5.42006   6
  -5   1   8 141.552 6.81421   1
  -5   1   8 136.157 5.71907   9
   5   1  -8 134.094 6.46902   1
   5   1  -8 141.955 8.19484  13
  -5   1   8 137.281 9.20955  10
   5   1  -8 144.066 6.25606  14
   5   1  -8 145.850 6.63595   4
  -5   1   8 153.138 5.67865  12
  -3  -1   8 228.757 7.53243   6
   3  -1  -8 216.033 7.79880   1
   3  -1  -8 220.762 8.43013  14
  -3  -1   8 217.069 7.09459   9
  -3  -1   8 229.654 7.59487  12
   3  -1  -8 229.148 8.11657   2
   3  -1  -8 215.515 7.85923   4
   3  -1  -8 249.185 10.1338  13
  -3  -1   8 219.570 11.4776  10
  -3  -1   8 224.766 8.54562   1
   3   1  -8 225.624 7.73549   7
   3   1  -8 222.089 8.26181   4
   3   1  -8 213.814 8.21676   2
  -3   1   8 220.187 7.42991   9
   3   1  -8 224.430 8.62831  14
  -3   1   8 230.833 7.54035  12
  -3   1   8 212.581 7.24792   6
  -3   1   8 223.414 8.74741   1
  -3   1   8 210.213 11.4334  10
   1  -1  -8 6.92948 1.66524   4
   1  -1  -8 7.15524 1.87454  14
  -1  -1   8 10.4734 2.10618  12
  -1  -1   8 4.96150 2.59837  10
  -1  -1   8 4.04963 1.36294   6
   1  -1  -8 10.8170 2.28682   2
  -1  -1   8 6.38596 1.64884   9
  -1  -1   8 3.80975 1.58395   1
  -1   1   8 3.45277 1.65839   9
  -1   1   8 6.30986 1.75670  12
   1   1  -8 7.32689 2.26187   2
  -1   1   8 5.36420 2.82330  10
  -1   1   8 7.11158 1.85684   1
   1   1  -8 4.40911 1.32538   7
   1   1  -8 4.19300 1.94226  14
  -1   1   8 3.86608 1.42800   6
   1   1  -8 5.45169 1.61015   4
  -1  -1  -8 308.331 11.5118   2
   1  -1   8 295.966 9.75420  12
  -1  -1  -8 285.744 10.8329   8
   1  -1   8 292.221 9.30383   1
  -1  -1  -8 293.304 9.49528   4
   1  -1   8 283.793 9.59475   9
  -1  -1  -8 294.682 10.8125  14
   1  -1   8 299.170 8.76828   6
  -1   1  -8 299.534 10.1379   4
   1   1   8 303.249 10.2803   1
   1   1   8 288.174 9.84886  12
   1   1   8 295.785 10.2112   9
  -1   1  -8 293.304 10.7956   8
  -1   1  -8 303.865 11.1160  14
   1   1   8 294.070 9.27523   6
  -1   1  -8 288.984 11.3527   2
   3  -1   8 38.9630 2.92653   6
   3  -1   8 24.6297 3.48243   9
  -3  -1  -8 25.6839 4.01960   2
  -3  -1  -8 23.7074 3.61992  14
  -3  -1  -8 25.5520 3.88966   8
   3   1   8 27.4049 3.18351   6
  -3   1  -8 29.5899 4.40215   8
   3   1   8 27.5203 3.39994   1
  -3   1  -8 25.3166 3.88043  14
  -3   1  -8 27.4421 4.47480   2
   3   1   8 26.1039 3.91931   9
  -5  -1  -8 27.4279 4.51647   8
   5  -1   8 40.2639 3.25404   6
  -5  -1  -8 42.3339 5.55418   2
   5  -1   8 41.1961 4.78362   9
  -5   1  -8 42.5157 5.05955   8
   5   1   8 33.8054 4.69030   9
  -5   1  -8 53.4400 5.66412   2
   5   1   8 36.8255 3.59253   6
 -12  -2   8 176.835 8.89639   5
 -12  -2   8 183.663 8.28648   8
  12  -2  -8 176.268 9.94601   1
  12  -2  -8 145.331 10.4884  11
  12   2  -8 191.794 10.3630  11
  12   2  -8 189.524 11.1505   1
 -12   2   8 181.416 9.69592   5
 -10  -2   8 1132.30 26.2598  12
  10  -2  -8 1055.52 33.2192  13
  10  -2  -8 1112.30 26.4994  11
  10  -2  -8 1165.79 30.1730   1
 -10   2   8 1150.98 25.7195  12
  10   2  -8 1156.27 30.7933   1
  -8  -2   8 121.789 7.15698   1
  -8  -2   8 119.430 5.80684  12
   8  -2  -8 121.085 7.17613   1
   8  -2  -8 108.754 8.59167  13
   8   2  -8 121.661 7.65060   1
  -8   2   8 119.907 6.01263   9
   8   2  -8 115.526 6.24301   4
  -8   2   8 116.578 6.58847   1
  -8   2   8 109.556 5.30239  12
  -6  -2   8 1023.43 22.3434  12
  -6  -2   8 1020.67 24.7589   1
   6  -2  -8 1006.31 24.8943   1
   6  -2  -8 1005.32 27.5447  13
  -6  -2   8 998.163 21.5997   9
   6  -2  -8 976.212 22.2963  14
  -6   2   8 1019.70 24.5767   1
   6   2  -8 960.408 22.1395  14
   6   2  -8 991.955 24.3650   1
  -6   2   8 997.284 21.7675  12
  -6   2   8 977.834 22.3880   9
   6   2  -8 991.276 23.6841   4
  -6   2   8 970.162 29.2642  10
  -4  -2   8 127.892 5.41040  12
  -4  -2   8 124.507 8.29670  10
   4  -2  -8 120.729 5.21340   2
   4  -2  -8 120.750 5.93341   4
  -4  -2   8 124.869 6.31177   1
   4  -2  -8 128.080 7.21453  13
  -4  -2   8 142.491 5.67203   6
  -4  -2   8 124.321 4.82974   9
   4  -2  -8 126.781 6.05466  14
   4  -2  -8 119.114 6.11335   1
  -4   2   8 123.066 5.32006   6
   4   2  -8 120.888 6.03304  14
  -4   2   8 115.879 8.49356  10
   4   2  -8 139.482 6.05743   7
  -4   2   8 119.918 6.44717   1
  -4   2   8 126.430 5.58450   9
  -4   2   8 123.255 5.16799  12
   4   2  -8 124.950 6.24449   4
  -2  -2   8 942.839 21.9851   1
   2  -2  -8 937.027 21.5226   4
  -2  -2   8 908.379 20.4215   6
   2  -2  -8 902.986 21.9880   2
   2  -2  -8 935.048 23.4904  13
  -2  -2   8 935.752 20.9515  12
   2  -2  -8 941.042 22.5123  14
  -2  -2   8 903.044 19.9503   9
  -2  -2   8 890.983 26.9499  10
  -2   2   8 934.626 21.2519   9
  -2   2   8 916.661 20.6140  12
  -2   2   8 870.815 27.5490  10
  -2   2   8 921.710 22.8246   1
  -2   2   8 932.018 20.9938   6
   2   2  -8 930.585 23.0132  14
   2   2  -8 937.631 22.2242   4
   2   2  -8 965.152 23.0846   2
   2   2  -8 929.436 20.9596   7
   0  -2  -8 459.984 13.8354  14
   0  -2   8 426.643 18.1200  10
   0  -2   8 459.500 12.4650   1
   0  -2  -8 465.772 14.6803   2
   0  -2   8 466.402 13.0017  12
   0  -2  -8 466.045 13.8946   8
   0  -2  -8 473.573 12.8837   4
   0  -2   8 448.803 12.2554   9
   0  -2   8 469.603 11.8351   6
   0   2   8 485.228 14.3322   1
   0   2   8 490.976 13.1062  12
   0   2  -8 448.112 12.1027   7
   0   2   8 436.174 19.2421  10
   0   2  -8 476.845 15.1652   2
   0   2  -8 454.589 14.4885  14
   0   2   8 472.240 13.4683   9
   0   2   8 476.356 12.9064   6
   0   2  -8 465.921 13.7361   4
  -2  -2  -8 906.990 24.1434   2
  -2  -2  -8 869.304 23.0182   8
   2  -2   8 904.490 19.5471   6
   2  -2   8 856.564 21.1092   9
  -2  -2  -8 899.961 22.9585  14
   2  -2   8 872.236 21.4729  12
   2   2   8 927.184 22.5186   1
  -2   2  -8 861.026 23.0027  14
  -2   2  -8 915.627 24.2961   2
  -2   2  -8 880.798 22.0274   4
  -2   2  -8 899.441 23.2919   8
   2   2   8 875.798 21.0972   6
   2   2   8 874.746 22.5383   9
  -4  -2  -8 561.565 17.8709   8
   4  -2   8 564.908 13.5872   6
  -4  -2  -8 578.885 18.4571   2
   4  -2   8 552.645 16.0845   9
  -4   2  -8 572.086 17.9459   8
  -4   2  -8 551.957 17.1904  14
   4   2   8 558.567 17.3580   9
  -4   2  -8 549.440 18.1174   2
   4   2   8 568.518 15.6867   6
   4   2   8 551.593 15.9388   1
 -11  -3   8 2.19004 2.11729  12
 -11  -3   8 -0.4688 1.99977   8
  11  -3  -8 0.74081 2.38822  11
  11  -3  -8 1.40205 2.71415   1
 -11   3   8 0.50159 1.23632  12
  11   3  -8 -0.8589 2.66641   1
 -11   3   8 -0.3919 2.16060   5
  11   3  -8 2.63785 2.57029  11
   9  -3  -8 105.667 8.65342  13
  -9  -3   8 110.737 5.94873  12
  -9  -3   8 120.531 7.42057   1
   9  -3  -8 112.670 7.30078   1
  -9   3   8 115.871 6.33011   9
   9   3  -8 113.857 7.66082   1
  -9   3   8 110.028 5.37569  12
  -7  -3   8 9.60046 2.73812   1
   7  -3  -8 14.1027 3.15333   1
   7  -3  -8 10.8258 3.35425  13
  -7  -3   8 10.1834 2.21105  12
   7   3  -8 10.3575 2.28899   4
  -7   3   8 10.6480 2.55839   1
   7   3  -8 12.3389 2.88560   1
  -7   3   8 9.71179 2.26834   9
  -7   3   8 10.9427 1.96506  12
  -5  -3   8 24.4740 2.83630   6
   5  -3  -8 20.8237 3.55753  13
  -5  -3   8 22.5681 3.21410   1
  -5  -3   8 20.2628 4.11516  10
   5  -3  -8 21.3884 3.14411   1
  -5  -3   8 24.5838 2.81594  12
   5  -3  -8 20.7837 2.82509  14
  -5   3   8 22.6063 3.26547   1
   5   3  -8 24.6820 3.29844   7
  -5   3   8 19.0342 4.19416  10
  -5   3   8 23.7131 2.54778  12
   5   3  -8 23.3492 3.07174  14
   5   3  -8 19.2746 2.93242   4
  -5   3   8 25.8106 3.07491   9
   5   3  -8 24.4487 3.16177   1
   3  -3  -8 33.6241 3.01140   2
  -3  -3   8 25.2235 2.63586   6
  -3  -3   8 19.5502 2.54240  12
  -3  -3   8 24.1466 3.78352  10
   3  -3  -8 20.9342 2.83049   1
   3  -3  -8 22.5495 3.27566  13
   3  -3  -8 18.0288 2.87374  14
   3   3  -8 20.2659 2.88245   4
  -3   3   8 21.6233 2.63745   6
  -3   3   8 23.6574 4.64460  10
  -3   3   8 23.5798 2.61677  12
  -3   3   8 19.4122 3.15484   1
  -3   3   8 26.7405 2.94272   9
   3   3  -8 21.7956 3.23327  14
   3   3  -8 21.3858 2.73670   7
   1  -3  -8 75.5904 4.50618   4
   1  -3  -8 79.6783 5.38874   2
  -1  -3   8 85.9217 4.16039   6
  -1  -3   8 76.1046 4.50184  12
   1  -3  -8 72.3212 5.01804  14
  -1  -3   8 74.5961 6.90603  10
  -1  -3   8 75.0501 4.45055   1
  -1   3   8 72.6229 4.45291   6
  -1   3   8 78.7107 7.40011  10
  -1   3   8 83.5364 4.58424  12
   1   3  -8 79.9219 4.56765   7
   1   3  -8 81.8807 5.10757   4
  -1   3   8 73.6654 5.41660   1
  -1   3   8 71.6024 4.57105   9
   1   3  -8 79.9896 5.81376   2
   1   3  -8 83.4166 5.78528  14
  -1  -3  -8 22.7386 3.33887  14
  -1  -3  -8 21.1113 3.61062   2
   1  -3   8 20.8755 4.75415  10
   1  -3   8 26.5445 2.55679   1
  -1  -3  -8 22.5827 2.79645   4
   1  -3   8 25.5636 3.28540  12
  -1  -3  -8 19.0010 3.07851   8
   1  -3   8 24.9964 2.42096   6
  -1   3  -8 29.6152 3.75027   4
  -1   3  -8 27.7452 4.34841   2
  -1   3  -8 18.8138 3.52392  14
   1   3   8 21.5234 3.19313  12
   1   3   8 22.6762 3.00794   6
   1   3   8 23.9685 3.44315   1
   1   3   8 20.3981 3.35823   9
  -3  -3  -8 51.2571 5.81742   2
   3  -3   8 52.9312 4.48572  12
  -3  -3  -8 45.8249 5.18991   8
   3  -3   8 51.3912 3.03174   6
  -3  -3  -8 47.6630 4.49323  14
  -3   3  -8 49.8024 5.40365   2
   3   3   8 51.6806 4.80350   1
   3   3   8 45.1149 4.17532   6
  -3   3  -8 54.9260 4.75199   4
   3   3   8 50.7708 4.79843   9
  -3   3  -8 55.1668 5.17654  14
  -5  -3  -8 12.4135 3.81259   8
   5  -3   8 10.3056 2.68942  12
   5  -3   8 11.9655 1.74787   6
  -5  -3  -8 14.2509 3.42535   2
   5   3   8 10.8012 2.65233   6
  -5   3  -8 13.5116 3.38005   2
   5   3   8 11.3030 2.80046   1
   5   3   8 13.4565 3.54367   9
  -5   3  -8 12.7611 3.47293   8
  10  -4  -8 1012.16 27.1122   1
 -10  -4   8 982.377 26.4691   1
 -10  -4   8 971.880 23.9592  12
  10   4  -8 989.478 27.4806   7
  10   4  -8 998.086 28.3411   1
 -10   4   8 1001.87 25.7627   5
  -8  -4   8 73.6502 4.79322  12
   8  -4  -8 70.0662 6.05248   1
   8  -4  -8 67.5782 7.22583  13
  -8  -4   8 75.5459 5.73903   1
   8   4  -8 80.1288 6.55173   1
  -8   4   8 79.1987 5.23968   9
  -8   4   8 76.2602 4.29785  12
   8   4  -8 82.2579 6.00415   7
  -6  -4   8 2375.10 47.5781   6
   6  -4  -8 2452.40 50.8464   1
  -6  -4   8 2423.66 47.2584  12
   6  -4  -8 2357.61 47.8421  14
  -6  -4   8 2370.35 50.4220   1
   6  -4  -8 2373.72 53.4121  13
  -6   4   8 2349.35 56.6152  10
  -6   4   8 2410.74 46.2651  12
  -6   4   8 2400.55 47.8397   9
   6   4  -8 2318.34 49.3951   1
   6   4  -8 2459.62 49.8915   7
   6   4  -8 2262.41 47.5298  14
  -6   4   8 2367.80 49.5707   1
  -4  -4   8 351.525 11.8617   1
  -4  -4   8 345.177 10.1158  12
   4  -4  -8 350.081 11.9785   1
  -4  -4   8 352.445 10.4753   6
   4  -4  -8 357.793 13.2374  13
  -4  -4   8 324.085 13.7209  10
   4  -4  -8 363.924 11.4368  14
  -4   4   8 330.537 15.0290  10
  -4   4   8 351.337 9.69025  12
  -4   4   8 351.549 10.7272   9
   4   4  -8 332.046 11.5209  14
   4   4  -8 347.207 11.7424   4
  -4   4   8 345.554 11.9667   1
   4   4  -8 355.787 11.5249   7
   2  -4  -8 2362.23 48.6258  13
   2  -4  -8 2327.34 47.5541  14
  -2  -4   8 2308.58 46.6351   1
  -2  -4   8 2298.00 45.5392  12
  -2  -4   8 2308.05 45.2804   6
   2  -4  -8 2288.63 47.0645   2
  -2  -4   8 2172.58 52.0986  10
   2  -4  -8 2167.89 46.6345   1
  -2   4   8 2354.12 45.2900  12
  -2   4   8 2290.16 46.0339   6
  -2   4   8 2230.46 54.6562  10
   2   4  -8 2349.10 48.2588   4
  -2   4   8 2313.94 46.4882   9
  -2   4   8 2301.36 48.6904   1
   2   4  -8 2359.70 48.8425  14
   2   4  -8 2316.10 46.6712   7
   0  -4  -8 153.910 7.84019   2
   0  -4   8 148.246 6.43514  12
   0  -4  -8 171.992 6.73555   4
   0  -4  -8 133.473 6.75547   8
   0  -4   8 146.622 5.96568   1
   0  -4   8 158.043 5.79316   6
   0  -4  -8 156.633 7.61119  14
   0   4   8 149.625 7.03405   9
   0   4   8 148.037 6.81518   6
   0   4  -8 153.056 8.39377   2
   0   4   8 151.492 6.37541  12
   0   4   8 148.631 7.95445   1
   0   4  -8 145.088 7.69277  14
   0   4  -8 143.738 7.31218   4
   0   4  -8 163.493 6.98047   7
  -2  -4  -8 849.671 23.4634   2
   2  -4   8 865.774 18.4808   6
  -2  -4  -8 829.094 22.2784  14
   2  -4   8 827.316 20.7918  12
  -2  -4  -8 852.024 22.5103   8
   2   4   8 881.653 23.2960   1
   2   4   8 857.266 22.5986   9
  -2   4  -8 840.899 23.8460   2
  -2   4  -8 862.980 23.4864  14
  -2   4  -8 838.739 22.2662   4
   2   4   8 857.862 21.6381   6
  -4  -4  -8 29.4209 4.28479  14
  -4  -4  -8 28.9996 4.81098   2
   4  -4   8 24.2154 3.29681  12
   4  -4   8 29.2849 2.18070   6
  -4  -4  -8 29.7468 4.53581   8
   4   4   8 24.6384 3.84758   1
  -4   4  -8 24.2851 4.21671   2
   4   4   8 27.5630 4.61888   9
   4   4   8 28.8587 3.91817   6
  -4   4  -8 25.1269 4.22936  14
  11  -5  -8 278.899 12.4047   1
 -11  -5   8 288.067 10.9166  12
 -11  -5   8 290.151 11.2262   8
 -11   5   8 277.353 12.2061   5
  11   5  -8 277.621 13.5681   1
  -9  -5   8 86.9201 6.96514   1
   9  -5  -8 85.3405 6.84229   1
   9  -5  -8 87.0878 8.24987  13
  -9  -5   8 76.3579 4.97626  12
   9   5  -8 87.4992 7.01908   7
  -9   5   8 81.6464 5.59890   9
   9   5  -8 91.2618 7.08513   1
   7  -5  -8 437.408 17.7448  13
  -7  -5   8 446.120 12.7186  12
   7  -5  -8 464.922 15.5749   1
  -7  -5   8 441.596 15.2156   1
  -7   5   8 435.579 11.5308  12
  -7   5   8 428.939 13.9230   1
   7   5  -8 439.915 14.1404   4
   7   5  -8 440.748 14.7594   7
  -7   5   8 428.884 13.0984   9
   7   5  -8 426.425 14.7457   1
  -7   5   8 459.329 15.2374   3
   5  -5  -8 178.026 9.74046  13
  -5  -5   8 169.392 8.48971   1
   5  -5  -8 187.718 8.87610   1
   5  -5  -8 174.504 7.63668  14
  -5  -5   8 175.794 7.20062   6
  -5  -5   8 179.742 6.68974  12
  -5   5   8 183.167 7.35667   9
  -5   5   8 172.438 10.6729  10
   5   5  -8 173.585 7.83926  14
  -5   5   8 182.779 8.53364   1
   5   5  -8 183.359 8.38291   7
  -5   5   8 172.025 6.15294  12
   5   5  -8 189.557 8.70872   4
  -3  -5   8 109.967 5.32429   6
   3  -5  -8 96.6202 5.93157  14
  -3  -5   8 96.6711 5.56869   1
   3  -5  -8 116.311 6.32563   1
  -3  -5   8 103.301 5.07325  12
   3  -5  -8 97.8332 6.33788  13
  -3   5   8 103.491 4.66011  12
  -3   5   8 99.0062 6.23295   1
   3   5  -8 90.6156 6.21426  14
   3   5  -8 100.674 5.69176   7
  -3   5   8 99.7092 5.54618   9
   3   5  -8 100.555 6.09463   4
  -3   5   8 98.0005 8.09896  10
   1  -5  -8 258.919 10.0788   2
   1  -5  -8 263.958 9.15547   4
  -1  -5   8 262.761 8.38879   6
   1  -5  -8 260.766 10.1614  14
  -1  -5   8 249.620 8.75677   1
  -1  -5   8 255.099 8.69442  12
   1   5  -8 256.733 9.56985   7
   1   5  -8 261.538 10.6202   4
   1   5  -8 264.104 11.1642  14
  -1   5   8 262.323 9.31769   6
  -1   5   8 272.419 8.76306  12
  -1   5   8 275.753 9.67093   9
  -1   5   8 279.277 11.2666   1
  -1  -5  -8 5.05193 2.01628  14
   1  -5   8 4.60832 1.46544   6
  -1  -5  -8 6.45632 2.56373   2
   1  -5   8 5.89503 1.95224  12
  -1  -5  -8 3.87704 2.11699   8
  -1   5  -8 5.68870 2.64176   2
  -1   5  -8 4.31814 2.01191   7
   1   5   8 2.51911 1.86750   6
   1   5   8 3.93965 2.31657   9
  -1   5  -8 2.64870 2.36801   4
   1   5   8 3.56098 2.52867   1
  -1   5  -8 11.3126 3.20206  14
   1   5   8 5.02346 2.00455  12
  -3  -5  -8 53.0254 5.35364  14
  -3  -5  -8 61.0699 6.08273   2
  -3  -5  -8 62.6238 5.82455   8
   3  -5   8 56.9098 3.00455   6
   3   5   8 65.4495 5.88519   1
  -3   5  -8 54.0208 5.59251  14
  -3   5  -8 56.9929 5.77975   2
  -3   5  -8 59.9093 5.05215   4
   3   5   8 58.7272 6.15183   9
   3   5   8 58.0869 5.05979   6
 -10  -6   8 64.6759 5.66470   8
 -10  -6   8 74.4541 6.79248   1
  10  -6  -8 82.1329 6.97886   1
 -10  -6   8 61.8939 5.16636  12
 -10   6   8 76.2441 6.45664   5
 -10   6   8 67.8314 8.17998   3
  10   6  -8 77.3223 6.97355   7
  10   6  -8 70.3033 7.19997   1
   8  -6  -8 1073.78 33.4767  13
   8  -6  -8 1118.61 29.4906   1
  -8  -6   8 1172.26 29.9637   1
  -8  -6   8 1117.00 25.9180  12
   8   6  -8 1114.29 29.0045   7
  -8   6   8 1162.58 26.8577   9
   8   6  -8 1167.63 30.0559   1
  -6  -6   8 18.3561 2.56369  12
  -6  -6   8 9.67204 2.32686   6
  -6  -6   8 13.4152 3.36292   1
   6  -6  -8 9.72035 3.00741   1
   6  -6  -8 10.3763 2.51784  14
   6  -6  -8 13.0742 3.77431  13
   6   6  -8 11.7309 2.85199   4
   6   6  -8 10.6698 3.02013   7
  -6   6   8 14.4989 3.06279   1
  -6   6   8 12.4990 2.63848   3
  -6   6   8 10.9676 2.51997   9
   4  -6  -8 1235.90 29.6840   1
  -4  -6   8 1232.44 29.0602   1
   4  -6  -8 1232.25 28.4362  14
  -4  -6   8 1252.60 27.1712   6
  -4  -6   8 1148.05 25.7959  12
   4   6  -8 1247.93 28.7935   7
   4   6  -8 1210.91 29.4775   4
  -4   6   8 1029.33 26.4240  12
  -4   6   8 1224.02 27.2935   9
  -4   6   8 1156.40 28.9587   3
  -4   6   8 1260.70 29.7613   1
   4   6  -8 1163.59 28.9759  14
  -2  -6   8 17.9585 2.56629  12
   2  -6  -8 18.6239 3.38488  14
  -2  -6   8 17.5674 2.85787   1
  -2  -6   8 20.6865 2.64822   6
   2  -6  -8 16.4844 3.08644   1
   2  -6  -8 15.1555 2.55014   2
  -2   6   8 17.9826 2.96678   9
  -2   6   8 13.9740 3.26391   1
   2   6  -8 21.0694 3.62910   4
  -2   6   8 15.8776 2.24833  12
   2   6  -8 15.2415 3.03263   7
   2   6  -8 16.7218 3.30209  14
   0  -6  -8 1294.47 30.8674  14
   0  -6  -8 1341.09 31.5904   2
   0  -6   8 1306.75 27.5309   6
   0  -6  -8 1273.80 28.6034   4
   0  -6  -8 1228.51 29.0908   8
   0   6   8 1340.85 30.6389   9
   0   6  -8 1374.74 33.0775  14
   0   6   8 1339.27 28.7354  12
   0   6   8 1313.94 32.9454   1
   0   6   8 1290.96 29.9313   6
   0   6  -8 1313.78 30.6241   7
   0   6  -8 1336.76 32.0907   4
  -2  -6  -8 97.4659 6.47016   8
  -2  -6  -8 89.9545 6.65448   2
   2  -6   8 93.4578 4.16543   6
  -2  -6  -8 100.844 6.84275  14
   2   6   8 95.5289 6.28033   6
  -2   6  -8 85.8799 6.20811   4
   2   6   8 99.6039 7.05367   1
   2   6   8 96.5323 6.45379   9
  -2   6  -8 100.530 7.40666  14
  -4  -6  -8 956.096 26.8991   2
  -4  -6  -8 1001.23 26.5395   8
  -4  -6  -8 971.436 25.4291  14
   4  -6   8 957.254 19.6217   6
   4   6   8 956.125 26.3570   9
   4   6   8 968.773 25.4752   6
   4   6   8 953.693 26.6777   1
  -4   6  -8 979.805 26.6062  14
   9  -7  -8 5.39786 3.01629   1
  -9  -7   8 6.79983 3.27221   1
  -9  -7   8 5.29331 2.32474  12
   9   7  -8 13.1129 3.77244   7
  -9   7   8 8.67140 2.98349   3
  -9   7   8 5.99049 2.76935   5
   7  -7  -8 54.2728 6.93219  13
   7  -7  -8 57.7140 5.94588   1
  -7  -7   8 58.4051 4.32180  12
  -7  -7   8 66.3831 6.40549   1
  -7   7   8 54.8436 4.78171   3
   7   7  -8 58.1770 5.76760   7
  -7   7   8 61.0336 4.61021   9
  -5  -7   8 15.6934 2.81018   6
   5  -7  -8 16.5570 3.65735  13
  -5  -7   8 17.6817 3.60238   1
   5  -7  -8 14.4791 3.59032   1
   5  -7  -8 14.7667 3.06220  14
  -5  -7   8 13.8120 2.31413  12
  -5   7   8 21.1242 3.64951   1
  -5   7   8 19.2329 3.14934   9
   5   7  -8 14.1906 3.43330   4
  -5   7   8 12.3851 2.64774   3
   5   7  -8 14.7137 3.35220   7
   3  -7  -8 27.4311 4.05095  13
  -3  -7   8 27.3005 3.75613   1
   3  -7  -8 31.1536 4.39724   1
  -3  -7   8 28.4494 3.45490   6
   3  -7  -8 35.3834 4.41299  14
   3   7  -8 25.4302 3.89938   7
   3   7  -8 36.2463 4.68546   4
  -3   7   8 33.1828 4.36317   1
   3   7  -8 41.8879 5.28115  14
  -3   7   8 29.9842 3.68463   3
  -3   7   8 40.1551 4.15209   9
   1  -7  -8 174.243 8.42039   2
  -1  -7   8 175.366 7.41055   1
   1  -7  -8 165.382 8.57657  14
  -1  -7   8 176.620 6.95434   6
  -1   7   8 172.481 8.15059   3
  -1   7   8 170.716 7.83958   9
   1   7  -8 180.754 8.79730   7
   1   7  -8 164.971 9.16107   4
   1   7  -8 179.506 9.86160  14
  -1   7   8 176.744 9.67896   1
  -1  -7  -8 17.2658 3.66814  14
  -1  -7  -8 17.6739 3.81724   2
   1  -7   8 18.9481 2.42873   6
   1   7   8 18.7013 2.73074  12
  -1   7  -8 21.4645 3.87479   7
   1   7   8 25.2446 4.23646   9
   1   7   8 19.6917 4.23720   1
  -1   7  -8 21.4741 3.72431   4
  -1   7  -8 39.6136 5.77035  14
   3  -7   8 141.393 5.01351   6
  -3  -7  -8 144.207 8.31959  14
  -3  -7  -8 131.144 7.78645   8
  -3  -7  -8 144.032 9.12527   2
   3   7   8 143.093 9.21192   1
   3   7   8 126.347 8.27061   9
  -3   7  -8 139.565 9.07919  14
  -3   7  -8 134.809 8.29331   4
  -8  -8   8 667.121 21.5372   1
   8  -8  -8 681.045 21.3020   1
   8   8  -8 678.393 21.0848   7
  -8   8   8 678.159 18.7234   9
   6  -8  -8 300.422 14.4937  13
   6  -8  -8 311.850 13.2304   1
   6  -8  -8 251.841 11.5446  14
  -6  -8   8 312.331 12.9920   1
   6   8  -8 302.539 12.1671   4
   6   8  -8 297.025 12.3678   7
  -6   8   8 297.665 10.7135   9
  -6   8   8 274.773 11.2710   3
   4  -8  -8 1050.73 27.2618   1
   4  -8  -8 979.281 27.8116  13
   4  -8  -8 984.488 25.3979  14
  -4  -8   8 953.485 25.3945   1
  -4  -8   8 958.067 23.7333   6
  -4   8   8 955.676 25.8152   1
   4   8  -8 963.216 26.3922   4
   4   8  -8 962.301 25.6657   7
  -4   8   8 973.643 23.8055   9
   2  -8  -8 383.320 13.9046  14
  -2  -8   8 437.697 13.3859   1
   2  -8  -8 390.793 14.2746   1
  -2  -8   8 390.633 12.0705   6
  -2   8   8 367.992 14.7301   1
  -2   8   8 392.607 12.8733   9
   2   8  -8 358.405 13.7192   7
  -2   8   8 354.867 12.6983   3
   2   8  -8 382.276 14.6028   4
   0  -8  -8 581.844 17.9735  14
   0  -8  -8 563.474 17.6964   2
   0  -8   8 566.259 14.7559   6
   0   8   8 461.148 17.8955   3
   0   8   8 583.137 17.2251   9
   0   8   8 581.402 19.7205   1
   0   8  -8 581.464 18.9468   4
   0   8  -8 564.256 17.8698   7
   0   8  -8 581.582 19.5203  14
  -2  -8  -8 203.633 10.5452   2
   2  -8   8 195.653 6.76638   6
  -2  -8  -8 195.271 9.95057  14
  -2   8  -8 195.924 9.78892   7
  -2   8  -8 191.484 10.4432   4
   2   8   8 200.986 10.0135   9
   2   8   8 211.513 11.5539   1
   7  -9  -8 1.46558 2.63638   1
  -7  -9   8 2.15622 2.81519   1
   7   9  -8 0.50910 2.07840   7
  -7   9   8 3.35775 2.30671   9
  -7   9   8 3.95693 2.06641   3
  -5  -9   8 15.3126 3.69482   1
   5  -9  -8 26.1404 4.78689   1
   5  -9  -8 21.6328 4.00445  14
  -5  -9   8 22.7288 3.49664   6
  -5   9   8 21.3387 3.50083   9
   5   9  -8 21.3609 3.79372   4
   5   9  -8 18.2239 4.15701   7
  -5   9   8 22.0796 3.87510   3
   3  -9  -8 25.7928 4.35246  14
  -3  -9   8 38.1279 3.99708   6
   3  -9  -8 29.5661 4.46134   1
  -3  -9   8 27.1090 4.05659   1
  -3   9   8 31.0981 4.27441   3
  -3   9   8 34.5826 5.10156   1
   3   9  -8 32.8356 4.76333   4
   3   9  -8 23.5764 4.32571   7
  -3   9   8 30.9371 3.90405   9
  -1  -9   8 6.91734 2.16880   1
  -1  -9   8 7.88836 2.24477   6
   1  -9  -8 7.08344 2.65045  14
   1   9  -8 5.24343 3.30540   4
  -1   9   8 7.05071 2.53688   9
  -1   9   8 6.86506 2.63238   1
   1   9  -8 6.44828 2.53088   7
  -1   9   8 5.24648 2.63571   3
  -1  -9  -8 69.0900 5.92616  14
  -1  -9  -8 71.3103 6.02473   2
   1  -9   8 63.4852 4.15529   6
   1   9   8 75.4488 7.13181   1
   1   9   8 65.8732 6.01849   9
  -1   9  -8 71.0716 6.93297   4
  -1   9  -8 68.3677 6.08104   7
   6 -10  -8 609.431 20.6447   1
  -6 -10   8 638.833 20.9681   1
   6  10  -8 642.407 20.7986   7
  -6  10   8 624.368 17.6604   9
  -6  10   8 601.150 19.3376   3
  -4 -10   8 32.4032 4.19167   6
   4 -10  -8 27.5624 4.53755  14
  -4 -10   8 37.5325 4.99980   1
   4 -10  -8 30.1869 5.15771   1
   4  10  -8 31.9754 4.81957   4
   4  10  -8 49.4332 5.94784   7
  -4  10   8 32.5128 3.74540   9
  -4  10   8 25.5884 4.12368   3
   2 -10  -8 777.033 22.8197  14
  -2 -10   8 763.158 21.2793   1
  -2 -10   8 749.470 20.0951   6
   2 -10  -8 758.652 23.1441   1
  -2  10   8 748.896 20.3767   9
   2  10  -8 798.173 23.4453   7
  -2  10   8 716.562 21.6009   3
   2  10  -8 813.236 24.4386   4
   0 -10   8 20.8072 3.06462   6
   0 -10  -8 27.1779 4.27137  14
   0  10   8 19.8466 4.67624   1
   0  10   8 20.8286 3.76860   9
   0  10   8 19.0028 4.05681   3
   0  10  -8 22.4494 4.51381   7
   0  10  -8 21.3054 4.68199   4
  -3 -11   8 62.0900 5.23122   6
   3 -11  -8 67.1352 6.45760   1
   3 -11  -8 60.2518 6.41887  14
  -3 -11   8 64.4941 5.93791   1
   3  11  -8 67.8517 6.95126   7
   3  11  -8 50.4486 6.31814   4
 -12   0   9 0.83798 1.76185   5
  12   0  -9 3.01852 3.19107   1
 -12   0   9 -0.6142 1.29609  12
  10   0  -9 0.62791 1.95816  13
 -10   0   9 -0.1314 1.20822  12
  10   0  -9 -1.2402 2.54044   1
  -8   0   9 0.89085 1.49026  12
  -8   0   9 0.39635 1.43877   9
   8   0  -9 0.67968 1.89239   4
   8   0  -9 1.06785 1.69085   1
   8   0  -9 2.43152 2.57336  13
  -8   0   9 0.42615 1.89757   1
   6   0  -9 1.16678 1.53365  13
  -6   0   9 0.96330 1.38992  12
   6   0  -9 1.04757 1.60026   1
   6   0  -9 0.95188 1.24496  14
   6   0  -9 1.15259 1.74781   4
  -6   0   9 0.38640 2.25845  10
  -6   0   9 1.65831 1.83460   1
  -4   0   9 -0.7574 1.92351  10
   4   0  -9 1.64487 1.67714   4
   4   0  -9 9.50979 2.01452   2
  -4   0   9 1.63996 1.64509   1
   4   0  -9 1.82230 1.47397   7
  -4   0   9 2.27810 1.34470   6
  -4   0   9 1.23549 1.44503  12
  -4   0   9 3.22107 1.48546   9
   4   0  -9 0.74992 1.49888  14
   2   0  -9 5.92754 2.08230   4
  -2   0   9 -0.4623 1.43278  12
   2   0  -9 0.55388 1.09318   7
   2   0  -9 0.54097 1.17622   2
  -2   0   9 0.06350 1.06048   1
  -2   0   9 0.03263 1.32865   9
  -2   0   9 -0.1255 1.46584  10
  -2   0   9 1.24542 1.39874   6
   0   0  -9 1.85705 1.89095  14
   0   0  -9 -0.1978 1.01257   4
   0   0   9 -0.4668 1.59360   9
   0   0   9 2.82877 1.67871   1
   0   0  -9 3.91245 1.94946   2
   0   0   9 1.03354 1.69177  12
   0   0   9 1.77426 1.45815   6
  -2   0  -9 -1.4931 1.80737  14
   2   0   9 1.62377 2.23279   9
  -2   0  -9 3.98534 2.55889   8
   2   0   9 14.5019 3.03957  12
   2   0   9 -0.0152 1.27244   1
   2   0   9 2.97658 1.59834   6
  -2   0  -9 3.06525 2.05359   2
  -4   0  -9 0.66470 2.08627  14
   4   0   9 -0.3355 2.29203   9
  -4   0  -9 -1.8460 2.15909   2
   4   0   9 1.95175 1.72214   6
  -4   0  -9 1.99389 2.81435   8
 -11  -1   9 310.408 11.0975  12
  11  -1  -9 317.576 13.8160   1
 -11  -1   9 298.280 11.7658   5
 -11   1   9 318.988 10.9552  12
 -11   1   9 291.136 11.9631   5
  11   1  -9 313.296 14.1805   1
   9  -1  -9 547.014 21.4200  13
  -9  -1   9 590.666 18.1205   1
   9  -1  -9 619.274 19.3760   1
  -9  -1   9 589.234 15.8210  12
   9  -1  -9 572.145 17.1378   4
  -9   1   9 594.786 15.6328  12
  -9   1   9 586.296 16.1491   9
   9   1  -9 576.154 16.7837   4
   9   1  -9 537.780 21.0727  13
   9   1  -9 569.946 19.0483   1
  -9   1   9 566.176 17.4516   1
  -7  -1   9 512.730 13.9680  12
  -7  -1   9 537.246 16.5499   1
   7  -1  -9 499.267 18.6753  13
   7  -1  -9 540.737 16.8091   1
   7  -1  -9 536.011 15.7883   4
  -7  -1   9 517.726 13.8974   9
  -7   1   9 519.034 16.3309   1
   7   1  -9 540.206 16.3612   1
  -7   1   9 518.635 13.8253  12
   7   1  -9 518.840 18.9630  13
  -7   1   9 506.129 14.1756   9
   7   1  -9 530.634 15.6428   4
  -5  -1   9 854.389 19.7269   9
   5  -1  -9 872.632 24.7477  13
   5  -1  -9 849.038 19.8973   2
  -5  -1   9 883.756 20.4245  12
  -5  -1   9 894.935 22.9155   1
  -5  -1   9 883.718 20.5283   6
   5  -1  -9 825.390 21.6558   1
   5  -1  -9 879.706 21.6036  14
   5  -1  -9 868.563 21.5726   4
  -5  -1   9 835.741 27.0635  10
  -5   1   9 915.304 22.9804   1
   5   1  -9 873.316 21.6569  14
  -5   1   9 908.811 20.4114  12
   5   1  -9 899.952 21.9817   4
  -5   1   9 884.846 20.5116   6
  -5   1   9 836.915 27.5307  10
  -5   1   9 898.565 20.5862   9
   5   1  -9 796.267 21.2536   1
  -3  -1   9 646.410 15.8263   9
  -3  -1   9 596.023 22.5299  10
   3  -1  -9 646.492 15.7107   7
  -3  -1   9 660.060 16.4518  12
   3  -1  -9 632.517 17.1662   2
  -3  -1   9 670.250 16.4423   6
   3  -1  -9 662.415 18.0914  14
   3  -1  -9 647.693 17.1535   4
  -3  -1   9 618.393 17.6126   1
  -3   1   9 597.285 22.8037  10
  -3   1   9 649.531 16.3078   6
   3   1  -9 649.630 17.6912   2
   3   1  -9 647.515 17.3675   4
  -3   1   9 666.827 16.4284  12
   3   1  -9 644.001 18.1660  14
  -3   1   9 654.015 18.2196   1
  -3   1   9 646.239 16.3160   9
   3   1  -9 671.359 16.4228   7
   1  -1  -9 610.950 17.7213  14
   1  -1  -9 594.624 17.8794   2
  -1  -1   9 636.144 16.8716   1
  -1  -1   9 636.125 16.4147  12
   1  -1  -9 638.207 16.7730   4
  -1  -1   9 625.334 15.7278   6
  -1  -1   9 573.902 15.5974   9
  -1  -1   9 598.042 26.6392  10
   1   1  -9 619.531 18.3703   2
  -1   1   9 627.804 16.0591   6
  -1   1   9 620.929 17.4180   1
   1   1  -9 601.545 18.0016  14
  -1   1   9 632.601 16.6692   9
   1   1  -9 609.652 16.8715   4
  -1   1   9 622.400 16.2942  12
  -1  -1  -9 497.165 14.4842   4
   1  -1   9 528.541 14.4243   1
  -1  -1  -9 535.195 16.5500  14
  -1  -1  -9 501.499 16.2634   8
   1  -1   9 532.567 13.8375   6
   1  -1   9 533.810 15.1048  12
  -1  -1  -9 515.673 16.8979   2
   1  -1   9 506.827 14.9269   9
   1   1   9 518.643 15.2203  12
  -1   1  -9 582.536 18.0023   2
   1   1   9 529.610 14.5199   6
  -1   1  -9 512.109 16.4935  14
   1   1   9 525.068 15.4217   1
   1   1   9 509.733 15.4908   9
  -1   1  -9 527.522 15.5275   4
  -3  -1  -9 263.605 11.3458  14
   3  -1   9 265.417 10.6116   9
  -3  -1  -9 274.238 12.2044   2
   3  -1   9 265.628 8.94007   6
  -3  -1  -9 265.978 11.8508   8
   3  -1   9 261.474 10.3756  12
   3   1   9 273.091 10.7843  12
  -3   1  -9 270.669 11.3742  14
   3   1   9 268.015 11.0371   9
   3   1   9 267.443 9.69563   6
  -3   1  -9 261.307 12.0221   2
  -3   1  -9 259.303 11.6038   8
 -10  -2   9 95.4786 6.60548   1
  10  -2  -9 107.608 8.02185   1
 -10  -2   9 102.343 6.05226  12
  10  -2  -9 83.1171 6.45198   4
 -10   2   9 101.651 5.65805  12
  10   2  -9 108.714 8.28668   1
   8  -2  -9 179.013 9.34047   1
  -8  -2   9 183.310 7.55804  12
  -8  -2   9 180.999 8.93190   1
   8  -2  -9 178.495 10.7948  13
   8  -2  -9 187.942 8.86963   4
  -8   2   9 166.258 8.34425   1
   8   2  -9 180.341 8.42951   4
  -8   2   9 178.061 7.12814  12
  -8   2   9 173.660 7.69542   9
   8   2  -9 183.041 9.29931   1
  -6  -2   9 215.236 12.4945  10
   6  -2  -9 228.256 9.38414   4
   6  -2  -9 227.470 11.2198  13
   6  -2  -9 221.889 9.69122   1
  -6  -2   9 223.620 8.01574  12
  -6  -2   9 213.596 7.42646   9
   6  -2  -9 228.386 8.64209  14
  -6  -2   9 236.697 8.60911   6
  -6  -2   9 227.615 9.87531   1
  -6   2   9 240.079 10.0128   1
   6   2  -9 249.743 9.64473   7
  -6   2   9 230.202 8.21067   9
   6   2  -9 230.434 9.26365   4
   6   2  -9 229.454 9.35182   1
   6   2  -9 204.129 8.11550  14
  -6   2   9 224.742 7.85752  12
  -4  -2   9 172.234 6.99289  12
   4  -2  -9 166.092 7.71162  14
   4  -2  -9 158.073 6.71440   2
  -4  -2   9 158.484 10.4537  10
   4  -2  -9 177.446 9.25508  13
  -4  -2   9 166.340 8.03876   1
  -4  -2   9 163.053 6.78846   6
  -4  -2   9 159.656 6.04730   9
   4  -2  -9 170.844 7.61108   4
   4  -2  -9 164.370 7.32627   1
  -4   2   9 175.881 7.11981   9
   4   2  -9 175.505 7.41144   7
  -4   2   9 157.168 10.5484  10
   4   2  -9 167.457 7.83496  14
  -4   2   9 177.424 6.98628   6
   4   2  -9 170.500 7.79395   4
  -4   2   9 177.973 8.29047   1
  -4   2   9 169.525 6.52445  12
  -2  -2   9 272.218 9.39280  12
  -2  -2   9 268.158 14.0902  10
  -2  -2   9 280.059 10.0575   1
   2  -2  -9 271.450 10.3832   2
   2  -2  -9 271.822 10.5009  14
  -2  -2   9 275.052 8.98298   6
  -2  -2   9 270.378 8.52722   9
   2  -2  -9 269.776 9.63026   4
  -2   2   9 269.976 9.56105   9
   2   2  -9 267.433 10.6462   2
  -2   2   9 276.484 9.42172   6
  -2   2   9 275.705 9.29634  12
  -2   2   9 276.272 10.6626   1
   2   2  -9 266.947 8.97945   7
   2   2  -9 276.111 10.7559  14
   2   2  -9 272.043 10.0369   4
   0  -2  -9 189.397 9.20444   2
   0  -2  -9 184.124 7.66144   4
   0  -2  -9 185.465 8.74155  14
   0  -2   9 187.647 7.97398  12
   0  -2   9 182.755 7.35632   9
   0  -2   9 185.677 6.97419   6
   0  -2  -9 177.948 8.38414   8
   0  -2   9 180.295 7.36575   1
   0   2   9 189.173 8.50114   1
   0   2  -9 188.055 9.09791  14
   0   2   9 185.267 7.72520   6
   0   2  -9 180.960 9.33379   2
   0   2   9 195.365 8.02371  12
   0   2  -9 200.274 8.53023   4
   0   2   9 175.731 7.92491   9
   2  -2   9 147.033 7.39199  12
   2  -2   9 145.487 7.21540   9
  -2  -2  -9 155.843 8.43692  14
   2  -2   9 152.940 6.07393   6
  -2  -2  -9 157.822 8.74029   2
  -2  -2  -9 151.948 8.57668   8
  -2   2  -9 152.146 7.71939   4
   2   2   9 141.383 7.45141  12
  -2   2  -9 159.933 9.27848   2
   2   2   9 155.170 7.28160   6
   2   2   9 151.726 7.70279   1
   2   2   9 152.636 8.23765   9
  -2   2  -9 143.874 8.31548  14
   4  -2   9 155.489 6.14898   6
  -4  -2  -9 151.142 8.47048  14
  -4  -2  -9 166.660 9.40657   8
  -4  -2  -9 153.427 8.95064   2
   4  -2   9 152.443 7.79838  12
  -4   2  -9 137.413 8.92493   2
   4   2   9 147.844 8.66521   9
   4   2   9 148.763 7.29590   6
  -4   2  -9 149.930 8.44416  14
 -11  -3   9 44.0822 4.69871  12
 -11  -3   9 41.2639 4.92535   8
 -11  -3   9 23.7052 5.69331   5
  11  -3  -9 37.9124 5.63901   1
 -11   3   9 34.6442 3.77421  12
  11   3  -9 44.3664 6.31468   1
   9  -3  -9 1109.99 29.3414   1
  -9  -3   9 1109.49 28.7894   1
   9  -3  -9 1057.84 33.3962  13
  -9  -3   9 1147.31 26.1731  12
  -9   3   9 1090.03 26.2273   9
  -9   3   9 1099.73 24.9270  12
   9   3  -9 1128.21 29.8923   1
   7  -3  -9 28.4168 5.17921  13
  -7  -3   9 23.4522 3.85728   1
   7  -3  -9 21.6242 3.85273   1
  -7  -3   9 27.3498 3.23677  12
   7   3  -9 29.2271 3.97313   4
  -7   3   9 29.5387 3.58770   9
   7   3  -9 27.5640 4.03296   7
   7   3  -9 24.3956 3.86529   1
  -7   3   9 29.8799 2.99490  12
  -7   3   9 28.1308 3.76661   1
  -5  -3   9 1678.13 34.7455  12
   5  -3  -9 1605.61 35.7516  14
  -5  -3   9 1648.40 34.9057   6
  -5  -3   9 1563.29 41.8284  10
   5  -3  -9 1595.05 39.2472  13
  -5  -3   9 1641.56 37.1852   1
   5  -3  -9 1648.83 37.1874   1
  -5   3   9 1712.75 34.2415  12
   5   3  -9 1695.85 36.3050   7
  -5   3   9 1665.01 35.1259   9
  -5   3   9 1689.11 37.7211   1
   5   3  -9 1625.72 36.1480  14
   5   3  -9 1670.63 36.6935   4
   3  -3  -9 92.5112 6.53521  13
  -3  -3   9 87.3965 4.93235   6
   3  -3  -9 90.9821 5.66230  14
   3  -3  -9 86.4985 5.23932   2
  -3  -3   9 87.7708 7.77288  10
   3  -3  -9 85.1411 5.42106   4
  -3  -3   9 94.9887 5.83305   1
  -3  -3   9 94.9424 5.16049  12
  -3   3   9 90.5279 6.17349   1
  -3   3   9 90.1774 4.94546  12
  -3   3   9 88.3552 5.09890   6
   3   3  -9 87.5399 6.14197  14
   3   3  -9 100.990 5.91776   4
  -3   3   9 87.7310 5.35781   9
   3   3  -9 107.322 5.70885   7
  -1  -3   9 1599.35 33.2747   6
   1  -3  -9 1580.22 36.2540   2
  -1  -3   9 1632.26 34.5110   1
   1  -3  -9 1606.83 36.0467  14
  -1  -3   9 1563.38 34.0532  12
   1  -3  -9 1582.61 34.3726   4
  -1   3   9 1577.02 34.9250   9
   1   3  -9 1621.02 37.1327  14
  -1   3   9 1586.84 34.1434  12
  -1   3   9 1649.85 36.7912   1
   1   3  -9 1591.14 33.9267   7
   1   3  -9 1596.10 36.0025   4
   1   3  -9 1574.28 37.3016   2
  -1   3   9 1621.75 34.6444   6
  -1  -3  -9 166.144 8.52124  14
   1  -3   9 153.022 7.41097  12
  -1  -3  -9 162.993 8.49222   8
   1  -3   9 157.083 6.31084   6
  -1  -3  -9 187.654 9.56467   2
   1   3   9 159.224 8.35422   1
   1   3   9 151.796 8.08887   9
  -1   3  -9 153.598 7.98857   4
  -1   3  -9 149.142 8.97032   2
   1   3   9 155.622 7.49104   6
  -1   3  -9 154.492 8.70015  14
   1   3   9 165.620 7.69979  12
   3  -3   9 773.989 20.7103  12
  -3  -3  -9 836.894 23.3201   8
  -3  -3  -9 821.240 22.5858  14
  -3  -3  -9 803.012 23.4533   2
   3  -3   9 799.290 18.2415   6
  -3   3  -9 794.977 23.6427   2
   3   3   9 823.639 21.2043   6
   3   3   9 795.636 21.6892   1
  -3   3  -9 775.709 22.6056  14
   3   3   9 777.256 22.4691   9
 -10  -4   9 139.905 7.31545  12
 -10  -4   9 144.282 8.88951   1
  10  -4  -9 136.075 8.53091   1
 -10   4   9 139.228 6.44023  12
  10   4  -9 144.271 9.34120   7
  10   4  -9 148.784 9.34291   1
   8  -4  -9 317.739 15.4014  13
  -8  -4   9 339.850 13.3556   1
  -8  -4   9 307.220 10.6093  12
   8  -4  -9 326.151 13.2816   1
  -8   4   9 286.335 13.6862   1
   8   4  -9 304.296 12.4836   7
  -8   4   9 319.483 9.80428  12
   8   4  -9 297.705 11.5492   4
   8   4  -9 322.579 13.0312   1
  -8   4   9 307.913 10.9141   9
   6  -4  -9 409.773 14.3051   1
   6  -4  -9 399.919 16.1466  13
   6  -4  -9 387.203 12.4709  14
  -6  -4   9 409.032 14.2703   1
  -6  -4   9 398.202 12.1513   6
  -6  -4   9 414.384 11.9870  12
  -6   4   9 399.087 13.8522   1
   6   4  -9 391.933 12.5411  14
   6   4  -9 394.226 13.3133   4
   6   4  -9 398.251 13.5415   7
  -6   4   9 404.749 11.2572  12
  -6   4   9 381.074 12.0591   9
   4  -4  -9 234.460 11.0358  13
  -4  -4   9 262.304 17.8981  10
   4  -4  -9 228.220 9.70886   1
  -4  -4   9 254.698 8.90197  12
  -4  -4   9 255.007 10.2261   1
  -4  -4   9 259.988 9.02735   6
   4  -4  -9 263.194 10.1089  14
   4   4  -9 258.911 10.3196   4
  -4   4   9 242.060 8.21226  12
   4   4  -9 250.328 10.4732  14
  -4   4   9 254.748 9.36143   9
   4   4  -9 255.671 9.80899   7
  -4   4   9 263.889 10.8365   1
   2  -4  -9 425.111 13.7587  14
  -2  -4   9 410.416 12.8237   1
  -2  -4   9 402.303 12.2123  12
   2  -4  -9 403.914 13.2869   2
  -2  -4   9 415.583 11.9937   6
   2  -4  -9 412.433 12.7297   4
   2   4  -9 422.176 14.2053   4
   2   4  -9 416.371 12.8104   7
   2   4  -9 420.625 14.6236  14
  -2   4   9 406.082 12.8698   9
  -2   4   9 420.878 12.7390   6
  -2   4   9 424.952 12.1888  12
  -2   4   9 431.368 14.8097   1
   0  -4   9 174.878 7.65009  12
   0  -4  -9 169.341 7.28296   4
   0  -4   9 169.321 6.57074   6
   0  -4  -9 172.050 9.00572   2
   0  -4  -9 163.854 8.24566  14
   0  -4   9 162.471 6.70280   1
   0  -4  -9 159.190 7.90237   8
   0   4  -9 159.429 8.93696   2
   0   4   9 178.277 9.18540   1
   0   4   9 176.914 7.94173   6
   0   4  -9 158.793 8.15384   4
   0   4   9 174.453 8.50235   9
   0   4  -9 177.281 9.26122  14
   0   4   9 164.749 7.53272  12
   0   4  -9 167.795 7.41635   7
  -2  -4  -9 122.947 7.75902   8
   2  -4   9 121.332 6.73305  12
   2  -4   9 114.830 5.04609   6
  -2  -4  -9 120.441 7.80350   2
  -2  -4  -9 126.612 7.81146  14
  -2   4  -9 127.345 7.51499   4
  -2   4  -9 125.687 8.49481   2
   2   4   9 119.967 7.70383   9
   2   4   9 129.779 7.13705   6
   2   4   9 126.457 7.80531   1
  -2   4  -9 125.127 8.11895  14
   2   4   9 123.451 6.94544  12
   4  -4   9 89.3535 4.10850   6
  -4  -4  -9 101.940 7.14524  14
   4  -4   9 87.8543 5.96018  12
  -4  -4  -9 84.9962 7.15390   8
  -4  -4  -9 95.9059 7.81493   2
   4   4   9 96.7783 6.44112   6
   4   4   9 91.5115 6.55861   1
  -4   4  -9 87.6534 6.99369  14
  -4   4  -9 100.454 7.62938   2
 -11  -5   9 362.773 13.2198   8
  11  -5  -9 370.136 14.9258   1
 -11  -5   9 351.053 12.5411  12
  11   5  -9 367.519 15.3104   7
 -11   5   9 364.274 13.8990   5
  11   5  -9 365.561 16.0811   1
  -9  -5   9 418.806 13.1943  12
   9  -5  -9 423.980 15.9583   1
  -9  -5   9 439.042 16.1859   1
  -9   5   9 414.538 13.6463   9
   9   5  -9 421.314 15.7819   7
   9   5  -9 423.606 16.0902   1
   7  -5  -9 745.696 24.7761  13
  -7  -5   9 775.914 22.3774   1
   7  -5  -9 776.929 22.5821   1
  -7  -5   9 754.240 19.0314  12
   7   5  -9 750.831 21.3050   4
  -7   5   9 756.739 17.8549  12
  -7   5   9 751.882 19.6767   9
  -7   5   9 769.438 21.2884   1
   7   5  -9 760.673 21.4881   7
   5  -5  -9 561.345 18.9680  13
   5  -5  -9 572.297 17.5397   1
  -5  -5   9 539.681 15.1821   6
  -5  -5   9 570.074 17.3556   1
  -5  -5   9 552.104 14.7869  12
   5  -5  -9 539.135 16.0589  14
   5   5  -9 569.353 16.7397   7
  -5   5   9 538.041 17.0940   1
  -5   5   9 546.046 15.5453   9
   5   5  -9 508.946 16.1822  14
  -5   5   9 543.130 13.9124  12
   5   5  -9 544.275 17.2020   4
   3  -5  -9 710.628 19.4985  14
   3  -5  -9 660.477 19.0195   1
  -3  -5   9 710.841 19.1571   1
  -3  -5   9 696.619 17.7834   6
   3  -5  -9 704.458 20.6510  13
  -3  -5   9 688.702 17.6148  12
  -3   5   9 699.913 17.0372  12
  -3   5   9 729.601 18.8381   9
   3   5  -9 704.359 20.0938   4
   3   5  -9 677.480 20.3699  14
  -3   5   9 714.031 20.8532   1
   3   5  -9 721.666 19.2125   7
  -1  -5   9 276.559 9.08174   6
  -1  -5   9 271.781 9.54551   1
  -1  -5   9 258.779 9.25838  12
   1  -5  -9 257.344 9.58220   4
   1  -5  -9 276.648 11.1330  14
   1  -5  -9 284.786 11.2737   2
  -1   5   9 282.684 10.7489   9
  -1   5   9 277.453 11.8750   1
   1   5  -9 283.965 10.4808   7
   1   5  -9 266.705 11.9003  14
  -1   5   9 268.253 10.1797   6
   1   5  -9 277.354 11.5387   4
  -1   5   9 277.653 9.40063  12
   1  -5   9 416.775 11.3458   6
   1  -5   9 384.868 12.4754  12
  -1  -5  -9 370.707 13.5410   8
  -1  -5  -9 418.376 15.0815   2
  -1  -5  -9 391.885 14.0493  14
   1   5   9 405.788 12.9359  12
  -1   5  -9 414.777 15.1531  14
   1   5   9 392.660 14.9682   1
   1   5   9 401.804 13.5678   6
   1   5   9 403.041 14.1102   9
  -1   5  -9 416.691 14.5959   4
  -3  -5  -9 159.453 8.47949  14
  -3  -5  -9 132.198 8.99697   2
  -3  -5  -9 144.701 8.69374   8
   3  -5   9 151.947 5.53289   6
  -3   5  -9 142.922 8.96908   2
  -3   5  -9 146.807 8.32255   4
  -3   5  -9 151.068 8.98612  14
   3   5   9 137.520 7.61781  12
   3   5   9 160.172 9.13730   9
   3   5   9 147.246 8.10449   6
   3   5   9 159.116 9.04366   1
  10  -6  -9 252.119 11.9933   1
 -10  -6   9 251.683 11.9284   1
  10   6  -9 239.476 11.7434   7
 -10   6   9 253.726 11.3024   5
   8  -6  -9 185.687 10.4045   1
  -8  -6   9 194.976 10.6152   1
  -8  -6   9 184.194 8.04840  12
   8   6  -9 199.623 10.3223   7
  -8   6   9 188.158 8.70619   9
  -6  -6   9 201.130 7.97902  12
  -6  -6   9 195.266 8.38299   6
   6  -6  -9 193.661 11.3038  13
  -6  -6   9 200.379 10.0992   1
   6  -6  -9 211.681 10.4408   1
   6  -6  -9 189.895 8.69985  14
   6   6  -9 198.514 9.71218   4
  -6   6   9 202.202 9.67057   1
   6   6  -9 193.633 9.25811   7
  -6   6   9 197.622 8.53330   9
  -4  -6   9 393.700 11.9119  12
   4  -6  -9 404.255 15.4715  13
  -4  -6   9 426.107 14.3654   1
   4  -6  -9 414.086 14.4316   1
   4  -6  -9 428.619 13.9577  14
  -4  -6   9 401.583 12.5802   6
  -4   6   9 419.854 15.0771   1
   4   6  -9 404.355 13.7227   7
  -4   6   9 405.191 13.0685   9
   4   6  -9 411.992 14.7351   4
   4   6  -9 387.425 14.4065  14
  -2  -6   9 109.126 6.26560   1
  -2  -6   9 116.139 5.83916   6
  -2  -6   9 111.945 5.84044  12
   2  -6  -9 107.896 7.05040  14
   2  -6  -9 103.831 6.42636   2
   2   6  -9 111.552 7.66898   4
  -2   6   9 118.710 7.92798   1
  -2   6   9 105.529 5.44563  12
  -2   6   9 116.558 6.75725   9
   2   6  -9 111.907 6.91135   7
   2   6  -9 114.328 7.83860  14
   0  -6  -9 191.004 9.23725  14
   0  -6  -9 179.412 9.42400   2
   0  -6  -9 230.937 13.3307   8
   0  -6   9 191.368 7.17505   6
   0   6  -9 199.328 10.4860  14
   0   6   9 192.322 8.07993  12
   0   6  -9 185.390 9.77086   4
   0   6   9 199.923 10.2935   1
   0   6   9 193.712 9.01622   9
   0   6  -9 189.244 8.87070   7
  -2  -6  -9 103.158 7.35345   2
  -2  -6  -9 117.974 7.77586  14
   2  -6   9 107.782 4.84720   6
  -2  -6  -9 113.568 7.45111   8
   2   6   9 104.637 6.17976  12
   2   6   9 113.343 7.84161   1
   2   6   9 104.414 7.51147   9
  -2   6  -9 116.278 8.30958  14
  -2   6  -9 110.841 7.50780   4
   2   6   9 112.930 7.20040   6
  -9  -7   9 41.7364 5.43445   1
   9  -7  -9 53.8941 6.30037   1
  -9  -7   9 39.7881 4.33524  12
  -9   7   9 50.1341 5.50043   5
   9   7  -9 39.9054 5.61008   7
  -9   7   9 52.4376 5.28539   9
  -7  -7   9 604.888 16.4852  12
  -7  -7   9 630.847 20.4144   1
   7  -7  -9 626.550 20.2304   1
  -7   7   9 608.888 17.4616   9
   7   7  -9 596.799 19.2611   7
  -5  -7   9 63.2110 5.86867   1
   5  -7  -9 50.8758 6.04132  13
  -5  -7   9 48.6501 4.06180  12
   5  -7  -9 53.3879 4.79688  14
  -5  -7   9 56.6304 4.73005   6
   5  -7  -9 69.3462 5.91494   1
  -5   7   9 56.9136 4.57886   9
   5   7  -9 59.7567 5.62902   7
  -5   7   9 61.8213 5.90460   1
   5   7  -9 61.7079 5.54972   4
   3  -7  -9 977.861 25.3563  14
  -3  -7   9 981.747 23.4558   6
  -3  -7   9 966.324 24.7719   1
   3  -7  -9 937.127 25.5996   1
  -3   7   9 984.198 24.2483   9
  -3   7   9 976.481 26.9635   1
   3   7  -9 940.650 26.7367  14
   3   7  -9 965.685 26.2795   4
   3   7  -9 935.667 25.0444   7
   1  -7  -9 183.163 9.45835  14
  -1  -7   9 178.655 7.68442   1
  -1  -7   9 176.161 7.42953   6
  -1   7   9 186.574 8.93903   9
   1   7  -9 196.223 10.7505  14
   1   7  -9 191.177 10.1260   4
  -1   7   9 191.597 10.6802   1
   1   7  -9 177.060 9.06591   7
  -1  -7  -9 907.729 25.2961   2
  -1  -7  -9 906.542 24.9473  14
   1  -7   9 931.852 20.8266   6
  -1   7  -9 893.950 24.1262   7
  -1   7  -9 913.552 26.6147  14
  -1   7  -9 918.323 25.5742   4
   1   7   9 915.333 26.8663   1
   1   7   9 859.140 24.2011   9
  -8  -8   9 38.7065 5.64485   1
   8  -8  -9 52.6798 6.59694   1
   8   8  -9 40.6788 5.35949   7
  -8   8   9 48.5162 4.84523   9
  -8   8   9 40.7560 4.55030   5
   6  -8  -9 45.9659 5.85809   1
  -6  -8   9 47.1960 6.00467   1
   6   8  -9 45.4365 5.61608   4
  -6   8   9 48.6480 4.96111   9
   6   8  -9 42.8195 5.50896   7
   4  -8  -9 179.985 9.73311   1
  -4  -8   9 189.605 9.53892   1
   4  -8  -9 189.272 9.57005  14
  -4  -8   9 185.435 8.45268   6
   4   8  -9 180.536 9.61402   7
  -4   8   9 181.186 8.35181   9
  -4   8   9 177.889 9.66724   1
   4   8  -9 181.736 10.0982   4
  -2  -8   9 30.1326 3.56582   6
  -2  -8   9 24.6691 3.63549   1
   2  -8  -9 30.2776 4.51314  14
   2   8  -9 28.2880 5.12965  14
   2   8  -9 30.9862 4.70905   4
  -2   8   9 25.7385 4.75912   1
  -2   8   9 33.6046 4.49793   9
   2   8  -9 32.5661 4.81585   7
   0  -8  -9 154.605 8.88622   2
   0  -8   9 155.784 6.76803   6
   0  -8  -9 150.180 8.58155  14
   0   8   9 165.306 10.0513   1
   0   8   9 156.406 8.32472   9
   0   8  -9 154.620 9.58906   4
   0   8  -9 157.738 9.56658  14
   0   8  -9 163.298 9.05287   7
  -7  -9   9 378.623 15.5739   1
   7  -9  -9 356.984 15.2373   1
  -7   9   9 358.717 12.8366   9
   5  -9  -9 643.532 20.0189  14
  -5  -9   9 670.906 19.0573   6
   5  -9  -9 695.372 22.0179   1
  -5  -9   9 682.453 20.9509   1
  -5   9   9 635.277 18.3577   9
   5   9  -9 625.017 20.5730   7
   5   9  -9 659.123 21.1324   4
  -3  -9   9 207.764 9.80700   1
   3  -9  -9 229.373 11.0253  14
   3  -9  -9 213.094 10.9211   1
  -3  -9   9 224.261 9.34980   6
  -3   9   9 222.201 9.66409   9
   3   9  -9 206.932 10.4656   7
  -3   9   9 218.594 11.4852   1
   3   9  -9 219.888 11.4625   4
   1  -9  -9 362.481 14.4024  14
  -1  -9   9 383.915 12.0596   6
   1   9  -9 346.375 14.9952   4
  -1   9   9 361.595 13.1108   9
   1   9  -9 350.065 13.9553   7
  -1   9   9 362.685 15.5639   1
  -4 -10   9 54.4899 5.81791   1
  -4 -10   9 44.1352 4.68613   6
   4 -10  -9 60.1154 6.55796   1
   4 -10  -9 49.6121 5.33104  14
  -4  10   9 53.4827 5.23818   9
   4  10  -9 50.1999 6.57632   4
   4  10  -9 52.6192 6.41614   7
  -2 -10   9 9.78883 2.63038   6
   2 -10  -9 9.98210 3.64785  14
  -2 -10   9 7.16142 2.46547   1
  -2  10   9 6.67954 3.29257   1
   2  10  -9 5.99939 3.40031   4
   2  10  -9 7.31397 3.53337   7
  -2  10   9 6.68401 2.72836   9
  10   0 -10 1511.31 38.2503   1
 -10   0  10 1504.68 33.5800  12
  -8   0  10 167.789 8.85344   1
  -8   0  10 178.384 7.40176  12
  -8   0  10 172.218 7.56895   9
   8   0 -10 175.582 9.52534   1
   8   0 -10 170.888 11.1802  13
   8   0 -10 174.514 8.77859   4
   6   0 -10 1432.81 37.5173  13
   6   0 -10 1439.75 33.6413   1
   6   0 -10 1448.29 33.5044   4
  -6   0  10 1461.03 31.3927   9
   6   0 -10 1375.87 32.4018  14
  -6   0  10 1502.89 35.0860   1
  -6   0  10 1503.61 31.6716  12
  -4   0  10 72.3164 4.82021  12
   4   0 -10 74.1708 5.44678   4
   4   0 -10 81.5955 5.90383  14
   4   0 -10 80.2932 4.74375   7
  -4   0  10 76.4480 4.80165   9
  -4   0  10 80.3662 6.04731   1
   4   0 -10 73.7310 5.26640   2
  -4   0  10 76.5298 4.91728   6
   2   0 -10 767.109 21.4140  14
  -2   0  10 779.470 19.6941  12
   2   0 -10 753.282 21.4218   2
  -2   0  10 733.705 19.0366   6
   2   0 -10 782.198 20.3250   4
  -2   0  10 752.770 19.2449   9
  -2   0  10 778.246 20.9363   1
   0   0  10 31.3228 4.08484   9
   0   0 -10 34.4171 4.91115   2
   0   0 -10 34.6397 3.63615   4
   0   0 -10 35.8586 4.87576  14
   0   0  10 45.6536 4.00325   6
   0   0  10 41.1086 4.43602  12
   0   0  10 36.7986 4.03977   1
   2   0  10 573.434 17.1485  12
  -2   0 -10 571.189 19.0479   2
  -2   0 -10 562.777 18.1404  14
   2   0  10 557.399 17.1697   9
   2   0  10 570.851 15.5822   6
  11  -1 -10 76.8992 7.51147   1
 -11  -1  10 75.9625 5.22045  12
  11   1 -10 77.1882 7.50131   1
 -11   1  10 79.7724 5.19175  12
   9  -1 -10 79.6436 6.32414   4
   9  -1 -10 87.0926 7.29673   1
  -9  -1  10 87.4565 6.81643   1
  -9  -1  10 90.9799 5.39371  12
   9  -1 -10 81.9192 8.41448  13
  -9   1  10 85.4704 5.74191   9
  -9   1  10 91.1757 5.53705  12
   9   1 -10 86.6246 6.07371   4
  -9   1  10 86.8872 6.74653   1
   9   1 -10 92.5817 7.47583   1
  -7  -1  10 -0.5191 1.28291   9
   7  -1 -10 6.64948 2.62291   4
   7  -1 -10 6.23161 2.27700   1
  -7  -1  10 3.52427 1.88856  12
   7  -1 -10 2.90307 2.14554  13
  -7  -1  10 3.38841 2.42124   1
   7   1 -10 5.87047 2.53293   4
  -7   1  10 5.74187 2.10556   9
  -7   1  10 5.03118 2.00210  12
   7   1 -10 6.21359 2.05848   1
  -7   1  10 3.39069 1.95110   1
   5  -1 -10 219.037 9.38910  14
  -5  -1  10 234.619 10.3471   1
   5  -1 -10 220.690 11.3917  13
  -5  -1  10 207.731 7.75758   9
  -5  -1  10 222.168 8.54114   6
  -5  -1  10 222.412 8.51659  12
   5  -1 -10 220.637 9.17630   4
   5   1 -10 219.531 9.56121   4
   5   1 -10 213.505 8.62674   7
   5   1 -10 198.497 8.91212  14
  -5   1  10 218.396 10.0676   1
  -5   1  10 208.982 8.15452   9
  -5   1  10 235.167 8.62066  12
  -3  -1  10 5.79732 2.40288   1
   3  -1 -10 6.50033 2.03344   4
   3  -1 -10 2.78928 2.13751  14
  -3  -1  10 4.01522 1.87223   6
   3  -1 -10 4.61047 2.23304   2
  -3  -1  10 6.31362 1.85993  12
  -3  -1  10 7.94675 1.81268   9
   3   1 -10 4.90398 1.87217   7
   3   1 -10 6.04006 2.44435   2
   3   1 -10 5.10465 1.91374   4
  -3   1  10 4.29107 2.30035   1
   3   1 -10 12.8583 3.06633  14
  -3   1  10 4.43226 1.89548   6
  -3   1  10 6.73056 2.19435   9
  -3   1  10 6.18538 1.82649  12
  -1  -1  10 42.9733 4.20696   1
  -1  -1  10 42.4010 3.96655   9
   1  -1 -10 48.1503 4.39468   4
   1  -1 -10 43.0765 5.12667   2
  -1  -1  10 39.9438 4.33844  12
   1  -1 -10 46.6156 4.65785  14
  -1  -1  10 39.5918 3.83875   6
   1   1 -10 44.2531 5.28645   2
  -1   1  10 50.1706 4.45125  12
   1   1 -10 42.0304 5.21945  14
   1   1 -10 44.6733 4.48241   4
  -1   1  10 42.5162 4.05435   6
  -1   1  10 43.3371 4.66287   1
  -1   1  10 46.3713 4.65423   9
  -1  -1 -10 81.2627 6.54165  14
   1  -1  10 79.4672 5.05880   1
   1  -1  10 81.4483 5.58560  12
   1  -1  10 82.8536 5.79120   9
  -1  -1 -10 78.7641 6.84612   2
   1  -1  10 83.5449 5.05968   6
   1   1  10 82.2781 6.00393  12
   1   1  10 83.3992 5.80789   1
  -1   1 -10 82.0121 5.78230   4
   1   1  10 85.8298 5.58583   6
  -1   1 -10 83.4683 6.27895  14
  -1   1 -10 78.7917 6.90012   2
   1   1  10 78.6446 6.13929   9
   3  -1  10 1.50641 2.18894  12
  -3  -1 -10 1.68215 2.43668  14
   3  -1  10 0.57756 2.27699   9
  -3  -1 -10 3.17958 2.72394   2
   3  -1  10 2.31897 1.57410   6
  -3  -1 -10 3.72203 2.38513   8
  -3   1 -10 0.87815 2.19015  14
  -3   1 -10 -0.0381 2.51094   2
   3   1  10 0.44860 1.54516  12
   3   1  10 0.57023 2.46613   9
   3   1  10 3.17796 1.81496   6
 -10  -2  10 56.4115 6.00001   1
  10  -2 -10 50.9276 4.90975   4
 -10  -2  10 66.1581 4.74476  12
  10  -2 -10 49.6439 6.29399   1
  10   2 -10 45.8250 5.99928   1
 -10   2  10 68.3914 4.87741  12
   8  -2 -10 613.765 19.4574   1
   8  -2 -10 575.814 21.7932  13
  -8  -2  10 600.960 18.8935   1
  -8  -2  10 568.636 16.0230  12
   8  -2 -10 573.775 17.9909   4
   8   2 -10 595.019 18.8800   1
  -8   2  10 590.341 15.7472  12
  -8   2  10 583.504 16.5380   9
   8   2 -10 606.656 18.0179   4
  -8   2  10 585.554 18.4875   1
   6  -2 -10 138.226 7.67862   1
   6  -2 -10 129.161 6.86596  14
   6  -2 -10 125.149 6.99180   4
  -6  -2  10 142.937 8.26185   1
   6  -2 -10 130.935 8.77143  13
  -6  -2  10 134.832 6.35563  12
  -6   2  10 144.665 8.24588   1
   6   2 -10 112.713 6.52008  14
   6   2 -10 136.805 7.54613   4
  -6   2  10 120.729 6.42711   9
  -6   2  10 126.113 6.14162  12
   6   2 -10 135.149 7.07046   7
   4  -2 -10 1467.98 34.0582  14
   4  -2 -10 1496.92 36.7187  13
   4  -2 -10 1479.51 32.6055   2
  -4  -2  10 1492.30 34.6562   1
   4  -2 -10 1471.78 33.3812   4
  -4  -2  10 1498.77 32.4449  12
  -4  -2  10 1486.10 32.3512   6
   4   2 -10 1488.06 32.6887   7
   4   2 -10 1490.40 34.6418  14
  -4   2  10 1463.82 32.3233   9
  -4   2  10 1452.61 34.9344   1
  -4   2  10 1491.53 31.8799  12
  -4   2  10 1446.64 32.2579   6
   4   2 -10 1434.08 33.8288   4
  -2  -2  10 312.455 10.9561  12
   2  -2 -10 314.956 12.0020  14
  -2  -2  10 309.393 11.3103   1
  -2  -2  10 324.834 10.6188   6
   2  -2 -10 313.902 12.0599   2
   2  -2 -10 318.299 11.1029   4
  -2   2  10 315.994 10.9810   6
   2   2 -10 329.970 12.8479   2
  -2   2  10 328.848 12.6175   1
   2   2 -10 320.233 11.7951   4
  -2   2  10 309.648 11.0876   9
   2   2 -10 311.906 12.3433  14
  -2   2  10 303.558 10.6271  12
   2   2 -10 303.381 10.0988   7
   0  -2 -10 1339.22 31.0978   4
   0  -2  10 1392.11 30.1950   6
   0  -2 -10 1388.60 33.3793  14
   0  -2  10 1349.11 31.3372  12
   0  -2  10 1353.23 30.7180   1
   0  -2 -10 1363.99 34.0037   2
   0   2  10 1405.23 32.9175   1
   0   2  10 1316.71 32.0667   9
   0   2 -10 1358.86 34.3766   2
   0   2 -10 1435.37 34.0791  14
   0   2  10 1408.29 31.4691   6
   0   2  10 1394.41 31.8303  12
   0   2 -10 1367.38 32.4817   4
  -2  -2 -10 167.019 9.14341  14
  -2  -2 -10 170.308 9.87492   2
   2  -2  10 155.936 6.72626   6
   2  -2  10 155.994 7.86248  12
  -2  -2 -10 161.826 8.93701   8
  -2   2 -10 156.527 9.11653  14
  -2   2 -10 161.645 9.75600   2
   2   2  10 169.924 8.45311  12
   2   2  10 151.340 8.66159   9
   2   2  10 156.015 8.12662   1
   2   2  10 151.746 7.61506   6
  11  -3 -10 2.89176 3.00414   1
 -11  -3  10 1.45229 1.72275  12
 -11   3  10 2.01523 1.70468  12
  11   3 -10 7.89986 3.83111   7
  11   3 -10 4.89716 3.36291   1
  -9  -3  10 4.94063 2.96311   1
   9  -3 -10 4.72896 2.76330   4
  -9  -3  10 5.38712 2.39108  12
   9  -3 -10 5.01357 2.88669   1
  -9   3  10 7.32162 2.24264  12
   9   3 -10 3.89171 2.99093   1
   9   3 -10 12.0821 3.76815   7
  -9   3  10 4.98647 2.37260   9
   7  -3 -10 13.9890 3.57645  13
   7  -3 -10 17.4595 3.60858   4
  -7  -3  10 18.8283 3.54334   1
   7  -3 -10 13.7332 3.34612   1
  -7  -3  10 18.8389 3.11517  12
  -7   3  10 14.5820 3.40753   1
  -7   3  10 13.1766 2.48548  12
  -7   3  10 15.6310 3.00348   9
   7   3 -10 16.8681 3.46948   4
   7   3 -10 15.8017 3.58784   7
   5  -3 -10 94.6177 7.45531  13
  -5  -3  10 88.0464 6.17480   1
   5  -3 -10 90.5787 6.10576   1
  -5  -3  10 88.4013 5.43051  12
   5  -3 -10 93.5975 6.19327  14
  -5  -3  10 91.0514 5.46480   6
   5  -3 -10 86.7167 6.07919   4
  -5   3  10 79.3139 4.67954  12
   5   3 -10 94.8040 6.09869   7
  -5   3  10 89.2922 6.35975   1
  -5   3  10 90.8096 5.73480   9
   5   3 -10 91.4981 6.24230  14
   5   3 -10 90.8682 6.06213   4
   3  -3 -10 0.91057 1.97874  13
   3  -3 -10 8.41823 2.43453   2
   3  -3 -10 1.51126 1.88487   4
  -3  -3  10 2.22639 1.53772   1
  -3  -3  10 5.60265 1.95577   6
   3  -3 -10 0.43347 1.83241  14
  -3  -3  10 1.06470 1.80345  12
  -3   3  10 0.33614 1.92935   9
   3   3 -10 0.19986 1.93935   4
   3   3 -10 -0.7694 1.94519  14
   3   3 -10 0.89642 1.70221   7
  -3   3  10 0.84721 1.24969  12
  -3   3  10 0.49416 1.47043   6
  -3   3  10 5.89699 2.24366   1
   1  -3 -10 13.5550 2.72028   4
   1  -3 -10 18.7943 3.79827  14
  -1  -3  10 22.0550 3.24929   1
  -1  -3  10 21.1969 3.40434  12
   1  -3 -10 23.5130 3.79152   2
  -1  -3  10 18.7478 2.72238   6
  -1   3  10 27.4434 3.70635  12
   1   3 -10 22.5959 3.88251  14
   1   3 -10 22.2747 4.44521   2
   1   3 -10 17.0121 3.51180   4
  -1   3  10 21.4143 4.03797   1
  -1   3  10 23.4291 3.87073   9
  -1   3  10 22.6646 3.39984   6
  -1  -3 -10 43.0271 5.25394   2
  -1  -3 -10 49.5481 5.06511  14
   1  -3  10 50.9185 5.10570  12
   1  -3  10 49.4448 3.87777   6
   1   3  10 36.3387 4.80597   9
   1   3  10 50.9778 4.75202   6
  -1   3 -10 49.1440 5.17749   4
   1   3  10 41.6585 4.64202  12
   1   3  10 47.7187 5.09063   1
  -1   3 -10 41.4971 5.64330   2
  -1   3 -10 44.7583 5.78295  14
  -3  -3 -10 1.97319 2.20330   8
   3  -3  10 2.55242 1.53181   6
  -3  -3 -10 4.06594 3.16478   2
   3  -3  10 3.61611 2.37825  12
  -3  -3 -10 0.97872 2.36696  14
   3   3  10 -0.1000 2.24166  12
  -3   3 -10 3.62467 2.27654  14
  -3   3 -10 1.35418 2.58831   2
   3   3  10 5.18326 2.37760   1
   3   3  10 3.36325 3.06164   9
   3   3  10 6.54864 2.49623   6
  10  -4 -10 130.723 9.10075   1
 -10  -4  10 137.504 8.99804   1
  10  -4 -10 149.945 8.55697   4
 -10  -4  10 139.170 7.39829  12
  10   4 -10 132.356 9.19771   7
 -10   4  10 103.671 5.91273  12
  10   4 -10 147.224 9.29982   1
   8  -4 -10 1454.11 44.5645  13
  -8  -4  10 1490.87 33.0648  12
   8  -4 -10 1549.20 37.4015   1
  -8  -4  10 1548.11 37.4218   1
  -8   4  10 1508.62 32.0249  12
   8   4 -10 1447.07 35.1138   4
  -8   4  10 1470.81 35.6255   1
  -8   4  10 1493.07 33.7469   9
   8   4 -10 1457.03 35.6988   7
   6  -4 -10 61.1075 6.64844  13
  -6  -4  10 63.7789 5.96675   1
  -6  -4  10 52.8077 4.48193  12
   6  -4 -10 64.9189 5.09143  14
   6  -4 -10 69.9246 6.01192   1
  -6  -4  10 58.0708 4.71638   6
   6   4 -10 58.0698 5.41079   7
  -6   4  10 52.1253 4.35069   9
   6   4 -10 54.9438 4.82449  14
  -6   4  10 59.8257 4.17957  12
  -6   4  10 60.3148 5.82124   1
   6   4 -10 58.2775 5.53369   4
  -4  -4  10 1322.39 31.2010   1
  -4  -4  10 1247.22 28.8824   6
   4  -4 -10 1302.22 31.1248  14
   4  -4 -10 1256.71 32.8826  13
  -4  -4  10 1246.75 28.7189  12
   4  -4 -10 1302.64 30.2822   4
   4   4 -10 1267.38 31.7901  14
   4   4 -10 1306.24 30.1734   7
  -4   4  10 1330.07 32.5997   1
  -4   4  10 1284.25 29.6462   9
  -4   4  10 1267.99 28.1518  12
   4   4 -10 1260.11 31.1632   4
  -2  -4  10 6.32181 2.33144  12
  -2  -4  10 6.78814 2.15179   1
   2  -4 -10 5.70701 2.30041   4
  -2  -4  10 8.18211 2.17675   6
   2  -4 -10 8.51149 2.88956  14
   2  -4 -10 5.04305 2.00024   2
  -2   4  10 4.88251 2.12699   6
   2   4 -10 5.10105 2.62032   4
  -2   4  10 5.87082 2.20832  12
   2   4 -10 8.93361 3.06520  14
  -2   4  10 7.00198 2.68249   9
  -2   4  10 7.66875 2.93235   1
   2   4 -10 4.32759 2.09064   7
   0  -4 -10 853.304 24.0381   2
   0  -4 -10 840.831 23.4755  14
   0  -4  10 851.168 20.2644   6
   0  -4  10 830.298 21.5866  12
   0   4 -10 817.955 24.1573  14
   0   4  10 843.187 23.8650   1
   0   4 -10 836.196 24.6282   2
   0   4  10 855.179 21.9624  12
   0   4 -10 865.967 23.6308   4
   0   4  10 807.116 21.9113   6
   0   4  10 830.030 22.7576   9
   2  -4  10 8.52640 2.65993  12
   2  -4  10 14.3027 2.26095   6
  -2  -4 -10 13.2182 3.84602   8
  -2  -4 -10 10.7325 3.03545  14
  -2  -4 -10 15.9767 3.96712   2
   2   4  10 11.4153 3.14771  12
  -2   4 -10 12.0175 3.27554   2
   2   4  10 12.4178 3.13556   6
  -2   4 -10 14.3379 3.39643  14
   2   4  10 12.7807 3.81848   9
   2   4  10 13.0573 3.49510   1
  -2   4 -10 11.3170 3.07320   4
  -9  -5  10 71.0916 5.43071  12
   9  -5 -10 74.1097 6.62131   1
  -9  -5  10 68.4304 6.91916   1
  -9   5  10 72.2941 5.69397   9
   9   5 -10 76.4147 7.03772   7
  -7  -5  10 297.733 10.6084  12
  -7  -5  10 333.719 13.7377   1
   7  -5 -10 289.753 12.9476   1
   7  -5 -10 294.085 15.0620  13
  -7   5  10 298.509 12.4229   1
   7   5 -10 299.027 12.5223   4
  -7   5  10 281.309 10.9009   9
  -7   5  10 288.755 9.54278  12
   7   5 -10 305.282 12.4742   7
  -5  -5  10 86.7432 6.60143   1
  -5  -5  10 76.6610 4.84920  12
   5  -5 -10 81.2577 5.96882  14
   5  -5 -10 71.9213 6.81153  13
  -5  -5  10 78.0570 5.39758   6
   5  -5 -10 80.8315 6.06585   1
  -5   5  10 83.7144 6.80056   1
  -5   5  10 84.1892 5.52129   9
   5   5 -10 84.4643 6.38545   4
   5   5 -10 74.5606 6.16838  14
  -5   5  10 79.4893 4.74896  12
   5   5 -10 81.4629 5.85002   7
   3  -5 -10 352.082 12.3921   4
  -3  -5  10 351.283 12.5635   1
  -3  -5  10 351.352 11.6272   6
   3  -5 -10 373.070 13.5032  14
  -3  -5  10 361.268 11.7756  12
   3   5 -10 349.482 14.0705  14
   3   5 -10 355.466 13.5185   4
  -3   5  10 350.824 14.2289   1
  -3   5  10 368.170 11.3452  12
   3   5 -10 356.544 12.6707   7
  -3   5  10 359.717 12.4568   9
  -1  -5  10 179.134 7.75945   1
  -1  -5  10 198.329 7.88002   6
   1  -5 -10 192.846 9.55297  14
   1  -5 -10 191.518 8.37808   4
   1  -5 -10 195.142 9.68464   2
  -1  -5  10 181.066 8.15789  12
   1   5 -10 231.991 10.5932   4
   1   5 -10 193.734 10.5311  14
  -1   5  10 198.819 8.95661   6
  -1   5  10 193.117 8.35407  12
  -1   5  10 192.920 9.12946   9
   1   5 -10 182.330 8.52469   7
  -1   5  10 205.125 10.5921   1
  -1  -5 -10 87.1127 7.04171  14
  -1  -5 -10 90.7925 7.42021   2
   1  -5  10 95.1352 5.13561   6
   1  -5  10 78.3454 5.70956  12
   1   5  10 97.0808 6.42374  12
   1   5  10 92.4069 7.37283   1
  -1   5 -10 99.8785 7.79690  14
  -1   5 -10 89.0138 6.88739   4
   1   5  10 88.3826 6.35752   6
   1   5  10 96.7336 7.37602   9
  -8  -6  10 19.2253 4.32563   1
  -8  -6  10 17.3274 3.16130  12
   8  -6 -10 14.8346 3.84339   1
  -8   6  10 19.0201 3.58063   9
   8   6 -10 19.5168 3.77111   7
   6  -6 -10 935.198 24.3285  14
  -6  -6  10 995.403 26.4544   1
   6  -6 -10 932.660 28.6180  13
  -6  -6  10 916.495 22.4603  12
   6   6 -10 943.597 25.2169   7
  -6   6  10 914.041 23.2763   9
  -6   6  10 939.460 25.6803   1
   6   6 -10 926.071 25.6189   4
   6   6 -10 827.192 24.0495  14
   4  -6 -10 110.238 6.96902  14
  -4  -6  10 95.5653 5.97116   6
  -4  -6  10 112.379 7.00816   1
  -4  -6  10 94.1556 5.40709  12
  -4   6  10 107.723 7.88385   1
   4   6 -10 102.457 7.61207  14
   4   6 -10 93.1568 6.76949   7
  -4   6  10 104.050 6.54986   9
   4   6 -10 106.183 7.66003   4
   2  -6 -10 1302.53 32.3311  14
  -2  -6  10 1243.14 29.4413  12
   2  -6 -10 1286.34 30.4744   4
  -2  -6  10 1281.21 30.3415   1
  -2  -6  10 1331.97 29.7183   6
  -2   6  10 1325.14 31.5167   9
  -2   6  10 1344.86 34.4062   1
   2   6 -10 1318.34 31.5896   7
   2   6 -10 1304.70 32.9549   4
   2   6 -10 1352.07 34.2222  14
   0  -6 -10 122.943 7.73593  14
   0  -6 -10 125.368 8.33626   2
   0  -6  10 137.705 6.37400   6
   0   6  10 129.583 8.03831   9
   0   6 -10 113.674 8.45839  14
   0   6 -10 116.501 8.19673   4
   0   6  10 136.181 9.15523   1
   9  -7 -10 8.50409 3.47118   1
  -9  -7  10 8.10423 2.58682  12
  -9  -7  10 9.20793 3.11365   1
   9   7 -10 8.96461 3.70884   7
  -9   7  10 13.6984 3.35229   9
  -7  -7  10 32.2057 3.91858  12
   7  -7 -10 35.5496 5.08464   1
  -7  -7  10 39.1170 5.32673   1
   7   7 -10 41.4463 5.49055   4
  -7   7  10 40.1519 4.39852   9
   7   7 -10 45.5363 5.85298   7
   5  -7 -10 4.43006 2.51596  14
  -5  -7  10 8.59231 2.60691   6
  -5  -7  10 3.33785 2.05537   1
   5  -7 -10 3.79813 2.72041   1
  -5   7  10 2.77470 2.27499   9
  -5   7  10 7.42511 3.07849   1
   5   7 -10 5.41813 2.88444   7
   5   7 -10 4.68748 2.37908   4
  -3  -7  10 19.0926 3.41698   1
   3  -7 -10 16.3207 3.40346  14
  -3  -7  10 17.5207 3.21501   6
   3   7 -10 18.0017 3.91230   7
   3   7 -10 15.7961 4.05172   4
   3   7 -10 13.6933 3.49608  14
  -3   7  10 20.4235 4.02326   1
  -3   7  10 16.7759 3.26258   9
   1  -7 -10 0.95593 2.76477   2
   1  -7 -10 0.04616 2.51155  14
  -1  -7  10 0.84314 1.47487   6
   1   7 -10 0.43703 2.08249   7
   1   7 -10 1.09421 2.64475  14
  -1   7  10 2.34892 2.82706   1
   1   7 -10 0.71207 1.81509   4
  -1   7  10 1.52562 2.52559   9
   8  -8 -10 275.690 13.3311   1
  -8  -8  10 268.508 12.8774   1
  -8   8  10 260.729 10.7108   9
   8   8 -10 253.786 12.0561   7
   6  -8 -10 588.242 19.9162   1
  -6  -8  10 582.740 19.5346   1
   6   8 -10 532.867 18.8661   4
  -6   8  10 562.180 17.1779   9
   6   8 -10 558.666 18.9215   7
   4  -8 -10 183.753 13.5972   1
  -4  -8  10 137.949 8.30180   1
   4  -8 -10 142.692 8.70110  14
  -4  -8  10 135.952 7.48110   6
  -4   8  10 143.892 8.95911   1
  -4   8  10 141.122 7.71929   9
   4   8 -10 134.297 8.29385   7
   4   8 -10 145.088 9.40322   4
   2  -8 -10 438.687 15.8610  14
   2  -8 -10 418.775 13.9672   4
  -2  -8  10 441.704 13.6431   6
  -2  -8  10 414.529 13.7196   1
  -2   8  10 418.661 16.8711   1
   2   8 -10 423.537 17.0049  14
  -2   8  10 422.078 14.6398   9
   2   8 -10 414.601 15.2537   7
   2   8 -10 415.364 16.1745   4
  -5  -9  10 11.0718 2.97796   6
   5  -9 -10 9.27081 3.00018   1
   5  -9 -10 10.5016 3.38776  14
  -5  -9  10 12.7495 3.67079   1
  -5   9  10 9.30931 2.95952   9
   5   9 -10 9.87148 3.09423   4
   5   9 -10 16.2305 4.05212   7
   3  -9 -10 0.91756 2.77741  14
  -3  -9  10 4.48280 2.13296   6
  -3  -9  10 4.98342 2.40803   1
  -3   9  10 6.73330 2.40654   9
   3   9 -10 6.77789 3.33283   7
  -3   9  10 9.98487 3.73836   1
   3   9 -10 6.32247 3.57589   4
 -10   0  11 1.76803 2.43579   1
 -10   0  11 5.03735 1.92894  12
  10   0 -11 -0.0571 2.34611   4
  10   0 -11 -1.4441 2.35425   1
   8   0 -11 0.60706 1.59201   1
  -8   0  11 5.73511 2.94639   1
   8   0 -11 -1.4698 1.96612   4
  -8   0  11 5.87275 2.33025   9
  -8   0  11 0.77817 1.86278  12
   6   0 -11 1.87382 2.09708   7
  -6   0  11 1.09827 1.85892  12
  -6   0  11 -0.4044 1.45992   9
   6   0 -11 1.34123 1.88976  14
  -6   0  11 0.94599 2.31200   1
   6   0 -11 2.75309 2.28726   4
  -4   0  11 -1.0390 1.53894   9
  -4   0  11 1.00654 2.37268   1
  -4   0  11 3.86701 2.01309   6
   4   0 -11 2.64815 1.62063   2
  -4   0  11 0.91187 1.34356  12
   4   0 -11 0.10613 2.14074  14
   4   0 -11 1.30162 1.60491   4
  -2   0  11 2.48902 2.18567  12
   2   0 -11 1.26229 1.99812   4
   2   0 -11 0.87285 1.66249  14
  -2   0  11 0.51831 2.14434   1
  -2   0  11 0.55078 1.71544   6
   2   0 -11 0.48346 2.28823   2
  -2   0  11 4.29424 2.13286   9
   0   0 -11 1.42406 1.53837   4
   0   0  11 3.51030 2.13411   1
   0   0  11 2.90293 2.01214   6
   0   0 -11 2.26963 2.66559   2
   0   0 -11 3.36022 2.76901  14
   0   0  11 1.57789 2.23830   9
   0   0  11 1.05717 2.25053  12
  -2   0 -11 1.93391 1.84767  14
  -2   0 -11 -1.4437 2.45611   2
   2   0  11 -0.6378 2.25357   9
   2   0  11 5.94354 2.10037   6
   2   0  11 0.23277 2.30948  12
 -11  -1  11 92.0003 6.20080  12
  11  -1 -11 96.3645 8.25424   1
 -11   1  11 81.8390 5.71838  12
  11   1 -11 86.3524 7.49124   1
   9  -1 -11 761.623 23.3136   1
  -9  -1  11 726.503 19.3392  12
  -9  -1  11 735.148 22.5383   1
   9  -1 -11 728.970 21.6397   4
  -9   1  11 771.552 22.7283   1
  -9   1  11 706.274 19.6055   9
  -9   1  11 741.902 19.3271  12
   9   1 -11 714.530 21.4994   4
  -7  -1  11 149.232 7.05066   9
  -7  -1  11 173.882 9.52246   1
   7  -1 -11 161.565 10.8476  13
   7  -1 -11 166.891 8.64482   4
  -7  -1  11 160.922 7.64232  12
   7   1 -11 174.665 9.18044   4
  -7   1  11 166.037 9.31122   1
   7   1 -11 169.407 8.78120   7
  -7   1  11 172.495 7.67978  12
  -7   1  11 169.701 7.78421   9
  -5  -1  11 724.399 21.4577   1
   5  -1 -11 705.651 18.6196   7
   5  -1 -11 697.618 20.0922   4
  -5  -1  11 732.552 19.0736  12
   5  -1 -11 704.642 20.3805  14
  -5  -1  11 673.996 17.7684   9
   5   1 -11 698.203 20.0234   4
  -5   1  11 725.682 21.5859   1
  -5   1  11 709.023 18.7671  12
   5   1 -11 712.576 20.4216  14
   5   1 -11 704.946 18.9757   7
  -5   1  11 691.003 18.5692   9
   3  -1 -11 276.796 11.9468  14
  -3  -1  11 265.375 9.74538   9
  -3  -1  11 289.285 11.7803   1
   3  -1 -11 282.015 11.4879   2
   3  -1 -11 279.755 11.1692   4
  -3  -1  11 283.723 10.4225   6
  -3  -1  11 267.634 10.4332  12
   3   1 -11 265.177 11.6741   2
  -3   1  11 275.029 11.7705   1
   3   1 -11 298.451 12.3847  14
  -3   1  11 272.761 10.3924  12
  -3   1  11 265.993 10.3348   9
  -3   1  11 274.540 10.3904   6
   3   1 -11 274.195 11.0484   4
  -1  -1  11 475.548 15.0185  12
  -1  -1  11 422.761 13.8945   9
   1  -1 -11 458.280 14.8498   4
   1  -1 -11 474.223 16.7861   2
  -1  -1  11 469.842 14.1574   6
   1  -1 -11 475.506 16.2308  14
  -1  -1  11 451.677 14.7906   1
  -1   1  11 480.195 14.7579   6
  -1   1  11 484.801 15.9037   1
   1   1 -11 455.337 15.3100   4
  -1   1  11 452.303 14.6657  12
  -1   1  11 460.244 14.9588   9
   1   1 -11 447.905 16.2002  14
   1   1 -11 462.422 16.9119   2
  -1  -1 -11 298.266 13.5809   2
   1  -1  11 322.590 11.1439   6
  -1  -1 -11 303.574 13.1444  14
   1  -1  11 314.320 12.1649  12
  -1   1 -11 316.922 13.3261  14
  -1   1 -11 295.235 13.3545   2
   1   1  11 326.960 11.5549   6
   1   1  11 292.452 11.7720  12
   1   1  11 329.362 12.0006   1
   1   1  11 285.562 12.1674   9
 -10  -2  11 201.993 9.14401  12
 -10  -2  11 215.273 11.3134   1
  10  -2 -11 206.536 11.3135   1
  10   2 -11 206.143 11.5335   1
 -10   2  11 207.630 8.72392  12
  10   2 -11 205.352 10.8230   7
  -8  -2  11 329.185 11.4555  12
  -8  -2  11 320.870 13.7559   1
   8  -2 -11 305.389 12.6800   4
   8  -2 -11 327.680 13.8324   1
  -8   2  11 314.642 10.9565  12
   8   2 -11 316.232 12.9633   7
  -8   2  11 316.003 11.3388   9
   8   2 -11 312.474 12.8462   4
  -8   2  11 320.686 13.4614   1
   6  -2 -11 233.392 12.7547  13
   6  -2 -11 252.380 10.8725   4
   6  -2 -11 233.283 10.1545  14
  -6  -2  11 239.046 9.51109  12
  -6  -2  11 251.181 11.6015   1
  -6   2  11 243.618 9.52398   9
   6   2 -11 240.265 10.2166   7
   6   2 -11 250.188 10.4926  14
  -6   2  11 249.931 11.8412   1
   6   2 -11 245.439 10.7880   4
  -6   2  11 249.530 9.21790  12
   4  -2 -11 248.457 10.9926  14
  -4  -2  11 250.688 11.0058   1
   4  -2 -11 247.580 10.4419   4
  -4  -2  11 261.425 10.0780  12
  -4  -2  11 246.959 9.67911   6
   4   2 -11 236.358 9.32072   7
   4   2 -11 240.364 11.1178  14
  -4   2  11 251.503 9.86073   6
   4   2 -11 237.744 10.6065   4
  -4   2  11 252.233 11.5363   1
  -4   2  11 258.761 9.65698  12
  -4   2  11 230.471 9.63333   9
  -2  -2  11 224.603 9.86838   1
   2  -2 -11 234.830 10.9241  14
  -2  -2  11 224.205 9.62553  12
   2  -2 -11 222.370 10.5761   2
   2  -2 -11 220.671 9.71976   4
  -2  -2  11 221.100 9.08545   6
  -2   2  11 231.798 9.46303  12
  -2   2  11 223.073 9.47760   6
   2   2 -11 218.939 11.0937   2
   2   2 -11 223.838 10.0921   4
   2   2 -11 222.505 10.7897  14
  -2   2  11 228.992 9.80453   9
  -2   2  11 230.798 10.8566   1
   0  -2  11 111.622 6.07404   6
   0  -2  11 103.181 6.90061  12
   0  -2 -11 103.693 7.23449  14
   0  -2 -11 111.520 7.76327   2
   0   2  11 115.154 6.78915   6
   0   2 -11 100.429 6.70126   4
   0   2 -11 112.493 8.42910   2
   0   2 -11 103.565 7.38062  14
   0   2  11 98.9484 6.96466   9
   0   2  11 117.546 7.60447   1
   0   2  11 117.712 7.16044  12
   9  -3 -11 148.238 9.62636   1
   9  -3 -11 147.817 8.58093   4
  -9  -3  11 149.675 7.71409  12
  -9  -3  11 161.957 9.99674   1
  -9   3  11 126.357 11.6388   1
  -9   3  11 149.148 7.05341  12
   9   3 -11 122.390 8.50572   4
   9   3 -11 170.480 9.65528   7
  -9   3  11 156.457 7.79872   9
   7  -3 -11 790.492 23.2478   1
  -7  -3  11 841.253 24.2614   1
   7  -3 -11 801.910 29.6449  13
  -7  -3  11 808.542 20.8977  12
   7  -3 -11 820.422 22.8386   4
   7   3 -11 798.281 22.5901   7
  -7   3  11 793.420 21.2489   9
  -7   3  11 815.038 20.1791  12
   7   3 -11 817.378 23.1695   4
  -7   3  11 820.292 23.7617   1
   5  -3 -11 193.611 11.1920  13
   5  -3 -11 185.853 9.15179   4
  -5  -3  11 196.244 10.0076   1
   5  -3 -11 189.382 9.45715  14
  -5  -3  11 189.715 8.44403   6
  -5  -3  11 203.776 8.69556  12
   5   3 -11 205.130 9.95546  14
  -5   3  11 184.903 8.66702   9
  -5   3  11 189.651 7.92685  12
   5   3 -11 189.412 8.69038   7
  -5   3  11 208.095 10.2502   1
   5   3 -11 198.151 9.77551   4
  -3  -3  11 1003.33 24.9763  12
   3  -3 -11 997.943 26.1325   2
   3  -3 -11 1064.59 27.4945  14
   3  -3 -11 1042.86 26.1051   4
  -3  -3  11 1065.44 26.7975   1
  -3  -3  11 1028.78 25.0302   6
  -3   3  11 1040.28 25.9822   9
   3   3 -11 1010.65 26.9491   4
  -3   3  11 1015.55 25.3968   6
  -3   3  11 1077.54 28.4184   1
   3   3 -11 1010.49 24.9549   7
  -3   3  11 1062.15 25.2011  12
   3   3 -11 1013.87 27.9205  14
  -1  -3  11 102.415 6.18998   1
   1  -3 -11 108.643 6.53532   4
  -1  -3  11 104.450 6.70874  12
  -1  -3  11 109.141 6.12606   6
   1  -3 -11 107.925 7.71531   2
   1  -3 -11 120.812 7.75482  14
  -1   3  11 97.3802 6.99838   9
   1   3 -11 98.8510 7.17225   4
  -1   3  11 106.650 6.71444   6
   1   3 -11 112.916 7.79159  14
  -1   3  11 106.446 7.57235   1
  -1   3  11 101.661 6.32497  12
   1   3 -11 95.4393 7.78377   2
  -1  -3 -11 659.433 20.7895  14
   1  -3  11 641.885 19.1101  12
  -1  -3 -11 662.175 21.5659   2
   1  -3  11 659.847 17.3129   6
   1   3  11 678.431 20.6435   9
   1   3  11 692.467 19.5173   6
   1   3  11 677.469 20.2803   1
  -1   3 -11 651.777 21.0086  14
   1   3  11 667.868 19.4741  12
  -1   3 -11 671.484 22.1789   2
  -1   3 -11 671.756 19.7542   4
  10  -4 -11 7.56282 3.42513   1
 -10  -4  11 2.67957 2.38216  12
 -10  -4  11 3.56962 3.19405   1
  10  -4 -11 4.28822 2.42959   4
 -10   4  11 4.60866 2.07768   9
  10   4 -11 4.15465 3.14138   7
  -8  -4  11 64.9934 6.91201   1
  -8  -4  11 69.2634 5.40153  12
   8  -4 -11 67.1995 5.92022   4
   8  -4 -11 64.0012 6.58210   1
   8   4 -11 63.2169 6.18027   4
  -8   4  11 64.1393 5.90031   1
   8   4 -11 72.5664 6.57736   7
  -8   4  11 66.8232 5.67566   9
  -6  -4  11 41.2523 4.26913  12
   6  -4 -11 36.0147 4.59980  14
  -6  -4  11 33.3342 4.90707   1
   6  -4 -11 32.5340 4.53573   1
   6  -4 -11 37.2795 4.94107   4
  -6  -4  11 33.4741 4.15960   6
   6  -4 -11 33.1354 5.56087  13
  -6   4  11 36.9798 3.63950  12
   6   4 -11 43.4469 5.66533   4
  -6   4  11 36.5021 4.43346   9
   6   4 -11 32.3975 4.48971   7
  -6   4  11 34.9212 5.09796   1
  -4  -4  11 87.2046 5.51113  12
  -4  -4  11 73.5416 5.36985   6
  -4  -4  11 79.8131 6.35954   1
   4  -4 -11 82.5552 6.57373  14
   4  -4 -11 77.7038 7.01345  13
   4  -4 -11 82.8038 6.15608   4
   4   4 -11 75.2150 5.78892   7
  -4   4  11 80.3267 5.92174   9
   4   4 -11 75.6400 6.72178  14
  -4   4  11 78.9170 7.03348   1
  -4   4  11 83.9561 5.37581  12
   4   4 -11 86.6524 6.55245   4
   2  -4 -11 132.134 8.41939  14
   2  -4 -11 140.338 8.28177   2
  -2  -4  11 129.401 6.91364  12
  -2  -4  11 140.132 7.02108   6
   2  -4 -11 134.095 7.43150   4
  -2  -4  11 139.110 7.43669   1
  -2   4  11 132.381 8.68848   1
   2   4 -11 138.672 9.08534  14
  -2   4  11 131.438 7.25479  12
  -2   4  11 132.267 7.90888   9
   2   4 -11 138.893 8.18878   4
   0  -4 -11 57.6008 6.28575   2
   0  -4  11 65.3164 4.69790   6
   0  -4 -11 63.5554 6.32452  14
   0  -4  11 60.7425 5.38239  12
   0   4  11 74.5480 6.67756   1
   0   4  11 67.7217 5.64823   6
   0   4  11 60.4997 5.48822  12
   0   4  11 60.7204 6.14682   9
   0   4 -11 61.6928 6.04246  14
   0   4 -11 74.1326 6.48901   4
   9  -5 -11 441.338 17.2519   1
  -9  -5  11 413.596 13.8958  12
   9  -5 -11 447.418 16.2747   4
  -9  -5  11 445.691 17.3662   1
  -9   5  11 392.960 14.0932   9
   9   5 -11 427.886 16.1017   7
   7  -5 -11 219.379 11.2583   1
  -7  -5  11 223.359 9.30444  12
  -7  -5  11 220.043 11.2852   1
   7  -5 -11 222.790 10.6076   4
   7   5 -11 205.245 10.4184   7
  -7   5  11 226.178 10.9911   1
   7   5 -11 227.355 11.2546   4
  -7   5  11 217.716 9.77675   9
  -7   5  11 213.709 8.25567  12
  -5  -5  11 351.563 13.9886   1
   5  -5 -11 339.785 15.0471  13
  -5  -5  11 342.667 11.9386  12
   5  -5 -11 377.473 13.8525  14
  -5  -5  11 354.523 12.4272   6
   5  -5 -11 377.517 13.6282   4
   5   5 -11 351.090 14.0211  14
  -5   5  11 355.210 12.7158   9
   5   5 -11 335.940 13.8905   4
  -5   5  11 348.016 14.6391   1
   5   5 -11 365.944 13.2199   7
  -3  -5  11 211.282 9.02796   6
   3  -5 -11 219.460 10.7193  14
   3  -5 -11 214.879 9.67016   4
  -3  -5  11 207.532 9.59426   1
  -3  -5  11 212.515 9.18330  12
  -3   5  11 218.977 9.96603   9
   3   5 -11 208.023 11.1285  14
  -3   5  11 213.086 8.64528  12
   3   5 -11 214.244 9.70074   7
   3   5 -11 213.425 10.8013   4
  -3   5  11 225.759 11.7327   1
  -1  -5  11 340.829 11.3659   6
   1  -5 -11 330.598 13.6895  14
   1  -5 -11 327.521 13.2834   2
  -1  -5  11 324.816 11.7811  12
  -1   5  11 340.643 13.3160   9
  -1   5  11 335.375 11.8777  12
   1   5 -11 332.224 14.4798  14
   1   5 -11 341.013 13.8713   4
  -1   5  11 347.695 14.5854   1
  -8  -6  11 1.13661 2.90833   1
  -8  -6  11 2.62363 2.13248  12
   8  -6 -11 3.83330 3.03873   1
   8   6 -11 0.68426 2.69959   7
  -8   6  11 -1.6024 1.99696   9
  -6  -6  11 74.1152 6.91987   1
   6  -6 -11 67.4803 6.61786   1
  -6  -6  11 69.5659 5.35504  12
   6   6 -11 84.9985 7.20950   4
  -6   6  11 69.1314 5.70072   9
   6   6 -11 64.1542 5.70510   7
  -6   6  11 72.0465 6.77699   1
   4  -6 -11 46.5345 5.54503  14
  -4  -6  11 50.1653 4.82897   6
  -4  -6  11 51.5806 5.39499   1
  -4  -6  11 56.1273 4.83671  12
  -4   6  11 59.2344 5.11263   9
   4   6 -11 56.4535 5.62066   7
  -4   6  11 51.5886 5.78253   1
   4   6 -11 58.8790 6.73232   4
   4   6 -11 57.7515 6.91439  14
   2  -6 -11 46.5215 5.90812  14
   2  -6 -11 32.7614 4.25004   4
  -2  -6  11 42.3659 4.33804   6
   2   6 -11 45.2264 5.30056   7
   2   6 -11 37.8875 5.34950   4
   2   6 -11 39.5536 5.62529  14
  -2   6  11 44.9510 6.23006   1
  -2   6  11 43.3309 5.38835   9
  -2   6  11 42.7804 4.53045  12
  -7  -7  11 190.208 8.74717  12
  -7  -7  11 240.170 12.2603   1
   7  -7 -11 220.357 11.8431   1
   7   7 -11 226.477 11.2290   7
   7   7 -11 226.222 11.5340   4
  -7   7  11 233.319 10.3048   9
   5  -7 -11 683.067 20.4282   4
  -5  -7  11 680.383 20.9427   1
   5  -7 -11 682.835 20.6743  14
  -5   7  11 679.808 22.0889   1
   5   7 -11 645.737 20.3789   7
   5   7 -11 689.223 21.9276   4
  -5   7  11 633.137 19.1233   9
   5   7 -11 645.822 21.2267  14
  -3  -7  11 253.135 10.7829   1
  -3  -7  11 247.691 10.3263   6
   3  -7 -11 254.455 11.6058  14
   3   7 -11 255.388 11.3227   7
   3   7 -11 253.769 12.1339   4
  -3   7  11 253.247 11.1634   9
  -3   7  11 277.393 13.3693   1
   3   7 -11 267.701 13.3356  14
   4  -8 -11 109.404 7.52590   4
   4  -8 -11 107.144 7.95980  14
  -4  -8  11 110.386 7.45935   1
  -4  -8  11 109.131 6.90477   6
   4   8 -11 115.751 8.22837   7
   4   8 -11 111.627 8.67472   4
  -4   8  11 113.292 7.59722   9
  -4   8  11 117.504 9.00484   1
  10   0 -12 17.5087 3.56200   4
 -10   0  12 18.8864 3.47226  12
 -10   0  12 20.3108 3.83853   1
   8   0 -12 1135.78 30.1112   4
   8   0 -12 1145.41 29.3659   7
  -8   0  12 1174.25 27.8516  12
  -8   0  12 1135.58 27.5070   9
  -8   0  12 1191.90 31.5961   1
  -6   0  12 65.1898 5.33821  12
  -6   0  12 58.0540 6.49674   1
   6   0 -12 65.8981 6.14915   4
   6   0 -12 57.5124 5.11200   7
   4   0 -12 1258.76 31.0957   4
  -4   0  12 1244.22 29.9899   6
  -4   0  12 1316.97 32.7104   1
   4   0 -12 1233.23 31.0273   2
   4   0 -12 1260.87 32.3042  14
  -4   0  12 1171.08 28.9450   9
  -4   0  12 1272.34 29.9353  12
  -2   0  12 5.74266 2.41944   9
  -2   0  12 5.02535 2.44197   6
   2   0 -12 6.97529 3.41560  14
   2   0 -12 6.13475 2.29947   4
   2   0 -12 6.48091 3.15077   2
  -2   0  12 7.06740 2.33664  12
  -2   0  12 8.33449 3.06295   1
   0   0  12 1161.78 27.8196   6
   0   0  12 1141.27 28.9490  12
   0   0 -12 1136.29 30.5264  14
   0   0 -12 1148.37 31.5264   2
  -9  -1  12 19.2598 3.47207  12
  -9  -1  12 11.4099 3.29874   1
   9  -1 -12 16.0120 3.48252   4
   9   1 -12 15.6239 4.06462   7
  -9   1  12 13.7307 3.01889  12
   9   1 -12 16.8540 3.83866   4
  -9   1  12 16.8982 3.21709   9
  -9   1  12 15.2124 3.85919   1
  -7  -1  12 104.710 6.49666  12
   7  -1 -12 101.067 6.74722   7
  -7  -1  12 107.200 8.21567   1
   7  -1 -12 101.477 7.03829   4
   7   1 -12 93.8763 6.85462   7
   7   1 -12 93.0373 7.18977   4
  -7   1  12 87.2772 5.70524   9
  -7   1  12 94.5015 6.15654  12
  -7   1  12 106.443 8.21120   1
  -5  -1  12 139.475 8.94311   1
   5  -1 -12 127.219 7.98638  14
   5  -1 -12 122.787 7.86537   4
  -5  -1  12 127.940 7.24205   6
  -5  -1  12 126.128 6.97180  12
   5   1 -12 141.487 8.33568  14
  -5   1  12 142.672 9.11806   1
  -5   1  12 121.124 7.05190   9
   5   1 -12 131.855 8.00085   4
  -5   1  12 141.357 7.23808  12
   5   1 -12 132.590 7.16452   7
   3  -1 -12 12.6149 3.82354  14
  -3  -1  12 13.9876 3.21405   1
  -3  -1  12 9.38007 2.91989  12
   3  -1 -12 8.16393 3.17914   2
  -3  -1  12 9.54885 2.69528   6
   3  -1 -12 5.76770 2.65218   4
  -3   1  12 9.60790 2.87125   6
  -3   1  12 13.8525 3.71975   1
  -3   1  12 11.0647 3.12658  12
   3   1 -12 9.63998 2.96729  14
   3   1 -12 11.4388 3.34858   2
   3   1 -12 8.84476 2.56885   4
  -3   1  12 8.49425 2.73201   9
  -1  -1  12 142.914 7.45847   6
  -1  -1  12 131.190 7.58396   1
  -1  -1  12 130.371 7.96402  12
   1  -1 -12 132.941 8.97427   2
   1  -1 -12 130.151 8.89604  14
   1   1 -12 135.543 8.92057   2
  -1   1  12 138.616 8.25347   1
   1   1 -12 132.312 8.18694   4
  -1   1  12 131.705 7.87985  12
   1   1 -12 127.832 8.70223  14
  -1   1  12 142.232 8.17971   9
 -10   2  12 283.181 11.3830   9
  -8  -2  12 584.423 17.0588  12
   8  -2 -12 562.282 18.5659   4
  -8  -2  12 598.694 20.3027   1
  -8   2  12 548.108 16.8720   9
   8   2 -12 551.026 18.3096   7
  -8   2  12 587.541 16.5820  12
   8   2 -12 542.335 18.4273   4
  -8   2  12 586.430 19.8755   1
   6  -2 -12 610.745 18.9810   4
  -6  -2  12 583.321 19.6928   1
  -6  -2  12 574.697 17.1195  12
   6   2 -12 613.043 18.1220   7
   6   2 -12 580.249 18.9463   4
  -6   2  12 589.921 16.8171  12
  -6   2  12 577.920 17.2563   9
   6   2 -12 556.894 18.2578  14
  -6   2  12 631.317 20.5727   1
  -4  -2  12 499.418 15.4977   6
   4  -2 -12 488.920 17.1460  14
  -4  -2  12 493.662 15.5977  12
  -4  -2  12 496.288 17.0535   1
   4  -2 -12 493.294 16.2975   4
   4   2 -12 466.997 16.4003   4
  -4   2  12 472.633 15.4059   9
  -4   2  12 480.225 15.1183  12
   4   2 -12 499.386 17.6358  14
  -4   2  12 503.142 17.9446   1
   2  -2 -12 363.788 14.8204   2
  -2  -2  12 383.013 13.7918  12
   2  -2 -12 405.176 15.4852  14
  -2  -2  12 412.022 14.3127   1
  -2  -2  12 414.530 13.6151   6
   2  -2 -12 382.770 13.8746   4
   2   2 -12 393.146 14.6314   4
   2   2 -12 402.652 15.8186  14
  -2   2  12 424.765 15.5064   1
   2   2 -12 372.039 15.2119   2
  -2   2  12 395.082 13.9247  12
  -2   2  12 390.408 14.1551   9
   0  -2  12 142.687 7.22434   6
   0  -2  12 147.415 8.38188  12
   0  -2 -12 137.516 9.31115   2
   0  -2 -12 137.480 9.00208  14
   0   2 -12 149.337 9.43512  14
   0   2  12 138.212 8.27692   1
   0   2  12 129.665 8.02960  12
   0   2  12 136.184 7.80606   6
   0   2 -12 133.064 7.84902   4
   0   2  12 129.964 8.24117   9
   0   2 -12 131.384 9.38052   2
   9  -3 -12 84.2497 7.24668   4
  -9  -3  12 84.1763 7.93915   1
  -9  -3  12 78.4909 5.99543  12
   9  -3 -12 88.6616 7.38862   1
  -9   3  12 85.3421 7.36353   1
  -9   3  12 89.9786 6.54070   9
  -9   3  12 78.5396 5.45254  12
   9   3 -12 71.1669 6.59505   4
   9   3 -12 81.3912 7.12067   7
  -7  -3  12 24.3865 3.90164  12
   7  -3 -12 24.4211 4.55744   4
  -7  -3  12 22.4095 4.19680   1
  -7   3  12 19.2200 4.16774   1
   7   3 -12 21.3875 3.75785   7
  -7   3  12 26.9910 3.63977  12
   7   3 -12 18.1674 3.96067   4
  -7   3  12 23.2381 3.56312   9
  -5  -3  12 6.02771 2.57769  12
   5  -3 -12 5.78918 2.29560   4
  -5  -3  12 9.16745 2.72095   6
   5  -3 -12 6.81590 3.04760  14
  -5  -3  12 6.43913 2.53706   1
   5   3 -12 7.33226 2.72674   7
  -5   3  12 6.34404 2.52580  12
  -5   3  12 9.07327 3.56853   1
  -5   3  12 10.9348 2.78882   9
   5   3 -12 5.18249 2.87112   4
   5   3 -12 3.88726 2.85717  14
  -3  -3  12 85.6737 5.93862   6
  -3  -3  12 84.2761 6.55529   1
   3  -3 -12 78.4332 6.25386   4
  -3  -3  12 73.8088 5.99947  12
   3  -3 -12 78.2461 6.91078  14
   3   3 -12 79.1006 6.66900  14
  -3   3  12 74.9025 6.28361   9
   3   3 -12 89.0482 7.19078   4
  -3   3  12 74.8143 5.89599  12
  -3   3  12 84.6330 7.30076   1
  -1  -3  12 1.83520 1.72735  12
  -1  -3  12 4.45551 2.06061   6
   1  -3 -12 -0.0993 2.48980   2
   1  -3 -12 5.01649 3.15338  14
  -1   3  12 2.76284 2.84784   1
  -1   3  12 4.26983 2.97056   9
   1   3 -12 3.00084 2.89916  14
  -1   3  12 1.48271 2.41068  12
  -1   3  12 0.91773 2.01474   6
   1   3 -12 7.22072 3.04321   4
   8  -4 -12 42.6629 5.71111   4
  -8  -4  12 44.0361 5.87939   1
   8  -4 -12 43.4835 5.42630   1
  -8  -4  12 37.9430 4.65556  12
  -8   4  12 35.1290 5.36377   1
   8   4 -12 31.7689 5.22207   4
   8   4 -12 35.2768 5.20626   7
  -8   4  12 46.6054 5.15744   9
  -8   4  12 37.9885 4.00385  12
  -6  -4  12 485.434 17.3916   1
  -6  -4  12 472.712 15.0382  12
   6  -4 -12 482.189 16.5444   4
   6   4 -12 477.127 17.3238   4
  -6   4  12 475.167 14.1465  12
  -6   4  12 496.310 18.0023   1
  -6   4  12 476.256 15.4501   9
   6   4 -12 455.795 15.7150   7
  -4  -4  12 39.3232 4.70982  12
   4  -4 -12 47.3404 5.89369  14
  -4  -4  12 40.9809 4.77517   6
  -4  -4  12 45.3323 4.89743   1
   4  -4 -12 37.0292 4.62859   4
   4   4 -12 35.5349 5.38153   4
  -4   4  12 42.5623 5.26052   9
  -4   4  12 39.2159 4.20390  12
   4   4 -12 49.2215 5.00463   7
   4   4 -12 41.3923 5.82772  14
  -2  -4  12 675.808 19.3897  12
   2  -4 -12 675.528 21.3950  14
  -2  -4  12 691.063 18.9782   6
   2  -4 -12 663.177 19.5838   4
  -2   4  12 710.805 22.5027   1
   2   4 -12 663.901 21.1437   4
  -2   4  12 672.370 20.3369   9
  -2   4  12 695.331 19.5183  12
   2   4 -12 692.232 22.4911  14
  -7  -5  12 2.03249 2.20907   1
   7  -5 -12 5.29439 2.93059   4
  -7  -5  12 -0.8177 1.94741  12
  -7   5  12 0.32548 2.43253   9
   7   5 -12 -0.0173 1.84096   4
   7   5 -12 2.23120 2.72377   7
  -7   5  12 2.81953 2.87617   1
  -5  -5  12 3.73292 2.77543   1
  -5  -5  12 0.55283 1.89040   6
   5  -5 -12 2.69485 2.05389  14
  -5  -5  12 2.42571 2.10767  12
   5  -5 -12 0.63398 2.28496   4
  -5   5  12 0.36133 1.72705  12
   5   5 -12 1.19842 2.01779  14
   5   5 -12 0.91819 2.40711   7
  -5   5  12 1.50773 2.18493   1
  -5   5  12 -1.1184 2.15700   9
   5   5 -12 1.07069 2.65642   4
   3  -5 -12 49.3538 5.33315  14
  -3  -5  12 48.6034 4.69964   6
  -3  -5  12 43.2748 4.83123   1
  -3  -5  12 44.5497 4.50983  12
   3   5 -12 45.0089 4.58042   7
  -3   5  12 50.3293 4.34419  12
   3   5 -12 47.2866 5.70201   4
   3   5 -12 53.5809 6.86976  14
  -3   5  12 37.3966 4.91731   9
  -3   5  12 56.3095 6.84736   1
  -6  -6  12 144.306 9.37373   1
  -6  -6  12 130.979 7.40056  12
   6  -6 -12 153.665 9.12161   4
  -6   6  12 141.493 8.26576   9
  -6   6  12 145.169 9.73325   1
   6   6 -12 138.561 8.32979   7
   6   6 -12 139.951 9.04250   4
  -4  -6  12 813.099 21.9427   6
   4  -6 -12 809.401 23.9029  14
  -4  -6  12 756.904 21.0958  12
   4   6 -12 804.380 25.0770  14
  -4   6  12 826.516 23.0061   9
   4   6 -12 808.827 23.0395   7
   4   6 -12 820.127 24.9701   4
  -4   6  12 808.746 25.4553   1
  -8   0  13 -0.9656 1.77208   1
   8   0 -13 1.04454 2.37363   7
  -8   0  13 0.93145 2.31182  12
   8   0 -13 0.97473 1.94604   4
   6   0 -13 0.62435 1.79113   4
  -6   0  13 3.76208 3.09035   1
  -6   0  13 -0.9299 1.95598  12
   4   0 -13 -1.8281 2.24815  14
   4   0 -13 5.10249 2.77237   4
  -4   0  13 -1.7827 2.09396  12
  -4   0  13 0.39170 2.58747   1
  -4   0  13 -0.5595 1.79412   6
  -7  -1  13 651.643 21.4289   1
  -7  -1  13 616.135 18.3067  12
   7  -1 -13 595.616 19.9408   4
  -7   1  13 653.582 18.4324  12
  -7   1  13 626.142 21.5054   1
   7   1 -13 618.926 20.4245   4
  -7   1  13 619.525 18.1056   9
   7   1 -13 615.059 18.9269   7
   5  -1 -13 94.6707 7.50205  14
  -5  -1  13 91.8002 7.69029   1
  -5  -1  13 83.1816 6.35761  12
   5  -1 -13 92.4578 6.70463   4
  -5   1  13 79.4033 6.16545  12
  -5   1  13 93.1344 7.95980   1
   5   1 -13 84.7131 6.58103   4
   5   1 -13 78.2999 7.12741  14
  -5   1  13 79.9048 6.05436   9
  -3  -1  13 683.400 20.9357   1
   3  -1 -13 657.336 21.4689  14
  -3  -1  13 656.730 19.3462  12
   3  -1 -13 621.376 20.4836   2
   3  -1 -13 641.784 19.9913   4
  -3  -1  13 693.928 19.6769   6
   3   1 -13 661.460 20.4503   4
  -3   1  13 621.301 19.0662   9
  -3   1  13 681.404 21.3762   1
   3   1 -13 659.964 21.7256  14
  -3   1  13 655.460 19.5070   6
  -3   1  13 663.037 19.3811  12
  -8  -2  13 197.656 11.1286   1
  -8  -2  13 198.314 9.51758  12
   8  -2 -13 212.214 10.7287   4
   8  -2 -13 218.857 13.2397   7
   8   2 -13 198.134 10.2766   7
   8   2 -13 204.943 11.0008   4
  -8   2  13 209.215 9.22663  12
  -8   2  13 201.426 11.1703   1
  -6  -2  13 179.485 9.00843  12
   6  -2 -13 178.624 9.78519   4
  -6  -2  13 192.028 10.9552   1
  -6   2  13 202.965 11.4427   1
   6   2 -13 170.545 9.90121   4
   6   2 -13 175.557 8.66623   7
  -6   2  13 189.010 8.92255  12
  -4  -2  13 229.240 10.1596   6
  -4  -2  13 238.314 11.5648   1
  -4  -2  13 229.462 10.1716  12
   4  -2 -13 232.970 11.8119  14
   4  -2 -13 235.111 10.9298   4
  -4   2  13 238.400 12.2332   1
  -4   2  13 245.920 10.5771  12
  -4   2  13 223.519 10.3976   9
   4   2 -13 210.240 11.0547   4
   4   2 -13 224.594 11.8016  14
   7  -3 -13 189.196 10.0811   4
  -7  -3  13 202.766 11.3254   1
  -7  -3  13 189.024 9.19910  12
  -7   3  13 188.963 9.43557   9
  -7   3  13 219.934 12.0173   1
   7   3 -13 189.865 9.81967   7
  -7   3  13 201.732 9.01632  12
   7   3 -13 192.290 10.4845   4
  -5  -3  13 422.034 16.0692   1
   5  -3 -13 392.684 14.8986   4
  -5  -3  13 398.379 14.2354  12
  -5  -3  13 427.866 14.5885   6
  -5   3  13 398.863 14.4894   9
  -5   3  13 394.774 13.4905  12
   5   3 -13 385.789 15.8522  14
   5   3 -13 408.928 15.9308   4
  -5   3  13 450.045 17.4001   1
   0   0   0    0.00    0.00   0

 _exptl_absorpt_process_details
)
 SADABS 2016/2: Krause, L., Herbst-Irmer, R., Sheldrick G.M. & Stalke D.,
 J. Appl. Cryst. 48 (2015) 3-10
)
 _exptl_absorpt_correction_type   multi-scan
 _exptl_absorpt_correction_T_max  0.7479
 _exptl_absorpt_correction_T_min  0.5769
 _exptl_special_details
)
 The following wavelength and cell were deduced by SADABS from the
 direction cosines etc. They are given here for emergency use only:
 CELL 0.71065    6.925    7.610    7.458   89.991  116.429   90.030
)

;
_shelx_hkl_checksum              15202
loop_
_space_group_symop_operation_xyz
'x, y, z'
'-x, y, -z+1/2'
'x+1/2, y+1/2, z'
'-x+1/2, y+1/2, -z+1/2'
'-x, -y, -z'
'x, -y, z-1/2'
'-x+1/2, -y+1/2, -z'
'x+1/2, -y+1/2, z-1/2'
loop_
_atom_site_label
_atom_site_type_symbol
_atom_site_fract_x
_atom_site_fract_y
_atom_site_fract_z
_atom_site_U_iso_or_equiv
_atom_site_adp_type
_atom_site_occupancy
_atom_site_site_symmetry_order
_atom_site_calc_flag
_atom_site_refinement_flags_posn
_atom_site_refinement_flags_adp
_atom_site_refinement_flags_occupancy
_atom_site_disorder_assembly
_atom_site_disorder_group
Co Co 0.000000 0.500000 0.000000 0.00391(3) Uani 1 2 d S . P . .
S S 0.000000 0.15498(3) 0.250000 0.00364(4) Uani 1 2 d S T P . .
O1 O 0.17219(7) 0.04444(7) 0.40161(7) 0.00767(7) Uani 1 1 d . . . . .
O2 O 0.09929(7) 0.26795(6) 0.15505(7) 0.00672(7) Uani 1 1 d . . . . .
O3 O 0.000000 0.63789(9) 0.250000 0.00618(9) Uani 1 2 d S T P . .
H H 0.110(2) 0.705(2) 0.293(2) 0.019(3) Uiso 1 1 d . . . . .
loop_
_atom_site_aniso_label
_atom_site_aniso_U_11
_atom_site_aniso_U_22
_atom_site_aniso_U_33
_atom_site_aniso_U_23
_atom_site_aniso_U_13
_atom_site_aniso_U_12
Co 0.00381(5) 0.00393(5) 0.00408(5) 0.00027(3) 0.00195(3) -0.00008(3)
S 0.00310(7) 0.00347(7) 0.00437(7) 0.000 0.00180(5) 0.000
O1 0.00509(15) 0.00865(17) 0.00855(16) 0.00426(13) 0.00265(13) 0.00232(13)
O2 0.00699(16) 0.00600(16) 0.00904(16) 0.00279(12) 0.00532(13) 0.00071(12)
O3 0.0061(2) 0.0065(2) 0.0063(2) 0.000 0.00327(17) 0.000
loop_
_atom_type_symbol
_atom_type_description
_atom_type_scat_dispersion_real
_atom_type_scat_dispersion_imag
_atom_type_scat_source
O O 0.0106 0.0060 'International Tables Vol C Tables 4.2.6.8 and 6.1.1.4'
H H 0.0000 0.0000 'International Tables Vol C Tables 4.2.6.8 and 6.1.1.4'
S S 0.1246 0.1234 'International Tables Vol C Tables 4.2.6.8 and 6.1.1.4'
Co Co 0.3494 0.9721 'International Tables Vol C Tables 4.2.6.8 and 6.1.1.4'
loop_
_geom_angle_atom_site_label_1
_geom_angle_atom_site_label_2
_geom_angle_atom_site_label_3
_geom_angle
_geom_angle_site_symmetry_1
_geom_angle_site_symmetry_3
_geom_angle_publ_flag
O2 Co O2 180.00(3) 5_565 . ?
O2 Co O1 85.52(2) 5_565 8_455 ?
O2 Co O1 94.47(2) . 8_455 ?
O2 Co O1 94.48(2) 5_565 4 ?
O2 Co O1 85.53(2) . 4 ?
O1 Co O1 180.00(3) 8_455 4 ?
O2 Co O3 93.06(2) 5_565 5_565 ?
O2 Co O3 86.94(2) . 5_565 ?
O1 Co O3 93.563(16) 8_455 5_565 ?
O1 Co O3 86.437(16) 4 5_565 ?
O2 Co O3 86.94(2) 5_565 . ?
O2 Co O3 93.06(2) . . ?
O1 Co O3 86.437(16) 8_455 . ?
O1 Co O3 93.563(16) 4 . ?
O3 Co O3 180.0 5_565 . ?
O2 Co O2 81.706(13) 5_565 4 ?
O2 Co O2 98.294(13) . 4 ?
O1 Co O2 136.701(16) 8_455 4 ?
O1 Co O2 43.299(16) 4 4 ?
O3 Co O2 128.172(13) 5_565 4 ?
O3 Co O2 51.828(13) . 4 ?
O2 Co O2 98.294(14) 5_565 8_455 ?
O2 Co O2 81.705(13) . 8_455 ?
O1 Co O2 43.299(16) 8_455 8_455 ?
O1 Co O2 136.701(16) 4 8_455 ?
O3 Co O2 51.828(13) 5_565 8_455 ?
O3 Co O2 128.172(13) . 8_455 ?
O2 Co O2 180.0 4 8_455 ?
O2 Co O2 137.297(17) 5_565 2 ?
O2 Co O2 42.702(17) . 2 ?
O1 Co O2 67.109(18) 8_455 2 ?
O1 Co O2 112.891(18) 4 2 ?
O3 Co O2 119.647(19) 5_565 2 ?
O3 Co O2 60.353(19) . 2 ?
O2 Co O2 95.968(16) 4 2 ?
O2 Co O2 84.032(16) 8_455 2 ?
O2 Co O2 42.703(18) 5_565 6_565 ?
O2 Co O2 137.298(17) . 6_565 ?
O1 Co O2 112.891(18) 8_455 6_565 ?
O1 Co O2 67.109(18) 4 6_565 ?
O3 Co O2 60.353(19) 5_565 6_565 ?
O3 Co O2 119.647(19) . 6_565 ?
O2 Co O2 84.032(16) 4 6_565 ?
O2 Co O2 95.968(16) 8_455 6_565 ?
O2 Co O2 180.000(13) 2 6_565 ?
O1 S O1 109.99(4) . 2 ?
O1 S O2 108.78(3) . . ?
O1 S O2 110.03(3) 2 . ?
O1 S O2 110.03(3) . 2 ?
O1 S O2 108.78(3) 2 2 ?
O2 S O2 109.23(4) . 2 ?
S O1 Co 136.57(3) . 4_545 ?
S O1 O2 35.867(17) . . ?
Co O1 O2 100.76(2) 4_545 . ?
S O1 O1 35.00(2) . 2 ?
Co O1 O1 140.47(3) 4_545 2 ?
O2 O1 O1 60.47(2) . 2 ?
S O1 O2 35.236(17) . 2 ?
Co O1 O2 144.37(3) 4_545 2 ?
O2 O1 O2 60.34(2) . 2 ?
O1 O1 O2 59.701(19) 2 2 ?
S O1 O2 128.43(3) . 4_545 ?
Co O1 O2 47.208(14) 4_545 4_545 ?
O2 O1 O2 109.80(2) . 4_545 ?
O1 O1 O2 103.30(2) 2 4_545 ?
O2 O1 O2 162.66(3) 2 4_545 ?
S O1 O3 170.08(3) . 7_556 ?
Co O1 O3 48.461(12) 4_545 7_556 ?
O2 O1 O3 146.76(2) . 7_556 ?
O1 O1 O3 150.078(18) 2 7_556 ?
O2 O1 O3 134.91(2) 2 7_556 ?
O2 O1 O3 61.492(18) 4_545 7_556 ?
S O1 O2 114.51(3) . 8_556 ?
Co O1 O2 42.736(15) 4_545 8_556 ?
O2 O1 O2 86.62(2) . 8_556 ?
O1 O1 O2 146.96(2) 2 8_556 ?
O2 O1 O2 102.99(2) 2 8_556 ?
O2 O1 O2 89.94(2) 4_545 8_556 ?
O3 O1 O2 62.46(2) 7_556 8_556 ?
S O1 O3 92.47(2) . 3_545 ?
Co O1 O3 44.702(13) 4_545 3_545 ?
O2 O1 O3 57.527(18) . 3_545 ?
O1 O1 O3 102.38(3) 2 3_545 ?
O2 O1 O3 114.88(2) 2 3_545 ?
O2 O1 O3 62.761(19) 4_545 3_545 ?
O3 O1 O3 93.162(19) 7_556 3_545 ?
O2 O1 O3 56.953(16) 8_556 3_545 ?
S O1 O2 126.01(3) . 6_556 ?
Co O1 O2 96.928(19) 4_545 6_556 ?
O2 O1 O2 161.40(3) . 6_556 ?
O1 O1 O2 101.82(2) 2 6_556 ?
O2 O1 O2 107.07(2) 2 6_556 ?
O2 O1 O2 78.39(2) 4_545 6_556 ?
O3 O1 O2 51.839(16) 7_556 6_556 ?
O2 O1 O2 110.52(2) 8_556 6_556 ?
O3 O1 O2 137.86(2) 3_545 6_556 ?
S O1 O2 111.77(3) . 7_556 ?
Co O1 O2 77.777(19) 4_545 7_556 ?
O2 O1 O2 108.17(2) . 7_556 ?
O1 O1 O2 139.18(2) 2 7_556 ?
O2 O1 O2 80.317(19) 2 7_556 ?
O2 O1 O2 116.98(2) 4_545 7_556 ?
O3 O1 O2 59.021(18) 7_556 7_556 ?
O2 O1 O2 44.918(18) 8_556 7_556 ?
O3 O1 O2 101.612(19) 3_545 7_556 ?
O2 O1 O2 81.112(15) 6_556 7_556 ?
S O1 O3 103.78(3) . 1_545 ?
Co O1 O3 97.215(19) 4_545 1_545 ?
O2 O1 O3 118.85(2) . 1_545 ?
O1 O1 O3 68.781(10) 2 1_545 ?
O2 O1 O3 118.24(2) 2 1_545 ?
O2 O1 O3 51.645(16) 4_545 1_545 ?
O3 O1 O3 82.333(17) 7_556 1_545 ?
O2 O1 O3 138.160(18) 8_556 1_545 ?
O3 O1 O3 107.032(19) 3_545 1_545 ?
O2 O1 O3 52.518(14) 6_556 1_545 ?
O2 O1 O3 132.734(17) 7_556 1_545 ?
S O2 Co 132.15(3) . . ?
S O2 O1 35.357(17) . . ?
Co O2 O1 161.28(3) . . ?
S O2 O1 34.738(17) . 2 ?
Co O2 O1 118.90(3) . 2 ?
O1 O2 O1 59.83(3) . 2 ?
S O2 O2 35.38(2) . 2 ?
Co O2 O2 102.222(18) . 2 ?
O1 O2 O2 60.211(19) . 2 ?
O1 O2 O2 59.449(19) 2 2 ?
S O2 O3 108.23(3) . 3_545 ?
Co O2 O3 119.34(2) . 3_545 ?
O1 O2 O3 73.97(2) . 3_545 ?
O1 O2 O3 113.79(3) 2 3_545 ?
O2 O2 O3 130.07(3) 2 3_545 ?
S O2 O1 160.16(3) . 4 ?
Co O2 O1 47.267(16) . 4 ?
O1 O2 O1 137.02(2) . 4 ?
O1 O2 O1 162.66(3) 2 4 ?
O2 O2 O1 128.137(16) 2 4 ?
O3 O2 O1 74.38(2) 3_545 4 ?
S O2 O3 136.57(3) . 5_565 ?
Co O2 O3 48.223(16) . 5_565 ?
O1 O2 O3 149.04(3) . 5_565 ?
O1 O2 O3 102.28(2) 2 5_565 ?
O2 O2 O3 135.69(3) 2 5_565 ?
O3 O2 O3 93.942(19) 3_545 5_565 ?
O1 O2 O3 61.053(17) 4 5_565 ?
S O2 O1 92.50(2) . 8_455 ?
Co O2 O1 42.788(13) . 8_455 ?
O1 O2 O1 127.79(3) . 8_455 ?
O1 O2 O1 77.01(2) 2 8_455 ?
O2 O2 O1 73.57(2) 2 8_455 ?
O3 O2 O1 156.34(2) 3_545 8_455 ?
O1 O2 O1 90.06(2) 4 8_455 ?
O3 O2 O1 62.650(17) 5_565 8_455 ?
S O2 O3 102.12(2) . . ?
Co O2 O3 44.993(13) . . ?
O1 O2 O3 117.07(2) . . ?
O1 O2 O3 116.45(2) 2 . ?
O2 O2 O3 66.733(10) 2 . ?
O3 O2 O3 126.21(2) 3_545 . ?
O1 O2 O3 63.279(17) 4 . ?
O3 O2 O3 93.216(16) 5_565 . ?
O1 O2 O3 56.841(14) 8_455 . ?
S O2 O1 95.90(3) . 6 ?
Co O2 O1 113.21(2) . 6 ?
O1 O2 O1 84.804(17) . 6 ?
O1 O2 O1 72.93(2) 2 6 ?
O2 O2 O1 130.253(15) 2 6 ?
O3 O2 O1 57.331(16) 3_545 6 ?
O1 O2 O1 101.61(2) 4 6 ?
O3 O2 O1 65.024(19) 5_565 6 ?
O1 O2 O1 110.52(2) 8_455 6 ?
O3 O2 O1 158.125(19) . 6 ?
S O2 O1 82.10(2) . 7_556 ?
Co O2 O1 94.64(2) . 7_556 ?
O1 O2 O1 71.84(2) . 7_556 ?
O1 O2 O1 116.27(2) 2 7_556 ?
O2 O2 O1 61.51(2) 2 7_556 ?
O3 O2 O1 87.279(19) 3_545 7_556 ?
O1 O2 O1 78.359(16) 4 7_556 ?
O3 O2 O1 137.19(2) 5_565 7_556 ?
O1 O2 O1 107.26(2) 8_455 7_556 ?
O3 O2 O1 54.040(12) . 7_556 ?
O1 O2 O1 142.217(18) 6 7_556 ?
Co O3 Co 122.15(3) . 2 ?
Co O3 O2 111.787(14) . 3_455 ?
Co O3 O2 89.032(13) 2 3_455 ?
Co O3 O2 89.032(13) . 4 ?
Co O3 O2 111.787(14) 2 4 ?
O2 O3 O2 137.03(3) 3_455 4 ?
Co O3 O1 45.102(13) . 8_455 ?
Co O3 O1 104.00(2) 2 8_455 ?
O2 O3 O1 70.829(17) 3_455 8_455 ?
O2 O3 O1 132.819(16) 4 8_455 ?
Co O3 O1 104.00(2) . 7_556 ?
Co O3 O1 45.102(13) 2 7_556 ?
O2 O3 O1 132.820(16) 3_455 7_556 ?
O2 O3 O1 70.829(17) 4 7_556 ?
O1 O3 O1 122.68(3) 8_455 7_556 ?
Co O3 O2 161.39(2) . 6_566 ?
Co O3 O2 44.835(12) 2 6_566 ?
O2 O3 O2 83.575(17) 3_455 6_566 ?
O2 O3 O2 86.058(18) 4 6_566 ?
O1 O3 O2 140.764(17) 8_455 6_566 ?
O1 O3 O2 57.453(16) 7_556 6_566 ?
Co O3 O2 44.835(12) . 5_565 ?
Co O3 O2 161.39(2) 2 5_565 ?
O2 O3 O2 86.058(18) 3_455 5_565 ?
O2 O3 O2 83.575(17) 4 5_565 ?
O1 O3 O2 57.453(16) 8_455 5_565 ?
O1 O3 O2 140.764(17) 7_556 5_565 ?
O2 O3 O2 151.45(3) 6_566 5_565 ?
Co O3 O2 81.67(2) . 2 ?
Co O3 O2 41.948(14) 2 2 ?
O2 O3 O2 94.714(14) 3_455 2 ?
O2 O3 O2 126.21(2) 4 2 ?
O1 O3 O2 66.938(19) 8_455 2 ?
O1 O3 O2 60.694(18) 7_556 2 ?
O2 O3 O2 86.783(16) 6_566 2 ?
O2 O3 O2 120.61(2) 5_565 2 ?
Co O3 O2 41.948(14) . . ?
Co O3 O2 81.67(2) 2 . ?
O2 O3 O2 126.21(2) 3_455 . ?
O2 O3 O2 94.714(14) 4 . ?
O1 O3 O2 60.694(18) 8_455 . ?
O1 O3 O2 66.938(19) 7_556 . ?
O2 O3 O2 120.61(2) 6_566 . ?
O2 O3 O2 86.784(16) 5_565 . ?
O2 O3 O2 46.53(2) 2 . ?
Co O3 O1 121.52(2) . 3_455 ?
Co O3 O1 41.735(11) 2 3_455 ?
O2 O3 O1 48.505(15) 3_455 3_455 ?
O2 O3 O1 146.280(16) 4 3_455 ?
O1 O3 O1 80.421(17) 8_455 3_455 ?
O1 O3 O1 86.837(19) 7_556 3_455 ?
O2 O3 O1 60.397(15) 6_566 3_455 ?
O2 O3 O1 127.440(16) 5_565 3_455 ?
O2 O3 O1 53.959(14) 2 3_455 ?
O2 O3 O1 99.43(2) . 3_455 ?
Co O3 O1 41.735(11) . 4 ?
Co O3 O1 121.52(2) 2 4 ?
O2 O3 O1 146.280(16) 3_455 4 ?
O2 O3 O1 48.505(15) 4 4 ?
O1 O3 O1 86.837(19) 8_455 4 ?
O1 O3 O1 80.421(17) 7_556 4 ?
O2 O3 O1 127.440(16) 6_566 4 ?
O2 O3 O1 60.397(15) 5_565 4 ?
O2 O3 O1 99.44(2) 2 4 ?
O2 O3 O1 53.959(14) . 4 ?
O1 O3 O1 153.29(3) 3_455 4 ?
Co O3 H 104.7(10) . . ?
Co O3 H 109.4(10) 2 . ?
O2 O3 H 120.5(10) 3_455 . ?
O2 O3 H 18.2(10) 4 . ?
O1 O3 H 144.6(10) 8_455 . ?
O1 O3 H 76.4(10) 7_556 . ?
O2 O3 H 74.2(10) 6_566 . ?
O2 O3 H 88.5(10) 5_565 . ?
O2 O3 H 136.7(10) 2 . ?
O2 O3 H 112.5(10) . . ?
O1 O3 H 133.5(10) 3_455 . ?
O1 O3 H 65.8(10) 4 . ?
Co O3 H 109.3(10) . 2 ?
Co O3 H 104.7(10) 2 2 ?
O2 O3 H 18.2(10) 3_455 2 ?
O2 O3 H 120.5(10) 4 2 ?
O1 O3 H 76.4(10) 8_455 2 ?
O1 O3 H 144.6(10) 7_556 2 ?
O2 O3 H 88.5(10) 6_566 2 ?
O2 O3 H 74.2(10) 5_565 2 ?
O2 O3 H 112.5(10) 2 2 ?
O2 O3 H 136.7(10) . 2 ?
O1 O3 H 65.8(10) 3_455 2 ?
O1 O3 H 133.5(10) 4 2 ?
H O3 H 106(2) . 2 ?
loop_
_geom_bond_atom_site_label_1
_geom_bond_atom_site_label_2
_geom_bond_distance
_geom_bond_site_symmetry_2
_geom_bond_publ_flag
Co O2 2.0535(5) 5_565 ?
Co O2 2.0535(5) . ?
Co O1 2.0555(6) 8_455 ?
Co O1 2.0555(6) 4 ?
Co O3 2.1720(4) 5_565 ?
Co O3 2.1720(4) . ?
Co O2 3.4405(6) 4 ?
Co O2 3.4405(6) 8_455 ?
Co O2 3.4925(6) 2 ?
Co O2 3.4925(6) 6_565 ?
S O1 1.4679(5) . ?
S O1 1.4679(5) 2 ?
S O2 1.4863(5) . ?
S O2 1.4863(5) 2 ?
O1 O2 2.4017(7) . ?
O1 O1 2.4048(10) 2 ?
O1 O2 2.4204(7) 2 ?
O1 O2 2.7899(7) 4_545 ?
O1 O3 2.8962(7) 7_556 ?
O1 O2 3.0168(8) 8_556 ?
O1 O3 3.0818(6) 3_545 ?
O1 O2 3.2496(7) 6_556 ?
O1 O2 3.2921(8) 7_556 ?
O1 O3 3.3223(9) 1_545 ?
O2 O2 2.4235(9) 2 ?
O2 O3 2.7052(6) 3_545 ?
O2 O3 2.9084(6) 5_565 ?
O2 O3 3.0677(8) . ?
O3 H 0.846(15) . ?
O3 H 0.846(15) 2 ?
loop_
_geom_hbond_atom_site_label_D
_geom_hbond_atom_site_label_H
_geom_hbond_atom_site_label_A
_geom_hbond_distance_DH
_geom_hbond_distance_HA
_geom_hbond_distance_DA
_geom_hbond_angle_DHA
_geom_hbond_site_symmetry_A
_geom_hbond_publ_flag
O3 H O2 0.846(15) 1.920(15) 2.7051(6) 154.0(15) 4 yes
