#------------------------------------------------------------------------------
#$Date: 2022-03-06 06:37:54 +0200 (Sun, 06 Mar 2022) $
#$Revision: 273468 $
#$URL: file:///home/coder/svn-repositories/cod/cif/1/56/59/1565939.cif $
#------------------------------------------------------------------------------
#
# This file is available in the Crystallography Open Database (COD),
# http://www.crystallography.net/
#
# All data on this site have been placed in the public domain by the
# contributors.
#
data_1565939
loop_
_publ_author_name
'Wildner, Manfred'
'Zakharov, Boris A.'
'Bogdanov, Nikita E.'
'Talla, Dominik'
'Boldyreva, Elena V.'
'Miletich, Ronald'
_publ_section_title
;
 Crystallography relevant to Mars and Galilean icy moons: crystal behavior
 of kieserite-type monohydrate sulfates at extraterrestrial conditions
 down to 15 K
;
_journal_issue                   2
_journal_name_full               IUCrJ
_journal_page_first              194
_journal_page_last               203
_journal_paper_doi               10.1107/S2052252521012720
_journal_volume                  9
_journal_year                    2022
_chemical_formula_sum            'Fe0 H2 Mg O5 S'
_chemical_formula_weight         138.39
_space_group_crystal_system      monoclinic
_space_group_IT_number           15
_space_group_name_Hall           '-C 2yc'
_space_group_name_H-M_alt        'C 1 2/c 1'
_atom_sites_solution_hydrogens   difmap
_audit_creation_method           SHELXL-2017/1
_cell_angle_alpha                90
_cell_angle_beta                 117.943(10)
_cell_angle_gamma                90
_cell_formula_units_Z            4
_cell_length_a                   6.8937(10)
_cell_length_b                   7.6466(10)
_cell_length_c                   7.6275(10)
_cell_measurement_temperature    233(2)
_cell_volume                     355.20(9)
_computing_structure_refinement  'SHELXL-2017/1 (Sheldrick, 2017)'
_computing_structure_solution    'SHELXT 2014/5 (Sheldrick, 2014)'
_diffrn_ambient_temperature      233(2)
_diffrn_measured_fraction_theta_full 0.994
_diffrn_measured_fraction_theta_max 0.998
_diffrn_radiation_type           MoK\a
_diffrn_radiation_wavelength     0.71073
_diffrn_reflns_av_R_equivalents  0.0194
_diffrn_reflns_av_unetI/netI     0.0100
_diffrn_reflns_Laue_measured_fraction_full 0.994
_diffrn_reflns_Laue_measured_fraction_max 0.998
_diffrn_reflns_limit_h_max       12
_diffrn_reflns_limit_h_min       -12
_diffrn_reflns_limit_k_max       13
_diffrn_reflns_limit_k_min       -13
_diffrn_reflns_limit_l_max       13
_diffrn_reflns_limit_l_min       -13
_diffrn_reflns_number            9888
_diffrn_reflns_point_group_measured_fraction_full 0.994
_diffrn_reflns_point_group_measured_fraction_max 0.998
_diffrn_reflns_theta_full        25.242
_diffrn_reflns_theta_max         39.997
_diffrn_reflns_theta_min         4.238
_exptl_absorpt_coefficient_mu    0.969
_exptl_crystal_density_diffrn    2.588
_exptl_crystal_F_000             280
_refine_diff_density_max         0.517
_refine_diff_density_min         -0.415
_refine_diff_density_rms         0.068
_refine_ls_extinction_coef       0.0051(19)
_refine_ls_extinction_expression Fc^*^=kFc[1+0.001xFc^2^\l^3^/sin(2\q)]^-1/4^
_refine_ls_extinction_method     'SHELXL-2017/1 (Sheldrick 2017)'
_refine_ls_goodness_of_fit_ref   1.200
_refine_ls_hydrogen_treatment    refall
_refine_ls_matrix_type           full
_refine_ls_number_parameters     40
_refine_ls_number_reflns         1100
_refine_ls_number_restraints     0
_refine_ls_restrained_S_all      1.200
_refine_ls_R_factor_all          0.0163
_refine_ls_R_factor_gt           0.0151
_refine_ls_shift/su_max          0.000
_refine_ls_shift/su_mean         0.000
_refine_ls_structure_factor_coef Fsqd
_refine_ls_weighting_details
'w=1/[\s^2^(Fo^2^)+(0.0190P)^2^+0.1900P] where P=(Fo^2^+2Fc^2^)/3'
_refine_ls_weighting_scheme      calc
_refine_ls_wR_factor_gt          0.0440
_refine_ls_wR_factor_ref         0.0445
_reflns_Friedel_coverage         0.000
_reflns_number_gt                1050
_reflns_number_total             1100
_reflns_threshold_expression     'I > 2\s(I)'
_cod_data_source_file            lt5044.cif
_cod_data_source_block           MgSO4H2O_N2_233K
_cod_depositor_comments
'Adding full bibliography for 1565934--1565967.cif.'
_cod_original_sg_symbol_H-M      'C 2/c'
_cod_database_code               1565939
_shelx_shelxl_version_number     2017/1
_shelx_space_group_comment
;
The symmetry employed for this shelxl refinement is uniquely defined
by the following loop, which should always be used as a source of
symmetry information in preference to the above space-group names.
They are only intended as comments.
;
_shelx_res_file
;
TITL 204dkiesx1 233K Apex in C2/c kieserite cell
    latt_corr_for_Nonius20C_204dkiesx1_Apex233K.res
    created by SHELXL-2017/1 at 15:51:33 on 08-Oct-2018

REM meas.  mon  6.87538(9) 7.63643(9) 7.50266(9) 90.0   116.2267(5) 90.0
REM trans. cryscomp 6.8754    7.6364    7.6137   90.0   117.875     90.0
REM meas.trcl 6.87522(9)7.63619(9)7.50315(9) 89.9872(6)116.2282(6)90.0498(7)
REM trans. cryscomp 6.8752    7.6362    7.6138   90.032   117.870    89.950
REM CELL 0.71073   6.8754    7.6364    7.6137   90.00 117.875  90.00
REM latt corr for Nonius20C +.0183 +.0102 +.0138         +.068
CELL 0.71073   6.8937    7.6466    7.6275   90.00 117.943  90.00

ZERR    4.00   0.001   0.001   0.001   0.00   0.01   0.00
LATT  7
SYMM -X, Y, .5-Z
SFAC O H S MG FE
UNIT 20 8 4 4 0
SHEL 20 0.55285
OMIT -2 2 2
OMIT 1 1 2
L.S. 10
CONN 12 1.8 $O
EQIV $9 -x+1/2, y+1/2, -z+1/2
BOND $H
FMAP 2
PLAN 20
ACTA
HTAB O3 O2_$9
HTAB
REM EXYZ MG FE
REM EADP MG FE
REM SUMP 1.0 0 1.0 2 1.0 3
REM Fe wird negativ verfeinert
WGHT    0.019000    0.190000
EXTI    0.005077
FVAR       1.01567
MG    4    0.000000    0.500000    0.000000    10.50000    0.00574    0.00680 =
         0.00652    0.00034    0.00244   -0.00039
REM FE  5  0.000000    0.500000    0.000000    10.50000    0.00571    0.00681 =
REM      0.00653    0.00034    0.00244   -0.00039
S     3    0.000000    0.155857    0.250000    10.50000    0.00400    0.00518 =
         0.00623    0.00000    0.00198    0.00000
O1    1    0.175513    0.046074    0.395473    11.00000    0.00642    0.01185 =
         0.01192    0.00518    0.00312    0.00311
O2    1    0.093464    0.268571    0.150035    11.00000    0.00931    0.00875 =
         0.01258    0.00375    0.00678    0.00087
O3    1    0.000000    0.634640    0.250000    10.50000    0.00821    0.00953 =
         0.00838    0.00000    0.00396    0.00000
H     2    0.103288    0.702036    0.291088    11.00000    0.02371
HKLF 4 1  1 0 0 0 -1 0 -1 0 -1




REM  204dkiesx1 233K Apex in C2/c kieserite cell
REM R1 =  0.0151 for    1050 Fo > 4sig(Fo)  and  0.0163 for all    1100 data
REM     40 parameters refined using      0 restraints

END

WGHT      0.0186      0.1866

REM Instructions for potential hydrogen bonds
EQIV $20 x+1/2, y+1/2, z
HTAB O3 S_$20
HTAB O3 O2_$9

REM Highest difference peak  0.517,  deepest hole -0.415,  1-sigma level  0.068
Q1    1   0.0569  0.2130  0.2005  11.00000  0.05    0.52
Q2    1  -0.0869  0.0977  0.1832  11.00000  0.05    0.38
Q3    1   0.2583  0.0577  0.3702  11.00000  0.05    0.23
Q4    1   0.1673  0.2336  0.1594  11.00000  0.05    0.23
Q5    1  -0.0143  0.3338  0.1049  11.00000  0.05    0.20
Q6    1   0.1455 -0.0254  0.3599  11.00000  0.05    0.17
Q7    1  -0.0011  0.5846  0.1840  11.00000  0.05    0.16
Q8    1   0.2500  0.7500  0.5000  10.50000  0.05    0.15
Q9    1  -0.0788 -0.0467  0.3642  11.00000  0.05    0.15
Q10   1   0.1638  0.0378  0.3148  11.00000  0.05    0.14
Q11   1   0.0000 -0.0846  0.2500  10.50000  0.05    0.14
Q12   1   0.2815  0.6101  0.3794  11.00000  0.05    0.14
Q13   1   0.1670  0.0021  0.6282  11.00000  0.05    0.14
Q14   1   0.1419  0.3589  0.2117  11.00000  0.05    0.14
Q15   1   0.1720  0.0875  0.6309  11.00000  0.05    0.13
Q16   1   0.0749  0.4693  0.0846  11.00000  0.05    0.12
Q17   1   0.2045  0.4568  0.2857  11.00000  0.05    0.11
Q18   1   0.2424  0.6798  0.3495  11.00000  0.05    0.10
Q19   1  -0.0980  0.4090  0.0356  11.00000  0.05    0.10
Q20   1   0.2157  0.3731  0.3373  11.00000  0.05    0.10
;
_shelx_res_checksum              82313
_shelx_hkl_file
;
  -2   0   0 2341.67   54.39
   2   0   0 2378.96   43.50
   2   0   0 2338.07   39.40
  -2   0   0 2335.57   42.90
   2   0   0 2252.27   41.60
   2   0   0 2307.47   39.50
  -2   0   0 2332.57   41.20
   2   0   0 2338.17   39.80
   2   0   0 2248.77   42.00
  -2   0   0 2333.27   40.40
  -4   0   0 9591.34  165.58
   4   0   0 9411.46  175.28
  -4   0   0 9999.00  174.38
  -4   0   0 9961.10  165.98
  -4   0   0 9864.91  189.48
   4   0   0 9657.93  174.88
   4   0   0 9682.73  166.18
   4   0   0 9742.23  208.38
   4   0   0 9720.83  169.58
  -4   0   0 9886.41  176.58
   4   0   0 9410.86  173.08
   6   0   0 1017.30   21.00
   6   0   0  981.10   21.10
   6   0   0  966.90   20.00
  -6   0   0  999.90   23.20
  -6   0   0  979.80   20.60
  -6   0   0  974.30   25.30
  -8   0   0  768.12   24.80
  -8   0   0  757.62   21.20
   8   0   0  761.12   19.00
  -8   0   0  766.32   23.20
 -10   0   0  281.37   14.60
  10   0   0  275.67   11.60
 -10   0   0  302.47   17.20
  -1  -1   0 3381.76   72.49
   1  -1   0 3270.57   58.79
   1  -1   0 3181.78   58.09
   1  -1   0 3144.79   57.79
  -1   1   0 3235.48   59.69
   1   1   0 3303.17   58.89
  -1   1   0 3209.08   60.19
  -1   1   0 3317.57   60.59
   1   1   0 3134.49   57.99
   3  -1   0   48.90    4.10
  -3  -1   0   50.49    3.20
   3  -1   0   54.49    2.40
  -3  -1   0   47.10    2.10
   3  -1   0   54.49    2.40
  -3  -1   0   49.00    2.90
   3  -1   0   59.39    2.50
  -3  -1   0   52.39    2.50
  -3  -1   0   51.89    4.20
   3  -1   0   50.19    2.20
   3  -1   0   60.39    2.50
   3   1   0   50.09    2.30
  -3   1   0   52.59    2.00
   3   1   0   47.80    2.60
  -3   1   0   60.89    2.50
  -3   1   0   49.40    3.60
  -3   1   0   50.59    3.50
   3   1   0   55.79    4.20
   3   1   0   50.49    2.20
   5  -1   0 1696.63   31.70
  -5  -1   0 1724.53   35.90
   5  -1   0 1690.93   31.50
   5  -1   0 1717.73   32.00
   5  -1   0 1641.94   40.40
  -5  -1   0 1676.03   40.40
  -5  -1   0 1700.63   33.80
   5  -1   0 1711.63   31.70
  -5  -1   0 1761.22   32.00
   5   1   0 1725.53   31.80
  -5   1   0 1739.03   34.60
  -5   1   0 1740.43   36.40
   5   1   0 1657.33   41.00
  -5   1   0 1690.33   31.80
   5   1   0 1700.83   31.90
   5   1   0 1755.32   33.00
  -7  -1   0   45.20    3.60
   7  -1   0   49.10    3.80
   7  -1   0   48.90    3.80
  -7  -1   0   61.89    6.20
   7  -1   0   53.09    3.90
  -7  -1   0   58.79    6.90
   7   1   0   47.60    4.00
  -7   1   0   47.60    3.50
  -7   1   0   57.49    6.20
  -7   1   0   51.49    5.60
   7   1   0   46.50    3.80
  -7   1   0   62.09    7.20
  -9  -1   0  110.49   10.70
   9  -1   0  100.99    6.40
  -9  -1   0  106.39    9.70
  -9   1   0  108.69    9.10
   9   1   0  100.39    6.60
  -9   1   0  115.09   12.00
  11  -1   0  138.89    8.30
 -11  -1   0  169.68   12.70
 -11  -1   0  133.39   12.90
  11   1   0  137.19    8.40
 -11   1   0  142.29   13.30
 -11   1   0  137.89   10.90
   0  -2   0   18.10    1.00
   0  -2   0   19.00    1.10
   0   2   0   19.40    1.10
   0   2   0   16.10    1.30
   0   2   0   19.50    1.30
   0   2   0   21.10    1.20
   2  -2   0  194.88    5.00
   2  -2   0  189.08    4.70
  -2  -2   0  197.28    7.50
   2  -2   0  201.58    4.80
   2   2   0  189.98    5.00
   2   2   0  192.08    4.80
  -2   2   0  194.08    6.00
   2   2   0  184.48    5.30
  -2   2   0  185.88    5.00
  -2   2   0  192.68    4.80
   2   2   0  182.58    4.80
   2   2   0  187.98    4.30
  -2   2   0  198.48    6.20
  -2   2   0  198.68    5.10
   4  -2   0  636.74   13.30
  -4  -2   0  621.24   14.50
  -4  -2   0  594.04   12.80
   4  -2   0  615.14   13.10
   4  -2   0  610.44   18.60
   4  -2   0  618.24   13.10
  -4  -2   0  611.04   19.10
  -4  -2   0  615.54   15.60
  -4  -2   0  613.64   13.40
  -4   2   0  589.74   12.20
  -4   2   0  623.04   15.20
  -4   2   0  609.14   14.60
   4   2   0  608.44   13.20
   4   2   0  616.84   14.20
  -4   2   0  608.64   13.30
   4   2   0  605.24   12.70
  -4   2   0  616.94   16.20
  -6  -2   0  962.10   20.60
  -6  -2   0  944.11   24.60
  -6  -2   0  984.30   22.60
   6  -2   0  943.01   20.50
   6  -2   0  944.91   20.00
  -6   2   0  962.00   20.50
  -6   2   0  927.51   23.20
   6   2   0  956.30   21.70
   6   2   0  945.51   20.70
   6   2   0  957.40   20.10
  -6   2   0  973.50   23.50
  -6   2   0  972.90   25.50
   8  -2   0  222.98    8.80
  -8  -2   0  205.68   11.30
  -8  -2   0  216.18   12.50
   8  -2   0  206.58    8.40
  -8   2   0  221.28   11.30
   8   2   0  209.08    8.70
  -8   2   0  202.38   10.40
  -8   2   0  222.18   13.10
  10  -2   0  523.85   16.60
 -10  -2   0  555.64   21.80
 -10  -2   0  518.95   22.40
  10   2   0  546.65   17.20
 -10   2   0  527.05   20.60
 -10   2   0  504.95   22.80
   1  -3   0  274.77    6.30
   1  -3   0  272.37    6.00
  -1   3   0  268.87    7.30
   1   3   0  279.87    6.50
  -1   3   0  283.77    6.10
  -1   3   0  268.17    7.00
   1   3   0  271.87    6.50
   1   3   0  271.07    6.20
   1   3   0  283.97    6.20
   3  -3   0 1972.50   35.20
   3  -3   0 1958.50   35.50
   3  -3   0 2017.50   41.10
   3  -3   0 1935.01   34.90
  -3  -3   0 2023.30   42.10
  -3  -3   0 1980.20   36.00
   3   3   0 1979.50   35.60
   3   3   0 1976.80   36.40
   3   3   0 1979.10   35.20
  -3   3   0 1916.91   35.70
   3   3   0 1965.20   35.30
  -3   3   0 1928.91   37.40
  -3   3   0 1948.51   38.10
   3   3   0 1983.30   34.30
  -5  -3   0   76.09    4.00
   5  -3   0   66.69    3.80
  -5  -3   0   65.69    6.60
  -5  -3   0   73.19    4.80
   5  -3   0   70.29    6.30
  -5  -3   0   69.79    5.40
   5  -3   0   72.89    3.90
   5   3   0   70.59    3.30
  -5   3   0   75.39    4.90
  -5   3   0   62.69    5.90
  -5   3   0   73.09    3.90
   5   3   0   69.39    4.30
  -5   3   0   70.59    5.40
   5   3   0   73.29    3.80
  -7  -3   0  137.79    9.20
   7  -3   0  120.59    6.10
   7  -3   0  113.99    5.60
   7   3   0  122.19    6.90
  -7   3   0  124.89    9.30
  -7   3   0  132.49    8.10
  -7   3   0  112.89    7.40
   7   3   0  124.79    6.10
  -9  -3   0   -3.80    4.20
   9  -3   0    1.30    1.70
  -9  -3   0    7.20    4.30
   9  -3   0    1.30    2.10
  -9   3   0    2.20    3.00
  -9   3   0    3.50    3.60
   9   3   0    1.00    2.10
  -9   3   0    0.70    4.90
   0  -4   0 1152.78   21.00
   0  -4   0 1014.80   19.80
   0  -4   0 1165.78   20.80
   0   4   0 1170.08   21.20
   0   4   0 1145.49   21.30
   0   4   0 1169.98   20.50
   0   4   0 1131.59   21.00
   2  -4   0 6056.09  106.49
   2  -4   0 6039.60  108.09
   2  -4   0 5912.61  107.29
   2   4   0 6060.19  102.39
   2   4   0 6210.88  107.59
   2   4   0 5906.21  107.19
  -2   4   0 5980.00  103.49
   2   4   0 6029.70  105.79
  -2   4   0 6092.69  104.19
  -2   4   0 6028.60  103.69
  -2   4   0 5935.01  104.99
   2   4   0 5986.30  103.29
   4  -4   0    1.10    1.50
   4  -4   0    4.90    1.30
  -4  -4   0    2.10    1.20
   4  -4   0    2.90    1.10
   4  -4   0    2.00    1.40
  -4  -4   0    1.90    1.50
   4   4   0    1.70    1.00
   4   4   0    1.40    0.70
  -4   4   0    1.60    1.40
   4   4   0    2.70    1.10
   4   4   0    2.10    1.30
  -4   4   0    3.80    2.20
   4   4   0    0.60    0.90
   6  -4   0  998.50   22.00
  -6  -4   0  991.30   23.90
   6  -4   0 1011.40   22.10
  -6  -4   0 1009.40   22.70
  -6  -4   0 1103.49   26.70
   6   4   0  995.60   20.80
  -6   4   0 1029.60   24.10
  -6   4   0 1057.09   27.50
   6   4   0  996.00   22.20
   6   4   0 1040.30   24.00
  -6   4   0 1014.30   25.60
  -8  -4   0  302.07   13.90
  -8  -4   0  274.47   14.30
   8  -4   0  286.47   10.50
   8  -4   0  276.77   10.20
   8   4   0  278.47   11.60
  -8   4   0  287.67   13.00
   8   4   0  295.07   10.80
  -8   4   0  273.17   12.40
  -8   4   0  273.97   14.90
  10  -4   0  231.58   10.40
 -10  -4   0  215.38   13.90
 -10  -4   0  217.88   14.40
 -10   4   0  216.88   12.50
  10   4   0  231.48   10.70
 -10   4   0  221.68   15.70
   1  -5   0  173.28    5.20
  -1  -5   0  176.68    4.80
   1  -5   0  176.28    5.50
  -1  -5   0  177.88    5.30
  -1   5   0  168.48    5.90
  -1   5   0  174.08    6.60
   1   5   0  177.68    5.60
   1   5   0  180.58    4.10
   1   5   0  172.88    5.30
  -1   5   0  178.78    5.50
  -1   5   0  175.08    5.30
   1   5   0  181.68    5.50
   3  -5   0  347.97    9.10
   3  -5   0  334.37    8.40
   3  -5   0  353.16    9.70
  -3  -5   0  337.37   13.80
   3   5   0  328.97    8.80
   3   5   0  341.87    9.50
  -3   5   0  350.96   11.20
   3   5   0  330.67    8.90
   3   5   0  348.37    9.90
  -3   5   0  334.97    8.10
  -3   5   0  333.17   10.90
   3   5   0  316.07    7.20
  -3   5   0  357.96    8.50
  -5  -5   0    9.40    2.10
   5  -5   0    5.70    1.60
   5  -5   0    2.80    1.80
   5  -5   0    5.60    1.60
   5   5   0    8.40    1.90
  -5   5   0    8.20    3.30
   5   5   0    8.10    1.70
  -5   5   0   10.50    2.50
   5   5   0    8.50    2.10
   5   5   0    7.80    1.90
   5   5   0    6.70    1.20
  -5   5   0    4.40    2.60
  -7  -5   0  348.07   14.70
   7  -5   0  324.27   10.80
   7  -5   0  351.66   11.30
   7   5   0  331.67   11.10
   7   5   0  332.67   12.50
  -7   5   0  325.97   12.30
  -7   5   0  342.37   15.50
  -7   5   0  327.17   13.90
  -9  -5   0  152.28   11.40
   9  -5   0  152.38    8.00
  -9  -5   0  150.98   11.40
   9  -5   0  150.98    8.20
  -9   5   0  162.18   12.50
  -9   5   0  137.79    9.70
   9   5   0  126.99    7.60
   0  -6   0 1176.88   22.90
   0  -6   0 1230.88   23.50
   0   6   0 1178.38   23.50
   0   6   0 1224.68   23.80
   0   6   0 1188.48   22.20
   2  -6   0  300.57    9.30
   2  -6   0  294.27    8.30
   2  -6   0  283.07    7.60
  -2   6   0  291.77   10.10
   2   6   0  291.07    7.90
   2   6   0  292.67    8.30
  -2   6   0  286.87    7.80
  -2   6   0  294.37    9.50
   2   6   0  293.67    8.60
   2   6   0  289.67    8.80
   4  -6   0 1535.25   31.60
  -4  -6   0 1578.94   32.60
   4  -6   0 1561.34   30.70
   4  -6   0 1551.44   29.90
   4   6   0 1581.04   30.60
   4   6   0 1564.44   31.60
  -4   6   0 1512.95   29.10
   4   6   0 1537.35   30.60
  -4   6   0 1559.54   34.30
  -4   6   0 1588.34   34.50
   4   6   0 1588.34   32.30
   6  -6   0   10.00    2.60
   6  -6   0   12.60    3.10
   6  -6   0   16.60    2.70
  -6  -6   0   11.20    2.60
  -6  -6   0   11.00    4.00
  -6   6   0    9.90    3.50
   6   6   0   11.70    3.10
   6   6   0   17.20    2.90
   6   6   0   12.80    2.40
  -6   6   0   17.20    4.60
   6   6   0   13.80    2.60
   8  -6   0 1018.10   24.70
  -8  -6   0  997.40   28.80
  -8   6   0 1020.50   31.00
   8   6   0 1002.80   24.80
  -8   6   0 1014.10   28.80
  10  -6   0   -1.80    2.30
 -10  -6   0   -0.50    3.80
  10  -6   0    0.20    1.60
  10   6   0   -0.80    2.10
 -10   6   0    9.80    3.60
 -10   6   0    2.90    4.90
   1  -7   0  819.72   17.60
   1  -7   0  784.02   19.00
   1  -7   0  820.72   16.90
  -1  -7   0  803.92   17.40
  -1  -7   0  809.92   17.10
  -1   7   0  780.02   18.10
   1   7   0  783.42   17.50
  -1   7   0  785.82   17.70
   1   7   0  780.72   16.80
  -1   7   0  797.72   17.50
   1   7   0  802.42   18.00
   3  -7   0 1334.17   26.60
  -3  -7   0 1201.88   33.70
   3  -7   0 1317.67   28.00
   3  -7   0 1280.67   25.20
   3   7   0 1282.27   27.20
   3   7   0 1322.87   26.00
  -3   7   0 1294.97   29.70
   3   7   0 1292.77   27.20
  -3   7   0 1277.97   25.40
   3   7   0 1256.67   26.20
  -3   7   0 1280.37   28.80
   5  -7   0  122.09    6.90
  -5  -7   0  122.69    7.00
   5  -7   0  117.69    5.50
   5  -7   0  120.99    6.20
   5   7   0  125.09    6.70
   5   7   0  122.99    6.60
   5   7   0  126.79    5.90
  -5   7   0  121.39    8.20
   5   7   0  129.49    6.10
  -5   7   0  119.39    8.10
  -7  -7   0  309.87   13.70
   7  -7   0  312.37   11.60
   7  -7   0  374.76   17.70
   7   7   0  332.17   11.60
  -7   7   0  339.77   15.00
  -7   7   0  321.97   15.50
   7   7   0  320.87   13.00
   9  -7   0   46.40    5.60
  -9  -7   0   44.30    7.00
  -9   7   0   41.40    6.60
  -9   7   0   35.80    7.60
   9   7   0   43.30    5.10
   0  -8   0  527.35   13.30
   0  -8   0  517.45   12.50
   0   8   0  530.05   13.60
   0   8   0  522.95   13.70
   2  -8   0  560.14   13.50
   2  -8   0  582.74   16.30
   2  -8   0  580.14   14.70
  -2  -8   0  586.54   14.30
  -2  -8   0  615.14   14.80
  -2   8   0  564.94   15.60
   2   8   0  600.14   15.60
  -2   8   0  586.64   14.40
   2   8   0  570.14   14.50
  -2   8   0  590.64   15.10
   2   8   0  596.64   14.80
  -2   8   0  574.84   17.30
   4  -8   0  262.37   10.40
   4  -8   0  241.58    9.00
   4  -8   0  236.78    7.90
   4   8   0  236.98    8.80
   4   8   0  238.38    9.50
  -4   8   0  240.48   11.20
   4   8   0  235.78    8.30
  -4   8   0  243.88   10.90
   4   8   0  241.58    9.50
   6  -8   0   39.90    4.70
  -6  -8   0   36.80    4.70
   6  -8   0   35.80    3.90
   6  -8   0   38.30    4.60
   6   8   0   30.20    4.40
   6   8   0   37.20    4.30
   6   8   0   39.00    4.30
  -6   8   0   38.50    6.00
   6   8   0   43.90    5.40
  -6   8   0   38.20    6.30
   8  -8   0   55.99    6.10
  -8   8   0   40.10    6.50
  -8   8   0   37.40    7.20
   8   8   0   37.80    4.80
   1  -9   0  201.78    7.10
  -1  -9   0  204.28    7.60
  -1  -9   0  218.28    8.10
   1  -9   0  215.58    8.10
   1  -9   0  212.98    9.50
  -1   9   0  231.38    8.60
   1   9   0  210.78    8.00
  -1   9   0  216.28    8.10
   1   9   0  193.38    8.10
   3  -9   0   39.80    3.30
  -3  -9   0   46.70    4.10
   3  -9   0   40.30    5.10
   3  -9   0   40.10    4.10
  -3  -9   0   41.00    3.60
   3   9   0   40.00    3.60
  -3   9   0   48.10    6.00
   3   9   0   40.60    4.10
  -3   9   0   41.10    5.10
   3   9   0   35.80    4.40
  -3   9   0   46.90    3.80
  -3   9   0   49.30    4.90
  -5  -9   0  153.68    8.80
   5  -9   0  177.88    9.40
  -5  -9   0  150.38    7.70
   5  -9   0  177.98    8.00
   5   9   0  151.38    8.40
  -5   9   0  157.18   10.20
  -5   9   0  164.98   10.20
   5   9   0  177.58    8.80
   5   9   0  164.68    7.60
   5   9   0  150.78    7.10
   7  -9   0    3.90    3.10
  -7   9   0   10.40    4.30
  -7   9   0    3.90    3.40
   7   9   0    2.20    2.10
   0 -10   0  578.64   15.70
   0 -10   0  580.64   17.80
   0  10   0  565.54   16.00
   0  10   0  559.74   15.80
  -2 -10   0 1367.46   29.80
   2 -10   0 1490.15   33.40
   2 -10   0 1390.76   30.10
  -2  10   0 1391.96   30.90
   2  10   0 1359.26   31.00
   2  10   0 1379.26   30.20
  -2  10   0 1395.76   29.80
   4 -10   0  289.87   12.40
  -4 -10   0  295.17   10.60
   4 -10   0  276.57   10.40
  -4  10   0  278.97   11.20
   4  10   0  272.27   10.50
  -4  10   0  239.38   11.70
   4  10   0  283.57   11.60
   6 -10   0  803.72   21.40
   6 -10   0  794.52   22.60
  -6  10   0  745.03   21.80
  -6  10   0  785.12   25.70
  -6  10   0  776.32   24.50
   6  10   0  767.62   20.20
   6  10   0  762.92   22.10
   1 -11   0  369.76   14.60
   1 -11   0  364.76   12.20
  -1 -11   0  375.86   14.70
  -1 -11   0  373.46   12.30
  -1  11   0  368.76   12.50
   1  11   0  356.86   12.40
   1  11   0  367.76   13.00
  -1  11   0  355.16   12.60
   3 -11   0  227.68   11.40
   3 -11   0  218.48    9.70
  -3 -11   0  232.28    9.50
   3  11   0  226.28   10.30
   3  11   0  210.28    9.20
  -3  11   0  238.78   10.50
  -5 -11   0  308.27   11.70
   5 -11   0  310.67   13.80
   5 -11   0  334.37   12.70
  -5  11   0  310.27   13.10
   5  11   0  330.97   13.60
   0 -12   0  124.79    7.40
   0 -12   0  114.89    8.50
   0  12   0  106.19    7.20
   0  12   0  114.49    7.40
  -2 -12   0   62.79    7.30
   2 -12   0   69.39    7.90
  -2 -12   0   64.49    5.60
   2 -12   0   57.29    5.90
   2  12   0   65.39    6.60
  -2  12   0   61.49    6.30
   4 -12   0  118.29    9.40
   4 -12   0  115.29    7.90
  -4 -12   0  114.79    7.20
   4  12   0  112.79    8.30
  -4  12   0   96.79    7.50
   1 -13   0    3.90    2.30
   1 -13   0    5.40    4.00
  -1 -13   0    8.40    3.50
  -1 -13   0    2.50    2.20
  -1  13   0    7.50    3.00
   1  13   0    2.30    2.90
  -1  13   0    1.60    2.50
   3 -13   0    7.80    4.10
  -3 -13   0    3.20    2.00
   3 -13   0    4.30    3.40
  -3 -13   0    4.20    3.40
  -3  13   0    6.00    2.90
   3  13   0    9.00    3.80
  10   0  -1    0.40    1.80
 -10   0   1    1.80    3.10
 -10   0   1    3.70    5.50
   8   0  -1   -0.90    1.20
   8   0  -1    1.60    1.40
  -8   0   1    0.40    3.00
  -8   0   1    0.20    3.60
  -6   0   1   -0.20    2.40
   6   0  -1    2.30    1.10
   6   0  -1    0.00    1.00
  -6   0   1    2.40    2.60
  -6   0   1    1.40    0.80
   6   0  -1   -0.20    0.90
   4   0  -1    2.10    0.80
  -4   0   1   -0.20    1.60
  -4   0   1    1.10    0.60
  -4   0   1    1.80    1.20
  -4   0   1    3.10    1.80
   4   0  -1    1.20    0.70
   4   0  -1    0.50    0.90
   4   0  -1    0.10    0.40
   4   0  -1    0.60    0.60
  -2   0   1    1.70    1.10
   2   0  -1    0.40    0.40
   2   0  -1   -0.20    0.40
  -2   0   1    1.80    0.90
   2   0  -1    1.10    0.70
   2   0  -1    1.80    0.30
   0   0  -1    0.10    0.20
   0   0   1    0.50    0.20
  -2   0  -1    2.40    1.30
  -2   0  -1    2.60    1.00
  -2   0  -1    2.30    1.20
   2   0   1    1.60    0.90
   2   0   1    2.60    0.70
  -2   0  -1    3.50    1.00
   2   0   1    3.20    0.60
  -4   0  -1    8.00    2.00
  -4   0  -1    1.50    1.80
   4   0   1    2.30    1.00
  -4   0  -1    4.80    2.30
   4   0   1    2.70    1.00
  -4   0  -1    2.00    1.60
   4   0   1    1.20    1.00
  -4   0  -1    2.10    1.20
   4   0   1    1.40    0.90
   6   0   1    1.80    1.30
  -6   0  -1    1.20    2.30
  -6   0  -1    0.70    2.20
   6   0   1    1.60    1.30
  -6   0  -1    2.70    2.10
  -6   0  -1    1.70    1.40
   6   0   1    1.00    1.30
  -8   0  -1    4.50    4.70
  -8   0  -1   -1.50    3.10
   8   0   1    1.10    1.60
  10   0   1    2.60    2.60
 -10   0  -1   -9.10    4.50
 -10   0  -1   -2.30    2.90
 -11  -1   1   16.20    5.80
  11  -1  -1   20.80    4.30
 -11  -1   1   21.00    6.00
  11   1  -1   27.00    4.60
 -11   1   1   15.50    5.70
 -11   1   1   22.30    7.60
  -9  -1   1  105.69    9.00
  -9  -1   1  131.49   10.80
   9  -1  -1  120.49    6.80
   9   1  -1  116.09    6.50
  -9   1   1  109.89    8.80
  -9   1   1  107.19    8.80
  -9   1   1  116.39   10.80
   9   1  -1  106.29    6.70
   7  -1  -1  275.47    8.80
   7  -1  -1  285.37    8.90
   7  -1  -1  303.77    9.30
  -7  -1   1  282.37   11.40
  -7  -1   1  293.37   13.00
  -7   1   1  280.97   11.70
  -7   1   1  298.67   13.10
   7   1  -1  293.67    9.20
   7   1  -1  282.07    9.70
   5  -1  -1  486.15   17.20
  -5  -1   1  486.25   13.50
  -5  -1   1  506.25   14.60
  -5  -1   1  476.15   16.90
   5  -1  -1  502.65   11.30
   5  -1  -1  476.35   11.00
  -5  -1   1  470.25   11.00
   5  -1  -1  477.55   10.30
  -5  -1   1  498.05   10.70
  -5   1   1  490.05   10.60
   5   1  -1  496.95   11.30
   5   1  -1  482.65   17.20
   5   1  -1  477.65   12.00
  -5   1   1  453.05   10.60
  -5   1   1  484.55   13.80
  -5   1   1  493.95   14.60
   3  -1  -1 2578.24   44.70
   3  -1  -1 2647.14   48.00
   3  -1  -1 2595.54   45.00
  -3  -1   1 2672.03   49.80
   3  -1  -1 2583.54   44.30
   3  -1  -1 2581.94   44.50
  -3  -1   1 2558.84   46.50
  -3  -1   1 2665.43   45.40
  -3  -1   1 2575.54   46.70
   3  -1  -1 2596.54   49.70
   3   1  -1 2559.44   45.50
   3   1  -1 2636.64   49.80
   3   1  -1 2600.64   44.40
  -3   1   1 2509.85   46.60
   3   1  -1 2600.34   44.20
  -3   1   1 2573.14   47.00
  -3   1   1 2625.54   44.00
  -3   1   1 2549.65   44.80
   1  -1  -1  125.39    3.10
   1  -1  -1  124.89    2.80
   1  -1  -1  124.19    3.00
  -1  -1   1  133.89    3.60
   1   1  -1  128.59    3.50
  -1   1   1  132.09    3.50
  -1   1   1  127.09    3.70
   1   1  -1  128.19    3.50
  -1  -1  -1 7413.36  131.89
  -1  -1  -1 7574.94  137.59
   1  -1   1 7512.75  132.59
   1  -1   1 7930.71  148.09
   1  -1   1 7685.03  133.89
  -1  -1  -1 7760.92  135.69
   1  -1   1 7506.65  132.59
   1  -1   1 7623.34  134.19
   1   1   1 7460.05  132.69
  -1   1  -1 7967.60  136.39
   1   1   1 7546.85  132.79
   1   1   1 7571.24  132.39
  -1   1  -1 7798.92  148.49
  -1   1  -1 7549.54  135.99
  -1   1  -1 7588.94  136.29
   1   1   1 7585.24  133.29
  -1   1  -1 7497.95  134.99
  -3  -1  -1  130.79    7.20
  -3  -1  -1  132.69    4.70
   3  -1   1  134.19    7.10
   3  -1   1  130.19    3.60
  -3  -1  -1  127.49    4.50
   3  -1   1  130.69    4.40
  -3  -1  -1  133.69    5.60
   3  -1   1  130.39    4.20
   3  -1   1  130.59    4.30
  -3   1  -1  128.99    4.60
   3   1   1  121.99    4.20
  -3   1  -1  120.29    5.80
   3   1   1  135.29    4.30
  -3   1  -1  131.49    4.90
   3   1   1  130.39    7.30
  -3   1  -1  127.89    5.20
   3   1   1  126.29    4.10
  -3   1  -1  133.29    6.90
   3   1   1  132.09    4.60
  -5  -1  -1 2061.89   38.70
  -5  -1  -1 1928.31   47.30
   5  -1   1 2047.60   38.20
   5  -1   1 2062.89   38.10
   5  -1   1 2024.40   38.10
  -5  -1  -1 1970.90   38.70
   5  -1   1 2050.29   37.70
  -5  -1  -1 2055.59   42.10
  -5  -1  -1 2060.29   41.40
   5   1   1 2078.89   38.20
  -5   1  -1 2031.00   38.50
  -5   1  -1 2123.59   41.70
  -5   1  -1 2105.19   42.90
  -5   1  -1 2028.40   39.60
   5   1   1 2078.79   38.10
  -7  -1  -1   30.40    5.20
   7  -1   1   37.90    3.50
  -7  -1  -1   36.30    6.10
   7  -1   1   35.90    3.90
  -7  -1  -1   31.80    3.70
   7   1   1   30.10    3.50
  -7   1  -1   33.10    3.50
  -7   1  -1   38.00    4.80
  -7   1  -1   40.20    5.50
  -7   1  -1   41.50    6.60
   7   1   1   36.00    3.90
  -9  -1  -1  372.66   17.20
   9  -1   1  392.56   13.50
  -9  -1  -1  388.36   18.30
  -9   1  -1  385.86   18.90
   9   1   1  380.66   13.20
  -9   1  -1  391.56   17.20
  10  -2  -1  209.28    9.50
 -10  -2   1  193.08   12.90
 -10  -2   1  211.48   14.60
 -10   2   1  186.28   11.90
  10   2  -1  191.18    9.40
 -10   2   1  206.08   11.70
 -10   2   1  211.28   14.70
  -8  -2   1  551.54   18.00
  -8  -2   1  547.35   20.00
   8  -2  -1  546.35   14.80
   8  -2  -1  558.74   14.90
   8   2  -1  540.75   15.00
  -8   2   1  527.55   18.00
  -8   2   1  550.14   18.00
  -8   2   1  537.95   20.10
   8   2  -1  537.15   15.80
   6  -2  -1  623.64   14.00
   6  -2  -1  642.44   13.90
   6  -2  -1  664.73   14.90
  -6  -2   1  669.33   19.10
  -6  -2   1  657.93   17.60
  -6  -2   1  643.74   14.30
  -6   2   1  665.73   18.20
  -6   2   1  611.24   15.20
   6   2  -1  649.74   15.00
   6   2  -1  643.54   16.20
  -6   2   1  668.33   19.10
  -4  -2   1 2320.17   47.50
   4  -2  -1 2272.27   40.60
   4  -2  -1 2263.77   40.30
  -4  -2   1 2241.58   41.30
   4  -2  -1 2268.57   39.90
   4  -2  -1 2279.17   47.50
  -4  -2   1 2340.07   40.30
   4  -2  -1 2260.37   39.60
   4   2  -1 2260.87   40.40
  -4   2   1 2300.77   43.80
  -4   2   1 2302.07   40.60
   4   2  -1 2339.97   47.90
   4   2  -1 2300.37   41.90
  -4   2   1 2271.27   43.40
   4   2  -1 2266.37   40.30
   2  -2  -1 5353.16   97.29
   2  -2  -1 5355.26   95.89
   2  -2  -1 5522.35   97.99
   2  -2  -1 5341.67   98.29
  -2  -2   1 5727.53  114.29
   2   2  -1 5406.26   94.29
  -2   2   1 5526.05   99.39
   2   2  -1 5521.75   96.59
   2   2  -1 5509.85   98.19
  -2   2   1 5493.05   93.29
   2   2  -1 5518.15   96.69
  -2   2   1 5512.35   98.59
   0  -2   1 6591.84  115.59
   0  -2  -1 6482.15  116.69
   0  -2   1 6405.66  113.09
   0  -2  -1 6431.26  114.49
   0   2  -1 6402.36  118.59
   0   2  -1 6513.05  114.69
   0   2   1 6458.85  112.19
   0   2   1 6573.54  112.19
   0   2   1 6686.53  114.79
   0   2   1 6620.24  115.49
   0   2   1 6636.44  114.19
   2  -2   1 7108.79  123.09
  -2  -2  -1 7309.57  129.19
   2  -2   1 7005.60  129.29
  -2  -2  -1 7240.88  126.79
   2  -2   1 6947.60  127.39
  -2  -2  -1 7284.67  156.08
   2  -2   1 7621.64  154.58
   2  -2   1 7262.57  130.69
   2  -2   1 7141.39  128.09
   2   2   1 7346.27  130.59
   2   2   1 7100.99  124.39
  -2   2  -1 7204.08  134.89
   2   2   1 7207.78  129.79
  -2   2  -1 7270.17  134.69
   2   2   1 7319.17  124.69
  -2   2  -1 7148.29  132.89
   2   2   1 7239.28  131.99
  -2   2  -1 7199.78  128.29
   4  -2   1 2416.36   50.99
  -4  -2  -1 2480.05   44.10
   4  -2   1 2430.06   43.00
  -4  -2  -1 2398.66   45.90
   4  -2   1 2401.46   43.10
   4  -2   1 2377.56   43.30
  -4  -2  -1 2363.76   51.89
   4  -2   1 2293.57   41.20
  -4  -2  -1 2330.77   43.30
  -4   2  -1 2392.76   47.00
  -4   2  -1 2378.56   44.80
  -4   2  -1 2421.56   45.30
   4   2   1 2432.26   44.20
  -4   2  -1 2409.66   43.80
   4   2   1 2387.16   43.10
   4   2   1 2408.56   42.90
  -6  -2  -1 1326.17   27.90
   6  -2   1 1307.57   26.90
   6  -2   1 1310.47   27.30
  -6  -2  -1 1374.06   31.90
  -6  -2  -1 1343.57   31.20
  -6   2  -1 1366.46   32.80
   6   2   1 1304.07   26.90
  -6   2  -1 1313.07   27.70
  -6   2  -1 1325.77   30.50
   6   2   1 1386.26   27.70
  -6   2  -1 1312.17   29.30
  -8  -2  -1  829.92   25.30
   8  -2   1  811.92   20.30
  -8  -2  -1  821.02   26.00
   8   2   1  781.92   20.50
  -8   2  -1  826.52   24.60
  -8   2  -1  835.92   27.10
 -10  -2  -1  260.47   15.70
  10  -2   1  254.17   11.20
 -10  -2  -1  291.57   16.10
  10   2   1  261.37   11.20
 -10   2  -1  276.37   16.80
 -10   2  -1  269.27   14.90
 -11  -3   1   15.00    6.90
  11  -3  -1   17.50    3.50
 -11  -3   1   15.80    5.50
  11   3  -1   24.80    4.50
 -11   3   1   20.50    5.70
 -11   3   1   11.30    6.70
   9  -3  -1  907.01   22.90
   9  -3  -1  960.20   23.10
  -9  -3   1  987.50   30.20
  -9   3   1  954.40   30.00
  -9   3   1  932.01   26.50
  -9   3   1  939.41   26.90
   9   3  -1  923.71   24.20
   9   3  -1  908.01   23.10
   7  -3  -1   61.89    4.00
  -7  -3   1   54.89    6.80
  -7  -3   1   60.49    6.20
  -7   3   1   73.49    7.40
  -7   3   1   54.09    6.70
   7   3  -1   53.79    4.60
   7   3  -1   66.79    4.40
  -7   3   1   62.89    5.50
   5  -3  -1 1741.93   32.40
  -5  -3   1 1707.33   33.40
  -5  -3   1 1721.83   35.40
  -5  -3   1 1723.73   40.90
   5  -3  -1 1707.53   41.00
   5  -3  -1 1750.42   32.60
   5  -3  -1 1725.13   31.90
  -5  -3   1 1766.42   32.50
  -5   3   1 1777.92   36.20
   5   3  -1 1740.33   32.50
   5   3  -1 1724.33   32.50
   5   3  -1 1775.72   34.40
  -5   3   1 1712.33   36.60
  -5   3   1 1681.73   32.20
  -3  -3   1    7.00    1.90
   3  -3  -1    5.90    1.20
   3  -3  -1    7.50    1.20
   3  -3  -1    4.60    1.10
   3   3  -1    5.20    1.20
   3   3  -1    6.70    0.70
  -3   3   1    6.10    0.70
   3   3  -1    8.20    1.20
  -3   3   1    5.70    1.20
  -3   3   1    6.70    2.00
  -3   3   1    5.60    1.90
   3   3  -1    5.70    1.00
   3   3  -1   10.10    1.20
   1  -3  -1  936.61   17.20
   1  -3  -1  940.41   17.40
   1  -3  -1  932.21   16.50
  -1   3   1  921.31   16.80
  -1   3   1  918.81   18.30
   1   3  -1  930.71   17.50
   1   3  -1  913.21   16.60
   1   3  -1  910.61   16.60
  -1   3   1  927.61   18.00
  -1   3   1  930.11   17.30
  -1   3   1  932.21   17.20
   1   3  -1  927.61   17.40
   1  -3   1  801.62   14.60
   1  -3   1  818.02   16.20
   1  -3   1  799.52   15.30
  -1   3  -1  802.32   15.40
   1   3   1  822.62   15.80
  -1   3  -1  806.22   16.70
   1   3   1  822.42   15.80
  -1   3  -1  816.42   17.00
   1   3   1  802.22   15.70
   1   3   1  805.62   15.30
   1   3   1  814.82   14.90
   3  -3   1 1242.88   24.20
  -3  -3  -1 1331.77   25.80
   3  -3   1 1301.97   24.60
   3  -3   1 1302.17   25.30
  -3  -3  -1 1334.57   32.10
   3  -3   1 1299.27   29.90
   3  -3   1 1299.77   24.10
   3  -3   1 1299.77   24.50
  -3  -3  -1 1289.67   26.00
  -3   3  -1 1260.57   25.60
  -3   3  -1 1328.07   27.90
   3   3   1 1319.17   24.20
   3   3   1 1287.57   24.90
   3   3   1 1315.67   25.00
  -3   3  -1 1304.97   25.50
   3   3   1 1334.07   25.70
   3   3   1 1303.57   24.70
  -3   3  -1 1300.17   26.60
  -5  -3  -1  237.78    9.80
  -5  -3  -1  233.08    8.20
  -5  -3  -1  244.58    9.60
   5  -3   1  225.18    7.70
   5  -3   1  248.28    7.80
  -5  -3  -1  222.68    7.90
   5   3   1  242.78    7.40
  -5   3  -1  225.98   10.70
   5   3   1  226.28    7.50
  -5   3  -1  235.28    9.20
   5   3   1  241.68    8.50
  -5   3  -1  236.48    9.20
  -5   3  -1  237.48    8.10
   7  -3   1  655.13   16.90
  -7  -3  -1  680.73   21.30
  -7  -3  -1  690.83   21.30
  -7  -3  -1  638.74   17.30
   7  -3   1  676.13   16.80
   7  -3   1  654.63   17.10
  -7   3  -1  670.13   20.30
   7   3   1  664.13   16.50
  -7   3  -1  664.63   19.50
   7   3   1  690.23   17.50
  -7   3  -1  651.03   17.40
  -7   3  -1  677.23   22.60
  -9  -3  -1   -5.80    4.20
  -9  -3  -1    8.50    5.00
   9  -3   1    2.20    2.10
  -9   3  -1    3.70    4.90
   9   3   1    1.50    1.60
  -9   3  -1    3.40    3.70
  10  -4  -1  242.78   10.70
 -10  -4   1  259.77   15.60
  10  -4  -1  242.08   10.60
 -10  -4   1  267.87   15.00
  10   4  -1  268.57   11.20
 -10   4   1  249.58   13.30
 -10   4   1  250.67   15.90
 -10   4   1  250.67   14.00
   8  -4  -1  702.93   18.00
  -8  -4   1  726.33   23.50
   8   4  -1  689.93   18.10
  -8   4   1  699.23   20.40
  -8   4   1  690.63   23.90
   8   4  -1  713.53   20.00
  -8   4   1  705.03   21.90
  -6  -4   1  311.17   11.70
   6  -4  -1  323.97    9.40
   6  -4  -1  302.77    8.90
  -6  -4   1  315.27    9.30
   6  -4  -1  318.07    9.50
  -6   4   1  315.57   12.30
  -6   4   1  291.77   10.40
  -6   4   1  313.37   12.80
   6   4  -1  312.17    9.40
   6   4  -1  305.87    9.30
   6   4  -1  321.17   10.80
  -4  -4   1  929.31   25.10
   4  -4  -1  936.71   18.80
   4  -4  -1  905.21   18.80
   4  -4  -1  921.01   18.70
  -4   4   1  916.31   19.30
   4   4  -1  934.61   20.40
   4   4  -1  928.71   18.70
  -4   4   1  921.51   21.70
   4   4  -1  922.41   19.20
  -4   4   1  911.51   19.00
  -4   4   1  952.80   22.00
   4   4  -1  903.91   18.30
   2  -4  -1  595.44   12.50
   2  -4  -1  596.34   12.50
   2  -4  -1  583.74   11.20
  -2  -4   1  609.74   15.90
  -2   4   1  584.24   13.30
   2   4  -1  597.44   13.10
  -2   4   1  604.74   11.70
  -2   4   1  588.54   13.50
  -2   4   1  615.04   14.50
   2   4  -1  598.84   12.00
   2   4  -1  594.74   12.10
   2   4  -1  590.64   12.80
   0  -4   1    1.80    1.00
   0  -4   1    1.50    0.70
   0  -4   1    2.30    0.70
   0  -4  -1    0.30    0.60
   0  -4  -1    0.50    0.70
   0   4  -1    2.10    0.90
   0   4  -1    1.20    0.60
   0   4  -1    2.40    0.70
   0   4  -1    1.90    0.60
   0   4   1    1.30    0.80
   0   4  -1    0.20    0.60
   0   4   1    0.80    0.70
   2  -4   1  353.56    9.40
   2  -4   1  349.07    8.50
   2  -4   1  349.67    7.90
   2   4   1  357.16    8.60
  -2   4  -1  358.16   10.60
   2   4   1  373.06    9.10
  -2   4  -1  352.36    8.70
   2   4   1  352.36    9.10
   2   4   1  353.36    7.90
   2   4   1  358.06    8.90
  -2   4  -1  353.66   10.20
  -4  -4  -1    0.20    1.10
   4  -4   1    1.90    1.30
   4  -4   1    1.90    1.00
   4  -4   1   -0.50    1.30
   4  -4   1    1.30    1.60
   4  -4   1    0.10    0.80
  -4  -4  -1    2.80    1.80
  -4  -4  -1    0.90    1.80
  -4   4  -1    1.10    1.50
   4   4   1    0.70    1.00
   4   4   1    2.40    1.00
  -4   4  -1   -1.60    2.10
   4   4   1    0.30    1.20
   4   4   1    0.20    1.10
   4   4   1    1.10    0.90
  -4   4  -1   -0.90    1.60
   6  -4   1   38.20    4.00
  -6  -4  -1   46.20    5.40
  -6  -4  -1   34.30    5.10
  -6  -4  -1   41.90    4.00
   6  -4   1   37.10    3.80
   6   4   1   42.30    3.70
  -6   4  -1   47.80    6.80
   6   4   1   41.60    4.50
  -6   4  -1   34.20    4.60
   6   4   1   43.10    3.40
  -6   4  -1   47.10    5.50
  -8  -4  -1   96.99    9.60
   8  -4   1  101.09    6.20
   8  -4   1  102.39    6.60
  -8  -4  -1   95.19    9.20
  -8   4  -1  101.19   11.30
   8   4   1  100.49    6.50
  -8   4  -1   84.09    7.10
  -8   4  -1   92.69    7.40
 -10  -4  -1   -1.30    4.40
  10  -4   1    7.90    3.00
 -10   4  -1    4.40    4.30
  10   4   1    6.30    2.90
 -10   4  -1   17.10    6.70
   9  -5  -1    0.70    2.10
  -9  -5   1    2.60    4.70
  -9  -5   1    2.50    3.70
  -9   5   1    0.70    3.40
  -9   5   1   -3.30    4.00
   9   5  -1   -0.50    2.50
   9   5  -1   -0.10    2.00
  -7  -5   1  310.37   12.80
   7  -5  -1  315.57   10.30
  -7  -5   1  334.97   14.20
   7  -5  -1  317.57   10.50
  -7   5   1  327.47   13.80
  -7   5   1  312.67   11.40
   7   5  -1  332.17   10.70
   7   5  -1  322.37   12.10
  -7   5   1  315.87   14.50
   5  -5  -1  258.87    8.10
   5  -5  -1  261.87    8.40
  -5  -5   1  269.37    8.80
   5  -5  -1  274.27    8.30
  -5  -5   1  255.17   13.10
   5   5  -1  269.87    9.60
   5   5  -1  261.17    7.90
  -5   5   1  251.57    8.30
  -5   5   1  260.77   10.90
   5   5  -1  256.57    8.50
  -5   5   1  266.47   10.90
   5   5  -1  251.67    8.00
   3  -5  -1 2188.48   39.40
   3  -5  -1 2201.88   39.60
   3  -5  -1 2119.49   40.20
  -3  -5   1 2213.88   46.00
   3   5  -1 2192.88   40.80
  -3   5   1 2170.68   41.80
   3   5  -1 2221.68   40.30
  -3   5   1 2189.08   38.20
   3   5  -1 2185.18   39.00
  -3   5   1 2079.29   37.70
   3   5  -1 2172.68   39.10
  -3   5   1 2183.98   42.70
   1  -5  -1  665.03   14.00
  -1  -5   1  666.43   13.70
  -1  -5   1  652.63   13.10
   1  -5  -1  645.64   12.50
   1  -5  -1  684.93   14.10
   1   5  -1  651.23   14.20
  -1   5   1  665.03   13.90
   1   5  -1  689.73   14.10
  -1   5   1  656.73   15.40
   1   5  -1  686.83   13.70
  -1   5   1  657.93   13.70
  -1   5   1  661.13   14.30
   1  -5   1 1769.42   32.10
   1  -5   1 1774.32   33.70
  -1  -5  -1 1789.02   32.80
  -1  -5  -1 1745.33   32.00
   1  -5   1 1718.83   31.00
  -1   5  -1 1752.92   30.50
  -1   5  -1 1772.82   34.30
   1   5   1 1778.32   32.50
   1   5   1 1787.52   32.90
  -1   5  -1 1793.52   32.30
   1   5   1 1777.42   32.80
  -1   5  -1 1790.82   34.70
   1   5   1 1794.72   32.20
   1   5   1 1752.92   31.00
  -1   5  -1 1734.43   31.10
  -3  -5  -1   23.90    3.10
   3  -5   1   26.00    2.70
   3  -5   1   29.10    2.10
  -3  -5  -1   36.60    4.70
   3  -5   1   30.60    3.40
   3  -5   1   27.00    3.60
  -3   5  -1   25.60    2.70
   3   5   1   30.20    2.00
   3   5   1   31.80    2.70
   3   5   1   31.10    3.20
  -3   5  -1   35.30    4.30
  -3   5  -1   29.70    3.80
   3   5   1   28.70    3.00
   3   5   1   27.20    2.60
  -5  -5  -1  283.07   10.10
  -5  -5  -1  299.17   11.20
  -5  -5  -1  276.27   10.80
   5  -5   1  295.67    9.30
   5  -5   1  286.67    9.80
   5   5   1  276.87   10.20
  -5   5  -1  291.97   11.40
  -5   5  -1  313.97   12.90
   5   5   1  278.17    8.10
   5   5   1  307.97    9.50
   5   5   1  294.27    9.50
  -5   5  -1  294.17   10.30
  -7  -5  -1    0.90    3.00
  -7  -5  -1    1.40    3.50
   7  -5   1    5.00    2.30
   7  -5   1    3.30    2.30
  -7   5  -1    2.60    3.00
  -7   5  -1    3.10    2.70
  -7   5  -1    1.70    2.90
   7   5   1    4.10    2.10
   9  -5   1  112.89    7.50
  -9  -5  -1  104.09    9.70
   9  -5   1  101.89    6.80
  -9   5  -1  124.29   11.70
   9   5   1  101.99    7.00
  10  -6  -1  281.87   11.70
 -10  -6   1  257.27   15.10
  10  -6  -1  243.18   10.60
  10   6  -1  264.77   11.20
 -10   6   1  282.07   16.50
 -10   6   1  266.37   14.30
   8  -6  -1  151.78    7.50
  -8  -6   1  158.68   11.20
   8   6  -1  159.28    7.80
  -8   6   1  147.29   10.30
   8   6  -1  158.88    9.20
  -8   6   1  139.39   11.00
  -6  -6   1  736.03   19.00
   6  -6  -1  803.22   18.80
   6  -6  -1  782.72   18.30
   6  -6  -1  775.12   18.50
  -6   6   1  774.52   22.40
   6   6  -1  782.42   19.20
  -6   6   1  796.02   22.90
   6   6  -1  795.62   20.60
   6   6  -1  783.92   18.60
   6   6  -1  782.42   18.20
   4  -6  -1  248.98    7.70
   4  -6  -1  253.37    8.50
   4  -6  -1  245.68    8.00
  -4  -6   1  223.78   11.60
   4   6  -1  230.18    8.20
  -4   6   1  228.68    6.40
   4   6  -1  244.08    7.60
   4   6  -1  229.58    7.30
  -4   6   1  242.28    9.70
  -4   6   1  242.18   10.20
   4   6  -1  240.68    8.80
   2  -6  -1  157.28    5.60
   2  -6  -1  152.48    5.70
  -2  -6   1  153.88    5.00
  -2   6   1  154.28    6.00
  -2   6   1  164.58    5.30
   2   6  -1  156.28    6.00
   2   6  -1  149.59    5.20
  -2   6   1  164.78    7.30
   2   6  -1  155.38    5.80
   2   6  -1  159.78    5.10
  -2   6   1  155.18    5.80
   0  -6  -1  364.26    8.40
   0  -6   1  375.16    8.60
   0  -6   1  376.66    9.40
   0  -6  -1  382.86    9.70
   0  -6   1  400.56   11.00
   0  -6  -1  378.26    9.80
   0   6   1  388.06    9.90
   0   6  -1  379.86   10.40
   0   6  -1  372.76    9.40
   0   6   1  385.26    9.90
   0   6  -1  393.06   10.00
   0   6  -1  372.86    8.60
  -2  -6  -1   62.89    3.60
  -2  -6  -1   55.59    3.30
   2  -6   1   57.99    3.60
   2  -6   1   59.89    4.30
   2  -6   1   60.79    2.90
   2   6   1   73.79    4.00
   2   6   1   51.19    2.50
  -2   6  -1   59.29    4.70
   2   6   1   53.39    3.20
  -2   6  -1   61.69    4.70
  -2   6  -1   53.39    3.10
   2   6   1   55.19    3.70
   2   6   1   60.99    3.70
   4  -6   1  100.39    5.90
  -4  -6  -1   92.49    5.70
  -4  -6  -1   88.99    5.50
   4  -6   1  101.49    4.40
   4  -6   1  100.49    5.20
   4  -6   1   89.69    5.00
  -4   6  -1  102.29    6.80
  -4   6  -1   91.89    5.00
   4   6   1   98.49    5.50
   4   6   1   94.89    5.10
   4   6   1  101.59    5.00
  -4   6  -1  108.49    7.20
   4   6   1  103.49    5.70
  -6  -6  -1   25.10    4.50
  -6  -6  -1   18.90    3.40
   6  -6   1   28.90    4.10
   6  -6   1   32.10    3.90
   6   6   1   19.70    3.30
   6   6   1   18.70    3.00
  -6   6  -1   19.40    5.00
  -6   6  -1   28.30    4.80
  -8  -6  -1    5.80    3.90
   8  -6   1    0.60    2.50
  -8   6  -1    0.20    4.30
   8   6   1    0.90    2.00
  -8   6  -1    1.70    2.70
   9  -7  -1    3.50    2.80
  -9  -7   1    5.10    3.50
  -9   7   1   -4.50    3.50
   9   7  -1    3.30    3.30
  -9   7   1    7.20    4.00
   9   7  -1    5.00    2.40
  -7  -7   1  560.04   19.70
   7  -7  -1  581.14   16.10
   7  -7  -1  549.85   15.50
   7   7  -1  548.15   15.60
  -7   7   1  574.34   20.00
  -7   7   1  558.04   20.00
   7   7  -1  579.34   18.00
   7   7  -1  550.74   16.20
   5  -7  -1   44.10    3.60
   5  -7  -1   45.60    4.50
   5  -7  -1   48.40    3.80
  -5  -7   1   42.80    4.10
   5   7  -1   42.40    3.50
   5   7  -1   51.49    5.10
  -5   7   1   43.80    5.70
   5   7  -1   46.20    3.90
  -5   7   1   42.80    5.40
   5   7  -1   42.90    3.40
   3  -7  -1  410.16   10.80
  -3  -7   1  385.76   15.30
   3  -7  -1  421.46   11.40
   3  -7  -1  432.86   12.50
  -3   7   1  419.96   10.40
   3   7  -1  411.16   11.90
   3   7  -1  403.26   10.50
  -3   7   1  422.06   11.80
   3   7  -1  415.06   11.90
  -3   7   1  415.16   12.50
   3   7  -1  415.06   10.80
  -3   7   1  415.06   14.00
   1  -7  -1    9.50    1.90
  -1  -7   1    9.20    1.80
  -1  -7   1    7.60    1.40
   1  -7  -1    7.90    1.70
  -1   7   1   12.10    1.90
  -1   7   1   10.60    2.00
   1   7  -1    9.90    1.70
   1   7  -1   10.60    1.70
   1   7  -1    9.60    1.90
  -1   7   1   13.40    2.60
  -1   7   1    6.30    1.40
   1  -7   1  726.23   17.70
  -1  -7  -1  693.63   16.00
   1  -7   1  676.63   14.30
  -1  -7  -1  676.93   14.70
   1  -7   1  705.73   15.80
   1   7   1  713.03   16.50
   1   7   1  704.33   16.40
  -1   7  -1  682.63   15.70
  -1   7  -1  697.23   16.00
  -1   7  -1  714.93   17.60
   3  -7   1  148.89    7.40
   3  -7   1  145.99    5.30
   3  -7   1  157.78    6.60
  -3  -7  -1  149.29    6.30
   3   7   1  161.28    7.00
   3   7   1  163.78    7.00
  -3   7  -1  153.18    6.00
  -3   7  -1  154.58    8.20
   3   7   1  161.28    6.70
  -3   7  -1  170.58    8.50
   3   7   1  165.58    6.30
   5  -7   1  791.42   20.40
  -5  -7  -1  759.72   20.90
   5  -7   1  800.42   19.30
   5  -7   1  780.42   18.00
   5   7   1  776.62   20.00
   5   7   1  789.02   19.50
   5   7   1  783.82   19.00
  -5   7  -1  817.82   23.00
  -5   7  -1  788.42   23.30
   7  -7   1   79.39    6.10
  -7  -7  -1   96.29    8.20
   7  -7   1   76.79    6.40
   7   7   1   85.29    6.00
  -7   7  -1   96.89    8.20
  -7   7  -1   83.29    9.60
   9  -7   1  173.88    9.00
  -9  -7  -1  167.88   10.90
   9  -7   1  178.58    9.70
  -9  -7  -1  175.58   12.10
  -9   7  -1  182.28   11.00
  -9   7  -1  149.59   12.50
   9   7   1  165.78    9.10
   8  -8  -1   47.80    5.60
  -8   8   1   38.70    6.60
   8   8  -1   38.50    5.60
  -8   8   1   54.09    7.70
   8   8  -1   43.00    4.90
   6  -8  -1  722.73   18.50
   6  -8  -1  704.03   17.50
   6  -8  -1  672.13   18.40
  -6  -8   1  663.53   19.20
   6   8  -1  604.14   16.90
   6   8  -1  687.63   19.70
  -6   8   1  700.43   22.40
  -6   8   1  650.23   21.10
   6   8  -1  686.53   18.80
   6   8  -1  682.43   17.40
   4  -8  -1  367.66   12.00
   4  -8  -1  370.26   10.60
   4  -8  -1  362.96   11.30
   4   8  -1  357.16   11.80
   4   8  -1  376.16   12.00
  -4   8   1  357.06   12.60
   4   8  -1  370.66   10.70
  -4   8   1  357.46   11.70
  -4   8   1  347.07   13.90
   4   8  -1  339.57   10.30
  -2  -8   1  766.02   17.30
   2  -8  -1  752.32   19.20
   2  -8  -1  774.02   17.20
   2  -8  -1  794.92   18.00
  -2   8   1  757.42   17.10
  -2   8   1  704.03   17.60
  -2   8   1  783.92   20.70
   2   8  -1  756.02   18.40
   2   8  -1  752.02   17.20
   2   8  -1  743.63   17.50
  -2   8   1  771.32   18.40
   0  -8  -1 1941.51   36.90
   0  -8   1 1939.31   36.40
   0  -8  -1 1921.51   36.50
   0  -8   1 1946.91   38.90
   0  -8   1 1671.73   34.70
   0   8  -1 1897.41   36.60
   0   8  -1 1953.20   37.40
   0   8   1 1929.11   37.10
   0   8   1 1925.51   37.30
   2  -8   1  577.44   16.40
   2  -8   1  580.04   14.60
  -2  -8  -1  548.35   14.60
  -2   8  -1  579.74   16.70
   2   8   1  560.74   15.00
   2   8   1  571.44   15.30
  -2   8  -1  575.64   14.80
  -2   8  -1  563.84   14.40
   4  -8   1 1387.76   29.40
  -4  -8  -1 1357.46   29.70
  -4  -8  -1 1394.86   32.40
   4  -8   1 1432.46   31.70
  -4   8  -1 1406.96   33.70
  -4   8  -1 1370.06   33.60
   4   8   1 1349.36   30.60
   4   8   1 1403.16   30.00
   4   8   1 1452.85   29.60
  -6  -8  -1  593.24   18.80
   6  -8   1  629.74   17.60
  -6  -8  -1  631.54   18.60
   6  -8   1  612.24   18.40
  -6   8  -1  626.04   21.00
   6   8   1  608.24   17.10
   6   8   1  632.44   17.70
  -6   8  -1  607.24   21.30
   8  -8   1  214.18   10.40
  -8  -8  -1  207.68   11.40
  -8   8  -1  203.68   13.50
  -8   8  -1  216.98   12.40
   8   8   1  208.88    9.80
   7  -9  -1    3.30    2.00
   7  -9  -1    2.70    2.90
   7   9  -1    1.90    2.50
  -7   9   1    6.10    4.10
  -7   9   1    5.60    3.90
   7   9  -1    4.10    2.20
   7   9  -1    3.50    2.20
  -5  -9   1  905.41   24.40
   5  -9  -1  927.91   23.90
   5  -9  -1  916.01   22.60
  -5   9   1  954.40   27.10
  -5   9   1  924.21   23.60
   5   9  -1  973.60   24.10
   5   9  -1  929.11   23.70
   5   9  -1  963.80   22.00
  -3  -9   1    9.40    2.00
   3  -9  -1   12.60    2.30
   3  -9  -1   12.30    2.50
   3  -9  -1   12.30    3.30
   3   9  -1   14.80    2.90
   3   9  -1   17.70    2.90
  -3   9   1    8.80    2.30
   3   9  -1   11.30    2.20
  -3   9   1   14.60    3.70
  -3   9   1   10.80    2.60
   1  -9  -1 2239.58   43.30
  -1  -9   1 2281.57   45.90
   1  -9  -1 2203.78   42.40
  -1  -9   1 2247.58   42.60
   1   9  -1 2252.97   43.00
   1   9  -1 2275.87   44.10
  -1   9   1 2216.08   43.00
  -1   9   1 2171.68   43.70
   1  -9   1  111.69    7.10
  -1  -9  -1  108.59    5.90
   1  -9   1  110.49    5.80
  -1  -9  -1  108.89    5.70
  -1   9  -1  114.69    5.80
   1   9   1  104.39    5.70
   1   9   1  108.39    5.90
  -1   9  -1  104.49    5.80
  -3  -9  -1 1104.99   25.30
   3  -9   1 1114.89   24.80
   3  -9   1 1113.29   27.30
  -3   9  -1 1069.89   25.10
  -3   9  -1 1085.49   27.60
   3   9   1 1105.89   25.30
   3   9   1 1105.09   25.90
  -3   9  -1 1073.29   24.10
  -5  -9  -1  409.56   15.40
  -5  -9  -1  429.36   14.40
   5  -9   1  427.26   13.50
   5  -9   1  422.26   15.20
   5   9   1  441.26   13.60
  -5   9  -1  418.96   16.80
   5   9   1  426.26   14.60
  -5   9  -1  435.06   17.30
   5   9   1  411.16   13.40
   7  -9   1  326.17   12.70
  -7  -9  -1  308.47   13.30
  -7   9  -1  323.77   15.50
   7   9   1  317.47   12.00
  -7   9  -1  333.37   16.10
   8 -10  -1    7.50    3.30
   8  10  -1    7.10    2.80
  -8  10   1    9.00    3.90
  -8  10   1   14.40    4.30
   6 -10  -1  127.69    7.40
   6 -10  -1  113.89    8.10
  -6  10   1  107.79    8.90
  -6  10   1  100.59    7.10
   6  10  -1  112.69    7.80
   6  10  -1  105.69    7.30
   4 -10  -1    1.20    1.90
   4 -10  -1    4.10    1.80
  -4 -10   1    3.90    1.60
   4 -10  -1    0.50    2.30
   4  10  -1    5.60    2.60
  -4  10   1   -0.10    2.40
   4  10  -1    1.40    1.80
  -4  10   1    3.20    2.40
   2 -10  -1    0.10    2.40
  -2 -10   1    0.90    1.70
   2 -10  -1    0.80    2.00
  -2 -10   1    0.30    1.80
   2 -10  -1    1.10    1.60
   2  10  -1    1.00    2.00
  -2  10   1    0.40    1.40
   2  10  -1    0.50    1.30
  -2  10   1   -0.70    1.70
   0 -10   1   86.19    6.40
   0 -10  -1   87.79    5.70
   0 -10  -1   80.89    5.20
   0 -10   1   88.29    5.50
   0  10  -1   89.19    5.80
   0  10   1   80.19    5.60
   0  10  -1   93.49    5.60
   0  10   1   94.39    6.00
  -2 -10  -1   70.99    5.10
   2 -10   1   77.79    6.90
   2 -10   1   79.19    5.70
  -2 -10  -1   81.79    5.50
   2  10   1   71.79    5.40
  -2  10  -1   87.69    6.60
   2  10   1   63.69    5.60
  -2  10  -1   79.89    5.40
  -2  10  -1   78.89    5.60
  -4 -10  -1   34.00    5.10
   4 -10   1   35.50    5.50
  -4 -10  -1   26.90    3.90
   4 -10   1   35.60    4.80
   4 -10   1   39.80    4.80
   4  10   1   35.70    5.00
  -4  10  -1   34.70    5.40
  -4  10  -1   31.90    4.20
   4  10   1   34.50    4.40
  -6 -10  -1    4.20    2.60
   6 -10   1    0.40    2.50
   6 -10   1   -1.50    1.80
   6  10   1    0.60    2.20
  -6  10  -1    3.80    3.40
   6  10   1    0.30    2.10
   7 -11  -1  112.79    8.20
  -7  11   1  112.89    8.50
   7  11  -1  122.99    8.60
  -7  11   1  109.49    9.90
   5 -11  -1    2.70    3.30
   5 -11  -1    2.20    2.80
  -5  11   1    1.50    2.50
   5  11  -1    1.40    2.00
  -3 -11   1   -0.60    1.70
   3 -11  -1    1.60    2.90
  -3 -11   1    5.30    2.90
   3 -11  -1    0.80    2.50
   3  11  -1    1.40    1.70
  -3  11   1   -0.40    2.20
  -1 -11   1   26.80    3.50
   1 -11  -1   31.00    4.80
   1 -11  -1   23.40    3.90
  -1 -11   1   23.00    4.80
   1  11  -1   21.90    3.50
   1  11  -1   25.00    4.10
  -1  11   1   28.90    4.00
  -1  11   1   32.30    4.30
   1 -11   1    3.80    3.30
  -1 -11  -1    2.40    2.40
   1 -11   1    1.50    2.40
   1  11   1    2.10    2.30
  -1  11  -1    5.70    2.40
  -1  11  -1    2.80    2.10
   1  11   1    3.80    2.20
   3 -11   1  343.87   14.50
  -3 -11  -1  353.96   12.70
   3 -11   1  331.67   11.90
   3  11   1  353.36   12.70
  -3  11  -1  338.97   12.60
   3  11   1  338.77   13.10
  -5 -11  -1   77.49    6.20
   5 -11   1   72.49    5.80
   5 -11   1   77.49    8.20
   5  11   1   61.79    7.10
  -5  11  -1   62.79    6.70
   6 -12  -1   12.90    3.30
   6  12  -1   17.80    4.60
  -6  12   1   14.10    3.50
  -4 -12   1  263.77   12.80
   4 -12  -1  282.77   13.30
   4 -12  -1  292.77   12.20
  -4  12   1  286.87   12.30
   4  12  -1  263.87   12.40
   2 -12  -1  265.47   12.60
  -2 -12   1  268.07   10.50
   2 -12  -1  258.47   10.70
  -2 -12   1  287.87   13.40
  -2  12   1  263.07   11.60
   2  12  -1  274.57   12.00
   0 -12   1   67.79    7.70
   0 -12  -1   83.39    7.70
   0 -12   1   74.79    6.00
   0 -12  -1   73.09    6.10
   0  12   1   65.29    5.50
   0  12   1   77.19    5.80
   0  12  -1   67.59    6.40
   2 -12   1  567.84   19.60
   2 -12   1  530.35   16.10
  -2 -12  -1  534.35   16.50
   2  12   1  520.75   17.30
  -2  12  -1  571.54   17.40
   2  12   1  522.85   16.80
  -2  12  -1  504.45   16.40
   4 -12   1   84.79    8.60
  -4 -12  -1   81.19    6.40
   4 -12   1   73.69    6.60
  -4  12  -1   75.59    6.60
   4  12   1   75.49    7.60
  -3 -13   1  666.43   22.40
   3 -13  -1  673.03   19.60
   3 -13  -1  671.43   21.70
  -3  13   1  671.33   20.70
   3  13  -1  652.33   20.80
  -1 -13   1    2.10    2.60
  -1 -13   1    6.10    3.80
   1 -13  -1    5.80    3.20
   1 -13  -1   -0.80    3.10
   1  13  -1    4.90    3.00
  -1  13   1    5.30    3.10
  -1 -13  -1  333.67   12.50
   1 -13   1  307.67   12.20
   1 -13   1  322.67   14.60
  -1 -13  -1  328.17   14.90
   1  13   1  318.77   12.90
  -1  13  -1  301.07   12.40
   1  13   1  300.87   12.40
   3 -13   1   22.90    4.40
  -3 -13  -1   11.90    3.50
  -3 -13  -1   32.40    5.90
   3 -13   1   17.70    4.00
   3 -13   1   19.40    5.30
  -3  13  -1   19.20    5.40
   3  13   1   18.60    4.60
 -10   0   2  491.85   19.30
 -10   0   2  487.05   18.90
  10   0  -2  510.45   15.90
 -10   0   2  524.15   22.10
   8   0  -2   26.60    3.10
  -8   0   2   32.10    5.60
   8   0  -2   22.80    3.20
  -8   0   2   17.40    4.90
  -6   0   2 3445.86   64.99
   6   0  -2 3464.75   60.19
   6   0  -2 3524.65   60.79
  -6   0   2 3536.15   66.39
   6   0  -2 3417.66   61.59
  -6   0   2 3416.36   58.49
  -6   0   2 3335.57   60.89
  -4   0   2 1291.07   26.50
  -4   0   2 1324.87   21.90
   4   0  -2 1288.07   24.60
   4   0  -2 1278.47   23.00
   4   0  -2 1319.27   29.70
   4   0  -2 1252.67   23.70
  -4   0   2 1267.87   24.80
  -2   0   2 9949.00  174.48
   2   0  -2 9408.26  169.28
   2   0  -2 9642.63  167.78
  -2   0   2 9854.11  169.58
   0   0   2 2173.58   36.40
   0   0  -2 2063.79   36.80
   0   0   2 2149.78   36.80
   0   0  -2 2166.98   40.90
   0   0  -2 2090.19   36.40
   0   0   2 2086.59   36.20
   0   0   2 2131.19   36.50
   0   0  -2 2071.79   36.30
   2   0   2 3887.51   66.69
   2   0   2 3990.60   70.89
  -2   0  -2 3894.01   68.29
  -2   0  -2 4015.50   67.49
  -2   0  -2 3745.43   65.69
   2   0   2 3829.22   65.89
   2   0   2 3852.61   68.99
  -2   0  -2 3991.30   79.89
  -2   0  -2 3911.11   68.29
  -4   0  -2 2264.57   50.09
  -4   0  -2 2315.47   45.10
  -4   0  -2 2303.07   44.40
   4   0   2 2281.27   41.00
   4   0   2 2292.27   41.90
   4   0   2 2202.78   39.70
  -4   0  -2 2314.07   42.50
  -4   0  -2 2214.88   41.10
   4   0   2 2248.88   41.50
   6   0   2 2028.90   39.60
  -6   0  -2 2079.39   44.20
  -6   0  -2 2035.60   40.80
   6   0   2 2078.69   40.10
  -6   0  -2 2062.99   45.00
   6   0   2 2055.59   40.20
  -8   0  -2  407.66   18.30
   8   0   2  425.96   13.50
  -8   0  -2  399.26   17.20
  10   0   2 1055.59   27.30
 -10   0  -2 1066.39   32.50
 -10   0  -2 1105.99   34.70
 -11  -1   2  227.28   13.90
  11  -1  -2  215.38   10.40
 -11  -1   2  216.38   15.70
  11   1  -2  219.58   10.40
 -11   1   2  220.88   13.60
 -11   1   2  219.28   15.70
  -9  -1   2   -2.10    3.50
   9  -1  -2    3.50    2.00
  -9  -1   2   -3.70    3.80
  -9   1   2    2.80    4.40
   9   1  -2    1.20    1.30
   9   1  -2    0.20    1.80
  -9   1   2   -2.10    4.10
   7  -1  -2  405.96   10.70
  -7  -1   2  405.66   14.30
  -7  -1   2  391.06   15.00
   7  -1  -2  400.36   11.10
   7  -1  -2  405.66   11.10
  -7   1   2  384.46   15.10
   7   1  -2  404.36   11.00
  -7   1   2  418.46   14.80
   7   1  -2  393.56   11.90
  -5  -1   2  199.08    8.30
   5  -1  -2  185.68    4.40
  -5  -1   2  192.48    4.70
   5  -1  -2  188.98    9.90
   5  -1  -2  185.68    5.90
   5  -1  -2  193.38    5.50
   5  -1  -2  194.78    6.00
  -5  -1   2  184.78    6.60
  -5   1   2  204.48    8.40
  -5   1   2  198.28    8.40
   5   1  -2  197.18    5.80
  -5   1   2  188.08    6.30
   5   1  -2  194.48    9.80
   5   1  -2  194.98    5.10
   5   1  -2  198.28    6.70
   3  -1  -2  390.16    8.40
   3  -1  -2  405.86    7.20
  -3  -1   2  377.46    8.20
   3  -1  -2  398.16    8.60
   3  -1  -2  385.56    8.40
  -3  -1   2  397.56    7.20
   3  -1  -2  384.76    7.80
  -3  -1   2  390.76    9.70
   3   1  -2  378.76    9.10
  -3   1   2  384.66    9.30
   3   1  -2  395.86   11.30
  -3   1   2  389.06    7.70
   3   1  -2  390.56    7.90
   3   1  -2  392.46    8.10
   3   1  -2  383.86    7.90
  -3   1   2  393.66   10.30
   1  -1  -2 4283.87   77.89
   1  -1  -2 4212.68   78.69
   1  -1  -2 4454.15   79.39
  -1  -1   2 4388.06   77.49
   1  -1  -2 4220.28   76.09
  -1  -1   2 4304.67   77.09
  -1  -1   2 4326.97   78.69
  -1   1   2 4369.26   77.99
   1   1  -2 4205.98   77.29
   1   1  -2 4478.25   77.69
  -1   1   2 4474.55   78.39
  -1   1   2 4208.78   75.89
   1   1  -2 4183.38   76.79
  -1   1   2 4343.07   79.79
   1  -1   2  421.26   10.90
  -1  -1  -2  400.76    9.10
   1  -1   2  416.26    9.10
   1  -1   2  409.86    8.30
   1  -1   2  414.96    8.70
  -1  -1  -2  403.36    9.30
   1  -1   2  415.06    9.10
  -1  -1  -2  396.56    8.90
  -1  -1  -2  424.66    9.60
   1   1   2  423.86    8.30
  -1   1  -2  413.36    8.60
   1   1   2  406.36    8.80
   1   1   2  407.16    8.80
  -1   1  -2  421.26   10.80
  -1   1  -2  425.96    9.40
  -1   1  -2  414.06    9.90
   1   1   2  405.46    8.90
  -1   1  -2  412.56    8.60
   1   1   2  402.46    8.90
   1   1   2  402.16    8.00
  -1   1  -2  396.06    9.50
  -3  -1  -2  547.95   12.90
  -3  -1  -2  518.95   11.00
  -3  -1  -2  539.05   13.80
   3  -1   2  514.95   11.40
   3  -1   2  527.55   12.40
  -3  -1  -2  551.94   17.60
  -3  -1  -2  551.54   13.90
   3  -1   2  540.45   12.10
   3  -1   2  548.85   17.10
   3  -1   2  547.65   11.40
   3  -1   2  533.35   11.80
  -3   1  -2  540.25   12.30
  -3   1  -2  560.44   14.00
  -3   1  -2  564.54   14.80
  -3   1  -2  543.45   16.80
   3   1   2  514.25   12.20
   3   1   2  551.04   11.70
  -3   1  -2  546.25   12.90
   3   1   2  527.95   12.00
   3   1   2  532.05   11.40
  -5  -1  -2  670.83   18.90
  -5  -1  -2  670.03   16.60
   5  -1   2  675.33   15.90
   5  -1   2  654.73   15.20
   5  -1   2  670.23   16.10
   5  -1   2  665.13   15.70
  -5  -1  -2  689.73   18.60
  -5   1  -2  675.93   18.60
   5   1   2  663.23   15.80
  -5   1  -2  659.83   16.10
   5   1   2  676.33   15.50
  -5   1  -2  661.93   16.50
  -5   1  -2  677.33   19.50
  -7  -1  -2   16.70    4.60
   7  -1   2   15.10    2.80
   7  -1   2   19.60    3.10
  -7  -1  -2   25.50    5.60
  -7  -1  -2   19.90    3.40
  -7   1  -2   32.10    5.50
   7   1   2   22.50    3.10
   7   1   2   24.10    3.60
  -7   1  -2   18.70    3.30
  -7   1  -2   28.10    6.10
   9  -1   2  350.86   12.80
  -9  -1  -2  321.87   16.90
  -9  -1  -2  360.66   17.60
   9   1   2  340.47   12.80
  -9   1  -2  348.17   17.90
  -9   1  -2  333.77   16.40
 -10  -2   2    8.50    5.50
  10  -2  -2   10.10    3.00
 -10   2   2    6.70    4.80
 -10   2   2   12.20    6.30
  10   2  -2    8.30    2.70
  10   2  -2    6.10    2.90
 -10   2   2    3.20    3.60
  -8  -2   2  643.54   21.70
   8  -2  -2  637.44   16.10
  -8  -2   2  604.24   19.40
   8  -2  -2  637.54   15.70
  -8   2   2  606.14   19.80
  -8   2   2  605.14   21.00
   8   2  -2  627.14   16.10
   8   2  -2  604.74   17.20
   6  -2  -2  491.05   11.90
   6  -2  -2  531.45   12.80
  -6  -2   2  517.35   15.60
   6  -2  -2  486.85   11.70
  -6  -2   2  488.05   13.00
  -6  -2   2  504.85   11.00
  -6   2   2  493.65   12.40
   6   2  -2  535.45   13.90
   6   2  -2  527.05   12.40
  -6   2   2  523.85   15.90
  -6   2   2  527.55   16.40
   4  -2  -2 1291.07   24.60
  -4  -2   2 1340.97   23.60
  -4  -2   2 1310.57   29.60
  -4  -2   2 1280.17   24.10
  -4  -2   2 1325.27   26.20
   4  -2  -2 1326.37   24.10
   4  -2  -2 1314.57   24.00
   4  -2  -2 1278.87   23.30
   4   2  -2 1325.27   25.90
  -4   2   2 1318.77   25.40
   4   2  -2 1338.17   24.20
   4   2  -2 1300.07   29.70
  -4   2   2 1343.97   27.60
  -4   2   2 1311.97   27.10
   4   2  -2 1313.37   24.10
   2  -2  -2  586.64   11.90
  -2  -2   2  582.54   11.40
   2  -2  -2  576.94   11.50
  -2  -2   2  604.64   12.90
   2  -2  -2  583.34   11.30
  -2   2   2  614.24   13.30
   2   2  -2  593.94   11.60
  -2   2   2  603.44   11.80
  -2   2   2  596.04   12.20
   2   2  -2  604.14   11.00
   2   2  -2  589.84   12.50
   2   2  -2  598.24   13.00
  -2   2   2  598.34   12.70
   0  -2  -2 6353.36  113.29
   0  -2   2 6241.18  114.69
   0  -2   2 6246.57  110.79
   0  -2  -2 6235.78  111.29
   0  -2   2 6376.16  114.39
   0  -2   2 6330.27  110.49
   0  -2  -2 6478.95  114.29
   0   2  -2 6361.36  118.69
   0   2  -2 6361.36  114.79
   0   2   2 6397.96  115.29
   0   2   2 6198.38  107.19
   0   2  -2 6353.26  116.99
   0   2  -2 6214.98  108.79
   0   2   2 6347.77  111.29
   0   2   2 6235.98  113.09
  -2  -2  -2 1913.41   35.30
  -2  -2  -2 1995.10   36.00
  -2  -2  -2 1958.80   41.60
   2  -2   2 1939.11   34.90
   2  -2   2 1940.91   34.40
   2  -2   2 1929.21   34.60
   2  -2   2 1995.10   39.10
  -2  -2  -2 1902.41   36.10
   2  -2   2 1985.90   35.50
   2   2   2 1923.91   34.50
   2   2   2 1924.91   34.90
  -2   2  -2 1907.71   36.20
   2   2   2 1942.31   35.10
  -2   2  -2 2003.00   35.80
  -2   2  -2 1931.71   37.30
   2   2   2 1928.41   34.80
  -2   2  -2 1919.21   35.50
  -4  -2  -2 1908.01   45.60
   4  -2   2 1960.30   36.30
   4  -2   2 1906.01   44.10
  -4  -2  -2 1947.81   38.90
   4  -2   2 1898.71   36.80
  -4  -2  -2 1978.00   39.40
  -4  -2  -2 1974.30   37.70
   4  -2   2 1947.71   36.50
  -4   2  -2 1933.61   37.40
   4   2   2 1961.70   36.30
  -4   2  -2 1971.20   39.10
  -4   2  -2 1946.31   37.50
  -4   2  -2 1973.40   40.70
   4   2   2 1995.50   36.50
   6  -2   2  457.65   12.30
   6  -2   2  452.75   12.80
  -6  -2  -2  455.15   15.80
  -6  -2  -2  463.65   16.10
   6  -2   2  450.95   13.00
   6  -2   2  446.16   12.80
  -6  -2  -2  438.66   13.50
  -6   2  -2  473.05   15.80
   6   2   2  440.96   12.60
  -6   2  -2  448.16   16.90
   6   2   2  440.86   12.50
  -6   2  -2  445.66   13.60
  -6   2  -2  449.95   13.40
  -8  -2  -2   94.09    9.20
  -8  -2  -2  104.59    9.50
   8  -2   2  105.19    6.40
  -8   2  -2  105.99   10.20
  -8   2  -2  110.59    9.20
   8   2   2   91.49    6.30
  10  -2   2    2.50    1.80
 -10  -2  -2   -0.40    3.10
 -10  -2  -2    2.80    5.10
 -10   2  -2    6.10    4.80
 -10   2  -2   -2.40    3.30
  10   2   2    3.80    2.70
 -11  -3   2  114.89   12.70
 -11  -3   2  111.89    9.80
  11  -3  -2  101.29    7.40
 -11   3   2   82.79    9.10
 -11   3   2   98.59   11.70
 -11   3   2   89.69    9.80
  11   3  -2  108.49    7.40
  -9  -3   2   22.00    5.80
   9  -3  -2   15.60    3.00
  -9  -3   2   18.50    5.90
   9  -3  -2   12.90    2.80
   9   3  -2   15.80    3.00
  -9   3   2   11.20    5.50
  -9   3   2   17.00    5.30
  -9   3   2   13.10    3.90
   9   3  -2   12.10    3.30
   7  -3  -2  291.37    9.60
   7  -3  -2  282.07    8.90
  -7  -3   2  301.97   12.40
   7   3  -2  277.97   10.40
   7   3  -2  297.27    9.30
  -7   3   2  283.27   12.50
  -7   3   2  289.37   13.10
  -5  -3   2  278.37   12.10
  -5  -3   2  284.87    7.40
  -5  -3   2  283.17    9.40
   5  -3  -2  274.87    6.60
   5  -3  -2  276.17    7.10
   5  -3  -2  281.97    7.70
   5  -3  -2  278.27    8.00
  -5   3   2  295.57   10.60
   5   3  -2  279.07   12.30
   5   3  -2  281.67    7.80
  -5   3   2  279.07   10.70
   5   3  -2  297.17    9.30
   5   3  -2  279.47    7.70
  -5   3   2  289.77    8.50
   3  -3  -2    1.40    0.70
  -3  -3   2    2.70    1.20
   3  -3  -2    1.00    0.80
   3  -3  -2    1.70    0.50
   3   3  -2    3.30    0.70
  -3   3   2    2.40    1.40
   3   3  -2    2.00    0.50
   3   3  -2    1.10    0.90
  -3   3   2    2.60    1.70
   3   3  -2    4.10    1.00
  -3   3   2    2.10    1.00
  -1  -3   2 2989.60   51.29
   1  -3  -2 2944.41   50.89
   1  -3  -2 2949.70   51.39
  -1  -3   2 3091.09   57.29
  -1  -3   2 2960.90   51.49
   1   3  -2 2983.10   51.09
   1   3  -2 2927.01   51.39
   1   3  -2 2965.80   51.09
  -1   3   2 2992.10   52.39
  -1   3   2 3022.80   51.89
  -1   3   2 2942.41   51.29
  -1   3   2 2950.50   52.09
   1  -3   2  534.25   11.90
   1  -3   2  538.45   10.60
  -1  -3  -2  525.05   11.70
   1  -3   2  531.05   10.80
   1  -3   2  535.35   12.70
  -1  -3  -2  511.15   11.50
  -1  -3  -2  543.15   12.30
   1  -3   2  526.45   12.00
  -1  -3  -2  514.35   10.30
   1   3   2  497.05   11.40
  -1   3  -2  531.85   12.90
   1   3   2  530.05   11.00
  -1   3  -2  528.85   12.10
   1   3   2  531.15   11.30
  -1   3  -2  513.65    9.90
  -1   3  -2  528.75   11.80
   1   3   2  533.95   11.00
  -1   3  -2  529.35   12.30
   3  -3   2    5.00    1.80
   3  -3   2    5.60    1.50
  -3  -3  -2    4.80    1.90
  -3  -3  -2    2.70    1.40
  -3  -3  -2    3.10    1.10
   3  -3   2    4.60    1.20
   3  -3   2    9.70    2.50
   3  -3   2    5.70    1.40
  -3  -3  -2    2.60    2.10
  -3  -3  -2    3.30    1.70
   3   3   2    2.30    1.10
  -3   3  -2    2.10    1.70
  -3   3  -2    2.80    2.40
   3   3   2    2.50    0.90
   3   3   2    3.10    1.10
  -3   3  -2    4.30    1.50
  -3   3  -2    6.20    1.90
  -5  -3  -2    2.10    1.30
  -5  -3  -2    2.40    2.40
   5  -3   2    0.80    1.40
   5  -3   2    1.70    1.10
   5  -3   2    2.10    1.80
  -5  -3  -2    1.90    1.80
  -5   3  -2    5.20    3.30
   5   3   2    1.70    1.30
  -5   3  -2    6.20    2.70
  -5   3  -2    1.60    2.20
  -5   3  -2    2.50    1.30
   5   3   2    1.80    1.30
  -7  -3  -2  244.48   10.30
  -7  -3  -2  252.37   12.70
   7  -3   2  261.57    9.30
   7  -3   2  262.37   10.00
  -7  -3  -2  257.07   12.80
   7  -3   2  262.57   10.00
  -7   3  -2  264.27   12.40
  -7   3  -2  255.97   14.10
   7   3   2  269.17    9.90
  -7   3  -2  251.17   10.10
   7   3   2  263.87    9.60
  -7   3  -2  232.98   12.20
  -9  -3  -2    2.10    3.30
  -9  -3  -2    3.80    4.80
   9  -3   2    3.60    2.30
  -9   3  -2    5.10    4.30
  -9   3  -2    6.70    5.40
   9   3   2    1.10    2.10
 -10  -4   2   97.79   11.20
  10  -4  -2  111.59    7.00
  10  -4  -2  108.29    6.70
 -10   4   2  114.29   12.30
 -10   4   2   91.79    8.30
  10   4  -2  118.39    7.20
 -10   4   2  109.89    9.70
  10   4  -2  109.09    8.20
   8  -4  -2 1807.92   36.50
  -8  -4   2 1812.02   43.80
  -8  -4   2 1859.71   41.80
  -8   4   2 1811.62   39.60
   8   4  -2 1782.82   39.20
  -8   4   2 1799.12   43.40
  -8   4   2 1871.11   42.70
   8   4  -2 1835.02   36.90
  -6  -4   2    7.10    1.50
   6  -4  -2    4.20    1.60
   6  -4  -2    3.40    1.60
  -6  -4   2    3.50    2.00
   6   4  -2    5.70    1.50
  -6   4   2    3.00    1.50
   6   4  -2    0.20    0.90
  -6   4   2    2.90    3.10
  -6   4   2    2.20    2.60
   6   4  -2    1.80    1.70
   4  -4  -2 6702.83  114.89
   4  -4  -2 6726.53  119.19
   4  -4  -2 6588.74  117.69
  -4  -4   2 6711.93  128.79
   4   4  -2 6944.00  117.19
  -4   4   2 6904.81  118.89
   4   4  -2 6667.03  113.79
  -4   4   2 6921.41  116.59
  -4   4   2 7010.20  118.19
   4   4  -2 6676.83  119.99
   4   4  -2 6950.21  117.79
   2  -4  -2   51.89    3.00
  -2  -4   2   55.49    3.30
   2  -4  -2   56.89    2.80
  -2  -4   2   52.39    2.20
   2  -4  -2   56.09    2.40
  -2   4   2   52.09    2.80
  -2   4   2   55.39    2.90
   2   4  -2   50.89    3.00
  -2   4   2   57.89    2.20
   2   4  -2   54.99    2.10
  -2   4   2   56.39    3.40
  -2   4   2   55.89    3.70
   2   4  -2   52.69    2.80
   2   4  -2   53.79    2.20
   0  -4   2 3737.23   64.29
   0  -4   2 3906.61   67.49
   0  -4  -2 3915.01   66.99
   0  -4  -2 3857.81   66.39
   0  -4  -2 3978.10   66.59
   0  -4   2 3871.41   65.69
   0   4  -2 3776.22   68.09
   0   4   2 3990.90   66.49
   0   4   2 3843.82   67.29
   0   4   2 3798.72   66.39
   0   4  -2 3846.12   65.99
   0   4  -2 3881.81   66.29
   0   4   2 3968.30   66.99
   2  -4   2  652.43   12.80
   2  -4   2  667.83   15.20
   2  -4   2  651.03   13.50
  -2  -4  -2  628.34   13.70
  -2  -4  -2  645.84   14.70
  -2  -4  -2  653.43   14.80
   2  -4   2  650.13   13.80
  -2  -4  -2  660.03   15.60
   2  -4   2  665.93   17.20
   2  -4   2  642.94   14.80
  -2   4  -2  624.64   14.60
  -2   4  -2  662.83   15.40
  -2   4  -2  632.14   12.30
   2   4   2  652.23   14.60
   2   4   2  670.93   14.00
  -2   4  -2  650.13   15.60
  -2   4  -2  646.54   16.60
   2   4   2  665.73   14.50
   2   4   2  649.64   13.70
   4  -4   2  741.83   17.90
   4  -4   2  732.33   16.50
   4  -4   2  737.73   22.80
  -4  -4  -2  761.72   18.50
  -4  -4  -2  771.82   19.40
   4  -4   2  801.02   17.20
  -4  -4  -2  766.42   18.70
   4   4   2  764.72   17.10
  -4   4  -2  758.42   20.90
  -4   4  -2  739.63   18.90
  -4   4  -2  764.12   18.80
   4   4   2  762.62   16.60
   4   4   2  776.52   17.70
  -4   4  -2  768.22   18.50
   6  -4   2  137.19    6.70
   6  -4   2  136.69    6.80
  -6  -4  -2  127.49    8.10
  -6  -4  -2  138.39    7.30
  -6  -4  -2  135.79    8.50
  -6   4  -2  129.79    7.00
   6   4   2  138.99    6.70
  -6   4  -2  128.59    8.00
   6   4   2  138.49    6.30
  -6   4  -2  125.89    7.60
  -6   4  -2  144.89    9.90
  -8  -4  -2  445.76   18.30
   8  -4   2  424.56   14.40
   8  -4   2  440.66   13.90
  -8   4  -2  429.36   19.50
   8   4   2  443.86   14.50
  -8   4  -2  445.96   17.40
 -11  -5   2   45.80    9.10
 -11  -5   2   49.10    8.00
  11  -5  -2   66.99    6.70
  11  -5  -2   78.19    6.40
  11   5  -2   51.19    5.60
 -11   5   2   68.29    8.30
 -11   5   2   74.29   10.80
   9  -5  -2  802.62   20.40
  -9  -5   2  805.12   27.00
   9   5  -2  752.82   22.20
   9   5  -2  784.82   20.50
  -9   5   2  779.92   26.50
  -9   5   2  767.32   25.10
   7  -5  -2  521.05   14.20
   7  -5  -2  509.55   13.80
  -7  -5   2  516.75   17.40
   7   5  -2  523.05   16.10
  -7   5   2  503.35   17.70
  -7   5   2  525.05   17.80
   7   5  -2  509.65   13.80
   7   5  -2  519.05   14.00
  -7   5   2  504.85   18.20
  -5  -5   2  980.60   27.70
   5  -5  -2 1030.90   21.30
   5  -5  -2 1020.60   21.50
   5  -5  -2 1038.90   21.30
   5   5  -2 1034.00   21.90
  -5   5   2 1035.30   25.30
   5   5  -2 1051.59   23.70
   5   5  -2 1007.90   20.30
  -5   5   2 1038.20   25.00
  -5   5   2  985.80   21.00
   5   5  -2 1032.80   21.10
  -5   5   2 1041.20   22.60
   3  -5  -2 2555.44   45.20
   3  -5  -2 2488.35   45.30
  -3  -5   2 2553.94   49.60
   3  -5  -2 2460.25   43.60
  -3   5   2 2537.45   46.60
  -3   5   2 2540.65   46.90
   3   5  -2 2481.15   44.20
   3   5  -2 2492.15   43.90
  -3   5   2 2491.15   48.10
   3   5  -2 2527.35   46.60
  -3   5   2 2515.75   43.50
   3   5  -2 2553.04   45.80
   1  -5  -2   97.29    3.60
  -1  -5   2   97.29    2.90
   1  -5  -2  101.59    4.10
  -1  -5   2  104.59    4.60
   1  -5  -2  105.09    4.40
  -1  -5   2  100.49    3.60
  -1   5   2   99.69    3.10
  -1   5   2  107.49    4.80
  -1   5   2  100.99    4.70
   1   5  -2  103.59    4.20
   1   5  -2  102.59    3.50
  -1   5   2  102.49    3.80
   1   5  -2  103.49    4.10
  -1   5   2   98.29    4.30
  -1  -5  -2 1309.47   25.10
  -1  -5  -2 1369.06   26.60
   1  -5   2 1315.27   23.90
   1  -5   2 1356.56   25.50
  -1  -5  -2 1347.77   26.10
   1  -5   2 1379.66   27.30
   1   5   2 1386.86   25.20
   1   5   2 1395.36   26.40
   1   5   2 1365.56   26.60
  -1   5  -2 1377.76   28.50
  -1   5  -2 1308.07   24.40
   1   5   2 1368.46   25.70
  -1   5  -2 1347.37   25.70
  -3  -5  -2  126.99    6.30
  -3  -5  -2  121.29    5.30
  -3  -5  -2  118.89    5.90
   3  -5   2  117.89    5.40
   3  -5   2  125.19    5.20
   3  -5   2  126.99    6.20
   3  -5   2  124.49    7.50
   3   5   2  131.59    5.80
  -3   5  -2  113.29    5.50
  -3   5  -2  122.79    6.40
   3   5   2  123.29    4.70
   3   5   2  119.69    5.10
  -3   5  -2  128.19    7.30
   3   5   2  122.39    5.50
  -5  -5  -2   21.50    4.00
   5  -5   2   15.90    3.20
  -5  -5  -2   18.90    3.20
   5  -5   2   21.30    3.10
  -5   5  -2   25.90    5.00
   5   5   2   22.10    3.00
  -5   5  -2   21.60    3.90
  -5   5  -2   29.60    4.10
   5   5   2   23.10    2.80
   5   5   2   19.30    3.00
   7  -5   2  174.08    8.40
  -7  -5  -2  172.68    9.00
  -7  -5  -2  173.98   10.90
   7  -5   2  179.48    7.90
   7  -5   2  159.88    8.30
  -7   5  -2  179.28    9.80
  -7   5  -2  159.78    9.60
  -7   5  -2  180.38   12.10
   7   5   2  180.88    8.40
   7   5   2  161.18    7.20
  -9  -5  -2   10.70    5.20
   9  -5   2    8.50    2.40
  -9  -5  -2    7.60    4.10
  -9   5  -2   12.00    5.70
   9   5   2    5.40    2.90
 -10  -6   2  464.15   21.00
  10  -6  -2  507.65   16.10
  10   6  -2  515.25   18.00
 -10   6   2  484.95   20.00
  10   6  -2  490.55   16.00
 -10   6   2  485.25   21.40
  -8  -6   2  227.98   12.90
   8  -6  -2  207.68    8.70
   8  -6  -2  214.48    9.10
  -8   6   2  215.88   12.70
   8   6  -2  222.18    9.00
   8   6  -2  232.98   10.90
  -8   6   2  239.28   12.80
  -6  -6   2  863.41   20.40
   6  -6  -2  886.31   20.20
   6  -6  -2  859.81   19.80
   6  -6  -2  883.41   20.00
  -6   6   2  885.51   24.00
   6   6  -2  882.71   22.40
   6   6  -2  895.61   19.80
   6   6  -2  868.61   20.60
  -6   6   2  857.21   24.10
   4  -6  -2  492.15   12.30
  -4  -6   2  466.75   16.30
   4  -6  -2  492.25   12.80
   4  -6  -2  484.65   12.30
   4   6  -2  485.65   12.90
  -4   6   2  476.55   13.90
   4   6  -2  477.95   11.20
  -4   6   2  516.35   15.60
   4   6  -2  489.95   11.70
   4   6  -2  486.85   13.60
  -2  -6   2 2354.06   42.00
   2  -6  -2 2421.26   43.20
   2  -6  -2 2364.76   43.20
  -2  -6   2 2363.16   46.10
  -2  -6   2 2283.97   41.00
  -2   6   2 2278.97   42.30
  -2   6   2 2369.36   42.10
  -2   6   2 2390.56   45.60
   2   6  -2 2397.66   43.70
   2   6  -2 2380.96   43.60
  -2   6   2 2381.96   43.70
   2   6  -2 2306.97   41.70
   0  -6  -2   34.60    3.00
   0  -6  -2   30.30    2.40
   0  -6   2   39.70    3.50
   0  -6   2   32.30    1.70
   0  -6   2   35.80    2.60
   0   6  -2   48.60    3.70
   0   6  -2   29.30    2.10
   0   6  -2   26.70    2.00
   0   6   2   30.20    2.60
   0   6  -2   39.60    2.70
   0   6  -2   33.80    2.30
   0   6   2   36.60    2.90
   2  -6   2 3501.45   63.39
  -2  -6  -2 3390.46   61.89
   2  -6   2 3448.25   61.09
   2  -6   2 3440.06   65.59
   2  -6   2 3361.96   59.19
  -2   6  -2 3435.86   64.99
  -2   6  -2 3447.35   61.09
   2   6   2 3528.15   62.29
  -2   6  -2 3497.95   64.69
   2   6   2 3516.95   62.49
   2   6   2 3448.56   61.29
   4  -6   2    0.00    2.10
   4  -6   2    2.70    1.50
  -4  -6  -2    3.00    1.60
  -4  -6  -2   -0.70    1.70
  -4  -6  -2    9.10    2.60
   4  -6   2    3.10    1.70
   4   6   2    0.80    1.30
  -4   6  -2    4.70    2.30
  -4   6  -2    4.60    2.00
  -4   6  -2    1.60    2.70
   4   6   2    1.70    1.30
   4   6   2    1.40    1.60
   6  -6   2 1212.28   28.20
  -6  -6  -2 1218.78   30.40
   6  -6   2 1199.18   27.00
  -6  -6  -2 1204.38   29.20
  -6   6  -2 1166.68   30.00
  -6   6  -2 1178.58   28.90
  -6   6  -2 1224.18   33.10
   6   6   2 1217.98   27.20
  -8  -6  -2   40.00    6.20
   8  -6   2   23.90    3.80
   8  -6   2   24.80    4.40
  -8  -6  -2   24.80    5.80
  -8   6  -2   23.40    6.60
  -8   6  -2   25.90    5.80
   8   6   2   33.10    4.50
  -9  -7   2   72.89    9.50
   9  -7  -2   82.89    6.40
  -9   7   2  100.49    9.70
  -9   7   2   86.99    9.30
   9   7  -2   78.79    5.90
   9   7  -2   89.99    7.90
   7  -7  -2    0.50    1.30
   7  -7  -2    3.50    2.30
  -7   7   2   -0.50    2.90
   7   7  -2    2.10    2.40
   7   7  -2    0.80    1.70
  -7   7   2    6.00    3.60
   7   7  -2    1.40    1.80
   5  -7  -2   13.50    2.40
   5  -7  -2   16.60    2.90
   5  -7  -2   15.90    2.80
   5   7  -2    9.70    2.40
   5   7  -2   16.10    2.40
   5   7  -2    9.30    2.70
   5   7  -2   13.80    2.10
  -5   7   2   10.30    3.10
  -5   7   2    9.70    3.30
   3  -7  -2  226.58    7.80
  -3  -7   2  218.28    6.50
   3  -7  -2  219.68    7.60
  -3  -7   2  217.08    6.80
   3  -7  -2  217.28    8.30
   3   7  -2  221.98    8.00
  -3   7   2  223.38    6.70
  -3   7   2  232.48    8.20
   3   7  -2  216.98    6.80
  -3   7   2  209.48    7.70
   3   7  -2  227.38    8.30
  -3   7   2  212.28    9.50
  -1  -7   2    1.50    1.00
   1  -7  -2    1.60    1.40
  -1  -7   2    1.20    1.60
   1  -7  -2    2.00    1.20
   1  -7  -2    0.70    0.80
  -1   7   2    1.50    1.50
  -1   7   2    5.70    1.50
   1   7  -2    1.00    1.20
   1   7  -2    1.20    0.90
   1   7  -2    1.70    1.00
  -1   7   2    0.80    1.20
  -1  -7  -2  631.94   15.50
  -1  -7  -2  590.14   14.30
   1  -7   2  616.64   16.30
   1  -7   2  640.14   14.70
  -1   7  -2  634.24   14.60
  -1   7  -2  615.64   17.00
   1   7   2  628.94   15.60
  -1   7  -2  634.24   15.10
   1   7   2  619.24   13.40
   1   7   2  649.74   15.50
   3  -7   2  232.28    9.60
  -3  -7  -2  239.08    8.80
   3  -7   2  228.58    9.10
   3  -7   2  244.98    8.40
  -3  -7  -2  245.88   10.10
  -3   7  -2  235.98    8.00
   3   7   2  241.68    8.30
   3   7   2  241.48    8.80
  -3   7  -2  237.38   10.70
   3   7   2  253.47    9.20
  -3   7  -2  245.08   10.50
  -5  -7  -2  236.28   10.30
   5  -7   2  235.58    9.10
  -5  -7  -2  227.08   10.40
   5  -7   2  245.88   10.50
  -5  -7  -2  230.98   10.50
   5   7   2  235.48    9.20
  -5   7  -2  246.28   12.60
  -5   7  -2  247.48   11.50
   5   7   2  248.98    9.80
  -7  -7  -2  394.46   16.30
  -7  -7  -2  401.66   15.70
   7  -7   2  405.66   13.90
   7  -7   2  443.26   15.00
  -7   7  -2  427.46   16.70
  -7   7  -2  423.76   18.80
   7   7   2  412.36   13.70
   8  -8  -2    9.60    2.90
   8  -8  -2    8.20    3.00
   8   8  -2    6.80    2.40
  -8   8   2    8.20    4.00
  -8   8   2    1.40    3.70
   8   8  -2    7.80    3.50
   8   8  -2    8.60    3.00
   6  -8  -2  803.42   20.50
   6  -8  -2  826.42   20.00
   6  -8  -2  808.82   20.10
  -6   8   2  820.82   24.80
   6   8  -2  796.32   21.00
   6   8  -2  810.72   22.00
  -6   8   2  800.92   22.90
   6   8  -2  828.42   19.50
  -4  -8   2   50.09    3.60
   4  -8  -2   56.29    4.70
   4  -8  -2   57.39    4.20
   4  -8  -2   52.89    4.20
  -4   8   2   55.89    4.60
   4   8  -2   56.29    3.70
   4   8  -2   55.89    4.60
  -4   8   2   60.79    6.70
   4   8  -2   60.29    4.90
  -4   8   2   64.09    4.80
   2  -8  -2  969.30   21.40
   2  -8  -2 1000.10   21.70
  -2  -8   2  965.80   23.00
  -2  -8   2  961.70   20.40
  -2   8   2  996.00   24.10
  -2   8   2  951.20   22.10
  -2   8   2  960.00   20.60
   2   8  -2  964.20   22.20
   2   8  -2  953.30   21.20
   2   8  -2  986.20   20.50
   0  -8   2   22.60    3.40
   0  -8   2   20.50    2.70
   0  -8  -2   22.70    2.90
   0  -8  -2   24.10    3.10
   0   8  -2   25.70    2.90
   0   8  -2   20.00    2.90
   0   8   2   26.20    3.30
   0   8   2   24.40    3.10
   2  -8   2  219.78    9.60
   2  -8   2  208.78    7.60
  -2  -8  -2  188.18    7.50
  -2  -8  -2  194.08    8.20
  -2   8  -2  206.18    9.70
  -2   8  -2  192.48    7.60
   2   8   2  206.08    8.20
   2   8   2  197.38    8.00
   4  -8   2    8.60    3.40
   4  -8   2    7.60    2.10
   4  -8   2    5.00    2.70
  -4  -8  -2    8.00    2.50
  -4  -8  -2    3.70    2.40
   4   8   2    3.60    1.70
  -4   8  -2    9.60    3.60
  -4   8  -2    3.10    1.80
   4   8   2    9.00    2.40
  -6  -8  -2   26.00    4.80
   6  -8   2   31.40    4.40
   6  -8   2   35.90    5.40
  -6  -8  -2   24.20    4.70
  -6   8  -2   32.80    6.20
   6   8   2   23.40    3.90
  -6   8  -2   23.10    4.90
   6   8   2   32.00    4.20
   8  -8   2   31.40    4.40
   8  -8   2   33.40    4.70
  -8  -8  -2   34.80    5.90
   8   8   2   37.70    5.20
  -8   8  -2   38.10    7.30
   9  -9  -2    5.80    3.30
   9   9  -2    3.50    2.50
   9   9  -2    2.30    3.30
  -9   9   2    6.90    4.00
   7  -9  -2    9.00    3.10
   7  -9  -2   10.60    2.70
  -7   9   2   19.50    5.40
   7   9  -2    8.60    3.40
   7   9  -2   10.90    2.60
  -7   9   2   14.90    3.90
   7   9  -2    9.40    3.20
   5  -9  -2    7.80    2.30
   5  -9  -2    8.30    2.90
   5  -9  -2    5.50    2.20
  -5  -9   2    5.60    1.90
   5   9  -2    8.80    2.70
  -5   9   2   10.10    2.90
   5   9  -2   10.00    2.90
  -5   9   2   10.50    3.90
   3  -9  -2    3.10    2.10
  -3  -9   2    0.40    1.30
   3  -9  -2    5.30    2.10
   3  -9  -2    2.50    2.10
  -3  -9   2    3.50    2.40
  -3   9   2    4.40    2.80
   3   9  -2    2.80    2.00
  -3   9   2    5.50    2.20
   3   9  -2    4.40    1.80
  -1  -9   2  127.79    5.80
  -1  -9   2  128.29    7.50
   1  -9  -2  122.29    6.00
   1  -9  -2  125.09    6.20
   1   9  -2  113.39    5.40
   1   9  -2  107.29    6.00
  -1   9   2  126.49    6.60
  -1   9   2  116.99    5.90
  -1  -9  -2    9.70    2.20
   1  -9   2    8.90    3.10
  -1  -9  -2    3.20    1.90
   1  -9   2    8.20    2.30
  -1   9  -2    3.80    1.90
   1   9   2    4.70    1.80
  -1   9  -2    7.90    2.10
  -1   9  -2    7.90    2.60
   1   9   2    6.80    2.10
   3  -9   2  101.59    6.20
   3  -9   2  124.09    8.10
  -3  -9  -2  101.49    7.40
  -3  -9  -2  109.29    6.80
   3  -9   2  106.39    7.30
   3   9   2   94.19    6.20
   3   9   2  110.09    6.80
  -3   9  -2  119.09    8.10
  -3   9  -2  105.99    5.90
  -3   9  -2  104.39    6.30
   5  -9   2  101.69    8.10
  -5  -9  -2   99.19    6.80
  -5  -9  -2   93.39    6.80
   5  -9   2   97.59    6.70
  -5   9  -2   83.89    8.30
   5   9   2   86.79    6.10
   5   9   2   92.79    6.60
   7  -9   2    8.60    3.40
  -7  -9  -2    7.30    3.60
   7  -9   2   13.10    4.20
   7   9   2    8.10    2.80
  -7   9  -2   18.00    5.50
   8 -10  -2  172.08    9.30
   8  10  -2  142.79    9.00
  -8  10   2  156.58   11.30
   8  10  -2  143.09    9.70
  -8  10   2  138.29    8.80
   8  10  -2  148.29    7.90
   6 -10  -2   34.90    5.00
   6 -10  -2   23.20    3.40
   6 -10  -2   27.20    4.10
   6  10  -2   30.20    5.00
  -6  10   2   33.70    5.10
  -6  10   2   34.60    6.20
   6  10  -2   28.40    4.70
  -4 -10   2  366.36   11.40
  -4 -10   2  389.56   14.10
   4 -10  -2  375.76   13.50
   4 -10  -2  362.76   11.70
   4 -10  -2  375.36   12.60
  -4  10   2  382.66   13.40
   4  10  -2  379.66   13.60
   4  10  -2  352.16   12.40
  -4  10   2  369.96   15.60
   2 -10  -2   39.40    4.10
  -2 -10   2   32.90    3.60
  -2 -10   2   40.00    5.40
   2 -10  -2   39.70    4.30
   2 -10  -2   35.30    5.10
  -2  10   2   34.50    4.30
  -2  10   2   39.90    4.00
   2  10  -2   40.70    4.80
   0 -10  -2  945.11   22.50
   0 -10   2  957.60   25.00
   0 -10   2  916.51   21.40
   0 -10  -2  938.31   22.60
   0  10  -2  916.31   22.90
   0  10   2  989.20   23.80
   0  10   2  931.41   22.60
   0  10  -2  908.61   21.50
   2 -10   2   63.09    6.70
  -2 -10  -2   50.69    5.20
   2 -10   2   54.59    5.20
  -2 -10  -2   56.99    4.60
  -2  10  -2   51.69    4.70
   2  10   2   49.50    5.10
  -2  10  -2   53.69    6.20
  -2  10  -2   56.99    4.80
   2  10   2   56.09    5.50
   4 -10   2 1080.69   28.60
  -4 -10  -2 1092.19   27.20
   4 -10   2 1102.09   25.80
  -4  10  -2 1065.79   26.40
   4  10   2 1040.80   26.30
  -4  10  -2 1104.39   30.30
  -6 -10  -2   81.39    7.00
   6 -10   2   77.59    6.60
   6 -10   2   71.79    7.70
  -6  10  -2   91.59    8.90
   6  10   2   92.69    6.50
   6  10   2   76.89    6.60
   7 -11  -2  215.38   10.30
  -7  11   2  184.18   10.20
   7  11  -2  176.18   10.30
  -7  11   2  198.98   12.90
   7  11  -2  182.28   10.60
  -5 -11   2  258.47   11.70
   5 -11  -2  237.68   10.50
   5 -11  -2  237.38   11.70
   5  11  -2  248.48   11.60
  -5  11   2  232.88   12.80
   5  11  -2  228.38   10.50
  -5  11   2  249.97   11.50
   3 -11  -2  215.88    8.90
  -3 -11   2  223.38   11.30
   3 -11  -2  230.08    9.90
  -3 -11   2  212.48    8.60
   3 -11  -2  225.68   11.00
   3  11  -2  187.98    9.90
  -3  11   2  221.58   10.30
  -1 -11   2  374.76   12.00
   1 -11  -2  390.26   12.60
  -1 -11   2  404.76   15.40
   1 -11  -2  398.86   13.40
  -1  11   2  399.36   13.90
  -1  11   2  363.26   12.40
   1  11  -2  372.56   13.50
  -1 -11  -2  183.28    8.90
   1 -11   2  200.28   10.90
   1 -11   2  191.98    8.30
  -1 -11  -2  181.08    8.90
  -1  11  -2  180.28    8.40
   1  11   2  178.78    9.20
   1  11   2  191.58    9.10
  -1  11  -2  177.68    8.90
   3 -11   2  259.37   12.50
  -3 -11  -2  257.17   11.20
   3 -11   2  280.57   12.80
  -3 -11  -2  274.77   11.30
   3 -11   2  262.77   10.40
  -3  11  -2  278.27   13.00
   3  11   2  264.17   11.30
   3  11   2  265.47   11.70
  -3  11  -2  258.27   10.90
   5 -11   2  145.59    8.60
  -5 -11  -2  146.29    9.00
   5 -11   2  138.89   10.10
  -5  11  -2  135.79    8.50
  -5  11  -2  165.88   11.00
   5  11   2  141.79    8.50
   6 -12  -2  349.96   13.40
   6  12  -2  348.77   14.10
  -6  12   2  377.46   15.20
   4 -12  -2   23.70    5.00
  -4 -12   2   20.60    4.60
   4 -12  -2   18.30    4.10
   4  12  -2   17.10    3.90
  -4  12   2   18.50    4.10
  -2 -12   2  428.86   16.50
   2 -12  -2  435.26   16.70
   2 -12  -2  431.36   14.70
  -2 -12   2  407.46   13.30
   2  12  -2  393.26   14.90
  -2  12   2  436.96   15.50
   0 -12   2    1.00    2.20
   0 -12  -2    1.70    2.40
   0 -12   2    3.20    3.60
   0  12   2    3.00    2.60
   0  12  -2   -1.30    2.10
   0  12   2    1.70    2.40
   2 -12   2  193.08   11.30
   2 -12   2  153.28   10.10
  -2 -12  -2  170.08    8.80
   2 -12   2  168.48    8.70
   2  12   2  168.38    9.60
  -2  12  -2  181.48    9.10
  -4 -12  -2    5.40    2.80
   4 -12   2    4.60    4.00
   4 -12   2    1.90    2.70
  -4  12  -2    3.70    2.70
   4  12   2    0.50    1.90
  -3 -13   2   82.49    8.90
   3 -13  -2   62.29    6.30
   3 -13  -2   66.49    7.80
   3  13  -2   69.29    7.50
  -3  13   2   63.79    6.80
   1 -13  -2   66.69    7.50
  -1 -13   2   55.39    6.90
   1 -13  -2   59.79    6.20
  -1  13   2   62.29    6.70
   1  13  -2   66.59    6.80
  -1 -13  -2   31.40    4.90
   1 -13   2   37.20    5.10
  -1 -13  -2   37.60    6.50
   1 -13   2   34.40    6.40
   1  13   2   50.39    6.40
  -1  13  -2   27.10    4.50
   1  13   2   33.60    4.80
  12   0  -3    2.80    2.60
 -12   0   3    3.60    6.50
 -12   0   3    1.30    4.30
  10   0  -3   -1.60    1.60
 -10   0   3    1.80    4.70
 -10   0   3   -2.10    4.40
  10   0  -3    1.50    1.70
   8   0  -3   -0.10    0.90
  -8   0   3   -0.70    3.20
  -8   0   3    4.30    3.80
   8   0  -3    1.80    1.50
  -6   0   3    1.90    2.80
   6   0  -3    1.10    0.80
  -6   0   3    1.00    1.80
   6   0  -3    2.90    2.00
   6   0  -3    1.40    1.10
   6   0  -3   -0.30    0.90
   4   0  -3    0.50    0.70
   4   0  -3    0.00    0.40
  -4   0   3   -0.70    1.50
  -4   0   3    0.10    0.60
   4   0  -3    0.40    0.80
   4   0  -3    0.30    0.60
  -4   0   3    2.20    1.70
   2   0  -3    2.30    0.60
  -2   0   3    1.00    1.00
   2   0  -3    0.90    0.60
  -2   0   3    0.30    1.30
  -2   0   3    2.60    0.50
   2   0  -3    1.90    0.70
  -2   0   3    1.80    0.50
   0   0  -3    1.20    0.80
   0   0   3    1.80    1.00
   0   0   3    2.00    1.10
   0   0   3    1.00    0.30
   0   0   3    5.00    0.90
   0   0   3    1.40    0.50
   0   0   3    0.70    0.60
   0   0  -3    1.00    0.80
   0   0  -3    1.70    0.70
   0   0  -3    2.30    1.10
   2   0   3    1.20    0.70
  -2   0  -3    0.90    1.00
  -2   0  -3    1.40    1.60
  -2   0  -3    1.20    1.50
  -2   0  -3    0.80    1.10
   2   0   3    1.60    1.10
   2   0   3    0.20    0.80
   2   0   3    0.30    0.50
  -2   0  -3    0.40    1.20
  -4   0  -3    1.60    1.70
   4   0   3    0.70    0.90
   4   0   3    0.50    1.30
   4   0   3    0.30    0.90
  -4   0  -3    9.30    2.60
  -4   0  -3   -1.20    2.10
   4   0   3    0.70    1.30
  -4   0  -3    1.40    1.90
  -6   0  -3    5.10    3.30
  -6   0  -3    8.20    4.10
   6   0   3    0.80    1.50
  -6   0  -3   -0.60    1.80
   6   0   3    7.90    2.20
  -8   0  -3   -1.20    4.50
   8   0   3   -2.50    1.60
  -8   0  -3    1.70    3.90
  11  -1  -3    5.00    2.20
 -11  -1   3   -5.40    4.50
 -11  -1   3    1.70    5.00
 -11   1   3   10.10    4.50
  11   1  -3    7.40    2.70
 -11   1   3    1.00    4.50
 -11   1   3   -3.80    5.60
  -9  -1   3  316.77   15.70
  -9  -1   3  332.47   15.20
   9  -1  -3  364.36   11.50
  -9   1   3  318.67   15.10
   9   1  -3  327.37   11.00
  -9   1   3  342.17   16.50
   9   1  -3  314.27   11.70
  -7  -1   3  366.26   11.30
   7  -1  -3  357.86    9.70
  -7  -1   3  389.96   14.30
   7  -1  -3  367.36   10.60
  -7   1   3  361.96   14.10
  -7   1   3  382.36   14.40
  -7   1   3  364.56   10.90
   7   1  -3  395.16   10.50
   7   1  -3  368.86   11.50
   5  -1  -3  255.67   11.50
  -5  -1   3  253.07    8.60
   5  -1  -3  269.47    7.40
   5  -1  -3  265.37    6.50
  -5  -1   3  254.57    6.40
  -5  -1   3  269.67   10.00
   5  -1  -3  265.17    7.60
   5   1  -3  258.37   11.20
   5   1  -3  266.57    6.30
   5   1  -3  272.57    6.90
   5   1  -3  277.47    8.40
  -5   1   3  258.77    8.40
  -5   1   3  272.97    9.80
  -5   1   3  254.27    5.70
   3  -1  -3 3304.27   56.69
  -3  -1   3 3250.97   56.79
  -3  -1   3 3351.56   56.89
   3  -1  -3 3318.57   57.69
   3  -1  -3 3230.68   58.29
  -3  -1   3 3284.37   58.69
   3  -1  -3 3309.77   56.49
   3   1  -3 3315.67   57.29
  -3   1   3 3339.17   58.29
   3   1  -3 3339.87   78.09
   3   1  -3 3302.27   57.69
   3   1  -3 3279.77   57.39
   3   1  -3 3282.97   56.49
   3   1  -3 3220.88   57.19
  -3   1   3 3352.46   56.49
  -3   1   3 3354.86   58.99
  -1  -1   3   13.20    1.70
  -1  -1   3   11.30    1.10
   1  -1  -3   11.70    1.40
  -1  -1   3   16.70    2.00
   1  -1  -3   14.60    1.50
  -1  -1   3   13.90    1.40
   1  -1  -3   13.00    1.30
   1  -1  -3   11.70    1.20
  -1   1   3   13.50    1.90
   1   1  -3   14.50    1.30
   1   1  -3   14.10    1.40
  -1   1   3   11.20    1.60
  -1   1   3   18.00    1.50
   1   1  -3   11.20    1.50
  -1   1   3   13.30    1.10
   1  -1   3 1971.90   36.10
   1  -1   3 1953.90   35.20
   1  -1   3 1977.70   35.40
  -1  -1  -3 2017.30   35.80
   1  -1   3 2005.40   34.10
   1  -1   3 1946.01   35.90
  -1  -1  -3 2001.10   36.90
   1  -1   3 2017.10   34.90
  -1  -1  -3 1959.20   36.10
  -1  -1  -3 1986.70   36.40
   1   1   3 1990.00   36.10
  -1   1  -3 2002.80   36.90
  -1   1  -3 2062.89   39.00
   1   1   3 2012.60   34.60
   1   1   3 2028.70   35.50
  -1   1  -3 1974.20   37.00
  -1   1  -3 1956.70   35.40
   1   1   3 1966.20   34.60
   1   1   3 1971.50   35.60
   1   1   3 1954.40   35.80
  -1   1  -3 2044.00   36.50
   3  -1   3  396.56   10.70
  -3  -1  -3  394.36   15.40
  -3  -1  -3  390.06   11.70
   3  -1   3  394.26    9.30
   3  -1   3  399.26   10.30
   3  -1   3  389.26    9.90
  -3  -1  -3  401.06   11.20
  -3  -1  -3  409.56   12.20
   3  -1   3  393.96    9.90
  -3   1  -3  405.66   11.20
  -3   1  -3  379.36    9.60
  -3   1  -3  407.86   12.60
   3   1   3  384.36    9.80
   3   1   3  396.66   10.70
   3   1   3  407.66   10.40
  -3   1  -3  388.06   14.50
  -3   1  -3  407.96   12.10
   3   1   3  382.36    9.50
  -5  -1  -3   99.59    7.40
   5  -1   3  100.99    5.40
  -5  -1  -3  102.09    7.00
   5  -1   3  100.69    5.40
  -5  -1  -3  102.69    6.10
   5  -1   3  108.49    5.00
  -5   1  -3  104.29    7.70
   5   1   3  105.09    5.40
   5   1   3  103.39    5.00
  -5   1  -3  117.19    7.50
  -5   1  -3   99.09    5.90
   7  -1   3  376.56   12.10
  -7  -1  -3  379.96   16.20
  -7  -1  -3  375.96   16.20
  -7  -1  -3  370.06   13.40
   7  -1   3  374.46   12.70
   7  -1   3  380.66   12.90
   7   1   3  362.76   12.30
  -7   1  -3  348.67   12.90
   7   1   3  369.76   12.20
  -7   1  -3  370.96   15.80
  -7   1  -3  368.46   16.60
  -9  -1  -3   -1.50    2.70
  -9  -1  -3    1.70    4.70
   9  -1   3   -0.60    2.20
  -9  -1  -3   -0.10    4.70
  -9   1  -3    2.90    4.70
  -9   1  -3    2.10    4.40
  -9   1  -3    1.20    2.80
   9   1   3   -0.70    2.00
  12  -2  -3  214.58   10.60
 -12  -2   3  188.68   16.00
 -12  -2   3  188.58   15.20
 -12   2   3  217.68   16.70
 -12   2   3  196.28   13.00
  12   2  -3  194.38    9.80
 -12   2   3  150.98   12.70
  10  -2  -3  495.55   15.10
 -10  -2   3  483.35   21.30
 -10  -2   3  436.66   18.90
 -10   2   3  482.45   21.10
  10   2  -3  472.75   16.00
  10   2  -3  491.45   15.10
 -10   2   3  447.46   19.10
  -8  -2   3  579.04   19.30
  -8  -2   3  591.24   20.40
   8  -2  -3  578.44   14.50
  -8   2   3  588.04   19.60
   8   2  -3  579.74   14.80
  -8   2   3  562.54   19.80
   8   2  -3  570.04   16.50
  -6  -2   3  595.34   15.60
   6  -2  -3  606.64   13.20
  -6  -2   3  605.94   17.70
   6  -2  -3  609.74   14.20
   6  -2  -3  590.54   13.50
   6   2  -3  592.84   12.80
   6   2  -3  570.84   19.80
  -6   2   3  591.94   14.80
  -6   2   3  610.64   17.50
   6   2  -3  609.24   15.50
  -6   2   3  607.04   17.40
   6   2  -3  579.64   13.40
   4  -2  -3 1360.86   25.70
  -4  -2   3 1395.66   28.20
  -4  -2   3 1373.36   25.80
   4  -2  -3 1387.36   25.40
   4  -2  -3 1370.26   25.60
   4  -2  -3 1325.67   23.80
  -4  -2   3 1342.97   23.90
   4  -2  -3 1371.76   24.80
  -4   2   3 1365.46   24.80
   4   2  -3 1359.86   29.90
  -4   2   3 1368.06   28.60
  -4   2   3 1383.56   27.20
  -4   2   3 1340.57   27.70
   4   2  -3 1391.06   27.20
   4   2  -3 1411.26   25.10
   4   2  -3 1387.06   24.70
  -2  -2   3  739.83   14.00
   2  -2  -3  730.43   14.50
   2  -2  -3  717.33   14.40
   2  -2  -3  707.93   13.60
   2  -2  -3  718.93   13.90
  -2  -2   3  730.73   15.40
  -2   2   3  744.93   14.80
  -2   2   3  738.73   15.60
   2   2  -3  727.13   14.90
  -2   2   3  720.43   14.10
   2   2  -3  725.63   13.80
   2   2  -3  732.83   14.40
  -2   2   3  746.23   15.70
   0  -2   3 1484.95   25.70
   0  -2   3 1498.35   27.30
   0  -2   3 1500.05   26.30
   0  -2  -3 1456.95   27.30
   0  -2   3 1465.95   27.80
   0  -2  -3 1503.55   27.70
   0  -2  -3 1430.36   27.10
   0   2   3 1444.46   27.00
   0   2   3 1434.66   27.50
   0   2  -3 1522.15   35.20
   0   2  -3 1473.75   26.10
   0   2  -3 1444.76   27.70
   0   2  -3 1520.75   27.60
   0   2   3 1470.85   26.70
   0   2  -3 1453.45   28.10
   0   2   3 1458.95   25.90
   0   2   3 1457.75   26.90
   2  -2   3 1363.66   26.30
  -2  -2  -3 1311.17   26.90
  -2  -2  -3 1355.26   26.40
   2  -2   3 1337.17   24.90
   2  -2   3 1311.97   25.80
  -2  -2  -3 1374.06   26.80
   2  -2   3 1366.86   29.90
   2  -2   3 1322.57   25.20
  -2  -2  -3 1335.67   32.60
  -2  -2  -3 1314.07   25.80
  -2   2  -3 1319.87   29.20
   2   2   3 1294.27   25.60
  -2   2  -3 1282.77   24.90
   2   2   3 1322.87   24.80
  -2   2  -3 1325.87   27.80
  -2   2  -3 1319.77   26.40
  -2   2  -3 1315.87   25.50
  -2   2  -3 1289.97   27.00
   2   2   3 1318.47   25.40
   2   2   3 1343.67   25.60
   4  -2   3  597.74   20.80
   4  -2   3  602.14   14.10
  -4  -2  -3  615.04   17.40
  -4  -2  -3  627.54   16.90
   4  -2   3  640.74   15.80
   4  -2   3  660.83   15.30
   4  -2   3  637.44   14.90
   4  -2   3  626.04   14.10
  -4  -2  -3  625.54   16.20
   4   2   3  643.44   15.20
  -4   2  -3  644.44   17.50
  -4   2  -3  657.23   18.70
   4   2   3  636.14   14.70
  -4   2  -3  619.64   16.00
  -4   2  -3  620.44   15.20
  -6  -2  -3  711.83   19.30
   6  -2   3  700.33   17.30
   6  -2   3  705.63   18.60
   6  -2   3  709.73   18.20
  -6  -2  -3  742.43   22.10
  -6  -2  -3  743.63   21.60
   6   2   3  717.33   17.90
  -6   2  -3  734.63   23.00
  -6   2  -3  723.43   21.50
  -6   2  -3  698.03   19.20
   6   2   3  729.33   18.30
  -8  -2  -3  342.87   16.00
   8  -2   3  320.47   11.90
  -8  -2  -3  343.67   16.70
  -8   2  -3  352.66   16.50
  -8   2  -3  361.46   17.60
   8   2   3  340.37   12.40
   8   2   3  337.77   12.50
  11  -3  -3  282.47   11.60
 -11  -3   3  291.17   17.90
 -11   3   3  262.27   16.50
  11   3  -3  262.17   12.30
  11   3  -3  250.07   11.00
 -11   3   3  260.37   13.90
   9  -3  -3   88.59    5.40
  -9  -3   3   87.09    9.50
  -9  -3   3   79.89    9.60
  -9   3   3   86.39    9.60
   9   3  -3   82.49    6.10
   9   3  -3   87.29    5.60
  -9   3   3   84.99    9.10
  -7  -3   3 1293.97   31.00
  -7  -3   3 1216.48   27.50
   7  -3  -3 1192.38   25.70
   7  -3  -3 1239.68   25.00
   7   3  -3 1206.78   24.50
  -7   3   3 1258.47   30.70
  -7   3   3 1219.48   30.40
   7   3  -3 1239.18   25.30
  -7   3   3 1201.48   26.10
   7   3  -3 1245.78   27.90
  -5  -3   3  196.18    6.40
   5  -3  -3  187.88    5.50
  -5  -3   3  200.48    5.40
   5  -3  -3  201.18    5.90
   5  -3  -3  197.68    5.20
  -5  -3   3  196.58    8.10
   5  -3  -3  194.38    6.50
  -5   3   3  204.48    9.20
  -5   3   3  195.18    8.30
   5   3  -3  198.68    9.70
  -5   3   3  193.08    7.30
   5   3  -3  197.68    5.90
   5   3  -3  197.08    7.60
   5   3  -3  199.18    6.10
   3  -3  -3 5041.00   91.89
   3  -3  -3 5071.29   93.29
  -3  -3   3 5141.59   88.69
   3  -3  -3 5000.60   86.79
  -3  -3   3 5115.39   86.89
  -3   3   3 5203.78   90.09
   3   3  -3 5151.48   88.89
   3   3  -3 5278.87   91.19
  -3   3   3 5360.16   89.49
   3   3  -3 5085.19   88.89
  -3   3   3 5156.88   87.49
  -3   3   3 5184.68   88.29
   3   3  -3 5177.88  107.19
   1  -3  -3   17.40    1.80
   1  -3  -3   16.50    1.30
  -1  -3   3   17.80    1.00
  -1  -3   3   14.30    2.10
   1  -3  -3   12.60    1.70
  -1  -3   3   13.80    1.70
  -1  -3   3   17.20    1.10
  -1   3   3   15.20    2.00
   1   3  -3   25.60    2.00
  -1   3   3   15.50    1.70
  -1   3   3   17.20    2.00
   1   3  -3   13.30    1.00
  -1   3   3   16.30    1.90
   1   3  -3   16.40    2.10
  -1  -3  -3 5027.50   85.99
  -1  -3  -3 5020.00   86.09
   1  -3   3 5071.19   86.19
   1  -3   3 4980.80   86.39
  -1  -3  -3 4838.12   83.49
   1  -3   3 5009.20   84.49
   1  -3   3 5067.09  102.79
  -1  -3  -3 5191.88   86.89
   1  -3   3 4886.01   86.79
   1   3   3 5036.20   84.59
  -1   3  -3 5012.40   87.69
  -1   3  -3 4931.91   85.69
  -1   3  -3 4964.60   90.99
   1   3   3 5062.29   85.69
   1   3   3 4971.90   85.09
   1   3   3 4963.60   85.99
  -1   3  -3 4974.70   86.39
   1   3   3 4824.02   84.69
  -3  -3  -3    5.30    1.90
   3  -3   3    2.30    1.40
   3  -3   3    5.10    1.40
   3  -3   3    4.10    2.00
  -3  -3  -3    5.30    1.80
   3  -3   3    7.50    1.60
  -3  -3  -3    5.50    1.90
  -3  -3  -3    2.20    2.10
  -3  -3  -3    6.80    2.30
   3  -3   3    4.80    2.00
   3   3   3    5.50    1.70
  -3   3  -3    1.00    2.20
   3   3   3    4.20    1.20
   3   3   3    6.70    1.60
  -3   3  -3   12.10    2.70
  -3   3  -3    4.60    1.60
  -3   3  -3    6.80    1.50
  -3   3  -3    4.90    1.50
   5  -3   3 1069.79   24.00
  -5  -3  -3 1034.20   26.20
  -5  -3  -3 1038.50   25.20
   5  -3   3 1059.89   23.10
   5  -3   3 1014.40   22.70
   5  -3   3 1022.30   21.70
  -5  -3  -3 1015.70   24.40
   5   3   3 1058.19   22.90
   5   3   3 1031.60   22.70
  -5   3  -3 1001.50   24.10
  -5   3  -3 1053.09   27.80
  -5   3  -3 1010.90   23.60
  -5   3  -3 1032.50   26.00
   7  -3   3   21.80    3.30
   7  -3   3   20.20    3.40
  -7  -3  -3   23.10    5.50
  -7  -3  -3   16.60    3.60
  -7  -3  -3    5.40    4.10
   7   3   3   21.50    3.40
  -7   3  -3   14.00    3.20
  -7   3  -3   14.60    4.60
   7   3   3   13.60    3.10
  -7   3  -3   26.00    5.50
   9  -3   3  115.59    7.40
  -9  -3  -3  124.99    9.30
  -9  -3  -3  103.09   10.80
   9   3   3  116.49    7.60
  -9   3  -3  119.49   11.50
  -9   3  -3  125.09    9.90
  10  -4  -3  272.07   10.80
 -10  -4   3  280.37   16.20
  10  -4  -3  264.47   10.30
 -10   4   3  271.47   15.60
 -10   4   3  193.48   12.30
  10   4  -3  262.17   10.60
 -10   4   3  244.38   14.00
  10   4  -3  261.27   11.90
   8  -4  -3  386.46   11.60
  -8  -4   3  411.66   16.40
   8  -4  -3  401.96   12.50
   8   4  -3  391.16   11.80
  -8   4   3  394.76   16.40
   8   4  -3  385.56   13.80
  -8   4   3  426.36   16.60
  -6  -4   3  651.63   18.00
   6  -4  -3  672.13   15.90
  -6  -4   3  655.03   15.40
   6  -4  -3  646.34   14.90
   6   4  -3  665.23   15.30
  -6   4   3  654.03   19.30
  -6   4   3  646.64   18.70
  -6   4   3  655.43   16.50
   6   4  -3  641.64   17.30
   6   4  -3  657.23   14.90
   4  -4  -3 2661.83   46.90
   4  -4  -3 2509.25   45.20
   4  -4  -3 2622.44   46.60
  -4  -4   3 2631.84   51.19
   4  -4  -3 2696.23   47.70
   4  -4  -3 2603.34   46.70
   4   4  -3 2665.33   47.50
  -4   4   3 2640.84   50.69
  -4   4   3 2625.74   49.10
   4   4  -3 2685.43   46.20
  -4   4   3 2644.04   49.10
   4   4  -3 2715.73   49.40
   2  -4  -3 1767.22   32.80
  -2  -4   3 1742.53   32.70
   2  -4  -3 1773.12   32.10
  -2  -4   3 1738.13   30.60
   2  -4  -3 1752.22   32.10
  -2   4   3 1791.32   33.90
  -2   4   3 1791.62   31.10
   2   4  -3 1780.02   30.50
  -2   4   3 1777.82   32.60
   2   4  -3 1737.33   33.30
   2   4  -3 1772.12   32.50
  -2   4   3 1768.02   33.90
  -2   4   3 1783.12   31.20
   0  -4  -3 2821.62   50.49
   0  -4  -3 2791.62   49.60
   0  -4  -3 2788.42   49.40
   0  -4  -3 2729.63   48.10
   0  -4   3 2758.22   50.59
   0  -4   3 2780.62   49.90
   0  -4   3 2724.93   47.70
   0  -4   3 2779.72   47.30
   0  -4   3 2812.52   51.69
   0   4   3 2735.33   47.90
   0   4  -3 2800.22   49.40
   0   4   3 2791.82   48.30
   0   4   3 2825.22   49.50
   0   4   3 2782.72   48.60
   0   4   3 2713.13   49.60
   0   4  -3 2813.22   51.19
   0   4  -3 2631.44   46.60
  -2  -4  -3 1539.75   31.00
  -2  -4  -3 1678.63   32.50
   2  -4   3 1687.33   34.90
   2  -4   3 1637.34   30.70
   2  -4   3 1595.44   32.30
   2  -4   3 1627.34   32.50
   2  -4   3 1627.44   30.50
  -2  -4  -3 1703.13   33.40
  -2  -4  -3 1668.53   32.50
   2   4   3 1679.33   32.10
  -2   4  -3 1629.24   32.60
  -2   4  -3 1662.73   32.90
   2   4   3 1658.63   31.00
  -2   4  -3 1656.83   32.90
  -2   4  -3 1617.04   29.50
  -2   4  -3 1715.13   34.80
   2   4   3 1677.43   31.20
   4  -4   3  308.57   13.80
  -4  -4  -3  328.37   11.10
   4  -4   3  306.67    9.50
   4  -4   3  318.47    9.60
  -4  -4  -3  328.97   11.30
   4  -4   3  323.07   10.80
  -4  -4  -3  327.17   11.80
   4  -4   3  321.57    9.60
  -4   4  -3  319.77   10.90
   4   4   3  330.57    9.80
  -4   4  -3  302.17   10.60
  -4   4  -3  324.37   11.50
   4   4   3  330.37    9.70
  -4   4  -3  309.37    8.90
   4   4   3  329.17   10.30
  -4   4  -3  324.47   13.00
   6  -4   3  363.46   11.20
   6  -4   3  385.26   13.00
  -6  -4  -3  371.26   13.30
   6  -4   3  366.56   11.90
  -6  -4  -3  378.96   15.30
  -6   4  -3  363.76   13.20
   6   4   3  366.66   11.80
   6   4   3  369.96   11.70
  -6   4  -3  361.06   12.80
  -6   4  -3  377.26   14.50
  -6   4  -3  406.36   16.90
  -8  -4  -3   60.59    7.30
   8  -4   3   60.89    5.30
  -8  -4  -3   57.79    8.10
  -8   4  -3   66.39    9.60
   8   4   3   64.89    5.60
   8   4   3   64.49    5.90
  -8   4  -3   60.79    7.50
  11  -5  -3   17.20    3.60
 -11  -5   3   12.50    6.60
  11  -5  -3   16.00    3.50
  11   5  -3   13.60    4.30
 -11   5   3   24.70    7.10
 -11   5   3   23.50    6.10
  11   5  -3    9.30    3.10
   9  -5  -3  398.66   12.60
  -9  -5   3  372.36   17.80
  -9  -5   3  396.16   17.10
  -9   5   3  388.26   16.90
   9   5  -3  378.56   12.50
  -9   5   3  367.96   17.30
   9   5  -3  390.56   14.90
   7  -5  -3  212.08    8.30
  -7  -5   3  203.48   10.00
   7  -5  -3  213.78    7.80
   7   5  -3  208.58    7.60
  -7   5   3  201.78    8.40
  -7   5   3  217.88   11.30
   7   5  -3  211.78    7.90
   7   5  -3  206.78    9.50
  -7   5   3  199.18   10.80
   5  -5  -3  950.40   19.90
   5  -5  -3  920.81   19.50
   5  -5  -3  950.70   20.50
  -5   5   3  950.80   24.10
   5   5  -3  960.00   22.20
  -5   5   3  938.71   21.80
   5   5  -3  943.71   19.40
  -5   5   3  925.21   22.40
   5   5  -3  956.50   20.60
   3  -5  -3  138.69    5.60
   3  -5  -3  133.09    4.60
   3  -5  -3  145.99    5.20
  -3  -5   3  132.89    5.90
  -3  -5   3  130.29    4.10
  -3  -5   3  125.09    5.20
   3   5  -3  134.39    5.80
  -3   5   3  140.29    5.40
  -3   5   3  136.19    4.00
  -3   5   3  134.19    6.70
   3   5  -3  133.79    3.80
   3   5  -3  131.79    4.20
  -3   5   3  137.99    5.40
   3   5  -3  133.89    5.30
  -3   5   3  145.49    6.40
  -1  -5   3  501.75   10.80
   1  -5  -3  518.45   12.50
  -1  -5   3  517.65   12.90
  -1  -5   3  513.15    9.30
   1  -5  -3  527.05   11.90
  -1   5   3  530.05   11.60
   1   5  -3  516.35   12.20
  -1   5   3  520.65   12.50
   1   5  -3  527.55   12.20
   1   5  -3  497.95   11.80
   1   5  -3  514.25   10.60
  -1   5   3  536.45   12.50
  -1   5   3  531.95   13.30
  -1  -5  -3    9.70    1.70
   1  -5   3   14.20    1.60
  -1  -5  -3   14.80    2.40
   1  -5   3   17.00    2.10
   1  -5   3   17.80    2.90
   1  -5   3   15.00    2.60
  -1  -5  -3    9.30    2.10
  -1  -5  -3   11.00    2.30
   1  -5   3   15.80    2.00
   1   5   3   14.10    1.90
   1   5   3   15.10    2.40
  -1   5  -3   14.60    3.00
   1   5   3   17.00    2.00
   1   5   3   14.40    2.20
  -1   5  -3   13.90    2.30
   3  -5   3  337.97   10.80
  -3  -5  -3  364.06   11.50
   3  -5   3  371.16   10.20
  -3  -5  -3  366.76   12.00
  -3  -5  -3  368.46   11.70
   3  -5   3  364.86   11.60
  -3   5  -3  367.96   13.40
  -3   5  -3  366.56   11.50
   3   5   3  373.96   10.10
  -3   5  -3  352.76   11.80
   3   5   3  372.16   11.10
   3   5   3  381.46   10.40
   5  -5   3   39.90    4.80
  -5  -5  -3   33.70    4.60
  -5  -5  -3   36.90    5.30
   5  -5   3   39.40    4.20
  -5  -5  -3   30.70    4.50
   5   5   3   38.10    3.80
  -5   5  -3   44.70    6.50
   5   5   3   35.20    4.00
  -5   5  -3   32.10    4.40
  -5   5  -3   36.30    5.00
   5   5   3   38.90    4.10
   7  -5   3  329.27   11.40
  -7  -5  -3  295.67   12.90
  -7  -5  -3  341.87   15.60
   7  -5   3  330.37   12.30
  -7  -5  -3  330.57   14.00
  -7   5  -3  320.17   14.00
  -7   5  -3  334.57   16.70
   7   5   3  310.37   11.10
   7   5   3  333.97   12.20
 -10  -6   3   37.70    7.90
  10  -6  -3   38.80    4.90
 -10   6   3   34.50    7.40
 -10   6   3   47.70    7.70
  10   6  -3   42.70    4.90
  10   6  -3   41.60    6.00
   8  -6  -3  273.27   10.40
   8  -6  -3  275.07    9.90
  -8  -6   3  274.77   13.90
   8   6  -3  287.87   10.00
   8   6  -3  270.47   10.20
  -8   6   3  282.77   14.10
   8   6  -3  272.07   12.10
  -8   6   3  281.27   13.90
   6  -6  -3  930.81   21.10
   6  -6  -3  915.21   20.50
   6   6  -3  934.21   23.30
  -6   6   3  909.51   25.10
   6   6  -3  925.91   20.00
  -6   6   3  914.41   22.20
   6   6  -3  926.51   21.30
  -6   6   3  894.61   23.70
   4  -6  -3  539.15   13.30
   4  -6  -3  504.45   13.10
   4  -6  -3  515.05   11.60
  -4  -6   3  511.25   11.50
  -4  -6   3  515.65   13.20
   4  -6  -3  516.55   12.70
   4   6  -3  523.75   13.50
  -4   6   3  516.65   14.50
  -4   6   3  502.05   13.70
  -4   6   3  499.65   15.50
  -4   6   3  515.95   13.50
   4   6  -3  504.85   11.70
   4   6  -3  506.85   14.30
  -2  -6   3 2262.67   40.20
  -2  -6   3 2254.17   41.40
   2  -6  -3 2197.18   40.50
  -2  -6   3 2227.58   42.70
   2  -6  -3 2299.87   41.80
   2  -6  -3 2304.47   42.30
  -2   6   3 2229.08   40.50
   2   6  -3 2234.98   42.30
  -2   6   3 2324.47   42.60
  -2   6   3 2277.17   43.70
   2   6  -3 2216.48   39.70
  -2   6   3 2308.17   43.70
   2   6  -3 2288.67   42.40
   0  -6  -3 1016.90   21.10
   0  -6   3 1005.70   20.10
   0  -6   3 1011.90   22.50
   0  -6  -3 1037.90   22.00
   0   6  -3 1006.40   20.70
   0   6   3 1049.49   22.20
   0   6   3 1044.80   21.30
   0   6  -3  977.10   20.30
   0   6  -3 1023.50   21.40
   0   6  -3 1025.50   23.50
   2  -6   3  498.65   14.20
  -2  -6  -3  493.05   14.70
   2  -6   3  475.25   12.10
  -2  -6  -3  497.45   13.40
  -2  -6  -3  460.15   12.40
   2  -6   3  512.85   14.40
  -2   6  -3  507.35   15.80
   2   6   3  486.45   12.40
   2   6   3  485.25   11.90
   2   6   3  494.55   13.40
  -2   6  -3  490.75   13.00
  -4  -6  -3  663.83   19.10
   4  -6   3  685.13   18.60
  -4  -6  -3  711.23   18.80
  -4  -6  -3  675.73   18.70
   4  -6   3  675.63   16.80
  -4   6  -3  676.43   20.90
  -4   6  -3  675.23   18.10
   4   6   3  696.03   17.10
   4   6   3  711.63   18.10
  -4   6  -3  662.83   19.20
  -6  -6  -3   36.60    5.60
   6  -6   3   31.10    4.30
  -6  -6  -3   49.40    6.10
   6  -6   3   42.40    5.40
  -6  -6  -3   34.90    5.10
  -6   6  -3   55.69    8.10
  -6   6  -3   27.10    4.50
  -6   6  -3   36.00    5.30
   6   6   3   38.00    4.50
  -8  -6  -3   69.79    7.90
   8  -6   3   72.39    6.40
   8  -6   3   53.59    5.30
  -8  -6  -3   70.79    7.70
   8   6   3   70.89    6.00
  -8   6  -3   88.59   10.60
  -9  -7   3  161.98   12.10
   9  -7  -3  162.38    8.70
   9  -7  -3  152.48    8.10
  -9   7   3  159.28   11.70
   9   7  -3  154.78    7.80
  -9   7   3  164.48   11.60
   9   7  -3  144.89    9.70
   7  -7  -3  108.49    6.10
   7  -7  -3  113.59    6.10
  -7   7   3  116.69    9.30
   7   7  -3  110.59    5.70
   7   7  -3  119.69    6.70
  -7   7   3  111.59    8.20
   7   7  -3  115.09    7.40
   5  -7  -3  744.83   18.10
   5  -7  -3  771.72   18.20
   5  -7  -3  734.53   18.10
   5   7  -3  757.42   18.80
  -5   7   3  742.73   19.50
   5   7  -3  755.92   17.00
  -5   7   3  748.53   18.90
   5   7  -3  787.12   20.10
  -5   7   3  762.22   21.80
  -3  -7   3    1.60    1.00
  -3  -7   3    0.80    1.60
   3  -7  -3    0.30    1.60
   3  -7  -3    3.00    1.60
  -3   7   3   -0.80    1.30
   3   7  -3    1.70    1.40
   3   7  -3   -0.80    1.20
  -3   7   3    2.90    2.10
  -3   7   3    0.50    0.80
  -1  -7   3 2317.37   42.10
   1  -7  -3 2269.77   42.30
  -1  -7   3 2396.86   45.40
   1  -7  -3 2357.06   43.70
   1  -7  -3 2348.57   44.20
   1   7  -3 2367.46   44.20
  -1   7   3 2322.87   42.90
  -1   7   3 2340.37   44.40
   1   7  -3 2286.77   43.00
  -1   7   3 2288.27   44.50
  -1  -7  -3   52.99    4.30
   1  -7   3   51.09    3.30
  -1  -7  -3   52.79    3.90
   1  -7   3   50.99    4.70
   1  -7   3   50.39    4.80
  -1   7  -3   53.39    3.80
   1   7   3   47.20    3.00
  -1   7  -3   46.60    3.20
   1   7   3   45.80    3.80
  -1   7  -3   49.60    5.20
   1   7   3   54.89    4.30
  -3  -7  -3 1301.97   28.60
   3  -7   3 1299.77   27.10
   3  -7   3 1289.27   29.30
  -3  -7  -3 1286.27   30.40
   3  -7   3 1290.87   29.70
  -3   7  -3 1291.47   32.00
   3   7   3 1364.56   29.10
   3   7   3 1276.47   26.10
   3   7   3 1286.37   27.30
   5  -7   3    0.50    3.10
  -5  -7  -3    4.60    2.60
   5  -7   3    7.40    2.20
  -5  -7  -3    7.90    3.20
   5   7   3    3.90    1.70
   5   7   3    7.10    2.60
  -5   7  -3    3.60    3.30
   7  -7   3  135.49    8.20
  -7  -7  -3  142.59    9.60
   7   7   3  135.39    7.50
  -7   7  -3  128.29   10.90
  10  -8  -3   84.29    6.80
  10   8  -3   79.19    8.20
  10   8  -3   72.99    5.80
 -10   8   3   90.29   12.00
   8  -8  -3  279.07   10.90
   8  -8  -3  254.87   10.50
  -8   8   3  251.77   13.90
  -8   8   3  248.18   12.90
   8   8  -3  270.27   12.50
   8   8  -3  258.17    9.80
   8   8  -3  261.37   11.00
   6  -8  -3  475.45   13.90
   6  -8  -3  451.45   13.70
   6   8  -3  472.85   12.90
  -6   8   3  479.55   15.00
   6   8  -3  451.95   14.40
   6   8  -3  468.15   15.70
  -6   8   3  496.75   18.00
   4  -8  -3   58.09    4.60
   4  -8  -3   56.99    4.40
  -4  -8   3   49.80    3.30
   4  -8  -3   56.69    4.50
  -4  -8   3   49.20    4.50
   4   8  -3   53.39    4.60
  -4   8   3   54.39    4.60
  -4   8   3   61.49    6.60
   4   8  -3   61.09    4.70
   2  -8  -3  680.83   16.70
  -2  -8   3  735.43   18.60
  -2  -8   3  673.53   15.30
   2  -8  -3  705.63   17.30
   2   8  -3  680.63   17.40
   2   8  -3  680.33   16.70
  -2   8   3  676.93   15.70
  -2   8   3  682.23   17.50
  -2   8   3  677.53   18.50
   0  -8  -3  256.37    9.00
   0  -8  -3  243.38    9.00
   0  -8   3  228.28    9.60
   0  -8   3  238.78    7.80
   0  -8  -3  222.08    7.60
   0   8   3  246.98    7.50
   0   8   3  242.38    9.20
   0   8  -3  235.88    7.60
   0   8   3  237.98    8.40
   0   8  -3  243.78    8.80
   2  -8   3  213.68    9.60
  -2  -8  -3  211.28   10.00
   2  -8   3  214.28    9.80
   2  -8   3  210.38    7.70
  -2  -8  -3  220.68    8.70
  -2  -8  -3  219.28    9.20
   2   8   3  224.08    9.00
   2   8   3  225.08    8.90
  -2   8  -3  225.48   10.70
  -2   8  -3  214.98    8.40
  -4  -8  -3  659.13   20.30
  -4  -8  -3  644.14   18.70
   4  -8   3  683.53   20.00
   4  -8   3  680.63   17.70
   4   8   3  695.23   19.00
  -4   8  -3  634.64   16.90
  -4   8  -3  681.63   22.30
   4   8   3  669.23   17.60
   6  -8   3  131.79    7.40
  -6  -8  -3  129.09    8.90
   6  -8   3  123.09    8.60
   6   8   3  128.49    7.50
  -6   8  -3  145.69   10.90
   6   8   3  126.99    7.80
   9  -9  -3    5.10    3.00
   9  -9  -3    4.10    2.40
   9   9  -3    3.50    2.20
  -9   9   3    8.00    3.80
   9   9  -3    7.80    3.30
  -9   9   3   11.50    4.10
   7  -9  -3  683.53   18.90
   7  -9  -3  686.53   18.80
   7   9  -3  696.43   21.10
  -7   9   3  678.93   23.60
   7   9  -3  697.33   17.70
  -7   9   3  671.53   20.00
   7   9  -3  658.33   19.60
   5  -9  -3   36.10    4.20
   5  -9  -3   27.50    4.10
   5  -9  -3   28.60    3.70
  -5  -9   3   34.20    4.40
  -5   9   3   37.80    5.90
  -5   9   3   23.90    3.90
   5   9  -3   32.00    4.40
   5   9  -3   30.80    4.20
  -3  -9   3  416.26   13.90
   3  -9  -3  412.96   12.50
   3  -9  -3  388.66   12.10
  -3  -9   3  382.26   10.80
   3   9  -3  397.26   13.10
  -3   9   3  402.76   13.20
  -3   9   3  412.36   14.80
   3   9  -3  386.76   12.30
   1  -9  -3   25.00    3.30
  -1  -9   3   25.30    3.90
   1  -9  -3   24.20    3.60
  -1  -9   3   25.10    3.00
  -1   9   3   25.00    3.40
   1   9  -3   21.70    3.10
  -1   9   3   25.20    3.10
  -1  -9  -3  172.78    8.00
   1  -9   3  171.58    8.80
   1  -9   3  160.18    7.00
  -1  -9  -3  163.08    8.20
   1  -9   3  165.08    9.30
   1   9   3  166.38    7.80
  -1   9  -3  167.98    7.80
  -1   9  -3  185.18    9.50
  -1   9  -3  176.88    7.20
   1   9   3  176.58    8.20
  -3  -9  -3   42.30    5.60
   3  -9   3   49.00    6.10
  -3  -9  -3   40.80    4.90
  -3  -9  -3   46.10    5.10
   3  -9   3   41.50    5.40
   3  -9   3   46.50    4.50
  -3   9  -3   48.70    6.50
   3   9   3   52.29    5.50
  -3   9  -3   44.40    4.60
   5  -9   3  390.46   13.20
  -5  -9  -3  351.96   14.00
  -5  -9  -3  368.76   14.20
   5  -9   3  351.16   14.20
   5   9   3  349.77   12.50
  -5   9  -3  349.67   16.30
   5   9   3  356.16   13.20
  -7  -9  -3   -0.80    3.10
  -7   9  -3    4.40    4.20
   8 -10  -3    7.10    2.70
   8 -10  -3    3.80    2.30
  -8  10   3   13.30    4.70
   8  10  -3    8.60    3.80
   8  10  -3    4.40    2.40
  -8  10   3    4.60    3.40
   6 -10  -3   82.79    6.00
   6 -10  -3   88.99    5.90
   6  10  -3   91.69    7.10
  -6  10   3   88.79    9.20
   6  10  -3   88.59    7.00
  -6  10   3   78.99    7.00
  -4 -10   3   14.80    3.30
   4 -10  -3   15.90    3.10
   4 -10  -3   31.30    4.00
   4 -10  -3   20.80    4.00
   4  10  -3   13.10    3.30
   4  10  -3   13.00    3.20
  -4  10   3   19.60    4.40
  -4  10   3   23.50    4.20
  -2 -10   3  156.68    6.80
   2 -10  -3  180.08    8.40
  -2 -10   3  179.78    9.50
   2 -10  -3  182.38    8.20
   2  10  -3  175.08    8.70
  -2  10   3  153.38    8.00
   0 -10   3    3.60    3.00
   0 -10  -3    1.70    2.10
   0 -10  -3    2.60    2.40
   0 -10   3    2.60    2.00
   0  10   3    6.70    2.30
   0  10  -3    4.20    2.20
   0  10   3    3.00    2.20
  -2 -10  -3    3.00    2.60
   2 -10   3    0.00    2.30
   2 -10   3    1.70    2.00
  -2 -10  -3    0.30    2.40
   2 -10   3    0.40    1.60
  -2 -10  -3    1.20    2.00
   2  10   3    1.60    2.10
  -2  10  -3    2.20    1.90
  -2  10  -3    0.00    1.80
  -2  10  -3    1.10    2.40
   2  10   3    1.90    2.10
   4 -10   3   78.79    8.10
  -4 -10  -3   92.89    7.40
   4 -10   3   80.99    6.30
   4  10   3   74.69    6.60
  -4  10  -3   80.09    6.30
  -4  10  -3   88.69    8.30
  -6 -10  -3   33.40    5.40
   6 -10   3   29.80    4.90
   6 -10   3   41.70    6.30
  -6  10  -3   36.00    6.60
   6  10   3   35.50    5.10
   7 -11  -3   16.90    3.40
   7 -11  -3   12.20    3.90
  -7  11   3   29.20    5.50
  -7  11   3   26.70    5.90
   7  11  -3   21.10    4.40
   7  11  -3   13.10    4.10
   5 -11  -3  114.99    8.10
   5 -11  -3  122.59    7.40
  -5 -11   3  110.69    7.90
   5 -11  -3  108.79    6.80
  -5  11   3  136.39   10.20
   5  11  -3  117.69    8.20
  -5  11   3  123.59    8.30
   3 -11  -3    7.10    3.10
   3 -11  -3    4.10    2.40
   3 -11  -3    5.00    3.20
  -3 -11   3    7.00    3.30
  -3  11   3    2.40    2.40
   3  11  -3    2.20    2.40
  -1 -11   3  642.34   20.10
  -1 -11   3  602.94   16.20
   1 -11  -3  631.44   17.80
   1 -11  -3  632.74   18.00
  -1  11   3  622.14   17.10
   1  11  -3  602.74   18.50
  -1  11   3  598.94   18.60
  -1 -11  -3  105.09    7.10
   1 -11   3  113.69    9.10
  -1 -11  -3   94.19    6.90
   1 -11   3  107.49    6.40
   1 -11   3  115.09    9.00
   1  11   3   86.99    6.70
   1  11   3  106.09    7.40
  -1  11  -3  102.29    7.00
   3 -11   3  304.07   11.50
  -3 -11  -3  293.47   12.70
  -3 -11  -3  317.47   12.60
   3 -11   3  317.57   14.00
   3 -11   3  290.07   13.90
  -3  11  -3  335.27   15.10
  -3  11  -3  244.68   11.00
   3  11   3  305.87   12.80
   5 -11   3   15.50    5.20
  -5 -11  -3   16.00    4.20
   5 -11   3   20.10    4.00
  -5  11  -3   31.10    6.20
  -5  11  -3   16.80    3.80
   5  11   3   15.90    4.00
   6 -12  -3   31.60    5.10
  -6 -12   3   36.70    5.60
   6  12  -3   31.20    5.30
  -6  12   3   34.40    5.20
  -4 -12   3  347.77   14.60
   4 -12  -3  338.27   14.00
   4 -12  -3  353.26   13.20
  -4  12   3  322.87   13.70
   4  12  -3  336.47   14.00
   2 -12  -3   17.80    3.40
   2 -12  -3   16.70    3.40
   2 -12  -3   23.60    4.90
  -2 -12   3   17.90    4.30
   2  12  -3   18.90    4.20
  -2  12   3   18.80    4.10
   0 -12  -3  170.68    9.10
   0 -12   3  187.48   11.50
   0 -12  -3  185.28    9.50
   0 -12   3  198.68   11.80
   0  12  -3  166.68    9.10
   0  12   3  163.68    8.80
   0  12   3  181.18    9.80
  -2 -12  -3  169.08    9.20
  -2 -12  -3  168.28    9.30
   2 -12   3  169.18   11.40
   2 -12   3  177.38   11.40
   2 -12   3  169.58    8.30
  -2  12  -3  157.78    8.90
   2  12   3  156.48    9.00
   3 -13  -3  141.19    9.00
   3 -13  -3  156.38   10.20
  -3 -13   3  146.19   10.30
  -3  13   3  144.49    9.50
   3  13  -3  157.48    9.90
   1 -13  -3  376.96   15.70
   1 -13  -3  340.17   13.50
  -1 -13   3  323.37   15.50
  -1 -13   3  367.46   17.10
   1  13  -3  339.97   14.00
  -1  13   3  326.37   14.00
   1 -13   3  258.37   14.00
  -1 -13  -3  258.97   11.90
   1 -13   3  284.27   14.90
   1  13   3  255.57   12.20
  12   0  -4 1395.56   33.00
 -12   0   4 1368.96   42.20
 -10   0   4  121.99   11.50
  10   0  -4  117.39    6.70
  10   0  -4  102.39    6.60
 -10   0   4  124.79   11.40
  -8   0   4 3460.85   69.09
   8   0  -4 3422.56   63.79
  -8   0   4 3331.77   69.29
   8   0  -4 3479.95   62.09
   6   0  -4  355.56    8.90
   6   0  -4  338.37    7.90
  -6   0   4  360.46   11.50
   6   0  -4  360.26    9.40
  -6   0   4  351.96   13.00
   6   0  -4  345.07   14.60
   6   0  -4  353.26   10.50
  -4   0   4 2134.89   41.60
   4   0  -4 2141.69   37.80
  -4   0   4 2185.58   41.00
   4   0  -4 2131.89   36.30
   4   0  -4 2145.39   36.00
   4   0  -4 2113.09   39.40
   4   0  -4 2130.09   38.50
  -4   0   4 2126.19   38.40
   2   0  -4 1395.96   24.60
   2   0  -4 1342.87   25.60
  -2   0   4 1355.86   23.70
  -2   0   4 1366.96   24.30
  -2   0   4 1355.06   26.90
   2   0  -4 1366.36   25.30
  -2   0   4 1362.16   26.00
   2   0  -4 1322.57   24.20
   0   0   4  826.32   14.90
   0   0  -4  829.92   17.30
   0   0  -4  823.22   17.00
   0   0   4  845.22   16.10
   0   0   4  825.42   17.70
   0   0   4  813.42   17.00
   0   0   4  831.42   16.90
   0   0  -4  815.02   17.80
   0   0   4  829.52   16.60
   0   0  -4  870.01   17.30
  -2   0  -4   17.00    2.40
  -2   0  -4    9.20    2.30
   2   0   4   11.60    2.20
  -2   0  -4   15.30    2.30
   2   0   4    6.90    1.60
  -2   0  -4    7.50    2.40
   2   0   4   12.40    1.50
   2   0   4   13.50    2.20
  -2   0  -4    7.80    2.50
   4   0   4 1816.22   35.70
   4   0   4 1796.62   36.20
   4   0   4 1783.22   34.10
  -4   0  -4 1810.62   36.40
  -4   0  -4 1804.32   38.90
  -4   0  -4 1822.32   37.30
  -4   0  -4 1772.02   38.30
   4   0   4 1755.62   34.40
  -6   0  -4   19.80    3.90
   6   0   4   22.70    3.50
   6   0   4   17.80    2.70
  -6   0  -4   20.20    5.20
  -6   0  -4   25.70    4.20
   6   0   4   18.60    3.50
  -6   0  -4   31.00    5.60
  -8   0  -4  872.11   28.20
   8   0   4  848.32   22.20
  -8   0  -4  864.51   24.70
  -8   0  -4  813.32   27.30
 -11  -1   4  107.29   12.80
 -11  -1   4  110.59   11.90
  11  -1  -4  112.39    7.30
  11   1  -4  129.89    7.40
 -11   1   4  129.69   12.20
  11   1  -4  111.09    7.50
 -11   1   4   97.89   11.40
  -9  -1   4   70.79    8.80
  -9  -1   4   75.19    9.00
   9  -1  -4   65.79    4.80
   9  -1  -4   71.09    5.00
  -9   1   4   86.19    9.70
  -9   1   4   77.69    9.10
   9   1  -4   76.09    5.70
   9   1  -4   87.39    5.30
   7  -1  -4 1030.00   22.10
   7  -1  -4 1015.60   20.50
  -7  -1   4 1020.60   26.80
  -7  -1   4 1033.00   24.20
  -7   1   4  986.20   23.30
  -7   1   4 1067.69   27.20
   7   1  -4 1049.40   23.80
  -7   1   4 1036.00   26.70
   7   1  -4 1033.80   21.30
  -5  -1   4   11.60    1.80
   5  -1  -4   15.50    2.10
   5  -1  -4   14.50    1.40
   5  -1  -4   13.50    1.80
   5  -1  -4   11.60    1.90
  -5  -1   4   12.20    2.80
  -5  -1   4   12.60    2.50
   5   1  -4   12.50    2.90
  -5   1   4   13.40    1.60
   5   1  -4   13.80    1.60
   5   1  -4   11.20    1.30
   5   1  -4   13.20    1.20
   5   1  -4   11.40    1.90
  -5   1   4   17.80    3.70
  -5   1   4   16.50    3.10
   3  -1  -4  825.22   16.20
   3  -1  -4  817.22   16.70
  -3  -1   4  834.52   18.80
   3  -1  -4  844.92   15.00
  -3  -1   4  807.62   15.10
   3  -1  -4  821.72   15.20
  -3  -1   4  851.61   17.50
  -3   1   4  830.82   18.40
   3   1  -4  827.62   15.30
   3   1  -4  814.62   14.50
   3   1  -4  851.51   15.20
  -3   1   4  827.02   17.00
  -3   1   4  828.42   18.40
  -3   1   4  845.82   15.60
   3   1  -4  808.42   16.40
   1  -1  -4  396.76    8.90
   1  -1  -4  385.76    9.50
  -1  -1   4  388.26   10.10
  -1  -1   4  380.56    8.70
   1  -1  -4  390.96    9.50
  -1  -1   4  398.86    9.10
   1  -1  -4  393.36    9.30
  -1  -1   4  394.26   10.30
   1   1  -4  395.36    9.00
  -1   1   4  377.96    8.90
  -1   1   4  403.26    9.00
   1   1  -4  406.46    9.40
   1   1  -4  389.66    7.80
  -1   1   4  381.16    9.90
   1   1  -4  376.76    9.80
  -1   1   4  394.36    8.60
  -1   1   4  393.16   10.00
  -1  -1  -4  152.98    5.40
   1  -1   4  147.49    5.90
  -1  -1  -4  178.08    6.10
   1  -1   4  146.49    5.10
   1  -1   4  159.28    5.40
   1  -1   4  160.88    4.20
   1  -1   4  163.28    5.80
  -1  -1  -4  155.38    6.40
  -1  -1  -4  161.28    6.10
   1   1   4  154.48    4.40
  -1   1  -4  165.98    6.20
  -1   1  -4  162.68    6.60
  -1   1  -4  156.38    7.20
   1   1   4  151.78    5.80
   1   1   4  157.08    4.80
   1   1   4  168.38    5.80
  -1   1  -4  155.68    5.40
   1   1   4  166.28    5.30
   1   1   4  163.38    5.60
  -1   1  -4  158.78    6.20
  -3  -1  -4  730.13   18.20
   3  -1   4  742.03   17.70
  -3  -1  -4  778.92   19.60
   3  -1   4  764.22   17.10
  -3  -1  -4  760.22   18.00
  -3  -1  -4  715.53   23.50
   3  -1   4  730.83   15.40
   3  -1   4  741.53   16.80
  -3  -1  -4  729.83   18.10
   3   1   4  725.63   17.00
  -3   1  -4  716.13   22.20
  -3   1  -4  743.13   19.30
  -3   1  -4  749.13   19.10
   3   1   4  744.13   17.60
  -3   1  -4  735.93   17.20
   3   1   4  707.33   16.60
   3   1   4  758.02   16.00
  -3   1  -4  754.72   18.30
  -5  -1  -4    4.80    3.20
   5  -1   4    5.80    2.10
  -5  -1  -4    4.70    2.40
  -5  -1  -4    2.60    1.70
  -5  -1  -4    4.50    3.10
   5  -1   4    4.50    1.50
   5  -1   4    3.70    2.20
  -5   1  -4    1.50    2.00
   5   1   4    2.70    1.70
  -5   1  -4    0.40    2.80
   5   1   4    3.50    1.30
  -5   1  -4    4.20    3.30
  -5   1  -4    4.20    2.30
   7  -1   4   79.39    6.40
   7  -1   4   79.89    6.10
  -7  -1  -4   86.09    9.20
  -7  -1  -4   70.39    7.10
  -7  -1  -4   66.19    8.30
   7  -1   4   72.59    5.30
  -7  -1  -4   63.29    6.40
  -7   1  -4   66.29    8.10
   7   1   4   75.79    5.50
  -7   1  -4   69.89    6.40
  -7   1  -4   94.99   10.20
  -7   1  -4   71.69    6.40
   7   1   4   87.39    6.20
  -9  -1  -4   93.19    7.80
   9  -1   4   95.19    6.90
  -9  -1  -4  112.89   11.50
   9   1   4  105.69    7.30
  -9   1  -4   94.69   10.70
  -9   1  -4  111.39   11.60
 -12  -2   4   -2.50    5.50
  12  -2  -4    0.50    2.40
 -12   2   4   -1.50    3.50
 -12   2   4   -3.00    6.00
  12   2  -4   -1.50    2.10
 -12   2   4    2.50    4.90
 -10  -2   4    2.20    5.20
  10  -2  -4   -0.40    1.90
 -10  -2   4    6.20    5.30
 -10   2   4   11.60    5.60
 -10   2   4    5.80    5.30
  10   2  -4    5.00    2.70
  10   2  -4    7.30    2.40
  -8  -2   4    2.30    2.80
   8  -2  -4    6.30    1.70
  -8  -2   4   10.80    4.40
   8  -2  -4    7.30    2.10
  -8   2   4    3.20    2.30
   8   2  -4    4.20    2.10
  -8   2   4    5.20    4.10
  -8   2   4    5.80    3.70
   8   2  -4    4.70    1.60
   6  -2  -4  971.00   19.10
   6  -2  -4  969.20   20.40
  -6  -2   4  969.10   19.70
  -6  -2   4  991.90   23.30
   6  -2  -4  989.70   20.60
  -6  -2   4  985.10   24.80
  -6   2   4  991.60   22.30
  -6   2   4  968.20   24.60
   6   2  -4  977.70   22.40
   6   2  -4  941.21   18.80
   6   2  -4  964.00   19.40
   6   2  -4  951.00   26.70
  -6   2   4  965.70   23.90
   4  -2  -4  522.05   10.40
   4  -2  -4  562.24   12.30
  -4  -2   4  537.55   12.70
  -4  -2   4  504.75   10.30
   4  -2  -4  543.65   12.10
   4  -2  -4  527.45   10.90
  -4  -2   4  560.54   14.80
   4   2  -4  525.85   11.30
  -4   2   4  535.85   14.60
   4   2  -4  528.75   10.50
   4   2  -4  548.45   13.40
  -4   2   4  542.75   11.90
  -4   2   4  543.55   13.90
   4   2  -4  536.65   14.80
   2  -2  -4 8555.64  153.58
  -2  -2   4 8441.46  147.59
  -2  -2   4 8370.76  147.89
  -2  -2   4 8638.83  143.89
   2  -2  -4 8717.73  152.88
  -2  -2   4 8428.46  148.79
   2  -2  -4 8530.65  155.78
   2  -2  -4 8307.47  150.88
   2   2  -4 8233.98  149.39
   2   2  -4 8429.66  153.38
  -2   2   4 8347.17  149.39
  -2   2   4 8439.46  149.69
  -2   2   4 8208.48  152.08
  -2   2   4 8605.44  153.58
   2   2  -4 8266.37  151.08
   0  -2   4  173.98    4.60
   0  -2   4  185.88    5.30
   0  -2   4  174.68    3.80
   0  -2  -4  176.38    4.50
   0  -2  -4  189.28    6.20
   0  -2  -4  166.18    6.00
   0  -2   4  173.38    6.40
   0  -2   4  174.48    5.90
   0  -2  -4  178.48    6.10
   0   2   4  176.68    5.50
   0   2  -4  179.78    5.20
   0   2   4  174.88    5.80
   0   2   4  176.18    5.60
   0   2   4  178.38    6.10
   0   2  -4  167.08    6.30
   0   2   4  178.88    4.70
   0   2  -4  172.78    6.50
   0   2  -4  188.08    6.20
   0   2  -4  173.78    5.90
  -2  -2  -4 3201.08   57.19
   2  -2   4 3183.68   55.09
   2  -2   4 3114.09   56.59
  -2  -2  -4 3059.79   55.79
   2  -2   4 3214.38   56.89
  -2  -2  -4 3099.49   64.99
  -2  -2  -4 3171.78   57.39
  -2  -2  -4 3153.68   57.89
   2  -2   4 3143.49   55.59
   2  -2   4 2947.31   54.49
   2  -2   4 3078.29   53.79
   2   2   4 3160.38   54.69
   2   2   4 3110.79   56.49
   2   2   4 3168.28   56.09
  -2   2  -4 3142.29   58.69
  -2   2  -4 3116.49   58.09
   2   2   4 3181.68   56.09
  -2   2  -4 3123.49   57.19
  -2   2  -4 3085.19   60.69
  -2   2  -4 3061.49   55.29
   4  -2   4  106.89    4.70
   4  -2   4   94.69    5.10
   4  -2   4  103.69    5.20
   4  -2   4  103.09    6.00
   4  -2   4  115.99    5.70
  -4  -2  -4  112.39    6.10
  -4  -2  -4  104.49    6.40
  -4  -2  -4  106.09    6.40
  -4  -2  -4   96.99    6.90
   4   2   4  106.29    5.00
  -4   2  -4  100.69    5.90
   4   2   4  104.89    5.50
  -4   2  -4  111.49    7.50
  -4   2  -4  113.49    7.30
  -4   2  -4  101.69    5.40
  -6  -2  -4  249.88   11.00
   6  -2   4  231.28    8.70
   6  -2   4  275.77   10.90
   6  -2   4  234.78    9.50
  -6  -2  -4  228.58   10.50
  -6  -2  -4  244.18   12.50
   6   2   4  230.38    9.50
   6   2   4  240.48    9.10
  -6   2  -4  216.68   10.20
  -6   2  -4  231.88    9.70
  -6   2  -4  219.08   11.40
  -6   2  -4  228.88   12.20
   8  -2   4   63.19    5.50
  -8  -2  -4   68.39    9.10
  -8  -2  -4   84.29    7.20
   8   2   4   74.69    6.40
   8   2   4   71.59    5.50
  -8   2  -4   74.59    9.00
  -8   2  -4   47.10    8.10
  -8   2  -4   57.89    6.40
  11  -3  -4   47.30    5.10
 -11  -3   4   39.70    8.70
 -11  -3   4   45.50    8.20
 -11   3   4   45.90    8.70
  11   3  -4   50.89    5.50
  11   3  -4   53.79    6.40
 -11   3   4   41.20    6.00
 -11   3   4   44.50    8.00
  -9  -3   4  135.69   10.60
  -9  -3   4  118.19   10.40
   9  -3  -4  131.39    6.10
  -9   3   4  122.29   10.10
  -9   3   4  133.59   10.70
   9   3  -4  145.09    6.80
   9   3  -4  126.39    7.80
   7  -3  -4   82.69    4.20
  -7  -3   4   79.19    7.30
   7  -3  -4   88.29    4.80
  -7  -3   4   81.09    6.40
  -7   3   4   93.19    7.10
  -7   3   4   85.79    7.50
   7   3  -4   80.09    5.60
  -7   3   4   83.39    5.50
   7   3  -4   88.09    4.30
   7   3  -4   86.69    4.10
  -5  -3   4  212.48    7.30
   5  -3  -4  226.78    7.10
   5  -3  -4  226.78    6.30
  -5  -3   4  224.48    9.40
   5  -3  -4  216.88    6.80
   5  -3  -4  210.98    5.40
   5  -3  -4  213.38    6.40
  -5   3   4  227.68    8.50
   5   3  -4  221.28    6.50
   5   3  -4  202.18    9.40
   5   3  -4  226.48    8.30
  -5   3   4  229.38    9.90
   5   3  -4  205.98    5.80
  -5   3   4  211.88    8.30
  -3  -3   4  471.15   12.20
   3  -3  -4  465.75   10.20
  -3  -3   4  471.55   10.50
   3  -3  -4  464.95   11.00
   3  -3  -4  477.95   11.30
  -3   3   4  478.95   10.90
  -3   3   4  490.15   12.90
   3   3  -4  468.55   10.60
   3   3  -4  467.25   11.10
  -3   3   4  458.65   10.90
   3   3  -4  465.35   10.20
   3   3  -4  465.05   12.00
  -3   3   4  477.85   11.40
   3   3  -4  470.25    9.00
  -3   3   4  503.15   12.80
   1  -3  -4  579.94   12.40
  -1  -3   4  561.64   11.00
  -1  -3   4  577.64   11.60
  -1  -3   4  578.74   14.30
  -1  -3   4  583.84   13.20
   1  -3  -4  588.24   13.20
   1  -3  -4  586.74   13.50
   1  -3  -4  582.54   13.30
   1   3  -4  573.24   13.50
  -1   3   4  568.64   12.20
  -1   3   4  576.94   12.80
  -1   3   4  577.14   13.60
   1   3  -4  565.64   14.00
   1   3  -4  585.54   11.70
   1   3  -4  584.14   13.30
  -1   3   4  579.24   13.80
   1  -3   4   21.90    3.00
   1  -3   4    8.50    1.40
  -1  -3  -4    7.90    1.20
  -1  -3  -4    6.50    1.80
  -1  -3  -4   10.10    2.20
   1  -3   4   12.90    2.20
   1  -3   4    6.70    1.30
  -1  -3  -4    5.60    1.60
  -1   3  -4    6.00    1.70
  -1   3  -4    5.40    1.40
   1   3   4    8.60    1.40
   1   3   4    7.50    1.60
   1   3   4    8.60    1.60
   1   3   4    5.70    1.70
   1   3   4    8.20    1.30
  -1   3  -4    9.30    2.40
  -1   3  -4    8.90    1.80
   3  -3   4  579.34   14.00
   3  -3   4  602.24   15.60
   3  -3   4  577.44   12.80
  -3  -3  -4  591.54   16.50
  -3  -3  -4  599.74   15.80
  -3  -3  -4  562.94   14.50
   3  -3   4  554.94   14.60
  -3  -3  -4  609.14   16.20
   3  -3   4  607.54   14.40
   3   3   4  604.34   15.00
  -3   3  -4  580.74   13.80
  -3   3  -4  577.94   15.80
   3   3   4  594.34   14.60
   3   3   4  577.24   13.70
  -3   3  -4  603.14   17.60
  -3   3  -4  601.24   16.70
  -5  -3  -4   -1.30    2.80
   5  -3   4    3.90    2.40
  -5  -3  -4    4.00    2.60
   5  -3   4    0.90    1.60
  -5  -3  -4    3.20    2.40
   5  -3   4    1.10    1.30
   5  -3   4   -0.60    1.50
   5   3   4    1.80    1.10
  -5   3  -4    0.40    1.90
  -5   3  -4    1.50    1.70
   5   3   4    5.80    2.20
  -5   3  -4    2.00    3.30
  -5   3  -4   -2.60    2.50
   7  -3   4   15.10    2.90
  -7  -3  -4   11.30    4.00
  -7  -3  -4   16.00    4.10
  -7  -3  -4   12.80    4.20
   7  -3   4   18.20    3.70
   7   3   4   19.70    3.50
  -7   3  -4   17.30    3.80
   7   3   4   14.80    3.30
  -7   3  -4   23.90    6.10
  -7   3  -4   12.60    4.00
 -10  -4   4  950.50   31.30
 -10  -4   4  949.11   29.70
  10  -4  -4  886.71   22.20
 -10   4   4  905.81   29.00
  10   4  -4  938.51   22.90
  10   4  -4  926.31   25.70
 -10   4   4  940.81   30.10
   8  -4  -4   -0.60    1.50
  -8  -4   4    5.40    4.00
  -8  -4   4   -3.20    3.30
   8  -4  -4    1.40    1.60
  -8   4   4   -2.90    3.20
  -8   4   4    2.50    1.90
   8   4  -4   -0.30    1.10
   8   4  -4    0.90    1.20
  -8   4   4    0.90    3.30
   8   4  -4    0.20    1.30
  -6  -4   4 1835.02   39.30
   6  -4  -4 1853.61   34.20
  -6  -4   4 1786.02   35.50
   6  -4  -4 1856.01   35.50
  -6   4   4 1796.52   39.60
   6   4  -4 1806.02   37.70
   6   4  -4 1864.21   34.80
   6   4  -4 1803.32   33.80
  -6   4   4 1797.02   37.00
  -6   4   4 1776.82   38.20
  -4  -4   4  582.44   13.10
   4  -4  -4  604.84   14.20
   4  -4  -4  613.44   13.30
  -4  -4   4  603.24   15.20
   4  -4  -4  588.74   13.50
   4   4  -4  609.34   13.80
  -4   4   4  631.54   16.70
  -4   4   4  607.34   13.90
  -4   4   4  582.64   14.40
   4   4  -4  620.94   15.50
  -4   4   4  626.74   15.90
   4   4  -4  598.64   12.20
  -2  -4   4 1976.60   36.20
   2  -4  -4 1867.71   34.00
   2  -4  -4 1959.10   35.40
   2  -4  -4 2004.90   36.50
  -2  -4   4 2001.40   38.10
  -2  -4   4 1907.01   33.10
   2  -4  -4 1903.81   35.80
  -2  -4   4 1890.81   33.30
  -2   4   4 1999.80   36.20
  -2   4   4 1993.70   37.00
   2   4  -4 1947.71   35.70
   2   4  -4 1902.71   33.90
   2   4  -4 1914.11   36.80
  -2   4   4 2001.40   37.70
   2   4  -4 1938.01   36.40
   0  -4  -4 1014.40   20.80
   0  -4  -4 1033.10   21.80
   0  -4   4 1044.60   19.60
   0  -4   4 1089.99   22.30
   0  -4  -4 1094.39   22.90
   0  -4  -4 1059.09   22.10
   0  -4   4 1027.20   19.70
   0  -4   4 1056.39   23.00
   0   4   4  990.20   21.40
   0   4  -4 1036.10   22.00
   0   4   4 1034.20   21.50
   0   4  -4 1007.70   19.00
   0   4   4 1051.89   21.10
   0   4   4 1023.20   20.10
   0   4  -4 1051.09   23.40
   0   4  -4 1072.39   22.60
   2  -4   4 2393.96   46.00
   2  -4   4 2432.36   44.10
  -2  -4  -4 2384.56   46.90
  -2  -4  -4 2410.46   46.20
  -2  -4  -4 2412.96   46.20
   2  -4   4 2440.66   43.90
   2  -4   4 2449.75   46.30
  -2   4  -4 2446.76   48.60
  -2   4  -4 2470.45   46.90
  -2   4  -4 2329.37   42.90
  -2   4  -4 2418.46   46.80
   2   4   4 2423.06   44.10
   2   4   4 2451.95   45.60
   2   4   4 2474.65   45.00
   4  -4   4   62.59    3.60
   4  -4   4   62.79    4.40
   4  -4   4   65.09    4.40
   4  -4   4   59.59    5.30
  -4  -4  -4   56.49    4.80
  -4  -4  -4   72.59    6.80
  -4  -4  -4   64.49    5.40
  -4   4  -4   60.59    5.10
  -4   4  -4   59.79    5.60
   4   4   4   54.09    4.20
   4   4   4   60.49    4.10
  -4   4  -4   68.09    6.50
   4   4   4   57.79    4.40
  -6  -4  -4 1332.87   34.00
  -6  -4  -4 1284.77   32.00
   6  -4   4 1354.46   31.40
  -6  -4  -4 1396.76   33.00
   6  -4   4 1346.47   30.00
  -6   4  -4 1350.76   33.70
  -6   4  -4 1273.57   31.50
   6   4   4 1293.77   29.30
  -6   4  -4 1368.76   36.10
   6   4   4 1315.47   29.50
   8  -4   4    3.20    2.20
  -8  -4  -4    1.50    3.60
  -8  -4  -4    5.70    4.90
   8   4   4   -0.70    2.10
  -8   4  -4   -2.80    3.60
   8   4   4   -0.30    2.10
  -8   4  -4    3.70    4.80
 -11  -5   4   14.90    6.70
  11  -5  -4   16.60    3.30
  11   5  -4   16.90    3.40
 -11   5   4   22.70    6.30
  11   5  -4    9.70    4.00
 -11   5   4   17.50    6.50
   9  -5  -4  169.18    7.60
  -9  -5   4  176.68   12.20
   9  -5  -4  162.58    8.20
   9   5  -4  154.98    9.40
   9   5  -4  161.58    7.40
  -9   5   4  158.68   11.60
  -9   5   4  157.58   11.20
  -7  -5   4    8.20    3.20
   7  -5  -4   10.50    2.40
   7  -5  -4   15.90    2.80
  -7   5   4   19.60    4.30
  -7   5   4    8.50    3.80
   7   5  -4   11.00    2.20
   7   5  -4   12.30    2.10
  -7   5   4   14.20    3.00
   7   5  -4    7.20    2.30
   5  -5  -4 1092.19   21.90
   5  -5  -4 1066.49   21.90
  -5  -5   4 1082.09   24.20
  -5  -5   4 1035.80   21.60
   5  -5  -4 1100.79   23.10
   5  -5  -4 1039.90   21.50
  -5   5   4 1092.99   23.00
  -5   5   4 1071.39   24.50
  -5   5   4 1056.49   24.10
   5   5  -4 1072.19   22.70
   5   5  -4 1071.99   24.70
   5   5  -4 1053.79   20.90
  -5   5   4 1074.49   26.20
   3  -5  -4  478.05   11.40
  -3  -5   4  455.75    9.40
  -3  -5   4  498.25   13.70
  -3  -5   4  450.15   11.70
   3  -5  -4  476.55   12.20
   3  -5  -4  463.15   11.30
  -3   5   4  471.35   13.30
   3   5  -4  468.95   11.80
  -3   5   4  475.25   13.50
  -3   5   4  462.45   12.00
   3   5  -4  459.55   12.60
   1  -5  -4  897.71   19.20
   1  -5  -4  892.81   19.70
  -1  -5   4  908.61   19.90
   1  -5  -4  887.41   20.20
  -1  -5   4  917.31   21.20
  -1  -5   4  883.51   17.10
   1   5  -4  889.11   16.80
  -1   5   4  914.91   20.30
   1   5  -4  910.01   19.10
   1   5  -4  901.71   19.40
  -1   5   4  885.31   18.70
  -1   5   4  897.41   19.40
   1   5  -4  873.31   19.20
   1  -5   4 2084.29   37.90
  -1  -5  -4 2093.89   40.30
   1  -5   4 2108.79   41.50
  -1  -5  -4 2045.10   39.00
   1  -5   4 2087.39   40.70
  -1  -5  -4 2105.59   41.50
  -1  -5  -4 2068.09   40.10
   1  -5   4 2063.49   37.50
   1   5   4 2101.19   40.10
  -1   5  -4 2064.99   40.20
  -1   5  -4 2167.28   42.90
   1   5   4 2021.50   38.20
   1   5   4 2061.49   38.80
  -3  -5  -4  312.27   11.20
   3  -5   4  323.67   11.20
   3  -5   4  317.97    9.40
   3  -5   4  324.57   10.80
  -3  -5  -4  306.77   11.40
   3  -5   4  328.47    9.70
  -3  -5  -4  334.57   11.60
   3   5   4  303.07    9.50
   3   5   4  334.17   10.00
  -3   5  -4  319.87   11.50
  -3   5  -4  308.97   11.40
  -3   5  -4  321.37   12.90
   3   5   4  327.67   10.80
  -5  -5  -4  745.53   21.50
  -5  -5  -4  783.42   22.60
   5  -5   4  792.02   21.20
  -5  -5  -4  757.02   21.60
   5  -5   4  803.12   19.70
   5  -5   4  780.92   18.10
   5   5   4  773.22   19.30
   5   5   4  775.72   20.60
  -5   5  -4  760.42   21.60
   5   5   4  788.22   19.50
  -5   5  -4  781.42   22.10
  -5   5  -4  792.12   24.80
   7  -5   4  191.58    9.40
  -7  -5  -4  198.48   12.60
   7  -5   4  171.38    9.60
  -7  -5  -4  220.08   11.60
   7  -5   4  192.88    8.60
   7   5   4  177.78    8.70
   7   5   4  189.28    9.10
  -7   5  -4  188.18   11.30
  -7   5  -4  200.28   12.80
 -10  -6   4  153.78   16.80
  10  -6  -4  161.68    8.10
 -10  -6   4  161.58   13.10
  10   6  -4  172.58   10.50
 -10   6   4  160.18   12.20
 -10   6   4  154.28   12.00
  10   6  -4  150.58    7.60
  -8  -6   4  554.24   19.10
   8  -6  -4  598.34   16.80
   8  -6  -4  588.14   15.80
  -8  -6   4  601.24   21.70
  -8   6   4  577.44   20.90
   8   6  -4  582.64   15.30
  -8   6   4  575.74   17.20
   8   6  -4  584.94   15.90
   8   6  -4  597.34   18.70
  -8   6   4  599.14   20.30
   6  -6  -4   56.59    4.40
   6  -6  -4   64.99    4.40
  -6  -6   4   57.89    4.90
   6   6  -4   50.99    5.30
  -6   6   4   49.50    5.50
   6   6  -4   60.79    4.40
   6   6  -4   58.09    3.50
  -6   6   4   58.79    5.10
  -6   6   4   61.79    6.90
  -6   6   4   55.89    4.50
   4  -6  -4 2710.03   49.30
  -4  -6   4 2686.53   49.80
   4  -6  -4 2709.23   50.29
   4  -6  -4 2662.93   48.50
  -4  -6   4 2704.63   52.59
  -4   6   4 2748.02   53.39
  -4   6   4 2716.43   50.49
   4   6  -4 2678.53   50.19
   4   6  -4 2685.13   51.79
  -4   6   4 2690.93   52.19
  -2  -6   4   14.70    1.70
  -2  -6   4   11.80    2.90
   2  -6  -4   13.50    2.50
   2  -6  -4   12.20    2.00
  -2  -6   4   15.60    2.70
   2  -6  -4   14.20    2.20
  -2   6   4   18.00    2.90
  -2   6   4   14.50    2.40
   2   6  -4   11.60    2.10
   2   6  -4   14.30    2.20
  -2   6   4   15.80    2.90
   0  -6  -4 3303.17   59.79
   0  -6   4 3297.67   60.39
   0  -6  -4 3239.88   60.89
   0  -6  -4 3198.88   58.99
   0  -6   4 3270.17   61.69
   0  -6   4 3204.58   56.89
   0   6  -4 3224.98   58.79
   0   6   4 3264.77   58.09
   0   6  -4 3257.27   61.99
   0   6  -4 3266.57   58.89
   0   6   4 3237.28   59.59
   2  -6   4   65.59    5.50
  -2  -6  -4   55.79    4.80
  -2  -6  -4   58.99    4.80
   2  -6   4   57.29    5.10
  -2  -6  -4   55.49    4.70
   2  -6   4   57.59    3.80
   2   6   4   57.09    4.30
   2   6   4   53.29    3.70
  -2   6  -4   64.69    6.70
   2   6   4   53.99    3.80
  -2   6  -4   50.89    4.40
  -4  -6  -4  933.21   24.20
   4  -6   4  941.81   21.80
  -4  -6  -4  935.11   24.00
  -4  -6  -4  969.20   25.20
   4  -6   4  939.11   24.00
  -4   6  -4  918.81   23.70
   4   6   4  948.21   21.60
   4   6   4  903.21   22.90
  -4   6  -4  918.41   26.70
   4   6   4  960.30   22.00
   6  -6   4  189.28    8.10
  -6  -6  -4  214.68   11.30
   6  -6   4  212.18    9.50
   6  -6   4  217.98   10.60
  -6  -6  -4  222.18   12.10
  -6   6  -4  203.88   10.90
   6   6   4  193.68    8.70
  -6   6  -4  203.28   12.80
   6   6   4  208.88    9.20
  -9  -7   4  299.67   16.10
   9  -7  -4  306.67   11.40
   9  -7  -4  305.37   11.90
  -9   7   4  277.97   14.50
  -9   7   4  311.07   16.10
   9   7  -4  286.97   11.10
   9   7  -4  292.07   13.70
   9   7  -4  311.77   10.80
  -7  -7   4   70.69    8.00
   7  -7  -4   68.69    5.10
   7  -7  -4   63.49    5.30
  -7   7   4   79.09    6.10
  -7   7   4   62.59    7.80
   7   7  -4   63.69    4.20
   7   7  -4   66.59    5.70
   7   7  -4   62.19    5.00
  -7   7   4   70.89    5.70
  -7   7   4   37.60    6.80
   5  -7  -4  439.16   12.90
  -5  -7   4  446.56   14.80
   5  -7  -4  455.95   12.60
  -5  -7   4  438.76   12.60
   5  -7  -4  427.66   12.50
   5   7  -4  451.15   14.30
  -5   7   4  434.66   13.20
  -5   7   4  442.46   15.70
   5   7  -4  443.26   13.20
   5   7  -4  444.96   11.00
  -5   7   4  444.56   14.40
  -3  -7   4   39.40    4.20
   3  -7  -4   28.80    2.70
   3  -7  -4   35.30    3.70
   3  -7  -4   35.90    3.10
  -3  -7   4   39.90    4.90
   3   7  -4   35.20    3.20
  -3   7   4   32.40    4.10
  -3   7   4   38.50    4.70
   3   7  -4   39.20    4.10
  -3   7   4   36.80    3.40
  -1  -7   4   23.80    3.90
   1  -7  -4   23.30    3.10
  -1  -7   4   16.40    2.10
  -1  -7   4   19.00    3.10
   1  -7  -4   17.70    2.60
   1  -7  -4   21.50    2.90
   1   7  -4   20.00    2.60
  -1   7   4   25.10    2.80
  -1   7   4   20.50    2.80
  -1   7   4   21.70    3.20
   1   7  -4   19.50    2.90
  -1  -7  -4  114.19    6.20
   1  -7   4  111.39    7.10
   1  -7   4  118.19    7.00
  -1  -7  -4  112.49    6.60
  -1  -7  -4  109.99    6.30
   1  -7   4  103.69    5.00
  -1   7  -4  115.39    5.80
  -1   7  -4  125.69    6.00
  -1   7  -4  113.19    7.30
   1   7   4  118.49    6.20
   1   7   4  126.89    5.50
  -3  -7  -4   12.00    3.50
   3  -7   4   16.10    3.60
  -3  -7  -4   11.40    2.80
   3  -7   4    6.90    3.30
   3  -7   4   11.10    2.50
  -3   7  -4   16.80    4.20
   3   7   4   12.70    2.60
   3   7   4   12.10    3.00
  -3   7  -4   12.20    2.80
   3   7   4   12.30    2.60
   5  -7   4   80.69    5.90
  -5  -7  -4   89.19    7.30
  -5  -7  -4   67.39    6.70
   5  -7   4   86.69    7.40
   5   7   4   67.09    5.60
   5   7   4   68.99    5.10
  -5   7  -4   83.79    9.10
   7  -7   4   14.10    3.70
  -7  -7  -4   14.50    4.80
   7  -7   4   17.00    3.80
  -7   7  -4   18.80    6.10
   7   7   4   14.50    3.50
 -10  -8   4  123.59   11.90
  10  -8  -4  106.59    6.90
 -10   8   4  104.29    8.30
 -10   8   4  112.89    9.60
  10   8  -4  113.79    9.40
   8  -8  -4  180.38    8.50
   8  -8  -4  181.78    9.00
  -8   8   4  169.48   11.90
   8   8  -4  164.88    7.50
   8   8  -4  163.78    8.60
  -8   8   4  170.18    9.40
   8   8  -4  162.08    9.90
   6  -8  -4   40.30    4.40
   6  -8  -4   52.79    5.10
  -6  -8   4   47.20    5.80
  -6   8   4   31.90    4.50
  -6   8   4   46.70    6.50
   6   8  -4   38.50    5.00
   6   8  -4   44.50    4.90
   6   8  -4   42.40    3.60
   4  -8  -4  248.78    9.40
  -4  -8   4  251.37    9.80
   4  -8  -4  253.17    9.20
  -4   8   4  239.18    9.60
  -4   8   4  252.97   11.30
   4   8  -4  232.38    9.40
   4   8  -4  227.28    9.60
   2  -8  -4    8.50    2.00
  -2  -8   4    7.30    1.70
   2  -8  -4    9.20    2.50
  -2  -8   4   11.90    2.90
  -2  -8   4    9.20    3.10
   2   8  -4    9.80    2.40
  -2   8   4   12.10    2.40
  -2   8   4   12.90    2.20
   2   8  -4    9.80    2.30
  -2   8   4   12.40    2.80
   0  -8   4  373.36   13.70
   0  -8  -4  361.86   13.10
   0  -8   4  361.46   10.10
   0  -8   4  372.16   13.00
   0  -8  -4  353.96   11.00
   0  -8  -4  359.46   11.90
   0   8   4  364.06   10.40
   0   8   4  364.06   12.00
   0   8  -4  345.87   11.50
  -2  -8  -4    5.40    2.40
  -2  -8  -4    6.50    2.70
   2  -8   4    3.80    2.80
  -2  -8  -4    6.80    2.70
   2  -8   4    6.30    2.20
   2  -8   4   10.90    3.80
  -2   8  -4    4.70    2.90
  -2   8  -4    6.30    2.10
   2   8   4    2.80    1.70
   4  -8   4  422.56   15.60
  -4  -8  -4  413.06   14.90
  -4  -8  -4  426.36   15.30
  -4  -8  -4  424.06   16.10
   4  -8   4  421.26   13.30
  -4   8  -4  407.76   13.10
  -4   8  -4  428.36   17.30
   4   8   4  431.06   13.50
   4   8   4  425.16   14.50
   6  -8   4   12.50    3.10
  -6  -8  -4    5.10    3.70
   6  -8   4    5.70    3.60
   6   8   4   18.90    3.60
  -6   8  -4    5.50    4.00
   9  -9  -4   12.90    3.10
   9  -9  -4    7.20    2.90
  -9   9   4   18.40    5.70
  -9   9   4   13.00    4.00
   9   9  -4    8.80    3.20
   9   9  -4   11.30    4.10
   7  -9  -4  106.49    7.00
   7  -9  -4  123.89    7.40
   7   9  -4  107.79    7.50
  -7   9   4  119.09    8.20
  -7   9   4  109.29    9.60
   7   9  -4  124.29    8.50
   5  -9  -4    1.30    2.20
   5  -9  -4    6.00    2.40
   5  -9  -4    1.00    1.70
  -5  -9   4    0.00    2.10
  -5  -9   4    3.10    2.40
  -5   9   4   -0.30    2.10
   5   9  -4    0.30    1.30
  -5   9   4    2.80    3.10
   5   9  -4   -0.80    1.90
   3  -9  -4   34.80    4.00
   3  -9  -4   33.10    4.10
  -3  -9   4   41.40    5.10
   3   9  -4   32.20    3.90
  -3   9   4   34.10    4.80
   3   9  -4   29.90    3.90
  -3   9   4   35.50    4.30
   1  -9  -4    8.30    2.50
  -1  -9   4    2.40    2.80
   1  -9  -4    6.40    2.70
  -1  -9   4    5.90    2.80
  -1  -9   4    7.00    2.00
  -1   9   4    5.20    2.40
   1   9  -4    6.00    2.30
  -1   9   4    4.30    1.90
  -1  -9  -4    4.20    2.60
   1  -9   4   10.20    3.80
   1  -9   4    5.30    3.50
  -1  -9  -4    6.30    2.80
   1  -9   4    6.10    2.10
   1   9   4   10.60    2.90
  -1   9  -4    6.30    2.30
  -1   9  -4    5.40    2.70
   3  -9   4   38.60    5.90
   3  -9   4   44.30    4.80
  -3  -9  -4   28.30    4.40
  -3  -9  -4   39.80    5.40
   3  -9   4   37.30    5.40
  -3  -9  -4   37.30    5.90
   3   9   4   41.40    5.10
  -3   9  -4   43.10    4.80
  -3   9  -4   40.30    6.30
   5  -9   4    2.20    3.70
  -5  -9  -4    3.80    3.20
  -5  -9  -4    2.50    2.90
   5  -9   4    2.90    2.70
   5   9   4    5.30    2.00
   5   9   4    8.20    3.20
  -5   9  -4    3.60    3.80
   8 -10  -4  173.98    9.00
   8 -10  -4  156.68    8.70
   8  10  -4  142.39    8.70
   8  10  -4  147.29    9.90
  -8  10   4  144.59    9.60
  -8  10   4  170.68   12.20
   6 -10  -4  699.63   19.50
  -6 -10   4  670.13   22.10
   6 -10  -4  720.93   19.70
   6  10  -4  695.73   20.90
  -6  10   4  729.13   21.30
  -6  10   4  756.02   24.20
   6  10  -4  701.83   20.80
  -4 -10   4   21.30    4.90
   4 -10  -4   22.80    3.90
   4 -10  -4   30.30    3.90
   4 -10  -4   26.90    4.30
  -4 -10   4   23.40    4.30
  -4  10   4   28.00    4.80
  -4  10   4   21.40    3.90
   4  10  -4   28.30    4.10
   4  10  -4   23.10    4.10
   2 -10  -4  831.22   21.50
  -2 -10   4  846.22   23.00
   2 -10  -4  810.92   21.10
  -2 -10   4  813.62   24.80
   2  10  -4  791.42   21.70
  -2  10   4  872.51   22.70
   0 -10   4    3.60    2.00
   0 -10   4    4.70    2.60
   0 -10  -4    1.60    2.10
   0 -10  -4    1.40    1.70
   0 -10   4    7.00    3.60
   0 -10  -4    3.10    2.60
   0  10  -4    4.50    2.00
   0  10   4   -1.50    1.20
   2 -10   4  433.46   17.00
   2 -10   4  450.15   13.60
  -2 -10  -4  448.76   15.70
   2 -10   4  466.15   16.90
  -2  10  -4  452.85   17.50
   2  10   4  453.35   15.60
  -2  10  -4  452.45   14.80
  -4 -10  -4    7.50    3.40
   4 -10   4    1.10    1.80
   4 -10   4    1.70    3.80
   4  10   4    2.20    2.50
  -4  10  -4    3.00    3.40
   7 -11  -4  244.78   10.70
   7 -11  -4  252.27   11.20
   7  11  -4  232.78   11.80
   7  11  -4  216.18   11.50
  -7  11   4  241.38   13.60
  -7  11   4  235.78   12.00
   5 -11  -4  195.28   10.10
   5 -11  -4  177.08    8.60
   5 -11  -4  205.68   10.00
  -5 -11   4  188.98    9.90
  -5 -11   4  185.88   11.50
  -5  11   4  201.88   11.90
   5  11  -4  197.08   10.40
  -5  11   4  202.78   10.60
   3 -11  -4  343.57   12.40
  -3 -11   4  316.87   13.50
  -3 -11   4  331.37   15.70
   3 -11  -4  315.47   12.10
   3 -11  -4  353.56   13.80
  -3  11   4  322.07   12.90
   3  11  -4  327.87   13.20
  -1 -11   4  281.27   13.20
   1 -11  -4  280.97   11.40
  -1 -11   4  300.67   14.50
   1 -11  -4  286.17   11.30
   1  11  -4  293.07   12.20
  -1  11   4  294.17   12.40
   1 -11   4  193.38    8.50
  -1 -11  -4  198.48   10.00
  -1 -11  -4  209.98   10.40
   1 -11   4  199.38   11.70
   1 -11   4  197.78   11.10
  -1  11  -4  203.78   10.00
   1  11   4  199.58   10.20
   3 -11   4  249.48   13.10
   3 -11   4  214.58    9.70
  -3 -11  -4  236.78   11.30
  -3 -11  -4  234.18   11.70
  -3  11  -4  222.48   12.70
   3  11   4  229.78   11.30
   6 -12  -4   -0.50    2.90
   6 -12  -4    0.10    2.20
  -6 -12   4    6.40    3.30
   6  12  -4    1.80    3.00
  -6  12   4    5.30    3.50
  -4 -12   4  223.48   11.80
   4 -12  -4  245.28   11.30
   4 -12  -4  247.58   10.70
  -4 -12   4  244.48   13.70
   4 -12  -4  229.78   11.80
   4  12  -4  242.08   12.00
  -4  12   4  258.87   12.20
   2 -12  -4   34.00    5.00
  -2 -12   4   35.00    6.70
   2 -12  -4   24.40    4.40
  -2 -12   4   32.50    5.40
   2  12  -4   26.70    4.60
  -2  12   4   39.20    5.60
   0 -12   4  341.57   15.50
   0 -12   4  338.77   16.30
   0 -12  -4  335.47   13.20
   0 -12  -4  316.17   12.90
   0  12  -4  312.17   12.90
   0  12   4  320.07   13.50
  -2 -12  -4   42.30    5.80
   2 -12   4   43.50    7.00
   2 -12   4   46.50    7.40
  -2 -12  -4   48.20    5.90
  -2  12  -4   43.60    5.20
   2  12   4   39.10    5.50
  -3 -13   4   53.79    7.60
   3 -13  -4   53.49    6.70
  -3 -13   4   50.49    6.50
   3 -13  -4   49.20    5.80
  -3  13   4   48.80    6.60
   3  13  -4   54.49    6.80
  -1 -13   4   46.20    7.20
   1 -13  -4   45.20    5.60
  -1 -13   4   37.20    6.90
   1  13  -4   37.50    5.70
  -1  13   4   55.59    6.90
  12   0  -5    2.90    2.60
 -12   0   5    4.10    6.40
 -12   0   5    9.00    6.50
  10   0  -5    2.40    1.40
 -10   0   5    8.20    4.60
 -10   0   5    0.40    5.30
  10   0  -5    0.20    1.80
  -8   0   5   -0.70    2.80
   8   0  -5    2.20    1.40
  -8   0   5    4.50    3.00
   8   0  -5    0.60    1.50
  -8   0   5   -0.10    4.10
  -6   0   5    2.60    2.00
   6   0  -5   -0.70    0.90
  -6   0   5    2.30    1.40
  -6   0   5   -1.30    2.50
   6   0  -5    0.50    1.50
   6   0  -5    0.10    0.90
   4   0  -5   -0.60    0.70
  -4   0   5    1.80    1.40
   4   0  -5    1.90    0.50
   4   0  -5    0.40    0.90
  -4   0   5    1.50    2.40
  -4   0   5    3.70    0.70
  -4   0   5    2.00    1.80
   2   0  -5   -0.10    0.70
   2   0  -5    1.20    0.80
   2   0  -5    2.80    1.00
  -2   0   5    1.10    0.50
  -2   0   5    3.40    2.00
  -2   0   5    1.90    0.90
   2   0  -5    1.70    1.10
  -2   0   5    2.80    1.70
   0   0  -5    8.00    1.60
   0   0   5    2.00    1.00
   0   0  -5    2.00    1.30
   0   0   5    1.10    0.90
   0   0  -5    0.40    1.50
   0   0   5    4.30    2.00
   0   0   5    2.40    0.90
   0   0  -5    0.30    1.30
   0   0   5    4.00    0.60
   0   0   5    0.90    1.20
   2   0   5    1.50    0.80
   2   0   5    2.80    1.70
  -2   0  -5    1.80    1.50
  -2   0  -5    1.70    1.80
   2   0   5    1.60    1.30
  -2   0  -5    3.10    1.70
   2   0   5   -1.30    1.30
  -2   0  -5    2.20    1.70
  -2   0  -5    2.60    2.40
   4   0   5   -0.40    1.20
  -4   0  -5    2.60    2.00
   4   0   5   -0.80    1.70
  -4   0  -5    1.20    2.40
  -4   0  -5    1.30    1.90
   4   0   5    2.40    1.50
   4   0   5    5.70    1.60
  -4   0  -5    3.50    2.30
  -6   0  -5   -1.60    2.90
   6   0   5    1.80    1.70
   6   0   5   -1.90    1.80
  -6   0  -5    1.70    2.60
  -6   0  -5   -0.60    2.30
  -6   0  -5    2.70    3.80
   8   0   5    1.80    2.90
  -8   0  -5    3.40    3.40
   8   0   5    0.90    2.10
  -8   0  -5    2.50    4.70
  11  -1  -5  563.54   16.50
 -11  -1   5  525.05   22.30
 -11  -1   5  550.84   23.70
 -11   1   5  503.05   21.90
 -11   1   5  512.65   22.60
  11   1  -5  491.45   16.90
  11   1  -5  534.65   16.20
  -9  -1   5   46.20    5.50
  -9  -1   5   41.70    7.20
   9  -1  -5   39.00    4.30
   9  -1  -5   41.60    4.10
  -9  -1   5   55.29    8.20
   9   1  -5   50.89    4.10
  -9   1   5   52.79    8.00
   9   1  -5   47.30    5.10
  -9   1   5   43.90    7.10
  -9   1   5   44.40    5.10
  -7  -1   5 1505.05   33.20
   7  -1  -5 1480.75   29.70
   7  -1  -5 1489.25   30.90
  -7  -1   5 1530.75   35.90
  -7   1   5 1505.75   35.40
  -7   1   5 1505.75   32.70
   7   1  -5 1469.25   28.60
   7   1  -5 1482.55   31.90
   5  -1  -5   12.80    1.80
   5  -1  -5   14.00    2.20
  -5  -1   5   20.50    3.80
   5  -1  -5   20.80    1.40
  -5  -1   5   15.70    2.40
   5  -1  -5   14.00    2.10
  -5  -1   5   11.70    3.20
   5   1  -5   11.20    2.20
  -5   1   5   19.70    3.70
  -5   1   5   12.50    3.20
   5   1  -5   14.50    1.40
   5   1  -5   11.90    1.60
   5   1  -5   13.20    2.00
   5   1  -5   13.60    3.00
  -5   1   5   18.20    2.20
   5   1  -5   14.60    1.40
  -3  -1   5 1908.41   36.00
   3  -1  -5 1910.21   35.10
   3  -1  -5 1904.81   35.10
  -3  -1   5 1928.81   37.70
   3  -1  -5 1871.11   33.60
   3  -1  -5 1896.11   34.20
   3  -1  -5 1809.62   32.40
  -3  -1   5 1862.11   33.30
  -3   1   5 1904.81   35.70
  -3   1   5 1871.01   33.30
   3   1  -5 1941.71   34.80
  -3   1   5 1817.72   36.40
   3   1  -5 1855.41   32.90
   3   1  -5 1955.40   33.70
   3   1  -5 1916.71   35.70
  -3   1   5 1906.31   37.00
   1  -1  -5  241.48    7.60
  -1  -1   5  220.78    6.80
  -1  -1   5  243.28    8.20
  -1  -1   5  246.08    6.70
  -1  -1   5  235.98    8.10
   1  -1  -5  239.78    6.70
   1  -1  -5  238.48    7.50
   1  -1  -5  241.38    7.30
   1   1  -5  236.78    7.90
  -1   1   5  237.28    6.90
   1   1  -5  243.18    7.00
  -1   1   5  232.68    6.30
   1   1  -5  239.68    7.20
  -1   1   5  227.58    7.70
  -1   1   5  229.38    6.50
  -1   1   5  246.58    7.90
   1   1  -5  236.58    5.80
  -1   1   5  228.18    6.80
  -1  -1  -5  665.53   16.00
  -1  -1  -5  666.83   15.40
   1  -1   5  667.63   15.00
   1  -1   5  677.53   13.20
   1  -1   5  686.93   15.40
  -1  -1  -5  687.13   16.60
   1  -1   5  688.23   16.10
  -1  -1  -5  690.03   17.10
  -1  -1  -5  673.63   21.00
   1  -1   5  702.63   16.70
  -1   1  -5  679.93   16.60
  -1   1  -5  682.93   15.60
   1   1   5  664.83   14.40
   1   1   5  666.33   13.70
   1   1   5  668.03   15.90
   1   1   5  667.93   15.00
  -1   1  -5  688.93   19.10
   1   1   5  670.53   15.50
  -1   1  -5  686.53   16.50
   1   1   5  676.23   16.30
  -1   1  -5  692.23   17.30
   3  -1   5  312.37   10.40
  -3  -1  -5  333.37   11.60
  -3  -1  -5  342.27   12.50
   3  -1   5  327.57    8.70
   3  -1   5  328.27   11.00
   3  -1   5  324.67   10.20
  -3  -1  -5  323.47   11.20
  -3  -1  -5  354.86   11.30
  -3   1  -5  354.96   10.80
   3   1   5  330.27    9.00
  -3   1  -5  312.87   11.80
   3   1   5  322.27   10.80
  -3   1  -5  299.17   14.10
   3   1   5  326.37   10.40
  -3   1  -5  328.67   12.40
  -3   1  -5  318.27   11.30
   3   1   5  323.47   10.30
  -5  -1  -5  136.19    8.50
  -5  -1  -5  149.09    8.30
  -5  -1  -5  135.89    8.30
   5  -1   5  137.29    7.80
   5  -1   5  140.99    6.30
   5  -1   5  142.39    7.30
  -5  -1  -5  138.69    8.90
  -5   1  -5  144.49    7.70
  -5   1  -5  132.39    8.00
   5   1   5  142.09    6.40
  -5   1  -5  126.59    9.00
   5   1   5  135.99    7.10
  -5   1  -5  141.59    9.70
   7  -1   5   92.19    6.90
  -7  -1  -5   86.69    7.60
   7  -1   5   79.59    5.70
  -7  -1  -5   88.29    9.70
  -7   1  -5   86.69    7.20
  -7   1  -5   87.19    9.60
   7   1   5   86.59    6.00
   7   1   5   85.79    6.60
  -7   1  -5   72.99    8.70
 -12  -2   5  334.67   18.60
  12  -2  -5  349.37   13.20
 -12  -2   5  358.46   19.60
 -12   2   5  355.06   19.90
  12   2  -5  329.77   13.90
 -12   2   5  361.26   18.70
  12   2  -5  323.87   12.90
 -10  -2   5  815.02   27.40
 -10  -2   5  853.51   28.90
  10   2  -5  816.12   22.90
 -10   2   5  821.02   27.70
  10   2  -5  821.32   20.50
 -10   2   5  830.62   27.60
  -8  -2   5  970.90   27.90
  -8  -2   5  981.40   25.00
   8  -2  -5  973.20   20.20
   8  -2  -5  976.80   22.20
   8   2  -5  979.80   21.00
  -8   2   5  939.21   26.60
  -8   2   5  980.50   27.70
  -8   2   5  995.50   24.10
   8   2  -5  957.70   24.10
   6  -2  -5 1885.81   33.60
   6  -2  -5 1866.31   36.00
  -6  -2   5 1878.41   39.50
  -6  -2   5 1879.01   41.00
  -6  -2   5 1864.81   35.50
   6  -2  -5 1898.91   35.70
   6   2  -5 1890.41   38.00
  -6   2   5 1902.31   40.50
   6   2  -5 1832.52   42.20
  -6   2   5 1934.71   38.60
  -6   2   5 1877.81   39.20
   6   2  -5 1833.52   33.80
   6   2  -5 1816.32   33.80
   4  -2  -5 2209.88   38.90
  -4  -2   5 2276.67   44.40
  -4  -2   5 2169.78   38.70
   4  -2  -5 2272.07   40.70
  -4  -2   5 2242.48   42.10
   4  -2  -5 2196.48   38.80
   4  -2  -5 2289.07   41.10
   4   2  -5 2245.28   43.60
  -4   2   5 2259.27   41.20
   4   2  -5 2266.27   42.70
   4   2  -5 2165.98   38.60
   4   2  -5 2256.17   40.50
  -4   2   5 2262.67   39.90
   4   2  -5 2216.18   38.00
  -4   2   5 2234.88   43.30
  -4   2   5 2239.88   43.60
   4   2  -5 2235.58   39.70
   2  -2  -5 1792.22   32.40
   2  -2  -5 1744.13   32.20
  -2  -2   5 1716.23   31.20
  -2  -2   5 1720.93   33.90
   2  -2  -5 1719.63   32.70
  -2  -2   5 1722.53   31.80
   2  -2  -5 1712.63   32.20
  -2  -2   5 1712.43   34.90
   2   2  -5 1733.23   31.70
   2   2  -5 1727.73   33.30
  -2   2   5 1762.22   33.40
  -2   2   5 1744.63   33.90
  -2   2   5 1683.23   32.50
   2   2  -5 1767.42   32.20
  -2   2   5 1730.93   31.60
   2   2  -5 1664.53   29.30
   0  -2   5 1837.12   34.10
   0  -2  -5 1844.82   34.70
   0  -2  -5 1868.61   35.70
   0  -2  -5 1784.62   32.80
   0  -2  -5 1863.71   35.60
   0  -2   5 1863.81   36.20
   0  -2   5 1865.21   35.10
   0  -2   5 1847.32   35.80
   0  -2  -5 1871.21   35.80
   0   2   5 1854.51   34.80
   0   2   5 1814.52   34.20
   0   2  -5 1799.52   34.00
   0   2  -5 1855.71   35.50
   0   2   5 1788.72   35.70
   0   2   5 1852.71   32.70
   0   2   5 1898.21   34.90
   0   2  -5 1860.51   36.30
   0   2  -5 1846.32   36.30
   0   2  -5 1831.42   35.90
   2  -2   5  682.33   17.10
   2  -2   5  723.43   16.30
   2  -2   5  693.13   17.10
  -2  -2  -5  662.03   15.90
  -2  -2  -5  701.93   17.70
  -2  -2  -5  727.93   18.60
  -2  -2  -5  656.53   26.20
   2  -2   5  692.93   14.10
  -2  -2  -5  712.53   17.60
   2   2   5  706.33   16.40
  -2   2  -5  700.03   18.50
  -2   2  -5  683.13   20.10
  -2   2  -5  693.33   17.60
  -2   2  -5  698.53   16.10
   2   2   5  679.43   14.90
   2   2   5  722.93   16.80
  -2   2  -5  686.73   18.40
   2   2   5  681.13   17.00
   4  -2   5  446.36   14.20
  -4  -2  -5  445.06   14.20
  -4  -2  -5  458.35   15.90
  -4  -2  -5  460.45   15.00
  -4  -2  -5  465.45   14.70
   4  -2   5  468.25   13.40
   4  -2   5  477.25   12.00
   4   2   5  444.96   12.20
  -4   2  -5  478.55   16.50
   4   2   5  479.05   13.70
  -4   2  -5  456.45   13.40
  -4   2  -5  479.85   16.30
  -4   2  -5  449.16   14.70
   4   2   5  455.75   13.10
   6  -2   5  299.47   10.30
  -6  -2  -5  301.87   13.00
  -6  -2  -5  292.87   12.90
   6  -2   5  295.67   11.50
  -6  -2  -5  308.47   14.60
  -6   2  -5  271.77   11.30
   6   2   5  304.07   10.80
  -6   2  -5  300.67   14.70
   6   2   5  284.37   11.30
  -6   2  -5  300.17   14.00
  -6   2  -5  267.97   12.20
  -8  -2  -5   81.69   10.10
  -8  -2  -5  107.09    8.80
  -8   2  -5   99.09   10.80
   8   2   5   89.69    6.50
   8   2   5   96.59    6.90
  -8   2  -5  103.99   10.80
 -11  -3   5    2.00    3.90
  11  -3  -5   -0.60    2.00
 -11  -3   5    7.60    6.00
 -11   3   5   -2.20    3.00
  11   3  -5    0.30    2.70
 -11   3   5    2.90    5.30
  11   3  -5    2.70    2.20
  -9  -3   5  359.66   17.00
   9  -3  -5  353.16   11.90
  -9   3   5  333.97   12.40
   9   3  -5  351.06   11.00
  -9   3   5  375.06   17.00
  -9   3   5  360.16   16.10
   9   3  -5  349.47   13.50
  -7  -3   5   72.79    7.60
   7  -3  -5   66.29    3.70
   7  -3  -5   78.69    4.80
  -7  -3   5   89.49    7.20
   7   3  -5   76.59    5.60
   7   3  -5   82.49    4.00
  -7   3   5   83.89    6.10
   7   3  -5   74.89    3.70
  -7   3   5   72.59    7.70
  -7   3   5   71.59    6.30
  -5  -3   5 1552.24   33.70
   5  -3  -5 1498.85   28.00
   5  -3  -5 1552.94   29.80
   5  -3  -5 1468.15   27.30
   5  -3  -5 1532.95   29.70
  -5  -3   5 1525.85   30.80
   5   3  -5 1542.15   31.90
   5   3  -5 1460.65   32.90
  -5   3   5 1572.84   29.20
   5   3  -5 1489.95   27.20
  -5   3   5 1549.24   32.20
  -5   3   5 1503.85   33.10
  -5   3   5 1504.45   29.10
  -5   3   5 1486.35   31.30
   5   3  -5 1539.15   28.80
   3  -3  -5  183.78    6.30
  -3  -3   5  167.28    4.70
   3  -3  -5  176.48    6.30
   3  -3  -5  173.28    5.70
   3  -3  -5  173.88    5.20
  -3  -3   5  180.88    7.10
  -3  -3   5  166.88    5.50
  -3  -3   5  184.48    8.10
  -3   3   5  182.18    6.60
   3   3  -5  180.28    6.60
   3   3  -5  168.38    5.30
  -3   3   5  174.88    7.20
  -3   3   5  176.58    5.70
   3   3  -5  168.58    4.80
   3   3  -5  177.58    5.60
  -3   3   5  179.58    7.30
   1  -3  -5 2209.58   41.00
  -1  -3   5 2154.78   37.70
   1  -3  -5 2229.88   41.10
  -1  -3   5 2208.28   40.50
  -1  -3   5 2164.28   38.80
   1  -3  -5 2158.08   40.10
  -1  -3   5 2197.68   42.10
   1  -3  -5 2178.78   40.50
  -1   3   5 2101.29   38.50
  -1   3   5 2207.28   41.40
   1   3  -5 2229.78   41.00
   1   3  -5 2202.68   41.50
   1   3  -5 2163.08   38.90
  -1   3   5 2205.18   41.60
  -1   3   5 2182.48   40.00
   1   3  -5 2152.68   41.90
   1  -3   5   35.70    2.50
   1  -3   5   33.30    2.00
   1  -3   5   40.90    4.10
  -1  -3  -5   37.50    3.90
  -1  -3  -5   33.20    3.60
   1  -3   5   44.50    4.60
  -1  -3  -5   45.60    4.00
   1  -3   5   37.60    2.80
  -1   3  -5   38.50    4.50
   1   3   5   39.60    3.60
  -1   3  -5   33.30    3.20
   1   3   5   32.20    2.60
  -1   3  -5   41.20    4.40
   1   3   5   35.70    3.10
   1   3   5   31.80    2.30
  -1   3  -5   34.70    2.80
   1   3   5   30.00    3.10
   3  -3   5 1062.29   24.30
  -3  -3  -5 1089.09   26.30
  -3  -3  -5 1069.79   25.70
   3  -3   5 1091.89   21.60
   3  -3   5 1093.69   23.10
  -3  -3  -5 1093.49   25.40
   3  -3   5 1084.79   23.50
   3  -3   5 1121.09   25.20
   3   3   5 1091.49   24.40
  -3   3  -5 1067.09   23.10
   3   3   5 1080.09   22.70
  -3   3  -5 1092.09   27.20
  -3   3  -5 1039.10   25.30
   3   3   5 1105.79   24.20
  -3   3  -5 1137.89   26.80
   5  -3   5  123.89    5.80
  -5  -3  -5  121.39    8.20
   5  -3   5  132.69    7.10
  -5  -3  -5  123.69    8.20
   5  -3   5  124.99    7.70
  -5  -3  -5  120.29    9.20
   5   3   5  124.19    6.40
  -5   3  -5  117.59    7.80
  -5   3  -5  124.39    9.00
  -5   3  -5  117.59    6.70
  -5   3  -5  123.49    9.40
   5   3   5  118.29    6.80
  -7  -3  -5  417.86   18.20
  -7  -3  -5  401.96   16.20
   7  -3   5  416.66   15.20
  -7   3  -5  407.56   17.70
   7   3   5  417.66   14.50
   7   3   5  414.76   13.90
  -7   3  -5  393.46   18.30
 -10  -4   5   75.29   10.00
 -10  -4   5   90.49   10.70
  10   4  -5   71.39    5.10
 -10   4   5   59.69    8.90
 -10   4   5   67.69    8.90
  10   4  -5   71.59    7.50
   8  -4  -5    0.40    1.40
  -8  -4   5    7.00    3.80
   8  -4  -5    1.60    1.40
  -8  -4   5    1.60    3.90
  -8   4   5    2.80    3.30
  -8   4   5   -3.00    2.30
   8   4  -5   -0.50    1.00
   8   4  -5   -0.20    1.80
  -8   4   5    1.40    2.20
   6  -4  -5  133.69    6.10
   6  -4  -5  118.29    5.40
  -6  -4   5  140.39    8.60
  -6  -4   5  137.59    6.50
   6  -4  -5  123.29    5.10
  -6   4   5  114.79    6.80
   6   4  -5  121.09    5.20
  -6   4   5  123.49    8.30
   6   4  -5  116.49    4.40
  -6   4   5  130.39    5.80
   6   4  -5  124.09    6.70
  -6   4   5  117.69    7.00
   4  -4  -5  177.18    6.00
  -4  -4   5  189.48    7.70
   4  -4  -5  211.88    7.20
   4  -4  -5  182.18    5.80
   4  -4  -5  182.38    6.50
  -4  -4   5  180.18    5.90
   4   4  -5  179.18    7.60
  -4   4   5  172.68    6.20
  -4   4   5  174.68    7.70
   4   4  -5  173.58    6.10
  -4   4   5  164.38    6.20
  -4   4   5  175.68    8.20
   2  -4  -5  130.89    5.60
  -2  -4   5  127.99    5.60
  -2  -4   5  126.89    6.60
   2  -4  -5  127.19    4.50
   2  -4  -5  127.89    5.60
   2  -4  -5  138.89    5.80
  -2  -4   5  122.59    3.80
   2   4  -5  123.19    4.10
  -2   4   5  126.49    5.50
  -2   4   5  121.89    5.70
  -2   4   5  132.09    5.40
  -2   4   5  146.09    6.40
   2   4  -5  133.59    5.80
   0  -4  -5  974.30   21.60
   0  -4   5  976.20   19.50
   0  -4  -5  971.20   21.00
   0  -4   5 1021.00   23.10
   0  -4   5  973.40   19.00
   0  -4   5  992.50   21.90
   0  -4  -5  983.70   22.20
   0  -4  -5 1008.90   22.00
   0   4  -5  970.30   22.10
   0   4  -5 1004.30   22.30
   0   4   5  969.60   22.10
   0   4   5  993.30   21.30
   0   4  -5  981.70   23.30
   0   4   5  983.10   21.20
   0   4  -5  954.30   19.00
   0   4   5  994.90   21.00
  -2  -4  -5  421.16   13.20
   2  -4   5  427.56   13.30
  -2  -4  -5  429.56   13.40
   2  -4   5  430.26   11.20
  -2  -4  -5  422.46   13.60
   2  -4   5  423.46   13.20
   2  -4   5  433.96   11.40
  -2   4  -5  439.36   13.80
   2   4   5  424.86   11.00
   2   4   5  427.96   12.40
   2   4   5  435.86   12.20
  -2   4  -5  437.46   13.60
  -2   4  -5  430.26   14.70
   4  -4   5  468.75   13.50
   4  -4   5  422.66   11.90
  -4  -4  -5  482.55   15.60
   4  -4   5  488.95   13.70
  -4  -4  -5  468.15   16.10
  -4  -4  -5  472.45   15.70
   4  -4   5  477.35   15.10
  -4   4  -5  462.35   15.40
   4   4   5  489.25   14.10
  -4   4  -5  481.05   17.40
   4   4   5  467.85   14.40
  -4   4  -5  472.35   16.30
   4   4   5  449.46   12.90
   6  -4   5  432.56   15.60
  -6  -4  -5  452.25   16.70
  -6  -4  -5  435.46   17.50
   6   4   5  439.76   14.00
   6   4   5  427.06   14.20
  -6   4  -5  435.46   17.40
  -6   4  -5  416.36   18.20
 -11  -5   5  219.58   15.20
  11  -5  -5  234.18   10.30
 -11  -5   5  250.87   16.60
  11   5  -5  252.17   12.80
 -11   5   5  225.38   14.80
 -11   5   5  244.58   15.20
  -9  -5   5   13.90    6.00
   9  -5  -5   15.00    3.20
   9  -5  -5   15.70    2.90
  -9   5   5   18.10    5.30
  -9   5   5   12.90    4.40
   9   5  -5    7.70    3.10
   9   5  -5    5.90    1.90
  -9   5   5    9.60    3.00
  -7  -5   5  305.67   13.60
   7  -5  -5  319.87    9.60
   7  -5  -5  308.37   10.50
  -7   5   5  297.37   11.70
  -7   5   5  322.97   14.20
  -7   5   5  310.27   12.50
   7   5  -5  314.17   12.30
   7   5  -5  308.97    9.80
   7   5  -5  304.07    8.90
   5  -5  -5    2.60    1.80
  -5  -5   5    3.40    2.10
   5  -5  -5    4.60    1.60
  -5  -5   5   -0.30    1.30
   5  -5  -5    3.00    1.40
   5   5  -5    1.50    0.90
  -5   5   5    4.90    1.90
   5   5  -5    2.20    1.30
   5   5  -5    0.70    1.60
  -5   5   5    3.40    2.10
  -5   5   5    0.70    2.40
  -5   5   5    2.20    1.50
   3  -5  -5  468.95   11.60
   3  -5  -5  483.45   12.90
   3  -5  -5  476.25   12.70
   3  -5  -5  480.95   12.20
  -3  -5   5  473.65   12.40
  -3  -5   5  481.25   14.40
  -3   5   5  499.65   14.30
  -3   5   5  481.45   13.60
   3   5  -5  489.25   13.60
   3   5  -5  479.15   12.40
  -3   5   5  480.15   12.60
   1  -5  -5   83.79    5.10
   1  -5  -5   73.79    3.50
   1  -5  -5   89.09    5.10
   1  -5  -5   80.39    4.60
  -1  -5   5   89.09    3.30
  -1  -5   5   90.69    6.00
  -1  -5   5   81.19    4.80
   1   5  -5   85.89    4.90
  -1   5   5   83.59    5.10
  -1   5   5   80.59    4.60
   1  -5   5  665.73   17.60
  -1  -5  -5  685.83   17.10
  -1  -5  -5  690.23   17.50
  -1  -5  -5  657.83   16.40
   1  -5   5  672.53   14.90
   1  -5   5  652.33   14.90
   1  -5   5  661.33   18.20
  -1  -5  -5  689.73   18.20
   1   5   5  665.43   16.30
  -1   5  -5  656.03   17.80
   1   5   5  691.83   17.00
   1   5   5  695.33   15.40
  -1   5  -5  696.73   17.80
  -1   5  -5  673.53   19.20
  -3  -5  -5  210.68    9.70
  -3  -5  -5  209.78    9.70
   3  -5   5  213.48    7.90
   3  -5   5  227.68    8.10
   3  -5   5  214.68    9.70
  -3  -5  -5  205.18    9.90
   3  -5   5  218.78    9.70
   3   5   5  210.98    7.80
  -3   5  -5  213.38    9.70
   3   5   5  202.48    8.80
  -3   5  -5  224.08   10.00
  -3   5  -5  230.88   11.30
   3   5   5  210.58    8.30
  -5  -5  -5  316.87   13.60
  -5  -5  -5  336.27   14.30
   5  -5   5  339.17   13.30
   5  -5   5  318.87   11.50
  -5  -5  -5  331.27   13.70
  -5   5  -5  290.57   12.90
  -5   5  -5  326.17   14.00
   5   5   5  312.47   11.40
  -5   5  -5  354.26   16.00
   5   5   5  322.07   11.30
   7  -5   5   33.10    5.10
  -7  -5  -5   18.10    5.40
  -7  -5  -5   22.50    5.40
  -7   5  -5   31.50    6.80
  -7   5  -5   28.20    5.90
   7   5   5   23.80    4.20
   7   5   5   21.20    3.80
  10  -6  -5    5.90    2.50
 -10  -6   5   17.60    6.80
  10  -6  -5   14.80    3.60
 -10   6   5    7.80    5.10
  10   6  -5    8.90    3.80
 -10   6   5    9.20    5.10
   8  -6  -5   95.49    6.20
  -8  -6   5   77.99    8.40
   8  -6  -5   93.09    5.50
  -8   6   5   86.19    7.60
  -8   6   5   78.29    6.00
   8   6  -5   83.89    5.50
   8   6  -5   72.79    6.60
  -8   6   5   77.89    5.90
  -8   6   5   96.59    8.90
  -6  -6   5   -1.30    1.90
  -6  -6   5    3.20    3.20
   6  -6  -5    0.30    1.50
   6  -6  -5    2.10    1.70
  -6   6   5    2.20    2.20
  -6   6   5    2.40    1.80
   6   6  -5   -1.70    1.40
  -6   6   5   -1.40    2.60
   6   6  -5    3.00    1.70
  -4  -6   5   44.60    3.90
   4  -6  -5   52.59    4.40
   4  -6  -5   49.10    3.40
   4  -6  -5   55.69    3.80
  -4  -6   5   54.09    5.80
  -4   6   5   57.39    5.30
  -4   6   5   61.99    5.10
   4   6  -5   49.90    3.80
  -4   6   5   47.80    3.70
   4   6  -5   40.00    4.50
   2  -6  -5  455.55   13.20
  -2  -6   5  477.65   15.00
   2  -6  -5  479.35   13.60
   2  -6  -5  476.25   12.60
   2  -6  -5  452.55   12.00
  -2  -6   5  453.25   13.10
   2   6  -5  457.65   13.10
  -2   6   5  484.05   14.20
  -2   6   5  463.75   13.00
   2   6  -5  471.05   12.80
   0  -6  -5   86.89    5.40
   0  -6   5   78.39    3.90
   0  -6   5   88.39    6.00
   0  -6   5   92.59    6.60
   0  -6  -5   80.99    5.70
   0  -6  -5   79.69    5.10
   0   6  -5   94.69    6.60
   0   6   5   80.39    4.70
   0   6   5   91.99    5.40
   0   6  -5   86.19    5.20
   2  -6   5  625.54   18.10
   2  -6   5  614.14   15.10
   2  -6   5  628.14   14.80
  -2  -6  -5  621.14   17.40
  -2  -6  -5  730.13   19.50
  -2  -6  -5  591.94   17.30
   2  -6   5  610.34   17.70
  -2  -6  -5  610.64   18.30
   2   6   5  618.84   15.40
   2   6   5  606.14   15.90
  -2   6  -5  628.34   17.50
   2   6   5  617.54   17.20
  -2   6  -5  606.64   19.40
  -4  -6  -5  313.87   13.20
   4  -6   5  348.37   13.50
   4  -6   5  344.97   11.50
  -4  -6  -5  342.57   13.30
  -4  -6  -5  326.57   13.20
   4   6   5  345.87   11.30
  -4   6  -5  346.37   15.50
   4   6   5  328.17   12.20
   4   6   5  314.67   11.20
  -4   6  -5  317.77   13.00
  -6  -6  -5  156.08   10.20
   6  -6   5  142.09    8.00
   6  -6   5  143.79    9.20
  -6  -6  -5  132.59   10.20
   6   6   5  128.79    7.50
   6   6   5  145.49    7.90
  -6   6  -5  122.49    9.10
  -6   6  -5  131.99   10.90
   9  -7  -5    3.30    2.50
   9  -7  -5    4.80    2.60
  -9  -7   5    6.30    5.20
  -9   7   5    2.60    1.90
  -9   7   5    1.20    4.60
   9   7  -5    3.80    3.10
  -7  -7   5  516.75   19.10
  -7  -7   5  501.95   16.40
   7  -7  -5  520.45   14.30
   7  -7  -5  518.35   15.30
  -7   7   5  489.65   15.20
   7   7  -5  480.65   14.80
   7   7  -5  512.75   17.20
  -7   7   5  525.15   19.20
  -7   7   5  507.45   16.80
  -5  -7   5  187.88    9.50
   5  -7  -5  179.58    7.30
   5  -7  -5  177.48    6.70
  -5  -7   5  175.08    7.30
   5  -7  -5  170.78    7.80
   5   7  -5  181.68    8.80
   5   7  -5  188.18    8.00
  -5   7   5  174.48    7.90
  -5   7   5  178.98    9.80
  -5   7   5  181.58    9.10
   3  -7  -5 1066.99   22.80
  -3  -7   5 1096.29   24.60
   3  -7  -5 1079.59   24.50
   3  -7  -5 1080.19   23.30
  -3  -7   5 1055.09   26.80
   3   7  -5 1052.09   24.10
   3   7  -5 1053.69   24.70
  -3   7   5 1096.19   24.50
  -3   7   5 1043.70   25.10
  -3   7   5 1105.09   26.20
   1  -7  -5   34.30    3.80
   1  -7  -5   34.10    4.10
  -1  -7   5   30.80    2.80
   1  -7  -5   35.40    4.30
  -1  -7   5   43.80    5.20
  -1  -7   5   34.80    4.40
   1   7  -5   34.30    3.60
   1   7  -5   32.30    3.50
  -1   7   5   38.20    4.20
   1   7  -5   31.40    3.60
   1  -7   5  475.35   12.30
   1  -7   5  480.05   15.10
  -1  -7  -5  470.35   15.70
  -1  -7  -5  482.65   14.60
   1  -7   5  506.35   16.40
  -1  -7  -5  471.95   14.70
   1   7   5  490.95   13.40
  -1   7  -5  475.65   14.10
  -1   7  -5  473.45   16.70
   1   7   5  485.95   14.70
   3  -7   5   65.49    4.90
   3  -7   5   72.99    7.20
  -3  -7  -5   69.99    6.00
  -3  -7  -5   75.09    6.20
  -3  -7  -5   79.59    6.70
   3  -7   5   72.19    6.40
  -3   7  -5   66.09    5.70
  -3   7  -5   78.39    8.40
   3   7   5   65.19    4.90
   3   7   5   79.69    6.10
   3   7   5   64.79    4.80
   5  -7   5  160.78    8.30
  -5  -7  -5  157.38    9.90
   5  -7   5  167.28    9.40
   5   7   5  180.58    9.70
  -5   7  -5  164.48   11.80
   5   7   5  168.68    8.30
  10  -8  -5  218.98   10.30
  10  -8  -5  206.58    9.70
 -10   8   5  208.98   11.00
 -10   8   5  219.68   14.50
  10   8  -5  208.08   11.70
   8  -8  -5  955.80   24.10
  -8  -8   5  940.81   29.50
   8  -8  -5  911.81   22.80
   8   8  -5  905.91   23.70
   8   8  -5  985.50   27.10
  -8   8   5  930.81   28.90
  -8   8   5  951.60   25.10
  -6  -8   5  545.25   18.10
   6  -8  -5  540.65   16.00
   6  -8  -5  535.25   15.00
  -6   8   5  542.75   17.70
  -6   8   5  513.55   16.20
   6   8  -5  542.55   16.20
  -6   8   5  577.34   19.70
   6   8  -5  540.35   17.50
   4  -8  -5  660.73   16.90
  -4  -8   5  622.74   17.40
  -4  -8   5  675.83   20.50
   4  -8  -5  641.04   17.60
  -4   8   5  657.53   18.10
  -4   8   5  669.93   19.50
  -4   8   5  668.53   19.70
   4   8  -5  679.93   18.10
   4   8  -5  663.53   18.50
  -2  -8   5 1090.09   27.90
   2  -8  -5 1048.70   23.00
   2  -8  -5 1076.29   25.00
   2  -8  -5 1073.49   24.00
  -2  -8   5 1031.60   25.30
   2   8  -5 1045.00   24.70
  -2   8   5 1047.00   24.80
   2   8  -5 1031.40   24.00
   0  -8  -5  150.88    7.90
   0  -8   5  152.68    9.30
   0  -8   5  148.69    8.10
   0  -8  -5  154.58    7.40
   0  -8  -5  146.19    8.40
   0  -8   5  146.59    5.90
   0   8   5  145.99    7.80
   0   8   5  154.38    6.80
   0   8  -5  142.49    7.30
  -2  -8  -5  478.35   15.70
  -2  -8  -5  462.45   16.40
   2  -8   5  472.75   16.40
   2  -8   5  469.75   13.20
  -2  -8  -5  466.65   15.10
   2  -8   5  452.05   16.20
  -2   8  -5  452.85   14.20
  -2   8  -5  479.55   17.90
   2   8   5  448.76   14.90
   2   8   5  458.85   13.30
  -4  -8  -5  179.48    9.90
  -4  -8  -5  156.88    9.70
   4  -8   5  168.98   10.40
   4  -8   5  153.78    8.00
  -4   8  -5  156.68   11.10
  -4   8  -5  152.08    8.00
   4   8   5  159.08    8.00
   4   8   5  157.08    9.00
  -6  -8  -5   28.90    5.90
   6  -8   5   28.90    4.30
  -6  -8  -5   22.30    4.30
   6  -8   5   32.30    5.60
  -6   8  -5   43.00    8.00
   6   8   5   25.30    4.30
  -9  -9   5  636.44   25.00
   9  -9  -5  604.34   18.60
  -9   9   5  641.74   23.80
   9   9  -5  560.74   18.10
   9   9  -5  653.33   21.80
  -9   9   5  628.04   20.30
   7  -9  -5  288.47   11.50
  -7  -9   5  286.17   13.30
   7  -9  -5  285.97   10.80
  -7   9   5  286.17   12.30
   7   9  -5  284.47   11.80
   7   9  -5  311.37   13.20
  -7   9   5  281.87   14.50
   5  -9  -5  562.04   16.50
   5  -9  -5  596.34   17.00
  -5  -9   5  524.95   16.20
  -5  -9   5  577.44   19.50
   5  -9  -5  572.74   16.30
   5   9  -5  567.74   17.20
  -5   9   5  593.94   17.90
   5   9  -5  592.04   18.00
  -5   9   5  585.44   19.70
  -3  -9   5  324.17   12.60
   3  -9  -5  327.47   12.00
   3  -9  -5  306.37   10.80
  -3  -9   5  299.17   13.70
  -3   9   5  313.37   11.90
  -3   9   5  320.87   12.30
   3   9  -5  307.77   11.60
   3   9  -5  295.87   11.20
   1  -9  -5  689.93   20.60
   1  -9  -5  747.03   20.20
  -1  -9   5  715.63   20.60
   1  -9  -5  707.33   18.80
  -1  -9   5  715.63   22.20
  -1   9   5  704.93   17.50
   1   9  -5  722.23   19.50
  -1   9   5  696.83   19.80
  -1  -9  -5   -1.60    2.20
   1  -9   5    0.10    3.10
  -1  -9  -5   -0.80    2.00
  -1  -9  -5    0.20    2.30
   1  -9   5    1.30    1.70
   1  -9   5    0.00    2.30
   1   9   5   -3.30    1.90
  -1   9  -5   -1.50    1.80
  -3  -9  -5  627.34   19.10
   3  -9   5  591.64   16.70
   3  -9   5  611.94   20.00
  -3  -9  -5  610.24   19.50
   3  -9   5  593.14   19.70
  -3   9  -5  642.24   22.60
   3   9   5  619.84   19.20
  -3   9  -5  610.34   17.90
   5  -9   5   33.50    4.50
  -5  -9  -5   27.50    4.90
   5  -9   5   32.50    6.10
  -5  -9  -5   29.20    5.70
   5   9   5   29.10    4.90
  -5   9  -5   30.80    6.40
  -8 -10   5   58.39    8.90
   8 -10  -5   46.20    5.30
   8 -10  -5   45.90    5.10
   8  10  -5   50.89    6.30
  -8  10   5   56.89    6.90
  -8  10   5   60.29    8.20
   8  10  -5   42.30    5.70
  -6 -10   5   13.50    3.90
   6 -10  -5    9.90    3.20
   6 -10  -5    5.50    2.70
   6  10  -5    9.30    3.50
  -6  10   5    9.80    2.90
  -6  10   5   10.40    4.00
   6  10  -5    8.80    3.20
  -4 -10   5    3.30    3.00
  -4 -10   5    0.00    3.40
   4 -10  -5   -2.00    2.20
   4 -10  -5    4.80    2.90
  -4  10   5    1.30    3.00
   4  10  -5    2.00    1.80
  -4  10   5    0.60    2.50
   2 -10  -5  109.19    7.40
   2 -10  -5  109.29    6.50
  -2 -10   5   94.49    7.20
  -2 -10   5  103.19    9.10
   2  10  -5   93.69    6.60
  -2  10   5  106.39    7.30
   0 -10   5   17.50    5.00
   0 -10   5   16.00    4.50
   0 -10  -5   25.00    4.00
   0 -10  -5   23.50    4.40
   0  10   5   18.10    4.00
   0  10  -5   12.80    3.50
   2 -10   5   88.79    5.90
   2 -10   5  102.89    9.10
  -2 -10  -5   93.89    7.70
   2 -10   5   96.49    8.80
  -2  10  -5   85.99    6.80
   2  10   5   90.39    7.30
  -4 -10  -5    6.90    3.50
   4 -10   5    7.80    4.50
   4 -10   5   14.50    3.50
   4  10   5    5.50    3.30
  -4  10  -5   10.10    4.40
   7 -11  -5   32.30    4.30
   7 -11  -5   33.80    4.90
   7  11  -5   30.90    5.40
  -7  11   5   32.20    5.70
   7  11  -5   17.20    4.60
  -7  11   5   35.60    5.80
   5 -11  -5  384.56   13.80
   5 -11  -5  370.26   13.30
  -5 -11   5  391.16   17.30
   5  11  -5  355.76   14.50
  -5  11   5  389.36   16.30
  -5  11   5  350.66   14.30
  -3 -11   5  154.98    9.80
   3 -11  -5  147.09    8.70
   3 -11  -5  150.58    8.40
  -3 -11   5  151.38   11.30
   3  11  -5  170.58    9.60
  -3  11   5  163.18    9.50
   1 -11  -5   98.09    7.50
  -1 -11   5   97.19    7.90
   1 -11  -5   99.09    6.70
  -1 -11   5  108.49    9.70
   1  11  -5   96.29    7.40
  -1  11   5   98.59    7.10
   1 -11   5   59.29    8.20
  -1 -11  -5   55.89    6.50
  -1 -11  -5   67.49    6.90
   1 -11   5   62.29    7.50
   1  11   5   66.19    7.20
  -3 -11  -5   16.90    4.40
   3 -11   5   21.80    5.60
   3  11   5   12.30    3.30
  -3  11  -5   14.30    3.70
  -6 -12   5  264.07   17.30
   6  12  -5  279.67   12.90
   4 -12  -5  247.08   11.70
   4 -12  -5  236.88   10.80
  -4 -12   5  238.88   14.20
   4 -12  -5  239.98   11.00
  -4 -12   5  253.17   12.70
   4  12  -5  233.58   11.90
  -4  12   5  246.38   12.20
  -2 -12   5   73.59    8.20
  -2 -12   5   77.89    9.90
   2 -12  -5   77.79    6.40
   2 -12  -5   81.09    7.40
   2  12  -5   75.49    7.90
  -2  12   5   77.39    7.90
   0 -12  -5  411.06   15.00
   0 -12   5  384.96   18.00
   0 -12   5  410.26   17.20
   0  12   5  389.76   15.20
   0  12  -5  393.66   15.20
 -12   0   6  114.29   12.50
  12   0  -6  100.39    6.90
 -12   0   6   85.79   11.50
 -10   0   6 1069.59   32.80
 -10   0   6 1086.59   32.70
  10   0  -6 1056.49   24.20
  10   0  -6 1043.50   26.30
  -8   0   6 1342.97   31.80
  -8   0   6 1375.56   35.50
   8   0  -6 1359.06   27.30
   8   0  -6 1345.07   30.50
   8   0  -6 1425.16   28.80
   6   0  -6 2861.51   55.29
  -6   0   6 2988.00   59.39
   6   0  -6 2903.61   62.09
  -6   0   6 2970.80   53.59
   6   0  -6 2953.60   52.79
  -6   0   6 2991.60   57.79
   6   0  -6 2901.61   51.29
   6   0  -6 3046.70   54.19
  -4   0   6 2147.99   40.80
  -4   0   6 2127.49   42.70
   4   0  -6 2167.78   37.40
   4   0  -6 2181.88   38.30
  -4   0   6 2209.88   43.10
  -4   0   6 1961.50   37.50
   4   0  -6 2142.79   39.70
  -2   0   6 7704.33  134.49
   2   0  -6 7968.00  140.69
  -2   0   6 7775.72  131.89
  -2   0   6 7896.41  134.59
  -2   0   6 7866.41  131.69
   2   0  -6 7872.81  143.09
   2   0  -6 7714.93  138.19
   2   0  -6 7404.46  135.49
  -2   0   6 7968.90  134.29
   0   0   6  205.38    8.30
   0   0  -6  215.68    8.60
   0   0   6  225.98    6.60
   0   0   6  212.28    7.20
   0   0   6  217.08    7.60
   0   0  -6  214.38    7.70
   0   0  -6  198.78    7.30
   0   0  -6  209.28    7.90
   0   0  -6  210.98   10.10
   0   0   6  211.58    7.50
   2   0   6 4374.86   79.19
   2   0   6 4355.76   78.99
   2   0   6 4272.77   74.99
  -2   0  -6 4407.36   78.89
  -2   0  -6 4530.95   81.49
   2   0   6 4420.46   78.29
  -2   0  -6 4407.56   80.19
  -2   0  -6 4145.69   86.39
   4   0   6   40.40    5.00
   4   0   6   36.30    3.20
  -4   0  -6   34.20    4.70
   4   0   6   42.50    4.80
  -4   0  -6   37.80    5.30
  -4   0  -6   41.20    5.80
  -4   0  -6   39.00    5.20
   6   0   6  644.44   19.10
  -6   0  -6  626.34   19.80
  -6   0  -6  645.84   22.90
  -6   0  -6  643.14   23.00
 -11  -1   6    5.30    6.30
 -11  -1   6    0.60    4.80
  11  -1  -6    3.40    2.50
 -11   1   6   -1.00    4.80
 -11   1   6   -3.80    5.40
  11   1  -6    5.90    3.00
  11   1  -6    4.90    2.20
   9  -1  -6  468.15   13.00
  -9  -1   6  497.45   20.10
   9  -1  -6  470.95   14.40
  -9  -1   6  464.75   16.50
   9   1  -6  465.25   15.40
  -9   1   6  488.75   19.00
  -9   1   6  430.86   15.50
  -9   1   6  489.55   19.60
   9   1  -6  464.65   12.80
   7  -1  -6  374.36   10.60
   7  -1  -6  348.47   11.40
  -7  -1   6  367.16   13.80
  -7  -1   6  355.16   14.90
   7   1  -6  347.97    9.10
  -7   1   6  372.96   13.50
  -7   1   6  371.06   14.90
   7   1  -6  375.56   10.20
   7   1  -6  358.56   12.10
  -5  -1   6  113.39    5.80
   5  -1  -6  120.39    4.90
   5  -1  -6  124.79    5.40
  -5  -1   6  114.59    7.50
  -5  -1   6  123.59    7.60
  -5   1   6  124.09    7.50
  -5   1   6  114.19    5.40
  -5   1   6  110.99    7.20
   5   1  -6  116.69    3.90
  -5   1   6  109.09    4.00
   5   1  -6  112.69    4.20
   5   1  -6  130.69    6.30
   5   1  -6  113.39    7.10
   5   1  -6  114.19    5.00
   3  -1  -6 1978.50   35.60
  -3  -1   6 1903.41   35.10
  -3  -1   6 1955.10   39.40
   3  -1  -6 1943.31   36.80
   3  -1  -6 1901.31   35.50
   3  -1  -6 1892.41   33.70
  -3  -1   6 2025.40   38.40
   3  -1  -6 1935.81   36.90
  -3   1   6 1938.81   34.60
  -3   1   6 1912.11   38.70
  -3   1   6 1891.01   37.90
   3   1  -6 1957.60   37.60
   3   1  -6 2001.30   35.60
   3   1  -6 1965.20   36.40
   3   1  -6 1927.01   34.20
  -3   1   6 1994.70   37.90
  -1  -1   6   34.20    3.90
   1  -1  -6   39.40    3.30
   1  -1  -6   37.30    3.20
   1  -1  -6   35.10    3.80
   1  -1  -6   37.20    2.70
  -1  -1   6   38.80    3.20
  -1  -1   6   39.90    4.40
  -1  -1   6   36.60    2.80
   1   1  -6   34.10    3.00
  -1   1   6   38.20    3.10
   1   1  -6   37.30    3.30
   1   1  -6   36.20    3.90
  -1   1   6   39.00    4.00
  -1   1   6   39.90    4.20
  -1   1   6   33.30    2.70
   1   1  -6   33.50    2.10
  -1   1   6   40.00    2.60
  -1   1   6   39.40    3.00
  -1  -1  -6  459.65   17.80
   1  -1   6  478.55   13.40
  -1  -1  -6  485.35   14.50
  -1  -1  -6  491.85   13.60
  -1  -1  -6  449.06   12.30
  -1  -1  -6  474.05   13.70
   1  -1   6  468.25   12.50
   1  -1   6  454.35   12.00
   1  -1   6  489.55   14.00
  -1   1  -6  481.45   14.70
   1   1   6  506.75   12.50
   1   1   6  491.85   13.00
  -1   1  -6  463.25   16.00
  -1   1  -6  467.55   13.60
   1   1   6  482.85   13.70
   1   1   6  479.15   13.30
  -1   1  -6  471.45   12.90
  -1   1  -6  484.75   13.80
   1   1   6  468.85   10.50
   3  -1   6  347.57   11.20
   3  -1   6  333.97   11.30
  -3  -1  -6  347.27   12.30
  -3  -1  -6  330.37   13.30
   3  -1   6  336.67   11.80
  -3  -1  -6  326.07   11.50
  -3  -1  -6  335.97   12.40
  -3   1  -6  327.07   12.60
   3   1   6  332.17    9.40
  -3   1  -6  333.17   12.30
   3   1   6  343.67   11.30
  -3   1  -6  345.17   13.50
   3   1   6  359.56   11.60
   3   1   6  330.17   11.80
  -3   1  -6  348.17   11.50
   5  -1   6    5.60    2.50
  -5  -1  -6    5.70    3.90
  -5  -1  -6    3.10    2.20
   5  -1   6    5.70    3.00
  -5  -1  -6    6.80    3.10
   5   1   6    4.60    1.70
   5   1   6    6.20    2.70
  -5   1  -6    4.60    3.00
  -5   1  -6    3.80    2.80
  -5   1  -6    1.70    3.50
  -5   1  -6    0.40    2.90
  -7  -1  -6  173.28   10.70
  -7  -1  -6  174.88   12.60
   7  -1   6  162.68    9.30
  -7   1  -6  164.28   12.00
   7   1   6  173.48    9.50
  -7   1  -6  152.68   11.30
  -7   1  -6  160.18   10.00
 -12  -2   6  116.39   13.60
  12  -2  -6   93.79    7.00
 -12  -2   6  115.69   13.90
 -12   2   6  107.29   12.50
 -12   2   6   94.79   12.00
  12   2  -6  101.69    8.00
  10  -2  -6  128.09    6.80
 -10  -2   6  131.79   12.20
 -10  -2   6  122.79   11.30
 -10   2   6  118.49   11.00
 -10   2   6  128.29   12.70
  10   2  -6  109.79    6.10
  10   2  -6  121.49    8.10
  -8  -2   6  664.53   20.40
   8  -2  -6  673.53   16.90
   8  -2  -6  653.23   17.00
  -8  -2   6  666.03   22.50
  -8   2   6  631.94   21.90
   8   2  -6  636.24   15.00
  -8   2   6  645.54   20.90
   8   2  -6  644.24   18.70
  -8   2   6  629.14   18.80
   6  -2  -6 1151.98   24.30
   6  -2  -6 1157.98   24.70
  -6  -2   6 1118.79   24.40
   6  -2  -6 1158.98   23.80
  -6  -2   6 1119.39   27.80
  -6   2   6 1106.69   23.30
   6   2  -6 1160.38   26.30
   6   2  -6 1113.49   22.00
  -6   2   6 1162.98   28.40
  -6   2   6 1160.78   27.10
  -6   2   6 1121.49   22.50
  -4  -2   6  631.14   13.10
   4  -2  -6  635.04   13.40
   4  -2  -6  616.14   12.60
  -4  -2   6  636.74   18.00
   4  -2  -6  650.73   14.60
   4  -2  -6  649.24   15.30
  -4  -2   6  659.43   16.40
   4   2  -6  638.24   14.50
  -4   2   6  649.74   15.50
  -4   2   6  623.64   16.80
   4   2  -6  638.44   13.70
   4   2  -6  631.14   16.30
  -4   2   6  641.04   13.80
  -4   2   6  654.23   17.40
   4   2  -6  617.34   12.40
  -2  -2   6  433.06   11.00
   2  -2  -6  435.16   11.00
   2  -2  -6  421.46   11.50
  -2  -2   6  453.05   13.40
   2  -2  -6  446.26   12.00
  -2  -2   6  437.36   10.50
  -2  -2   6  464.35   13.20
   2  -2  -6  434.26   11.20
  -2   2   6  433.76   10.60
  -2   2   6  443.86   12.60
  -2   2   6  419.86   11.10
  -2   2   6  441.46   12.50
   2   2  -6  435.86   10.80
   2   2  -6  453.05   11.50
   2   2  -6  439.66   12.30
   0  -2  -6   74.19    4.60
   0  -2  -6   75.79    4.30
   0  -2   6   68.29    4.50
   0  -2  -6   75.99    5.00
   0  -2   6   70.79    4.70
   0  -2   6   76.09    4.10
   0  -2  -6   74.89    5.10
   0  -2   6   72.79    5.50
   0   2   6   80.09    4.50
   0   2  -6   82.19    5.20
   0   2   6   68.09    3.00
   0   2   6   93.99    5.50
   0   2  -6   72.59    5.30
   0   2  -6   71.79    4.70
   0   2   6   77.69    4.40
   0   2  -6   74.59    4.10
   0   2  -6   69.89    3.00
   0   2   6   78.89    4.20
   2  -2   6   11.50    2.30
   2  -2   6   10.10    2.70
  -2  -2  -6    7.70    2.70
  -2  -2  -6   18.10    3.10
  -2  -2  -6   15.40    3.40
   2  -2   6    8.20    2.80
  -2   2  -6   15.20    3.40
   2   2   6   14.40    2.50
  -2   2  -6    8.70    2.30
  -2   2  -6   10.50    2.70
   2   2   6   10.70    2.30
  -2   2  -6   11.80    3.30
   2   2   6   14.30    2.90
   2   2   6   10.30    1.70
   4  -2   6  141.09    8.10
  -4  -2  -6  151.48    8.90
  -4  -2  -6  157.18    9.30
   4  -2   6  149.69    7.50
  -4  -2  -6  147.79    8.50
   4   2   6  153.98    6.60
  -4   2  -6  161.38   10.00
  -4   2  -6  146.79    8.30
  -4   2  -6  157.08    9.60
   4   2   6  150.68    7.70
  -4   2  -6  157.48    7.70
  -6  -2  -6    4.00    4.40
   6  -2   6    1.10    2.40
  -6  -2  -6   -0.80    2.00
   6  -2   6    3.40    2.90
  -6   2  -6   -1.90    3.70
  -6   2  -6    0.80    3.50
   6   2   6    4.20    2.60
  -6   2  -6   -0.40    2.70
   6   2   6    1.80    1.80
 -11  -3   6  136.59   13.50
 -11  -3   6   88.89   11.00
  11  -3  -6  111.79    7.00
 -11   3   6  111.79   12.10
 -11   3   6   87.69   10.80
  11   3  -6  114.79    8.70
  -9  -3   6   -4.30    4.00
  -9  -3   6   -2.40    3.80
   9  -3  -6    1.10    1.40
   9   3  -6   -0.10    1.30
  -9   3   6   11.40    5.30
   9   3  -6    1.60    2.20
  -9   3   6    4.50    2.70
  -9   3   6   -2.50    3.30
  -7  -3   6   76.69    7.00
   7  -3  -6   79.19    4.80
  -7  -3   6   82.99    7.90
   7  -3  -6   79.39    3.80
   7  -3  -6   86.29    5.10
  -7  -3   6   70.99    6.10
   7   3  -6   78.89    5.70
  -7   3   6   82.39    4.50
  -7   3   6   73.49    6.40
  -7   3   6   89.89    8.20
  -7   3   6   82.99    6.60
  -5  -3   6  514.55   16.40
   5  -3  -6  503.55   13.00
   5  -3  -6  514.15   13.00
  -5  -3   6  495.85   14.10
   5   3  -6  490.15   11.80
  -5   3   6  498.75   15.30
  -5   3   6  502.45   15.70
  -5   3   6  464.65   13.40
  -5   3   6  496.25   12.90
   5   3  -6  493.25   14.50
  -5   3   6  505.05   12.20
   3  -3  -6   16.10    1.80
  -3  -3   6   17.40    2.40
   3  -3  -6   18.40    2.20
   3  -3  -6   19.00    2.70
  -3  -3   6   22.00    4.10
   3  -3  -6   17.70    2.20
   3  -3  -6   17.80    2.50
  -3  -3   6   17.80    3.30
  -3  -3   6   15.80    1.70
  -3   3   6   15.40    2.60
  -3   3   6   19.30    2.30
  -3   3   6   19.10    3.50
   3   3  -6   17.80    2.60
   3   3  -6   18.30    2.10
  -3   3   6   15.70    3.10
   1  -3  -6  621.64   15.60
   1  -3  -6  600.44   14.90
   1  -3  -6  630.24   15.80
  -1  -3   6  606.54   16.70
   1  -3  -6  616.94   15.00
  -1  -3   6  585.14   13.60
  -1  -3   6  616.04   17.00
  -1  -3   6  614.24   15.10
   1   3  -6  632.54   16.20
  -1   3   6  622.74   14.90
  -1   3   6  610.44   14.50
   1   3  -6  626.64   13.90
  -1   3   6  620.54   15.70
   1   3  -6  614.74   15.50
  -1   3   6  605.44   16.00
   1  -3   6   15.80    2.90
   1  -3   6   20.50    3.70
  -1  -3  -6   15.10    3.00
   1  -3   6   14.90    2.90
  -1  -3  -6   16.80    3.20
  -1  -3  -6   17.80    3.30
   1  -3   6   15.30    2.40
   1   3   6   14.10    1.90
   1   3   6   22.70    3.10
  -1   3  -6   11.60    3.00
  -1   3  -6   16.80    2.80
   1   3   6   12.50    2.40
   1   3   6    9.00    2.20
  -1   3  -6   16.90    3.10
   1   3   6   18.60    3.00
  -1   3  -6   11.70    2.10
  -3  -3  -6    2.10    2.50
   3  -3   6    0.10    2.20
  -3  -3  -6    3.80    3.00
   3  -3   6    0.30    1.70
   3  -3   6   -2.30    2.40
  -3  -3  -6    0.40    2.30
  -3   3  -6    3.30    2.40
   3   3   6    2.50    2.00
  -3   3  -6    4.50    3.00
   3   3   6   -1.30    1.40
  -3   3  -6   -1.10    1.60
   3   3   6    0.90    1.70
   3   3   6    1.00    1.10
  -3   3  -6    1.50    2.50
  -5  -3  -6   58.99    6.90
   5  -3   6   63.19    5.50
   5  -3   6   58.69    6.30
  -5  -3  -6   50.79    6.90
  -5  -3  -6   58.49    6.40
  -5   3  -6   56.09    7.00
  -5   3  -6   58.89    7.60
   5   3   6   43.00    5.10
  -5   3  -6   62.79    7.80
   5   3   6   51.79    4.40
  -7  -3  -6   55.39    8.30
  -7  -3  -6   67.99    8.00
   7  -3   6   62.59    7.00
   7   3   6   51.09    5.40
  -7   3  -6   59.99    8.40
  -7   3  -6   76.39    9.10
   7   3   6   50.89    5.80
  12  -4  -6  370.16   13.60
 -12  -4   6  311.17   18.90
 -12   4   6  343.27   19.80
  12   4  -6  357.96   15.40
 -12   4   6  409.96   22.70
 -10  -4   6   92.99   11.00
  10  -4  -6   92.39    6.60
  10   4  -6   82.19    7.40
 -10   4   6  103.69   11.60
 -10   4   6   87.59   10.50
  -8  -4   6  362.56   15.50
  -8  -4   6  349.17   16.60
   8  -4  -6  369.86   12.10
  -8   4   6  381.56   14.00
  -8   4   6  346.77   14.40
  -8   4   6  356.96   11.30
  -8   4   6  382.66   16.10
   8   4  -6  373.86   14.10
   6  -4  -6  187.58    7.30
  -6  -4   6  207.28   10.80
   6  -4  -6  186.08    6.30
  -6  -4   6  188.18    8.30
   6  -4  -6  185.18    7.40
  -6   4   6  208.98   10.70
   6   4  -6  200.38    8.90
  -6   4   6  200.48    7.40
  -6   4   6  194.88    9.30
   6   4  -6  184.48    6.80
  -6   4   6  178.78    8.30
  -4  -4   6 1017.50   21.10
   4  -4  -6 1038.20   20.60
   4  -4  -6 1004.70   21.30
   4  -4  -6 1022.40   22.20
   4  -4  -6 1068.09   22.70
  -4  -4   6 1045.00   24.50
  -4  -4   6 1022.90   26.20
   4   4  -6 1051.39   24.20
  -4   4   6 1026.10   21.80
  -4   4   6 1028.50   22.70
  -4   4   6 1010.50   24.10
   4   4  -6 1019.30   21.60
  -4   4   6 1049.79   24.70
  -2  -4   6    2.00    1.30
   2  -4  -6    1.20    1.20
   2  -4  -6    0.70    1.00
   2  -4  -6    1.50    1.60
  -2  -4   6    2.10    2.20
   2  -4  -6    0.80    1.50
  -2  -4   6    1.90    1.00
  -2   4   6    1.50    1.90
  -2   4   6    3.10    1.30
   2   4  -6   -0.20    0.90
   2   4  -6   -0.30    1.30
  -2   4   6    3.30    1.70
  -2   4   6    3.70    1.40
   0  -4   6 2502.85   47.40
   0  -4  -6 2465.15   47.60
   0  -4   6 2433.96   44.60
   0  -4  -6 2509.85   46.80
   0  -4   6 2502.05   48.90
   0  -4   6 2402.76   43.70
   0  -4  -6 2462.95   48.10
   0  -4  -6 2442.06   47.00
   0   4   6 2405.26   46.20
   0   4  -6 2482.35   48.20
   0   4  -6 2454.25   47.80
   0   4  -6 2438.76   49.30
   0   4   6 2436.66   46.40
   0   4   6 2461.45   46.40
   0   4   6 2459.05   48.00
   0   4  -6 2462.25   44.40
   2  -4   6   10.10    3.00
   2  -4   6   17.70    3.70
  -2  -4  -6   16.20    3.50
   2  -4   6   15.40    2.40
   2  -4   6   12.10    2.20
  -2  -4  -6   19.20    3.60
  -2  -4  -6   12.60    3.10
  -2   4  -6   11.90    3.40
   2   4   6   19.90    3.30
   2   4   6   11.90    2.50
   2   4   6   12.40    2.00
  -2   4  -6   18.60    3.40
  -2   4  -6   19.30    3.90
  -4  -4  -6 1189.18   30.50
  -4  -4  -6 1220.78   30.10
   4  -4   6 1209.98   29.30
  -4  -4  -6 1197.58   30.20
   4  -4   6 1176.78   26.80
  -4   4  -6 1195.18   31.80
  -4   4  -6 1124.39   29.40
  -4   4  -6 1206.08   30.90
   4   4   6 1170.68   25.90
   4   4   6 1156.38   27.40
  -6  -4  -6   50.69    6.60
  -6  -4  -6   47.60    7.40
   6  -4   6   48.00    6.40
   6   4   6   49.90    5.40
  -6   4  -6   52.49    8.00
  -6   4  -6   48.00    7.20
   6   4   6   36.70    4.40
 -11  -5   6  236.88   15.90
 -11  -5   6  225.58   15.80
 -11   5   6  212.68   14.00
 -11   5   6  217.38   10.40
 -11   5   6  215.88   14.80
  11   5  -6  228.88   12.50
   9  -5  -6    3.80    2.50
  -9  -5   6    6.40    4.60
  -9  -5   6    8.00    5.40
  -9   5   6    7.70    3.20
  -9   5   6    8.10    4.00
   9   5  -6    6.50    2.90
  -9   5   6    7.40    2.70
  -9   5   6   -0.20    3.50
   7  -5  -6   34.10    4.00
  -7  -5   6   38.20    4.70
   7  -5  -6   34.80    3.40
  -7  -5   6   35.10    5.90
  -7   5   6   41.50    6.40
  -7   5   6   38.10    4.10
   7   5  -6   41.40    3.50
  -7   5   6   37.80    5.30
   7   5  -6   39.00    4.80
   5  -5  -6  134.29    6.10
   5  -5  -6  147.99    6.80
   5  -5  -6  137.59    5.60
  -5  -5   6  134.79    7.60
  -5  -5   6  138.89    9.00
   5   5  -6  139.39    7.50
  -5   5   6  138.29    7.80
  -5   5   6  137.59    6.30
   5   5  -6  129.29    5.90
  -5   5   6  138.49    8.20
  -3  -5   6   63.29    5.60
   3  -5  -6   67.79    4.50
   3  -5  -6   72.79    4.80
  -3  -5   6   73.49    4.70
   3  -5  -6   61.89    4.20
   3  -5  -6   73.49    4.00
   3   5  -6   71.89    4.30
  -3   5   6   64.19    4.50
  -3   5   6   67.99    4.40
   3   5  -6   76.69    5.10
  -3   5   6   62.59    5.30
   1  -5  -6  277.07    9.70
  -1  -5   6  282.87   10.00
   1  -5  -6  257.27    9.70
  -1  -5   6  271.27   11.00
   1  -5  -6  258.07    8.10
   1  -5  -6  279.07    9.90
  -1   5   6  266.77    9.00
   1   5  -6  274.57    9.90
  -1   5   6  256.77    9.60
  -1   5   6  273.87    9.40
  -1  -5  -6   36.60    4.00
   1  -5   6   38.40    4.80
   1  -5   6   51.59    5.80
   1  -5   6   37.10    3.00
  -1  -5  -6   38.00    4.20
  -1  -5  -6   46.80    4.50
  -1  -5  -6   39.00    4.80
   1  -5   6   42.30    3.10
  -1   5  -6   39.50    4.80
  -1   5  -6   42.90    5.60
   1   5   6   33.60    2.90
   1   5   6   34.60    3.80
  -1   5  -6   41.40    4.80
   1   5   6   37.40    4.20
  -3  -5  -6   92.39    7.10
   3  -5   6   90.89    5.40
   3  -5   6   91.39    6.50
  -3  -5  -6   75.49    6.70
  -3  -5  -6   76.49    6.80
   3  -5   6   92.79    6.90
   3  -5   6   78.49    5.20
  -3   5  -6   82.69    7.50
  -3   5  -6   80.79    6.70
  -3   5  -6   86.79    7.00
   3   5   6   84.59    5.80
   3   5   6   77.89    5.90
   3   5   6   83.39    5.10
  -5  -5  -6  281.97   13.80
  -5  -5  -6  282.27   13.30
   5  -5   6  288.77   13.00
  -5   5  -6  299.97   15.20
   5   5   6  291.97   10.80
  -5   5  -6  283.07   13.50
   5   5   6  285.37   11.50
  10  -6  -6  658.23   19.60
 -10  -6   6  688.13   26.60
 -10   6   6  655.93   19.50
 -10   6   6  699.23   25.40
  10   6  -6  652.33   22.10
   8  -6  -6    3.30    2.40
  -8  -6   6   -2.40    3.90
   8  -6  -6    2.40    1.80
  -8   6   6   10.30    4.60
   8   6  -6    0.80    2.60
  -8   6   6    3.30    2.30
  -8   6   6    4.20    2.70
   8   6  -6    1.00    1.50
   6  -6  -6 1710.23   34.60
  -6  -6   6 1694.53   37.90
   6  -6  -6 1760.22   34.20
  -6  -6   6 1748.53   41.70
   6  -6  -6 1696.83   35.80
   6   6  -6 1685.83   35.20
  -6   6   6 1755.12   35.90
  -6   6   6 1772.32   38.60
   6   6  -6 1732.03   38.50
  -6   6   6 1789.62   40.20
   4  -6  -6    3.90    1.90
  -4  -6   6    6.10    2.40
   4  -6  -6    5.10    2.30
   4  -6  -6    7.30    1.80
   4  -6  -6    8.70    2.10
  -4  -6   6    5.70    3.00
   4   6  -6   11.80    2.40
  -4   6   6    6.30    1.70
  -4   6   6    3.00    2.40
   4   6  -6    8.70    2.30
  -4   6   6    5.10    2.60
   2  -6  -6 1261.87   27.90
   2  -6  -6 1249.47   28.20
  -2  -6   6 1286.87   30.30
   2  -6  -6 1239.38   26.30
  -2  -6   6 1243.98   27.60
   2  -6  -6 1270.77   27.30
   2   6  -6 1260.67   27.20
   2   6  -6 1268.17   28.10
   2   6  -6 1253.87   27.60
  -2   6   6 1302.47   27.60
  -2   6   6 1270.87   28.80
   0  -6   6  177.78    8.60
   0  -6  -6  170.28    8.10
   0  -6   6  175.28    9.40
   0  -6  -6  179.78    8.30
   0  -6   6  159.98    5.80
   0  -6  -6  165.48    8.20
   0   6  -6  182.48    9.50
   0   6   6  168.28    7.70
   0   6  -6  178.98    8.20
   0   6   6  190.58    7.80
   0   6   6  183.68    8.10
  -2  -6  -6  450.85   15.90
   2  -6   6  453.45   15.70
   2  -6   6  465.15   15.40
   2  -6   6  453.65   12.40
  -2  -6  -6  458.75   15.50
   2  -6   6  471.95   12.80
  -2  -6  -6  444.46   14.80
   2   6   6  463.25   14.70
   2   6   6  457.65   13.80
  -2   6  -6  472.25   15.50
  -2   6  -6  461.45   17.10
   2   6   6  455.15   12.80
   4  -6   6  120.19    6.90
   4  -6   6  123.49    8.20
  -4  -6  -6  148.19   10.10
  -4  -6  -6  117.69    8.70
   4   6   6  122.19    8.00
   4   6   6  123.49    6.70
  -4   6  -6  130.09    8.80
  -4   6  -6  133.09    9.50
  -6  -6  -6  277.77   13.90
  -6   6  -6  299.47   16.10
   6   6   6  278.57   11.30
  -6   6  -6  272.27   13.50
   6   6   6  280.97   11.50
   9  -7  -6  137.49    7.20
  -9  -7   6  123.29   12.60
  -9  -7   6  143.29   11.50
   9  -7  -6  125.09    8.00
  -9   7   6  145.09    8.60
   9   7  -6  139.09    9.70
  -9   7   6  115.99   10.70
  -9   7   6  127.89    8.70
  -7  -7   6  385.06   14.40
  -7  -7   6  400.36   17.90
   7  -7  -6  377.16   11.70
   7  -7  -6  398.96   13.40
   7   7  -6  398.76   15.10
  -7   7   6  386.26   14.60
  -7   7   6  386.56   13.40
   7   7  -6  395.06   12.90
  -7   7   6  375.26   16.10
   5  -7  -6  806.32   19.20
   5  -7  -6  803.82   19.00
   5  -7  -6  824.92   20.70
  -5  -7   6  803.42   23.00
  -5   7   6  826.92   20.70
  -5   7   6  847.62   23.20
   5   7  -6  828.52   22.30
   5   7  -6  821.62   20.50
  -5   7   6  801.32   22.50
   3  -7  -6  284.07    9.60
   3  -7  -6  272.17   10.40
   3  -7  -6  290.87   10.70
   3  -7  -6  275.47    9.30
  -3  -7   6  293.37   12.20
  -3  -7   6  269.27   10.10
   3   7  -6  286.97   10.30
   3   7  -6  286.07   10.70
  -3   7   6  269.47   10.20
  -3   7   6  288.67   11.60
  -3   7   6  285.07   10.30
   1  -7  -6  782.32   21.20
  -1  -7   6  828.72   23.10
  -1  -7   6  798.12   21.00
   1  -7  -6  803.62   20.00
   1  -7  -6  808.42   20.80
  -1   7   6  810.82   20.50
   1   7  -6  769.32   19.50
   1   7  -6  808.22   20.10
   1   7  -6  791.62   20.10
  -1   7   6  807.02   19.40
  -1   7   6  788.22   20.90
   1  -7   6  177.98    6.90
  -1  -7  -6  200.98    9.40
   1  -7   6  196.28   10.50
  -1  -7  -6  190.98    9.80
   1  -7   6  191.08    9.80
  -1  -7  -6  208.08    9.60
  -1   7  -6  187.78    8.90
   1   7   6  186.88    8.70
   1   7   6  187.48    8.20
  -1   7  -6  188.18   10.60
   3  -7   6   90.79    7.90
   3  -7   6   93.39    5.80
  -3  -7  -6   78.69    7.30
   3  -7   6   93.19    7.60
  -3  -7  -6   89.09    7.10
  -3   7  -6   98.39    7.10
  -3   7  -6   89.19    8.50
   3   7   6   77.19    6.60
   3   7   6   93.19    5.80
   3   7   6   83.79    6.00
  -5  -7  -6  124.69    8.70
  -5  -7  -6  139.39    9.80
   5  -7   6  140.49    9.60
   5  -7   6  107.29    7.10
   5   7   6  130.89    7.50
  -5   7  -6  119.89   10.40
  10  -8  -6   33.80    4.90
 -10  -8   6   34.20    8.10
  10   8  -6   33.80    5.70
 -10   8   6   28.90    6.20
 -10   8   6   28.50    4.90
  -8  -8   6   11.50    4.60
   8  -8  -6   11.70    3.10
   8  -8  -6   11.70    3.30
   8   8  -6   11.10    3.00
  -8   8   6   21.20    4.10
  -8   8   6   21.10    4.50
  -8   8   6   15.40    5.10
   8   8  -6   15.10    3.90
  -6  -8   6   12.30    4.10
   6  -8  -6   17.20    3.30
   6  -8  -6   13.70    2.90
  -6   8   6   14.00    3.30
   6   8  -6    9.20    2.70
  -6   8   6   19.80    4.30
   6   8  -6   12.50    3.50
  -6   8   6   18.40    4.70
   4  -8  -6  101.39    6.00
  -4  -8   6  104.99    8.30
   4  -8  -6  101.39    5.60
  -4  -8   6  110.19    6.90
   4  -8  -6  112.59    6.70
   4  -8  -6  104.49    6.90
  -4   8   6  117.69    7.90
  -4   8   6   99.89    6.60
   4   8  -6  101.59    6.90
   4   8  -6  117.19    6.90
  -4   8   6  105.09    7.20
   2  -8  -6  102.39    6.90
   2  -8  -6  112.89    6.30
  -2  -8   6  132.29    8.70
  -2  -8   6  107.59    7.40
   2  -8  -6  107.19    6.70
   2  -8  -6  119.89    6.40
  -2   8   6  114.49    6.60
   2   8  -6  107.29    6.30
   2   8  -6  107.59    6.60
   0  -8   6  243.48   11.20
   0  -8  -6  230.48   10.80
   0  -8  -6  232.88   10.40
   0  -8   6  245.18   12.20
   0  -8  -6  239.38   10.00
   0   8  -6  228.28    9.80
   0   8   6  234.78   10.10
   0   8   6  232.68    9.20
   0   8  -6  236.58   10.00
  -2  -8  -6  226.98   10.90
   2  -8   6  248.68   11.70
   2  -8   6  220.68   11.60
  -2  -8  -6  249.68   11.50
   2   8   6  224.58   10.60
  -2   8  -6  233.38    9.90
  -2   8  -6  244.78   13.10
   2   8   6  230.68    9.50
  -4  -8  -6   51.29    6.30
  -4  -8  -6   87.69    8.90
   4  -8   6   67.29    7.40
   4  -8   6   73.39    5.70
   4   8   6   73.89    7.40
  -4   8  -6   84.89   10.00
   9  -9  -6   89.39    6.60
   9  -9  -6   91.39    6.80
   9   9  -6   85.09    7.60
  -9   9   6   77.69    9.20
  -9   9   6   86.79    7.10
   9   9  -6   54.49    8.50
  -7  -9   6   92.89   10.60
  -7  -9   6   85.39    8.10
   7  -9  -6   86.39    6.40
   7  -9  -6   76.69    6.00
  -7   9   6   83.09    8.90
   7   9  -6   78.39    6.40
   7   9  -6   73.59    7.60
  -7   9   6   84.99    7.20
   5  -9  -6   66.49    6.00
  -5  -9   6   67.29    7.50
   5  -9  -6   66.79    5.00
   5   9  -6   61.49    6.30
   5   9  -6   66.99    5.90
  -5   9   6   63.29    5.70
  -5   9   6   76.79    7.80
  -3  -9   6  229.68   12.10
   3  -9  -6  228.78    9.40
   3  -9  -6  217.38   10.20
   3  -9  -6  205.68   10.00
  -3  -9   6  205.68   10.30
  -3   9   6  222.88   10.20
   3   9  -6  232.48   10.40
   1  -9  -6   16.70    3.70
  -1  -9   6   17.20    5.00
   1  -9  -6   23.10    3.80
  -1  -9   6   22.00    4.90
   1  -9  -6   10.60    3.00
   1  -9  -6   19.00    4.10
  -1   9   6   21.70    3.80
   1   9  -6   14.10    3.00
  -1   9   6   12.70    3.20
   1  -9   6   60.89    7.50
   1  -9   6   69.79    7.80
  -1  -9  -6   66.59    6.70
  -1  -9  -6   80.99    7.00
  -1   9  -6   73.39    5.80
   1   9   6   83.09    6.80
   3  -9   6   13.40    4.00
  -3  -9  -6   13.70    4.00
  -3  -9  -6   14.10    4.30
  -3   9  -6   20.30    5.20
   3   9   6   19.00    4.40
  -3   9  -6   18.30    3.90
   8 -10  -6  760.42   21.00
   8 -10  -6  801.02   22.30
  -8 -10   6  829.42   28.80
  -8  10   6  811.62   26.70
   8  10  -6  770.32   22.60
   8  10  -6  770.82   24.20
  -8  10   6  806.52   23.80
   6 -10  -6  161.18    8.70
   6 -10  -6  138.79    8.50
  -6 -10   6  155.38   10.90
   6  10  -6  152.68    9.40
   6  10  -6  145.29    8.90
  -6  10   6  161.98    9.50
  -6  10   6  168.08   10.80
   4 -10  -6 1304.57   30.80
  -4 -10   6 1258.87   31.00
   4 -10  -6 1301.47   29.70
  -4 -10   6 1320.47   35.30
   4 -10  -6 1210.78   31.00
   4  10  -6 1351.96   31.90
  -4  10   6 1284.77   31.50
   2 -10  -6  259.07   10.50
  -2 -10   6  260.57   14.10
  -2 -10   6  256.77   12.20
   2 -10  -6  252.57   11.60
   2  10  -6  249.18   11.40
  -2  10   6  254.87   11.70
   0 -10  -6  823.82   22.10
   0 -10   6  792.12   25.50
   0 -10  -6  780.32   22.80
   0 -10   6  792.92   23.50
   0  10   6  814.92   23.10
   0  10  -6  792.72   22.20
   2 -10   6  174.78   11.40
  -2 -10  -6  196.78   10.90
   2 -10   6  169.48   10.60
   2  10   6  186.48   10.30
  -2  10  -6  166.58    9.40
   7 -11  -6  148.09    8.90
  -7 -11   6  142.59   10.90
  -7 -11   6  168.18   13.40
   7  11  -6  176.88   10.10
  -7  11   6  159.88   10.00
  -7  11   6  174.38   11.20
   7  11  -6  154.38   10.10
   5 -11  -6  181.78    9.70
   5 -11  -6  169.08    9.00
  -5 -11   6  169.98   12.10
  -5  11   6  166.88    9.60
   5  11  -6  169.28    9.90
  -3 -11   6  290.57   13.40
   3 -11  -6  285.17   12.50
  -3 -11   6  292.57   15.70
   3 -11  -6  301.67   12.10
   3  11  -6  294.47   13.10
  -3  11   6  305.37   13.20
   1 -11  -6  167.28    9.80
   1 -11  -6  169.08    9.20
  -1 -11   6  187.28   11.30
  -1 -11   6  162.68   11.90
  -1  11   6  174.38   10.10
   1  11  -6  180.08    9.80
   1 -11   6  249.78   13.00
  -1 -11  -6  275.87   12.90
   1 -11   6  243.68   13.90
  -1 -11  -6  265.97   11.70
  -1  11  -6  272.97   12.30
   1  11   6  265.67   12.50
  -4 -12   6   29.10    6.80
   4 -12  -6   23.20    4.40
  -4 -12   6   18.90    5.20
   4 -12  -6   22.90    3.90
   4 -12  -6   20.20    3.80
   4  12  -6   20.90    4.20
  -4  12   6   27.40    5.10
   2 -12  -6   52.99    6.50
  -2 -12   6   51.59    7.40
  -2 -12   6   57.49    8.80
   2 -12  -6   55.09    6.30
   2  12  -6   55.79    6.50
  -2  12   6   54.59    6.90
   0 -12  -6   19.10    4.60
   0 -12   6   15.20    5.60
   0 -12   6   13.90    5.20
   0 -12  -6   26.10    4.80
   0  12   6   14.10    3.80
   0  12  -6   11.00    3.80
 -12   0   7   -3.90    4.80
 -12   0   7   -3.10    6.20
  10   0  -7    0.60    2.00
 -10   0   7    4.00    4.50
 -10   0   7   -0.70    3.40
 -10   0   7   -3.00    5.00
   8   0  -7    3.60    2.00
  -8   0   7    2.50    3.60
  -8   0   7    7.60    4.70
   8   0  -7    1.60    1.40
   6   0  -7    0.20    1.30
   6   0  -7    0.60    1.10
  -6   0   7   -1.70    2.40
  -6   0   7    0.50    3.30
   6   0  -7   -0.70    1.40
  -6   0   7    1.70    1.80
  -4   0   7   -0.10    3.00
   4   0  -7    4.60    1.40
   4   0  -7    2.10    1.60
   4   0  -7   -2.50    1.00
   4   0  -7    0.80    0.80
  -4   0   7    0.00    2.30
  -4   0   7    4.80    2.40
   2   0  -7    2.10    1.60
  -2   0   7    1.90    1.70
  -2   0   7    1.60    1.00
   2   0  -7    2.30    1.70
  -2   0   7    2.60    2.40
  -2   0   7   -0.80    0.90
   2   0  -7   -0.50    0.90
   2   0  -7    1.90    1.40
  -2   0   7    0.40    1.20
   0   0  -7    1.00    2.10
   0   0  -7    8.50    2.00
   0   0   7    2.30    1.80
   0   0  -7    2.20    1.30
   0   0  -7   -2.70    1.60
   0   0  -7    5.20    2.30
   0   0   7    0.10    2.10
   0   0   7    2.20    2.30
   0   0   7    2.60    1.50
   0   0  -7    1.30    1.50
  -2   0  -7    1.40    1.80
  -2   0  -7   -1.30    1.90
   2   0   7   -0.90    1.80
   2   0   7    3.00    2.40
  -2   0  -7    4.50    2.40
   2   0   7   -0.20    1.30
  -2   0  -7    4.60    2.50
  -4   0  -7    4.20    3.10
   4   0   7   -0.10    2.30
  -4   0  -7    2.90    2.90
  -4   0  -7    4.70    3.80
   4   0   7    3.10    2.30
   6   0   7    2.40    2.70
  -6   0  -7   -3.90    2.90
  -6   0  -7    1.40    4.10
  11  -1  -7   34.20    4.20
 -11  -1   7   42.80    7.70
 -11  -1   7   47.10    9.30
 -11   1   7   31.80    7.40
 -11   1   7   36.00    8.50
  11   1  -7   30.90    4.90
  -9  -1   7  235.08   12.50
   9  -1  -7  232.68    8.20
   9  -1  -7  235.28   10.00
   9  -1  -7  229.28    9.10
  -9  -1   7  234.08   14.30
   9   1  -7  223.68   10.50
  -9   1   7  230.18   11.80
  -9   1   7  243.68   13.30
  -9   1   7  233.48   14.30
   7  -1  -7   15.50    3.00
  -7  -1   7   13.30    4.50
   7  -1  -7   14.10    2.30
  -7  -1   7   17.30    4.80
  -7  -1   7   10.70    2.60
   7  -1  -7   16.30    2.80
  -7   1   7   11.20    4.00
  -7   1   7   15.80    4.90
   7   1  -7   14.10    2.80
   7   1  -7   13.40    2.00
   5  -1  -7 1270.27   26.50
   5  -1  -7 1271.07   25.10
  -5  -1   7 1237.98   30.00
  -5  -1   7 1256.57   27.50
  -5  -1   7 1287.17   30.40
   5   1  -7 1245.78   24.00
  -5   1   7 1258.97   29.50
  -5   1   7 1251.97   29.60
  -5   1   7 1254.37   26.90
   5   1  -7 1232.68   23.80
   5   1  -7 1282.27   26.20
  -3  -1   7    4.40    1.40
  -3  -1   7    3.70    2.50
  -3  -1   7    7.90    3.10
   3  -1  -7    1.90    1.30
   3  -1  -7    1.60    1.20
   3  -1  -7    3.50    1.30
   3  -1  -7    4.70    1.90
  -3  -1   7    1.30    1.10
  -3   1   7    0.00    2.10
  -3   1   7    2.10    1.70
  -3   1   7    2.80    2.70
   3   1  -7    1.10    1.50
   3   1  -7    2.50    0.90
   3   1  -7    3.20    1.60
   3   1  -7    0.70    1.10
  -3   1   7    1.80    1.00
   1  -1  -7 1924.01   37.90
  -1  -1   7 1924.01   39.30
  -1  -1   7 1879.71   38.50
  -1  -1   7 1932.11   36.80
  -1  -1   7 1969.70   37.40
   1  -1  -7 1892.91   36.20
   1  -1  -7 1903.21   38.60
   1  -1  -7 1888.31   37.90
   1   1  -7 1942.71   38.00
  -1   1   7 1945.41   37.20
  -1   1   7 1936.71   37.30
   1   1  -7 1843.22   40.20
  -1   1   7 1911.01   35.50
  -1   1   7 1909.31   39.00
   1   1  -7 1838.72   34.60
  -1   1   7 1907.71   38.10
   1   1  -7 1919.31   39.00
   1   1  -7 1934.71   37.30
  -1  -1  -7   17.10    3.30
  -1  -1  -7   16.60    3.30
   1  -1   7   16.90    2.80
   1  -1   7   15.80    3.10
   1  -1   7   16.00    3.60
  -1  -1  -7   15.60    3.70
   1   1   7   14.20    2.50
   1   1   7   15.30    3.00
   1   1   7   14.00    2.90
  -1   1  -7   19.90    3.30
  -1   1  -7   11.70    2.60
  -1   1  -7   15.30    3.60
  -1   1  -7   16.20    3.40
   1   1   7    8.30    2.30
   3  -1   7  692.93   19.60
   3  -1   7  659.23   18.40
  -3  -1  -7  712.93   19.90
   3  -1   7  702.63   18.50
  -3  -1  -7  688.43   21.30
  -3  -1  -7  657.03   20.00
   3   1   7  645.84   18.20
  -3   1  -7  697.43   21.50
  -3   1  -7  677.03   20.10
  -3   1  -7  677.03   18.70
   3   1   7  683.43   18.80
  -3   1  -7  645.84   19.70
   5  -1   7    7.50    2.50
   5  -1   7   10.50    3.10
  -5  -1  -7    5.20    3.40
  -5  -1  -7    2.20    2.40
   5   1   7    4.70    2.70
  -5   1  -7    6.30    3.30
  -5   1  -7   11.10    5.00
  -5   1  -7    2.50    3.60
 -12  -2   7  208.58   16.10
 -12  -2   7  208.38   15.60
  12  -2  -7  202.88    9.60
 -12   2   7  196.58   15.40
  12   2  -7  202.58   10.80
 -12   2   7  237.48   15.70
  10  -2  -7  345.97   12.30
 -10  -2   7  313.17   14.70
  10  -2  -7  334.47   11.10
 -10  -2   7  335.47   18.00
 -10   2   7  336.77   18.10
 -10   2   7  303.37   13.60
  10   2  -7  336.47   13.80
 -10   2   7  329.77   16.50
  -8  -2   7  572.74   19.60
  -8  -2   7  559.24   20.90
   8  -2  -7  557.74   15.10
   8  -2  -7  536.85   15.60
  -8   2   7  526.25   18.60
   8   2  -7  567.14   17.60
  -8   2   7  561.74   20.40
  -8   2   7  554.64   18.10
  -6  -2   7 1240.38   30.50
  -6  -2   7 1211.88   27.00
   6  -2  -7 1253.27   25.50
   6  -2  -7 1215.08   26.20
  -6   2   7 1222.58   26.00
  -6   2   7 1223.18   30.10
  -6   2   7 1208.28   29.20
  -6   2   7 1198.48   24.10
   6   2  -7 1221.48   28.30
   4  -2  -7 1183.38   25.50
  -4  -2   7 1215.48   27.30
   4  -2  -7 1229.78   24.70
   4  -2  -7 1182.58   23.70
  -4  -2   7 1224.28   29.20
   4   2  -7 1214.18   23.80
   4   2  -7 1208.98   24.80
  -4   2   7 1201.68   27.80
  -4   2   7 1169.78   26.90
  -4   2   7 1234.18   23.80
  -4   2   7 1205.98   26.40
  -2  -2   7 1647.44   35.60
   2  -2  -7 1653.23   33.10
   2  -2  -7 1682.33   32.50
   2  -2  -7 1679.03   33.90
  -2  -2   7 1623.44   32.40
   2  -2  -7 1636.64   33.50
  -2  -2   7 1690.73   32.00
  -2  -2   7 1653.63   35.30
  -2   2   7 1629.34   34.50
  -2   2   7 1654.83   34.70
   2   2  -7 1680.13   32.50
  -2   2   7 1691.93   33.10
   2   2  -7 1681.03   33.30
  -2   2   7 1678.73   31.70
   2   2  -7 1687.73   34.60
   0  -2  -7 1454.25   29.90
   0  -2  -7 1487.25   31.50
   0  -2   7 1453.25   29.50
   0  -2   7 1505.25   32.50
   0  -2  -7 1462.95   31.50
   0  -2   7 1478.25   30.90
   0  -2  -7 1440.06   31.60
   0   2  -7 1456.95   29.70
   0   2  -7 1466.55   31.80
   0   2   7 1485.05   30.50
   0   2  -7 1446.66   31.30
   0   2   7 1467.95   29.30
   0   2   7 1427.96   31.60
   0   2  -7 1442.66   32.30
   0   2   7 1409.16   29.60
  -2  -2  -7  862.81   21.90
   2  -2   7  778.82   19.50
  -2  -2  -7  805.32   22.40
  -2  -2  -7  780.32   21.70
   2  -2   7  797.02   21.10
   2  -2   7  787.32   20.90
   2   2   7  817.32   21.30
  -2   2  -7  800.22   19.80
   2   2   7  795.42   20.10
  -2   2  -7  832.72   22.30
  -2   2  -7  796.72   22.40
  -2   2  -7  774.02   21.30
   4  -2   7  658.13   19.90
   4  -2   7  639.34   18.20
  -4  -2  -7  653.43   21.30
  -4  -2  -7  680.13   20.30
  -4  -2  -7  621.64   20.30
   4   2   7  636.94   18.50
  -4   2  -7  593.64   19.70
  -4   2  -7  656.23   21.40
  -4   2  -7  646.44   21.80
  -4   2  -7  630.94   18.40
  -6  -2  -7  282.27   13.60
  -6  -2  -7  302.07   15.00
   6  -2   7  283.87   13.00
   6  -2   7  268.17   11.80
   6   2   7  274.87   12.20
  -6   2  -7  257.57   13.90
  -6   2  -7  292.07   15.50
 -11  -3   7  628.14   25.80
 -11  -3   7  622.64   25.90
 -11   3   7  598.44   23.70
 -11   3   7  602.14   24.60
  11   3  -7  584.94   20.10
  -9  -3   7    8.20    4.60
   9  -3  -7    1.70    1.90
  -9  -3   7    6.80    5.10
  -9   3   7   12.70    4.90
   9   3  -7    6.90    3.00
  -9   3   7   -2.10    4.90
  -9   3   7    7.30    3.60
  -7  -3   7  995.70   27.30
   7  -3  -7  976.80   22.30
  -7  -3   7 1018.80   28.80
   7  -3  -7  972.30   22.60
   7  -3  -7  975.70   22.80
  -7  -3   7 1010.60   23.50
  -7   3   7  980.40   21.30
   7   3  -7  971.50   25.20
  -7   3   7  980.30   27.30
  -7   3   7  940.01   24.90
  -7   3   7 1003.20   26.00
  -5  -3   7    5.10    2.80
  -5  -3   7    6.50    3.30
   5  -3  -7    6.00    1.90
   5  -3  -7    1.50    1.60
   5  -3  -7    2.80    1.20
   5   3  -7    7.00    1.70
   5   3  -7    3.30    1.30
  -5   3   7    8.80    2.30
  -5   3   7    3.80    1.40
  -5   3   7    4.00    3.00
   5   3  -7    6.10    2.20
  -5   3   7   -0.60    2.70
  -3  -3   7  628.14   15.00
   3  -3  -7  632.04   15.40
  -3  -3   7  628.94   18.70
   3  -3  -7  626.14   15.50
  -3  -3   7  627.34   14.00
   3  -3  -7  649.74   15.50
  -3  -3   7  642.44   17.90
   3  -3  -7  667.93   16.50
  -3   3   7  647.54   17.80
   3   3  -7  630.04   14.80
   3   3  -7  641.04   17.00
  -3   3   7  642.24   14.90
   3   3  -7  639.24   15.60
  -3   3   7  661.33   17.10
  -3   3   7  618.04   15.90
  -1  -3   7   14.40    2.20
   1  -3  -7    9.30    2.30
   1  -3  -7    8.60    2.20
   1  -3  -7    8.10    2.60
  -1  -3   7   12.30    2.70
   1  -3  -7    6.80    2.10
  -1  -3   7   12.80    3.50
  -1  -3   7   14.80    3.50
  -1   3   7    8.50    2.10
  -1   3   7    7.70    2.50
  -1   3   7    9.30    2.50
  -1   3   7   13.60    2.20
   1   3  -7    8.90    2.60
   1   3  -7    9.80    2.00
   1   3  -7    6.70    2.20
  -1  -3  -7  406.96   13.60
   1  -3   7  397.06   13.80
  -1  -3  -7  400.26   12.40
  -1  -3  -7  409.86   13.80
   1  -3   7  415.86   13.20
  -1  -3  -7  415.16   13.90
   1  -3   7  401.56   11.70
   1   3   7  403.66   12.50
  -1   3  -7  412.06   14.30
  -1   3  -7  380.36   13.30
  -1   3  -7  419.26   14.30
   1   3   7  380.56   10.10
   1   3   7  397.76   12.20
   1   3   7  422.46   13.80
  -1   3  -7  403.56   11.70
  -3  -3  -7    5.10    3.00
  -3  -3  -7    6.30    3.60
  -3  -3  -7    7.10    3.30
   3  -3   7    6.80    2.20
   3  -3   7    4.20    3.00
   3  -3   7    1.40    2.70
  -3   3  -7    1.80    2.60
  -3   3  -7    5.10    3.10
   3   3   7    2.90    1.40
   3   3   7    3.60    1.90
  -3   3  -7    7.70    3.10
  -5  -3  -7  309.57   13.80
   5  -3   7  287.57   12.70
  -5  -3  -7  285.17   14.50
   5  -3   7  291.07   11.80
  -5   3  -7  291.17   14.70
  -5   3  -7  282.47   14.60
   5   3   7  291.17   12.10
 -10  -4   7  270.47   16.50
 -10  -4   7  255.17   14.00
  10  -4  -7  257.77   10.90
 -10   4   7  283.27   16.40
 -10   4   7  254.77   12.20
 -10   4   7  238.58   13.80
  10   4  -7  235.78   12.00
  -8  -4   7  171.78   12.10
  -8  -4   7  185.28   11.80
   8  -4  -7  186.38    8.30
  -8   4   7  167.98    9.90
  -8   4   7  178.18    7.70
  -8   4   7  167.58   11.80
   8   4  -7  197.08   10.30
  -8   4   7  167.98   10.20
  -6  -4   7  398.06   13.50
  -6  -4   7  387.06   15.70
   6  -4  -7  361.46   10.00
   6  -4  -7  399.76   12.00
   6  -4  -7  411.46   12.20
  -6   4   7  410.06   14.50
  -6   4   7  393.96   11.40
   6   4  -7  406.36   11.20
   6   4  -7  410.46   14.10
  -6   4   7  400.26   15.10
   4  -4  -7   39.60    3.10
   4  -4  -7   39.70    2.80
  -4  -4   7   33.70    3.20
   4  -4  -7   36.50    3.90
  -4  -4   7   40.90    4.80
   4  -4  -7   40.00    4.10
  -4  -4   7   43.80    5.90
  -4   4   7   41.40    3.70
  -4   4   7   42.60    5.20
   4   4  -7   39.20    3.20
  -4   4   7   34.90    3.20
   4   4  -7   32.60    4.20
   4   4  -7   39.90    3.00
  -4   4   7   38.50    5.00
  -2  -4   7   96.49    5.70
   2  -4  -7   96.79    5.60
  -2  -4   7   87.79    6.20
   2  -4  -7   90.29    5.70
  -2  -4   7   97.19    7.20
   2  -4  -7   89.69    5.50
  -2  -4   7   93.59    4.10
   2  -4  -7   93.29    5.00
   2   4  -7   99.49    5.40
  -2   4   7   94.29    5.00
  -2   4   7   99.79    6.40
   2   4  -7   93.49    5.90
  -2   4   7   98.29    5.90
   2   4  -7   88.29    4.30
   0  -4  -7   89.09    6.10
   0  -4   7   78.79    6.10
   0  -4  -7   84.39    5.90
   0  -4  -7   79.39    5.40
   0  -4   7   82.59    5.90
   0  -4   7   86.69    4.60
   0  -4   7   79.69    6.10
   0  -4  -7   86.99    5.70
   0   4   7   77.89    5.20
   0   4  -7   88.69    6.10
   0   4  -7   85.59    5.90
   0   4   7   86.99    5.10
   0   4  -7   85.39    6.40
   0   4   7   86.99    6.00
  -2  -4  -7    1.20    2.80
  -2  -4  -7    6.00    2.50
   2  -4   7    5.60    3.00
  -2  -4  -7    4.50    2.10
   2  -4   7    2.50    1.70
  -2  -4  -7    9.90    3.50
   2  -4   7    3.70    3.00
  -2   4  -7    2.90    2.80
   2   4   7    5.20    2.30
  -2   4  -7    3.70    2.50
  -2   4  -7    8.60    3.20
   2   4   7    7.50    1.80
   2   4   7    3.30    2.20
   4  -4   7   94.49    6.50
  -4  -4  -7  104.79    7.90
  -4  -4  -7   93.39    8.60
   4   4   7   93.29    6.70
   4   4   7  100.59    5.70
  -4   4  -7   91.79    8.40
  -4   4  -7  100.29    8.60
  -6  -4  -7   20.00    5.40
   6  -4   7   16.70    4.20
  -6  -4  -7   17.70    5.40
  -6   4  -7   21.40    5.70
  -6   4  -7   25.00    5.70
   6   4   7   32.20    5.10
 -11  -5   7    3.40    6.40
  11  -5  -7    3.10    2.50
  11   5  -7    1.20    2.20
 -11   5   7    0.10    5.10
   9  -5  -7  115.69    7.20
  -9  -5   7  101.09   11.70
  -9  -5   7  114.79   11.10
  -9   5   7  113.49   11.40
   9   5  -7  109.49    8.30
  -9   5   7   95.89    6.10
  -9   5   7  110.59    8.20
   7  -5  -7   -0.80    1.70
  -7  -5   7   -2.80    3.70
  -7  -5   7    4.00    3.00
   7  -5  -7    0.70    1.60
  -7   5   7    1.30    1.70
   7   5  -7    0.30    2.10
  -7   5   7    7.20    4.00
   7   5  -7    2.50    1.60
  -7   5   7    2.70    2.90
  -5  -5   7  623.44   18.40
   5  -5  -7  643.84   16.70
  -5  -5   7  636.94   21.10
   5  -5  -7  629.74   16.30
   5  -5  -7  602.84   14.50
   5   5  -7  646.34   18.80
  -5   5   7  636.54   19.00
   5   5  -7  624.54   15.90
  -5   5   7  620.54   18.50
  -5   5   7  620.04   16.00
  -3  -5   7  107.79    5.90
  -3  -5   7  105.39    8.00
  -3  -5   7  121.29    7.80
   3  -5  -7   98.19    4.70
   3  -5  -7  107.19    5.80
   3  -5  -7   97.89    5.60
   3  -5  -7  103.19    6.00
  -3   5   7   88.69    6.40
   3   5  -7  104.89    6.10
  -3   5   7  108.99    5.70
   3   5  -7  104.29    6.30
   3   5  -7  105.99    5.60
  -1  -5   7  901.31   24.60
   1  -5  -7  942.91   22.60
  -1  -5   7  897.71   22.20
   1  -5  -7  920.91   22.70
  -1  -5   7  908.21   24.30
   1  -5  -7  904.11   22.80
  -1   5   7  943.81   22.60
   1   5  -7  949.01   23.30
  -1   5   7  917.81   21.80
  -1   5   7  935.81   21.90
  -1  -5  -7   72.89    6.20
   1  -5   7   83.49    4.70
  -1  -5  -7   73.69    5.80
   1  -5   7   76.59    4.20
   1  -5   7   74.09    7.40
  -1  -5  -7   64.89    6.10
  -1  -5  -7   78.59    6.00
   1  -5   7   80.89    6.40
  -1   5  -7   83.79    6.10
   1   5   7   70.79    5.50
  -1   5  -7   83.09    7.10
   1   5   7   84.19    5.70
  -1   5  -7   84.79    6.70
  -3  -5  -7  202.38   10.60
   3  -5   7  232.68    9.20
   3  -5   7  165.58   11.10
  -3  -5  -7  194.18    9.70
  -3  -5  -7  222.38   11.40
  -3  -5  -7  220.98   11.60
   3  -5   7  219.88   11.00
  -3   5  -7  226.68   12.30
   3   5   7  213.08   10.00
  -3   5  -7  198.38   10.70
  -3   5  -7  232.38   11.60
   3   5   7  215.38    9.80
   3   5   7  205.58    8.20
   5  -5   7   -3.00    2.80
  -5  -5  -7    3.30    3.80
  -5  -5  -7    2.70    3.50
  -5   5  -7   -0.70    1.90
   5   5   7    2.70    2.20
   5   5   7   -2.10    2.10
  -5   5  -7   -0.90    3.20
  10  -6  -7  188.28    9.60
 -10  -6   7  205.18   15.50
  10   6  -7  168.68   10.50
 -10   6   7  169.18    9.20
 -10   6   7  176.98   12.30
 -10   6   7  183.98   10.40
   8  -6  -7  236.58   10.20
  -8  -6   7  240.68   14.20
   8   6  -7  248.98   12.40
  -8   6   7  242.38   11.90
  -8   6   7  222.78   13.20
  -8   6   7  242.88   10.10
   6  -6  -7   13.50    3.10
  -6  -6   7   19.90    5.50
   6  -6  -7   16.70    2.70
   6  -6  -7   15.00    2.80
  -6  -6   7    9.70    3.70
   6   6  -7    8.20    2.90
   6   6  -7    8.80    2.40
  -6   6   7   11.80    3.60
  -6   6   7    8.70    3.70
  -6   6   7   12.10    2.70
  -4  -6   7  187.18   11.30
   4  -6  -7  163.48    7.40
  -4  -6   7  168.98    9.60
   4  -6  -7  169.58    7.40
   4  -6  -7  173.58    6.80
  -4  -6   7  152.48    7.10
   4  -6  -7  176.88    8.20
  -4   6   7  166.58    7.60
   4   6  -7  164.48    7.50
   4   6  -7  177.68    8.90
  -4   6   7  158.28    8.00
  -4   6   7  158.68    8.50
  -2  -6   7    2.10    2.50
   2  -6  -7    2.60    1.80
   2  -6  -7    4.10    2.30
  -2  -6   7    3.30    3.10
   2  -6  -7    3.30    2.20
   2   6  -7    5.90    2.00
  -2   6   7    4.50    2.10
  -2   6   7    6.90    2.60
  -2   6   7    1.10    1.80
   2   6  -7    4.80    2.20
   2   6  -7    6.20    2.30
   0  -6  -7   -2.80    2.30
   0  -6   7   -2.30    3.00
   0  -6  -7   -1.50    1.90
   0  -6  -7   -0.60    1.90
   0  -6   7    1.30    2.80
   0   6  -7    2.80    2.20
   0   6   7   -0.10    1.20
   0   6   7    1.50    1.90
   0   6   7    1.50    1.60
  -2  -6  -7   75.89    6.00
   2  -6   7   78.19    7.10
  -2  -6  -7   72.89    7.30
   2  -6   7   87.19    7.00
  -2  -6  -7   71.29    6.80
   2  -6   7   68.89    4.40
  -2   6  -7   77.39    7.50
   2   6   7   75.69    6.00
   2   6   7   71.39    6.00
  -2   6  -7   75.59    6.60
   4  -6   7    7.40    3.90
  -4  -6  -7   -3.00    3.40
  -4  -6  -7   -2.10    2.00
  -4   6  -7    3.00    3.50
   4   6   7    4.30    2.10
  -4   6  -7   -3.30    2.50
   4   6   7    0.30    2.10
   4   6   7   -1.30    2.70
   9  -7  -7  612.44   18.50
  -9  -7   7  599.54   25.00
  -9  -7   7  583.84   23.20
   9   7  -7  585.14   20.70
  -9   7   7  589.24   20.00
  -9   7   7  568.54   17.90
  -9   7   7  569.94   22.40
  -7  -7   7    3.60    3.50
   7  -7  -7    3.30    2.40
  -7  -7   7    6.20    5.00
   7  -7  -7    6.70    2.40
   7   7  -7    2.50    2.60
   7   7  -7    6.00    2.30
  -7   7   7    7.80    3.90
  -7   7   7    6.30    3.40
  -7   7   7    4.00    2.40
   5  -7  -7  439.96   13.00
  -5  -7   7  415.96   17.90
  -5  -7   7  429.86   16.20
   5  -7  -7  445.96   14.20
   5  -7  -7  420.96   12.40
   5   7  -7  443.26   15.60
  -5   7   7  444.66   16.00
  -5   7   7  442.06   13.90
   5   7  -7  420.36   13.60
  -3  -7   7    7.00    2.90
  -3  -7   7   19.60    4.40
   3  -7  -7   10.40    3.00
   3  -7  -7   11.20    2.80
   3  -7  -7   14.20    2.70
   3  -7  -7   12.20    2.80
   3   7  -7    9.30    2.80
  -3   7   7   10.20    2.80
  -3   7   7   15.20    3.70
   3   7  -7   13.20    2.80
   1  -7  -7  146.79    8.00
  -1  -7   7  136.09    9.70
  -1  -7   7  141.69    8.40
   1  -7  -7  138.19    8.00
   1  -7  -7  136.59    8.10
  -1   7   7  142.49    7.70
   1   7  -7  138.39    7.70
  -1   7   7  140.29    7.40
   1   7  -7  140.29    7.40
  -1   7   7  132.59    7.70
   1   7  -7  153.48    7.80
   1  -7   7    1.60    3.50
  -1  -7  -7    0.70    2.70
  -1  -7  -7    3.30    2.20
   1  -7   7    3.90    2.80
  -1  -7  -7    3.30    2.60
   1   7   7   -3.10    1.80
  -1   7  -7    2.20    3.00
   1   7   7    3.80    2.30
  -1   7  -7    2.10    2.70
  -3  -7  -7  155.88   10.00
  -3  -7  -7  170.68   10.10
   3  -7   7  165.98   10.50
   3   7   7  149.69    8.50
   3   7   7  163.48    9.40
  -3   7  -7  159.68    9.70
  -3   7  -7  174.48   11.70
 -10  -8   7  173.78   15.00
 -10   8   7  160.28    9.70
  10   8  -7  167.18   11.00
 -10   8   7  101.99   17.40
  -8  -8   7  476.55   20.60
   8  -8  -7  452.65   14.00
   8  -8  -7  461.75   15.70
   8   8  -7  462.95   17.80
  -8   8   7  485.45   16.30
  -8   8   7  469.25   19.30
   8   8  -7  442.26   14.90
  -8   8   7  467.35   17.60
   6  -8  -7  247.28    9.50
   6  -8  -7  246.58   10.70
  -6  -8   7  239.18   12.60
  -6  -8   7  248.98   14.80
  -6   8   7  239.88   12.10
   6   8  -7  251.17   12.00
   6   8  -7  247.98   10.60
  -6   8   7  246.48   10.70
   4  -8  -7 1104.19   26.70
  -4  -8   7 1074.19   25.90
   4  -8  -7 1063.69   24.60
   4  -8  -7 1074.49   24.90
  -4  -8   7 1082.69   29.80
   4   8  -7 1053.39   27.30
  -4   8   7 1060.89   26.20
  -4   8   7 1116.59   28.80
   4   8  -7 1095.69   26.60
   2  -8  -7  585.74   18.50
  -2  -8   7  613.24   18.60
   2  -8  -7  625.04   17.50
   2  -8  -7  623.44   17.20
   2  -8  -7  634.94   18.60
  -2  -8   7  653.13   21.40
   2   8  -7  651.33   18.70
  -2   8   7  630.44   17.40
   2   8  -7  692.43   21.20
  -2   8   7  622.44   18.20
   0  -8  -7  492.35   16.50
   0  -8   7  473.95   16.40
   0  -8  -7  455.35   15.60
   0  -8  -7  463.45   16.90
   0  -8   7  485.85   17.80
   0   8   7  490.55   16.10
   0   8   7  488.85   15.10
   0   8  -7  471.25   15.60
   0   8  -7  538.45   16.30
  -2  -8  -7  722.43   22.00
   2  -8   7  730.03   22.30
  -2  -8  -7  730.23   22.20
   2  -8   7  715.63   22.90
  -2   8  -7  740.33   25.20
   2   8   7  733.63   21.50
  -2   8  -7  714.33   20.50
  -4  -8  -7  115.69    9.40
  -4  -8  -7  133.89    9.60
   4  -8   7  110.89    9.30
  -4   8  -7  138.59   10.90
   4   8   7  118.29    8.20
  -9  -9   7   77.99   10.20
   9  -9  -7   88.19    7.20
  -9   9   7   90.29    9.90
   9   9  -7   85.59    8.80
  -9   9   7   59.79    6.70
  -7  -9   7  315.37   17.80
  -7  -9   7  292.87   14.40
   7  -9  -7  334.57   12.90
   7  -9  -7  293.57   11.20
  -7   9   7  331.37   14.60
   7   9  -7  300.77   12.20
  -7   9   7  321.47   15.00
   7   9  -7  308.27   14.00
  -7   9   7  322.57   13.20
   5  -9  -7   57.09    5.90
   5  -9  -7   61.79    4.90
  -5  -9   7   58.69    7.40
   5   9  -7   59.39    6.50
  -5   9   7   54.89    7.00
   5   9  -7   63.39    6.60
  -5   9   7   55.49    6.20
   3  -9  -7 1208.88   28.00
  -3  -9   7 1254.67   33.90
  -3  -9   7 1218.78   29.80
   3  -9  -7 1248.68   30.20
   3   9  -7 1246.68   30.10
  -3   9   7 1214.88   29.90
   1  -9  -7   25.10    4.80
  -1  -9   7   22.90    5.00
  -1  -9   7   23.00    5.00
   1  -9  -7   26.40    4.20
   1  -9  -7   26.00    4.10
  -1   9   7   21.60    4.20
  -1   9   7   21.90    3.70
   1   9  -7   20.90    4.00
   1  -9   7  974.00   28.50
  -1  -9  -7  975.90   26.50
   1  -9   7  979.90   27.50
  -1  -9  -7  981.90   26.00
  -1   9  -7  956.70   25.50
   1   9   7  977.20   26.50
  -3  -9  -7   86.49    7.50
  -3  -9  -7   70.89    7.40
   3  -9   7   71.49    8.20
  -3   9  -7   76.79    9.70
  -3   9  -7   71.89    7.10
   3   9   7   76.49    7.90
   8 -10  -7   15.30    3.50
  -8 -10   7   30.50    7.90
   8 -10  -7   13.90    3.80
  -8  10   7   15.50    4.10
   8  10  -7   14.10    3.70
  -8  10   7   27.00    5.60
   8  10  -7   16.40    4.20
  -6 -10   7   50.69    7.60
   6 -10  -7   41.00    5.20
   6 -10  -7   44.00    5.20
  -6 -10   7   35.70    7.40
  -6  10   7   39.70    5.80
   6  10  -7   34.30    5.40
   6  10  -7   41.40    5.80
  -4 -10   7   36.40    5.40
   4 -10  -7   42.70    5.30
   4 -10  -7   40.70    5.50
  -4 -10   7   41.10    7.10
   4  10  -7   32.20    5.10
  -4  10   7   44.00    5.70
   2 -10  -7    5.20    2.60
  -2 -10   7    2.10    3.60
   2 -10  -7    4.00    3.20
  -2 -10   7    4.30    4.40
   2  10  -7    7.70    3.40
  -2  10   7    1.60    2.10
  -2  10   7    9.60    3.20
   0 -10  -7    5.80    3.50
   0 -10   7    0.20    3.90
   0 -10  -7   12.70    3.50
   0 -10   7    3.70    4.30
   0  10   7    8.20    3.10
   0  10  -7    6.40    2.70
   2 -10   7   43.20    7.30
   2 -10   7   29.30    6.50
  -2 -10  -7   38.30    5.90
   2  10   7   32.00    5.60
  -2  10  -7   37.10    5.60
   5 -11  -7    7.50    2.60
  -5 -11   7    6.80    3.90
   5 -11  -7    9.60    3.50
  -5  11   7    7.70    3.40
   5  11  -7    7.60    2.80
  -3 -11   7   41.10    6.60
   3 -11  -7   37.10    5.10
  -3 -11   7   61.09    8.80
   3 -11  -7   38.30    4.90
  -3  11   7   44.10    6.30
   3  11  -7   53.49    6.80
   1 -11  -7   29.60    4.70
  -1 -11   7   23.70    6.20
  -1 -11   7   33.00    6.30
   1 -11  -7   21.90    4.50
   1  11  -7   32.10    5.00
  -1  11   7   24.20    4.90
  -1  11  -7   35.50    5.30
 -12   0   8   76.09   10.80
 -12   0   8   68.79   11.30
 -10   0   8   95.59   11.80
 -10   0   8   81.79    8.70
 -10   0   8   77.09    9.70
  10   0  -8   86.89    6.90
   8   0  -8  829.62   19.20
  -8   0   8  822.22   24.60
  -8   0   8  819.32   26.20
   8   0  -8  807.12   22.00
  -6   0   8    2.40    2.70
  -6   0   8   -0.70    2.90
   6   0  -8    0.30    1.00
  -6   0   8   -1.50    1.90
   6   0  -8    0.00    1.50
   4   0  -8 3495.25   64.09
   4   0  -8 3396.06   60.29
   4   0  -8 3527.55   63.19
  -4   0   8 3445.86   66.59
   4   0  -8 3337.27   60.69
  -4   0   8 3470.45   64.79
  -4   0   8 3324.37   65.29
  -2   0   8   43.00    3.70
   2   0  -8   38.90    2.90
  -2   0   8   38.70    4.80
   2   0  -8   34.30    4.30
  -2   0   8   37.00    3.80
  -2   0   8   40.10    4.90
   2   0  -8   42.00    4.30
   2   0  -8   37.30    3.70
   0   0   8 2680.93   51.89
   0   0  -8 2667.23   53.89
   0   0   8 2683.33   51.29
   0   0   8 2696.63   53.59
   0   0  -8 2728.03   52.29
   0   0  -8 2623.14   52.59
   2   0   8  535.15   16.90
   2   0   8  531.65   15.90
   2   0   8  546.85   17.00
  -2   0  -8  548.65   16.80
  -2   0  -8  514.15   17.30
  -2   0  -8  544.75   18.60
   4   0   8  689.63   20.30
  -4   0  -8  731.03   24.30
  -4   0  -8  721.43   21.60
 -11  -1   8    7.60    7.20
 -11  -1   8    9.20    5.60
  11   1  -8   12.30    3.60
 -11   1   8   17.90    7.60
 -11   1   8   11.70    5.60
  -9  -1   8  336.17   17.50
  -9  -1   8  353.86   15.80
   9  -1  -8  331.97   11.20
   9  -1  -8  316.17   12.50
   9   1  -8  333.67   13.40
  -9   1   8  327.97   17.10
  -9   1   8  333.07   15.50
  -9   1   8  314.17   14.50
   7  -1  -8    1.60    1.60
   7  -1  -8    2.40    1.80
  -7  -1   8   -2.40    2.30
  -7  -1   8    0.80    3.50
   7  -1  -8   -0.90    1.20
  -7  -1   8    1.30    3.80
  -7   1   8   -0.40    1.60
  -7   1   8    1.90    3.60
   7   1  -8    1.00    1.00
   7   1  -8    3.30    2.10
  -7   1   8    7.60    4.30
  -5  -1   8  382.96   12.80
  -5  -1   8  379.66   14.60
   5  -1  -8  392.66   10.60
   5  -1  -8  390.76   12.00
  -5  -1   8  366.06   14.10
  -5   1   8  373.36   13.70
  -5   1   8  390.66   12.60
   5   1  -8  419.46   11.80
  -5   1   8  411.66   14.90
  -3  -1   8  317.57    9.60
  -3  -1   8  307.07   11.70
   3  -1  -8  303.17   10.70
   3  -1  -8  322.27   10.60
   3  -1  -8  303.77    9.00
  -3  -1   8  298.07    9.20
  -3  -1   8  316.77   12.50
   3  -1  -8  292.57    9.40
   3   1  -8  307.37    9.70
  -3   1   8  323.97   12.10
  -3   1   8  274.97   10.10
   3   1  -8  318.47   11.20
  -3   1   8  318.67   11.50
  -3   1   8  311.97    9.90
   3   1  -8  319.17   10.20
  -1  -1   8   33.60    4.50
  -1  -1   8   35.30    5.00
  -1  -1   8   37.50    3.90
   1  -1  -8   36.50    3.70
  -1  -1   8   38.70    4.20
   1  -1  -8   32.60    4.30
   1  -1  -8   35.50    3.40
   1  -1  -8   37.90    4.50
   1   1  -8   38.90    4.10
  -1   1   8   34.90    2.90
  -1   1   8   36.00    3.90
   1   1  -8   40.60    4.30
  -1   1   8   38.50    4.60
   1   1  -8   39.60    4.90
  -1   1   8   31.20    4.30
  -1  -1  -8  583.34   15.30
  -1  -1  -8  577.64   18.20
   1  -1   8  574.24   16.00
   1  -1   8  590.54   17.70
  -1  -1  -8  588.94   17.10
   1  -1   8  562.94   16.90
  -1  -1  -8  558.34   17.40
  -1   1  -8  566.64   16.30
  -1   1  -8  579.64   17.00
   1   1   8  569.94   16.30
  -1   1  -8  563.44   18.30
  -1   1  -8  560.24   17.30
   1   1   8  591.34   17.70
  -3  -1  -8   31.80    5.00
  -3  -1  -8   39.00    6.20
   3  -1   8   35.00    4.50
   3  -1   8   31.80    4.70
  -3  -1  -8   35.40    4.90
   3  -1   8   30.20    5.00
   3   1   8   38.30    5.00
   3   1   8   36.00    4.80
  -3   1  -8   28.90    4.60
  -3   1  -8   28.90    4.50
  -3   1  -8   38.70    5.80
  -3   1  -8   31.70    4.70
  -5  -1  -8   99.39    7.90
   5  -1   8   81.09    6.90
  -5  -1  -8   99.99   10.00
   5   1   8   91.29    7.20
  -5   1  -8   92.89    9.60
  -5   1  -8   88.19    7.70
 -12  -2   8    8.80    5.60
 -12  -2   8    3.90    5.40
 -12   2   8    6.40    5.60
 -12   2   8    7.90    6.60
  12   2  -8    1.30    3.00
 -10  -2   8  852.51   29.90
  10  -2  -8  882.91   22.40
 -10  -2   8  854.31   26.60
  10   2  -8  849.91   25.10
 -10   2   8  892.11   29.90
 -10   2   8  843.22   25.40
 -10   2   8  878.11   27.90
   8  -2  -8   21.90    3.60
  -8  -2   8   18.50    5.70
  -8  -2   8   17.70    5.70
   8  -2  -8   15.10    2.80
  -8   2   8   17.40    4.50
  -8   2   8   24.10    5.10
  -8   2   8   16.40    6.00
   8   2  -8   12.60    3.30
  -6  -2   8  506.45   15.50
   6  -2  -8  502.25   14.40
  -6  -2   8  499.55   18.00
   6  -2  -8  519.75   13.70
  -6  -2   8  517.35   18.40
  -6   2   8  525.95   17.30
   6   2  -8  510.65   14.00
  -6   2   8  516.75   14.90
  -6   2   8  498.35   17.30
   6   2  -8  513.05   16.20
   4  -2  -8   76.69    4.60
   4  -2  -8   74.99    4.90
  -4  -2   8   70.59    6.20
  -4  -2   8   73.29    4.10
  -4  -2   8   81.39    7.80
   4  -2  -8   79.79    5.30
   4  -2  -8   72.69    4.10
  -4  -2   8   70.59    4.00
   4   2  -8   74.79    4.20
  -4   2   8   81.89    4.40
  -4   2   8   80.89    5.70
   4   2  -8   69.69    4.50
  -4   2   8   80.39    5.80
   4   2  -8   72.39    5.30
  -4   2   8   73.29    6.60
  -2  -2   8  159.98    6.60
  -2  -2   8  166.18    9.00
   2  -2  -8  169.78    6.90
   2  -2  -8  163.48    7.30
   2  -2  -8  161.08    7.80
   2  -2  -8  175.18    7.90
  -2  -2   8  182.78    9.30
  -2  -2   8  170.88    7.20
  -2   2   8  172.68    8.50
  -2   2   8  168.98    6.40
  -2   2   8  177.58    8.40
   2   2  -8  173.08    7.50
   2   2  -8  169.08    7.00
   2   2  -8  170.58    8.30
  -2   2   8  169.18    7.40
   0  -2   8   49.60    6.00
   0  -2  -8   45.50    4.90
   0  -2  -8   44.50    5.30
   0  -2  -8   46.40    5.00
   0  -2   8   47.40    4.30
   0  -2   8   48.30    4.10
   0  -2  -8   49.70    4.30
   0   2   8   41.70    4.50
   0   2  -8   43.70    5.40
   0   2   8   40.00    3.60
   0   2  -8   49.20    4.80
   0   2   8   46.30    5.60
   0   2  -8   40.90    4.40
   0   2  -8   52.59    5.60
  -2  -2  -8  242.68   11.10
   2  -2   8  239.88   10.70
   2  -2   8  238.98   11.00
  -2  -2  -8  239.48   11.80
   2  -2   8  245.18    9.90
  -2  -2  -8  229.48    9.70
  -2  -2  -8  239.08   10.70
  -2   2  -8  231.68   11.10
  -2   2  -8  219.78   10.50
   2   2   8  237.38   10.10
  -2   2  -8  237.78    9.80
  -2   2  -8  258.67   12.40
   2   2   8  259.77   11.20
   4  -2   8  191.58    9.50
  -4  -2  -8  168.48   11.60
   4  -2   8  196.88   10.70
  -4  -2  -8  198.58   11.30
  -4   2  -8  176.88   11.60
   4   2   8  165.88    9.30
  -4   2  -8  177.38   10.70
 -11  -3   8   14.70    7.50
  11   3  -8    4.10    3.10
 -11   3   8    3.40    4.80
 -11   3   8    0.80    4.30
   9  -3  -8  216.78    9.40
  -9  -3   8  213.18   14.50
  -9  -3   8  202.28   12.20
   9   3  -8  218.38   11.40
  -9   3   8  215.98   12.00
  -9   3   8  203.68   12.40
  -9   3   8  221.68   14.40
  -7  -3   8   13.20    3.60
   7  -3  -8   19.20    3.00
   7  -3  -8    9.70    2.50
  -7  -3   8   15.50    5.00
   7  -3  -8   19.90    3.30
  -7  -3   8   14.10    4.40
   7   3  -8   14.00    3.50
  -7   3   8   26.50    5.70
  -7   3   8   12.70    2.50
  -7   3   8   16.00    4.30
  -5  -3   8   98.69    8.60
  -5  -3   8   97.99    7.20
   5  -3  -8   98.99    5.60
   5  -3  -8   97.19    5.50
   5   3  -8   97.79    6.70
  -5   3   8  112.39    7.40
  -5   3   8   97.19    6.10
   5   3  -8  100.79    5.30
   5   3  -8   97.09    4.80
  -5   3   8   92.29    4.80
  -5   3   8   84.79    6.80
   3  -3  -8    5.30    1.90
   3  -3  -8   12.00    2.90
  -3  -3   8    8.50    1.80
  -3  -3   8    8.10    2.10
  -3  -3   8    9.20    3.50
   3  -3  -8    8.20    2.10
   3  -3  -8    9.80    2.30
  -3  -3   8    4.10    3.30
  -3   3   8    9.40    2.10
   3   3  -8   10.90    2.80
  -3   3   8    6.40    2.50
   3   3  -8    8.80    2.10
   3   3  -8    6.40    1.80
  -3   3   8    8.80    3.00
  -1  -3   8  131.89    7.10
   1  -3  -8  131.49    7.40
   1  -3  -8  122.99    7.10
  -1  -3   8  144.69    8.70
   1  -3  -8  125.49    6.60
  -1  -3   8  112.49    7.70
  -1  -3   8  120.99    5.80
   1  -3  -8  119.89    6.90
   1   3  -8  127.29    7.70
  -1   3   8  137.49    7.50
   1   3  -8  127.79    6.90
   1   3  -8  131.89    6.10
  -1   3   8  128.59    6.10
  -1   3   8  132.19    7.00
  -1   3   8  124.19    6.70
   1  -3   8   21.00    4.50
  -1  -3  -8   12.40    3.70
   1  -3   8   13.40    3.60
  -1  -3  -8   16.20    3.20
  -1  -3  -8   13.70    3.70
   1  -3   8   21.70    3.40
  -1  -3  -8   17.60    4.00
  -1   3  -8   17.20    4.00
   1   3   8   15.80    3.20
  -1   3  -8   11.70    2.60
  -1   3  -8   18.80    4.10
   1   3   8   14.00    3.60
  -1   3  -8   15.20    3.60
   1   3   8   15.30    3.10
   3  -3   8  128.49    7.40
  -3  -3  -8  107.49    7.80
   3  -3   8  122.89    7.90
  -3  -3  -8  116.39    9.20
  -3   3  -8  126.89    9.60
  -3   3  -8  120.89    9.00
   3   3   8  139.79    8.10
   5  -3   8    9.80    3.10
   5  -3   8    9.00    3.30
  -5  -3  -8   15.10    4.40
  -5  -3  -8   11.30    4.70
  -5   3  -8   15.80    5.10
  -5   3  -8    7.80    3.90
   5   3   8   10.60    3.60
 -10  -4   8  466.35   19.90
 -10  -4   8  503.35   22.90
  10  -4  -8  497.15   15.80
  10   4  -8  447.86   17.70
 -10   4   8  482.05   17.90
 -10   4   8  505.55   21.60
  -8  -4   8  136.29   11.20
   8  -4  -8  136.19    7.30
  -8  -4   8  128.39   11.30
   8   4  -8  128.69    8.80
  -8   4   8  136.09   11.00
  -8   4   8  149.69    9.80
   6  -4  -8 1721.63   36.20
   6  -4  -8 1766.62   36.00
  -6  -4   8 1710.13   38.20
  -6  -4   8 1773.52   42.40
   6   4  -8 1809.52   39.90
  -6   4   8 1743.63   34.80
  -6   4   8 1734.43   36.40
  -6   4   8 1768.92   39.90
  -6   4   8 1734.53   39.70
   4  -4  -8    6.70    2.00
  -4  -4   8    5.30    2.00
   4  -4  -8    7.00    1.60
  -4  -4   8   10.00    4.00
   4  -4  -8    8.80    2.50
   4  -4  -8    6.40    1.80
  -4  -4   8    7.50    2.80
   4   4  -8    5.20    1.80
  -4   4   8    5.00    2.40
   4   4  -8    5.30    1.60
  -4   4   8    7.00    1.80
  -4   4   8    7.80    2.60
   2  -4  -8 1778.42   36.60
  -2  -4   8 1771.82   40.00
  -2  -4   8 1793.02   39.70
   2  -4  -8 1779.02   37.10
  -2  -4   8 1793.72   36.50
   2  -4  -8 1813.32   37.70
  -2  -4   8 1793.22   34.60
   2  -4  -8 1742.63   35.90
  -2   4   8 1764.22   37.90
  -2   4   8 1771.22   38.40
  -2   4   8 1785.12   36.70
  -2   4   8 1776.82   35.80
   2   4  -8 1816.32   38.60
   0  -4  -8    2.10    2.20
   0  -4   8    1.00    1.50
   0  -4   8    0.90    1.60
   0  -4  -8    3.80    2.20
   0  -4  -8    2.00    2.50
   0  -4   8    2.10    3.40
   0  -4  -8    2.70    2.70
   0   4  -8    3.20    2.20
   0   4   8    3.20    1.60
   0   4   8    1.90    2.00
   0   4   8   -0.10    1.90
   0   4  -8    0.30    1.40
  -2  -4  -8  418.86   15.50
   2  -4   8  432.86   13.40
  -2  -4  -8  419.66   14.30
   2  -4   8  444.06   15.70
  -2  -4  -8  405.36   15.50
   2  -4   8  408.66   15.30
  -2  -4  -8  410.26   15.90
  -2   4  -8  443.16   16.60
  -2   4  -8  382.56   15.00
   2   4   8  410.96   14.00
   2   4   8  421.86   14.10
  -2   4  -8  431.96   16.60
  -4  -4  -8   84.49    8.60
   4  -4   8   78.89    7.30
  -4  -4  -8   78.69    8.70
  -4  -4  -8   91.29    7.30
   4  -4   8   69.29    6.00
  -4   4  -8   88.69    8.50
  -4   4  -8   78.19    8.50
   4   4   8   70.69    7.00
 -11  -5   8  420.36   21.90
  11  -5  -8  423.86   15.20
 -11   5   8  416.46   19.50
  11   5  -8  416.36   17.10
  -9  -5   8  216.08   15.00
  -9  -5   8  218.78   14.30
   9  -5  -8  224.78   10.10
  -9   5   8  218.68   11.90
  -9   5   8  231.18   14.00
   9   5  -8  227.28   12.30
   7  -5  -8  889.81   22.00
  -7  -5   8  831.62   23.40
   7  -5  -8  885.01   21.80
  -7  -5   8  864.91   27.20
   7   5  -8  842.22   20.50
   7   5  -8  888.31   25.10
  -7   5   8  874.91   25.80
  -7   5   8  869.91   21.10
  -7   5   8  901.31   25.40
   5  -5  -8  265.97   10.10
  -5  -5   8  260.87   12.00
   5  -5  -8  250.27    9.60
  -5  -5   8  250.17   13.00
   5   5  -8  264.97    9.50
  -5   5   8  238.98   11.50
   5   5  -8  271.47   11.80
  -5   5   8  253.97   11.10
  -5   5   8  253.67    9.30
  -3  -5   8  252.07   12.70
  -3  -5   8  237.68    9.30
  -3  -5   8  235.58   11.70
   3  -5  -8  241.28    9.50
   3  -5  -8  240.78    8.10
   3  -5  -8  239.68    9.70
   3  -5  -8  232.58    9.30
  -3   5   8  247.58    9.30
   3   5  -8  234.08    9.10
  -3   5   8  258.47   11.10
   3   5  -8  251.67   10.50
  -3   5   8  249.97   10.60
   1  -5  -8  329.37   11.80
   1  -5  -8  292.07   11.60
  -1  -5   8  302.17   13.30
  -1  -5   8  319.37   12.00
  -1  -5   8  315.37   13.70
   1  -5  -8  323.07   12.40
   1   5  -8  332.57   12.80
  -1   5   8  309.17   11.20
  -1   5   8  315.27   11.70
  -1   5   8  312.07   11.00
  -1  -5  -8   -2.00    1.10
  -1  -5  -8    1.00    2.20
   1  -5   8    1.00    2.80
  -1  -5  -8    2.50    2.90
   1  -5   8    1.10    1.70
  -1  -5  -8    1.80    2.60
   1  -5   8   -1.30    3.40
   1   5   8   -1.00    1.50
  -1   5  -8    0.70    2.60
  -1   5  -8   -0.70    1.80
  -1   5  -8    0.30    1.50
   1   5   8    1.80    1.70
   3  -5   8   97.89    8.30
  -3  -5  -8   91.59    6.80
  -3  -5  -8   67.19    7.00
   3  -5   8   80.29    5.90
  -3  -5  -8   79.79    7.10
  -3   5  -8   86.29    8.00
  -3   5  -8   96.09    8.50
   3   5   8   80.79    6.70
   3   5   8   86.19    7.00
 -10  -6   8   24.00    7.80
  10  -6  -8   26.40    4.10
 -10  -6   8   25.40    7.40
 -10   6   8   27.20    6.80
  10   6  -8   26.40    5.10
   8  -6  -8  819.82   21.50
  -8  -6   8  807.92   27.70
  -8   6   8  803.92   25.80
   8   6  -8  851.91   25.30
  -8   6   8  752.42   20.70
  -8   6   8  814.02   24.50
  -6  -6   8  212.58   13.40
   6  -6  -8  230.48    9.40
  -6  -6   8  230.58   11.30
   6  -6  -8  256.57   10.30
   6   6  -8  225.18   11.30
   6   6  -8  218.28    9.10
  -6   6   8  237.58   11.40
  -6   6   8  231.28   11.50
  -6   6   8  235.68    9.50
   4  -6  -8  713.23   19.50
   4  -6  -8  858.31   26.90
  -4  -6   8  710.33   18.50
   4  -6  -8  698.13   17.30
  -4  -6   8  738.83   24.50
  -4  -6   8  739.93   22.40
   4  -6  -8  744.03   19.50
   4   6  -8  723.13   19.20
  -4   6   8  711.43   18.80
  -4   6   8  716.73   21.30
   4   6  -8  748.83   21.50
   2  -6  -8  277.37   11.20
  -2  -6   8  274.77   11.20
  -2  -6   8  278.37   13.20
   2  -6  -8  294.47   11.60
   2  -6  -8  270.37   11.20
  -2  -6   8  279.27   13.70
  -2   6   8  298.67   11.80
  -2   6   8  277.77   10.70
   2   6  -8  286.67   11.70
  -2   6   8  267.07   10.50
   0  -6   8  706.93   21.80
   0  -6  -8  685.63   20.20
   0  -6  -8  663.53   20.20
   0  -6   8  688.83   20.10
   0  -6   8  534.75   21.80
   0  -6  -8  679.53   19.70
   0   6   8  699.03   19.30
   0   6   8  673.43   18.80
   0   6  -8  682.63   20.40
  -2  -6  -8   24.30    4.50
  -2  -6  -8   29.50    5.40
   2  -6   8   21.00    5.00
   2  -6   8   33.90    5.20
  -2   6  -8   30.50    6.10
   2   6   8   28.10    4.20
   2   6   8   24.90    4.20
  -2   6  -8   26.20    4.90
   4  -6   8  491.25   18.30
  -4  -6  -8  477.75   18.50
  -4   6  -8  437.76   17.70
  -4   6  -8  467.95   19.90
   4   6   8  474.15   16.10
  -9  -7   8    5.40    6.00
   9  -7  -8    2.20    2.60
  -9  -7   8    3.20    3.90
  -9   7   8   13.80    5.70
   9   7  -8    4.70    3.50
  -9   7   8    6.90    3.70
  -9   7   8    4.30    2.10
  -7  -7   8  145.59   12.30
  -7  -7   8  127.79    9.40
   7  -7  -8  125.39    8.00
   7  -7  -8  131.09    7.10
  -7   7   8  131.39    9.50
  -7   7   8  144.79    9.60
   7   7  -8  135.69    9.40
   7   7  -8  134.19    7.40
  -7   7   8  132.99    7.70
  -5  -7   8   41.50    7.50
   5  -7  -8   29.90    4.10
   5  -7  -8   28.20    3.40
   5  -7  -8   29.70    4.10
  -5  -7   8   34.00    6.20
  -5   7   8   38.50    5.60
   5   7  -8   29.00    4.10
  -5   7   8   36.10    4.40
   5   7  -8   34.90    5.30
  -3  -7   8  157.28    8.40
  -3  -7   8  152.08   10.40
   3  -7  -8  150.68    8.40
   3  -7  -8  139.79    7.80
  -3  -7   8  147.79   10.80
   3  -7  -8  141.49    7.00
   3  -7  -8  137.59    7.90
   3   7  -8  147.29    8.10
  -3   7   8  138.79    8.70
   3   7  -8  152.08    8.70
  -3   7   8  146.99    7.60
   1  -7  -8  353.06   13.60
   1  -7  -8  366.96   13.80
  -1  -7   8  375.36   14.20
  -1  -7   8  347.17   15.50
  -1  -7   8  363.26   15.70
   1  -7  -8  339.77   13.90
   1   7  -8  364.86   12.90
  -1   7   8  354.96   13.10
  -1   7   8  361.96   12.90
   1   7  -8  348.17   13.50
  -1  -7  -8   77.99    7.10
   1  -7   8   95.39    7.50
  -1  -7  -8   88.39    7.70
   1  -7   8   93.19    9.40
   1   7   8   84.39    6.50
  -1   7  -8   93.59    7.50
   1   7   8   86.89    6.50
  -3  -7  -8  294.57   14.10
   3  -7   8  272.77   13.20
  -3  -7  -8  307.47   13.50
   3   7   8  309.17   13.40
  -3   7  -8  303.17   15.70
  -3   7  -8  304.27   13.80
   3   7   8  291.47   12.10
  -8  -8   8  266.37   16.30
   8  -8  -8  252.47   11.50
   8   8  -8  240.08   10.90
   8   8  -8  248.28   12.80
  -8   8   8  248.98   11.40
  -8   8   8  271.97   14.80
  -8   8   8  260.97   13.30
   6  -8  -8   10.50    3.00
   6  -8  -8   10.20    2.90
  -6  -8   8    5.40    4.20
  -6  -8   8    9.40    5.40
   6  -8  -8    9.50    2.60
  -6   8   8   12.60    4.10
   6   8  -8   14.60    4.00
   6   8  -8    6.10    2.80
  -6   8   8    9.30    3.00
   4  -8  -8  490.45   16.10
  -4  -8   8  415.96   14.50
   4  -8  -8  429.56   13.50
  -4  -8   8  448.36   18.30
   4  -8  -8  460.05   14.50
  -4  -8   8  475.45   20.40
   4   8  -8  445.86   16.10
  -4   8   8  443.56   15.10
  -4   8   8  440.46   16.70
   4   8  -8  440.86   15.20
  -2  -8   8   83.19    9.10
   2  -8  -8   89.29    6.70
  -2  -8   8   97.19    9.90
  -2  -8   8   91.59    7.60
   2  -8  -8   96.09    6.20
   2  -8  -8   79.79    6.80
   2  -8  -8   79.99    7.40
   2   8  -8   88.09    7.00
  -2   8   8   93.09    6.60
  -2   8   8   80.79    6.20
   0  -8   8  184.58   10.90
   0  -8  -8  178.68   10.00
   0  -8   8  172.78   11.80
   0  -8  -8  177.28   10.20
   0   8   8  179.38    9.80
   0   8   8  180.48    9.20
   0   8  -8  181.18    9.70
   2  -8   8   23.60    5.80
   2  -8   8   38.40    5.80
  -2  -8  -8   26.80    5.00
  -2  -8  -8   34.30    6.10
  -2   8  -8   27.20    4.70
   2   8   8   33.00    5.30
   2   8   8   32.90    4.70
  -7  -9   8   11.50    6.00
   7  -9  -8    0.50    2.80
  -7  -9   8    7.00    4.40
  -7   9   8    2.40    3.10
   7   9  -8    0.70    2.40
   7   9  -8    2.10    2.30
  -7   9   8   -0.80    2.40
   5  -9  -8   48.60    6.00
  -5  -9   8   61.29    9.30
  -5  -9   8   51.09    7.80
   5  -9  -8   58.89    5.60
  -5   9   8   54.49    6.60
   5   9  -8   46.30    6.20
   5   9  -8   55.39    6.00
  -5   9   8   60.89    6.60
  -3  -9   8   36.00    5.40
   3  -9  -8   46.00    5.20
   3  -9  -8   42.90    5.70
   3  -9  -8   43.40    5.20
  -3  -9   8   38.10    7.10
  -3   9   8   43.10    5.30
  -3   9   8   41.10    5.80
   3   9  -8   44.60    5.70
   1  -9  -8   24.70    5.00
   1  -9  -8   32.00    4.40
  -1  -9   8   21.00    5.10
  -1  -9   8   26.60    6.00
   1  -9  -8   29.60    4.70
  -1   9   8   39.20    5.40
  -1   9   8   25.00    4.30
   1   9  -8   29.20    5.10
  -1  -9  -8  106.69    8.10
  -1  -9  -8  116.29    8.70
   1  -9   8  107.69    9.30
   1  -9   8  111.99   10.20
   1   9   8  115.49    8.50
  -1   9  -8  102.79    7.40
   6 -10  -8  265.07   12.20
  -6 -10   8  255.77   14.70
   6 -10  -8  257.57   10.70
  -6 -10   8  262.57   16.90
   6  10  -8  256.27   12.70
   6  10  -8  259.67   12.10
  -6  10   8  240.58   11.90
   4 -10  -8   72.99    7.30
   4 -10  -8   75.29    5.80
  -4 -10   8   73.59    9.60
  -4 -10   8   64.99    9.70
   4  10  -8   65.09    7.00
  -4  10   8   79.09    7.10
   2 -10  -8  398.56   15.60
  -2 -10   8  405.56   16.00
   2 -10  -8  393.86   14.10
  -2 -10   8  381.16   17.80
   2  10  -8  391.96   15.40
  -2  10   8  375.56   15.10
  -2  10   8  361.96   13.70
   0 -10  -8  149.39   10.20
   0 -10  -8  147.79    8.70
   0 -10   8  140.29   11.40
   0 -10   8  149.59   10.60
   0  10  -8  138.49    9.40
   0  10   8  142.59    9.50
   5 -11  -8  128.99   10.80
  -5 -11   8  194.08   19.90
   5 -11  -8  154.98    8.80
  -5  11   8  152.98    9.80
   5  11  -8  162.58   10.20
   3 -11  -8   87.89    7.90
   3 -11  -8   96.29    7.30
  -3 -11   8   92.89    8.50
  -3 -11   8   85.19    9.80
   3  11  -8  118.39    8.80
  -3  11   8  101.49    8.30
 -12   0   9    2.70    5.20
 -12   0   9    4.70    8.20
 -10   0   9    4.10    4.70
 -10   0   9    0.70    6.00
  10   0  -9    5.70    3.00
  -8   0   9   -2.00    3.70
  -8   0   9    1.80    3.30
   8   0  -9    2.10    1.50
   8   0  -9    1.80    2.10
  -6   0   9   -0.60    3.50
   6   0  -9   -2.10    1.30
  -6   0   9   -3.20    2.70
  -6   0   9   -1.70    2.40
  -4   0   9   -1.90    2.20
  -4   0   9   -0.20    1.60
  -4   0   9    3.90    3.40
   4   0  -9    1.60    1.90
  -4   0   9    3.10    2.70
   4   0  -9    1.30    1.80
   2   0  -9    0.50    2.00
  -2   0   9   -0.10    1.50
   2   0  -9    1.50    1.60
  -2   0   9    3.90    3.00
  -2   0   9   -1.80    2.50
  -2   0   9    0.10    1.60
   2   0  -9    0.90    1.80
   0   0   9    1.40    2.20
   0   0  -9    1.10    2.40
   0   0  -9   -1.20    2.30
   0   0   9    1.10    2.10
   0   0  -9   -5.70    1.90
   0   0   9    0.20    2.60
   2   0   9    0.20    1.60
  -2   0  -9    2.60    3.30
   2   0   9    1.80    2.70
   2   0   9    2.80    2.80
  -2   0  -9    1.90    2.80
  -4   0  -9    0.70    3.80
  -4   0  -9   -3.10    2.90
   4   0   9    0.80    2.70
 -11  -1   9   58.29    9.40
 -11  -1   9   61.49    8.20
 -11  -1   9   66.19   10.90
 -11   1   9   55.89    7.60
  11   1  -9   70.19    7.40
 -11   1   9   76.49   11.30
 -11   1   9   60.69    9.20
   9  -1  -9  140.79    8.10
  -9  -1   9  142.49   11.60
  -9  -1   9  139.49   12.40
   9  -1  -9  144.29    7.10
  -9   1   9  134.99   10.60
   9   1  -9  144.09    9.20
  -9   1   9  152.38   12.80
   7  -1  -9  102.29    7.00
  -7  -1   9  106.29    7.00
  -7  -1   9  111.09    9.90
   7  -1  -9  103.69    5.50
  -7  -1   9  113.19    9.70
   7  -1  -9  102.29    6.40
   7   1  -9  108.09    7.20
  -7   1   9  105.59    6.60
  -7   1   9   99.99    9.00
  -7   1   9  111.39    9.40
   7   1  -9  111.79    6.40
   5  -1  -9  323.27    9.80
   5  -1  -9  323.07   11.30
  -5  -1   9  334.77   12.90
  -5  -1   9  320.67   10.20
  -5  -1   9  308.27   13.60
  -5  -1   9  317.77   14.30
  -5   1   9  323.37   13.40
   5   1  -9  321.57   10.90
  -5   1   9  321.97   12.10
  -5   1   9  310.27   12.60
   3  -1  -9  172.38    6.80
   3  -1  -9  166.18    7.40
   3  -1  -9  173.18    8.50
  -3  -1   9  171.78    7.10
  -3  -1   9  172.68    7.20
  -3  -1   9  173.68   10.20
  -3  -1   9  175.48    9.60
   3  -1  -9  179.98    8.10
  -3   1   9  172.58    9.60
  -3   1   9  182.78    7.90
  -3   1   9  179.38    8.80
   3   1  -9  175.58    7.80
   3   1  -9  168.08    7.40
   3   1  -9  177.58    8.90
   1  -1  -9   97.19    5.30
   1  -1  -9   96.99    6.60
  -1  -1   9  106.29    7.90
   1  -1  -9  100.09    6.70
  -1  -1   9   84.29    6.60
   1  -1  -9  100.39    7.10
  -1  -1   9   99.39    6.00
  -1  -1   9   87.09    6.10
  -1   1   9  101.89    7.50
  -1   1   9   80.99    6.00
  -1   1   9  114.59    6.30
   1   1  -9   92.89    6.10
   1   1  -9   80.29    6.00
   1   1  -9  100.89    7.40
   1  -1   9  209.08    9.50
   1  -1   9  198.48    9.90
   1  -1   9  191.88   10.40
  -1  -1  -9  197.48   10.90
  -1  -1  -9  205.78   10.10
  -1  -1  -9  189.88   10.30
  -1   1  -9  207.68    9.60
  -1   1  -9  205.78   11.20
  -1   1  -9  190.68    9.70
   1   1   9  201.88   10.50
   1   1   9  207.48    9.60
   3  -1   9    2.80    3.00
  -3  -1  -9   -0.60    3.40
   3  -1   9   -0.20    2.40
  -3  -1  -9    2.00    3.40
  -3   1  -9    0.80    2.80
  -3   1  -9    0.60    3.60
   3   1   9    3.00    2.10
 -10  -2   9  178.18   11.80
  10  -2  -9  206.18    9.30
 -10  -2   9  181.38   14.60
  10   2  -9  179.78   10.80
 -10   2   9  171.48   11.40
 -10   2   9  170.58   13.90
 -10   2   9  193.38   12.60
   8  -2  -9  323.77   12.70
   8  -2  -9  353.76   11.50
  -8  -2   9  341.57   15.80
   8  -2  -9  345.37   12.40
  -8  -2   9  335.57   16.40
   8   2  -9  317.07   13.40
  -8   2   9  343.37   15.30
  -8   2   9  329.97   16.30
  -6  -2   9  391.36   16.60
  -6  -2   9  365.06   13.60
  -6  -2   9  362.36   15.70
   6  -2  -9  371.06   12.50
   6  -2  -9  385.46   11.50
  -6   2   9  370.26   13.10
  -6   2   9  362.16   14.80
  -6   2   9  353.76   15.10
   6   2  -9  376.86   14.30
   6   2  -9  376.96   12.00
   4  -2  -9  317.07   11.30
  -4  -2   9  329.47   13.20
  -4  -2   9  319.87   14.30
   4  -2  -9  335.77   10.40
  -4  -2   9  315.97   10.00
   4  -2  -9  315.57   11.30
   4   2  -9  335.27   12.40
  -4   2   9  326.97   13.40
   4   2  -9  329.27   10.80
  -4   2   9  335.27   12.60
  -2  -2   9  530.75   14.40
   2  -2  -9  488.45   15.00
  -2  -2   9  536.35   15.00
   2  -2  -9  522.95   15.80
  -2  -2   9  559.34   17.90
  -2  -2   9  526.65   17.20
   2  -2  -9  510.05   15.80
   2  -2  -9  506.55   14.10
  -2   2   9  503.15   16.00
   2   2  -9  534.95   16.90
  -2   2   9  496.65   13.20
  -2   2   9  527.15   15.40
   2   2  -9  515.55   14.50
   2   2  -9  517.85   15.40
  -2   2   9  517.35   16.80
   0  -2  -9  346.17   13.20
   0  -2   9  359.06   12.90
   0  -2   9  385.96   14.80
   0  -2   9  355.26   12.00
   0  -2  -9  353.26   13.80
   0  -2  -9  333.67   12.90
   0  -2  -9  360.06   11.90
   0   2  -9  357.06   14.40
   0   2   9  334.97   13.50
   0   2  -9  352.56   13.30
   0   2   9  350.36   11.30
   0   2   9  333.67   12.30
   0   2  -9  319.57   11.60
   2  -2   9  315.07   12.20
  -2  -2  -9  323.97   13.80
  -2  -2  -9  347.67   14.90
  -2  -2  -9  312.47   11.90
   2  -2   9  344.37   13.80
   2  -2   9  327.07   13.50
  -2   2  -9  310.27   13.40
   2   2   9  320.57   12.90
  -2   2  -9  327.07   12.40
   2   2   9  311.07   13.20
  -2   2  -9  339.87   15.10
   4  -2   9  268.37   12.70
  -4  -2  -9  272.77   14.50
  -4  -2  -9  283.57   13.70
   4  -2   9  265.57   11.90
  -4   2  -9  257.87   14.40
   4   2   9  286.17   12.60
 -11  -3   9   40.70    9.30
  11  -3  -9   63.59    5.50
 -11  -3   9   41.40    7.90
 -11   3   9   51.89    9.80
 -11   3   9   56.89    7.30
  11   3  -9   54.39    7.20
   9  -3  -9  703.33   19.10
  -9  -3   9  705.43   25.20
  -9  -3   9  723.73   26.80
   9   3  -9  696.93   22.50
  -9   3   9  721.33   23.40
  -9   3   9  672.03   24.50
   7  -3  -9  218.98    8.70
   7  -3  -9  200.48    8.90
  -7  -3   9  210.48   13.00
  -7  -3   9  211.28   13.40
  -7  -3   9  207.88   10.40
  -7   3   9  199.88    8.90
  -7   3   9  205.38   11.00
   7   3  -9  212.58   11.00
  -7   3   9  178.08   11.40
  -5  -3   9 1062.59   27.60
  -5  -3   9 1110.09   30.20
   5  -3  -9 1078.99   24.40
   5  -3  -9 1121.79   26.10
   5   3  -9 1081.29   23.60
  -5   3   9 1020.20   26.50
  -5   3   9 1097.09   26.60
   5   3  -9 1126.19   24.60
  -5   3   9 1091.59   28.50
   3  -3  -9   90.69    5.90
   3  -3  -9   90.39    6.00
  -3  -3   9  102.89    8.60
   3  -3  -9   90.19    5.70
  -3  -3   9   85.99    5.60
  -3  -3   9   99.39    8.00
  -3  -3   9   89.69    4.90
   3  -3  -9   94.69    5.80
  -3   3   9   92.69    6.00
   3   3  -9   86.59    5.60
  -3   3   9   94.19    5.00
  -3   3   9   87.19    6.90
  -3   3   9   89.39    6.70
   3   3  -9   88.49    6.60
   3   3  -9   89.89    5.30
   1  -3  -9  913.31   23.70
  -1  -3   9  902.61   24.70
  -1  -3   9  919.21   25.70
   1  -3  -9  931.81   22.50
   1  -3  -9  898.91   23.70
   1  -3  -9  961.20   24.30
  -1  -3   9  927.71   21.70
  -1  -3   9  958.40   23.60
   1   3  -9  966.50   25.50
   1   3  -9  926.91   21.70
  -1   3   9  910.01   23.20
  -1   3   9  961.80   25.30
  -1   3   9  910.81   21.50
   1   3  -9  915.71   23.80
  -1  -3  -9   -5.80    2.30
   1  -3   9   -0.50    1.90
  -1  -3  -9   -1.30    2.50
   1  -3   9    3.60    3.40
  -1  -3  -9   -0.10    2.60
  -1  -3  -9    3.80    2.30
   1  -3   9    0.20    2.50
   1   3   9   -0.70    1.40
  -1   3  -9   -1.70    2.10
  -1   3  -9    5.90    2.80
  -1   3  -9    5.10    3.50
   1   3   9    0.00    2.30
   1   3   9   -0.10    2.50
  -3  -3  -9  325.87   12.70
  -3  -3  -9  314.97   14.90
  -3  -3  -9  335.97   14.80
   3  -3   9  333.97   14.50
   3  -3   9  323.67   12.50
   3   3   9  330.07   13.30
  -3   3  -9  305.07   15.00
  -3   3  -9  322.97   14.70
 -10  -4   9  187.78   12.90
 -10  -4   9  216.78   15.90
  10  -4  -9  197.98    9.70
 -10   4   9  222.48   14.70
 -10   4   9  202.48   12.00
  10   4  -9  178.38   11.10
   8  -4  -9  605.94   17.80
  -8  -4   9  645.04   24.40
  -8  -4   9  622.24   23.50
   8  -4  -9  590.44   17.10
  -8   4   9  617.34   21.10
  -8   4   9  599.14   22.00
   8   4  -9  611.94   20.70
  -6  -4   9  644.34   22.70
  -6  -4   9  687.43   20.90
   6  -4  -9  679.63   17.90
   6  -4  -9  671.43   18.40
  -6   4   9  637.34   20.50
  -6   4   9  694.93   19.00
   6   4  -9  669.93   16.90
   6   4  -9  682.83   21.20
  -6   4   9  679.13   21.50
   4  -4  -9  481.35   14.40
  -4  -4   9  466.85   18.20
   4  -4  -9  490.15   15.20
  -4  -4   9  460.95   17.00
  -4   4   9  456.75   15.30
   4   4  -9  470.15   13.00
  -4   4   9  446.46   16.10
  -4   4   9  465.75   13.20
   4   4  -9  468.65   13.60
  -2  -4   9  689.23   21.70
  -2  -4   9  664.63   18.40
   2  -4  -9  692.23   18.60
   2  -4  -9  661.13   18.90
   2  -4  -9  709.43   19.80
  -2  -4   9  684.83   21.20
  -2   4   9  656.43   18.70
   2   4  -9  686.43   20.40
  -2   4   9  664.03   19.30
   2   4  -9  674.93   19.20
  -2   4   9  683.43   20.20
  -2   4   9  690.33   17.70
   0  -4   9  185.28    8.00
   0  -4  -9  183.88   10.10
   0  -4  -9  199.58    9.40
   0  -4   9  200.38   11.40
   0  -4   9  202.28    9.80
   0  -4  -9  202.08   10.40
   0  -4  -9  190.78    9.50
   0   4   9  201.78    8.70
   0   4  -9  195.68   10.70
   0   4   9  187.48   10.10
   0   4   9  187.78    9.40
   0   4  -9  171.68    9.30
  -2  -4  -9  140.49    8.60
  -2  -4  -9  136.69    9.30
  -2  -4  -9  141.49    9.70
   2  -4   9  147.29    9.60
   2  -4   9  132.19    7.50
   2  -4   9  147.99    9.60
  -2   4  -9  138.39    9.80
   2   4   9  137.99    8.50
  -2   4  -9  150.08   10.20
   4  -4   9   76.49    6.00
   4  -4   9   91.39    8.30
  -4  -4  -9   69.59    8.40
  -4  -4  -9   83.09    9.10
  -4  -4  -9   85.09    7.30
  -4   4  -9   89.59    9.50
  -4   4  -9   94.09    8.70
   4   4   9   85.99    7.30
 -11  -5   9   82.79   13.90
 -11  -5   9   66.99    9.80
  11  -5  -9   64.79    5.90
  11   5  -9   67.69    8.40
 -11   5   9   76.69   10.20
 -11   5   9   95.89    8.10
  -9  -5   9   62.19   10.30
   9  -5  -9   59.79    5.90
  -9  -5   9   71.79   10.60
  -9   5   9   65.99    8.80
   9   5  -9   46.60    6.50
  -9   5   9   53.09    7.40
  -7  -5   9  355.86   14.70
   7  -5  -9  364.16   12.80
  -7  -5   9  321.97   17.10
   7  -5  -9  361.56   12.50
  -7   5   9  343.07   14.70
  -7   5   9  349.87   15.20
   7   5  -9  365.46   15.40
  -5  -5   9  130.89    9.50
   5  -5  -9  114.09    7.10
  -5  -5   9  135.59   10.80
   5  -5  -9  107.69    6.90
   5   5  -9  106.89    8.00
  -5   5   9  104.89    6.20
   5   5  -9  107.19    6.40
  -5   5   9  107.99    7.80
  -3  -5   9  337.07   15.40
  -3  -5   9  343.77   15.00
   3  -5  -9  352.06   12.50
   3  -5  -9  358.36   13.20
   3  -5  -9  330.57   10.30
  -3  -5   9  337.17   11.90
   3  -5  -9  336.97   12.20
   3   5  -9  361.76   13.80
  -3   5   9  332.27   11.60
  -3   5   9  354.46   13.70
  -3   5   9  353.46   13.50
  -3   5   9  364.36   12.80
   1  -5  -9    2.10    2.50
  -1  -5   9    8.10    4.50
  -1  -5   9   -0.40    3.80
   1  -5  -9    1.00    2.60
  -1  -5   9    1.10    3.00
   1  -5  -9    5.10    3.40
  -1   5   9    5.80    2.50
   1   5  -9    6.10    3.00
  -1   5   9    3.30    2.60
  -1  -5  -9  117.79    8.80
   1  -5   9  114.69    9.40
  -1  -5  -9  109.79    7.80
   1  -5   9  119.39    8.70
  -1   5  -9  130.29    9.20
   1   5   9  111.69    7.30
   1   5   9  110.69    7.60
   3  -5   9    3.30    2.70
  -3  -5  -9    3.00    2.90
  -3  -5  -9    1.60    3.90
   3  -5   9    5.70    2.90
   3   5   9    4.50    3.20
  -3   5  -9    4.40    3.80
  -3   5  -9    8.80    4.20
 -10  -6   9  369.96   21.20
 -10  -6   9  357.06   18.80
  10  -6  -9  378.86   14.00
 -10   6   9  353.16   18.00
  10   6  -9  329.07   15.90
 -10   6   9  375.36   16.30
  -8  -6   9  239.38   15.90
   8  -6  -9  247.48   10.60
   8  -6  -9  276.37   11.40
  -8   6   9  231.98   13.40
   8   6  -9  246.88   13.10
  -8   6   9  250.77   13.20
  -6  -6   9  382.36   18.20
   6  -6  -9  394.56   13.80
   6  -6  -9  401.26   13.50
  -6  -6   9  383.86   16.20
   6   6  -9  390.96   13.10
  -6   6   9  384.36   16.00
   6   6  -9  389.36   15.80
  -6   6   9  397.96   13.10
  -4  -6   9  591.54   22.30
   4  -6  -9  624.74   18.40
  -4  -6   9  607.44   21.20
   4  -6  -9  593.84   18.10
   4   6  -9  640.74   20.30
  -4   6   9  621.24   19.70
  -4   6   9  622.54   17.50
   4   6  -9  632.64   17.80
   2  -6  -9  145.89    8.70
  -2  -6   9  138.79    8.50
   2  -6  -9  134.39    8.60
  -2  -6   9  129.79   10.20
  -2  -6   9  138.49   10.50
   2   6  -9  141.09    8.80
  -2   6   9  138.09    8.00
  -2   6   9  140.29    7.50
  -2   6   9  126.89    8.10
   0  -6   9  280.47   14.20
   0  -6  -9  263.87   12.10
   0  -6  -9  239.18   11.40
   0  -6   9  274.27   12.50
   0   6   9  269.77   11.70
   0   6   9  252.07   11.10
   0   6  -9  270.57   12.60
  -2  -6  -9   76.29    7.80
  -2  -6  -9   83.09    7.40
   2  -6   9   78.89    8.40
   2  -6   9   77.19    7.20
  -2   6  -9   80.49    9.00
   2   6   9   83.59    7.70
   2   6   9   82.89    7.30
  -2   6  -9   81.39    7.70
  -9  -7   9   45.20    9.10
   9  -7  -9   60.99    6.50
  -9  -7   9   40.00    8.80
  -9   7   9   65.99    7.50
   9   7  -9   43.40    6.70
  -9   7   9   52.39    7.80
  -7  -7   9  258.07   13.70
   7  -7  -9  259.57   10.70
  -7  -7   9  255.67   15.20
   7  -7  -9  266.37   11.50
  -7   7   9  234.08   10.60
   7   7  -9  283.57   13.40
  -7   7   9  263.57   13.30
   7   7  -9  237.18   10.40
   5  -7  -9  111.19    7.70
  -5  -7   9  109.49    9.90
   5  -7  -9  112.99    7.20
  -5  -7   9  109.79   11.70
  -5   7   9  101.49    8.30
   5   7  -9  106.89    7.10
   5   7  -9  122.79    8.70
  -5   7   9  113.09    7.10
   3  -7  -9  433.46   15.50
  -3  -7   9  457.15   18.70
  -3  -7   9  436.36   15.10
  -3  -7   9  473.85   19.80
   3  -7  -9  439.16   13.70
   3  -7  -9  470.05   15.90
   3  -7  -9  455.75   15.50
   3   7  -9  454.15   16.50
  -3   7   9  489.75   17.10
   3   7  -9  460.75   15.50
  -3   7   9  463.35   15.30
  -3   7   9  457.35   15.20
   1  -7  -9    6.30    3.40
  -1  -7   9   -0.20    2.30
   1  -7  -9    5.60    3.30
  -1  -7   9    2.80    3.80
  -1  -7   9   -2.10    4.00
   1   7  -9    7.80    3.10
  -1   7   9    4.10    2.80
  -1   7   9    1.70    2.50
   1   7  -9    2.10    2.70
   1  -7   9  452.05   16.90
  -1  -7  -9  488.95   17.80
   1  -7   9  462.45   18.60
  -1  -7  -9  452.85   17.00
  -1   7  -9  458.55   17.30
   1   7   9  451.75   16.00
   8  -8  -9   48.30    5.60
  -8  -8   9   45.00    8.80
  -8   8   9   39.80    5.20
   8   8  -9   52.19    7.50
  -8   8   9   51.59    6.80
  -6  -8   9  126.99   13.00
   6  -8  -9  100.99    6.70
   6  -8  -9  101.59    7.70
  -6  -8   9  107.09    9.90
  -6   8   9  111.89    7.60
   6   8  -9  102.79    8.10
  -6   8   9  110.49    9.00
   6   8  -9   90.59    7.10
   4  -8  -9  333.17   13.50
   4  -8  -9  312.77   11.40
   4  -8  -9  313.57   12.30
  -4  -8   9  312.97   16.70
  -4  -8   9  319.07   16.10
  -4   8   9  307.77   12.60
  -4   8   9  306.07   12.60
   4   8  -9  327.87   13.20
   4   8  -9  310.27   13.70
  -4   8   9  324.17   14.00
   2  -8  -9   64.99    5.90
  -2  -8   9   72.39    8.90
  -2  -8   9   70.49    7.00
  -2  -8   9   72.49    9.20
   2  -8  -9   53.79    6.20
  -2   8   9   70.49    6.40
   2   8  -9   68.39    6.80
  -2   8   9   70.19    5.90
   0  -8   9  347.67   15.10
   0  -8  -9  339.07   14.50
   0  -8  -9  338.87   14.60
   0  -8   9  368.46   17.00
   0   8   9  354.36   14.30
   0   8  -9  358.46   14.70
   0   8  -9  358.56   14.30
   0   8   9  342.37   13.60
   7  -9  -9   40.30    5.50
  -7  -9   9   48.10    9.60
  -7  -9   9   40.00    7.00
  -7   9   9   52.79    7.30
   7   9  -9   33.00    6.10
  -7   9   9   37.60    5.60
   7   9  -9   37.20    5.00
  -5  -9   9  315.57   16.50
  -5  -9   9  329.57   18.70
   5  -9  -9  345.77   13.80
   5   9  -9  337.97   13.80
  -5   9   9  358.56   14.10
  -5   9   9  353.06   15.40
   5   9  -9  341.57   14.90
  -3  -9   9   15.20    5.50
   3  -9  -9    5.20    2.60
  -3  -9   9    7.70    5.40
   3  -9  -9    9.30    4.10
  -3  -9   9    5.70    3.50
   3  -9  -9    8.10    3.20
   3   9  -9    3.70    2.90
  -3   9   9    5.60    3.20
  -3   9   9    6.20    3.00
  -1  -9   9  139.69    9.90
  -1  -9   9  157.18   12.20
   1  -9  -9  147.89    8.10
   1  -9  -9  151.58    9.80
  -1  -9   9  185.28   19.50
  -1   9   9  152.88    9.10
   1   9  -9  144.29    9.60
  -1   9   9  146.59    8.90
   6 -10  -9    5.80    3.30
  -6 -10   9   16.70    7.20
  -6 -10   9    8.40    5.10
  -6  10   9    3.50    3.00
   6  10  -9    7.80    3.40
  -4 -10   9   46.50    8.90
   4 -10  -9   50.19    5.30
   4 -10  -9   50.49    6.60
  -4 -10   9   47.90    8.10
  -4  10   9   46.10    5.40
   4  10  -9   44.80    6.20
  -4  10   9   60.89    7.20
  -2 -10   9   20.20    6.40
  -2 -10   9   11.20    4.60
   2 -10  -9   16.00    4.60
  -2 -10   9   17.60    4.20
   2 -10  -9   17.90    3.90
  -2  10   9   22.20    4.60
   2  10  -9   16.80    4.10
  -2  10   9   29.00    5.10
 -10   0  10 1179.48   36.70
  10   0 -10 1241.58   31.90
 -10   0  10 1208.38   34.20
   8   0 -10   -0.90    2.30
  -8   0  10   -3.10    2.50
  -8   0  10    4.00    5.00
   6   0 -10 1173.18   27.40
  -6   0  10 1160.48   28.70
  -6   0  10 1187.08   32.00
  -6   0  10 1145.09   31.00
  -4   0  10   39.30    4.60
   4   0 -10   27.90    4.30
   4   0 -10   32.20    4.30
  -4   0  10   36.20    5.50
  -4   0  10   28.40    5.50
  -2   0  10  371.06   12.70
   2   0 -10  344.47   12.60
   2   0 -10  358.86   13.90
   2   0 -10  362.26   12.90
  -2   0  10  351.96   14.40
  -2   0  10  347.27   13.70
   0   0 -10  121.69    8.60
   0   0  10  134.29    7.50
   0   0 -10  136.79    8.80
   0   0  10  135.29    9.30
   0   0 -10  142.19    8.60
   2   0  10  216.68   10.60
  -2   0 -10  219.28   11.20
  -2   0 -10  224.28   12.40
   2   0  10  233.58   11.60
 -11  -1  10  227.08   16.50
 -11  -1  10  215.88   14.70
 -11  -1  10  203.78   13.60
 -11   1  10  212.38   16.00
 -11   1  10  210.28   14.10
  11   1 -10  205.08   11.70
 -11   1  10  198.58   13.00
   9  -1 -10   91.59    7.40
  -9  -1  10  111.59   12.10
  -9  -1  10  114.79   11.20
  -9   1  10  109.19   11.80
  -9   1  10  107.09   10.80
   9   1 -10  107.39    8.40
  -7  -1  10   29.70    4.90
  -7  -1  10   49.10    7.90
  -7  -1  10   30.60    6.50
   7  -1 -10   24.90    4.60
   7  -1 -10   28.60    4.20
   7   1 -10   27.70    4.70
  -7   1  10   31.00    6.40
   7   1 -10   30.30    4.20
  -7   1  10   31.80    6.60
  -7   1  10   37.20    5.00
  -5  -1  10  374.96   16.30
   5  -1 -10  387.16   13.20
  -5  -1  10  365.46   15.10
  -5  -1  10  371.56   14.70
  -5  -1  10  395.06   12.20
  -5   1  10  398.16   16.20
  -5   1  10  383.46   14.40
   5   1 -10  387.96   12.90
  -5   1  10  396.86   12.90
  -3  -1  10    3.20    2.00
  -3  -1  10    4.10    3.30
   3  -1 -10    6.00    2.80
  -3  -1  10    2.60    3.70
   3  -1 -10    2.60    2.00
   3  -1 -10    6.30    2.90
  -3  -1  10    4.30    2.10
   3   1 -10    1.00    2.40
  -3   1  10   -1.30    2.80
   3   1 -10    7.10    2.70
  -3   1  10    3.90    3.10
  -3   1  10    4.30    2.40
   3   1 -10    3.80    2.10
   1  -1 -10  135.99    8.50
  -1  -1  10  130.59    7.40
   1  -1 -10  131.49    8.10
  -1  -1  10  148.79    8.20
   1  -1 -10  120.99    7.80
  -1  -1  10  135.69    9.40
   1   1 -10  118.29    7.70
   1   1 -10  134.39    7.80
  -1   1  10  126.89    7.60
   1   1 -10  134.09    8.90
  -1   1  10  132.49    8.50
  -1  -1 -10   94.69    7.80
   1  -1  10   91.29    7.00
  -1  -1 -10  107.09    8.00
   1  -1  10   92.89    6.80
   1  -1  10   89.59    7.90
  -1   1 -10   97.29    8.60
  -1   1 -10  101.49    7.30
   1   1  10   97.19    8.00
   1   1  10   88.59    6.90
  -3  -1 -10    2.50    3.70
   3  -1  10    0.80    2.50
  -3  -1 -10    2.50    3.40
  -3   1 -10   -1.20    3.50
   3   1  10    5.40    3.10
  10  -2 -10   23.10    3.50
 -10  -2  10   21.20    7.70
 -10  -2  10   33.90    7.80
  10   2 -10   23.60    5.10
 -10   2  10   11.80    5.10
 -10   2  10   24.50    8.00
   8  -2 -10  138.89    8.50
   8  -2 -10  138.49    8.00
  -8  -2  10  146.09   12.30
  -8  -2  10  165.48   12.60
   8  -2 -10  142.89    7.20
  -8   2  10  139.99   11.50
   8   2 -10  150.28    9.80
  -8   2  10  159.78   11.30
  -6  -2  10   62.19    7.30
   6  -2 -10   67.09    5.30
  -6  -2  10   70.99    9.10
  -6  -2  10   72.79    8.50
   6  -2 -10   66.69    4.80
   6   2 -10   64.79    5.20
  -6   2  10   64.39    6.70
  -6   2  10   51.69    6.60
  -6   2  10   55.39    7.50
   6   2 -10   58.89    6.80
   4  -2 -10  820.22   21.90
   4  -2 -10  805.02   21.60
  -4  -2  10  835.92   24.10
   4  -2 -10  778.12   19.30
  -4  -2  10  818.42   19.90
  -4  -2  10  806.72   24.40
  -4   2  10  832.82   23.20
  -4   2  10  815.82   21.00
   4   2 -10  823.72   20.60
  -4   2  10  832.72   23.50
   4   2 -10  824.22   22.90
  -2  -2  10    4.80    2.20
   2  -2 -10   -0.50    1.80
   2  -2 -10   13.80    3.40
  -2  -2  10    4.30    2.90
   2  -2 -10    1.80    2.60
   2  -2 -10    3.00    2.30
  -2  -2  10    0.90    3.50
  -2  -2  10    5.20    2.30
  -2   2  10    6.10    3.10
   2   2 -10    0.20    2.00
  -2   2  10    7.60    3.40
  -2   2  10    5.20    2.70
   2   2 -10    2.30    2.10
   2   2 -10    4.30    2.40
   0  -2  10  846.02   25.00
   0  -2  10  858.31   23.40
   0  -2 -10  799.82   23.80
   0  -2 -10  854.51   24.00
   0  -2 -10  861.21   24.60
   0   2  10  855.51   23.10
   0   2 -10  822.22   23.70
   0   2  10  869.31   24.60
   0   2 -10  903.61   25.80
   0   2 -10  848.32   22.10
   2  -2  10    6.40    3.10
  -2  -2 -10    6.00    4.00
   2  -2  10   11.00    3.60
   2  -2  10    8.00    3.70
  -2  -2 -10   10.20    3.90
   2   2  10    6.50    2.50
   2   2  10   11.60    3.50
  -2   2 -10    5.10    4.00
 -11  -3  10    9.70    6.10
  11  -3 -10   10.00    2.70
 -11  -3  10    9.40    7.60
 -11   3  10   11.80    6.90
  11   3 -10   -0.60    3.00
 -11   3  10    7.50    3.30
  -9  -3  10   -2.30    5.00
  -9  -3  10    2.30    5.50
   9  -3 -10    2.00    2.20
  -9   3  10    9.00    5.40
   9   3 -10    5.90    3.50
  -9   3  10   -0.90    2.70
  -7  -3  10    4.50    5.70
  -7  -3  10    1.40    4.20
  -7  -3  10   -1.00    3.20
   7  -3 -10    3.80    2.50
   7  -3 -10    9.60    2.60
  -7   3  10    4.10    4.30
  -7   3  10    8.30    2.90
  -7   3  10   10.00    4.50
   7   3 -10    5.30    3.20
  -5  -3  10  165.58   10.60
   5  -3 -10  181.98    9.20
  -5  -3  10  174.28   12.20
   5  -3 -10  165.68    7.80
   5   3 -10  168.08    7.80
   5   3 -10  165.78    7.40
  -5   3  10  181.28   10.80
  -5   3  10  169.88    9.50
   3  -3 -10    2.80    3.70
   3  -3 -10    6.80    3.20
  -3  -3  10    1.20    4.20
  -3  -3  10    2.40    3.10
   3  -3 -10    3.90    2.20
  -3  -3  10    2.00    2.20
   3  -3 -10    2.40    2.20
  -3  -3  10    2.50    3.20
   3   3 -10    0.30    2.20
   3   3 -10    0.00    2.40
  -3   3  10    0.10    2.30
  -3   3  10    1.30    2.70
  -3   3  10    2.70    2.80
   1  -3 -10   83.29    7.30
  -1  -3  10   66.59    6.10
   1  -3 -10   71.39    6.40
  -1  -3  10   83.29    8.90
  -1  -3  10   72.99    5.50
   1  -3 -10   80.59    6.00
   1  -3 -10   80.99    6.70
  -1   3  10   77.99    5.30
   1   3 -10   69.79    6.10
  -1   3  10   74.89    8.10
   1   3 -10   85.09    7.60
  -1   3  10   76.49    6.50
   1  -3  10   38.50    5.80
   1  -3  10   46.70    6.70
  -1  -3 -10   48.50    6.10
  -1  -3 -10   42.70    6.20
   1  -3  10   41.00    4.90
  -1  -3 -10   45.90    5.30
  -1   3 -10   47.50    6.90
   1   3  10   48.80    6.40
   1   3  10   47.10    5.90
  -3  -3 -10    2.20    3.60
   3  -3  10    6.00    3.50
  -3  -3 -10    3.50    2.90
   3  -3  10    3.80    2.90
   3   3  10    3.30    2.80
  -3   3 -10    2.20    3.80
  10  -4 -10    3.80    2.50
 -10  -4  10   10.50    6.40
 -10  -4  10    2.30    5.60
  10   4 -10   -1.20    2.70
 -10   4  10   -1.20    4.80
 -10   4  10    3.20    4.00
  -8  -4  10 1171.38   34.90
   8  -4 -10 1142.09   27.10
  -8  -4  10 1203.78   35.90
   8  -4 -10 1158.58   28.30
  -8   4  10 1152.28   32.10
  -8   4  10 1084.69   31.60
   8   4 -10 1143.89   31.90
  -6  -4  10   41.90    7.00
   6  -4 -10   44.40    4.70
  -6  -4  10   48.30    6.70
   6  -4 -10   49.50    5.60
  -6   4  10   41.00    5.10
   6   4 -10   64.09    7.30
   6   4 -10   49.80    4.40
  -6   4  10   40.40    6.50
  -4  -4  10  977.20   28.00
  -4  -4  10  983.20   29.20
   4  -4 -10  999.10   24.20
   4  -4 -10  999.70   25.50
  -4   4  10  981.00   26.90
  -4   4  10  975.00   26.40
  -4   4  10  961.90   24.70
   2  -4 -10  249.48   10.70
  -2  -4  10  265.17   11.10
  -2  -4  10  259.57   13.70
  -2  -4  10  269.17   13.60
   2  -4 -10  240.18   10.90
   2  -4 -10  270.47   11.90
  -2   4  10  266.27   12.50
  -2   4  10  265.87   11.70
   2   4 -10  260.67   11.40
  -2   4  10  230.48    9.50
  -2   4  10  252.27   11.00
   2   4 -10  271.07   12.30
   0  -4 -10  347.37   13.40
   0  -4  10  392.96   16.60
   0  -4 -10  339.07   13.90
   0  -4  10  381.16   14.80
   0  -4  10  378.66   13.00
   0  -4 -10  378.56   15.30
   0   4  10  397.36   15.60
   0   4 -10  384.76   15.90
   0   4  10  366.06   13.00
   0   4  10  385.26   14.40
   2  -4  10  119.19    7.60
   2  -4  10  162.48   14.90
   2  -4  10  114.49    9.00
  -2  -4 -10  132.49    9.30
  -2  -4 -10  122.79    9.20
  -2  -4 -10  132.39    8.60
  -2   4 -10  130.09   10.00
   2   4  10  132.19    8.90
   9  -5 -10  165.38    9.10
  -9  -5  10  181.08   14.30
   9   5 -10  149.19   10.90
  -9   5  10  173.58   11.40
  -9   5  10  164.88   12.10
  -7  -5  10  430.06   20.20
  -7  -5  10  416.36   16.90
   7  -5 -10  433.56   14.60
   7  -5 -10  443.96   15.10
   7   5 -10  441.66   17.30
  -7   5  10  432.56   17.70
  -5  -5  10  191.38   13.40
   5  -5 -10  198.98   10.00
   5  -5 -10  167.78    8.90
  -5  -5  10  186.48   12.00
  -5   5  10  185.68   11.00
   5   5 -10  207.78   11.60
   5   5 -10  189.28    8.80
   3  -5 -10  748.63   21.20
  -3  -5  10  733.83   24.00
   3  -5 -10  727.93   20.20
  -3  -5  10  728.33   24.40
  -3  -5  10  675.33   19.40
  -3   5  10  696.03   21.40
  -3   5  10  705.43   20.50
   3   5 -10  757.42   22.20
  -3   5  10  707.73   21.90
  -3   5  10  707.43   19.00
   1  -5 -10  270.67   12.30
  -1  -5  10  266.07   14.20
   1  -5 -10  276.07   11.80
  -1  -5  10  271.67   11.80
  -1   5  10  257.47   10.80
  -1   5  10  285.97   12.20
   1   5 -10  262.77   12.50
  -1  -5 -10  191.88   10.20
   1  -5  10  166.28   11.30
   1  -5  10  189.98   11.00
  -1  -5 -10  181.78   11.10
  -1   5 -10  186.38   11.30
   1   5  10  171.28    9.80
   1   5  10  174.08    9.40
   8  -6 -10  145.19    8.30
   8  -6 -10  151.08    8.70
  -8  -6  10  141.49   13.80
   8   6 -10  152.28   10.80
  -8   6  10  125.79   10.20
   6  -6 -10  443.46   15.00
  -6  -6  10  445.76   18.30
  -6  -6  10  457.95   20.80
   6  -6 -10  463.75   15.60
   6   6 -10  481.85   18.50
   6   6 -10  449.66   14.80
  -6   6  10  459.05   17.70
  -4  -6  10   71.89    9.40
   4  -6 -10   61.69    6.30
   4  -6 -10   60.29    6.60
  -4  -6  10   68.79    9.00
   4   6 -10   70.79    6.20
  -4   6  10   55.69    6.20
  -4   6  10   66.29    5.60
  -4   6  10   72.39    7.80
   4   6 -10   74.99    7.90
  -2  -6  10  837.02   26.60
   2  -6 -10  847.52   24.00
  -2  -6  10  808.62   26.20
  -2  -6  10  829.42   23.10
   2  -6 -10  835.62   23.30
  -2   6  10  861.81   23.40
   2   6 -10  840.12   24.60
  -2   6  10  818.62   22.40
   0  -6 -10   14.10    4.50
   0  -6 -10   10.10    3.70
   0  -6  10    3.30    4.50
   0  -6  10   13.30    4.30
   0   6  10    8.80    3.50
   0   6 -10    9.40    3.60
   0   6  10   14.20    3.80
  -9  -7  10   58.19   10.90
  -9  -7  10   43.70    8.10
   9  -7 -10   53.19    5.90
  -9   7  10   55.09    7.30
   9   7 -10   40.60    6.70
  -7  -7  10   53.59    9.20
   7  -7 -10   59.79    6.20
  -7  -7  10   53.09    7.70
   7  -7 -10   51.99    6.00
   7   7 -10   55.89    7.10
   7   7 -10   26.20    6.80
  -7   7  10   49.20    7.10
   5  -7 -10    0.80    2.00
  -5  -7  10    2.10    3.60
   5  -7 -10    1.50    2.60
  -5  -7  10   -2.00    3.00
  -5   7  10    3.00    2.50
   5   7 -10    1.50    2.80
  -5   7  10    1.60    2.90
   5   7 -10    1.70    2.30
  -3  -7  10   59.79    8.60
   3  -7 -10   65.89    6.90
  -3  -7  10   55.59    8.30
   3  -7 -10   57.89    6.60
  -3  -7  10   48.00    5.80
  -3   7  10   59.59    6.70
  -3   7  10   40.50    5.40
   3   7 -10   60.99    6.30
   3   7 -10   62.09    7.20
  -3   7  10   45.90    5.40
  -1  -7  10   -0.10    3.10
   1  -7 -10    0.50    3.40
  -1  -7  10   -0.70    3.20
   1  -7 -10   -1.10    2.90
  -1   7  10    1.20    2.20
  -1   7  10    0.30    2.80
   1   7 -10    5.50    3.00
   1   7 -10    1.80    2.00
  -1  -7 -10    8.80    5.30
   1  -7  10    9.10    3.50
  -1  -7 -10    5.00    3.40
   1  -7  10    2.90    4.70
   1   7  10   11.10    3.80
  -1   7 -10   10.40    3.80
   1   7  10    7.20    2.80
  -8  -8  10   28.60   10.20
   8  -8 -10   37.90    5.30
  -8   8  10   42.50    6.70
   8   8 -10   40.50    6.70
   6  -8 -10  253.77   11.90
  -6  -8  10  240.78   15.30
  -6  -8  10  246.28   14.50
   6   8 -10  238.78   11.20
  -6   8  10  257.57   13.40
  -6   8  10  230.48   11.00
   6   8 -10  250.97   13.10
  -4  -8  10   -0.10    4.40
   4  -8 -10    2.60    3.00
  -4  -8  10   -5.90    4.30
   4  -8 -10    1.00    2.60
  -4   8  10   -1.90    2.10
  -4   8  10    4.30    2.80
  -4   8  10   -0.80    2.50
   4   8 -10   -1.00    2.50
   4   8 -10    1.30    2.90
  -2  -8  10  165.38   12.50
   2  -8 -10  173.68   10.30
   2  -8 -10  154.48    8.40
  -2  -8  10  157.98    9.90
  -2  -8  10  149.69   12.00
   2  -8 -10  166.68    9.90
  -2   8  10  163.18    9.50
  -2   8  10  153.68    9.30
   2   8 -10  177.98   10.10
   0  -8  10   16.50    5.00
   0  -8 -10   18.40    4.80
   0  -8 -10   18.30    4.60
   0  -8  10   21.50    6.50
   0   8 -10   21.40    4.60
   0   8  10   12.10    3.40
   0   8 -10   20.40    4.60
   0   8  10   25.60    4.80
   5  -9 -10   12.30    3.80
  -5  -9  10    9.90    5.90
  -5  -9  10   -1.10    4.90
  -5   9  10    8.00    3.60
   5   9 -10   15.10    4.20
  -5   9  10   14.30    3.60
  -5   9  10    6.50    3.00
   3  -9 -10    4.60    3.00
  -3  -9  10    7.60    5.00
   3  -9 -10    6.10    2.70
  -3  -9  10   -1.40    5.40
  -3   9  10    7.30    3.40
   3   9 -10    5.40    3.20
  -3   9  10   13.10    3.80
  10   0 -11    0.60    3.10
 -10   0  11    3.00    5.00
 -10   0  11   -7.90    5.10
  -8   0  11   -3.00    4.40
   8   0 -11   -0.20    2.70
  -8   0  11    0.90    3.40
   8   0 -11    0.40    1.60
   6   0 -11    0.80    2.20
  -6   0  11   -0.70    2.00
  -6   0  11    1.30    3.40
  -6   0  11    2.00    3.00
  -4   0  11    1.90    3.10
  -4   0  11    0.70    3.70
   4   0 -11    3.20    2.80
   4   0 -11    2.80    2.50
  -4   0  11   -0.40    1.90
   2   0 -11    1.20    2.70
   2   0 -11    1.60    2.60
  -2   0  11    2.40    2.40
   2   0 -11    1.90    2.20
  -2   0  11    1.00    2.30
   0   0 -11    0.60    3.00
   0   0  11   -0.50    2.50
   0   0 -11    2.30    3.00
   0   0  11    2.50    3.20
  -2   0 -11   -0.60    3.00
  -2   0 -11    3.80    3.60
   2   0  11    0.20    2.10
 -11  -1  11   16.50    6.10
 -11  -1  11   19.20    7.30
 -11   1  11   18.60    8.30
  11   1 -11   17.40    4.80
 -11   1  11   19.30    6.20
   9  -1 -11  407.06   15.90
  -9  -1  11  370.06   18.30
  -9  -1  11  412.96   20.20
  -9   1  11  409.86   19.40
   9   1 -11  404.56   16.70
  -9   1  11  414.76   18.80
  -7  -1  11    5.70    5.20
  -7  -1  11   -1.30    1.90
   7  -1 -11   -1.70    2.00
  -7  -1  11    2.90    3.30
  -7  -1  11    2.30    4.70
  -7   1  11    4.40    3.00
   7   1 -11   -1.60    2.40
   7   1 -11    1.80    1.80
  -7   1  11    5.70    4.60
  -7   1  11    5.20    4.50
   5  -1 -11  268.87   11.30
  -5  -1  11  239.58    9.90
  -5  -1  11  248.78   12.70
  -5  -1  11  269.07   14.20
  -5   1  11  247.68   13.30
  -5   1  11  255.77   10.50
   5   1 -11  273.37   11.00
  -5   1  11  242.08   12.10
  -3  -1  11   41.70    6.40
  -3  -1  11   28.60    4.20
  -3  -1  11   30.80    6.00
   3  -1 -11   38.00    5.40
   3  -1 -11   31.80    5.00
   3   1 -11   28.30    4.30
  -3   1  11   38.70    4.90
   3   1 -11   38.30    5.30
  -3   1  11   41.60    5.90
  -3   1  11   34.50    5.70
  -1  -1  11   80.19    8.50
  -1  -1  11   80.79    6.30
   1  -1 -11   63.59    7.00
  -1  -1  11   70.09    6.00
   1  -1 -11   77.49    7.20
   1   1 -11   76.99    6.50
   1   1 -11   78.09    8.30
  -1   1  11   85.69    7.70
  -1   1  11   83.39    9.00
  -1  -1 -11   63.49    7.80
  -1  -1 -11   60.89    7.00
   1  -1  11   70.89    7.90
   1  -1  11   62.09    6.70
  -1   1 -11   76.49    8.40
   1   1  11   71.29    7.60
  -1   1 -11   55.89    6.40
   1   1  11   41.30    5.60
 -10  -2  11  391.56   19.20
 -10  -2  11  388.46   20.70
 -10   2  11  395.36   17.60
 -10   2  11  402.86   20.20
  10   2 -11  397.76   17.30
  -8  -2  11  547.95   22.60
   8  -2 -11  567.44   18.00
  -8  -2  11  543.05   22.60
   8  -2 -11  558.94   19.10
  -8   2  11  578.34   21.80
   8   2 -11  588.84   20.90
  -8   2  11  558.84   21.50
   6  -2 -11  432.36   14.90
  -6  -2  11  407.76   16.30
  -6  -2  11  421.26   18.00
  -6  -2  11  371.66   18.10
   6   2 -11  468.15   17.40
   6   2 -11  421.26   14.10
  -6   2  11  404.56   17.30
  -6   2  11  404.56   15.30
  -4  -2  11  428.96   13.60
   4  -2 -11  435.96   15.30
  -4  -2  11  426.36   16.70
   4  -2 -11  463.95   15.60
  -4  -2  11  428.66   17.90
  -4   2  11  444.26   14.90
   4   2 -11  416.26   14.00
  -4   2  11  414.26   16.50
  -4   2  11  448.46   16.90
   4   2 -11  419.46   16.10
   2  -2 -11  319.37   13.60
  -2  -2  11  330.97   12.00
   2  -2 -11  287.27   12.40
  -2  -2  11  318.67   12.50
  -2  -2  11  345.97   15.50
   2  -2 -11  332.17   13.40
  -2   2  11  322.37   14.10
   2   2 -11  332.87   14.20
  -2   2  11  324.07   13.00
   2   2 -11  306.87   12.70
   2   2 -11  321.17   12.10
   0  -2  11  153.38    9.60
   0  -2  11  151.98   10.50
   0  -2 -11  145.69    9.60
   0  -2 -11  159.98   10.40
   0  -2  11  147.49    8.40
   0   2  11  164.98   10.50
   0   2  11  149.09    9.20
   0   2 -11  164.98   10.40
   2  -2  11  136.19    8.10
  -2  -2 -11  117.49   12.80
  -2  -2 -11  121.19   11.20
  -2   2 -11  155.98   13.20
   2   2  11  151.58   10.20
   2   2  11  134.09    8.60
   9  -3 -11    3.20    2.30
  -9  -3  11    4.80    5.90
  -9  -3  11   -0.50    5.60
  -9   3  11   -0.20    6.10
   9   3 -11    7.70    3.10
  -9   3  11   13.40    5.30
  -7  -3  11  402.96   19.40
  -7  -3  11  384.26   16.10
   7  -3 -11  393.76   14.60
  -7  -3  11  437.76   19.40
   7  -3 -11  401.66   13.00
  -7   3  11  406.96   17.50
   7   3 -11  429.46   17.20
  -7   3  11  421.76   15.30
   5  -3 -11    3.50    3.10
  -5  -3  11    8.70    4.60
   5  -3 -11    5.10    2.30
  -5  -3  11   -2.50    4.40
  -5  -3  11    6.30    3.80
  -5   3  11   11.20    3.70
  -5   3  11    6.50    3.00
  -5   3  11    0.80    3.80
   5   3 -11    5.40    2.20
   5   3 -11    5.30    2.10
   3  -3 -11  645.84   19.80
  -3  -3  11  722.83   23.50
   3  -3 -11  709.23   21.20
  -3  -3  11  679.33   23.30
   3   3 -11  729.53   22.50
  -3   3  11  701.43   22.30
  -3   3  11  717.53   20.60
   1  -3 -11   34.10    5.70
  -1  -3  11   12.20    3.00
  -1  -3  11   26.20    4.70
  -1  -3  11   24.30    5.90
   1  -3 -11   21.30    4.50
   1   3 -11   16.00    4.50
  -1   3  11   27.00    5.10
  -1   3  11   13.40    3.60
  -1  -3 -11  336.27   15.00
   1  -3  11  346.37   15.50
   1  -3  11  332.67   13.00
   1  -3  11  379.16   15.60
   1   3  11  348.77   14.20
  -1   3 -11  381.16   16.80
   1   3  11  380.96   15.70
 -10  -4  11    7.60    6.90
  10  -4 -11    4.90    2.50
 -10  -4  11    1.60    5.90
  10   4 -11    3.00    3.80
 -10   4  11    3.50    5.40
 -10   4  11    9.00    4.70
   8  -4 -11  109.89    6.60
  -8  -4  11  115.39   12.40
  -8  -4  11  100.19    8.90
  -8  -4  11  102.99   11.80
   8  -4 -11  109.99    7.80
   8   4 -11  122.19    9.90
  -8   4  11  109.49   10.70
   6  -4 -11   54.19    6.30
  -6  -4  11   45.50    8.80
   6  -4 -11   49.00    5.00
  -6  -4  11   48.60    6.60
   6   4 -11   61.69    7.60
  -6   4  11   62.59    7.40
  -6   4  11   61.29    5.70
   4  -4 -11  199.18    9.40
  -4  -4  11  199.68   11.80
   4  -4 -11  197.88   10.50
  -4  -4  11  209.08   12.60
  -4   4  11  191.48   10.10
  -4   4  11  192.78   11.10
  -4   4  11  203.68   11.20
   2  -4 -11  247.38   12.20
   2  -4 -11  242.58   10.80
  -2  -4  11  256.27   11.20
  -2  -4  11  273.47   14.50
  -2   4  11  246.78   11.40
  -2   4  11  251.27   12.80
   2   4 -11  257.17   12.80
   0  -4  11  145.79    9.50
   0  -4  11  146.89   10.90
   0  -4 -11  165.78   10.60
   0  -4 -11  111.59    8.90
   0   4 -11  139.19    9.70
   0   4  11  140.29    9.30
  -9  -5  11  171.28   14.70
  -9  -5  11  180.08   14.90
   9  -5 -11  167.98    9.20
  -9   5  11  168.48   11.70
   9   5 -11  161.08   11.60
  -7  -5  11    6.30    6.50
   7  -5 -11   16.80    3.60
  -7  -5  11   16.30    4.40
   7  -5 -11   11.20    3.40
   7   5 -11   20.00    5.20
  -7   5  11   12.60    4.60
   5  -5 -11   79.39    7.10
  -5  -5  11   78.59    9.30
  -5  -5  11   79.69   10.40
   5  -5 -11   72.89    6.50
   5   5 -11   74.39    8.40
  -5   5  11   75.79    8.60
  -5   5  11   68.69    6.00
   5   5 -11   64.49    5.70
   3  -5 -11    3.10    3.20
  -3  -5  11    1.30    3.50
  -3  -5  11    6.70    5.20
   3  -5 -11    3.00    2.90
  -3   5  11    3.90    3.10
  -3   5  11   -2.80    2.50
   3   5 -11    4.90    3.50
   1  -5 -11   60.59    7.40
   1  -5 -11   57.99    6.50
  -1  -5  11   65.49    8.70
  -1  -5  11   51.69    6.10
  -1   5  11   57.99    6.40
   1   5 -11   58.29    7.20
  -8  -6  11   -0.80    3.90
   8  -6 -11    1.50    2.40
   8  -6 -11    2.20    2.50
  -8  -6  11    4.20    4.80
  -8  -6  11    2.40    4.80
  -8   6  11   -3.70    2.90
   8   6 -11    3.00    3.60
  -6  -6  11  130.69   13.40
   6  -6 -11  140.89    8.60
  -6  -6  11  123.99   10.00
   6  -6 -11  140.99    8.70
   6   6 -11  135.69    8.00
  -6   6  11  167.38   10.80
   6   6 -11  158.88   11.10
   4  -6 -11  105.59    7.50
  -4  -6  11   95.29   10.10
  -4  -6  11   94.89   10.90
   4  -6 -11  112.99    8.00
  -4   6  11   93.89    8.00
  -4   6  11   92.39    7.10
   4   6 -11   97.69    7.30
   4   6 -11  100.39    8.80
  -2  -6  11  121.59   11.10
   2  -6 -11  129.79    8.70
  -2  -6  11  125.89    8.70
   2  -6 -11  124.29    8.60
   2   6 -11  118.29    9.10
  -2   6  11  116.69    8.50
   0  -6  11  262.07   14.80
   0  -6 -11  255.97   12.30
   0  -6  11  270.47   13.20
   0   6  11  257.17   11.90
   0   6  11  261.97   12.60
   0   6 -11  282.87   14.20
   7  -7 -11    3.70    2.90
  -7  -7  11    5.20    5.10
   7  -7 -11    7.90    3.10
  -7  -7  11    5.40    6.90
   7   7 -11    2.60    3.40
  -7   7  11    7.50    3.10
  -5  -7  11  301.27   17.80
   5  -7 -11  292.17   12.70
   5  -7 -11  286.97   12.70
  -5  -7  11  278.07   15.80
   5   7 -11  283.87   12.30
  -5   7  11  301.67   14.20
  -5   7  11  284.57   12.80
   5   7 -11  302.17   14.40
   3  -7 -11   18.50    4.40
  -3  -7  11   23.40    6.70
  -3  -7  11   17.00    6.60
   3  -7 -11   17.20    4.40
  -3   7  11   16.60    4.40
  -3   7  11    9.00    3.60
   3   7 -11   16.80    4.00
  -1  -7  11  246.28   12.70
   1  -7 -11  264.07   12.80
  -1  -7  11  218.78   15.20
   1  -7 -11  283.07   14.00
   1   7 -11  294.17   14.00
  -1   7  11  283.87   12.90
   1   7 -11  286.27   12.90
  -6  -8  11  306.07   16.40
   6  -8 -11  292.17   12.50
  -6   8  11  278.57   16.30
  -6   8  11  281.97   12.90
  -4  -8  11   88.19   11.00
   4  -8 -11  107.59    8.40
   4  -8 -11  100.19    7.90
  -4  -8  11   91.19   11.30
  -4   8  11  109.39    8.30
  -4   8  11   99.89    7.60
  -4   8  11  100.99    7.60
   4   8 -11   97.19    8.00
 -10   0  12  251.37   16.10
 -10   0  12  281.17   17.50
  10   0 -12  275.97   14.00
   8   0 -12  950.60   28.60
  -8   0  12 1014.20   33.80
   8   0 -12  973.50   25.80
  -8   0  12  944.61   30.60
  -6   0  12  638.84   23.30
   6   0 -12  649.14   19.50
  -6   0  12  646.24   21.50
  -6   0  12  641.24   18.80
  -4   0  12  707.23   20.50
  -4   0  12  692.83   23.00
   4   0 -12  742.53   22.90
   4   0 -12  765.62   21.80
  -4   0  12  748.03   24.00
  -2   0  12  227.48   12.80
   2   0 -12  215.68   10.80
   2   0 -12  200.68   11.70
  -2   0  12  219.38   10.40
   0   0  12  536.75   19.90
   0   0 -12  530.25   20.00
   0   0 -12  538.95   18.20
  -9  -1  12   16.20    6.90
   9  -1 -12   23.10    5.30
  -9  -1  12   13.90    6.50
  -9   1  12   20.10    6.90
   9   1 -12   19.80    5.10
  -9   1  12   24.00    6.80
  -7  -1  12  259.27   15.40
  -7  -1  12  238.68   12.50
   7  -1 -12  257.57   11.60
  -7   1  12  263.17   14.80
  -7   1  12  254.47   12.70
   7   1 -12  252.47   13.30
   7   1 -12  263.27   11.50
  -7   1  12  239.28   11.00
  -5  -1  12  149.69   11.60
   5  -1 -12  164.18    9.30
  -5  -1  12  153.28   10.00
  -5  -1  12  141.69    8.10
  -5   1  12  155.18    8.90
  -5   1  12  153.78   11.10
   5   1 -12  163.28    8.60
  -5   1  12  169.18   10.70
   3  -1 -12   23.80    4.60
   3  -1 -12   36.10    5.60
  -3  -1  12   24.30    5.90
  -3  -1  12   27.20    4.20
   3   1 -12   32.60    4.80
  -3   1  12   34.60    6.40
  -3   1  12   27.90    4.70
   3   1 -12   42.00    6.00
   1  -1 -12  224.28   11.50
  -1  -1  12  181.48   11.20
  -1  -1  12  209.28   10.40
   1  -1 -12  215.08   12.00
   1   1 -12  203.38   10.20
   1   1 -12  211.78   12.30
  -1   1  12  205.18   10.60
  -1   1  12  216.38   12.40
 -10  -2  12   31.50    8.20
 -10   2  12   13.00    7.20
  -8  -2  12  159.68   13.00
  -8  -2  12  155.98   12.10
   8  -2 -12  153.78    8.90
  -8  -2  12  147.79   10.00
   8  -2 -12  149.59    9.90
  -8   2  12  155.08   12.00
   8   2 -12  154.58   11.10
   6  -2 -12  216.08   10.50
  -6  -2  12  235.88   14.50
  -6  -2  12  215.38   12.50
  -6   2  12  213.48   10.50
  -6   2  12  225.78   11.90
  -6   2  12  227.88   13.30
   6   2 -12  219.18   10.20
  -4  -2  12  131.09    9.80
   4  -2 -12  137.89    8.80
   4  -2 -12  137.59    8.90
  -4  -2  12  142.59   10.10
  -4   2  12  122.59    9.40
   4   2 -12  153.28    9.60
  -4   2  12  142.49   10.00
   4   2 -12  144.39    8.20
  -4   2  12  141.99    8.70
   2  -2 -12  169.98    9.80
  -2  -2  12  185.58    9.80
   2  -2 -12  179.58   10.60
  -2  -2  12  181.68    9.20
  -2  -2  12  182.28   12.00
   2   2 -12  200.08   11.80
  -2   2  12  186.98   11.50
  -2   2  12  171.78    9.90
   0  -2  12    1.60    2.80
   0  -2 -12    2.20    3.30
   0  -2  12    3.20    3.70
   0  -2 -12    1.80    3.60
   0   2 -12    0.20    3.00
   0   2  12    2.20    3.00
   0   2  12    0.40    3.00
  -9  -3  12  158.78   14.80
  -9  -3  12  134.59   13.70
   9   3 -12  139.89   11.00
  -9   3  12  145.19   10.70
  -7  -3  12   12.20    5.50
   7  -3 -12    4.00    3.00
  -7  -3  12   10.80    4.60
  -7  -3  12   15.50    6.80
   7   3 -12   14.90    4.70
  -7   3  12   10.70    3.50
  -7   3  12   20.20    5.50
  -7   3  12   10.90    3.80
  -5  -3  12   30.90    5.80
  -5  -3  12   17.50    6.20
   5  -3 -12   39.80    5.70
  -5   3  12   31.30    5.80
  -5   3  12   28.40    5.20
   5   3 -12   26.40    4.90
  -5   3  12   34.50    6.20
   3  -3 -12   66.29    7.00
   3  -3 -12   69.59    7.30
  -3  -3  12   68.09    8.60
  -3   3  12   63.49    6.50
   3   3 -12   74.09    8.20
  -3   3  12   83.09    9.20
  -1  -3  12   15.20    5.30
   1  -3 -12   14.40    4.00
   1  -3 -12   12.30    4.20
  -1  -3  12   20.30    4.50
   1   3 -12   15.80    4.80
  -1   3  12   10.40    3.20
  -1   3  12   15.60    4.10
   8  -4 -12   47.60    6.20
  -8  -4  12   48.30    9.50
  -8  -4  12   37.10    6.30
  -8  -4  12   46.10    8.90
   8   4 -12   38.90    6.60
  -8   4  12   50.69    7.60
  -6  -4  12  208.88   14.70
  -6  -4  12  184.08   12.40
   6  -4 -12  178.88   10.20
   6   4 -12  208.98   12.70
  -6   4  12  189.68   12.00
  -6   4  12  170.28   10.00
  -6   4  12  191.18   10.80
   4  -4 -12  101.69    8.00
  -4  -4  12  119.29   11.60
  -4  -4  12   95.49   10.50
  -4   4  12  110.49    8.30
  -4   4  12  104.89    8.40
  -4   4  12  108.09    8.80
  -2  -4  12  323.57   16.20
  -2  -4  12  294.57   12.80
   2  -4 -12  305.67   14.20
   2   4 -12  326.27   15.10
  -2   4  12  292.47   13.50
  -2   4  12  312.77   14.60
  -7  -5  12    0.40    4.90
   7  -5 -12    0.00    2.70
  -7  -5  12   -3.00    5.70
   7  -5 -12    1.70    2.50
  -7  -5  12   -0.50    4.10
  -7   5  12    6.20    3.90
   7   5 -12    4.00    3.50
  -5  -5  12   16.30    6.00
   5  -5 -12   11.70    3.90
   5  -5 -12   11.40    3.40
  -5  -5  12    9.80    6.30
   5   5 -12    6.20    4.10
  -5   5  12   21.60    5.20
  -5   5  12   11.20    3.30
   5   5 -12   11.60    3.40
  -3  -5  12   87.69   10.20
   3  -5 -12   80.29    7.00
   3  -5 -12   82.09    7.20
  -3   5  12   92.79    8.90
   3   5 -12   86.59    8.20
  -6  -6  12   -3.30    4.60
   6  -6 -12    2.70    2.70
   6  -6 -12    8.80    3.00
  -6  -6  12    7.70    6.30
   6   6 -12    8.70    4.10
  -6   6  12    2.80    3.50
  -6   6  12    9.30    3.70
   4  -6 -12  470.05   17.30
  -4  -6  12  411.06   19.80
   4  -6 -12  455.85   16.10
  -4  -6  12  452.85   20.10
  -4   6  12  485.75   17.70
  -4   6  12  446.76   16.90
   4   6 -12  463.75   16.30
   4   6 -12  482.75   19.40
   8   0 -13    0.30    3.20
   8   0 -13   -1.50    2.50
  -8   0  13    3.10    5.00
  -6   0  13    9.90    4.30
  -6   0  13   -1.80    1.50
  -6   0  13    3.90    4.80
   6   0 -13    1.10    2.00
  -4   0  13    0.30    3.70
   4   0 -13    3.10    3.00
   4   0 -13    5.80    3.10
  -4   0  13    1.50    2.10
   2   0 -13    0.70    2.40
  -2   0  13    3.20    4.10
   2   0 -13   -2.60    2.70
  -2   0  13   -0.10    2.70
   7  -1 -13  323.47   13.40
  -7  -1  13  307.07   17.10
  -7  -1  13  292.17   14.40
   7   1 -13  313.87   15.70
  -7   1  13  279.87   12.50
  -7   1  13  280.67   15.70
  -7   1  13  295.97   14.00
   7   1 -13  293.37   12.30
  -5  -1  13   16.10    4.50
  -5  -1  13   27.30    6.50
   5  -1 -13   22.20    4.60
   5   1 -13   18.70    4.10
  -5   1  13   25.50    6.00
  -5   1  13   10.70    4.60
  -5   1  13   22.50    4.70
   3  -1 -13  305.57   13.10
   3  -1 -13  325.57   14.60
  -3  -1  13  284.47   12.30
  -3  -1  13  301.67   15.50
  -3   1  13  300.37   14.80
  -3   1  13  302.67   13.10
   3   1 -13  309.97   14.70
   8  -2 -13  307.87   13.50
  -8  -2  13  318.97   14.70
  -8  -2  13  319.27   17.60
   8  -2 -13  318.27   15.20
  -8   2  13  331.07   13.60
  -8   2  13  286.27   16.20
   8   2 -13  323.57   15.90
  -6  -2  13  314.47   16.90
   6  -2 -13  337.27   14.00
  -6  -2  13  330.97   15.30
  -6   2  13  322.77   15.90
  -6   2  13  328.27   14.80
  -6   2  13  311.57   13.50
   6   2 -13  339.97   16.40
   6   2 -13  320.77   12.80
   4  -2 -13  439.56   16.70
  -4  -2  13  445.06   18.90
  -4   2  13  417.96   17.80
  -7  -3  13    9.70    6.30
  -7  -3  13    8.40    4.80
   7  -3 -13    3.80    3.20
  -7   3  13   10.30    4.80
  -7   3  13    3.70    3.30
  -7   3  13   14.70    3.90
   7   3 -13    7.50    4.30
  -5  -3  13  138.19   12.30
  -5  -3  13  157.68   12.00
   5  -3 -13  159.48    9.80
  -5   3  13  171.18   10.10
  -5   3  13  169.48   10.90
  -5   3  13  163.08   10.90
  -3  -3  13   -0.10    5.10
   3  -3 -13    0.30    3.10
  -3   3  13    2.60    3.30
  -3   3  13    3.30    3.90
   3   3 -13    1.20    3.70
  -6  -4  13    6.50    6.00
  -6  -4  13    4.30    4.30
  -6   4  13   10.20    3.90
  -6   4  13    8.30    3.90
   6   4 -13   -0.50    3.80
  -6   4  13   11.10    4.40
  -4  -4  13   30.80    7.20
   4   4 -13   19.60    3.90
  -4   4  13   35.60    7.10
  -4   4  13   37.40    5.90
   0   0   0    0.00    0.00

_computing_structure_solution     'SHELXT 2014/5 (Sheldrick, 2014)'
;
_shelx_hkl_checksum              14518
loop_
_space_group_symop_operation_xyz
'x, y, z'
'-x, y, -z+1/2'
'x+1/2, y+1/2, z'
'-x+1/2, y+1/2, -z+1/2'
'-x, -y, -z'
'x, -y, z-1/2'
'-x+1/2, -y+1/2, -z'
'x+1/2, -y+1/2, z-1/2'
loop_
_atom_site_label
_atom_site_type_symbol
_atom_site_fract_x
_atom_site_fract_y
_atom_site_fract_z
_atom_site_U_iso_or_equiv
_atom_site_adp_type
_atom_site_occupancy
_atom_site_site_symmetry_order
_atom_site_calc_flag
_atom_site_refinement_flags_posn
_atom_site_refinement_flags_adp
_atom_site_refinement_flags_occupancy
_atom_site_disorder_assembly
_atom_site_disorder_group
Mg Mg 0.000000 0.500000 0.000000 0.00652(6) Uani 1 2 d S . P . .
S S 0.000000 0.15586(2) 0.250000 0.00530(5) Uani 1 2 d S T P . .
O1 O 0.17551(7) 0.04607(6) 0.39547(7) 0.01054(8) Uani 1 1 d . . . . .
O2 O 0.09346(7) 0.26857(6) 0.15003(7) 0.00955(8) Uani 1 1 d . . . . .
O3 O 0.000000 0.63464(8) 0.250000 0.00867(10) Uani 1 2 d S T P . .
H H 0.103(2) 0.7020(18) 0.291(2) 0.024(3) Uiso 1 1 d . . . . .
loop_
_atom_site_aniso_label
_atom_site_aniso_U_11
_atom_site_aniso_U_22
_atom_site_aniso_U_33
_atom_site_aniso_U_23
_atom_site_aniso_U_13
_atom_site_aniso_U_12
Mg 0.00574(11) 0.00680(11) 0.00652(11) 0.00034(8) 0.00244(9) -0.00039(8)
S 0.00400(7) 0.00518(7) 0.00623(7) 0.000 0.00198(5) 0.000
O1 0.00642(15) 0.01185(17) 0.01192(17) 0.00518(13) 0.00312(13) 0.00311(13)
O2 0.00931(17) 0.00875(16) 0.01258(17) 0.00375(12) 0.00678(14) 0.00087(12)
O3 0.0082(2) 0.0095(2) 0.0084(2) 0.000 0.00396(18) 0.000
loop_
_atom_type_symbol
_atom_type_description
_atom_type_scat_dispersion_real
_atom_type_scat_dispersion_imag
_atom_type_scat_source
O O 0.0106 0.0060 'International Tables Vol C Tables 4.2.6.8 and 6.1.1.4'
H H 0.0000 0.0000 'International Tables Vol C Tables 4.2.6.8 and 6.1.1.4'
S S 0.1246 0.1234 'International Tables Vol C Tables 4.2.6.8 and 6.1.1.4'
Mg Mg 0.0486 0.0363 'International Tables Vol C Tables 4.2.6.8 and 6.1.1.4'
Fe Fe 0.3463 0.8444 'International Tables Vol C Tables 4.2.6.8 and 6.1.1.4'
loop_
_geom_angle_atom_site_label_1
_geom_angle_atom_site_label_2
_geom_angle_atom_site_label_3
_geom_angle
_geom_angle_site_symmetry_1
_geom_angle_site_symmetry_3
_geom_angle_publ_flag
O1 Mg O1 180.0 8_455 4 ?
O1 Mg O2 85.97(2) 8_455 5_565 ?
O1 Mg O2 94.03(2) 4 5_565 ?
O1 Mg O2 94.03(2) 8_455 . ?
O1 Mg O2 85.97(2) 4 . ?
O2 Mg O2 180.0 5_565 . ?
O1 Mg O3 88.488(17) 8_455 . ?
O1 Mg O3 91.512(17) 4 . ?
O2 Mg O3 87.21(2) 5_565 . ?
O2 Mg O3 92.79(2) . . ?
O1 Mg O3 91.512(16) 8_455 5_565 ?
O1 Mg O3 88.488(17) 4 5_565 ?
O2 Mg O3 92.79(2) 5_565 5_565 ?
O2 Mg O3 87.21(2) . 5_565 ?
O3 Mg O3 180.0 . 5_565 ?
O1 Mg O2 138.340(16) 8_455 4 ?
O1 Mg O2 41.660(16) 4 4 ?
O2 Mg O2 81.260(13) 5_565 4 ?
O2 Mg O2 98.740(13) . 4 ?
O3 Mg O2 51.587(12) . 4 ?
O3 Mg O2 128.413(12) 5_565 4 ?
O1 Mg O2 41.660(16) 8_455 8_455 ?
O1 Mg O2 138.340(16) 4 8_455 ?
O2 Mg O2 98.740(13) 5_565 8_455 ?
O2 Mg O2 81.261(13) . 8_455 ?
O3 Mg O2 128.413(12) . 8_455 ?
O3 Mg O2 51.587(12) 5_565 8_455 ?
O2 Mg O2 180.0 4 8_455 ?
O1 Mg O2 110.592(19) 8_455 6_565 ?
O1 Mg O2 69.408(19) 4 6_565 ?
O2 Mg O2 42.059(17) 5_565 6_565 ?
O2 Mg O2 137.941(17) . 6_565 ?
O3 Mg O2 120.404(18) . 6_565 ?
O3 Mg O2 59.596(19) 5_565 6_565 ?
O2 Mg O2 85.246(15) 4 6_565 ?
O2 Mg O2 94.754(15) 8_455 6_565 ?
O1 Mg O2 69.408(19) 8_455 2 ?
O1 Mg O2 110.592(19) 4 2 ?
O2 Mg O2 137.941(17) 5_565 2 ?
O2 Mg O2 42.059(17) . 2 ?
O3 Mg O2 59.596(18) . 2 ?
O3 Mg O2 120.404(19) 5_565 2 ?
O2 Mg O2 94.754(15) 4 2 ?
O2 Mg O2 85.246(16) 8_455 2 ?
O2 Mg O2 180.0 6_565 2 ?
O1 Mg O1 117.942(19) 8_455 6_565 ?
O1 Mg O1 62.058(19) 4 6_565 ?
O2 Mg O1 32.427(15) 5_565 6_565 ?
O2 Mg O1 147.572(15) . 6_565 ?
O3 Mg O1 83.361(18) . 6_565 ?
O3 Mg O1 96.640(18) 5_565 6_565 ?
O2 Mg O1 54.188(12) 4 6_565 ?
O2 Mg O1 125.811(12) 8_455 6_565 ?
O2 Mg O1 37.384(10) 6_565 6_565 ?
O2 Mg O1 142.616(10) 2 6_565 ?
O1 Mg O1 62.058(19) 8_455 2 ?
O1 Mg O1 117.942(19) 4 2 ?
O2 Mg O1 147.573(15) 5_565 2 ?
O2 Mg O1 32.428(16) . 2 ?
O3 Mg O1 96.639(18) . 2 ?
O3 Mg O1 83.360(18) 5_565 2 ?
O2 Mg O1 125.812(12) 4 2 ?
O2 Mg O1 54.189(12) 8_455 2 ?
O2 Mg O1 142.616(10) 6_565 2 ?
O2 Mg O1 37.384(10) 2 2 ?
O1 Mg O1 180.0 6_565 2 ?
O1 S O1 109.99(4) 2 . ?
O1 S O2 108.61(3) 2 2 ?
O1 S O2 110.34(3) . 2 ?
O1 S O2 110.34(3) 2 . ?
O1 S O2 108.61(3) . . ?
O2 S O2 108.94(4) 2 . ?
S O1 Mg 140.12(3) . 4_545 ?
S O1 O2 35.970(17) . . ?
Mg O1 O2 104.15(2) 4_545 . ?
S O1 O1 35.00(2) . 2 ?
Mg O1 O1 144.58(3) 4_545 2 ?
O2 O1 O1 60.65(2) . 2 ?
S O1 O2 35.099(17) . 2 ?
Mg O1 O2 144.18(3) 4_545 2 ?
O2 O1 O2 60.22(2) . 2 ?
O1 O1 O2 59.587(19) 2 2 ?
S O1 O2 131.59(3) . 4_545 ?
Mg O1 O2 47.286(14) 4_545 4_545 ?
O2 O1 O2 112.67(2) . 4_545 ?
O1 O1 O2 105.91(2) 2 4_545 ?
O2 O1 O2 165.40(3) 2 4_545 ?
S O1 O3 166.98(3) . 7_556 ?
Mg O1 O3 47.780(12) 4_545 7_556 ?
O2 O1 O3 148.99(2) . 7_556 ?
O1 O1 O3 149.163(18) 2 7_556 ?
O2 O1 O3 131.89(2) 2 7_556 ?
O2 O1 O3 61.222(17) 4_545 7_556 ?
S O1 O2 115.19(3) . 8_556 ?
Mg O1 O2 43.223(15) 4_545 8_556 ?
O2 O1 O2 88.48(2) . 8_556 ?
O1 O1 O2 148.599(18) 2 8_556 ?
O2 O1 O2 101.63(2) 2 8_556 ?
O2 O1 O2 90.51(2) 4_545 8_556 ?
O3 O1 O2 62.236(19) 7_556 8_556 ?
S O1 O3 94.87(2) . 3_545 ?
Mg O1 O3 46.163(14) 4_545 3_545 ?
O2 O1 O3 59.641(19) . 3_545 ?
O1 O1 O3 105.16(3) 2 3_545 ?
O2 O1 O3 116.23(2) 2 3_545 ?
O2 O1 O3 63.58(2) 4_545 3_545 ?
O3 O1 O3 93.943(19) 7_556 3_545 ?
O2 O1 O3 58.135(16) 8_556 3_545 ?
S O1 O2 123.72(3) . 6_556 ?
Mg O1 O2 95.958(19) 4_545 6_556 ?
O2 O1 O2 159.23(3) . 6_556 ?
O1 O1 O2 99.64(2) 2 6_556 ?
O2 O1 O2 105.42(2) 2 6_556 ?
O2 O1 O2 77.444(19) 4_545 6_556 ?
O3 O1 O2 51.672(15) 7_556 6_556 ?
O2 O1 O2 110.12(2) 8_556 6_556 ?
O3 O1 O2 138.06(2) 3_545 6_556 ?
S O1 O3 104.15(3) . 1_545 ?
Mg O1 O3 97.320(18) 4_545 1_545 ?
O2 O1 O3 119.33(2) . 1_545 ?
O1 O1 O3 69.142(9) 2 1_545 ?
O2 O1 O3 118.49(2) 2 1_545 ?
O2 O1 O3 51.829(15) 4_545 1_545 ?
O3 O1 O3 82.200(16) 7_556 1_545 ?
O2 O1 O3 138.542(18) 8_556 1_545 ?
O3 O1 O3 107.688(19) 3_545 1_545 ?
O2 O1 O3 51.605(13) 6_556 1_545 ?
S O1 O2 111.25(3) . 7_556 ?
Mg O1 O2 76.459(19) 4_545 7_556 ?
O2 O1 O2 109.26(2) . 7_556 ?
O1 O1 O2 137.45(3) 2 7_556 ?
O2 O1 O2 79.224(19) 2 7_556 ?
O2 O1 O2 115.34(2) 4_545 7_556 ?
O3 O1 O2 57.346(18) 7_556 7_556 ?
O2 O1 O2 44.143(18) 8_556 7_556 ?
O3 O1 O2 102.130(19) 3_545 7_556 ?
O2 O1 O2 80.237(15) 6_556 7_556 ?
O3 O1 O2 130.901(16) 1_545 7_556 ?
S O2 Mg 133.87(3) . . ?
S O2 O1 35.419(16) . . ?
Mg O2 O1 162.15(3) . . ?
S O2 O2 35.528(19) . 2 ?
Mg O2 O2 103.444(17) . 2 ?
O1 O2 O2 60.414(19) . 2 ?
S O2 O1 34.564(17) . 2 ?
Mg O2 O1 120.67(3) . 2 ?
O1 O2 O1 59.76(3) . 2 ?
O2 O2 O1 59.362(19) 2 2 ?
S O2 O3 105.92(3) . 3_545 ?
Mg O2 O3 119.60(2) . 3_545 ?
O1 O2 O3 71.340(19) . 3_545 ?
O2 O2 O3 127.18(3) 2 3_545 ?
O1 O2 O3 113.15(3) 2 3_545 ?
S O2 O1 157.38(3) . 4 ?
Mg O2 O1 46.741(16) . 4 ?
O1 O2 O1 134.70(2) . 4 ?
O2 O2 O1 125.973(17) 2 4 ?
O1 O2 O1 165.40(3) 2 4 ?
O3 O2 O1 75.38(2) 3_545 4 ?
S O2 O3 138.80(3) . 5_565 ?
Mg O2 O3 48.199(15) . 5_565 ?
O1 O2 O3 149.09(3) . 5_565 ?
O2 O2 O3 137.95(3) 2 5_565 ?
O1 O2 O3 104.53(2) 2 5_565 ?
O3 O2 O3 94.715(18) 3_545 5_565 ?
O1 O2 O3 62.011(17) 4 5_565 ?
S O2 O1 95.24(2) . 8_455 ?
Mg O2 O1 42.749(13) . 8_455 ?
O1 O2 O1 130.64(3) . 8_455 ?
O2 O2 O1 76.81(2) 2 8_455 ?
O1 O2 O1 78.37(2) 2 8_455 ?
O3 O2 O1 155.98(2) 3_545 8_455 ?
O1 O2 O1 89.49(2) 4 8_455 ?
O3 O2 O1 61.458(16) 5_565 8_455 ?
S O2 O3 102.20(2) . . ?
Mg O2 O3 45.239(12) . . ?
O1 O2 O3 117.22(2) . . ?
O2 O2 O3 66.674(10) 2 . ?
O1 O2 O3 116.37(2) 2 . ?
O3 O2 O3 125.67(2) 3_545 . ?
O1 O2 O3 61.925(16) 4 . ?
O3 O2 O3 93.438(16) 5_565 . ?
O1 O2 O3 58.117(13) 8_455 . ?
S O2 O1 96.56(2) . 6 ?
Mg O2 O1 113.46(2) . 6 ?
O1 O2 O1 84.214(17) . 6 ?
O2 O2 O1 131.342(14) 2 6 ?
O1 O2 O1 74.59(2) 2 6 ?
O3 O2 O1 57.028(16) 3_545 6 ?
O1 O2 O1 102.56(2) 4 6 ?
O3 O2 O1 65.334(19) 5_565 6 ?
O1 O2 O1 110.11(2) 8_455 6 ?
O3 O2 O1 158.511(18) . 6 ?
S O2 O1 79.95(2) . 7_556 ?
Mg O2 O1 94.87(2) . 7_556 ?
O1 O2 O1 70.74(2) . 7_556 ?
O2 O2 O1 59.05(2) 2 7_556 ?
O1 O2 O1 113.82(2) 2 7_556 ?
O3 O2 O1 86.687(19) 3_545 7_556 ?
O1 O2 O1 77.571(16) 4 7_556 ?
O3 O2 O1 137.56(2) 5_565 7_556 ?
O1 O2 O1 108.49(2) 8_455 7_556 ?
O3 O2 O1 53.894(12) . 7_556 ?
O1 O2 O1 141.396(18) 6 7_556 ?
Mg O3 Mg 123.27(3) . 2 ?
Mg O3 O2 90.040(13) . 4 ?
Mg O3 O2 110.797(14) 2 4 ?
Mg O3 O2 110.797(14) . 3_455 ?
Mg O3 O2 90.040(13) 2 3_455 ?
O2 O3 O2 136.02(3) 4 3_455 ?
Mg O3 O2 162.61(2) . 6_566 ?
Mg O3 O2 44.594(12) 2 6_566 ?
O2 O3 O2 85.285(18) 4 6_566 ?
O2 O3 O2 83.762(17) 3_455 6_566 ?
Mg O3 O2 44.594(12) . 5_565 ?
Mg O3 O2 162.61(2) 2 5_565 ?
O2 O3 O2 83.762(17) 4 5_565 ?
O2 O3 O2 85.284(18) 3_455 5_565 ?
O2 O3 O2 150.46(3) 6_566 5_565 ?
Mg O3 O1 43.733(13) . 8_455 ?
Mg O3 O1 105.89(2) 2 8_455 ?
O2 O3 O1 132.403(15) 4 8_455 ?
O2 O3 O1 71.300(17) 3_455 8_455 ?
O2 O3 O1 142.081(17) 6_566 8_455 ?
O2 O3 O1 56.766(16) 5_565 8_455 ?
Mg O3 O1 105.89(2) . 7_556 ?
Mg O3 O1 43.733(13) 2 7_556 ?
O2 O3 O1 71.300(17) 4 7_556 ?
O2 O3 O1 132.403(15) 3_455 7_556 ?
O2 O3 O1 56.766(16) 6_566 7_556 ?
O2 O3 O1 142.081(17) 5_565 7_556 ?
O1 O3 O1 123.62(3) 8_455 7_556 ?
Mg O3 O1 121.67(2) . 3_455 ?
Mg O3 O1 42.325(12) 2 3_455 ?
O2 O3 O1 145.555(16) 4 3_455 ?
O2 O3 O1 49.019(15) 3_455 3_455 ?
O2 O3 O1 60.406(16) 6_566 3_455 ?
O2 O3 O1 127.504(15) 5_565 3_455 ?
O1 O3 O1 81.704(17) 8_455 3_455 ?
O1 O3 O1 86.057(19) 7_556 3_455 ?
Mg O3 O1 42.325(11) . 4 ?
Mg O3 O1 121.67(2) 2 4 ?
O2 O3 O1 49.019(15) 4 4 ?
O2 O3 O1 145.554(16) 3_455 4 ?
O2 O3 O1 127.504(15) 6_566 4 ?
O2 O3 O1 60.406(15) 5_565 4 ?
O1 O3 O1 86.057(18) 8_455 4 ?
O1 O3 O1 81.704(17) 7_556 4 ?
O1 O3 O1 153.94(3) 3_455 4 ?
Mg O3 O2 41.969(14) . . ?
Mg O3 O2 82.59(2) 2 . ?
O2 O3 O2 95.998(14) 4 . ?
O2 O3 O2 125.67(2) 3_455 . ?
O2 O3 O2 121.88(2) 6_566 . ?
O2 O3 O2 86.562(16) 5_565 . ?
O1 O3 O2 59.648(18) 8_455 . ?
O1 O3 O2 68.761(19) 7_556 . ?
O1 O3 O2 99.59(2) 3_455 . ?
O1 O3 O2 54.493(14) 4 . ?
Mg O3 O2 82.59(2) . 2 ?
Mg O3 O2 41.969(14) 2 2 ?
O2 O3 O2 125.67(2) 4 2 ?
O2 O3 O2 95.998(13) 3_455 2 ?
O2 O3 O2 86.562(16) 6_566 2 ?
O2 O3 O2 121.88(2) 5_565 2 ?
O1 O3 O2 68.762(19) 8_455 2 ?
O1 O3 O2 59.647(18) 7_556 2 ?
O1 O3 O2 54.493(14) 3_455 2 ?
O1 O3 O2 99.59(2) 4 2 ?
O2 O3 O2 46.65(2) . 2 ?
Mg O3 H 106.2(10) . . ?
Mg O3 H 108.8(10) 2 . ?
O2 O3 H 19.6(10) 4 . ?
O2 O3 H 117.9(10) 3_455 . ?
O2 O3 H 73.2(10) 6_566 . ?
O2 O3 H 88.1(10) 5_565 . ?
O1 O3 H 143.9(10) 8_455 . ?
O1 O3 H 77.9(10) 7_556 . ?
O1 O3 H 132.0(10) 3_455 . ?
O1 O3 H 67.4(10) 4 . ?
O2 O3 H 115.4(10) . . ?
O2 O3 H 137.3(10) 2 . ?
Mg O3 H 108.8(10) . 2 ?
Mg O3 H 106.2(10) 2 2 ?
O2 O3 H 117.9(10) 4 2 ?
O2 O3 H 19.6(10) 3_455 2 ?
O2 O3 H 88.1(10) 6_566 2 ?
O2 O3 H 73.2(10) 5_565 2 ?
O1 O3 H 77.9(10) 8_455 2 ?
O1 O3 H 143.9(10) 7_556 2 ?
O1 O3 H 67.4(10) 3_455 2 ?
O1 O3 H 132.0(10) 4 2 ?
O2 O3 H 137.3(10) . 2 ?
O2 O3 H 115.4(10) 2 2 ?
H O3 H 101(2) . 2 ?
loop_
_geom_bond_atom_site_label_1
_geom_bond_atom_site_label_2
_geom_bond_distance
_geom_bond_site_symmetry_2
_geom_bond_publ_flag
Mg O1 2.0229(6) 8_455 ?
Mg O1 2.0229(6) 4 ?
Mg O2 2.0409(5) 5_565 ?
Mg O2 2.0409(5) . ?
Mg O3 2.1671(4) . ?
Mg O3 2.1671(4) 5_565 ?
Mg O2 3.4909(6) 4 ?
Mg O2 3.4909(6) 8_455 ?
Mg O2 3.5049(6) 6_565 ?
Mg O2 3.5049(6) 2 ?
Mg O1 3.8796(6) 6_565 ?
Mg O1 3.8796(6) 2 ?
S O1 1.4634(5) 2 ?
S O1 1.4634(5) . ?
S O2 1.4832(5) 2 ?
S O2 1.4832(5) . ?
O1 O2 2.3931(7) . ?
O1 O1 2.3974(10) 2 ?
O1 O2 2.4187(7) 2 ?
O1 O2 2.7709(7) 4_545 ?
O1 O3 2.9252(7) 7_556 ?
O1 O2 2.9728(8) 8_556 ?
O1 O3 3.0033(6) 3_545 ?
O1 O2 3.3027(7) 6_556 ?
O1 O3 3.3667(9) 1_545 ?
O1 O2 3.3747(8) 7_556 ?
O2 O2 2.4141(9) 2 ?
O2 O3 2.7353(6) 3_545 ?
O2 O3 2.9035(6) 5_565 ?
O2 O3 3.0483(8) . ?
O3 H 0.813(14) . ?
O3 H 0.813(14) 2 ?
loop_
_geom_hbond_atom_site_label_D
_geom_hbond_atom_site_label_H
_geom_hbond_atom_site_label_A
_geom_hbond_distance_DH
_geom_hbond_distance_HA
_geom_hbond_distance_DA
_geom_hbond_angle_DHA
_geom_hbond_site_symmetry_A
_geom_hbond_publ_flag
O3 H O2 0.813(14) 1.988(14) 2.7353(6) 152.5(14) 4 yes
