#------------------------------------------------------------------------------
#$Date: 2021-11-24 11:52:27 +0200 (Wed, 24 Nov 2021) $
#$Revision: 270855 $
#$URL: file:///home/coder/svn-repositories/cod/cif/1/56/53/1565392.cif $
#------------------------------------------------------------------------------
#
# This file is available in the Crystallography Open Database (COD),
# http://www.crystallography.net/
#
# All data on this site have been placed in the public domain by the
# contributors.
#
data_1565392
loop_
_publ_author_name
'Nwachukwu, Chideraa I.'
'Bosch, Eric'
_publ_section_title
;
 Synthesis of 4-[(2-imidazylethynyl)]-5-(2-pyridylethynyl)veratrole and
 characterization of the coordination complexes with silver(I) and
 palladium(II)
;
_journal_name_full               'Inorganica Chimica Acta'
_journal_page_first              119328
_journal_paper_doi               10.1016/j.ica.2019.119328
_journal_volume                  502
_journal_year                    2020
_chemical_formula_sum            'C20 H15 N3 O2'
_chemical_formula_weight         329.35
_space_group_crystal_system      triclinic
_space_group_IT_number           2
_space_group_name_Hall           '-P 1'
_space_group_name_H-M_alt        'P -1'
_atom_sites_solution_hydrogens   mixed
_cell_angle_alpha                110.387(6)
_cell_angle_beta                 95.185(6)
_cell_angle_gamma                92.835(7)
_cell_formula_units_Z            2
_cell_length_a                   6.698(3)
_cell_length_b                   9.659(4)
_cell_length_c                   13.379(6)
_cell_measurement_reflns_used    1097
_cell_measurement_temperature    100(2)
_cell_measurement_theta_max      25.15
_cell_measurement_theta_min      2.26
_cell_volume                     805.0(6)
_computing_cell_refinement       'Bruker SMART'
_computing_data_collection       'Bruker SMART'
_computing_data_reduction        'Bruker SAINT'
_computing_molecular_graphics    'XSeed (Barbour, 2001)'
_computing_publication_material  'XSeed (Barbour, 2001)'
_computing_structure_refinement  'SHELXL-2018/3 (Sheldrick, 2015)'
_computing_structure_solution    'SHELXT 2018/2 (Sheldrick, 2015)'
_diffrn_ambient_temperature      100(2)
_diffrn_detector_area_resol_mean 8.3660
_diffrn_measured_fraction_theta_full 0.999
_diffrn_measured_fraction_theta_max 0.996
_diffrn_measurement_device_type  'Bruker APEX-II CCD'
_diffrn_measurement_method       'phi and omega scans'
_diffrn_radiation_monochromator  graphite
_diffrn_radiation_source         'fine-focus sealed tube'
_diffrn_radiation_type           MoK\a
_diffrn_radiation_wavelength     0.71073
_diffrn_reflns_av_R_equivalents  0.0593
_diffrn_reflns_av_unetI/netI     0.0791
_diffrn_reflns_Laue_measured_fraction_full 0.999
_diffrn_reflns_Laue_measured_fraction_max 0.996
_diffrn_reflns_limit_h_max       8
_diffrn_reflns_limit_h_min       -8
_diffrn_reflns_limit_k_max       12
_diffrn_reflns_limit_k_min       -12
_diffrn_reflns_limit_l_max       17
_diffrn_reflns_limit_l_min       -17
_diffrn_reflns_number            10255
_diffrn_reflns_point_group_measured_fraction_full 0.999
_diffrn_reflns_point_group_measured_fraction_max 0.996
_diffrn_reflns_theta_full        25.242
_diffrn_reflns_theta_max         27.142
_diffrn_reflns_theta_min         2.258
_exptl_absorpt_coefficient_mu    0.090
_exptl_absorpt_correction_T_max  1.000
_exptl_absorpt_correction_T_min  0.805
_exptl_absorpt_correction_type   multi-scan
_exptl_absorpt_process_details   'SADABS V2014(Bruker AXS)'
_exptl_crystal_colour            colourless
_exptl_crystal_density_diffrn    1.359
_exptl_crystal_description       'cut block'
_exptl_crystal_F_000             344
_exptl_crystal_size_max          0.25
_exptl_crystal_size_mid          0.21
_exptl_crystal_size_min          0.02
_refine_diff_density_max         0.568
_refine_diff_density_min         -0.332
_refine_diff_density_rms         0.077
_refine_ls_extinction_coef       .
_refine_ls_extinction_method     none
_refine_ls_goodness_of_fit_ref   0.994
_refine_ls_hydrogen_treatment    mixed
_refine_ls_matrix_type           full
_refine_ls_number_parameters     232
_refine_ls_number_reflns         3575
_refine_ls_number_restraints     1
_refine_ls_restrained_S_all      0.994
_refine_ls_R_factor_all          0.1278
_refine_ls_R_factor_gt           0.0648
_refine_ls_shift/su_max          0.000
_refine_ls_shift/su_mean         0.000
_refine_ls_structure_factor_coef Fsqd
_refine_ls_weighting_details
'w=1/[\s^2^(Fo^2^)+(0.1110P)^2^] where P=(Fo^2^+2Fc^2^)/3'
_refine_ls_weighting_scheme      calc
_refine_ls_wR_factor_gt          0.1648
_refine_ls_wR_factor_ref         0.2067
_reflns_Friedel_coverage         0.000
_reflns_Friedel_fraction_full    .
_reflns_Friedel_fraction_max     .
_reflns_number_gt                1868
_reflns_number_total             3575
_reflns_threshold_expression     'I > 2\s(I)'
_cod_data_source_file            ICA-2020-502-119328.cif
_cod_data_source_block           eb608_a
_cod_original_cell_volume        804.9(6)
_cod_database_code               1565392
_shelx_space_group_comment
;
The symmetry employed for this shelxl refinement is uniquely defined
by the following loop, which should always be used as a source of
symmetry information in preference to the above space-group names.
They are only intended as comments.
;
_shelx_res_file
;
TITL eb608_a.res in P-1
    F:\SOLVED~1\EB601-~1\EB608P~1\eb608_a.res
    created by SHELXL-2018/3 at 18:43:53 on 28-Sep-2019
CELL 0.71073 6.6978 9.6587 13.3786 110.387 95.185 92.835
ZERR 2.0000 0.0031 0.0044 0.0061 0.006 0.006 0.007
LATT 1
SFAC C H N O
UNIT 40 30 6 4
BOND $H
MPLA 5 N2 C16 N3 C17 C18
MPLA 6 C8 C9 C10 C11 C12 C13 C19 C20
MPLA 6 N1 C1 C2 C3 C4 C5
MPLA 5 N2 C16 N3 C17 C18
EQIV $1 X,Y,1+Z
EQIV $2 X,1+Y,Z
DFIX 0.88 0.02 N2 H2N
HTAB C2 O1_$1
HTAB C9 N3_$2
HTAB N2 N1
OMIT 0 0 1
ACTA
LIST 4 1
TEMP -173
L.S. 16
WGHT    0.111000
FVAR       0.48923
O1    4    0.741142    0.678803    0.426429    11.00000    0.03977    0.03675 =
         0.02221    0.01690    0.00413    0.00426
N1    3    0.763227    0.520044    1.002719    11.00000    0.02867    0.03849 =
         0.02231    0.01496    0.00315    0.00160
C1    1    0.746938    0.544622    1.106191    11.00000    0.03378    0.03875 =
         0.02528    0.01803   -0.00098    0.00090
AFIX  43
H1    2    0.772854    0.466613    1.132130    11.00000   -1.20000
AFIX   0
O2    4    0.728376    0.398087    0.314318    11.00000    0.03858    0.04147 =
         0.01384    0.01262    0.00362    0.00490
N2    3    0.823101    0.216660    0.884507    11.00000    0.03294    0.03476 =
         0.02103    0.01165    0.00406    0.00547
C2    1    0.695062    0.675576    1.177708    11.00000    0.03577    0.04859 =
         0.01856    0.01625    0.00077   -0.00009
AFIX  43
H2    2    0.685494    0.687062    1.250539    11.00000   -1.20000
AFIX   0
N3    3    0.819181   -0.008561    0.759698    11.00000    0.04609    0.03395 =
         0.02443    0.01468    0.00287    0.00267
C3    1    0.657557    0.788996    1.141140    11.00000    0.03564    0.03644 =
         0.02452    0.00779    0.00620    0.00320
AFIX  43
H3    2    0.621901    0.880844    1.188535    11.00000   -1.20000
AFIX   0
C4    1    0.672329    0.768025    1.033685    11.00000    0.03209    0.03691 =
         0.02418    0.01593    0.00268   -0.00028
AFIX  43
H4    2    0.646667    0.845126    1.006744    11.00000   -1.20000
AFIX   0
C5    1    0.725190    0.632530    0.966691    11.00000    0.02936    0.03700 =
         0.02074    0.01389    0.00279    0.00169
C6    1    0.744042    0.603186    0.855063    11.00000    0.03306    0.02970 =
         0.02469    0.01359    0.00330    0.00315
C7    1    0.756849    0.576342    0.761518    11.00000    0.03211    0.03261 =
         0.02331    0.01341    0.00491    0.00494
C8    1    0.759968    0.530901    0.647269    11.00000    0.02454    0.03845 =
         0.01934    0.01375    0.00485    0.00415
C9    1    0.753192    0.634039    0.594753    11.00000    0.02658    0.03820 =
         0.02039    0.01359    0.00237    0.00432
AFIX  43
H9    2    0.753235    0.736664    0.635373    11.00000   -1.20000
AFIX   0
C10   1    0.746411    0.586553    0.483411    11.00000    0.02487    0.03825 =
         0.02243    0.01640    0.00359    0.00376
C11   1    0.742442    0.434797    0.423420    11.00000    0.02864    0.04068 =
         0.01567    0.01267    0.00366    0.00282
C12   1    0.754865    0.332714    0.474568    11.00000    0.02636    0.03511 =
         0.02054    0.01256    0.00352    0.00471
AFIX  43
H12   2    0.758256    0.230561    0.433532    11.00000   -1.20000
AFIX   0
C13   1    0.762504    0.379368    0.587039    11.00000    0.02420    0.03535 =
         0.02221    0.01460    0.00356    0.00512
C14   1    0.777324    0.277119    0.642559    11.00000    0.03025    0.03596 =
         0.02144    0.00959    0.00385    0.00239
C15   1    0.791377    0.204609    0.699285    11.00000    0.03582    0.03510 =
         0.02122    0.01213    0.00046    0.00468
C16   1    0.812439    0.135575    0.777686    11.00000    0.02805    0.04048 =
         0.02120    0.01428    0.00283    0.00206
C17   1    0.838791    0.119310    0.936856    11.00000    0.03883    0.03558 =
         0.02605    0.01700    0.00388    0.00480
AFIX  43
H17   2    0.849422    0.142510    1.012325    11.00000   -1.20000
AFIX   0
C18   1    0.836407   -0.016379    0.861398    11.00000    0.04345    0.03757 =
         0.02931    0.02168    0.00079    0.00182
AFIX  43
H18   2    0.845343   -0.105499    0.875975    11.00000   -1.20000
AFIX   0
C19   1    0.750321    0.833364    0.485282    11.00000    0.04661    0.03766 =
         0.02863    0.01903    0.00559    0.00436
AFIX 137
H19A  2    0.631273    0.855735    0.523701    11.00000   -1.50000
H19B  2    0.754170    0.887816    0.435775    11.00000   -1.50000
H19C  2    0.871854    0.863233    0.536994    11.00000   -1.50000
AFIX   0
C20   1    0.703941    0.243771    0.251618    11.00000    0.04520    0.04097 =
         0.01985    0.01066    0.00571    0.00684
AFIX 137
H20A  2    0.826762    0.197966    0.263703    11.00000   -1.50000
H20B  2    0.678198    0.230507    0.175421    11.00000   -1.50000
H20C  2    0.590065    0.196750    0.272625    11.00000   -1.50000
AFIX   0
H2N   2    0.819769    0.317592    0.917652    11.00000    0.05049
HKLF 4




REM  eb608_a.res in P-1
REM wR2 = 0.2067, GooF = S = 0.994, Restrained GooF = 0.994 for all data
REM R1 = 0.0648 for 1868 Fo > 4sig(Fo) and 0.1278 for all 3575 data
REM 232 parameters refined using 1 restraints

END

WGHT      0.1110      0.0000

REM Highest difference peak  0.568,  deepest hole -0.332,  1-sigma level  0.077
Q1    1   0.7552  0.4000  0.9595  11.00000  0.05    0.57
Q2    1   0.7394  0.5379  0.3660  11.00000  0.05    0.48
Q3    1   0.8114  0.3148  0.7280  11.00000  0.05    0.48
Q4    1   0.7489  0.4338  1.0754  11.00000  0.05    0.43
Q5    1   0.7587  0.6980  0.8013  11.00000  0.05    0.41
Q6    1   0.7451  0.7253  0.5376  11.00000  0.05    0.40
Q7    1   0.7533  0.3055  0.3754  11.00000  0.05    0.38
Q8    1   0.7532  0.4885  0.8133  11.00000  0.05    0.37
Q9    1   0.7452  0.4985  0.9168  11.00000  0.05    0.35
Q10   1   0.7752  0.1643  0.5990  11.00000  0.05    0.34
Q11   1   0.8099  0.7861  0.7035  11.00000  0.05    0.34
Q12   1   0.6626  0.9433  1.1769  11.00000  0.05    0.34
Q13   1   0.7239  0.6432  0.3437  11.00000  0.05    0.33
Q14   1   0.7561  0.4887  0.5331  11.00000  0.05    0.32
Q15   1   0.7470  0.6680  0.6927  11.00000  0.05    0.32
Q16   1   0.7210  0.1190  0.2380  11.00000  0.05    0.31
Q17   1   0.7770  0.6546  1.0397  11.00000  0.05    0.30
Q18   1   0.7698  0.4311  0.7057  11.00000  0.05    0.30
Q19   1   0.7625  0.2424  0.5431  11.00000  0.05    0.30
Q20   1   0.8539 -0.1586  0.8222  11.00000  0.05    0.30
;
_shelx_res_checksum              79625
_shelx_hkl_file
;
  -1   0   0   18.70    1.50
  -1   0   0   15.80    1.50
   1   0   0   11.30    1.70
   1   0   0   11.00    1.60
  -2   0   0 9999.00  306.67
  -2   0   0 9790.22  307.27
   2   0   0 9764.42  306.87
   2   0   0 9911.41  307.07
  -3   0   0   68.09    3.00
  -3   0   0   58.19    3.20
   3   0   0   50.09    3.30
   3   0   0   54.29    3.30
  -4   0   0  821.32   27.00
  -4   0   0  833.12   26.70
   4   0   0  823.12   27.20
   4   0   0  828.82   27.20
  -5   0   0   11.30    2.00
  -5   0   0    7.50    1.80
   5   0   0    8.80    2.20
   5   0   0    5.00    1.90
  -6   0   0  100.79    5.20
  -6   0   0   91.19    5.40
   6   0   0   79.89    5.60
   6   0   0   90.79    5.40
  -7   0   0    2.10    2.30
   7   0   0    3.10    2.30
  -8   0   0   41.60    4.70
   8   0   0   25.40    3.90
   8  -1   0   53.49    5.40
  -8   1   0   46.50    5.10
   7  -1   0    8.90    2.80
  -7   1   0    2.90    2.30
   6  -1   0  125.09    6.60
   6  -1   0  139.59    6.90
  -6   1   0  136.69    6.70
   5  -1   0   52.69    3.60
   5  -1   0   44.20    3.70
  -5   1   0   45.50    3.10
  -5   1   0   45.00    3.50
   4  -1   0  176.18    7.00
   4  -1   0  149.19    6.80
  -4   1   0  164.98    6.80
  -4   1   0  171.38    6.20
   3  -1   0  185.38    6.80
   3  -1   0  180.68    7.00
  -3   1   0  174.88    6.30
  -3   1   0  183.48    6.80
   2  -1   0  159.78    6.30
   2  -1   0  170.48    6.50
  -2   1   0  188.78    6.30
   1  -1   0  123.29    4.50
   1  -1   0  122.19    4.50
  -1   1   0  128.79    4.40
   0  -1   0  890.21   28.00
   0  -1   0  912.91   28.00
   0   1   0  894.01   28.10
   0   1   0  884.71   27.80
  -1  -1   0   30.90    1.90
  -1  -1   0   33.40    1.50
   1   1   0   31.50    1.90
   1   1   0   31.70    1.70
  -2  -1   0 2602.94   81.39
  -2  -1   0 2569.64   81.19
   2   1   0 2634.24   81.39
   2   1   0 2607.44   81.49
  -3  -1   0   82.99    3.80
  -3  -1   0   79.39    3.70
   3   1   0   79.89    3.90
   3   1   0   77.29    3.80
  -4  -1   0 1416.06   44.70
  -4  -1   0 1349.16   44.60
   4   1   0 1451.95   45.00
   4   1   0 1376.86   45.00
  -5  -1   0    9.30    2.00
  -5  -1   0    2.40    1.70
   5   1   0    3.30    1.90
   5   1   0    6.10    1.90
  -6  -1   0  326.17   12.50
  -6  -1   0  328.37   12.40
   6   1   0  355.96   12.90
   6   1   0  319.37   12.70
  -7  -1   0    2.30    2.40
  -7  -1   0    2.30    2.40
   7   1   0    6.30    2.50
  -8  -1   0   43.50    4.90
   8   1   0   37.40    4.80
   8  -2   0    3.30    2.90
  -8   2   0    5.60    3.00
   7  -2   0    1.00    2.40
  -7   2   0    0.40    2.20
   6  -2   0   15.20    2.90
   6  -2   0   17.80    2.80
  -6   2   0   19.00    2.90
   5  -2   0   -2.40    1.60
   5  -2   0    0.50    1.50
  -5   2   0    0.50    1.60
   4  -2   0   56.99    3.60
   4  -2   0   54.39    3.30
  -4   2   0   42.80    3.30
   3  -2   0    1.30    1.30
   3  -2   0    0.10    1.10
  -3   2   0   -1.00    1.00
   2  -2   0   23.50    2.10
   2  -2   0   20.70    1.90
  -2   2   0   25.90    1.90
   1  -2   0   76.79    3.50
   1  -2   0   79.29    3.40
  -1   2   0   81.49    3.20
   0  -2   0   55.39    2.60
   0  -2   0   57.09    2.50
   0   2   0   52.09    1.90
   0   2   0   54.79    2.60
  -1  -2   0  530.35   16.90
  -1  -2   0  525.25   16.90
  -1  -2   0  511.15   16.30
   1   2   0  515.45   16.90
  -2  -2   0   51.39    2.90
  -2  -2   0   51.39    2.40
   2   2   0   44.90    2.70
   2   2   0   46.80    2.70
  -3  -2   0  245.88    8.30
  -3  -2   0  232.88    8.70
   3   2   0  232.48    8.60
   3   2   0  230.18    8.60
  -4  -2   0   -0.40    1.10
  -4  -2   0    2.70    1.50
   4   2   0   -0.40    1.30
   4   2   0    0.20    1.30
  -5  -2   0   12.30    2.30
  -5  -2   0   15.20    2.20
   5   2   0   14.40    2.40
   5   2   0   17.00    2.50
  -6  -2   0   26.60    3.10
  -6  -2   0   16.40    2.80
   6   2   0   27.50    3.40
   6   2   0   22.70    3.30
  -7  -2   0    0.90    2.20
  -7  -2   0   -1.40    2.30
   7   2   0   -1.30    2.10
  -8  -2   0   16.40    3.50
   8   2   0   15.10    3.50
   8  -3   0    3.40    3.20
  -8   3   0    0.30    2.70
   7  -3   0    0.30    2.50
  -7   3   0    1.00    2.20
   6  -3   0    1.00    1.80
   6  -3   0   -0.60    2.10
  -6   3   0    2.70    2.00
   5  -3   0    7.50    2.20
   5  -3   0    6.20    1.90
  -5   3   0    5.20    1.90
   4  -3   0   -1.80    1.40
   4  -3   0    1.60    1.40
  -4   3   0   -0.60    1.30
   3  -3   0   38.70    3.10
   3  -3   0   41.00    2.90
  -3   3   0   37.20    2.70
   2  -3   0    3.30    1.40
   2  -3   0    0.60    1.30
  -2   3   0    3.20    1.10
   1  -3   0  174.38    6.00
   1  -3   0  167.88    6.40
  -1   3   0  174.68    6.00
  -1   3   0  173.28    6.50
   0  -3   0    2.10    1.10
   0  -3   0    0.50    1.20
   0   3   0    0.90    0.50
   0   3   0   -1.10    0.90
  -1  -3   0  170.68    6.40
  -1  -3   0  172.88    6.40
   1   3   0  166.08    6.40
  -2  -3   0   70.79    2.80
  -2  -3   0   70.59    3.60
   2   3   0   71.19    3.60
   2   3   0   69.59    3.50
  -3  -3   0  113.89    5.20
  -3  -3   0  114.69    4.40
   3   3   0  109.09    5.00
   3   3   0  111.69    5.00
  -4  -3   0   62.19    3.90
  -4  -3   0   58.39    3.20
   4   3   0   59.49    3.70
   4   3   0   55.59    3.70
  -5  -3   0   81.29    5.00
  -5  -3   0   78.69    4.30
   5   3   0   82.39    4.90
   5   3   0   84.59    4.80
  -6  -3   0    7.40    2.10
  -6  -3   0    4.90    2.30
   6   3   0   13.10    2.80
   6   3   0    9.60    2.70
  -7  -3   0   17.80    3.50
   7   3   0   36.80    4.30
  -8  -3   0   -1.90    3.50
   8   3   0    1.10    2.90
   8  -4   0   -1.50    3.00
  -8   4   0    3.20    3.10
   7  -4   0    4.20    2.70
  -7   4   0    1.70    2.50
   6  -4   0   11.40    2.80
   6  -4   0   13.60    2.80
  -6   4   0    8.10    2.50
   5  -4   0    2.10    2.00
   5  -4   0    0.80    1.90
  -5   4   0   -1.40    1.70
   4  -4   0   57.69    4.10
   4  -4   0   55.29    3.90
  -4   4   0   56.39    3.70
   3  -4   0   -0.60    1.30
   3  -4   0    1.90    1.50
  -3   4   0    0.30    1.20
   2  -4   0   59.09    3.50
  -2   4   0   63.29    3.50
  -2   4   0   56.19    3.00
   1  -4   0   -0.40    1.20
   1  -4   0    2.10    1.00
  -1   4   0   -0.30    0.80
  -1   4   0   -1.10    1.10
   0  -4   0   12.10    1.60
   0  -4   0   12.60    1.80
   0   4   0   11.60    1.70
  -1  -4   0    1.10    1.20
  -1  -4   0    1.00    1.30
   1   4   0   -0.60    1.10
  -2  -4   0    1.50    1.40
  -2  -4   0    0.80    1.30
   2   4   0    0.10    1.10
  -3  -4   0   11.30    1.30
  -3  -4   0   10.70    2.10
   3   4   0    9.60    1.90
   3   4   0   11.20    2.00
  -4  -4   0   20.30    2.90
  -4  -4   0   20.20    2.00
   4   4   0   21.70    2.60
   4   4   0   23.10    2.80
  -5  -4   0   19.30    3.20
   5   4   0   26.60    3.30
   5   4   0   23.50    3.10
  -6  -4   0   40.90    4.50
   6   4   0   46.00    4.50
   6   4   0   43.90    4.40
  -7  -4   0   22.60    3.90
   7   4   0   23.30    3.60
   8  -5   0   -1.40    3.30
  -8   5   0   -1.10    3.10
   7  -5   0    2.40    2.90
  -7   5   0    0.00    2.60
   6  -5   0    5.00    2.50
   6  -5   0    8.10    2.80
  -6   5   0    4.00    2.40
   5  -5   0    2.20    2.00
   5  -5   0    2.20    2.20
  -5   5   0    1.40    1.90
   4  -5   0    2.00    1.90
  -4   5   0    1.50    1.80
  -4   5   0    3.60    1.70
   3  -5   0    1.10    1.50
  -3   5   0   -0.20    1.40
  -3   5   0    2.80    1.30
   2  -5   0   24.80    1.90
   2  -5   0   25.80    2.70
  -2   5   0   23.60    2.10
  -2   5   0   25.30    2.70
   1  -5   0    2.00    1.10
   1  -5   0    0.30    1.40
  -1   5   0    2.70    1.30
  -1   5   0    1.20    0.90
   0  -5   0  186.68    7.30
   0  -5   0  177.68    7.00
   0   5   0  184.98    7.40
  -1  -5   0    3.40    1.50
  -1  -5   0    1.40    1.40
   1   5   0   -0.70    1.20
  -2  -5   0  128.69    6.10
  -2  -5   0  142.09    6.10
   2   5   0  141.39    6.20
  -3  -5   0    0.50    1.70
   3   5   0    0.20    1.50
   3   5   0   -0.10    1.50
  -4  -5   0   27.50    3.40
   4   5   0   33.10    3.30
   4   5   0   25.80    3.20
  -5  -5   0   -0.90    2.00
   5   5   0    3.50    2.20
   5   5   0    0.80    1.90
  -6  -5   0    4.40    2.90
   6   5   0    7.80    2.90
  -7  -5   0    0.60    2.90
   7   5   0    0.30    2.70
   7  -6   0    2.00    3.00
  -7   6   0    1.00    2.80
  -7   6   0    2.00    2.70
   6  -6   0   -1.30    2.40
  -6   6   0   -0.90    2.30
  -6   6   0    2.20    2.40
   5  -6   0    4.70    2.40
  -5   6   0    2.60    2.10
  -5   6   0    0.60    1.90
   4  -6   0    1.00    2.10
  -4   6   0    0.00    1.60
  -4   6   0    1.10    1.90
   3  -6   0    0.50    1.90
  -3   6   0    1.60    1.40
  -3   6   0    2.30    1.80
   2  -6   0    0.70    1.70
   2  -6   0   -0.30    1.10
  -2   6   0    1.80    1.70
  -2   6   0   -0.30    1.10
   1  -6   0    0.50    1.20
   1  -6   0   -0.30    1.50
  -1   6   0   -0.20    0.90
  -1   6   0    0.80    1.50
   0  -6   0    3.60    1.60
   0  -6   0    4.10    1.50
   0   6   0    3.40    1.60
  -1  -6   0    7.50    2.00
  -1  -6   0   10.60    2.10
   1   6   0    9.50    2.10
  -2  -6   0   -0.20    1.60
  -2  -6   0    0.00    1.70
   2   6   0    1.30    1.60
  -3  -6   0   26.50    3.40
   3   6   0   32.70    3.50
   3   6   0   36.20    3.50
  -4  -6   0   -1.20    2.10
   4   6   0    1.60    2.20
   4   6   0   -0.10    1.80
  -5  -6   0   19.90    3.60
   5   6   0   24.50    3.70
   5   6   0   28.20    3.70
  -6  -6   0    5.30    3.00
   6   6   0   -1.90    2.90
   7  -7   0    1.40    3.10
  -7   7   0   -1.20    2.90
  -7   7   0    0.30    3.00
   6  -7   0    3.50    3.40
  -6   7   0   -1.60    2.50
  -6   7   0    3.20    2.70
   5  -7   0    7.40    2.90
  -5   7   0    4.70    2.40
  -5   7   0    4.00    2.60
   4  -7   0    0.70    2.30
  -4   7   0   -1.30    1.80
  -4   7   0   -1.80    2.00
   3  -7   0   89.19    5.40
  -3   7   0   68.59    4.30
  -3   7   0   72.99    5.10
   2  -7   0    2.00    2.00
   2  -7   0    0.40    1.30
  -2   7   0    1.60    1.30
  -2   7   0   -0.80    1.60
   1  -7   0  111.69    5.20
   1  -7   0  120.29    6.00
  -1   7   0  109.89    5.20
  -1   7   0  110.59    6.00
   0  -7   0   -0.20    1.80
   0  -7   0    3.00    1.70
   0   7   0    0.10    1.70
  -1  -7   0   36.00    3.50
  -1  -7   0   31.80    3.50
   1   7   0   29.20    3.50
  -2  -7   0    0.10    2.00
  -2  -7   0    0.60    2.00
   2   7   0    1.30    2.00
  -3  -7   0   -2.40    2.00
   3   7   0    2.30    2.10
   3   7   0   -0.30    2.00
  -4  -7   0   -0.60    2.40
   4   7   0    3.30    2.60
   4   7   0    0.70    2.20
  -5  -7   0    0.30    2.70
   5   7   0   -0.30    2.50
   5   7   0    1.20    2.60
  -6  -7   0   -1.00    3.00
   6   7   0   -0.90    2.80
   6  -8   0    8.50    3.60
  -6   8   0    3.40    2.90
  -6   8   0    0.90    3.00
   5  -8   0    2.60    3.00
  -5   8   0   -1.10    2.20
  -5   8   0    0.00    2.80
   4  -8   0   20.30    3.80
  -4   8   0   14.50    3.40
  -4   8   0   15.90    2.80
   3  -8   0    5.90    2.80
  -3   8   0    1.40    1.80
  -3   8   0   -2.80    1.80
   2  -8   0   -1.10    1.40
   2  -8   0    2.50    2.40
  -2   8   0    6.50    2.40
   1  -8   0   -0.80    1.50
   1  -8   0   -1.50    2.10
  -1   8   0    0.00    1.80
   0  -8   0    8.10    2.30
   0  -8   0   13.00    2.90
   0   8   0   12.80    2.90
  -1  -8   0    8.30    2.50
  -1  -8   0    3.80    2.30
   1   8   0    9.80    2.70
  -2  -8   0   23.20    3.50
  -2  -8   0   24.10    3.60
   2   8   0   19.30    3.50
  -3  -8   0   12.30    3.30
   3   8   0    9.50    3.10
  -4  -8   0    2.80    2.80
   4   8   0   -0.10    2.80
   4   8   0    5.30    2.80
  -5  -8   0    3.10    3.40
   5   8   0    5.50    3.00
   5   8   0    3.80    3.10
   5  -9   0    1.00    3.40
  -5   9   0    4.60    3.40
  -5   9   0    0.90    2.80
   4  -9   0   16.90    4.00
  -4   9   0   11.90    3.40
   3  -9   0    8.90    3.60
  -3   9   0    1.80    2.50
   2  -9   0    0.70    2.70
  -2   9   0    1.10    2.20
   1  -9   0    1.10    1.90
   1  -9   0    7.30    2.90
  -1   9   0    5.20    2.70
   0  -9   0   20.00    3.30
   0  -9   0   25.80    3.90
   0   9   0   18.30    3.50
  -1  -9   0    1.70    2.80
  -1  -9   0   -1.40    2.50
   1   9   0   -1.30    2.40
  -2  -9   0    8.60    3.30
  -2  -9   0    7.10    3.20
   2   9   0    6.70    3.10
  -3  -9   0   -0.40    2.90
   3   9   0    3.50    3.20
  -4  -9   0   -2.90    3.00
   4   9   0    0.40    3.00
   4   9   0   -0.10    2.90
   4 -10   0    1.20    3.70
  -4  10   0    1.90    3.00
   3 -10   0    0.80    3.40
  -3  10   0    2.40    2.80
   2 -10   0    8.20    3.80
  -2  10   0    5.00    2.80
   1 -10   0    0.90    3.20
   1 -10   0   -0.40    2.30
  -1  10   0    3.20    2.80
   0 -10   0    7.40    3.50
   0 -10   0    3.00    2.60
   0  10   0    2.80    2.80
  -1 -10   0    6.60    3.50
  -1 -10   0    3.20    3.20
   1  10   0    1.40    2.90
  -2 -10   0    2.20    3.30
  -2 -10   0    0.40    3.30
   2  10   0    2.30    3.10
  -3 -10   0    8.00    3.90
   3  10   0    6.00    3.70
   3 -11   0    2.20    3.90
  -3  11   0    3.80    3.30
   2 -11   0   -0.50    3.90
   1 -11   0   -0.60    3.80
  -1  11   0    3.80    3.50
   0 -11   0   -2.80    2.70
   0 -11   0    5.40    4.20
   0  11   0    4.20    3.50
  -1 -11   0   -0.90    3.30
  -1 -11   0   -0.30    3.80
   1  11   0    1.40    3.40
  -2 -11   0    1.20    4.00
  -2 -11   0    2.30    3.70
   2  11   0    3.40    3.60
   2  11  -1   -1.50    3.10
  -2 -11   1   -5.30    3.60
  -2 -11   1    0.90    3.70
   1  11  -1   -2.20    3.10
  -1 -11   1    2.70    3.50
  -1 -11   1   -1.00    3.80
   0  11  -1    4.70    3.50
   0 -11   1    9.50    4.00
   0 -11   1    0.00    3.00
  -1  11  -1   -1.20    3.00
   1 -11   1   -2.30    3.60
  -2  11  -1    3.50    3.30
   2 -11   1   -2.40    3.50
  -3  11  -1    1.90    3.30
   3 -11   1    0.20    3.90
   4  10  -1    9.00    4.00
   4  10  -1    5.20    3.50
  -4 -10   1    4.70    3.90
   3  10  -1    9.00    3.50
  -3 -10   1   10.20    3.90
   2  10  -1    6.30    3.40
  -2 -10   1    7.10    3.50
  -2 -10   1    9.60    3.60
   1  10  -1   13.80    3.70
  -1 -10   1   12.70    3.60
  -1 -10   1   14.90    3.80
   0  10  -1    0.90    2.70
   0 -10   1   -2.40    2.30
   0 -10   1   -0.60    3.00
  -1  10  -1    3.70    2.70
   1 -10   1    1.30    2.20
   1 -10   1    5.50    3.40
  -2  10  -1    7.90    3.20
   2 -10   1   11.40    3.80
  -3  10  -1    2.60    2.70
   3 -10   1    0.90    3.40
  -4  10  -1   10.20    3.90
   4 -10   1   12.50    4.30
  -5  10  -1   -1.80    3.40
   5 -10   1   -3.10    3.60
   5   9  -1    4.80    3.20
   5   9  -1    7.00    3.80
  -5  -9   1    4.00    3.90
   4   9  -1   22.30    4.50
   4   9  -1   25.90    4.10
  -4  -9   1   17.70    4.00
   3   9  -1    4.90    3.10
  -3  -9   1    4.00    3.10
   2   9  -1    3.30    2.80
  -2  -9   1    0.60    2.70
  -2  -9   1    1.90    2.90
   1   9  -1    4.80    2.90
  -1  -9   1    3.70    2.80
  -1  -9   1    2.40    2.50
   0   9  -1   21.80    3.60
   0  -9   1   22.10    3.60
   0  -9   1   22.10    3.30
  -1   9  -1    7.10    2.80
   1  -9   1    7.20    2.90
   1  -9   1    3.20    2.10
  -2   9  -1   31.20    4.00
   2  -9   1   27.20    4.10
  -3   9  -1   12.10    3.10
   3  -9   1   10.60    3.50
  -4   9  -1    0.60    2.70
  -4   9  -1    1.30    2.50
   4  -9   1    0.90    3.00
  -5   9  -1   14.40    3.80
  -5   9  -1   12.80    3.30
   5  -9   1    9.40    4.10
  -6   9  -1    2.60    3.30
  -6   9  -1    5.60    3.50
   6  -9   1    7.40    4.00
   5   8  -1    0.50    2.60
   5   8  -1    4.80    3.20
  -5  -8   1    3.00    3.30
   4   8  -1    0.90    2.80
   4   8  -1    4.70    2.50
  -4  -8   1    4.70    3.10
   3   8  -1    8.20    2.90
  -3  -8   1    5.70    2.90
   2   8  -1   52.89    5.00
  -2  -8   1   47.40    4.50
  -2  -8   1   43.30    4.50
   1   8  -1   37.00    4.10
  -1  -8   1   40.60    4.10
  -1  -8   1   40.70    4.10
   0   8  -1   94.09    5.80
   0  -8   1   99.69    5.40
   0  -8   1   85.49    5.70
  -1   8  -1   23.30    3.30
   1  -8   1   23.10    2.90
   1  -8   1   33.20    3.90
  -2   8  -1   30.00    3.30
  -2   8  -1   33.70    3.90
   2  -8   1   36.30    4.10
  -3   8  -1    4.70    2.00
  -3   8  -1    3.00    2.30
   3  -8   1    0.60    2.40
  -4   8  -1    3.10    2.20
  -4   8  -1   -1.30    2.30
   4  -8   1    2.30    2.70
  -5   8  -1    3.60    2.80
  -5   8  -1    3.10    2.60
   5  -8   1    4.50    3.10
  -6   8  -1    1.90    2.90
  -6   8  -1   -2.40    2.90
   6  -8   1    1.00    3.30
   6   7  -1    0.50    3.00
   6   7  -1    2.40    2.70
  -6  -7   1    5.40    3.30
   5   7  -1    9.70    3.10
   5   7  -1   12.10    3.00
  -5  -7   1    7.00    2.90
   4   7  -1   14.00    3.30
   4   7  -1    8.60    2.50
  -4  -7   1    9.00    3.00
   3   7  -1   51.49    4.30
   3   7  -1   47.50    4.60
  -3  -7   1   52.19    4.60
   2   7  -1   26.10    3.40
  -2  -7   1   27.50    3.30
  -2  -7   1   25.00    3.30
   1   7  -1   47.80    4.40
  -1  -7   1   43.60    3.80
  -1  -7   1   43.60    3.90
   0   7  -1   67.09    4.50
   0  -7   1   67.79    4.30
   0  -7   1   72.79    4.50
  -1   7  -1    0.20    1.60
  -1   7  -1    0.40    1.00
   1  -7   1    0.40    1.60
   1  -7   1   -1.10    1.60
  -2   7  -1   67.79    3.80
  -2   7  -1   75.99    4.80
   2  -7   1   74.39    4.90
   2  -7   1   68.39    3.80
  -3   7  -1   27.00    3.40
  -3   7  -1   31.70    3.00
   3  -7   1   34.30    3.70
  -4   7  -1   33.60    3.40
  -4   7  -1   29.10    3.70
   4  -7   1   27.60    3.80
  -5   7  -1   27.60    3.80
  -5   7  -1   17.20    3.10
   5  -7   1   23.40    3.80
  -6   7  -1    1.40    2.60
  -6   7  -1    1.80    2.50
   6  -7   1    1.90    2.90
  -7   7  -1    4.70    3.20
   7  -7   1    3.50    3.20
   7   6  -1    5.50    3.20
  -7  -6   1    4.70    3.30
   6   6  -1    0.10    2.40
   6   6  -1    5.00    2.90
  -6  -6   1    2.70    2.90
   5   6  -1   -0.20    1.90
   5   6  -1   -0.70    2.20
  -5  -6   1    2.90    2.60
   4   6  -1    1.60    1.80
   4   6  -1    2.70    2.10
  -4  -6   1   -0.80    2.10
   3   6  -1    2.00    1.80
   3   6  -1    1.20    1.60
  -3  -6   1    3.90    2.10
   2   6  -1    1.60    1.70
  -2  -6   1   -0.40    1.70
  -2  -6   1   -1.10    1.50
   1   6  -1    1.60    1.60
  -1  -6   1    1.40    1.60
  -1  -6   1    0.60    1.40
   0   6  -1    3.40    1.70
   0  -6   1    7.70    1.80
   0  -6   1    7.80    1.90
  -1   6  -1    6.20    1.80
  -1   6  -1    6.00    1.20
   1  -6   1    4.90    1.90
   1  -6   1    7.50    1.60
  -2   6  -1   16.80    2.40
  -2   6  -1   22.60    2.10
   2  -6   1   18.80    2.70
   2  -6   1   17.50    1.90
  -3   6  -1    2.70    1.50
  -3   6  -1    2.20    1.80
   3  -6   1    6.00    2.00
  -4   6  -1    8.80    2.50
  -4   6  -1    8.50    2.10
   4  -6   1    6.30    2.50
  -5   6  -1    2.30    2.10
  -5   6  -1    1.60    2.10
   5  -6   1    0.70    2.20
  -6   6  -1    0.30    2.20
  -6   6  -1    1.10    2.30
   6  -6   1   -1.50    2.30
  -7   6  -1    5.00    3.00
   7  -6   1    5.70    3.20
   7   5  -1    1.30    2.60
  -7  -5   1    4.60    2.90
   6   5  -1    9.30    2.70
   6   5  -1    2.10    2.60
  -6  -5   1    2.70    2.70
   5   5  -1    1.40    1.80
   5   5  -1   -0.90    1.90
  -5  -5   1   -1.00    2.00
   4   5  -1   10.00    2.20
   4   5  -1   17.20    2.70
  -4  -5   1   13.40    2.80
   3   5  -1   -0.30    1.40
   3   5  -1    1.20    1.50
  -3  -5   1    0.00    0.70
  -3  -5   1   -0.40    1.60
   2   5  -1   -1.10    1.30
  -2  -5   1   -0.10    1.50
  -2  -5   1   -0.20    1.30
   1   5  -1    3.90    1.60
  -1  -5   1    3.70    1.50
  -1  -5   1    1.00    1.40
   0   5  -1   52.99    3.40
   0   5  -1   51.39    2.30
   0  -5   1   50.69    3.30
   0  -5   1   54.09    3.20
  -1   5  -1    2.50    1.40
  -1   5  -1    0.80    0.90
   1  -5   1    0.10    1.30
   1  -5   1    1.00    1.20
  -2   5  -1   64.29    3.20
  -2   5  -1   58.59    3.60
   2  -5   1   58.19    2.90
   2  -5   1   56.19    3.70
  -3   5  -1    0.60    1.40
  -3   5  -1    3.10    1.40
   3  -5   1    2.30    1.60
  -4   5  -1    3.20    1.70
  -4   5  -1    0.00    1.60
   4  -5   1    7.50    2.30
  -5   5  -1    2.70    1.90
  -5   5  -1    1.30    1.80
   5  -5   1    0.90    1.90
  -6   5  -1    0.70    2.20
   6  -5   1    0.80    2.20
  -7   5  -1   -0.20    2.50
   7  -5   1    1.10    2.60
  -8   5  -1    4.90    3.30
   8  -5   1    3.70    3.40
   7   4  -1    3.50    2.60
  -7  -4   1    3.70    2.70
   6   4  -1    3.00    2.30
   6   4  -1    1.30    2.30
  -6  -4   1    2.50    2.40
  -6  -4   1    1.10    1.90
   5   4  -1   10.30    2.50
   5   4  -1    8.80    2.20
  -5  -4   1   10.70    2.40
   4   4  -1    1.80    1.50
   4   4  -1    0.40    1.50
  -4  -4   1    3.20    1.30
  -4  -4   1    4.80    2.00
   3   4  -1   19.00    2.10
   3   4  -1   12.60    2.10
  -3  -4   1   16.60    1.60
  -3  -4   1   16.30    2.40
   2   4  -1    7.90    1.70
  -2  -4   1    7.60    0.90
  -2  -4   1    8.80    1.80
  -2  -4   1    5.90    1.50
   1   4  -1   21.00    2.20
  -1  -4   1   22.50    2.20
  -1  -4   1   24.20    2.10
   0   4  -1   49.90    2.90
   0   4  -1   44.00    2.00
   0  -4   1   44.10    2.80
   0  -4   1   43.60    2.80
  -1   4  -1    2.30    1.20
  -1   4  -1    4.10    1.00
   1  -4   1    1.60    1.20
   1  -4   1    6.20    1.30
  -2   4  -1   15.80    2.00
  -2   4  -1   11.60    1.50
   2  -4   1   15.60    1.50
   2  -4   1   13.10    1.90
  -3   4  -1    0.50    1.30
  -3   4  -1    1.00    1.20
   3  -4   1    2.30    1.50
  -4   4  -1   -0.30    1.30
   4  -4   1    0.00    1.60
   4  -4   1   -0.20    1.40
  -5   4  -1    3.20    1.90
   5  -4   1   10.50    2.20
   5  -4   1   10.80    2.40
  -6   4  -1    3.50    2.20
   6  -4   1    1.90    2.30
   6  -4   1    0.90    2.00
  -7   4  -1    6.00    2.80
   7  -4   1    1.60    2.60
  -8   4  -1    1.90    2.80
   8  -4   1    0.50    3.10
   8   3  -1    1.30    2.70
  -8  -3   1   -1.60    2.60
   7   3  -1    1.70    2.40
  -7  -3   1   -0.40    2.00
  -7  -3   1    4.60    2.60
   6   3  -1    2.90    2.30
   6   3  -1    0.20    1.90
  -6  -3   1   -0.50    1.70
  -6  -3   1    2.30    2.10
   5   3  -1   27.00    3.20
   5   3  -1   36.40    3.40
  -5  -3   1   26.60    3.20
  -5  -3   1   31.80    2.90
   4   3  -1   -0.90    1.30
   4   3  -1   -0.10    1.40
  -4  -3   1   -0.60    1.10
  -4  -3   1    0.60    1.50
   3   3  -1   45.20    3.00
   3   3  -1   44.10    2.80
  -3  -3   1   43.90    3.00
  -3  -3   1   40.80    2.40
   2   3  -1   14.90    1.80
   2   3  -1   16.90    1.80
  -2  -3   1   14.80    1.20
  -2  -3   1   17.80    2.00
   1   3  -1    5.60    1.30
  -1  -3   1    5.70    0.70
  -1  -3   1    5.70    1.30
  -1  -3   1    7.10    1.30
   0   3  -1   17.50    1.20
   0   3  -1   14.90    1.60
   0  -3   1   15.70    1.70
   0  -3   1   14.10    1.60
  -1   3  -1   10.80    1.50
  -1   3  -1   11.20    1.30
   1  -3   1    8.10    1.40
   1  -3   1   11.00    1.30
  -2   3  -1    3.80    1.20
  -2   3  -1    4.60    1.20
   2  -3   1    4.90    1.00
   2  -3   1    3.70    1.40
  -3   3  -1   33.90    2.60
   3  -3   1   35.30    2.60
   3  -3   1   35.60    2.90
  -4   3  -1    2.60    1.50
   4  -3   1    4.10    1.70
   4  -3   1    3.00    1.40
  -5   3  -1   10.30    2.20
   5  -3   1   14.50    2.30
   5  -3   1   12.90    2.50
  -6   3  -1    3.30    2.00
   6  -3   1    2.40    2.00
   6  -3   1    5.40    2.30
  -7   3  -1   -1.10    2.10
   7  -3   1   -1.50    2.30
  -8   3  -1    3.10    2.90
   8  -3   1    1.80    3.00
   8   2  -1    4.60    3.00
  -8  -2   1    6.00    3.00
   7   2  -1   -2.00    2.00
  -7  -2   1   -0.20    2.10
  -7  -2   1    0.10    2.10
   6   2  -1   22.20    3.10
   6   2  -1   35.90    3.90
  -6  -2   1   28.10    3.10
  -6  -2   1   24.00    3.10
   5   2  -1    1.50    1.90
   5   2  -1    2.00    1.70
  -5  -2   1    1.20    1.70
  -5  -2   1    3.90    1.70
   4   2  -1   15.00    2.00
   4   2  -1   12.20    2.00
  -4  -2   1   14.40    1.90
  -4  -2   1   11.30    2.00
   3   2  -1  131.39    5.50
   3   2  -1  126.49    5.30
  -3  -2   1  131.89    5.10
  -3  -2   1  137.09    5.50
   2   2  -1   28.80    2.00
   2   2  -1   23.70    2.10
  -2  -2   1   24.90    2.10
  -2  -2   1   23.80    1.70
   1   2  -1  925.81   30.60
  -1  -2   1  966.50   30.20
  -1  -2   1  989.10   30.60
  -1  -2   1  978.70   30.50
   0   2  -1  133.19    5.10
   0   2  -1  143.59    4.80
   0  -2   1  148.79    5.10
   0  -2   1  152.38    5.20
  -1   2  -1  664.63   21.10
  -1   2  -1  644.34   21.00
   1  -2   1  676.23   21.20
   1  -2   1  663.23   21.00
  -2   2  -1   39.40    2.40
   2  -2   1   33.30    2.60
   2  -2   1   35.90    2.20
  -3   2  -1   26.40    2.00
  -3   2  -1   26.70    2.20
   3  -2   1   25.60    2.40
   3  -2   1   25.20    2.00
  -4   2  -1   -1.40    1.10
  -4   2  -1   -0.90    1.30
   4  -2   1    0.40    1.20
   4  -2   1    2.50    1.60
  -5   2  -1    0.30    1.40
  -5   2  -1   -0.40    1.40
   5  -2   1    2.10    1.50
   5  -2   1   -1.30    1.50
  -6   2  -1   -0.90    1.70
   6  -2   1   -0.80    1.90
   6  -2   1    1.60    2.10
  -7   2  -1   -1.80    2.10
   7  -2   1    1.50    2.50
  -8   2  -1   -1.80    2.50
   8  -2   1    0.40    2.90
   8   1  -1   33.70    4.40
  -8  -1   1   43.60    4.70
   7   1  -1   32.30    3.90
  -7  -1   1   40.70    4.10
   6   1  -1   30.90    3.70
   6   1  -1   22.50    3.10
  -6  -1   1   27.90    3.00
   5   1  -1   67.69    4.30
   5   1  -1   52.19    3.80
  -5  -1   1   53.49    3.70
  -5  -1   1   54.99    3.90
   3   1  -1   10.70    1.80
   3   1  -1   10.30    1.60
  -3  -1   1   10.00    1.50
  -3  -1   1    9.90    1.60
   2   1  -1  252.57    8.90
   2   1  -1  248.58    8.70
  -2  -1   1  255.67    8.60
  -2  -1   1  250.47    8.50
   1   1  -1   21.80    1.50
   1   1  -1   26.80    1.70
  -1  -1   1   30.50    1.70
  -1  -1   1   23.80    1.50
   0   1  -1   13.30    0.90
   0   1  -1   11.50    0.90
   0  -1   1   12.20    0.80
   0  -1   1   14.50    1.10
  -1   1  -1   17.00    1.30
  -1   1  -1   21.70    1.40
   1  -1   1   15.30    1.20
   1  -1   1   15.70    1.40
  -2   1  -1  510.25   16.70
  -2   1  -1  518.95   16.90
   2  -1   1  522.15   16.70
   2  -1   1  525.45   17.00
  -3   1  -1   -0.20    1.10
  -3   1  -1   -0.10    1.10
   3  -1   1    1.10    1.30
   3  -1   1    0.10    1.00
  -4   1  -1  157.78    6.10
  -4   1  -1  151.48    6.40
   4  -1   1  145.09    6.10
   4  -1   1  161.68    6.60
  -5   1  -1    4.30    1.70
  -5   1  -1    0.50    1.60
   5  -1   1    1.90    1.50
   5  -1   1    3.40    1.70
  -6   1  -1    5.20    2.30
  -6   1  -1    5.40    2.20
   6  -1   1    7.70    2.30
  -7   1  -1   -0.60    2.10
   7  -1   1   -0.60    2.20
  -8   1  -1    2.30    2.70
   8  -1   1   -0.40    2.70
   8   0  -1   26.30    4.10
  -8   0   1   27.80    4.00
   7   0  -1    0.70    2.30
  -7   0   1    1.20    2.10
   6   0  -1  309.57   12.70
   6   0  -1  318.37   12.40
  -6   0   1  340.47   11.80
  -6   0   1  317.57   12.40
   5   0  -1    1.10    1.80
   5   0  -1    0.20    1.50
  -5   0   1   -1.00    1.40
  -5   0   1   -0.70    1.40
   4   0  -1 1202.38   38.80
   4   0  -1 1201.18   38.50
  -4   0   1 1168.08   38.50
  -4   0   1 1212.58   38.10
   3   0  -1   27.30    2.70
   3   0  -1   31.70    2.50
  -3   0   1   39.70    2.20
  -3   0   1   30.50    2.40
   2   0  -1 1760.92   57.29
   2   0  -1 1775.62   56.99
  -2   0   1 1885.91   56.99
  -2   0   1 1847.72   56.69
   1   0  -1  287.37    9.90
   1   0  -1  300.97   10.20
  -1   0   1  321.67    9.70
  -1   0   1  312.07    9.90
   0   0  -1    8.00    0.60
   0   0  -1    8.70    0.60
   0   0  -1    8.40    0.70
   0   0  -1    8.00    0.60
  -1   0  -1  172.38    5.90
  -1   0  -1  179.98    5.80
   1   0   1  175.68    6.10
   1   0   1  166.58    5.70
  -2   0  -1  327.97   10.70
  -2   0  -1  320.67   10.80
   2   0   1  323.07   11.00
   2   0   1  315.87   10.70
  -3   0  -1   16.00    1.80
  -3   0  -1   17.30    1.80
   3   0   1   18.10    1.80
   3   0   1   16.30    2.10
  -4   0  -1   24.30    2.30
  -5   0  -1   -0.20    1.40
  -5   0  -1   -2.10    1.40
   5   0   1    1.80    1.70
   5   0   1   -1.70    1.40
  -6   0  -1    7.80    2.40
  -6   0  -1    4.40    2.30
   6   0   1   11.90    2.60
  -7   0  -1    1.00    2.30
   7   0   1   -0.60    2.10
  -8   0  -1    8.40    3.30
   8   0   1    9.20    3.20
   8  -1  -1    1.90    3.00
  -8   1   1   -0.10    2.70
   7  -1  -1    0.50    2.30
   7  -1  -1    1.70    2.40
  -7   1   1    0.60    2.10
   6  -1  -1    8.60    2.70
   6  -1  -1   16.20    2.90
   5  -1  -1    6.10    2.00
   5  -1  -1    6.40    1.90
  -5   1   1    4.20    1.80
  -5   1   1    6.50    1.50
   4  -1  -1    1.90    1.60
   4  -1  -1    1.60    1.60
   3  -1  -1  147.79    6.10
   3  -1  -1  155.18    6.10
  -3   1   1  151.08    5.90
   2  -1  -1  202.98    7.60
   2  -1  -1  206.38    7.50
  -2   1   1  215.88    7.30
   1  -1  -1  524.15   17.10
   1  -1  -1  524.65   17.00
  -1   1   1  541.45   16.90
   0  -1  -1  610.34   18.90
   0  -1  -1  609.04   19.10
   0  -1  -1  609.84   19.00
   0   1   1  576.84   19.00
  -1  -1  -1  101.09    3.90
  -1  -1  -1   94.09    3.40
   1   1   1   97.99    3.50
   1   1   1   95.39    3.90
  -2  -1  -1   59.69    2.90
  -2  -1  -1   55.19    2.50
   2   1   1   50.59    3.00
   2   1   1   48.80    2.50
  -3  -1  -1   23.20    2.10
  -3  -1  -1   23.20    1.90
   3   1   1   27.10    2.50
   3   1   1   24.40    2.00
  -4  -1  -1   15.10    2.10
  -4  -1  -1   19.30    2.10
   4   1   1   17.60    2.10
   4   1   1   19.50    2.40
  -5  -1  -1   55.09    3.90
  -5  -1  -1   60.29    3.90
   5   1   1   60.99    3.90
   5   1   1   61.79    4.20
  -6  -1  -1   17.90    2.80
  -6  -1  -1   18.80    3.00
   6   1   1   21.80    3.10
  -7  -1  -1   24.90    3.60
  -7  -1  -1   24.20    3.40
   7   1   1   26.70    3.80
  -8  -1  -1   -1.00    2.70
   8   1   1    1.10    2.60
   8  -2  -1    5.90    3.00
  -8   2   1    2.30    2.80
   7  -2  -1    0.70    2.40
   7  -2  -1    1.00    2.40
  -7   2   1   -1.20    2.10
   6  -2  -1   47.80    4.10
   6  -2  -1   39.00    4.00
  -6   2   1   46.50    4.00
   5  -2  -1    0.30    1.70
   5  -2  -1    1.60    1.70
  -5   2   1    2.10    1.70
   4  -2  -1  263.07    9.70
   4  -2  -1  262.67    9.70
  -4   2   1  239.78    9.40
   3  -2  -1    2.10    1.20
   3  -2  -1    0.80    1.30
  -3   2   1   -0.20    1.10
   2  -2  -1  732.23   23.50
   2  -2  -1  718.63   23.60
  -2   2   1  725.43   23.40
   1  -2  -1    0.00    1.00
   1  -2  -1    0.20    1.10
  -1   2   1    1.10    0.80
   0  -2  -1  449.16   14.20
   0  -2  -1  447.26   14.30
   0   2   1  425.26   13.80
   0   2   1  430.26   14.30
  -1  -2  -1  119.89    4.20
  -1  -2  -1  121.69    4.90
  -1  -2  -1  130.59    4.90
   1   2   1  130.59    4.70
  -2  -2  -1   70.39    3.50
  -2  -2  -1   69.49    2.80
   2   2   1   69.39    3.50
   2   2   1   69.39    3.20
  -3  -2  -1  191.18    7.40
  -3  -2  -1  198.18    7.00
   3   2   1  193.68    7.20
   3   2   1  188.68    7.50
  -4  -2  -1   19.20    2.40
  -4  -2  -1   29.00    2.40
   4   2   1   28.60    2.90
   4   2   1   28.00    2.60
  -5  -2  -1   69.69    4.00
  -5  -2  -1   57.19    4.20
   5   2   1   66.29    4.40
   5   2   1   67.89    4.20
  -6  -2  -1   17.00    2.60
  -6  -2  -1   11.70    2.70
  -7  -2  -1    6.00    2.80
  -7  -2  -1    9.10    2.60
   7   2   1    5.00    2.60
  -8  -2  -1    2.90    2.80
   8   2   1    6.90    3.40
   8  -3  -1    2.20    3.10
  -8   3   1    1.30    2.80
   7  -3  -1    3.10    2.60
   7  -3  -1   -0.80    2.20
  -7   3   1    0.70    2.30
   6  -3  -1    6.30    2.40
   6  -3  -1   12.80    2.80
  -6   3   1    7.50    2.50
   5  -3  -1   -0.60    1.60
   5  -3  -1    0.00    1.70
  -5   3   1    1.60    1.70
   4  -3  -1  110.29    5.40
   4  -3  -1  104.59    5.20
  -4   3   1  103.39    5.00
   3  -3  -1    0.10    1.30
   3  -3  -1    1.10    1.30
  -3   3   1    0.00    1.10
   2  -3  -1  539.85   17.70
   2  -3  -1  513.15   17.50
  -2   3   1  522.05   17.20
   1  -3  -1   -0.60    1.00
   1  -3  -1    1.60    0.90
  -1   3   1    1.90    1.10
  -1   3   1    0.50    0.80
   0  -3  -1  765.62   24.60
   0  -3  -1  767.42   24.40
   0   3   1  753.52   23.90
   0   3   1  762.12   24.70
  -1  -3  -1   11.20    1.60
  -1  -3  -1   12.50    1.70
   1   3   1   12.60    1.60
  -2  -3  -1  268.47    8.80
  -2  -3  -1  269.67    9.70
   2   3   1  272.27    9.70
   2   3   1  268.67    9.60
  -3  -3  -1   13.30    1.40
  -3  -3  -1   15.80    2.20
   3   3   1   15.70    2.10
   3   3   1   15.80    2.00
  -4  -3  -1   39.20    3.40
  -4  -3  -1   40.70    2.80
   4   3   1   42.20    3.10
   4   3   1   43.30    3.40
  -5  -3  -1   20.60    2.90
  -5  -3  -1   26.50    2.60
   5   3   1   28.00    3.10
   5   3   1   26.60    3.10
  -6  -3  -1   15.80    2.90
   6   3   1   14.00    2.80
  -7  -3  -1   16.90    3.60
   7   3   1   16.30    3.40
   8  -4  -1   13.00    3.70
  -8   4   1   14.10    3.90
   7  -4  -1    0.90    2.60
   7  -4  -1    0.80    2.60
  -7   4   1    4.30    2.70
   6  -4  -1   15.40    3.00
   6  -4  -1   16.30    3.00
  -6   4   1   19.30    3.10
   5  -4  -1   11.50    2.60
   5  -4  -1   15.20    2.70
  -5   4   1   12.00    2.50
   4  -4  -1   10.80    2.30
   4  -4  -1   12.90    2.40
  -4   4   1    8.80    2.00
   3  -4  -1   45.30    3.30
   3  -4  -1   44.60    3.50
  -3   4   1   41.70    2.90
   2  -4  -1   29.80    2.60
  -2   4   1   30.50    2.20
  -2   4   1   30.00    2.70
   1  -4  -1   23.30    2.30
   1  -4  -1   24.40    1.90
  -1   4   1   27.60    2.50
  -1   4   1   23.20    1.70
   0  -4  -1  245.58    8.80
   0  -4  -1  248.38    9.20
   0   4   1  258.87    9.20
  -1  -4  -1    2.20    1.30
  -1  -4  -1    2.70    1.40
   1   4   1    1.10    1.20
  -2  -4  -1  340.87   12.50
  -2  -4  -1  362.06   12.60
   2   4   1  357.06   12.60
  -3  -4  -1    4.00    1.60
  -3  -4  -1    7.90    1.10
   3   4   1    3.50    1.70
   3   4   1    5.00    1.60
  -4  -4  -1  144.89    7.00
   4   4   1  157.38    6.80
   4   4   1  159.38    7.00
  -5  -4  -1    0.80    1.50
  -5  -4  -1    2.00    2.20
   5   4   1    0.70    1.90
   5   4   1   -0.10    1.80
  -6  -4  -1   29.70    4.00
   6   4   1   20.60    3.50
  -7  -4  -1   -0.30    2.60
   7   4   1    1.10    2.80
   7  -5  -1    2.30    2.80
   7  -5  -1    0.10    2.60
  -7   5   1    0.20    2.70
   6  -5  -1   10.80    2.90
   6  -5  -1    8.60    2.80
  -6   5   1    8.30    2.70
   5  -5  -1    0.10    2.10
   5  -5  -1    1.80    2.20
  -5   5   1    0.90    2.00
   4  -5  -1   55.39    4.50
   4  -5  -1   52.29    4.20
  -4   5   1   60.19    3.90
   3  -5  -1    9.40    2.10
  -3   5   1   11.40    1.80
  -3   5   1   12.00    2.20
   2  -5  -1  108.29    5.30
  -2   5   1  108.69    5.20
  -2   5   1  100.69    4.50
   1  -5  -1   87.69    3.90
   1  -5  -1   86.49    4.50
  -1   5   1   86.09    4.50
  -1   5   1   86.29    3.60
   0  -5  -1   33.90    2.70
   0  -5  -1   33.50    3.00
   0   5   1   37.50    3.20
  -1  -5  -1  109.29    5.40
  -1  -5  -1  128.69    5.70
   1   5   1  132.69    5.80
  -2  -5  -1    0.40    1.50
  -2  -5  -1   -0.30    1.40
   2   5   1    0.10    1.40
  -3  -5  -1   30.70    3.30
   3   5   1   36.90    3.40
   3   5   1   37.30    3.50
  -4  -5  -1   -0.80    1.90
   4   5   1   -1.00    1.70
   4   5   1   -1.20    1.60
  -5  -5  -1    2.00    2.30
   5   5   1   -0.10    2.10
   5   5   1    1.30    2.00
  -6  -5  -1   -1.10    2.50
   6   5   1   -0.20    2.30
  -7  -5  -1   -0.90    2.70
   7   5   1    1.30    3.20
   7  -6  -1    1.90    2.90
  -7   6   1    4.10    3.00
  -7   6   1   -0.20    2.80
   6  -6  -1    0.00    2.50
  -6   6   1   -1.60    2.80
  -6   6   1    4.20    2.70
   5  -6  -1    3.90    2.40
  -5   6   1    4.20    2.30
  -5   6   1    1.30    2.30
   4  -6  -1    0.70    2.00
  -4   6   1   -0.70    1.90
  -4   6   1    1.30    1.70
   3  -6  -1   -1.20    1.70
  -3   6   1    0.00    1.60
  -3   6   1    1.00    1.40
   2  -6  -1   12.00    2.50
   2  -6  -1   12.60    1.60
  -2   6   1   10.50    2.20
  -2   6   1   12.00    1.70
   1  -6  -1   31.60    3.20
   1  -6  -1   31.00    2.50
  -1   6   1   28.90    2.00
  -1   6   1   26.40    3.00
   0  -6  -1   20.40    2.40
   0  -6  -1   18.20    2.50
   0   6   1   22.90    2.80
  -1  -6  -1   24.50    2.90
  -1  -6  -1   20.90    2.70
   1   6   1   19.10    2.60
  -2  -6  -1    9.20    2.30
  -2  -6  -1    7.40    2.20
   2   6   1    6.20    2.10
  -3  -6  -1    0.50    1.90
   3   6   1   -2.00    1.70
   3   6   1    0.10    1.90
  -4  -6  -1    6.20    2.60
   4   6   1    3.80    2.30
   4   6   1    3.90    2.30
  -5  -6  -1   10.80    3.30
   5   6   1   11.10    3.00
   5   6   1   12.10    3.00
  -6  -6  -1   -2.60    2.70
   6   6   1    1.30    2.90
   7  -7  -1   15.60    3.80
  -7   7   1    3.60    3.30
  -7   7   1    9.90    3.60
   6  -7  -1    0.00    3.00
  -6   7   1   -0.70    2.70
  -6   7   1   -4.10    2.50
   5  -7  -1   21.90    3.80
  -5   7   1   21.50    3.20
  -5   7   1   29.00    4.10
   4  -7  -1    1.80    2.30
  -4   7   1    2.60    2.00
  -4   7   1    1.50    2.10
   3  -7  -1    9.20    2.60
  -3   7   1   10.30    2.10
  -3   7   1    7.70    2.40
   2  -7  -1    0.80    2.10
   2  -7  -1   -0.10    1.30
  -2   7   1    1.90    1.80
  -2   7   1    2.00    1.40
   1  -7  -1    0.20    1.90
   1  -7  -1    1.20    1.50
  -1   7   1   -0.60    1.70
   0  -7  -1    1.90    1.70
   0  -7  -1   -1.10    1.90
   0   7   1    0.00    1.70
  -1  -7  -1    3.30    2.20
  -1  -7  -1    2.90    2.10
   1   7   1    6.50    2.30
  -2  -7  -1    7.50    2.30
  -2  -7  -1    6.40    2.50
   2   7   1   10.20    2.70
  -3  -7  -1    0.10    2.10
   3   7   1    0.00    2.10
   3   7   1   -0.60    2.20
  -4  -7  -1    8.30    3.00
   4   7   1   10.20    2.90
   4   7   1   10.30    3.20
  -5  -7  -1    3.60    3.00
   5   7   1    4.00    3.00
   5   7   1    1.30    2.60
  -6  -7  -1    1.50    3.40
   6   7   1    4.50    3.30
   6  -8  -1   -1.80    3.00
  -6   8   1    2.30    3.30
  -6   8   1    0.60    2.80
   5  -8  -1    1.50    2.70
  -5   8   1    0.60    2.50
  -5   8   1    1.60    2.80
   4  -8  -1    7.40    3.10
  -4   8   1    6.60    2.40
  -4   8   1    1.80    2.50
   3  -8  -1    3.30    2.70
  -3   8   1    1.30    2.10
   2  -8  -1   12.10    3.10
  -2   8   1    7.40    2.40
   1  -8  -1    6.00    2.60
   1  -8  -1    6.30    1.90
  -1   8   1    6.00    2.30
   0  -8  -1    0.50    2.00
   0  -8  -1    0.60    2.20
   0   8   1   -1.20    1.90
  -1  -8  -1    2.20    2.30
  -1  -8  -1    3.40    2.60
   1   8   1    1.90    2.20
  -2  -8  -1   14.80    3.20
  -2  -8  -1   14.30    3.10
   2   8   1   11.90    3.20
  -3  -8  -1   -0.40    2.50
   3   8   1   -2.90    2.10
   3   8   1    3.20    2.60
  -4  -8  -1   13.20    3.70
   4   8   1   20.60    3.90
   4   8   1   20.10    3.70
  -5  -8  -1   -1.10    3.20
   5   8   1   -0.90    3.20
   5   8   1   -0.20    3.80
   5  -9  -1   -4.40    3.00
  -5   9   1    1.20    3.20
   4  -9  -1   11.00    3.80
  -4   9   1    6.10    3.00
   3  -9  -1   -0.20    2.90
  -3   9   1    3.50    2.50
   2  -9  -1    6.50    3.10
  -2   9   1    1.90    2.40
   1  -9  -1   -1.20    1.70
   1  -9  -1    4.30    2.90
  -1   9   1    0.60    2.30
   0  -9  -1    0.30    2.60
   0  -9  -1   -0.20    2.20
   0   9   1    2.40    2.40
  -1  -9  -1    1.60    2.90
  -1  -9  -1   -2.10    2.30
   1   9   1   -2.80    2.30
  -2  -9  -1    7.70    3.00
  -2  -9  -1    3.90    3.10
   2   9   1    6.50    3.20
  -3  -9  -1    4.20    3.30
   3   9   1    1.70    2.80
   3   9   1   -0.90    2.80
  -4  -9  -1   -1.20    3.30
   4   9   1    2.70    3.40
   4   9   1    2.20    3.20
   4 -10  -1   -3.20    3.10
  -4  10   1   -0.40    3.00
   3 -10  -1   -2.90    3.20
  -3  10   1    1.50    2.70
   2 -10  -1    3.90    3.40
  -2  10   1    2.00    2.70
   1 -10  -1   -0.80    3.10
  -1  10   1    2.40    2.80
   0 -10  -1   -2.00    2.20
   0 -10  -1   -1.70    3.10
   0  10   1    1.30    2.70
  -1 -10  -1   -1.80    2.80
  -1 -10  -1    1.60    3.60
   1  10   1    3.40    3.10
  -2 -10  -1    1.70    3.40
  -2 -10  -1   -1.50    3.20
   2  10   1    3.10    3.30
  -3 -10  -1    1.70    3.60
   3  10   1    1.30    3.40
   3  10   1   -1.60    3.20
   2 -11  -1   -1.80    3.80
  -2  11   1    3.50    3.60
   1 -11  -1    9.70    4.50
  -1  11   1    8.30    3.60
   0 -11  -1    3.20    4.00
   0 -11  -1   -3.50    2.70
   0  11   1   -1.60    3.10
  -1 -11  -1    8.00    3.80
  -1 -11  -1   13.50    4.70
   1  11   1    7.00    3.70
   0  12  -2    3.20    3.80
   0 -12   2   -0.10    4.20
  -1  12  -2   23.60    4.80
   1 -12   2   34.00    5.80
   2  11  -2    2.00    3.40
  -2 -11   2    3.90    3.80
  -2 -11   2    3.30    3.90
   1  11  -2   17.30    4.30
  -1 -11   2   19.20    4.40
  -1 -11   2   23.50    4.60
   0  11  -2   -3.00    3.10
   0 -11   2    1.10    3.10
   0 -11   2   -3.00    3.30
  -1  11  -2   12.10    3.60
   1 -11   2   -2.80    2.70
   1 -11   2   23.70    4.70
  -2  11  -2   -2.30    2.90
   2 -11   2   -2.80    3.50
  -3  11  -2   17.30    4.50
   3 -11   2   29.40    5.20
  -4  11  -2    6.40    4.00
   4 -11   2    4.00    4.20
   4  10  -2    2.00    3.00
   4  10  -2    1.40    3.50
  -4 -10   2   -2.20    3.70
   3  10  -2   13.70    4.00
  -3 -10   2   14.80    4.00
   2  10  -2   15.60    3.80
  -2 -10   2   21.50    4.00
  -2 -10   2   15.00    4.00
   1  10  -2   29.40    4.50
  -1 -10   2   29.70    4.30
  -1 -10   2   24.10    4.20
   0  10  -2   17.70    3.80
   0 -10   2   20.00    3.90
   0 -10   2   18.70    3.40
  -1  10  -2   29.70    4.40
   1 -10   2   26.80    4.40
  -2  10  -2    2.90    2.70
   2 -10   2    0.90    3.10
  -3  10  -2   14.60    3.60
   3 -10   2   18.40    4.30
  -4  10  -2   -0.30    3.00
   4 -10   2   -2.00    3.50
  -5  10  -2   15.20    4.20
   5 -10   2    8.40    4.60
   5   9  -2   -1.70    2.60
   5   9  -2    6.10    3.60
  -5  -9   2    2.20    3.70
   4   9  -2   44.10    5.50
   4   9  -2   47.70    4.90
  -4  -9   2   44.00    5.40
   3   9  -2    8.00    3.10
  -3  -9   2    3.70    3.00
   2   9  -2   47.10    5.20
  -2  -9   2   47.40    4.70
  -2  -9   2   50.09    5.30
   1   9  -2    2.70    2.60
  -1  -9   2    1.00    2.60
  -1  -9   2    6.40    2.80
   0   9  -2    3.40    2.70
   0  -9   2    2.30    2.30
   0  -9   2    1.00    2.60
  -1   9  -2   -0.90    2.20
   1  -9   2   -0.70    2.30
   1  -9   2   -0.60    1.90
  -2   9  -2    9.60    3.00
   2  -9   2    5.00    2.90
   2  -9   2   -2.20    1.60
  -3   9  -2    1.20    2.50
   3  -9   2   -1.50    2.60
  -4   9  -2    2.00    3.00
  -4   9  -2    8.80    2.80
   4  -9   2   -0.60    3.10
  -5   9  -2   -0.60    2.70
  -5   9  -2    2.70    3.00
   5  -9   2    2.70    3.50
  -6   9  -2   -1.00    3.30
  -6   9  -2   -0.20    3.00
   6  -9   2   -2.10    3.60
   6   8  -2   -0.90    3.10
   6   8  -2   -0.10    2.70
  -6  -8   2    4.40    3.50
   5   8  -2    8.40    3.30
   5   8  -2    2.40    2.60
  -5  -8   2    4.00    3.30
   4   8  -2   -0.80    2.60
   4   8  -2   -0.70    2.10
  -4  -8   2   -1.00    2.70
   3   8  -2    1.30    2.30
  -3  -8   2    4.50    2.70
   2   8  -2    9.20    2.80
  -2  -8   2    6.90    2.70
  -2  -8   2   10.60    2.70
   1   8  -2   -1.10    2.00
  -1  -8   2   -3.30    2.00
  -1  -8   2   -1.70    2.00
   0   8  -2   40.50    4.20
   0  -8   2   40.90    4.00
   0  -8   2   47.80    4.20
  -1   8  -2   -0.50    1.90
   1  -8   2   -0.20    1.80
   1  -8   2   -0.10    2.20
  -2   8  -2   20.20    2.50
  -2   8  -2   24.30    3.40
   2  -8   2   21.70    3.40
  -3   8  -2    9.20    2.30
  -3   8  -2    3.60    2.40
   3  -8   2    6.90    2.90
  -4   8  -2   -0.40    2.40
  -4   8  -2    0.40    2.10
   4  -8   2    1.00    2.60
  -5   8  -2   21.30    3.50
  -5   8  -2   20.20    3.50
   5  -8   2   25.60    4.20
  -6   8  -2   -0.50    2.40
  -6   8  -2    0.40    2.80
   6  -8   2    0.00    2.90
   6   7  -2   -2.10    2.30
   6   7  -2   -0.70    2.90
  -6  -7   2    0.60    2.90
   5   7  -2    0.10    2.30
   5   7  -2   -1.00    2.10
  -5  -7   2   -2.80    2.60
   4   7  -2   -0.20    1.80
   4   7  -2    1.40    2.40
  -4  -7   2    1.00    2.40
   3   7  -2    4.00    2.30
   3   7  -2    9.80    2.20
  -3  -7   2    7.10    2.40
   2   7  -2    7.30    2.30
  -2  -7   2    5.10    2.20
  -2  -7   2    2.10    1.90
   1   7  -2   52.19    4.20
  -1  -7   2   44.80    3.80
  -1  -7   2   46.40    4.00
   0   7  -2   23.70    3.00
   0   7  -2   31.80    2.50
   0  -7   2   28.70    3.00
   0  -7   2   24.10    2.90
  -1   7  -2   43.20    2.70
  -1   7  -2   46.70    3.80
   1  -7   2   43.40    3.70
   1  -7   2   42.10    3.40
  -2   7  -2   79.39    4.80
  -2   7  -2   75.29    4.00
   2  -7   2   70.79    4.00
   2  -7   2   72.09    4.80
  -3   7  -2    5.90    1.90
  -3   7  -2    4.30    2.10
   3  -7   2   11.90    2.70
   3  -7   2    0.40    1.30
  -4   7  -2   55.99    4.50
  -4   7  -2   61.29    4.70
   4  -7   2   79.69    5.50
  -5   7  -2   -0.80    2.20
  -5   7  -2    2.30    2.30
   5  -7   2   -3.00    2.10
  -6   7  -2   16.90    3.40
   6  -7   2   20.60    4.10
  -7   7  -2    4.60    3.20
   7  -7   2    3.20    3.30
   7   6  -2   -1.80    2.50
  -7  -6   2    0.60    2.80
   6   6  -2    9.60    3.10
   6   6  -2    9.20    2.70
  -6  -6   2    6.40    2.90
   5   6  -2    1.90    2.30
   5   6  -2    2.70    2.00
  -5  -6   2    1.90    2.40
   4   6  -2   12.40    2.70
   4   6  -2   11.20    2.30
  -4  -6   2   11.70    2.80
   3   6  -2    5.90    1.80
   3   6  -2    3.30    1.90
  -3  -6   2    5.80    2.20
   2   6  -2   13.60    2.40
  -2  -6   2   14.20    2.60
  -2  -6   2   10.80    2.10
   1   6  -2    8.40    2.00
  -1  -6   2    5.10    1.70
  -1  -6   2    4.40    1.70
   0   6  -2   38.70    2.20
   0   6  -2   38.50    3.40
   0  -6   2   43.30    3.20
   0  -6   2   37.30    3.20
  -1   6  -2   13.20    1.60
  -1   6  -2   11.50    2.10
   1  -6   2    9.20    1.90
   1  -6   2   11.90    1.90
  -2   6  -2  118.39    5.10
  -2   6  -2  112.49    5.60
   2  -6   2  111.19    5.00
   2  -6   2  121.19    5.70
  -3   6  -2    8.20    2.00
  -3   6  -2    7.80    1.90
   3  -6   2    4.00    1.30
   3  -6   2    6.60    2.10
  -4   6  -2  148.19    6.70
  -4   6  -2  130.19    6.50
   4  -6   2  145.29    7.10
  -5   6  -2    2.80    2.10
  -5   6  -2    0.50    1.80
   5  -6   2    1.10    2.30
  -6   6  -2   83.69    5.80
   6  -6   2   83.39    6.30
  -7   6  -2   -1.30    2.60
   7  -6   2    1.60    3.00
   7   5  -2   -0.30    2.40
  -7  -5   2    0.30    2.90
   6   5  -2    1.70    2.40
   6   5  -2    2.30    2.20
  -6  -5   2   -0.70    2.30
   5   5  -2    3.00    2.00
   5   5  -2    4.70    2.30
  -5  -5   2   -1.50    1.70
  -5  -5   2    2.70    2.20
   4   5  -2   46.70    4.00
   4   5  -2   47.40    3.50
  -4  -5   2   40.30    3.80
   3   5  -2    6.20    1.60
   3   5  -2    2.60    1.70
  -3  -5   2    6.90    1.20
  -3  -5   2    4.80    2.00
   2   5  -2  169.58    7.00
  -2  -5   2  164.38    6.50
  -2  -5   2  162.48    5.70
  -2  -5   2  162.08    7.00
   1   5  -2   24.20    2.60
  -1  -5   2   23.00    2.40
  -1  -5   2   20.90    2.10
   0   5  -2  150.58    5.50
   0   5  -2  154.38    6.40
   0  -5   2  152.38    6.10
   0  -5   2  151.68    6.20
  -1   5  -2   54.39    2.90
  -1   5  -2   58.39    3.50
   1  -5   2   62.09    3.30
   1  -5   2   58.89    3.50
  -2   5  -2   18.70    2.00
  -2   5  -2   19.40    2.30
   2  -5   2   16.30    1.90
   2  -5   2   20.70    2.30
  -3   5  -2   50.19    3.20
  -3   5  -2   51.89    3.40
   3  -5   2   48.20    2.90
   3  -5   2   48.10    3.70
  -4   5  -2    1.20    1.60
  -4   5  -2    0.70    1.50
   4  -5   2   -1.40    1.60
  -5   5  -2   17.00    2.50
  -5   5  -2   15.50    2.60
   5  -5   2   18.30    3.10
  -6   5  -2    8.90    2.60
  -6   5  -2   -0.30    1.80
   6  -5   2    7.00    2.90
  -7   5  -2   10.20    3.10
   7  -5   2    0.30    2.80
   7   4  -2    1.30    3.00
   7   4  -2    1.30    2.20
  -7  -4   2    0.00    2.50
  -7  -4   2   -1.60    2.80
   6   4  -2    0.30    1.90
   6   4  -2    0.20    2.20
  -6  -4   2   -1.80    1.60
  -6  -4   2   -0.10    2.00
   5   4  -2    4.30    2.10
   5   4  -2    2.00    1.80
  -5  -4   2    1.20    2.10
  -5  -4   2    2.70    1.60
   4   4  -2    3.20    1.50
   4   4  -2    4.00    1.80
  -4  -4   2    1.80    1.20
  -4  -4   2    1.80    1.80
   3   4  -2   22.30    2.60
   3   4  -2   18.50    2.00
  -3  -4   2   17.50    2.30
  -3  -4   2   17.60    1.70
   2   4  -2    0.60    1.20
  -2  -4   2    0.30    0.70
  -2  -4   2    0.60    1.20
   1   4  -2    4.50    1.40
   1   4  -2    5.10    0.90
  -1  -4   2    3.30    1.20
  -1  -4   2    1.20    1.30
   0   4  -2    8.00    1.10
   0   4  -2   10.00    1.60
   0  -4   2    8.80    1.40
   0  -4   2    8.50    1.70
  -1   4  -2    3.50    1.10
  -1   4  -2    3.50    1.30
   1  -4   2    2.80    1.30
   1  -4   2    4.50    1.30
  -2   4  -2   30.70    2.50
  -2   4  -2   31.90    2.30
   2  -4   2   30.40    2.70
   2  -4   2   32.20    2.30
  -3   4  -2   -0.40    1.10
  -3   4  -2   -0.60    1.10
   3  -4   2    2.00    1.10
   3  -4   2    2.10    1.60
  -4   4  -2   15.40    2.10
  -4   4  -2   13.80    2.10
   4  -4   2   15.20    2.50
   4  -4   2   11.80    1.60
  -5   4  -2    9.50    2.20
   5  -4   2    6.00    1.90
   5  -4   2    6.00    2.30
  -6   4  -2   -1.30    1.90
   6  -4   2   -0.50    2.10
  -7   4  -2    3.20    2.40
   7  -4   2    8.80    3.00
  -8   4  -2    2.80    2.90
   8  -4   2    0.00    3.10
   8   3  -2    0.20    2.60
  -8  -3   2    1.30    2.80
   7   3  -2    1.70    2.20
   7   3  -2    1.50    2.80
  -7  -3   2    3.20    2.20
  -7  -3   2    0.70    2.20
   6   3  -2    1.00    1.80
   6   3  -2    2.20    2.30
  -6  -3   2   -0.60    2.00
  -6  -3   2    2.30    1.80
   5   3  -2   -2.00    1.50
   5   3  -2    0.30    1.80
  -5  -3   2   -1.30    1.70
  -5  -3   2   -0.60    1.50
   4   3  -2   -0.30    1.40
   4   3  -2   -1.20    1.20
  -4  -3   2   -0.60    1.10
  -4  -3   2   -0.60    1.40
   3   3  -2   -0.20    1.20
   3   3  -2    2.60    1.10
  -3  -3   2    1.10    0.90
  -3  -3   2    0.10    1.30
   2   3  -2    2.00    1.00
   2   3  -2    3.50    1.30
  -2  -3   2    3.40    0.90
  -2  -3   2    3.40    1.30
   1   3  -2   79.19    3.10
   1   3  -2   77.79    3.70
  -1  -3   2   77.39    3.30
  -1  -3   2   76.69    3.70
   0   3  -2   35.10    2.00
   0   3  -2   39.40    2.40
   0  -3   2   38.90    2.20
   0  -3   2   37.60    2.60
  -1   3  -2  181.28    6.60
  -1   3  -2  182.48    6.50
   1  -3   2  179.38    6.70
   1  -3   2  182.98    6.60
  -2   3  -2   42.40    2.50
  -2   3  -2   44.60    2.70
   2  -3   2   46.20    2.50
   2  -3   2   43.80    3.00
  -3   3  -2   21.90    2.20
   3  -3   2   24.90    2.00
   3  -3   2   27.10    2.60
  -4   3  -2    6.40    1.70
   4  -3   2    9.70    2.10
   4  -3   2    8.20    1.60
  -5   3  -2   -0.50    1.60
  -5   3  -2   -0.50    1.50
   5  -3   2    2.10    1.80
   5  -3   2   -1.10    1.40
  -6   3  -2   -0.80    1.80
   6  -3   2    1.90    2.20
  -7   3  -2   -1.00    2.10
   7  -3   2   -1.90    2.40
  -8   3  -2   -0.90    2.80
   8  -3   2    1.60    3.10
   8   2  -2   -0.30    2.50
  -8  -2   2    4.90    2.80
   7   2  -2    1.40    2.10
   7   2  -2    0.80    2.60
  -7  -2   2    3.40    2.30
  -7  -2   2    4.20    2.30
   6   2  -2   30.50    3.80
   6   2  -2   23.00    3.00
  -6  -2   2   24.90    3.10
  -6  -2   2   19.40    2.80
   5   2  -2   35.20    3.60
   5   2  -2   29.20    2.90
  -5  -2   2   28.80    2.90
  -5  -2   2   22.10    2.80
   4   2  -2   64.29    3.70
   4   2  -2   68.59    4.10
  -4  -2   2   71.69    3.90
  -4  -2   2   66.29    3.70
   3   2  -2   44.70    3.10
   3   2  -2   41.90    2.70
  -3  -2   2   46.00    2.70
  -3  -2   2   47.90    2.90
   2   2  -2   19.20    1.50
   2   2  -2   16.60    1.90
  -2  -2   2   13.00    1.60
  -2  -2   2   16.60    1.50
   1   2  -2    1.90    1.20
   1   2  -2    2.40    1.00
  -1  -2   2    5.80    1.40
  -1  -2   2    2.60    0.90
   0   2  -2   19.70    1.60
   0   2  -2   24.50    1.70
   0  -2   2   24.70    1.80
   0  -2   2   19.20    1.50
  -1   2  -2   25.80    1.80
  -1   2  -2   24.00    1.60
   1  -2   2   29.30    2.20
   1  -2   2   22.70    1.80
  -2   2  -2   14.60    1.60
  -2   2  -2   15.30    1.30
  -2   2  -2   13.60    1.60
   2  -2   2   14.70    1.80
  -3   2  -2    7.10    1.30
  -3   2  -2    7.00    1.50
   3  -2   2    5.90    1.50
   3  -2   2    6.10    1.20
  -4   2  -2    3.40    1.50
  -4   2  -2    0.10    1.20
   4  -2   2   -0.20    1.00
   4  -2   2    1.40    1.50
  -5   2  -2    0.40    1.60
  -5   2  -2   -1.10    1.50
   5  -2   2    0.40    1.70
   5  -2   2    0.50    1.20
  -6   2  -2    0.60    1.80
   6  -2   2    2.40    2.00
  -7   2  -2   -0.10    2.20
   7  -2   2    0.60    2.30
  -8   2  -2   -3.80    2.60
   8  -2   2   -0.50    2.70
   8   1  -2    1.40    2.70
  -8  -1   2    1.10    2.80
   7   1  -2   -0.40    2.50
   7   1  -2   -1.10    2.00
  -7  -1   2    2.30    2.20
   6   1  -2    3.30    2.30
   6   1  -2    4.40    2.00
  -6  -1   2    9.10    2.10
  -6  -1   2    6.30    2.10
   5   1  -2   30.90    3.00
   5   1  -2   41.80    3.90
  -5  -1   2   37.60    3.30
  -5  -1   2   36.90    3.10
   4   1  -2   67.09    4.10
   4   1  -2   57.59    3.50
  -4  -1   2   65.39    3.50
  -4  -1   2   60.59    3.60
   3   1  -2  107.69    5.00
   3   1  -2  104.29    4.40
  -3  -1   2  103.29    4.30
  -3  -1   2  104.39    4.50
   2   1  -2  766.92   24.80
   2   1  -2  781.62   25.30
  -2  -1   2  780.02   24.90
  -2  -1   2  788.22   24.80
   1   1  -2  142.59    5.30
   1   1  -2  139.29    5.00
  -1  -1   2  137.39    5.00
   0   1  -2  879.81   27.30
   0   1  -2  860.01   27.20
   0  -1   2  858.31   27.30
  -1   1  -2   89.69    3.70
  -1   1  -2   97.19    3.60
  -1   1  -2   89.89    3.10
   1  -1   2   89.19    3.70
  -2   1  -2    0.10    1.00
  -2   1  -2    2.50    1.20
   2  -1   2    1.40    0.70
   2  -1   2    0.40    1.20
  -3   1  -2   16.90    1.90
  -3   1  -2   18.80    1.90
   3  -1   2   20.80    1.60
   3  -1   2   18.60    2.10
  -4   1  -2   67.49    3.70
  -4   1  -2   66.99    3.80
   4  -1   2   70.49    4.20
   4  -1   2   65.59    3.30
  -5   1  -2    3.10    1.70
  -5   1  -2    6.60    1.90
   5  -1   2    4.90    1.50
   5  -1   2    4.30    2.00
  -6   1  -2   21.90    2.90
  -6   1  -2   19.00    2.90
   6  -1   2   16.60    2.80
  -7   1  -2    0.00    2.20
   7  -1   2    1.00    2.30
  -8   1  -2    1.90    2.90
   8  -1   2    0.30    2.80
   8   0  -2  100.89    6.60
  -8   0   2  108.19    6.80
   7   0  -2    1.10    2.50
   7   0  -2   -0.60    2.10
  -7   0   2    3.70    2.40
   6   0  -2   90.39    6.20
   6   0  -2  103.99    5.80
  -6   0   2  101.09    5.60
   5   0  -2    7.90    2.00
   5   0  -2    9.80    2.40
  -5   0   2   10.40    1.70
  -5   0   2    9.50    2.10
   4   0  -2   13.00    2.00
   4   0  -2   11.20    2.20
  -4   0   2   11.70    1.90
  -4   0   2    9.60    1.50
   3   0  -2    7.50    1.50
   3   0  -2    7.90    1.80
  -3   0   2    6.80    1.50
  -3   0   2    7.30    1.10
   2   0  -2   15.60    1.60
   2   0  -2   16.00    2.10
  -2   0   2   19.10    1.70
  -2   0   2   21.50    1.40
   1   0  -2    7.80    0.90
   1   0  -2    4.70    1.30
  -1   0   2    6.40    1.20
  -1   0   2    8.40    1.00
   0   0  -2   84.79    3.20
   0   0  -2   87.29    3.20
   0   0  -2   85.39    3.10
   0   0  -2   81.89    3.20
  -1   0  -2   28.70    2.10
  -1   0  -2   29.10    1.80
   1   0   2   28.00    1.90
  -2   0  -2  382.86   12.90
  -2   0  -2  394.16   12.90
   2   0   2  389.46   13.20
   2   0   2  387.96   12.50
  -3   0  -2   16.10    1.80
  -3   0  -2   14.00    1.80
   3   0   2   17.00    2.20
   3   0   2   14.70    1.50
  -4   0  -2  111.29    5.00
  -4   0  -2  111.39    5.00
   4   0   2   98.99    4.60
   4   0   2  115.59    5.40
  -5   0  -2   -0.30    1.40
  -5   0  -2   -0.50    1.60
   5   0   2    3.70    1.80
   5   0   2    1.30    1.50
  -6   0  -2    5.80    2.30
  -6   0  -2    6.50    2.30
   6   0   2    2.60    2.20
  -7   0  -2   -1.50    2.30
  -7   0  -2    3.70    2.80
   7   0   2   -0.90    2.00
  -8   0  -2   -2.50    2.80
   8   0   2    0.20    2.60
  -8   1   2    8.50    3.10
   7  -1  -2    7.10    2.70
   7  -1  -2    7.60    2.70
  -7   1   2    4.70    2.40
   6  -1  -2   53.59    4.60
   6  -1  -2   59.89    4.90
  -6   1   2   61.09    4.50
   5  -1  -2    8.80    2.10
   5  -1  -2   15.40    2.50
  -5   1   2   13.10    2.30
   4  -1  -2  196.08    8.10
   4  -1  -2  191.08    7.90
  -4   1   2  213.48    8.00
   3  -1  -2    1.50    1.30
   3  -1  -2   -0.80    1.30
  -3   1   2    2.40    1.20
   2  -1  -2  202.58    7.40
   2  -1  -2  210.38    7.70
  -2   1   2  205.48    7.40
   1  -1  -2  394.86   13.00
   1  -1  -2  373.56   12.70
  -1   1   2  397.86   12.70
   0  -1  -2   24.00    1.60
   0  -1  -2   25.00    1.90
   0  -1  -2   26.20    1.80
   0  -1  -2   28.30    1.80
  -1  -1  -2  802.22   24.90
  -1  -1  -2  775.22   24.60
   1   1   2  776.22   24.80
   1   1   2  760.52   24.60
  -2  -1  -2   13.50    1.40
  -2  -1  -2   13.00    1.70
   2   1   2   14.90    1.70
   2   1   2   12.30    1.20
  -3  -1  -2  205.18    7.50
  -3  -1  -2  206.28    7.70
   3   1   2  205.18    7.30
   3   1   2  206.98    8.00
  -4  -1  -2   24.80    2.40
  -4  -1  -2   28.90    2.80
   4   1   2   29.80    3.00
   4   1   2   27.10    2.40
  -5  -1  -2   20.70    2.70
  -5  -1  -2   19.30    2.50
   5   1   2   20.90    2.40
   5   1   2   19.70    2.80
  -6  -1  -2   20.10    3.20
  -6  -1  -2   17.00    2.80
   6   1   2   20.10    3.20
  -7  -1  -2    2.30    2.30
  -7  -1  -2    0.60    2.60
   7   1   2   -2.00    2.20
  -8  -1  -2    0.60    2.80
   8   1   2    1.30    2.80
   8  -2  -2   10.90    3.50
  -8   2   2   13.10    3.50
   7  -2  -2    2.00    2.40
   7  -2  -2   -2.70    2.30
  -7   2   2    1.40    2.30
   6  -2  -2   11.50    2.60
   6  -2  -2    6.20    2.40
  -6   2   2    8.20    2.40
   5  -2  -2    0.30    1.70
   5  -2  -2    2.90    1.90
  -5   2   2    0.40    1.60
   4  -2  -2    1.30    1.50
   4  -2  -2    1.70    1.50
  -4   2   2   -0.30    1.30
   3  -2  -2   -0.70    1.20
   3  -2  -2   -0.10    1.30
  -3   2   2    0.60    1.10
   2  -2  -2    7.30    1.60
   2  -2  -2   12.10    1.70
  -2   2   2    7.80    1.40
   1  -2  -2   63.29    2.60
   1  -2  -2   65.69    3.20
   1  -2  -2   62.09    3.30
  -1   2   2   61.89    2.80
   0  -2  -2    3.50    1.20
   0  -2  -2    3.50    1.10
   0  -2  -2    4.50    0.90
   0   2   2    3.40    1.00
  -1  -2  -2   65.19    3.30
  -1  -2  -2   63.39    2.60
  -1  -2  -2   61.99    3.20
   1   2   2   69.09    3.00
  -2  -2  -2    7.30    1.50
  -2  -2  -2    6.80    1.00
   2   2   2    4.90    1.10
   2   2   2    5.10    1.50
  -3  -2  -2   -0.20    1.30
  -3  -2  -2   -0.90    0.90
   3   2   2    0.60    1.30
   3   2   2    0.00    1.00
  -4  -2  -2    0.40    1.20
  -4  -2  -2   -0.30    1.50
   4   2   2   -0.80    1.20
   4   2   2    2.90    1.60
  -5  -2  -2   17.40    2.80
  -5  -2  -2   13.70    2.20
   5   2   2    9.40    2.40
   5   2   2   11.80    2.10
  -6  -2  -2    4.00    2.30
  -6  -2  -2    0.80    1.90
   6   2   2    1.80    2.20
  -7  -2  -2    3.80    2.90
  -7  -2  -2    0.10    2.20
   7   2   2    6.10    2.90
  -8  -2  -2   -2.40    2.80
  -8  -2  -2    5.80    4.10
   8   2   2    1.00    2.90
   8  -3  -2    8.80    3.40
  -8   3   2    9.00    3.50
   7  -3  -2    9.40    2.90
   7  -3  -2    8.00    2.90
  -7   3   2    7.90    2.90
   6  -3  -2   32.60    3.70
   6  -3  -2   41.90    4.10
  -6   3   2   35.00    3.90
   5  -3  -2   13.00    2.60
   5  -3  -2   18.60    2.70
  -5   3   2   15.60    2.50
   4  -3  -2   87.29    4.80
   4  -3  -2   79.69    4.70
  -4   3   2   85.59    4.50
   3  -3  -2    8.20    1.80
   3  -3  -2    9.70    1.80
  -3   3   2    7.40    1.60
   2  -3  -2   31.90    2.50
   2  -3  -2   26.90    2.60
  -2   3   2   29.40    2.10
   1  -3  -2    1.60    1.20
   1  -3  -2    2.30    1.40
   1  -3  -2    3.10    1.00
  -1   3   2    3.90    1.00
   0  -3  -2   -0.10    1.20
   0  -3  -2    2.90    1.20
   0   3   2    0.50    0.60
   0   3   2    1.60    1.00
  -1  -3  -2    4.60    0.70
  -1  -3  -2    4.60    1.50
  -1  -3  -2    5.20    1.50
   1   3   2    5.30    1.20
  -2  -3  -2    3.30    1.40
  -2  -3  -2    2.70    0.80
   2   3   2    2.30    1.10
   2   3   2    2.30    1.40
  -3  -3  -2    3.20    1.00
  -3  -3  -2    3.50    1.50
   3   3   2    2.40    1.50
   3   3   2    4.50    1.40
  -4  -3  -2   26.50    2.20
  -4  -3  -2   14.20    2.50
   4   3   2   18.50    2.30
   4   3   2   19.30    2.60
  -5  -3  -2    3.00    2.10
  -5  -3  -2   -0.40    1.30
   5   3   2    3.90    1.90
   5   3   2    2.60    1.90
  -6  -3  -2   10.00    2.90
  -6  -3  -2    0.50    1.90
   6   3   2   16.50    3.20
  -7  -3  -2   -0.30    2.80
   7   3   2   -1.00    2.50
   8  -4  -2    3.20    3.20
  -8   4   2    0.50    3.20
   7  -4  -2    5.70    2.70
   7  -4  -2    1.70    2.70
  -7   4   2    1.10    2.70
   6  -4  -2   -1.50    2.20
   6  -4  -2    2.60    2.40
  -6   4   2    2.70    2.40
   5  -4  -2   10.00    2.50
   5  -4  -2    7.70    2.40
  -5   4   2    8.50    2.30
   4  -4  -2   24.00    2.90
   4  -4  -2   26.70    3.20
  -4   4   2   28.90    2.80
   3  -4  -2  121.39    5.90
   3  -4  -2  124.09    5.70
  -3   4   2  111.79    5.10
   2  -4  -2  238.28    9.00
   2  -4  -2  243.78    9.30
  -2   4   2  227.38    8.40
   1  -4  -2  276.37   10.10
   1  -4  -2  276.77    9.40
  -1   4   2  276.37   10.10
  -1   4   2  273.07    9.30
   0  -4  -2  302.47   10.50
   0  -4  -2  317.27   11.00
   0   4   2  299.47   10.90
   0   4   2  299.47    9.80
  -1  -4  -2  139.09    6.00
  -1  -4  -2  131.09    5.70
   1   4   2  140.89    5.80
  -2  -4  -2   51.39    3.50
  -2  -4  -2   53.79    3.60
   2   4   2   57.39    3.50
  -3  -4  -2   18.90    2.70
   3   4   2   18.10    2.40
   3   4   2   21.20    2.70
  -4  -4  -2    0.10    1.10
  -4  -4  -2    2.60    1.90
   4   4   2    0.00    1.80
   4   4   2    1.60    1.70
  -5  -4  -2    2.50    2.20
   5   4   2    3.00    2.80
   5   4   2    5.00    2.20
  -6  -4  -2    2.50    2.60
   6   4   2    2.10    2.50
  -7  -4  -2    3.10    3.10
   7   4   2    1.00    2.70
   7  -5  -2   -1.50    2.70
   7  -5  -2    0.50    2.70
  -7   5   2   -1.00    2.80
   6  -5  -2   12.90    3.10
   6  -5  -2    9.60    3.10
  -6   5   2   18.30    3.30
   5  -5  -2    2.10    2.40
   5  -5  -2    6.60    2.40
  -5   5   2    3.40    2.20
   4  -5  -2    9.30    2.50
   4  -5  -2   10.00    2.40
  -4   5   2    3.60    1.80
   3  -5  -2   10.20    2.20
  -3   5   2   10.70    1.90
   2  -5  -2   -0.40    1.50
  -2   5   2    0.20    1.10
  -2   5   2    0.40    1.40
   1  -5  -2   -0.90    1.00
   1  -5  -2    0.40    1.40
  -1   5   2    0.90    1.30
  -1   5   2   -0.40    0.90
   0  -5  -2    4.00    1.40
   0  -5  -2    4.10    1.70
   0   5   2    4.30    1.60
  -1  -5  -2   43.20    3.70
  -1  -5  -2   36.90    3.00
   1   5   2   32.70    3.10
  -2  -5  -2    2.00    1.60
  -2  -5  -2    0.20    1.60
   2   5   2   -0.40    1.40
  -3  -5  -2   35.40    3.50
   3   5   2   44.90    3.60
   3   5   2   33.90    3.50
  -4  -5  -2    0.20    2.10
   4   5   2    0.70    1.90
   4   5   2   -1.00    1.80
  -5  -5  -2    7.70    2.70
   5   5   2    7.10    2.60
  -6  -5  -2    5.10    3.10
   6   5   2    0.80    2.50
   7  -6  -2    2.40    3.20
   7  -6  -2    0.90    3.00
  -7   6   2   -1.30    2.90
   6  -6  -2    6.00    3.00
   6  -6  -2   12.40    3.30
  -6   6   2    8.70    3.00
   5  -6  -2    2.20    2.50
  -5   6   2    6.50    2.50
   4  -6  -2    6.00    2.40
  -4   6   2    8.90    2.30
  -4   6   2   12.90    2.80
   3  -6  -2   14.60    2.70
  -3   6   2   12.20    2.10
  -3   6   2   23.20    3.20
   2  -6  -2    1.10    1.10
   2  -6  -2    7.70    2.30
  -2   6   2    9.10    1.60
  -2   6   2    7.00    2.00
   1  -6  -2    0.90    1.70
   1  -6  -2   -1.10    1.20
  -1   6   2    0.50    1.00
  -1   6   2    2.20    1.60
   0  -6  -2    1.40    1.50
   0  -6  -2    1.50    1.70
   0   6   2    2.70    1.70
  -1  -6  -2    8.20    2.20
  -1  -6  -2    6.20    2.00
   1   6   2    4.60    1.90
  -2  -6  -2   -0.30    1.90
  -2  -6  -2    3.70    2.00
   2   6   2   -0.10    1.80
  -3  -6  -2    5.10    2.30
   3   6   2    6.10    2.20
   3   6   2    8.90    2.30
  -4  -6  -2    0.60    2.30
   4   6   2    0.50    2.20
   4   6   2   -1.30    1.90
  -5  -6  -2    0.30    2.60
   5   6   2    1.40    2.50
  -6  -6  -2    1.20    3.10
   6   6   2    0.10    2.90
  -7   7   2    6.70    3.70
   6  -7  -2    0.60    2.90
  -6   7   2   -0.50    2.70
  -6   7   2    0.00    3.00
   5  -7  -2    2.90    2.80
  -5   7   2   -4.10    2.20
  -5   7   2   -0.10    2.40
   4  -7  -2   -1.70    2.30
  -4   7   2    0.30    2.20
  -4   7   2    3.10    2.10
   3  -7  -2    0.10    2.30
  -3   7   2   -0.20    1.90
  -3   7   2    2.60    1.70
   2  -7  -2    0.00    1.30
   2  -7  -2    2.10    2.10
  -2   7   2    5.40    2.10
  -2   7   2    7.00    1.70
   1  -7  -2   -1.50    1.40
   1  -7  -2   -2.40    1.80
  -1   7   2   -0.60    1.70
   0  -7  -2    4.40    2.50
   0  -7  -2    8.00    2.10
   0   7   2   10.00    2.40
  -1  -7  -2    4.70    2.20
  -1  -7  -2   11.20    2.60
   1   7   2    8.10    2.50
  -2  -7  -2    0.40    2.20
  -2  -7  -2   -0.90    2.00
   2   7   2    0.50    2.10
  -3  -7  -2    3.90    2.40
   3   7   2    5.40    2.70
   3   7   2    6.00    2.50
  -4  -7  -2   11.40    3.00
   4   7   2    9.40    3.00
   4   7   2    7.50    3.00
  -5  -7  -2    2.50    3.20
   5   7   2    6.10    3.00
   6  -8  -2   -1.70    3.20
  -6   8   2    0.20    2.90
  -6   8   2    1.00    3.30
   5  -8  -2    7.50    3.40
  -5   8   2    9.00    3.20
  -5   8   2    6.60    2.80
   4  -8  -2   -1.10    2.60
  -4   8   2    2.00    2.20
  -4   8   2    1.60    2.40
   3  -8  -2    6.30    3.00
  -3   8   2   10.80    2.80
   2  -8  -2   28.70    3.80
  -2   8   2   20.10    3.50
   1  -8  -2    0.30    2.30
   1  -8  -2   -0.30    1.60
  -1   8   2   -2.00    1.90
   0  -8  -2   36.50    3.60
   0  -8  -2   43.40    4.60
   0   8   2   25.50    3.70
  -1  -8  -2    0.70    2.20
  -1  -8  -2    1.00    2.40
   1   8   2    0.00    2.10
  -2  -8  -2   10.30    3.10
  -2  -8  -2   12.80    3.30
   2   8   2    9.50    3.10
  -3  -8  -2    0.50    2.70
   3   8   2    1.10    2.50
   3   8   2    0.70    2.70
  -4  -8  -2   -2.20    2.80
   4   8   2   -0.30    2.80
   4   8   2    2.50    2.90
  -5  -8  -2    1.20    3.70
   5   8   2   -0.20    3.00
   5  -9  -2    1.30    3.40
  -5   9   2    0.60    2.90
   4  -9  -2   -4.40    2.90
  -4   9   2   -0.70    2.60
   3  -9  -2    4.70    3.30
  -3   9   2    2.70    2.60
   2  -9  -2    1.30    2.80
  -2   9   2    4.10    2.80
   1  -9  -2    0.50    1.90
   1  -9  -2    8.50    3.30
  -1   9   2    9.80    3.00
   0  -9  -2    3.30    2.30
   0  -9  -2    0.90    3.00
   0   9   2    0.80    2.40
  -1  -9  -2    7.80    2.90
  -1  -9  -2    4.00    3.40
   1   9   2   12.40    3.30
  -2  -9  -2    1.70    2.90
  -2  -9  -2    4.30    3.30
   2   9   2    4.90    3.00
  -3  -9  -2    3.40    3.20
   3   9   2    3.30    3.30
   3   9   2    2.10    2.80
  -4  -9  -2    7.50    3.70
   4   9   2   10.10    3.90
   4   9   2   11.30    3.70
   4 -10  -2    3.00    3.70
  -4  10   2    0.50    3.10
   3 -10  -2    1.00    3.40
  -3  10   2    0.60    2.70
   2 -10  -2    2.50    3.50
  -2  10   2   -0.30    2.70
   1 -10  -2    5.00    3.60
  -1  10   2   -3.60    2.40
   0 -10  -2    2.50    3.30
   0 -10  -2    0.00    2.40
   0  10   2    1.70    2.90
  -1 -10  -2    0.30    2.90
  -1 -10  -2    1.30    3.70
   1  10   2    1.30    3.00
  -2 -10  -2    1.70    3.80
  -2 -10  -2   -4.30    3.40
   2  10   2    0.70    3.40
   1 -11  -2   15.60    4.80
  -1  11   2   11.30    4.10
   0  12  -3    2.70    3.60
   0 -12   3    7.20    4.50
   0 -12   3    1.20    3.50
  -1  12  -3    1.60    3.70
   1 -12   3    5.30    4.50
  -2  12  -3    5.10    3.90
   2 -12   3   -1.10    4.20
   3  11  -3    1.60    3.40
  -3 -11   3   -0.40    3.80
   2  11  -3    6.90    3.80
  -2 -11   3    5.80    3.80
  -2 -11   3    3.90    3.50
   1  11  -3    7.50    3.50
  -1 -11   3   11.50    4.00
  -1 -11   3    9.80    3.80
   0  11  -3    7.90    3.40
   0 -11   3    2.00    3.30
   0 -11   3    1.60    3.30
  -1  11  -3    4.70    3.20
   1 -11   3    1.00    2.50
   1 -11   3   14.00    4.10
  -2  11  -3    0.70    3.10
   2 -11   3    3.40    3.70
  -3  11  -3    4.10    3.40
   3 -11   3    0.70    3.80
  -4  11  -3    4.90    3.90
   4 -11   3    2.70    4.40
   4  10  -3    1.90    3.40
   4  10  -3    0.70    2.90
  -4 -10   3    2.10    3.80
   3  10  -3    3.20    3.20
  -3 -10   3    0.80    3.30
   2  10  -3   -0.10    2.70
  -2 -10   3    2.20    3.00
  -2 -10   3    2.60    3.10
   1  10  -3    5.80    3.00
  -1 -10   3    8.30    3.20
  -1 -10   3    4.70    3.00
   0  10  -3    6.70    3.10
   0 -10   3   10.40    3.20
   0 -10   3    6.70    3.20
  -1  10  -3    3.20    2.80
   1 -10   3    2.90    2.90
   1 -10   3    3.00    2.40
  -2  10  -3    0.10    2.60
   2 -10   3    1.10    3.10
  -3  10  -3   -1.60    2.70
   3 -10   3   -0.40    3.20
  -4  10  -3    1.60    5.50
   4 -10   3    4.70    3.40
  -5  10  -3    4.80    3.50
  -5  10  -3   -1.50    3.10
   5 -10   3   -0.40    4.10
   5   9  -3   27.40    4.70
  -5  -9   3   36.00    5.30
   4   9  -3   -0.80    2.10
   4   9  -3    1.30    3.00
  -4  -9   3   -0.10    3.00
   3   9  -3   85.49    6.40
  -3  -9   3   79.19    6.60
   2   9  -3   20.90    3.70
  -2  -9   3   15.40    3.40
  -2  -9   3   12.60    3.10
   1   9  -3  144.79    7.90
  -1  -9   3  139.09    7.40
  -1  -9   3  136.39    7.50
   0   9  -3    4.10    2.60
   0  -9   3    5.70    2.60
   0  -9   3    5.40    2.70
  -1   9  -3  139.39    7.50
   1  -9   3  139.19    6.80
   1  -9   3  128.89    7.30
  -2   9  -3   -2.80    2.20
   2  -9   3    4.50    2.70
   2  -9   3    1.60    1.80
  -3   9  -3  119.39    6.90
  -3   9  -3  111.99    6.20
   3  -9   3  121.89    7.40
  -4   9  -3   -0.40    2.40
  -4   9  -3    4.20    2.80
   4  -9   3    5.30    3.40
  -5   9  -3   60.09    5.90
  -5   9  -3   55.99    5.60
   5  -9   3   57.89    6.10
  -6   9  -3    0.10    3.20
   6  -9   3    5.20    4.10
   6   8  -3   -1.50    3.00
  -6  -8   3    2.90    3.50
   5   8  -3   42.60    5.10
  -5  -8   3   60.89    6.60
   4   8  -3   -1.40    2.40
   4   8  -3    0.50    2.10
  -4  -8   3   -2.50    2.50
   3   8  -3  103.59    5.60
   3   8  -3   99.99    6.50
  -3  -8   3   98.09    6.30
   2   8  -3    2.50    2.40
  -2  -8   3    7.50    2.50
  -2  -8   3    5.30    2.80
   1   8  -3  249.88   10.70
  -1  -8   3  250.67   10.10
  -1  -8   3  246.68   10.40
   0   8  -3   31.60    3.90
   0  -8   3   27.00    3.30
   0  -8   3   24.00    3.20
  -1   8  -3  384.06   13.20
  -1   8  -3  374.96   14.40
   1  -8   3  387.66   14.20
   1  -8   3  365.16   13.80
  -2   8  -3   15.80    2.30
  -2   8  -3   15.40    3.00
   2  -8   3   18.00    2.50
   2  -8   3   12.60    2.90
  -3   8  -3  307.97   11.70
  -3   8  -3  309.77   12.40
   3  -8   3  315.97   12.60
  -4   8  -3   -2.50    2.10
  -4   8  -3    0.30    2.20
   4  -8   3    0.30    2.60
  -5   8  -3  153.48    7.90
  -5   8  -3  133.49    7.60
   5  -8   3  157.68    8.30
  -6   8  -3    8.90    3.20
   6  -8   3    2.90    3.30
   6   7  -3    2.10    2.40
   6   7  -3    4.00    3.10
  -6  -7   3    2.60    3.20
   5   7  -3   43.30    4.80
  -5  -7   3   38.80    4.70
   4   7  -3   -1.20    1.80
   4   7  -3   -1.30    2.10
  -4  -7   3   -0.60    2.30
   3   7  -3   90.09    5.70
   3   7  -3   83.99    4.80
  -3  -7   3   99.69    5.90
   2   7  -3   -1.30    1.80
  -2  -7   3   -2.40    1.80
  -2  -7   3    0.70    1.80
   1   7  -3   95.49    5.40
  -1  -7   3   97.39    5.10
  -1  -7   3  101.99    5.40
   0   7  -3    8.20    1.40
   0   7  -3    8.50    2.20
   0  -7   3    7.90    2.10
   0  -7   3   11.20    2.20
  -1   7  -3   88.19    4.20
  -1   7  -3   96.19    5.20
   1  -7   3   88.89    4.80
   1  -7   3   82.69    4.90
  -2   7  -3   35.60    3.00
  -2   7  -3   41.00    3.70
   2  -7   3   45.10    3.90
   2  -7   3   38.40    3.30
  -3   7  -3   79.99    4.60
  -3   7  -3   71.39    4.90
   3  -7   3   81.29    5.10
  -4   7  -3   48.20    4.20
  -4   7  -3   41.20    4.00
   4  -7   3   44.80    4.40
  -5   7  -3   50.59    4.70
   5  -7   3   49.00    4.80
  -6   7  -3   15.10    3.40
   6  -7   3   12.80    3.40
  -7   7  -3   23.00    4.10
   7  -7   3   27.10    4.70
   7   6  -3    3.20    3.20
  -7  -6   3   -1.40    2.80
   6   6  -3    4.10    2.90
   6   6  -3   -1.40    2.00
  -6  -6   3    3.60    3.00
   5   6  -3    4.50    2.10
   5   6  -3    2.10    2.40
  -5  -6   3    2.60    2.50
   4   6  -3    7.80    2.40
   4   6  -3   12.30    2.20
  -4  -6   3    8.70    2.80
   3   6  -3    1.00    1.80
   3   6  -3    3.00    1.60
  -3  -6   3    1.70    1.90
  -3  -6   3    0.60    0.90
   2   6  -3   -0.30    1.40
  -2  -6   3   -1.70    1.50
  -2  -6   3    2.00    0.80
  -2  -6   3   -1.20    1.40
   1   6  -3    0.20    0.80
   1   6  -3   -0.20    1.40
  -1  -6   3    0.30    1.30
  -1  -6   3    2.00    1.60
   0   6  -3   17.50    2.50
   0   6  -3   17.20    1.70
   0  -6   3   18.50    2.20
   0  -6   3   17.00    2.30
  -1   6  -3    0.90    1.60
  -1   6  -3    2.70    1.20
   1  -6   3    1.20    1.40
   1  -6   3    0.60    1.40
  -2   6  -3    8.90    1.80
  -2   6  -3    9.40    2.00
   2  -6   3    8.80    2.00
   2  -6   3    6.90    1.80
  -3   6  -3    0.10    1.50
  -3   6  -3   -0.40    1.50
   3  -6   3    0.60    1.30
   3  -6   3   -1.30    1.70
  -4   6  -3    2.90    2.00
  -4   6  -3    5.70    2.00
   4  -6   3    0.50    1.40
   4  -6   3    7.60    2.40
  -5   6  -3    0.20    1.70
  -5   6  -3    1.30    2.10
   5  -6   3    4.50    2.40
  -6   6  -3   27.40    3.90
   6  -6   3   25.20    4.10
  -7   6  -3    1.60    3.40
   7  -6   3    5.40    3.40
   7   5  -3    1.00    2.30
   7   5  -3    1.60    3.00
  -7  -5   3    1.10    2.60
   6   5  -3    1.50    2.00
   6   5  -3   -0.40    2.30
  -6  -5   3   -3.30    2.20
   5   5  -3    2.80    1.80
   5   5  -3    1.70    2.10
  -5  -5   3    1.00    2.10
  -5  -5   3   -0.70    1.40
   4   5  -3    6.60    1.80
   4   5  -3    5.80    2.10
  -4  -5   3    4.00    1.40
  -4  -5   3    5.20    2.10
   3   5  -3    1.50    1.20
   3   5  -3    0.60    1.50
  -3  -5   3   -0.10    1.60
  -3  -5   3    0.30    1.00
   2   5  -3   73.79    4.20
  -2  -5   3   61.99    3.50
  -2  -5   3   73.69    4.00
  -2  -5   3   66.89    3.00
   1   5  -3    1.70    0.90
   1   5  -3    3.20    1.50
  -1  -5   3    5.10    1.40
  -1  -5   3    3.90    1.60
   0   5  -3  149.99    6.50
   0   5  -3  157.18    5.80
   0  -5   3  153.98    6.10
   0  -5   3  163.28    6.40
  -1   5  -3    1.50    1.10
  -1   5  -3    2.00    1.30
   1  -5   3    3.30    1.40
   1  -5   3    3.80    1.40
  -2   5  -3   53.19    3.20
  -2   5  -3   51.79    3.20
   2  -5   3   55.09    3.50
   2  -5   3   52.89    3.20
  -3   5  -3   32.70    2.90
  -3   5  -3   35.10    3.00
   3  -5   3   31.90    2.60
   3  -5   3   30.70    3.00
  -4   5  -3    2.20    1.70
  -4   5  -3    0.10    1.40
   4  -5   3    0.10    1.80
   4  -5   3   -1.20    1.20
  -5   5  -3   29.20    3.40
   5  -5   3   33.00    3.80
  -6   5  -3    1.00    2.20
   6  -5   3   -2.30    2.40
  -7   5  -3    5.20    2.90
   7  -5   3    4.30    3.00
   7   4  -3    1.60    1.90
   7   4  -3    0.40    2.90
  -7  -4   3    1.90    2.50
  -7  -4   3   -0.60    2.00
   6   4  -3    2.90    1.90
   6   4  -3    3.40    2.50
  -6  -4   3    0.90    1.80
  -6  -4   3    3.10    2.30
   5   4  -3    4.40    1.80
   5   4  -3    6.40    2.30
  -5  -4   3    6.60    2.20
  -5  -4   3    6.70    1.80
   4   4  -3    5.50    1.90
   4   4  -3    6.00    1.50
  -4  -4   3    2.00    1.20
  -4  -4   3    4.10    1.80
   3   4  -3   46.10    2.80
   3   4  -3   53.69    3.50
  -3  -4   3   47.90    2.70
  -3  -4   3   49.30    3.50
   2   4  -3   18.50    2.20
  -2  -4   3   20.00    1.60
  -2  -4   3   16.20    2.10
   1   4  -3  145.79    5.90
   1   4  -3  138.59    5.20
  -1  -4   3  137.49    5.30
  -1  -4   3  139.79    5.90
   0   4  -3   82.29    4.10
   0   4  -3   87.79    3.70
   0  -4   3   94.39    4.20
   0  -4   3   83.99    3.70
  -1   4  -3   51.89    3.00
  -1   4  -3   51.29    2.80
   1  -4   3   53.29    3.10
   1  -4   3   55.99    3.20
  -2   4  -3   82.29    3.80
  -2   4  -3   84.39    4.00
   2  -4   3   79.79    4.10
   2  -4   3   81.39    3.90
  -3   4  -3   15.70    2.10
  -3   4  -3   15.80    1.80
   3  -4   3   17.10    1.90
   3  -4   3   15.40    2.20
  -4   4  -3   31.10    3.10
  -4   4  -3   33.60    2.70
   4  -4   3   33.80    3.30
   4  -4   3   32.40    2.60
  -5   4  -3   18.90    2.70
   5  -4   3   29.20    3.40
  -6   4  -3    5.20    2.30
   6  -4   3    6.00    2.80
  -7   4  -3   33.90    4.10
   7  -4   3   40.50    4.80
  -8   4  -3   -1.40    3.00
   8  -4   3   -0.70    3.00
   8   3  -3   -0.40    2.50
  -8  -3   3    1.80    2.50
   7   3  -3    1.60    2.20
   7   3  -3    0.20    2.70
  -7  -3   3    0.70    2.30
  -7  -3   3   -1.00    2.00
   6   3  -3    0.50    2.30
   6   3  -3   -0.40    1.60
  -6  -3   3    1.10    2.00
  -6  -3   3   -1.60    1.80
   5   3  -3   -1.20    1.70
   5   3  -3    0.40    1.40
  -5  -3   3    1.10    1.50
  -5  -3   3    1.70    1.80
   4   3  -3   -0.10    1.50
   4   3  -3    0.70    1.10
  -4  -3   3    0.40    1.40
  -4  -3   3    1.10    1.20
   3   3  -3    4.00    1.50
   3   3  -3    3.30    1.10
  -3  -3   3    2.90    1.10
  -3  -3   3    2.30    1.30
   2   3  -3    3.00    0.90
   2   3  -3    3.20    1.40
  -2  -3   3    5.00    1.40
  -2  -3   3    3.10    1.10
   1   3  -3   60.49    3.20
   1   3  -3   59.29    2.80
  -1  -3   3   60.39    3.30
   0   3  -3   -0.40    0.90
   0   3  -3    0.00    0.90
   0  -3   3   -0.30    0.80
   0  -3   3    0.60    1.20
  -1   3  -3  256.77    8.90
  -1   3  -3  258.37    8.90
   1  -3   3  262.27    9.10
   1  -3   3  258.67    9.00
  -2   3  -3   32.50    2.00
  -2   3  -3   34.00    2.50
   2  -3   3   30.60    2.50
   2  -3   3   28.30    2.30
  -3   3  -3  147.19    6.00
  -3   3  -3  142.19    5.40
   3  -3   3  138.39    6.20
   3  -3   3  145.89    5.70
  -4   3  -3   34.30    3.00
  -4   3  -3   40.40    2.50
  -4   3  -3   36.60    3.00
   4  -3   3   38.80    3.50
  -5   3  -3   28.00    2.90
  -5   3  -3   28.50    3.00
   5  -3   3   26.00    3.40
   5  -3   3   23.00    2.90
  -6   3  -3   18.70    2.90
   6  -3   3   10.60    2.80
  -7   3  -3    8.10    2.70
   7  -3   3    4.20    2.60
  -8   3  -3    5.40    3.20
   8  -3   3    4.90    3.30
   8   2  -3   -1.30    2.30
  -8  -2   3    1.20    2.60
   7   2  -3    1.80    2.70
   7   2  -3    1.60    2.10
  -7  -2   3   -0.20    2.20
   6   2  -3    2.10    1.90
   6   2  -3    1.20    2.40
  -6  -2   3    1.60    1.90
  -6  -2   3    2.80    2.00
   5   2  -3    4.00    2.00
   5   2  -3    1.70    1.50
  -5  -2   3   -2.50    1.40
  -5  -2   3    1.90    1.70
   4   2  -3   27.00    3.00
   4   2  -3   24.90    2.30
  -4  -2   3   20.10    2.20
  -4  -2   3   21.30    2.30
   3   2  -3   81.69    4.30
   3   2  -3   80.79    3.60
  -3  -2   3   81.79    3.80
  -3  -2   3   79.79    3.80
   2   2  -3   37.70    2.80
  -2  -2   3   39.50    2.50
  -2  -2   3   38.80    2.60
   1   2  -3  160.28    5.90
   1   2  -3  163.28    6.20
  -1  -2   3  170.88    6.20
   0   2  -3   10.70    1.30
   0   2  -3   12.50    1.50
   0  -2   3   12.80    1.70
  -1   2  -3   90.19    3.40
  -1   2  -3   94.99    3.90
   1  -2   3   90.49    4.00
   1  -2   3   89.19    3.80
  -2   2  -3   15.70    1.70
  -2   2  -3   15.30    1.80
  -2   2  -3   15.40    1.20
   2  -2   3   16.80    1.90
  -3   2  -3   29.30    2.40
  -3   2  -3   28.80    2.50
   3  -2   3   27.50    2.60
  -4   2  -3   22.00    2.40
  -4   2  -3   28.20    2.70
   4  -2   3   24.70    2.70
   4  -2   3   23.00    1.90
  -5   2  -3   10.20    2.10
  -5   2  -3   10.90    2.20
   5  -2   3    8.40    2.30
  -6   2  -3   23.80    3.00
  -6   2  -3   10.10    2.50
   6  -2   3   21.40    3.30
  -7   2  -3    2.60    2.40
   7  -2   3    4.10    2.50
  -8   2  -3    7.00    3.20
   8  -2   3    5.00    3.20
   8   1  -3   -1.10    2.50
  -8  -1   3   -3.30    2.50
   7   1  -3    6.30    3.00
   7   1  -3    7.20    2.50
  -7  -1   3    4.50    2.40
   6   1  -3    5.80    2.50
   6   1  -3    7.00    2.10
  -6  -1   3    4.80    1.90
  -6  -1   3    4.00    2.10
   5   1  -3    7.40    2.30
   5   1  -3    6.80    1.80
  -5  -1   3   12.40    2.30
  -5  -1   3    6.10    1.70
   4   1  -3   -0.80    1.20
   4   1  -3    2.30    1.70
  -4  -1   3    1.20    1.10
  -4  -1   3   -2.00    1.20
   3   1  -3   11.60    2.10
   3   1  -3   13.00    1.60
  -3  -1   3   13.20    1.50
  -3  -1   3   12.30    1.60
   2   1  -3  213.98    8.50
   2   1  -3  223.98    7.60
  -2  -1   3  227.48    8.00
  -2  -1   3  230.88    7.80
   1   1  -3  189.88    6.50
   1   1  -3  167.68    6.70
  -1  -1   3  187.98    6.40
   0   1  -3 1095.59   35.30
   0   1  -3 1158.58   35.30
   0  -1   3 1108.89   35.40
  -1   1  -3  224.28    8.20
  -1   1  -3  244.78    8.10
   1  -1   3  233.78    8.10
  -2   1  -3  301.87   10.50
  -2   1  -3  305.87   10.50
   2  -1   3  312.37   10.80
  -3   1  -3   50.59    3.00
  -3   1  -3   49.60    3.10
   3  -1   3   50.39    3.30
  -4   1  -3   12.10    2.00
  -4   1  -3   13.40    2.00
   4  -1   3   13.10    2.30
   4  -1   3   12.70    1.40
  -5   1  -3   14.80    2.40
  -5   1  -3   15.40    2.50
   5  -1   3    9.30    2.30
  -6   1  -3    2.40    2.10
  -6   1  -3    2.40    2.20
   6  -1   3    6.60    2.50
  -7   1  -3    4.00    2.60
   7  -1   3    3.50    2.40
  -8   1  -3    0.50    2.90
   8  -1   3   -2.40    2.60
   8   0  -3    3.80    2.80
  -8   0   3    1.50    2.70
   7   0  -3   -0.50    2.20
   7   0  -3   -0.20    2.50
  -7   0   3   -1.20    2.10
   6   0  -3   14.60    3.20
   6   0  -3    9.10    2.40
  -6   0   3   11.50    2.50
   5   0  -3    6.50    2.20
   5   0  -3    2.90    1.70
  -5   0   3    4.00    1.40
  -5   0   3    3.40    1.90
   4   0  -3    7.20    2.00
   4   0  -3    5.90    1.60
  -4   0   3    6.90    1.70
  -4   0   3    7.10    1.30
   3   0  -3   29.30    2.90
   3   0  -3   34.90    2.40
  -3   0   3   30.40    2.40
  -3   0   3   29.90    1.90
   2   0  -3   11.50    2.00
   2   0  -3   18.30    1.60
  -2   0   3   16.00    1.80
  -2   0   3   20.50    1.50
   1   0  -3   20.10    1.70
   1   0  -3   16.30    1.90
   1   0  -3   18.80    1.30
  -1   0   3   17.90    1.40
   0   0  -3   54.99    2.70
   0   0  -3   57.79    2.50
   0   0  -3   56.79    2.80
   0   0  -3   59.89    2.70
  -1   0  -3   10.10    1.50
  -1   0  -3    7.80    1.20
   1   0   3    8.50    1.40
  -2   0  -3    0.50    1.20
  -2   0  -3    3.50    1.10
   2   0   3    1.00    1.20
  -3   0  -3   17.60    2.10
  -3   0  -3   19.60    2.00
   3   0   3   20.10    2.30
  -4   0  -3    8.50    1.90
  -4   0  -3   10.30    1.90
   4   0   3    6.60    1.20
   4   0   3   10.60    2.20
  -5   0  -3    7.50    2.10
  -5   0  -3    9.10    2.30
   5   0   3    7.80    2.20
  -6   0  -3    0.60    2.00
  -6   0  -3    1.60    2.30
   6   0   3    1.50    2.10
  -7   0  -3    2.00    3.00
  -7   0  -3    2.80    2.50
   7   0   3    4.90    2.60
  -8   0  -3    2.30    2.90
   8   0   3    0.20    2.70
   8  -1  -3   -1.00    2.80
   8  -1  -3    2.90    4.50
  -8   1   3    0.50    2.70
   7  -1  -3   -0.70    2.30
   7  -1  -3   -2.40    2.40
  -7   1   3    1.20    2.30
   6  -1  -3   -3.10    1.80
   6  -1  -3   -0.80    2.10
  -6   1   3   -1.70    1.80
   5  -1  -3   13.10    2.30
   5  -1  -3   11.20    2.50
  -5   1   3   16.50    2.60
   4  -1  -3    1.70    1.70
   4  -1  -3   -0.60    1.30
  -4   1   3    1.40    1.30
   3  -1  -3   85.29    4.50
   3  -1  -3   91.99    4.20
  -3   1   3   85.39    4.20
   2  -1  -3   -0.50    1.30
   2  -1  -3    0.80    1.00
  -2   1   3    0.90    1.10
   1  -1  -3  228.58    8.40
   1  -1  -3  237.08    7.80
   1  -1  -3  226.68    8.00
  -1   1   3  234.28    8.00
   0  -1  -3   16.70    1.60
   0  -1  -3   18.10    1.70
   0  -1  -3   20.00    1.50
   0  -1  -3   15.70    1.60
  -1  -1  -3   63.59    2.90
  -1  -1  -3   63.29    3.20
   1   1   3   62.69    2.70
   1   1   3   64.99    3.20
  -2  -1  -3   10.50    1.30
  -2  -1  -3    9.30    1.70
   2   1   3    6.90    1.50
   2   1   3    6.70    0.90
  -3  -1  -3    0.10    1.00
  -3  -1  -3    0.70    1.30
   3   1   3    0.50    0.80
   3   1   3   -0.40    1.30
  -4  -1  -3    0.60    1.40
  -4  -1  -3    1.70    1.40
   4   1   3    1.20    1.50
   4   1   3    0.60    1.10
  -5  -1  -3    1.20    1.70
  -5  -1  -3   -1.00    1.80
   5   1   3   -1.50    1.60
  -6  -1  -3    3.90    2.20
  -6  -1  -3    6.50    2.60
   6   1   3    2.50    2.20
  -7  -1  -3   -1.50    2.70
  -7  -1  -3    2.70    2.50
   7   1   3   -0.10    2.20
  -8  -1  -3    2.30    3.20
   8   1   3    3.60    2.90
   8  -2  -3   -0.40    3.00
   8  -2  -3   -1.70    2.80
  -8   2   3   -4.10    2.50
   7  -2  -3    1.80    2.60
   7  -2  -3    4.00    2.70
  -7   2   3    0.70    2.30
   6  -2  -3    1.70    2.20
   6  -2  -3    0.70    2.00
  -6   2   3    0.50    2.00
   5  -2  -3    7.20    2.30
   5  -2  -3    8.90    2.20
  -5   2   3    7.10    2.10
   4  -2  -3   13.30    2.40
   4  -2  -3   19.80    2.50
  -4   2   3   16.70    2.30
   3  -2  -3   20.60    2.50
   3  -2  -3   27.70    2.40
  -3   2   3   28.90    2.50
   2  -2  -3   49.80    3.30
   2  -2  -3   45.30    2.80
  -2   2   3   46.20    2.80
   1  -2  -3   68.29    2.90
   1  -2  -3   62.59    3.50
   1  -2  -3   64.39    3.30
  -1   2   3   68.39    3.10
   0  -2  -3    4.00    1.00
   0  -2  -3    5.00    1.30
   0  -2  -3    2.10    1.20
  -1  -2  -3    4.30    1.30
  -1  -2  -3    2.90    0.90
  -1  -2  -3    4.70    1.30
   1   2   3    5.80    1.10
  -2  -2  -3   18.50    2.10
  -2  -2  -3   19.90    1.60
   2   2   3   20.40    1.80
   2   2   3   23.10    2.20
  -3  -2  -3    9.70    1.50
  -3  -2  -3   10.10    1.90
   3   2   3    9.20    1.80
   3   2   3   11.30    1.50
  -4  -2  -3   18.60    2.20
  -4  -2  -3   16.30    2.50
   4   2   3   18.40    2.00
   4   2   3   19.30    2.70
  -5  -2  -3    3.40    2.10
  -5  -2  -3    4.90    1.80
   5   2   3    2.70    2.00
  -6  -2  -3    1.50    2.40
  -6  -2  -3    2.50    2.00
   6   2   3    2.00    2.40
  -7  -2  -3   -0.90    2.80
  -7  -2  -3    0.50    2.20
   7   2   3    0.50    2.40
   8  -3  -3    4.60    3.30
   8  -3  -3    4.10    3.20
  -8   3   3    0.40    3.10
   7  -3  -3    2.30    2.70
   7  -3  -3    4.50    2.80
  -7   3   3   -2.80    2.50
   6  -3  -3    3.00    2.40
   6  -3  -3    1.70    2.40
  -6   3   3   -0.20    2.10
   5  -3  -3    6.60    2.40
   5  -3  -3    5.60    2.20
  -5   3   3    4.40    2.10
   4  -3  -3   -0.40    1.60
   4  -3  -3    0.00    1.50
  -4   3   3   -0.80    1.40
   3  -3  -3    5.70    1.70
   3  -3  -3    5.30    1.70
  -3   3   3    6.50    1.50
   2  -3  -3   15.40    2.00
   2  -3  -3   12.30    2.10
  -2   3   3   15.80    1.80
   1  -3  -3    1.60    1.40
   1  -3  -3    0.70    1.00
   1  -3  -3    0.10    1.20
  -1   3   3    0.80    0.90
   0  -3  -3  112.79    4.60
   0  -3  -3  110.89    4.90
   0   3   3  107.79    4.80
  -1  -3  -3    2.10    0.90
  -1  -3  -3   -0.60    1.30
  -1  -3  -3    0.20    1.20
   1   3   3    1.80    1.00
  -2  -3  -3   51.39    2.60
  -2  -3  -3   57.29    3.50
   2   3   3   55.79    3.10
   2   3   3   57.19    3.50
  -3  -3  -3    0.50    1.50
  -3  -3  -3    1.60    1.00
   3   3   3   -0.30    1.20
   3   3   3    1.30    1.40
  -4  -3  -3   -1.20    1.70
  -4  -3  -3   -2.90    1.10
   4   3   3   -0.30    1.40
   4   3   3   -0.70    1.60
  -5  -3  -3    0.80    1.50
  -5  -3  -3    2.90    2.20
   5   3   3    1.50    2.00
  -6  -3  -3    6.60    2.80
   6   3   3   13.70    3.00
  -7  -3  -3    0.60    2.90
   7   3   3   -1.10    2.80
   8  -4  -3    4.00    3.30
   8  -4  -3    1.50    3.30
  -8   4   3    4.20    3.40
   7  -4  -3   10.40    3.10
   7  -4  -3   14.50    3.50
  -7   4   3    9.70    3.30
   6  -4  -3   16.80    3.20
   6  -4  -3   11.60    2.90
  -6   4   3   12.70    3.00
   5  -4  -3   17.40    2.90
   5  -4  -3   22.40    3.30
  -5   4   3   16.90    2.80
   4  -4  -3   44.40    3.80
   4  -4  -3   35.10    3.70
  -4   4   3   44.20    3.60
   3  -4  -3    0.30    1.80
   3  -4  -3    6.20    1.90
  -3   4   3    4.70    1.50
   2  -4  -3   32.50    3.10
   2  -4  -3   25.70    2.70
  -2   4   3   28.80    2.30
   1  -4  -3    0.30    1.40
   1  -4  -3    2.00    1.10
  -1   4   3    1.00    0.90
  -1   4   3    1.20    1.30
   0  -4  -3    3.60    1.40
   0  -4  -3    4.90    1.70
   0   4   3    2.70    0.80
   0   4   3    2.20    1.30
  -1  -4  -3    3.90    1.50
  -1  -4  -3    4.00    1.60
   1   4   3    1.70    1.20
  -2  -4  -3    6.60    1.80
  -2  -4  -3    3.50    0.90
  -2  -4  -3    3.30    1.60
   2   4   3    3.30    1.40
  -3  -4  -3   -0.60    0.90
  -3  -4  -3    0.70    1.70
   3   4   3    2.00    1.50
   3   4   3   -0.60    1.60
  -4  -4  -3   14.10    2.80
   4   4   3   13.50    2.50
   4   4   3   11.90    2.40
  -5  -4  -3    0.20    2.20
   5   4   3   -0.10    2.10
  -6  -4  -3    8.40    3.10
   6   4   3    9.20    3.10
  -7  -4  -3   -0.20    3.10
   7   4   3   -0.40    2.70
   7  -5  -3   -2.40    2.70
   7  -5  -3   -1.10    2.50
  -7   5   3   -0.80    2.90
   6  -5  -3    1.90    2.50
   6  -5  -3    0.50    2.70
  -6   5   3   -2.00    2.50
   5  -5  -3   -1.50    2.20
   5  -5  -3   -2.30    2.10
  -5   5   3   -0.30    1.90
   4  -5  -3    6.70    2.30
   4  -5  -3    3.90    2.40
  -4   5   3    3.80    1.90
   3  -5  -3    1.00    1.90
   3  -5  -3    2.20    2.10
  -3   5   3    2.10    1.50
   2  -5  -3    6.60    2.00
   2  -5  -3    5.40    1.20
  -2   5   3    7.50    1.50
  -2   5   3    8.10    2.00
   1  -5  -3   -0.70    1.10
   1  -5  -3   -0.90    1.40
  -1   5   3   -0.20    0.90
  -1   5   3   -0.80    1.30
   0  -5  -3    2.10    1.70
   0  -5  -3    1.70    1.40
   0   5   3    2.40    0.80
   0   5   3    1.80    1.40
  -1  -5  -3   18.20    2.40
  -1  -5  -3   15.60    2.40
   1   5   3   13.30    2.20
  -2  -5  -3   -2.90    1.50
  -2  -5  -3    0.50    1.70
   2   5   3   -0.50    1.40
  -3  -5  -3   26.10    3.20
   3   5   3   30.70    3.30
   3   5   3   28.40    3.20
  -4  -5  -3    0.40    2.00
   4   5   3    1.70    2.00
   4   5   3    0.20    1.90
  -5  -5  -3    6.70    2.80
   5   5   3    8.90    2.80
  -6  -5  -3    3.90    3.00
   6   5   3    0.20    2.60
   7  -6  -3    0.40    3.00
   7  -6  -3   -0.10    3.00
  -7   6   3    5.80    3.30
   6  -6  -3   -1.50    2.50
   6  -6  -3    0.30    2.80
  -6   6   3   -1.80    2.40
   5  -6  -3    1.90    2.60
   5  -6  -3    1.30    2.40
  -5   6   3    1.00    2.30
   4  -6  -3   -0.10    2.20
  -4   6   3    0.40    1.90
  -4   6   3    2.60    2.10
   3  -6  -3   10.90    2.70
  -3   6   3    7.40    2.30
  -3   6   3    7.00    1.90
   2  -6  -3   -0.40    1.10
   2  -6  -3   -0.20    1.80
  -2   6   3    1.40    1.80
  -2   6   3    0.10    1.30
   1  -6  -3   30.00    2.70
   1  -6  -3   30.70    3.40
  -1   6   3   28.60    2.30
  -1   6   3   31.20    3.60
   0  -6  -3    7.10    1.90
   0  -6  -3    5.70    2.00
   0   6   3    6.80    2.10
  -1  -6  -3   17.40    2.70
  -1  -6  -3   16.10    2.80
   1   6   3   19.50    2.90
  -2  -6  -3   13.80    2.70
  -2  -6  -3   16.60    2.90
   2   6   3   15.60    2.80
  -3  -6  -3    4.50    2.30
   3   6   3    8.00    2.50
   3   6   3    8.20    2.50
  -4  -6  -3    3.90    2.60
   4   6   3    9.50    2.70
   4   6   3    2.00    2.40
  -5  -6  -3    2.60    2.70
   5   6   3    3.10    2.70
  -6  -6  -3    3.30    3.50
   6   6   3    2.50    2.90
   6  -7  -3    1.60    3.20
  -6   7   3    2.10    3.00
  -6   7   3    2.90    3.20
   5  -7  -3    2.20    2.70
  -5   7   3    1.90    2.50
  -5   7   3    1.20    2.60
   4  -7  -3    0.00    2.40
  -4   7   3    0.60    2.10
  -4   7   3   -0.90    1.90
   3  -7  -3    2.60    2.50
  -3   7   3    3.30    2.20
  -3   7   3    2.60    1.90
   2  -7  -3    4.10    2.30
  -2   7   3    4.80    2.20
   1  -7  -3   10.90    2.70
   1  -7  -3    4.30    1.60
  -1   7   3   11.40    2.70
   0  -7  -3   15.20    2.90
   0  -7  -3   13.00    2.30
   0   7   3   13.60    2.70
  -1  -7  -3    4.20    2.20
  -1  -7  -3    8.00    2.60
   1   7   3    2.50    2.20
  -2  -7  -3   15.90    3.20
  -2  -7  -3   14.30    2.80
   2   7   3    9.90    2.80
  -3  -7  -3   -0.20    2.20
   3   7   3    1.60    2.20
   3   7   3   -2.40    2.30
  -4  -7  -3    1.70    2.70
   4   7   3   -0.40    2.40
   4   7   3    2.00    2.70
  -5  -7  -3    0.70    3.10
   5   7   3   -0.80    2.70
   6  -8  -3   17.40    4.30
  -6   8   3   21.30    4.10
  -6   8   3   13.10    4.00
   5  -8  -3    2.00    3.00
  -5   8   3    2.80    2.90
  -5   8   3    0.20    2.70
   4  -8  -3   31.20    4.50
  -4   8   3   30.10    4.20
   3  -8  -3    3.90    2.80
  -3   8   3    3.40    2.40
   2  -8  -3   30.80    4.20
  -2   8   3   19.10    3.40
   1  -8  -3    1.40    1.60
   1  -8  -3    1.90    2.50
  -1   8   3   -1.10    2.00
   0  -8  -3    4.60    2.80
   0  -8  -3    2.60    2.00
   0   8   3    4.80    2.40
  -1  -8  -3   -1.20    2.10
  -1  -8  -3    0.70    2.70
   1   8   3    2.10    2.50
  -2  -8  -3    2.80    2.90
  -2  -8  -3    5.10    2.70
   2   8   3   -1.00    2.40
  -3  -8  -3    0.70    2.90
   3   8   3    1.30    2.80
   3   8   3    2.80    2.70
  -4  -8  -3    3.20    3.20
   4   8   3    5.10    4.00
   4   8   3    1.90    2.90
   5  -9  -3    5.70    3.80
  -5   9   3    1.90    3.20
   4  -9  -3    1.30    2.70
  -4   9   3    2.00    2.80
   3  -9  -3    2.20    3.20
  -3   9   3   -1.50    2.30
   2  -9  -3    5.40    3.20
  -2   9   3    5.80    2.90
   1  -9  -3    2.70    3.00
  -1   9   3    0.00    2.40
   0  -9  -3   13.10    3.70
   0  -9  -3    1.20    2.10
   0   9   3    9.40    3.20
  -1  -9  -3    2.80    3.30
  -1  -9  -3   -0.10    2.60
   1   9   3   -1.00    2.60
  -2  -9  -3    4.60    3.00
  -2  -9  -3    8.20    3.70
   2   9   3    5.60    3.20
  -3  -9  -3   -1.70    3.10
   3   9   3    3.90    3.20
   3   9   3    0.40    3.20
   3 -10  -3   -1.10    3.50
  -3  10   3   -1.10    2.90
   2 -10  -3    2.10    3.50
  -2  10   3   -1.80    2.80
   1 -10  -3    1.10    3.40
  -1  10   3    2.60    2.90
   0 -10  -3    0.50    2.60
   0 -10  -3    3.90    3.70
   0  10   3    2.90    3.20
  -1 -10  -3    1.20    3.00
  -1 -10  -3   -1.70    3.50
   1  10   3    0.70    3.20
  -2 -10  -3    1.20    3.60
  -2 -10  -3    5.90    4.00
   2  10   3    3.20    3.40
   1  12  -4    2.80    3.80
  -1 -12   4    3.50    4.00
  -1 -12   4   -0.10    4.00
   0  12  -4    4.60    3.70
   0 -12   4    1.30    3.50
   0 -12   4    0.50    3.90
  -1  12  -4    0.70    3.60
   1 -12   4    0.50    4.00
  -2  12  -4   -3.10    3.40
   2 -12   4    1.60    4.00
   3  11  -4    2.80    3.70
  -3 -11   4    2.60    4.00
   2  11  -4   -0.80    3.00
  -2 -11   4    0.40    3.40
  -2 -11   4    2.20    3.40
   1  11  -4    1.50    3.30
  -1 -11   4    2.90    3.40
  -1 -11   4    3.40    3.50
   0  11  -4    5.10    3.30
   0 -11   4    7.70    3.40
   0 -11   4    7.20    3.50
  -1  11  -4    0.10    3.10
   1 -11   4   -3.10    3.10
   1 -11   4    1.50    2.60
  -2  11  -4    7.40    3.50
   2 -11   4    9.30    3.90
  -3  11  -4   -1.30    3.40
   3 -11   4    3.20    4.10
  -4  11  -4    0.70    3.30
   4 -11   4    1.50    4.00
   4  10  -4   -4.00    3.00
  -4 -10   4    1.60    3.40
   3  10  -4    2.00    3.20
  -3 -10   4    0.90    3.30
   2  10  -4    0.30    2.80
  -2 -10   4    6.80    3.10
  -2 -10   4    3.50    3.30
   1  10  -4   -0.20    2.60
  -1 -10   4    0.90    2.90
  -1 -10   4   -0.80    2.60
   0  10  -4   12.20    3.50
   0 -10   4    9.80    3.10
   0 -10   4   15.70    3.50
  -1  10  -4    0.70    2.70
   1 -10   4    3.90    2.50
   1 -10   4    1.10    2.70
  -2  10  -4    0.60    2.70
   2 -10   4   -2.80    2.90
   2 -10   4   -1.20    2.00
  -3  10  -4   -1.80    2.50
   3 -10   4    0.30    3.10
  -4  10  -4    2.90    3.20
  -4  10  -4    1.40    3.80
   4 -10   4    4.00    3.90
  -5  10  -4   -1.40    2.80
  -5  10  -4    2.90    3.40
   5 -10   4    1.20    3.80
   5   9  -4   18.80    4.20
  -5  -9   4   21.50    4.60
   4   9  -4    0.90    2.30
   4   9  -4   -2.40    2.70
  -4  -9   4   -1.70    2.80
   3   9  -4   35.90    4.90
  -3  -9   4   50.89    5.50
   2   9  -4    0.90    2.40
  -2  -9   4    1.70    2.80
  -2  -9   4    0.40    2.30
   1   9  -4   58.89    5.60
  -1  -9   4   65.09    5.00
   0   9  -4   -1.50    2.20
   0  -9   4    1.80    2.20
   0  -9   4    0.00    2.30
  -1   9  -4   42.10    4.60
   1  -9   4   45.40    4.30
   1  -9   4   48.20    4.60
  -2   9  -4    1.00    2.40
  -2   9  -4    6.00    2.50
   2  -9   4    1.50    1.90
   2  -9   4    1.50    2.70
  -3   9  -4   11.80    3.20
  -3   9  -4   13.20    2.90
   3  -9   4   12.40    3.50
  -4   9  -4    6.90    2.90
  -4   9  -4    3.30    2.70
   4  -9   4    7.30    3.40
  -5   9  -4   -1.10    2.90
  -5   9  -4   -0.60    2.50
   5  -9   4    3.60    3.60
  -6   9  -4   -1.60    3.20
   6  -9   4   -1.00    3.80
   6   8  -4    0.40    3.20
  -6  -8   4    4.00    3.30
   5   8  -4   38.40    4.90
  -5  -8   4   33.00    4.70
   4   8  -4    0.70    2.50
   4   8  -4   -0.90    1.80
  -4  -8   4    4.80    2.90
   3   8  -4   82.29    6.00
  -3  -8   4   85.29    6.00
   2   8  -4    0.70    2.00
  -2  -8   4    2.40    2.30
  -2  -8   4   -1.70    1.90
   1   8  -4  115.09    6.50
  -1  -8   4  107.89    6.20
  -1  -8   4  117.29    6.00
   0   8  -4   15.00    3.00
   0  -8   4   13.40    2.50
   0  -8   4   16.30    2.80
  -1   8  -4  116.59    6.40
  -1   8  -4  114.29    5.30
   1  -8   4  113.69    6.20
   1  -8   4  106.79    5.90
  -2   8  -4   27.50    3.50
  -2   8  -4   22.20    2.80
   2  -8   4   17.40    3.00
   2  -8   4   21.90    2.90
  -3   8  -4   74.49    5.10
  -3   8  -4   63.89    4.70
   3  -8   4   69.19    5.40
  -4   8  -4    0.20    2.20
  -4   8  -4    0.20    2.30
   4  -8   4    3.70    2.60
  -5   8  -4   31.30    4.10
   5  -8   4   39.10    4.80
  -6   8  -4    8.50    3.50
   6  -8   4    7.20    3.50
   6   7  -4    3.70    3.10
  -6  -7   4    0.80    3.00
   5   7  -4   -1.70    1.70
   5   7  -4    2.50    2.50
  -5  -7   4    1.90    2.60
   4   7  -4   -0.80    2.00
   4   7  -4    0.40    1.50
  -4  -7   4   -0.80    2.30
   3   7  -4    3.50    1.60
   3   7  -4    4.90    2.40
  -3  -7   4    6.00    2.40
   2   7  -4    3.90    2.00
  -2  -7   4    5.70    1.90
  -2  -7   4    5.00    2.10
   1   7  -4   -0.20    1.10
   1   7  -4    0.10    1.80
  -1  -7   4    0.50    1.60
  -1  -7   4   -0.10    1.80
   0   7  -4   17.60    2.00
   0   7  -4   23.70    3.10
   0  -7   4   25.30    2.70
   0  -7   4   21.90    2.80
  -1   7  -4   -0.90    1.30
  -1   7  -4   -0.60    1.60
   1  -7   4   -0.30    1.60
   1  -7   4   -0.60    1.60
  -2   7  -4    1.80    1.60
  -2   7  -4    0.90    1.80
   2  -7   4   -0.80    1.70
   2  -7   4   -0.10    1.60
  -3   7  -4    0.00    1.80
  -3   7  -4    0.00    1.80
   3  -7   4    0.50    1.50
   3  -7   4    0.00    1.90
  -4   7  -4    5.00    2.40
  -4   7  -4    4.20    2.20
   4  -7   4    9.30    2.70
  -5   7  -4    0.50    2.40
  -5   7  -4   -0.20    1.90
   5  -7   4    3.10    2.50
  -6   7  -4    6.90    3.10
   6  -7   4    2.80    2.90
  -7   7  -4    3.40    3.30
   7  -7   4    0.10    3.20
   7   6  -4    2.70    3.30
  -7  -6   4    5.50    3.10
   6   6  -4    0.00    2.30
   6   6  -4    8.90    3.00
  -6  -6   4    4.80    2.80
   5   6  -4   13.00    3.10
  -5  -6   4   10.90    2.90
   4   6  -4   32.10    3.00
   4   6  -4   40.70    4.10
  -4  -6   4   32.90    3.80
   3   6  -4   37.50    3.00
   3   6  -4   41.80    4.00
  -3  -6   4   42.30    4.10
   2   6  -4   66.19    4.40
  -2  -6   4   65.19    3.60
  -2  -6   4   62.99    3.00
  -2  -6   4   65.89    4.30
   1   6  -4   41.10    3.40
   1   6  -4   40.00    2.50
  -1  -6   4   41.20    2.90
  -1  -6   4   38.10    3.50
   0   6  -4   18.40    1.90
   0   6  -4   14.20    2.30
   0  -6   4   12.40    2.20
   0  -6   4   15.50    2.00
  -1   6  -4   14.10    2.20
  -1   6  -4   12.70    1.80
   1  -6   4   13.80    2.10
   1  -6   4   13.40    2.20
  -2   6  -4    5.80    1.70
  -2   6  -4    8.30    2.00
   2  -6   4    7.10    1.90
   2  -6   4    9.10    2.00
  -3   6  -4    2.70    1.70
  -3   6  -4    1.50    1.60
   3  -6   4    1.00    1.50
   3  -6   4    0.10    1.70
  -4   6  -4    5.50    1.80
  -4   6  -4    4.10    2.10
   4  -6   4   -1.60    1.40
   4  -6   4    5.00    2.20
  -5   6  -4   -0.80    1.60
  -5   6  -4   -1.60    2.00
   5  -6   4    2.10    2.30
  -6   6  -4    1.30    2.50
   6  -6   4    0.60    2.80
  -7   6  -4    5.80    3.20
   7  -6   4    1.70    3.10
   7   5  -4    1.50    2.90
  -7  -5   4   -1.70    2.50
   6   5  -4    2.00    2.50
   6   5  -4   -0.30    1.70
  -6  -5   4    1.60    2.20
  -6  -5   4   -0.80    1.80
   5   5  -4    3.40    2.30
   5   5  -4   -1.50    1.30
  -5  -5   4    1.60    1.40
  -5  -5   4    0.80    2.10
   4   5  -4   -0.40    1.20
   4   5  -4   -0.80    1.70
  -4  -5   4    1.40    2.00
  -4  -5   4   -1.00    1.10
   3   5  -4   25.70    2.20
   3   5  -4   27.60    3.10
  -3  -5   4   32.20    2.40
  -3  -5   4   24.40    2.90
   2   5  -4   12.10    1.50
   2   5  -4   14.30    2.40
  -2  -5   4    8.30    1.90
  -2  -5   4   12.90    1.70
   1   5  -4  166.88    6.80
   1   5  -4  156.88    6.00
  -1  -5   4  170.88    6.90
  -1  -5   4  159.98    6.10
   0   5  -4   87.49    4.10
   0   5  -4  100.79    4.70
   0  -5   4   99.79    4.80
   0  -5   4  102.99    4.30
  -1   5  -4  212.58    8.30
  -1   5  -4  223.98    8.10
   1  -5   4  226.28    8.40
   1  -5   4  217.78    8.10
  -2   5  -4   89.59    4.30
  -2   5  -4   86.79    4.30
   2  -5   4   83.69    4.30
   2  -5   4   91.29    4.60
  -3   5  -4   73.69    3.80
  -3   5  -4   70.59    4.20
   3  -5   4   73.29    4.00
   3  -5   4   70.69    4.40
  -4   5  -4    9.20    2.20
  -4   5  -4    8.40    1.70
   4  -5   4    8.50    2.30
   4  -5   4    9.50    1.90
  -5   5  -4    0.50    2.20
  -5   5  -4    7.70    2.40
   5  -5   4    9.10    2.90
   5  -5   4   -1.60    1.80
  -6   5  -4    2.30    2.40
   6  -5   4   -3.30    2.20
  -7   5  -4   -0.40    2.60
   7  -5   4    5.20    3.00
   7   4  -4    3.40    2.90
   7   4  -4   -1.50    1.90
  -7  -4   4   -2.40    1.80
  -7  -4   4    1.50    2.50
   6   4  -4   -1.20    1.60
   6   4  -4   -1.20    2.20
  -6  -4   4   -1.10    2.00
  -6  -4   4   -0.30    1.80
   5   4  -4    5.80    1.80
   5   4  -4    6.30    2.30
  -5  -4   4    5.80    2.10
  -5  -4   4    4.50    1.70
   4   4  -4    0.90    1.30
   4   4  -4   -1.10    1.50
  -4  -4   4   -0.30    1.60
  -4  -4   4    0.80    1.30
   3   4  -4   10.20    2.00
   3   4  -4   12.10    1.50
  -3  -4   4   14.20    1.70
  -3  -4   4   11.90    2.00
   2   4  -4    1.80    0.90
   2   4  -4    0.40    1.30
   2   4  -4    1.30    0.90
  -2  -4   4    1.00    1.30
   1   4  -4   40.00    2.90
   1   4  -4   45.20    2.60
  -1  -4   4   43.70    3.10
   0   4  -4    5.50    1.40
   0   4  -4    6.50    1.30
   0  -4   4    5.90    1.70
   0  -4   4    8.60    1.30
  -1   4  -4  164.88    6.30
  -1   4  -4  166.88    6.40
   1  -4   4  160.88    6.30
   1  -4   4  170.28    6.50
  -2   4  -4   40.50    2.80
  -2   4  -4   35.30    2.40
   2  -4   4   37.60    2.90
   2  -4   4   36.90    2.80
  -3   4  -4  193.08    7.10
  -3   4  -4  191.58    7.70
   3  -4   4  193.48    7.80
   3  -4   4  189.18    7.40
  -4   4  -4   28.40    2.30
  -4   4  -4   26.60    2.90
   4  -4   4   25.20    3.00
   4  -4   4   24.30    2.60
  -5   4  -4   85.69    5.20
   5  -4   4   83.79    5.50
  -6   4  -4    6.50    2.40
   6  -4   4    2.30    2.40
  -7   4  -4   11.00    3.10
   7  -4   4   13.10    3.50
  -8   4  -4    2.20    3.10
   8   3  -4    3.30    3.50
  -8  -3   4    0.50    2.50
   7   3  -4    1.60    2.90
   7   3  -4   -0.70    1.90
  -7  -3   4   -0.50    2.10
  -7  -3   4    0.10    2.30
   6   3  -4    2.10    1.70
   6   3  -4   -0.60    2.10
  -6  -3   4    1.10    1.90
  -6  -3   4    0.50    2.00
   5   3  -4    1.70    2.00
   5   3  -4    3.60    1.50
  -5  -3   4    5.20    1.80
  -5  -3   4    4.10    1.80
   4   3  -4   -0.80    1.00
   4   3  -4   -1.40    1.50
  -4  -3   4    0.30    1.40
  -4  -3   4    0.90    1.30
   3   3  -4   12.10    1.40
   3   3  -4   15.00    2.20
  -3  -3   4   16.60    1.80
  -3  -3   4   10.80    1.90
   2   3  -4   -0.80    1.20
   2   3  -4   -0.60    0.90
  -2  -3   4   -1.60    1.20
   1   3  -4   15.50    1.70
   1   3  -4   17.40    2.00
  -1  -3   4   14.60    1.90
   0   3  -4   -1.40    1.00
   0   3  -4   -0.30    1.00
   0  -3   4   -0.70    0.80
   0  -3   4    0.50    1.20
  -1   3  -4   -1.70    1.00
  -1   3  -4   -0.40    0.90
   1  -3   4   -0.70    1.20
   1  -3   4   -0.90    1.10
  -2   3  -4    2.80    0.90
  -2   3  -4    0.10    1.10
   2  -3   4    6.00    1.60
   2  -3   4    1.20    1.30
  -3   3  -4    0.10    1.30
  -3   3  -4    2.10    0.90
   3  -3   4    2.40    1.60
  -4   3  -4   -0.40    0.90
  -4   3  -4   -0.70    1.50
  -4   3  -4    0.10    1.50
   4  -3   4    0.50    1.60
  -5   3  -4    2.00    1.90
  -5   3  -4    0.80    1.80
   5  -3   4    2.10    2.10
  -6   3  -4    1.70    2.10
   6  -3   4    3.70    2.50
  -7   3  -4    1.80    2.50
   7  -3   4    5.60    2.90
  -8   3  -4    5.40    3.20
   8  -3   4   -0.40    3.00
   8   2  -4   -0.90    3.20
   8   2  -4   -0.80    2.40
  -8  -2   4   -0.20    2.60
   7   2  -4    6.60    3.10
   7   2  -4    0.50    2.10
  -7  -2   4    9.60    2.80
   6   2  -4    0.30    1.60
   6   2  -4    3.00    2.50
  -6  -2   4    0.70    2.00
  -6  -2   4    0.00    1.90
   5   2  -4   14.80    2.10
   5   2  -4   11.70    2.60
  -5  -2   4   14.60    2.40
  -5  -2   4   13.60    2.10
   4   2  -4    1.30    1.10
   4   2  -4   -0.30    1.60
  -4  -2   4    0.50    1.30
  -4  -2   4    2.00    1.40
   3   2  -4   -0.20    0.80
   3   2  -4    0.30    1.30
  -3  -2   4    1.80    1.20
  -3  -2   4    2.90    1.20
   2   2  -4   25.80    2.60
  -2  -2   4   28.60    2.30
   1   2  -4   70.69    3.70
   1   2  -4   73.09    3.40
  -1  -2   4   76.09    3.60
   0   2  -4  102.49    4.20
   0   2  -4   99.59    4.00
   0  -2   4   94.49    4.30
  -1   2  -4  198.58    6.70
  -1   2  -4  197.58    7.20
   1  -2   4  198.58    7.00
   1  -2   4  196.28    7.30
  -2   2  -4   48.20    2.90
  -2   2  -4   47.50    3.00
   2  -2   4   49.60    3.00
  -3   2  -4  159.88    6.60
  -3   2  -4  163.28    6.60
   3  -2   4  165.08    6.80
  -4   2  -4    7.20    1.90
  -4   2  -4    4.80    1.70
   4  -2   4    4.40    1.70
  -5   2  -4   78.49    4.70
  -5   2  -4   70.19    4.70
   5  -2   4   77.49    5.10
  -6   2  -4    0.10    2.20
  -6   2  -4    1.30    2.30
   6  -2   4    0.60    2.10
  -7   2  -4   27.00    3.90
   7  -2   4   24.70    4.00
  -8   2  -4    0.90    2.80
   8  -2   4    0.30    3.00
   8   1  -4    0.80    3.20
   8   1  -4   -1.50    2.30
  -8  -1   4    1.30    2.70
   7   1  -4   -1.20    1.80
   7   1  -4    1.50    2.80
  -7  -1   4   -0.50    2.30
   6   1  -4    8.30    2.10
   6   1  -4    8.20    2.80
  -6  -1   4    8.20    2.50
   5   1  -4   10.20    2.60
   5   1  -4    7.20    1.90
  -5  -1   4    3.10    1.80
  -5  -1   4    6.00    1.70
   4   1  -4   62.19    3.40
   4   1  -4   62.39    4.40
  -4  -1   4   61.49    3.30
  -4  -1   4   62.59    3.80
   3   1  -4   31.80    3.10
   3   1  -4   33.30    2.30
  -3  -1   4   36.70    2.60
  -3  -1   4   35.50    2.40
   2   1  -4  130.19    6.20
  -2  -1   4  149.99    5.60
  -2  -1   4  146.49    5.40
   1   1  -4   26.70    2.50
   1   1  -4   29.70    2.30
  -1  -1   4   30.40    2.30
   0   1  -4   82.59    3.80
   0   1  -4   97.99    3.80
   0  -1   4   85.69    4.00
   0  -1   4   92.39    3.40
  -1   1  -4   10.90    1.50
   1  -1   4    9.20    1.40
  -2   1  -4   16.10    2.00
  -2   1  -4   20.00    1.90
   2  -1   4   16.80    2.00
  -3   1  -4   36.10    2.90
  -4   1  -4    7.40    1.90
  -4   1  -4   10.40    2.00
   4  -1   4    9.20    2.00
  -5   1  -4   12.90    2.40
  -6   1  -4    3.00    2.50
   6  -1   4    1.60    2.10
  -7   1  -4    5.60    3.10
  -7   1  -4    3.60    2.60
   7  -1   4    1.80    2.50
  -8   1  -4    1.20    3.20
   8  -1   4   -0.60    2.70
   8   0  -4   -2.20    3.00
   8   0  -4   -1.50    2.30
  -8   0   4   -1.90    2.80
   7   0  -4    0.80    2.10
   7   0  -4    1.10    2.60
  -7   0   4   -0.70    2.10
   6   0  -4   -1.50    2.20
   6   0  -4    1.00    1.90
  -6   0   4   -0.20    2.00
   5   0  -4    0.00    1.40
   5   0  -4    2.20    2.00
  -5   0   4   -0.90    1.30
  -5   0   4    0.00    1.60
   4   0  -4    0.90    1.30
   4   0  -4   -2.20    1.60
  -4   0   4    2.20    1.10
  -4   0   4    1.90    1.50
   3   0  -4    8.60    1.40
   3   0  -4    7.60    1.90
  -3   0   4    8.40    1.20
  -3   0   4    8.20    1.60
   2   0  -4    4.50    1.70
   2   0  -4    1.40    0.90
  -2   0   4    1.40    0.90
  -2   0   4    1.80    1.20
   1   0  -4   83.99    3.90
   1   0  -4   82.09    3.40
   1   0  -4   89.19    4.10
  -1   0   4   84.99    3.60
   0   0  -4   10.50    1.60
   0   0  -4    9.30    1.40
   0   0  -4   10.90    1.30
   0   0  -4   10.70    1.40
  -1   0  -4  148.09    5.70
  -1   0  -4  150.48    5.60
  -1   0  -4  143.09    5.00
   1   0   4  146.99    5.60
  -2   0  -4    4.60    1.30
  -2   0  -4    5.40    1.60
   2   0   4    2.60    1.40
  -3   0  -4   44.90    3.20
  -3   0  -4   42.30    2.90
   3   0   4   41.70    3.20
  -4   0  -4    4.30    1.80
  -4   0  -4    2.90    1.60
   4   0   4   -0.50    1.70
  -5   0  -4    3.80    2.20
  -5   0  -4    5.10    2.00
   5   0   4    2.90    1.90
  -6   0  -4   -1.10    2.00
  -6   0  -4   -2.80    2.20
   6   0   4   -0.70    1.90
  -7   0  -4    0.90    2.80
  -7   0  -4    0.80    2.40
   7   0   4    2.80    2.50
  -8   0  -4    0.10    3.10
   8   0   4    1.50    2.90
   8  -1  -4    1.80    2.70
   8  -1  -4    1.30    2.90
  -8   1   4   -2.40    2.70
   7  -1  -4    6.00    2.60
   7  -1  -4    5.90    3.00
  -7   1   4    7.40    2.70
   6  -1  -4    2.30    2.00
   6  -1  -4    3.10    2.40
  -6   1   4    5.40    2.30
   5  -1  -4   20.00    3.10
   5  -1  -4   31.80    3.10
  -5   1   4   32.30    3.30
   4  -1  -4   13.30    2.00
   4  -1  -4   15.70    2.50
  -4   1   4   11.20    2.10
   3  -1  -4   57.49    3.30
   3  -1  -4   63.39    3.90
  -3   1   4   64.99    3.50
   2  -1  -4    1.60    1.10
   2  -1  -4    2.60    1.50
  -2   1   4    3.10    1.20
   1  -1  -4   20.10    1.70
   1  -1  -4   21.40    1.80
   1  -1  -4   17.20    2.00
   1  -1  -4   20.50    1.90
   0  -1  -4   22.90    1.90
   0  -1  -4   24.50    2.10
   0  -1  -4   19.60    1.80
   0  -1  -4   19.50    1.80
  -1  -1  -4   14.00    1.80
  -1  -1  -4   11.60    1.40
   1   1   4    9.80    1.20
   1   1   4   12.70    1.60
  -2  -1  -4   20.80    2.20
  -2  -1  -4   21.70    1.90
   2   1   4   17.60    1.40
   2   1   4   18.90    2.10
  -3  -1  -4   24.10    2.10
  -3  -1  -4   31.20    2.90
   3   1   4   22.80    2.50
   3   1   4   18.80    1.60
  -4  -1  -4    4.70    1.60
  -4  -1  -4    2.10    1.80
   4   1   4    3.30    1.80
  -5  -1  -4    9.70    2.60
  -5  -1  -4    7.50    2.00
   5   1   4    6.50    2.30
  -6  -1  -4   -1.90    2.30
  -6  -1  -4    0.40    2.00
   6   1   4   -1.30    2.10
  -7  -1  -4    3.00    3.20
  -7  -1  -4    3.50    2.80
   7   1   4   -0.40    2.50
   8  -2  -4    2.30    2.90
   8  -2  -4    1.60    3.20
  -8   2   4    1.70    3.00
   7  -2  -4    2.30    2.40
   7  -2  -4   -1.60    2.50
  -7   2   4    0.50    2.30
   6  -2  -4   -0.50    1.90
   6  -2  -4   -3.00    2.00
  -6   2   4   -0.20    2.00
   5  -2  -4    0.30    1.70
   5  -2  -4    2.10    2.00
  -5   2   4   -1.10    1.80
   4  -2  -4   12.90    2.50
   4  -2  -4   14.00    2.20
  -4   2   4   13.00    2.20
   3  -2  -4    2.40    1.40
   3  -2  -4    4.30    1.80
  -3   2   4    4.50    1.40
   2  -2  -4  102.49    4.50
   2  -2  -4   93.29    4.80
  -2   2   4  105.69    4.50
   1  -2  -4   66.59    3.10
   1  -2  -4   70.69    3.80
   1  -2  -4   71.89    3.60
  -1   2   4   70.29    3.30
   0  -2  -4  102.19    4.60
   0  -2  -4  104.09    4.20
   0  -2  -4  102.49    4.60
   0  -2  -4  109.19    4.50
  -1  -2  -4  140.79    5.30
  -1  -2  -4  143.49    5.80
  -1  -2  -4  143.19    5.90
   1   2   4  142.19    5.50
  -2  -2  -4   11.50    1.40
  -2  -2  -4   11.10    1.90
   2   2   4    9.50    1.30
   2   2   4    9.00    2.10
  -3  -2  -4   34.10    3.10
  -3  -2  -4   40.80    2.60
   3   2   4   34.50    2.40
   3   2   4   40.70    3.30
  -4  -2  -4    3.60    1.50
  -4  -2  -4    0.30    1.90
   4   2   4    2.80    1.90
  -5  -2  -4   -1.30    1.60
  -5  -2  -4    1.00    2.10
   5   2   4    3.60    2.10
  -6  -2  -4    1.10    1.80
  -6  -2  -4    3.60    2.70
   6   2   4    3.30    2.30
  -7  -2  -4   -2.50    2.40
  -7  -2  -4   -3.10    2.90
   7   2   4   -1.20    2.50
   8  -3  -4    2.50    2.90
   8  -3  -4    3.80    3.20
  -8   3   4   -3.70    2.80
   7  -3  -4    1.60    2.60
   7  -3  -4    1.90    2.70
  -7   3   4    1.50    2.60
   6  -3  -4    0.90    2.40
   6  -3  -4    0.50    2.20
  -6   3   4    4.40    2.60
   5  -3  -4    0.60    1.90
   5  -3  -4    0.00    2.10
  -5   3   4    2.40    2.10
   4  -3  -4    5.00    2.10
   4  -3  -4    7.10    1.90
  -4   3   4    8.90    2.00
   3  -3  -4    5.70    1.70
   3  -3  -4    3.70    1.80
  -3   3   4    4.30    1.50
   2  -3  -4    2.60    1.60
   2  -3  -4    0.50    1.40
  -2   3   4    1.50    1.20
   1  -3  -4    3.90    1.40
   1  -3  -4    1.50    1.50
   1  -3  -4    1.80    1.10
  -1   3   4    0.90    1.00
   0  -3  -4   68.39    3.70
   0  -3  -4   64.79    3.40
   0  -3  -4   60.79    3.00
   0   3   4   64.59    3.40
  -1  -3  -4    0.50    1.30
  -1  -3  -4   -0.70    1.30
  -1  -3  -4   -0.40    0.80
   1   3   4    0.20    1.00
  -2  -3  -4  156.28    5.80
  -2  -3  -4  151.88    6.60
   2   3   4  157.68    6.20
   2   3   4  155.88    6.70
  -3  -3  -4    5.20    1.90
  -3  -3  -4    3.50    1.20
   3   3   4    4.00    1.40
   3   3   4    4.50    1.90
  -4  -3  -4   79.69    5.00
   4   3   4   84.39    5.10
  -5  -3  -4    4.80    2.40
  -5  -3  -4   -0.50    1.50
   5   3   4    7.00    2.40
  -6  -3  -4    8.30    3.00
   6   3   4   11.80    3.00
  -7  -3  -4    8.40    3.70
   7   3   4    1.30    2.90
   7  -4  -4   -0.90    2.70
   7  -4  -4    3.20    2.90
  -7   4   4    0.90    2.90
   6  -4  -4    6.40    2.60
   6  -4  -4    5.60    2.80
  -6   4   4    4.00    2.70
   5  -4  -4    1.60    2.20
   5  -4  -4    1.20    2.30
  -5   4   4    1.30    2.10
   4  -4  -4    2.30    2.10
   4  -4  -4    0.60    1.90
  -4   4   4    5.10    2.00
   3  -4  -4    3.40    2.00
   3  -4  -4    3.40    1.80
  -3   4   4    1.50    1.40
   2  -4  -4    9.60    2.00
   2  -4  -4    7.60    2.20
  -2   4   4    4.10    1.50
   1  -4  -4    6.60    1.90
   1  -4  -4    5.00    1.30
  -1   4   4    5.30    1.20
  -1   4   4    5.80    1.70
   0  -4  -4   35.00    3.10
   0  -4  -4   34.60    2.80
   0   4   4   35.50    3.10
   0   4   4   32.10    2.10
  -1  -4  -4    1.20    0.90
  -1  -4  -4    0.60    1.40
  -1  -4  -4   -1.30    1.40
   1   4   4    1.20    1.30
  -2  -4  -4   17.40    2.40
   2   4   4   20.40    2.40
  -3  -4  -4    1.00    1.80
   3   4   4    1.30    1.60
   3   4   4   -0.90    1.70
  -4  -4  -4    0.30    2.10
   4   4   4    2.20    2.00
  -5  -4  -4    2.70    2.50
   5   4   4    1.10    2.20
  -6  -4  -4    5.10    2.90
   6   4   4    2.00    2.60
   7  -5  -4    5.50    3.20
   7  -5  -4    5.10    3.20
  -7   5   4   -1.20    3.00
   6  -5  -4    0.90    2.70
   6  -5  -4    2.00    2.80
  -6   5   4    0.90    2.60
   5  -5  -4    2.80    2.40
   5  -5  -4    6.00    2.90
  -5   5   4    7.60    2.50
   4  -5  -4   -3.00    1.90
   4  -5  -4   -2.50    2.30
  -4   5   4    1.90    2.00
   3  -5  -4   15.70    2.70
   3  -5  -4   18.10    3.00
  -3   5   4   12.70    2.20
   2  -5  -4    9.10    2.10
   2  -5  -4    1.10    1.10
  -2   5   4    7.40    1.60
  -2   5   4    6.30    2.00
   1  -5  -4   19.70    2.20
   1  -5  -4   22.10    2.90
  -1   5   4   26.10    3.10
  -1   5   4   25.80    2.10
   0  -5  -4   39.50    3.50
   0  -5  -4   39.20    3.10
   0   5   4   32.50    2.10
   0   5   4   33.40    3.30
  -1  -5  -4    8.00    2.20
  -1  -5  -4    7.00    2.00
   1   5   4    6.40    1.80
  -2  -5  -4   58.39    4.40
  -2  -5  -4   52.19    4.00
   2   5   4   61.19    4.10
  -3  -5  -4   -0.20    1.80
   3   5   4    0.10    1.80
   3   5   4    0.20    2.00
  -4  -5  -4   37.90    4.10
   4   5   4   38.80    4.10
  -5  -5  -4    0.60    2.60
   5   5   4    0.90    2.40
  -6  -5  -4   17.80    3.90
   6   5   4   11.50    3.50
   7  -6  -4    2.80    3.30
   7  -6  -4    6.30    3.50
  -7   6   4    7.60    3.70
   6  -6  -4    0.50    3.00
   6  -6  -4    1.00    3.10
  -6   6   4    1.00    2.90
   5  -6  -4   28.80    4.50
   5  -6  -4   33.30    4.30
  -5   6   4   30.10    3.90
   4  -6  -4    2.90    2.50
  -4   6   4    3.30    2.20
   3  -6  -4   52.69    4.70
  -3   6   4   46.10    4.50
  -3   6   4   45.90    3.60
   2  -6  -4    0.00    1.30
   2  -6  -4    2.30    2.10
  -2   6   4    2.30    1.90
  -2   6   4    3.20    1.50
   1  -6  -4   23.30    2.50
   1  -6  -4   21.00    3.10
  -1   6   4   25.00    3.20
   0  -6  -4    4.10    2.20
   0  -6  -4    1.90    1.70
   0   6   4    1.60    1.70
  -1  -6  -4    5.60    2.20
  -1  -6  -4    3.60    2.40
   1   6   4    6.20    2.20
  -2  -6  -4    2.50    2.30
  -2  -6  -4   -0.30    1.90
   2   6   4    1.20    2.00
  -3  -6  -4    1.40    2.20
   3   6   4   -0.30    2.10
   3   6   4    0.30    2.10
  -4  -6  -4    4.20    2.60
   4   6   4    4.40    2.60
  -5  -6  -4    3.40    3.10
   5   6   4    2.80    2.80
   6  -7  -4    3.60    3.30
  -6   7   4    2.10    3.10
  -6   7   4    0.10    3.00
   5  -7  -4    8.00    3.30
  -5   7   4    5.50    2.80
  -5   7   4    4.70    2.80
   4  -7  -4    2.60    2.80
  -4   7   4    2.80    2.50
  -4   7   4    3.10    2.30
   3  -7  -4    2.80    2.60
  -3   7   4    1.40    2.10
  -3   7   4   -0.50    2.00
   2  -7  -4    1.70    2.40
  -2   7   4    1.90    2.10
   1  -7  -4   -3.20    1.40
   1  -7  -4    2.30    2.40
  -1   7   4    0.40    2.00
   0  -7  -4    2.50    2.40
   0  -7  -4    3.50    2.10
   0   7   4    0.50    2.00
  -1  -7  -4    8.80    2.80
  -1  -7  -4    8.40    2.70
   1   7   4    9.20    2.70
  -2  -7  -4   -2.60    2.00
  -2  -7  -4    0.10    2.40
   2   7   4    1.00    2.20
  -3  -7  -4   10.40    3.00
   3   7   4    6.50    2.80
   3   7   4    9.00    3.10
  -4  -7  -4    0.10    2.80
   4   7   4    1.40    2.60
  -5  -7  -4   -0.40    3.30
   5   7   4    1.00    2.90
   5  -8  -4   -0.20    3.00
  -5   8   4    1.00    2.90
   4  -8  -4   -1.50    2.80
  -4   8   4    0.20    2.60
   3  -8  -4    1.10    2.80
  -3   8   4    6.30    2.70
   2  -8  -4   -1.20    2.50
  -2   8   4   -2.80    2.00
   1  -8  -4    4.00    2.90
   1  -8  -4   -0.30    1.90
  -1   8   4    5.50    2.70
   0  -8  -4    0.10    1.90
   0  -8  -4    0.70    2.50
   0   8   4    2.00    2.40
  -1  -8  -4    2.80    2.50
  -1  -8  -4    1.40    2.90
   1   8   4    4.20    2.60
  -2  -8  -4   -1.30    2.80
  -2  -8  -4    1.40    2.70
   2   8   4    1.30    2.70
  -3  -8  -4   -0.70    2.90
   3   8   4    0.30    2.80
   3   8   4   -1.30    2.70
  -4  -8  -4    0.80    3.20
   4   8   4    5.40    3.30
   4  -9  -4    4.50    3.50
  -4   9   4    0.30    2.80
   3  -9  -4    0.60    3.00
  -3   9   4   -2.70    2.50
   2  -9  -4    4.30    3.10
  -2   9   4   -1.10    2.50
   1  -9  -4    2.10    3.00
  -1   9   4    1.60    2.60
   0  -9  -4   -0.90    3.00
   0  -9  -4   -1.20    2.10
   0   9   4   -0.70    2.60
  -1  -9  -4   -0.20    3.30
  -1  -9  -4    3.00    2.80
   1   9   4    1.90    2.80
  -2  -9  -4   -1.40    3.40
  -2  -9  -4    1.20    3.30
   2   9   4    0.10    3.10
  -3  -9  -4   -0.80    3.30
   3   9   4   -3.40    2.90
   3   9   4    2.70    3.50
   2 -10  -4   -0.60    3.60
  -2  10   4    1.70    3.10
   1 -10  -4   -1.60    3.50
  -1  10   4    0.60    2.80
   0 -10  -4   -2.90    3.50
   0  10   4   -0.80    3.00
   1  10   4    5.10    3.70
   1  12  -5    0.50    3.60
  -1 -12   5    1.60    4.00
   0  12  -5   18.20    4.70
   0 -12   5   14.70    4.60
   0 -12   5   14.00    4.40
  -1  12  -5   -1.10    3.40
   1 -12   5    1.20    4.00
   1 -12   5    0.90    3.20
  -2  12  -5    8.60    4.40
   2 -12   5   14.80    4.80
   3  11  -5    2.90    3.50
  -3 -11   5    2.90    3.70
   2  11  -5   -0.20    3.10
  -2 -11   5    3.30    3.40
   1  11  -5    5.60    3.20
  -1 -11   5    3.10    3.20
  -1 -11   5    0.30    3.20
   0  11  -5    0.80    3.00
   0 -11   5    0.80    3.30
   0 -11   5    4.70    3.20
  -1  11  -5    0.60    3.10
   1 -11   5    0.50    2.50
   1 -11   5   -0.40    3.20
  -2  11  -5   17.60    4.30
   2 -11   5   11.90    4.00
  -3  11  -5    2.20    3.20
   3 -11   5    0.00    3.60
  -4  11  -5   12.30    4.00
   4 -11   5   15.80    4.70
   4  10  -5    7.10    3.80
  -4 -10   5    0.80    3.40
   3  10  -5    1.40    3.20
  -3 -10   5    3.10    3.40
   2  10  -5   -0.60    2.60
  -2 -10   5   -0.20    2.90
   1  10  -5    0.10    2.50
  -1 -10   5    2.50    2.80
  -1 -10   5    1.10    2.70
   0  10  -5    7.60    3.20
   0 -10   5    2.80    2.90
   0 -10   5    5.90    2.90
  -1  10  -5    0.60    2.70
   1 -10   5    2.00    2.50
   1 -10   5   -1.60    2.60
  -2  10  -5    4.00    3.00
   2 -10   5    2.70    3.10
   2 -10   5   -0.90    2.10
  -3  10  -5    0.60    2.90
   3 -10   5    0.00    3.20
  -4  10  -5    1.50    2.90
  -4  10  -5    0.40    2.90
   4 -10   5    1.80    3.50
  -5  10  -5    0.90    3.20
   5 -10   5    0.80    3.90
   5   9  -5   30.60    4.90
  -5  -9   5   34.20    5.20
   4   9  -5   -1.20    2.50
  -4  -9   5    2.10    3.10
   3   9  -5   22.60    4.10
  -3  -9   5   20.90    3.90
   2   9  -5    5.30    2.70
  -2  -9   5    3.50    2.40
  -2  -9   5    8.20    2.70
   1   9  -5    1.90    2.30
  -1  -9   5    0.60    2.20
  -1  -9   5   -1.00    2.30
   0   9  -5    1.00    2.40
   0  -9   5    3.30    2.60
   0  -9   5    3.50    2.40
  -1   9  -5    6.00    2.90
   1  -9   5    8.20    2.80
   1  -9   5   12.80    2.90
  -2   9  -5    4.20    2.70
  -2   9  -5    0.40    2.10
   2  -9   5    2.10    2.20
   2  -9   5    2.50    2.50
  -3   9  -5   14.20    3.00
  -3   9  -5   17.30    3.50
   3  -9   5   18.30    3.60
  -4   9  -5   13.00    3.20
  -4   9  -5   19.00    3.50
   4  -9   5   25.30    4.20
  -5   9  -5    7.00    3.40
   5  -9   5    4.60    3.60
  -6   9  -5    8.80    3.90
   6  -9   5    6.50    3.50
   6   8  -5    0.00    3.30
  -6  -8   5    1.10    3.10
   5   8  -5   25.10    4.30
  -5  -8   5   30.90    4.60
   4   8  -5    3.40    2.60
  -4  -8   5    3.70    2.80
   3   8  -5   66.09    5.40
  -3  -8   5   66.39    5.50
   2   8  -5    4.50    2.40
  -2  -8   5   11.00    2.30
  -2  -8   5    5.50    2.50
   1   8  -5   90.89    5.90
  -1  -8   5   99.69    5.20
  -1  -8   5   95.79    5.80
   0   8  -5    4.90    2.40
   0   8  -5    1.90    1.60
   0  -8   5    1.60    1.90
   0  -8   5    7.00    2.50
  -1   8  -5   71.69    5.20
  -1   8  -5   74.89    4.40
   1  -8   5   69.09    4.80
   1  -8   5   77.49    5.00
  -2   8  -5   46.00    3.80
  -2   8  -5   57.79    4.50
   2  -8   5   56.89    4.60
   2  -8   5   40.80    3.80
  -3   8  -5   11.50    2.70
  -3   8  -5   10.00    2.70
   3  -8   5   10.20    2.80
  -4   8  -5   53.69    4.70
  -4   8  -5   42.80    4.40
   4  -8   5   51.79    4.80
  -5   8  -5    0.20    2.90
   5  -8   5   -0.10    2.70
  -6   8  -5    5.60    3.40
   6  -8   5    7.00    3.50
   6   7  -5    3.50    3.00
  -6  -7   5    2.70    3.00
   5   7  -5    0.30    2.40
  -5  -7   5    2.10    2.50
   4   7  -5   19.30    3.40
  -4  -7   5   21.90    3.70
   3   7  -5    0.40    1.30
   3   7  -5   -1.20    1.80
  -3  -7   5    0.60    2.10
   2   7  -5    6.20    1.40
   2   7  -5    4.80    2.20
  -2  -7   5    7.30    1.90
  -2  -7   5    6.80    2.30
   1   7  -5   -1.10    1.50
   1   7  -5   -0.40    1.30
  -1  -7   5   -1.40    1.70
  -1  -7   5    0.20    1.50
   0   7  -5    1.90    1.80
   0   7  -5    0.60    1.30
   0  -7   5    0.90    1.80
   0  -7   5    1.10    1.50
  -1   7  -5    7.30    2.20
  -1   7  -5    3.60    1.60
   1  -7   5    6.40    2.10
   1  -7   5    6.70    1.90
  -2   7  -5   -0.90    1.60
  -2   7  -5    1.40    1.70
   2  -7   5   -1.40    1.70
   2  -7   5    0.70    1.70
  -3   7  -5   24.70    3.10
  -3   7  -5   26.60    3.10
   3  -7   5   23.30    3.10
   3  -7   5   22.50    2.90
  -4   7  -5    0.40    1.70
  -4   7  -5    5.20    2.50
   4  -7   5   -0.40    1.70
   4  -7   5    8.80    2.70
  -5   7  -5   20.90    3.50
   5  -7   5   29.00    4.10
  -6   7  -5   13.40    3.50
   6  -7   5   18.60    3.70
  -7   7  -5    1.40    3.30
   7  -7   5    4.10    3.50
   7   6  -5    5.50    3.30
  -7  -6   5    7.00    3.20
   6   6  -5    1.20    2.60
  -6  -6   5    0.60    2.40
   5   6  -5    0.70    2.10
   5   6  -5    5.10    2.70
  -5  -6   5    0.40    2.30
  -5  -6   5   -0.60    1.90
   4   6  -5    5.90    2.30
   4   6  -5   -1.00    1.20
  -4  -6   5    0.20    1.20
  -4  -6   5    7.00    2.50
   3   6  -5    1.90    1.30
   3   6  -5    2.30    2.00
  -3  -6   5    2.50    1.90
  -3  -6   5    1.50    1.20
   2   6  -5   60.69    3.20
   2   6  -5   56.59    4.20
  -2  -6   5   59.79    3.30
  -2  -6   5   53.09    4.00
   1   6  -5    9.80    2.10
   1   6  -5    6.30    1.40
  -1  -6   5    6.50    1.50
  -1  -6   5    7.80    2.00
   0   6  -5   74.39    3.80
   0   6  -5   76.69    4.40
   0  -6   5   78.49    3.90
   0  -6   5   74.39    4.40
  -1   6  -5   25.00    2.50
  -1   6  -5   23.30    2.80
   1  -6   5   19.50    2.30
   1  -6   5   26.00    2.80
  -2   6  -5    7.50    1.90
  -2   6  -5    3.60    1.60
   2  -6   5    3.00    1.70
   2  -6   5    3.40    1.70
  -3   6  -5   21.90    2.80
  -3   6  -5   23.00    2.70
   3  -6   5   20.80    3.00
   3  -6   5   24.40    2.70
  -4   6  -5   -0.70    1.40
  -4   6  -5    4.00    2.10
   4  -6   5    6.20    2.40
   4  -6   5    1.40    1.60
  -5   6  -5    4.40    2.50
   5  -6   5    5.70    2.60
  -6   6  -5    8.00    3.00
   6  -6   5    3.50    2.80
  -7   6  -5   -0.70    2.90
   7  -6   5   -1.30    3.00
   7   5  -5   14.70    3.90
  -7  -5   5   12.60    3.30
   6   5  -5   -2.50    2.40
  -6  -5   5    1.30    1.90
  -6  -5   5   -0.10    2.20
   5   5  -5   50.69    4.80
  -5  -5   5   42.50    3.50
  -5  -5   5   42.60    4.20
   4   5  -5   -0.20    1.10
   4   5  -5    1.60    2.00
  -4  -5   5    3.60    2.00
  -4  -5   5    2.50    1.40
   3   5  -5   71.59    4.50
   3   5  -5   69.29    3.30
  -3  -5   5   69.99    4.30
  -3  -5   5   74.79    3.60
   2   5  -5    0.20    1.10
   2   5  -5    0.70    1.40
  -2  -5   5    1.40    1.60
   1   5  -5   59.49    3.30
   1   5  -5   56.09    3.70
  -1  -5   5   60.79    3.90
   0   5  -5   37.40    3.00
   0   5  -5   34.00    2.60
   0  -5   5   37.30    2.40
   0  -5   5   34.80    3.10
  -1   5  -5   28.10    2.60
  -1   5  -5   28.10    2.50
   1  -5   5   28.80    2.50
   1  -5   5   28.40    2.80
  -2   5  -5   76.79    4.20
  -2   5  -5   80.29    3.90
   2  -5   5   76.79    4.20
   2  -5   5   71.79    4.20
  -3   5  -5   35.90    3.30
  -3   5  -5   31.00    2.70
   3  -5   5   34.30    3.20
   3  -5   5   35.70    3.20
  -4   5  -5   25.30    3.10
   4  -5   5   29.50    3.30
   4  -5   5   26.70    2.80
  -5   5  -5   26.20    3.40
   5  -5   5   22.40    3.30
  -6   5  -5   -0.50    2.40
   6  -5   5   -1.80    2.50
  -7   5  -5   10.10    3.30
   7  -5   5   13.20    3.70
   7   4  -5    4.80    3.10
  -7  -4   5    1.30    2.30
  -7  -4   5    0.60    2.60
   6   4  -5   -1.70    1.40
   6   4  -5    2.40    2.50
  -6  -4   5    0.30    1.90
  -6  -4   5   -3.40    1.90
   5   4  -5   34.40    4.00
  -5  -4   5   28.80    3.40
  -5  -4   5   32.80    3.20
   4   4  -5   -0.10    1.10
   4   4  -5    1.70    1.70
  -4  -4   5    0.50    1.30
  -4  -4   5   -1.00    1.50
   3   4  -5  162.38    7.20
  -3  -4   5  165.38    6.90
  -3  -4   5  158.38    6.40
   2   4  -5    0.70    1.30
   2   4  -5    2.10    1.10
  -2  -4   5    0.80    1.40
   1   4  -5  413.16   14.20
   1   4  -5  406.76   13.90
  -1  -4   5  404.96   14.20
   0   4  -5    4.80    1.40
   0   4  -5    2.60    1.30
   0  -4   5    5.90    1.70
  -1   4  -5  291.67   10.30
  -1   4  -5  295.37   10.50
   1  -4   5  296.67   10.70
   1  -4   5  292.57   10.20
  -2   4  -5    5.00    1.60
  -2   4  -5    9.40    1.40
   2  -4   5    5.40    1.60
   2  -4   5    3.50    1.60
  -3   4  -5   33.10    2.30
  -3   4  -5   38.50    3.20
   3  -4   5   38.70    3.30
   3  -4   5   37.70    3.00
  -4   4  -5   29.70    3.20
   4  -4   5   26.70    3.20
   4  -4   5   33.50    3.10
  -5   4  -5    1.80    2.10
   5  -4   5    1.50    2.20
   5  -4   5    2.30    1.80
  -6   4  -5   20.00    3.30
   6  -4   5   24.50    3.80
  -7   4  -5    2.50    2.80
   7  -4   5    1.20    2.80
   8   3  -5    0.90    3.20
  -8  -3   5   -0.60    2.60
   7   3  -5   -0.80    2.80
  -7  -3   5   -0.90    2.10
   6   3  -5    3.00    2.50
   6   3  -5    1.20    1.50
  -6  -3   5    0.40    1.90
  -6  -3   5    1.60    2.00
   5   3  -5   -2.20    1.10
   5   3  -5    0.40    1.90
  -5  -3   5   -0.20    1.60
  -5  -3   5    3.00    1.80
   4   3  -5    1.20    1.60
   4   3  -5    0.60    1.10
  -4  -3   5    0.30    1.40
  -4  -3   5    1.70    1.40
   3   3  -5   -0.40    1.30
  -3  -3   5    0.20    1.20
  -3  -3   5    1.00    1.30
   2   3  -5    0.90    1.30
   2   3  -5    2.10    1.20
  -2  -3   5    5.60    1.50
   1   3  -5   16.30    1.90
   1   3  -5   18.10    2.10
  -1  -3   5   17.60    2.20
   0   3  -5    3.30    1.30
   0   3  -5    3.50    1.20
   0  -3   5    4.60    1.50
  -1   3  -5   74.69    3.80
  -1   3  -5   78.39    3.40
   1  -3   5   81.49    3.60
   1  -3   5   76.49    4.00
  -2   3  -5    5.20    1.50
   2  -3   5    3.70    1.40
   2  -3   5    2.60    1.50
  -3   3  -5   41.10    3.30
  -3   3  -5   46.90    3.40
  -3   3  -5   47.30    2.20
   3  -3   5   47.20    3.40
  -4   3  -5    8.60    2.10
  -4   3  -5    8.50    2.10
   4  -3   5    7.00    2.10
  -5   3  -5    7.90    2.50
  -5   3  -5    6.50    2.40
   5  -3   5    5.50    2.40
  -6   3  -5    3.60    2.40
  -6   3  -5    1.40    2.50
   6  -3   5    2.70    2.60
  -7   3  -5   -3.60    2.30
   7  -3   5   -0.70    2.80
   8   2  -5    2.30    3.30
  -8  -2   5    2.70    2.70
   7   2  -5    5.50    3.20
   7   2  -5    0.10    1.80
  -7  -2   5    5.10    2.50
   6   2  -5    8.70    3.00
   6   2  -5   -0.80    1.50
  -6  -2   5    6.80    2.20
  -6  -2   5    5.70    2.40
   5   2  -5   50.99    3.50
   5   2  -5   67.69    5.00
  -5  -2   5   50.29    3.60
  -5  -2   5   58.59    4.10
   4   2  -5    2.80    1.90
   4   2  -5    5.20    1.40
  -4  -2   5    5.30    1.50
  -4  -2   5    6.00    1.70
   3   2  -5  202.58    8.40
  -3  -2   5  200.18    7.70
  -3  -2   5  193.68    7.50
   2   2  -5    1.70    1.50
   2   2  -5    1.20    1.20
  -2  -2   5   -0.60    1.10
   1   2  -5  423.46   14.60
   1   2  -5  439.66   14.90
  -1  -2   5  440.26   14.70
   0   2  -5   -0.20    1.10
   0   2  -5    0.50    1.10
   0  -2   5    0.10    1.20
  -1   2  -5  344.57   11.50
  -1   2  -5  351.76   12.00
   1  -2   5  361.96   11.80
   1  -2   5  342.27   12.20
  -2   2  -5   -2.00    1.10
  -2   2  -5   -0.10    1.30
   2  -2   5    1.20    1.30
  -3   2  -5   55.19    3.70
  -3   2  -5   58.29    3.60
   3  -2   5   54.19    3.70
  -4   2  -5    1.10    1.80
  -4   2  -5    2.40    1.70
   4  -2   5    0.40    1.60
  -5   2  -5   -1.70    2.00
  -5   2  -5    0.20    1.80
   5  -2   5    0.90    2.00
  -6   2  -5    2.00    2.50
  -6   2  -5    2.70    2.30
   6  -2   5    2.20    2.20
  -7   2  -5    3.40    2.70
   7  -2   5    6.20    2.80
   8   1  -5    4.20    3.30
  -8  -1   5    6.20    2.90
   7   1  -5    2.90    2.90
   7   1  -5    0.50    1.90
  -7  -1   5    0.50    2.30
   6   1  -5   23.60    3.80
   6   1  -5   14.90    2.50
  -6  -1   5   16.50    3.00
   5   1  -5    2.50    1.50
   5   1  -5    1.10    2.30
  -5  -1   5    2.30    1.50
  -5  -1   5    3.20    1.80
   4   1  -5   38.50    2.60
   4   1  -5   32.30    3.80
  -4  -1   5   35.10    2.60
  -4  -1   5   39.40    3.20
   3   1  -5   43.10    2.50
   3   1  -5   36.30    3.80
  -3  -1   5   49.90    2.80
  -3  -1   5   50.89    3.10
   2   1  -5   67.59    3.40
   2   1  -5   61.79    4.00
  -2  -1   5   60.09    3.10
   1   1  -5  131.29    5.00
   1   1  -5  109.59    5.40
  -1  -1   5  119.89    4.90
   0   1  -5   15.30    1.70
   0   1  -5   17.30    1.90
   0  -1   5   12.00    1.70
   0  -1   5   16.00    1.40
  -1   1  -5   24.80    2.30
  -2   1  -5    1.60    1.40
  -2   1  -5    0.10    1.10
   2  -1   5   -0.70    1.30
  -3   1  -5    8.50    1.90
  -3   1  -5   10.70    1.80
   3  -1   5    8.20    1.90
  -4   1  -5    0.20    1.50
  -4   1  -5   -1.60    1.60
   4  -1   5    0.60    1.70
  -5   1  -5    3.30    2.00
  -5   1  -5    3.10    2.20
   5  -1   5    4.80    2.20
  -6   1  -5    1.40    2.50
  -6   1  -5    1.80    2.20
   6  -1   5    1.40    2.30
  -7   1  -5    6.20    2.90
  -7   1  -5    0.40    3.10
   7  -1   5    2.30    2.60
   8   0  -5    2.70    3.30
   8   0  -5   -1.10    2.80
  -8   0   5    1.80    2.80
   7   0  -5    3.40    2.90
   7   0  -5   -0.20    2.00
  -7   0   5    2.00    2.30
   6   0  -5   -0.10    2.40
   6   0  -5    1.70    1.80
  -6   0   5    1.70    2.10
   5   0  -5   46.70    3.50
   5   0  -5   45.90    4.50
  -5   0   5   49.60    4.20
   4   0  -5    1.90    1.30
   4   0  -5    7.60    2.20
  -4   0   5    2.00    1.10
  -4   0   5    6.70    1.70
   3   0  -5  148.69    5.70
   3   0  -5  146.09    6.90
  -3   0   5  144.19    5.50
  -3   0   5  150.18    6.20
   2   0  -5    5.60    1.70
   2   0  -5    5.40    1.10
  -2   0   5    6.70    1.30
  -2   0   5    2.90    1.30
   1   0  -5  153.48    6.10
   1   0  -5  160.98    6.40
   1   0  -5  147.39    5.60
  -1   0   5  156.28    5.90
   0   0  -5    4.50    1.30
   0   0  -5    3.90    1.10
   0   0  -5    5.90    1.50
   0   0  -5    2.60    1.30
  -1   0  -5   31.90    1.90
  -1   0  -5   35.60    2.80
  -1   0  -5   35.40    2.50
   1   0   5   31.40    2.40
  -2   0  -5   10.90    1.90
  -2   0  -5    9.80    1.60
   2   0   5    5.40    1.50
  -3   0  -5   13.00    1.90
  -3   0  -5   16.20    2.40
   3   0   5   10.00    2.00
  -4   0  -5    3.90    2.00
  -4   0  -5    9.10    2.00
   4   0   5    4.60    1.90
  -5   0  -5   19.90    2.80
  -5   0  -5   13.70    2.90
   5   0   5   14.60    3.00
  -6   0  -5    0.10    2.40
  -6   0  -5   -1.50    2.10
   6   0   5    0.10    2.30
  -7   0  -5   12.00    3.50
  -7   0  -5   13.50    3.20
   7   0   5   13.00    3.30
   8  -1  -5   -0.80    3.20
   8  -1  -5    0.40    2.40
  -8   1   5   -2.70    2.70
   7  -1  -5    0.90    2.20
   7  -1  -5    1.40    2.80
  -7   1   5   -1.60    2.30
   6  -1  -5    5.20    2.10
   6  -1  -5    1.30    2.30
  -6   1   5    3.50    2.30
   5  -1  -5   -1.00    1.90
   5  -1  -5    1.70    1.60
  -5   1   5   -0.10    1.80
   4  -1  -5   22.40    2.40
   4  -1  -5   21.40    3.00
  -4   1   5   20.40    2.60
   3  -1  -5   53.29    3.80
   3  -1  -5   49.80    3.00
  -3   1   5   56.79    3.40
   2  -1  -5   61.69    3.20
   2  -1  -5   66.19    4.00
  -2   1   5   64.19    3.50
  -2   1   5   62.99    3.00
   1  -1  -5  280.87    9.80
   1  -1  -5  285.37   10.30
   1  -1  -5  290.47   10.10
   1  -1  -5  283.07    9.90
   0  -1  -5   77.89    3.60
   0  -1  -5   74.79    3.70
   0  -1  -5   74.89    3.60
   0  -1  -5   75.69    3.80
  -1  -1  -5  189.58    7.40
  -1  -1  -5  185.88    6.90
   1   1   5  184.58    6.60
   1   1   5  190.68    7.10
  -2  -1  -5    9.60    1.50
  -2  -1  -5    9.50    1.90
   2   1   5    7.70    1.10
   2   1   5    7.80    1.70
  -3  -1  -5   27.90    2.50
  -3  -1  -5   25.30    3.00
   3   1   5   25.50    2.80
  -4  -1  -5   -1.50    1.40
  -4  -1  -5    1.20    1.90
   4   1   5   -1.10    1.60
  -5  -1  -5    3.80    2.10
  -5  -1  -5    1.50    2.20
   5   1   5    0.90    2.00
  -6  -1  -5   -2.10    2.60
  -6  -1  -5   -0.70    2.00
   6   1   5   -1.40    2.20
  -7  -1  -5   -0.40    2.40
  -7  -1  -5    3.30    3.20
   7   1   5   -1.70    2.60
   8  -2  -5    0.70    2.70
   8  -2  -5   -0.10    3.20
  -8   2   5    0.60    2.90
   7  -2  -5    0.20    2.30
   7  -2  -5    0.20    2.70
  -7   2   5    1.50    2.80
   6  -2  -5   11.30    3.00
   6  -2  -5    7.10    2.40
  -6   2   5    7.80    2.80
   5  -2  -5    3.80    2.50
   5  -2  -5   10.80    2.40
  -5   2   5    9.30    2.40
   4  -2  -5   11.30    2.10
   4  -2  -5   11.80    2.50
  -4   2   5   13.20    2.30
   3  -2  -5   34.40    3.40
   3  -2  -5   38.10    3.00
  -3   2   5   46.40    3.10
   2  -2  -5    1.50    1.50
   2  -2  -5    0.10    1.20
  -2   2   5    2.10    1.20
   1  -2  -5   19.20    1.90
   1  -2  -5   20.20    2.10
   1  -2  -5   17.40    1.90
   1  -2  -5   14.90    2.10
   0  -2  -5   27.70    2.40
   0  -2  -5   30.10    2.60
   0  -2  -5   27.20    2.20
   0  -2  -5   23.40    2.30
  -1  -2  -5   15.30    2.10
  -1  -2  -5   14.40    2.10
  -1  -2  -5   17.70    1.80
   1   2   5   17.30    1.80
  -2  -2  -5   34.10    2.40
  -2  -2  -5   40.30    3.30
   2   2   5   31.10    3.10
   2   2   5   28.10    2.10
  -3  -2  -5   40.60    3.50
  -3  -2  -5   47.60    3.00
   3   2   5   39.40    3.50
   3   2   5   41.90    2.60
  -4  -2  -5    6.90    1.70
  -4  -2  -5    4.60    2.10
   4   2   5    9.90    2.40
  -5  -2  -5   18.50    3.20
  -5  -2  -5    6.40    2.00
   5   2   5    9.80    2.70
  -6  -2  -5    1.20    2.80
  -6  -2  -5    0.50    2.10
   6   2   5   -1.90    2.10
  -7  -2  -5    6.00    3.70
   7   2   5    3.10    3.00
   8  -3  -5   -0.40    3.10
   8  -3  -5    1.60    3.10
  -8   3   5   -3.50    3.10
   7  -3  -5    0.10    2.30
   7  -3  -5   -1.10    2.70
  -7   3   5    3.90    2.90
   6  -3  -5    3.60    2.40
   6  -3  -5    2.90    2.70
  -6   3   5    3.10    2.60
   5  -3  -5    2.50    2.10
   5  -3  -5    5.40    2.60
  -5   3   5    3.80    2.30
   4  -3  -5   39.10    4.10
   4  -3  -5   47.90    3.90
  -4   3   5   40.20    3.50
   3  -3  -5    3.20    1.80
   3  -3  -5    1.90    1.60
  -3   3   5    2.80    1.60
   2  -3  -5  187.18    7.60
   2  -3  -5  193.08    6.80
   2  -3  -5  197.18    8.00
  -2   3   5  180.08    7.20
   1  -3  -5    3.10    1.50
   1  -3  -5    3.80    1.40
   1  -3  -5    4.60    1.70
  -1   3   5    4.80    1.30
   0  -3  -5  205.08    7.90
   0  -3  -5  209.48    7.60
   0  -3  -5  216.18    8.20
   0   3   5  206.98    8.00
  -1  -3  -5   21.80    2.00
  -1  -3  -5   23.80    2.60
  -1  -3  -5   22.10    2.60
   1   3   5   24.30    2.30
  -2  -3  -5   34.80    3.30
  -2  -3  -5   30.20    2.30
   2   3   5   32.20    2.60
   2   3   5   31.90    3.10
  -3  -3  -5    5.60    1.50
  -3  -3  -5    7.70    2.10
   3   3   5    6.90    1.60
   3   3   5    5.10    2.00
  -4  -3  -5    1.10    1.40
  -4  -3  -5   -0.30    1.90
   4   3   5   -1.20    1.70
  -5  -3  -5   -0.10    2.30
   5   3   5   -1.10    1.90
  -6  -3  -5   -3.00    2.70
   6   3   5    1.90    2.60
  -7  -3  -5    1.20    3.50
   7   3   5   -1.40    2.80
   7  -4  -5    5.20    3.10
  -7   4   5    1.60    3.00
   6  -4  -5   -1.70    2.30
   6  -4  -5    1.70    2.60
  -6   4   5    0.20    2.50
   5  -4  -5    4.70    2.70
   5  -4  -5    3.80    2.40
  -5   4   5    2.90    2.40
   4  -4  -5    2.00    2.30
   4  -4  -5    0.60    2.00
  -4   4   5    1.80    1.90
   3  -4  -5    1.90    2.10
   3  -4  -5    0.80    1.80
  -3   4   5    0.00    1.50
   2  -4  -5    1.90    2.00
   2  -4  -5    3.30    1.80
   2  -4  -5    5.10    1.30
  -2   4   5    1.70    1.40
   1  -4  -5   16.10    2.60
   1  -4  -5   15.70    2.00
  -1   4   5   15.50    2.40
  -1   4   5   15.60    1.90
   0  -4  -5    1.10    1.50
   0  -4  -5   -0.30    1.30
   0   4   5    1.30    1.10
   0   4   5    1.20    1.40
  -1  -4  -5    5.10    1.80
  -1  -4  -5    5.40    1.30
  -1  -4  -5    5.60    1.90
   1   4   5    3.90    1.60
  -2  -4  -5   16.80    2.80
   2   4   5   21.70    2.60
  -3  -4  -5    3.10    2.00
   3   4   5    4.60    1.80
   3   4   5    4.30    2.10
  -4  -4  -5   14.60    2.90
   4   4   5    9.00    2.50
  -5  -4  -5    7.80    2.80
   5   4   5   12.40    3.10
  -6  -4  -5    2.50    3.10
   6   4   5    0.30    2.60
   7  -5  -5   -1.20    3.00
   7  -5  -5    2.70    3.40
  -7   5   5    0.90    3.30
   6  -5  -5    5.40    3.30
   6  -5  -5   11.60    3.30
  -6   5   5    5.90    3.00
   5  -5  -5    3.90    3.00
   5  -5  -5    0.60    2.30
  -5   5   5    0.30    2.40
   4  -5  -5   14.00    3.30
   4  -5  -5   19.60    3.30
  -4   5   5   24.80    3.10
   3  -5  -5   -1.10    2.20
   3  -5  -5    0.80    2.00
  -3   5   5    3.20    1.80
   2  -5  -5   58.89    4.40
  -2   5   5   60.69    4.40
  -2   5   5   55.69    3.70
   1  -5  -5   -0.90    1.80
   1  -5  -5    0.50    1.50
  -1   5   5   -0.10    1.60
  -1   5   5    0.50    1.20
   0  -5  -5   71.39    4.30
   0  -5  -5   77.79    4.80
   0   5   5   75.19    4.60
  -1  -5  -5   -0.80    1.80
  -1  -5  -5   -1.70    1.80
   1   5   5   -0.90    1.50
  -2  -5  -5   32.10    3.60
   2   5   5   27.70    3.20
  -3  -5  -5    5.90    2.50
   3   5   5    4.40    2.30
   3   5   5    5.70    2.20
  -4  -5  -5    3.90    2.60
   4   5   5    3.30    2.30
  -5  -5  -5   -0.50    2.60
   5   5   5    3.50    2.70
  -6  -5  -5    7.80    3.50
   6   5   5    3.10    3.00
   6  -6  -5    5.70    3.60
   6  -6  -5    2.30    3.10
  -6   6   5    2.60    3.00
   5  -6  -5    7.30    3.00
   5  -6  -5    5.30    3.20
  -5   6   5    1.50    2.60
   4  -6  -5    6.60    3.30
   4  -6  -5    0.60    2.60
  -4   6   5    5.00    2.40
   3  -6  -5    1.00    2.20
  -3   6   5   -0.30    1.90
  -3   6   5    1.70    1.90
   2  -6  -5   -1.40    2.00
  -2   6   5    2.00    1.70
  -2   6   5    1.70    1.90
   1  -6  -5   18.40    3.00
   1  -6  -5    9.50    1.90
  -1   6   5   14.30    2.80
   0  -6  -5    3.50    1.90
   0  -6  -5    0.40    1.80
   0   6   5   -0.30    1.80
  -1  -6  -5   15.10    2.80
  -1  -6  -5   20.40    3.20
   1   6   5   23.50    3.20
  -2  -6  -5    3.40    2.40
  -2  -6  -5    0.00    2.10
   2   6   5    1.30    2.10
  -3  -6  -5    7.90    2.70
   3   6   5    5.60    2.50
   3   6   5    6.10    2.70
  -4  -6  -5    4.90    2.90
   4   6   5    4.80    2.70
  -5  -6  -5    0.30    3.00
   5   6   5    1.50    2.90
   6  -7  -5    3.70    3.60
  -6   7   5    5.10    3.70
  -6   7   5    8.80    3.80
   5  -7  -5    1.60    3.10
  -5   7   5    0.50    2.60
  -5   7   5   -0.20    2.70
   4  -7  -5   12.60    3.50
  -4   7   5    7.20    2.70
  -4   7   5   11.10    2.80
   3  -7  -5    6.90    2.90
  -3   7   5    7.80    2.80
   2  -7  -5    4.90    2.60
  -2   7   5    5.60    2.40
   1  -7  -5    5.90    2.60
   1  -7  -5   -0.30    1.70
  -1   7   5    2.40    2.30
   0  -7  -5    3.90    2.00
   0  -7  -5   -1.00    2.00
   0   7   5    1.30    2.20
  -1  -7  -5    2.10    2.50
  -1  -7  -5    0.90    2.20
   1   7   5    0.00    2.20
  -2  -7  -5   -1.80    2.50
  -2  -7  -5   -0.50    2.50
   2   7   5    0.20    2.40
  -3  -7  -5    2.30    2.80
   3   7   5    0.90    2.50
   3   7   5    3.00    2.90
  -4  -7  -5    1.60    3.10
   4   7   5   -0.50    2.90
   5  -8  -5    2.10    3.40
  -5   8   5    2.10    2.90
   4  -8  -5    2.70    3.10
  -4   8   5    3.80    2.80
   3  -8  -5    1.90    2.90
  -3   8   5   -0.80    2.30
   2  -8  -5    4.40    3.00
  -2   8   5    7.40    2.90
   1  -8  -5   11.00    2.80
  -1   8   5    3.90    2.60
   0  -8  -5   13.80    3.50
   0  -8  -5    2.20    2.20
   0   8   5   15.60    3.40
  -1  -8  -5   13.40    3.70
  -1  -8  -5    6.50    2.90
   1   8   5    6.90    3.10
  -2  -8  -5    9.50    3.70
  -2  -8  -5   10.60    3.40
   2   8   5   14.30    5.90
  -3  -8  -5    1.00    3.10
   3   8   5    2.80    3.10
   4  -9  -5   -0.80    3.30
  -4   9   5   -0.70    3.10
   3  -9  -5    1.20    3.10
  -3   9   5   -0.80    2.70
   2  -9  -5   -1.50    2.90
  -2   9   5   -1.20    2.80
   1  -9  -5    1.10    3.20
  -1   9   5    0.40    2.80
   0  -9  -5    3.10    2.60
   0  -9  -5    1.50    3.10
   0   9   5   -0.30    2.80
  -1  -9  -5    0.10    2.90
  -1  -9  -5   -1.60    3.30
   1   9   5    2.30    3.10
  -2  -9  -5    0.60    3.40
  -2  -9  -5    4.70    3.70
   2   9   5   -0.90    3.20
   1  12  -6    1.50    3.40
  -1 -12   6    1.40    4.20
   0  12  -6    2.00    3.70
   0 -12   6    3.20    3.80
  -1  12  -6    8.10    4.10
   1 -12   6    0.80    3.20
   1 -12   6    8.20    4.10
  -2  12  -6    6.70    4.10
   2 -12   6    4.10    4.20
   3  11  -6    1.80    3.60
  -3 -11   6    4.40    3.80
   2  11  -6   -0.90    3.10
  -2 -11   6    5.00    3.80
   1  11  -6   -0.30    2.70
  -1 -11   6    1.60    3.10
   0  11  -6   -1.60    2.90
   0 -11   6   -0.60    3.00
   0 -11   6   -3.20    3.00
  -1  11  -6   -1.90    2.80
   1 -11   6    2.00    3.30
   1 -11   6    0.70    2.90
  -2  11  -6    7.00    3.70
   2 -11   6    0.40    2.70
  -3  11  -6    5.90    3.60
   3 -11   6    1.00    3.70
  -4  11  -6   -0.70    3.20
   4 -11   6    5.30    4.20
   4  10  -6   13.10    3.90
  -4 -10   6    4.10    3.80
   3  10  -6    2.50    3.20
  -3 -10   6   -1.00    2.80
   2  10  -6    4.60    3.20
  -2 -10   6    7.50    3.30
   1  10  -6    1.80    2.60
  -1 -10   6    1.90    2.90
   0  10  -6   -1.50    2.50
   0 -10   6    0.00    2.50
   0 -10   6    1.30    2.60
  -1  10  -6    0.70    2.80
   1 -10   6   -1.00    2.60
   1 -10   6    0.20    2.50
  -2  10  -6    0.90    2.90
   2 -10   6   -0.10    2.80
   2 -10   6    2.40    2.30
  -3  10  -6    1.00    2.80
  -3  10  -6   -2.70    2.60
   3 -10   6    6.90    3.30
  -4  10  -6    0.20    2.50
  -4  10  -6   -1.30    3.00
   4 -10   6    1.80    3.50
  -5  10  -6    7.30    3.80
   5 -10   6    6.60    4.00
   5   9  -6    3.00    3.20
  -5  -9   6    4.90    3.30
   4   9  -6   -3.40    2.20
  -4  -9   6    1.30    2.90
   3   9  -6   33.20    4.70
  -3  -9   6   24.60    4.10
   2   9  -6   18.60    3.50
  -2  -9   6   10.40    3.00
   1   9  -6   41.80    4.80
  -1  -9   6   30.60    3.50
  -1  -9   6   37.60    4.40
   0   9  -6   61.99    5.10
   0  -9   6   62.59    4.70
   0  -9   6   60.19    5.30
  -1   9  -6    3.70    2.70
  -1   9  -6    5.00    2.20
   1  -9   6    2.70    2.40
   1  -9   6    7.20    2.70
  -2   9  -6   40.30    3.90
  -2   9  -6   45.60    4.80
   2  -9   6   30.10    3.70
   2  -9   6   43.10    4.50
  -3   9  -6    1.10    2.40
  -3   9  -6    3.40    2.60
   3  -9   6    1.10    2.10
   3  -9   6    3.80    2.80
  -4   9  -6    1.30    2.80
  -4   9  -6    0.80    2.40
   4  -9   6   -1.40    3.00
  -5   9  -6    6.10    3.50
   5  -9   6    6.50    3.30
  -6   9  -6   -1.70    3.20
   6   8  -6   -1.00    2.90
  -6  -8   6    2.30    3.10
   5   8  -6   20.30    4.10
  -5  -8   6   15.40    3.80
   4   8  -6    2.00    2.40
  -4  -8   6    1.90    2.80
   3   8  -6   10.00    2.90
  -3  -8   6    8.60    2.90
   2   8  -6   26.60    4.00
  -2  -8   6   26.60    3.70
  -2  -8   6   20.50    2.90
   1   8  -6   -0.10    1.80
   1   8  -6    0.90    2.00
  -1  -8   6   -1.00    1.70
  -1  -8   6    2.40    2.30
   0   8  -6   42.00    4.20
   0   8  -6   36.40    3.20
   0  -8   6   44.30    3.70
   0  -8   6   35.60    3.80
  -1   8  -6    4.70    2.40
  -1   8  -6    9.20    2.10
   1  -8   6    8.60    2.50
   1  -8   6    9.30    2.30
  -2   8  -6    5.50    2.40
  -2   8  -6    1.70    2.10
   2  -8   6    3.80    2.10
   2  -8   6    5.90    2.30
  -3   8  -6   10.40    2.70
  -3   8  -6   10.70    2.60
   3  -8   6    4.80    3.00
   3  -8   6   10.80    2.90
  -4   8  -6    0.80    2.60
  -4   8  -6   -0.70    1.90
   4  -8   6    2.20    2.60
  -5   8  -6    4.00    3.00
   5  -8   6    3.40    2.70
  -6   8  -6    2.60    3.40
   6  -8   6    6.40    3.40
   6   7  -6   -0.10    2.70
  -6  -7   6   -3.20    2.40
   5   7  -6   -0.80    2.50
  -5  -7   6   -0.20    2.50
   4   7  -6    2.20    2.20
  -4  -7   6    4.40    2.50
   3   7  -6    5.60    2.40
  -3  -7   6    0.90    1.10
  -3  -7   6    5.60    2.50
   2   7  -6    1.40    1.50
   2   7  -6    3.80    2.10
  -2  -7   6    0.90    1.50
  -2  -7   6    0.70    1.90
   1   7  -6   38.40    3.90
   1   7  -6   38.80    3.00
  -1  -7   6   34.90    3.60
  -1  -7   6   35.20    2.90
   0   7  -6    6.80    1.70
   0   7  -6    9.00    2.30
   0  -7   6    7.30    1.80
   0  -7   6    5.20    2.10
  -1   7  -6   54.19    4.00
  -1   7  -6   47.50    3.70
   1  -7   6   52.99    4.10
   1  -7   6   48.70    3.70
  -2   7  -6   41.10    3.80
  -2   7  -6   34.30    3.40
   2  -7   6   36.80    3.50
   2  -7   6   33.60    3.50
  -3   7  -6   14.20    2.80
  -3   7  -6   18.30    2.60
   3  -7   6   13.90    2.80
   3  -7   6   18.70    2.90
  -4   7  -6   24.50    3.50
   4  -7   6   26.40    3.60
  -5   7  -6   -1.50    2.40
   5  -7   6    2.50    2.60
  -6   7  -6    5.00    3.20
   6  -7   6    7.60    3.30
   7   6  -6   -0.80    3.10
  -7  -6   6    1.30    3.00
   6   6  -6    1.90    2.70
  -6  -6   6    2.90    2.60
   5   6  -6    3.10    2.50
  -5  -6   6   -1.00    1.40
  -5  -6   6    6.60    2.60
   4   6  -6    0.50    2.10
  -4  -6   6   -0.90    1.20
  -4  -6   6    0.10    1.90
   3   6  -6   13.40    2.50
  -3  -6   6   11.90    2.50
  -3  -6   6    8.40    1.70
   2   6  -6    6.70    1.70
   2   6  -6    7.40    2.10
  -2  -6   6    6.60    2.10
   1   6  -6   11.90    2.30
   1   6  -6    9.00    1.80
  -1  -6   6    5.20    1.90
   0   6  -6   45.70    3.10
   0   6  -6   51.69    3.50
   0  -6   6   44.20    3.80
   0  -6   6   46.80    3.00
  -1   6  -6   -0.60    1.40
  -1   6  -6   -0.20    1.40
   1  -6   6   -0.90    1.60
   1  -6   6   -1.90    1.20
  -2   6  -6   26.90    2.80
  -2   6  -6   23.40    2.80
   2  -6   6   19.90    2.80
   2  -6   6   28.00    3.00
  -3   6  -6    1.10    1.90
  -3   6  -6    0.80    1.60
   3  -6   6    2.10    1.80
   3  -6   6    2.60    1.80
  -4   6  -6    1.10    2.20
  -4   6  -6    1.60    1.50
   4  -6   6    1.80    2.20
   4  -6   6   -0.60    1.80
  -5   6  -6    2.50    2.40
   5  -6   6   -1.80    2.00
   5  -6   6    2.10    2.60
  -6   6  -6   -0.30    2.60
   6  -6   6    0.00    2.60
  -7   6  -6    3.30    3.20
   7  -6   6    1.30    3.20
   7   5  -6    2.10    3.00
  -7  -5   6    0.50    2.50
  -7  -5   6    0.10    2.20
   6   5  -6    0.90    2.60
  -6  -5   6    1.30    1.90
  -6  -5   6   -1.50    2.10
   5   5  -6    0.60    2.20
  -5  -5   6    0.50    2.10
  -5  -5   6    2.00    1.70
   4   5  -6    0.20    1.80
  -4  -5   6    1.90    1.90
  -4  -5   6    1.60    1.40
   3   5  -6   10.10    2.30
  -3  -5   6    9.60    2.20
  -3  -5   6   10.40    1.80
   2   5  -6   27.60    3.00
   2   5  -6   29.70    2.60
  -2  -5   6   22.20    2.70
   1   5  -6   36.50    2.80
   1   5  -6   39.10    3.40
  -1  -5   6   37.30    3.30
   0   5  -6    5.80    1.70
   0   5  -6    7.60    1.70
   0  -5   6    5.10    1.80
  -1   5  -6   54.89    3.40
  -1   5  -6   50.59    3.20
   1  -5   6   49.80    3.20
   1  -5   6   45.80    3.50
  -2   5  -6   10.90    2.00
  -2   5  -6   10.60    1.70
   2  -5   6   12.40    2.00
   2  -5   6   11.80    2.20
  -3   5  -6   22.30    2.80
  -3   5  -6   16.20    1.90
   3  -5   6   16.70    2.50
   3  -5   6   17.00    2.50
  -4   5  -6   17.60    2.80
   4  -5   6   14.20    2.70
   4  -5   6   18.90    2.70
  -5   5  -6    0.80    2.20
   5  -5   6    0.20    1.80
   5  -5   6    1.60    2.30
  -6   5  -6    2.10    2.70
   6  -5   6    2.50    2.80
  -7   5  -6   -3.20    2.70
   7  -5   6    4.10    3.30
   7   4  -6   29.00    4.50
  -7  -4   6   18.80    3.60
  -7  -4   6   17.40    3.30
   6   4  -6   -0.70    2.50
  -6  -4   6    2.30    2.20
  -6  -4   6    3.90    2.00
   5   4  -6   32.90    4.20
  -5  -4   6   29.40    3.20
  -5  -4   6   35.10    3.50
   4   4  -6    0.80    1.80
  -4  -4   6   -0.30    1.30
  -4  -4   6    1.30    1.60
   3   4  -6    8.20    2.00
  -3  -4   6   11.70    2.10
  -3  -4   6    9.00    1.80
   2   4  -6    2.60    1.40
   2   4  -6    3.00    1.60
  -2  -4   6    1.90    1.60
   1   4  -6    1.70    1.30
   1   4  -6    1.50    1.30
  -1  -4   6    0.00    1.40
   0   4  -6   40.60    2.90
   0   4  -6   39.00    2.80
   0  -4   6   45.10    3.20
  -1   4  -6    1.50    1.30
  -1   4  -6   -0.70    1.00
   1  -4   6   -0.40    1.10
   1  -4   6   -0.90    1.40
  -2   4  -6   43.40    2.50
  -2   4  -6   43.70    3.40
   2  -4   6   48.70    3.40
   2  -4   6   48.00    3.20
  -3   4  -6    4.90    1.80
  -3   4  -6    3.40    1.10
   3  -4   6    4.50    1.90
   3  -4   6    7.60    2.00
  -4   4  -6    1.20    1.90
   4  -4   6    6.00    2.30
   4  -4   6    1.00    1.80
  -5   4  -6   10.20    2.60
   5  -4   6   12.10    2.60
   5  -4   6   14.50    3.20
  -6   4  -6    1.70    2.40
   6  -4   6    1.90    2.80
  -7   4  -6    7.00    3.00
   7  -4   6    5.40    3.10
   8   3  -6   -1.00    3.10
  -8  -3   6   -0.30    2.90
   7   3  -6    8.00    3.30
  -7  -3   6    6.00    2.80
   6   3  -6    1.10    2.30
  -6  -3   6    0.20    1.90
  -6  -3   6    2.40    2.00
   5   3  -6   13.30    3.00
  -5  -3   6   13.30    2.40
  -5  -3   6   16.00    2.60
   4   3  -6    9.40    2.40
  -4  -3   6    6.10    1.70
  -4  -3   6    5.30    1.70
   3   3  -6   25.80    3.10
  -3  -3   6   22.40    2.50
  -3  -3   6   23.50    2.40
   2   3  -6    2.50    1.40
   2   3  -6    3.60    1.70
  -2  -3   6    2.80    1.50
   1   3  -6    9.00    1.90
   1   3  -6   13.80    1.90
  -1  -3   6   10.60    2.00
   0   3  -6  145.79    5.80
   0   3  -6  137.89    5.70
   0  -3   6  145.09    6.20
  -1   3  -6    6.70    1.30
  -1   3  -6   10.20    1.90
   1  -3   6    8.30    1.90
   1  -3   6   13.10    1.50
  -2   3  -6  122.99    5.30
  -2   3  -6  112.69    4.20
   2  -3   6  113.99    5.30
   2  -3   6  102.39    5.00
  -3   3  -6   26.20    2.80
  -3   3  -6   29.60    3.00
   3  -3   6   34.60    3.10
  -4   3  -6   15.30    2.50
  -4   3  -6   18.60    2.70
   4  -3   6   15.10    2.50
  -5   3  -6   17.20    2.80
  -5   3  -6   12.80    2.80
   5  -3   6   13.50    2.90
  -6   3  -6    4.40    2.80
  -6   3  -6    1.20    2.30
   6  -3   6    1.50    2.40
  -7   3  -6   -0.50    2.60
   7  -3   6    0.40    2.60
   8   2  -6   -1.80    3.20
  -8  -2   6   -1.30    2.80
   7   2  -6    4.40    3.20
  -7  -2   6    2.80    2.60
   6   2  -6    3.50    2.90
   6   2  -6   -0.70    1.40
   5   2  -6    1.10    2.30
   5   2  -6   -2.20    1.20
  -5  -2   6   -1.40    1.70
  -5  -2   6    0.80    1.50
   4   2  -6   19.00    3.10
  -4  -2   6   17.60    2.20
  -4  -2   6   20.80    2.50
   3   2  -6    0.50    1.70
  -3  -2   6    2.70    1.40
  -3  -2   6    0.30    1.20
   2   2  -6    7.50    1.60
   2   2  -6    4.00    1.70
  -2  -2   6    3.10    1.30
   1   2  -6   14.60    2.20
   1   2  -6   14.00    1.90
  -1  -2   6   17.90    2.10
   0   2  -6    0.90    1.20
   0   2  -6    0.20    1.20
   0  -2   6    2.30    1.50
  -1   2  -6    4.50    1.50
  -1   2  -6    1.60    1.10
   1  -2   6    1.30    1.40
   1  -2   6    1.00    1.20
  -2   2  -6    1.40    1.50
  -2   2  -6    4.00    1.50
   2  -2   6    3.30    1.50
  -3   2  -6    4.90    1.70
  -3   2  -6    7.10    1.90
   3  -2   6    5.40    1.80
  -4   2  -6    6.20    2.20
  -4   2  -6    6.70    2.00
   4  -2   6    4.90    2.10
  -5   2  -6   -2.10    2.10
  -5   2  -6    0.90    2.00
   5  -2   6    0.40    2.20
  -6   2  -6    0.50    2.70
  -6   2  -6    4.30    2.50
   6  -2   6    5.90    2.80
  -7   2  -6    0.20    3.40
  -7   2  -6   -0.20    2.60
   7  -2   6    2.30    2.70
   8   1  -6   -1.80    2.90
  -8  -1   6   -1.10    2.70
   7   1  -6   -0.30    2.90
   7   1  -6   -1.90    2.30
  -7  -1   6    1.40    2.50
   6   1  -6   -0.20    1.50
   6   1  -6    0.10    2.50
  -6  -1   6   -1.10    1.90
   5   1  -6    2.40    1.40
   5   1  -6    0.90    2.30
  -5  -1   6    3.70    1.90
  -5  -1   6    2.60    1.50
   4   1  -6    1.50    1.30
   4   1  -6    2.80    2.10
  -4  -1   6    3.20    1.60
  -4  -1   6    3.50    1.30
   3   1  -6   82.89    5.20
  -3  -1   6   86.59    4.40
  -3  -1   6   88.99    4.00
   2   1  -6   29.50    3.10
   2   1  -6   29.00    2.60
  -2  -1   6   31.60    2.40
   1   1  -6  499.65   17.50
   1   1  -6  515.25   17.10
  -1  -1   6  514.05   17.00
   0   1  -6   32.50    2.50
   0   1  -6   32.90    2.60
   0  -1   6   29.90    2.10
  -1   1  -6  305.47   10.80
  -1   1  -6  294.37   10.10
  -1   1  -6  301.47   10.60
   1  -1   6  299.17   10.40
  -2   1  -6   -0.40    1.20
  -2   1  -6   -0.60    1.40
   2  -1   6   -0.10    1.30
  -3   1  -6   35.40    3.20
  -3   1  -6   27.30    2.70
   3  -1   6   26.50    2.90
  -4   1  -6    8.90    2.20
  -4   1  -6    6.90    2.30
   4  -1   6   11.30    2.60
  -5   1  -6    6.50    2.60
  -5   1  -6    6.60    2.30
   5  -1   6    7.20    2.50
  -6   1  -6   14.00    3.50
  -6   1  -6    4.30    2.50
   6  -1   6    8.20    2.90
  -7   1  -6    2.70    3.10
  -7   1  -6   -1.40    2.60
   7  -1   6    3.10    2.80
   8   0  -6   -0.30    3.20
  -8   0   6   -1.30    2.70
   7   0  -6   39.90    5.00
  -7   0   6   31.40    4.20
   6   0  -6   -1.40    2.40
   6   0  -6    2.20    1.70
  -6   0   6    1.70    2.10
   5   0  -6   46.40    3.60
   5   0  -6   45.20    4.70
  -5   0   6   40.30    3.90
   4   0  -6    1.60    1.20
   4   0  -6    0.70    1.90
  -4   0   6    2.20    1.20
  -4   0   6    0.80    1.50
   3   0  -6   47.10    2.70
   3   0  -6   51.69    3.90
  -3   0   6   44.50    2.70
  -3   0   6   45.80    3.10
   2   0  -6    1.60    1.00
   2   0  -6    2.50    1.30
   2   0  -6    2.70    1.70
  -2   0   6    0.90    1.10
   1   0  -6  136.49    5.30
   1   0  -6  142.99    6.00
   1   0  -6  141.49    5.80
  -1   0   6  142.99    5.70
   0   0  -6   -1.00    1.20
   0   0  -6    1.50    1.10
   0   0  -6   -0.60    1.30
   0   0  -6   -1.00    0.90
  -1   0  -6  339.07   11.20
  -1   0  -6  334.17   11.70
   1   0   6  334.67   11.70
  -2   0  -6    0.20    1.30
  -2   0  -6    1.70    1.60
   2   0   6    2.80    1.40
  -3   0  -6  261.57    9.80
  -3   0  -6  256.07   10.10
   3   0   6  268.37   10.20
  -4   0  -6   -0.70    1.60
  -4   0  -6   -0.20    1.90
   4   0   6   -1.10    1.80
  -5   0  -6   80.19    5.20
  -5   0  -6   89.49    5.70
   5   0   6   81.59    5.70
  -6   0  -6    1.00    2.20
  -6   0  -6   -1.70    2.50
   6   0   6    1.90    2.40
  -7   0  -6    8.90    3.10
  -7   0  -6   13.90    4.00
   7   0   6   10.80    3.10
   8  -1  -6   -2.00    2.90
   8  -1  -6   -1.10    3.20
  -8   1   6   -2.60    2.90
   7  -1  -6   19.90    4.00
  -7   1   6   18.40    3.60
   6  -1  -6    2.80    1.90
   6  -1  -6    1.30    2.50
  -6   1   6    0.40    2.20
   5  -1  -6   89.99    6.10
   5  -1  -6   85.59    4.70
  -5   1   6   84.99    5.40
   4  -1  -6   -1.20    1.80
   4  -1  -6   -0.20    1.30
  -4   1   6   -1.80    1.40
   3  -1  -6  103.59    4.80
   3  -1  -6  121.99    6.00
  -3   1   6  116.19    5.40
   2  -1  -6    5.20    1.30
   2  -1  -6    5.90    1.80
  -2   1   6    4.10    1.40
  -2   1   6    3.70    1.20
   1  -1  -6   47.20    3.10
   1  -1  -6   47.40    2.80
   1  -1  -6   46.10    2.90
   1  -1  -6   48.40    3.40
   0  -1  -6   20.30    2.10
   0  -1  -6   18.50    2.00
   0  -1  -6   19.10    2.20
   0  -1  -6   15.60    1.90
  -1  -1  -6    8.40    1.40
  -1  -1  -6    5.30    1.70
   1   1   6    5.10    1.60
  -2  -1  -6   17.50    2.40
  -2  -1  -6   21.80    2.20
   2   1   6   17.20    2.20
   2   1   6   16.10    1.50
  -3  -1  -6   13.00    2.00
  -3  -1  -6   12.20    2.50
   3   1   6   15.70    2.50
  -4  -1  -6    0.90    1.60
  -4  -1  -6    2.00    2.20
   4   1   6   -1.40    1.80
  -5  -1  -6   26.50    3.20
  -5  -1  -6   19.40    3.40
   5   1   6   21.80    3.40
  -6  -1  -6   -1.40    2.20
  -6  -1  -6    0.10    2.80
   6   1   6    1.10    2.50
  -7  -1  -6    1.50    2.60
  -7  -1  -6   20.30    4.10
   7   1   6   17.20    4.10
   8  -2  -6    1.00    3.00
   8  -2  -6    1.50    2.70
  -8   2   6   -2.80    3.10
   7  -2  -6    2.50    2.40
   7  -2  -6   11.80    3.50
  -7   2   6    4.90    3.00
   6  -2  -6    2.20    2.10
   6  -2  -6   -1.20    2.40
  -6   2   6   -2.40    2.40
   5  -2  -6    0.70    1.70
   5  -2  -6    4.20    2.40
  -5   2   6   -2.20    1.90
   4  -2  -6    3.60    2.30
   4  -2  -6    1.00    1.50
  -4   2   6    1.20    1.70
   3  -2  -6   27.20    3.20
   3  -2  -6   28.40    2.70
  -3   2   6   27.00    2.70
   2  -2  -6    3.10    1.40
   2  -2  -6    0.30    1.60
  -2   2   6    2.00    1.40
   1  -2  -6  103.59    4.60
   1  -2  -6  105.99    4.80
   1  -2  -6  104.39    5.00
   1  -2  -6   99.69    4.60
   0  -2  -6    1.30    1.30
   0  -2  -6    1.90    1.20
   0  -2  -6   -0.30    1.30
   0  -2  -6   -0.40    1.40
  -1  -2  -6   47.40    3.50
  -1  -2  -6   51.69    3.40
  -1  -2  -6   49.50    3.00
   1   2   6   47.30    2.90
  -2  -2  -6    1.00    1.80
  -2  -2  -6    2.70    1.30
   2   2   6    3.00    1.70
   2   2   6    0.80    1.00
  -3  -2  -6    4.00    1.50
  -3  -2  -6    0.20    1.80
   3   2   6    2.70    1.90
  -4  -2  -6    3.80    2.30
  -4  -2  -6    0.40    1.60
   4   2   6    1.70    2.00
  -5  -2  -6   -0.80    1.80
  -5  -2  -6    2.20    2.60
   5   2   6   -2.60    2.00
  -6  -2  -6    1.60    2.90
  -6  -2  -6    0.40    2.90
   6   2   6    3.00    2.50
  -7  -2  -6    1.90    3.60
   7   2   6    2.50    2.90
   7  -3  -6    0.20    2.50
   7  -3  -6   -2.70    2.60
  -7   3   6   -0.30    3.00
   6  -3  -6   40.50    4.30
   6  -3  -6   42.70    5.00
  -6   3   6   30.90    4.30
   5  -3  -6   13.50    3.10
   5  -3  -6   22.60    3.20
  -5   3   6   17.50    3.10
   4  -3  -6   75.49    5.30
   4  -3  -6   66.79    4.60
  -4   3   6   79.09    4.80
   3  -3  -6   47.10    4.30
   3  -3  -6   51.09    3.80
  -3   3   6   46.00    3.50
   2  -3  -6   31.10    3.30
   2  -3  -6   31.50    2.40
   2  -3  -6   38.70    3.10
  -2   3   6   33.80    2.90
   1  -3  -6   26.80    2.50
   1  -3  -6   20.10    2.50
   1  -3  -6   23.30    2.80
  -1   3   6   24.60    2.30
   0  -3  -6    1.40    1.60
   0  -3  -6    1.60    1.50
   0  -3  -6    1.10    1.20
   0   3   6    2.00    1.40
  -1  -3  -6    0.90    1.70
  -1  -3  -6    0.60    1.20
  -1  -3  -6    1.10    1.60
   1   3   6    1.90    1.30
  -2  -3  -6   -0.80    1.70
  -2  -3  -6   -1.60    1.10
   2   3   6   -0.30    1.20
   2   3   6    2.00    1.70
  -3  -3  -6    0.90    1.90
  -3  -3  -6    1.30    1.40
   3   3   6   -0.10    1.80
  -4  -3  -6    0.80    2.10
  -4  -3  -6    2.10    2.30
   4   3   6   -0.70    2.00
  -5  -3  -6    9.10    3.10
   5   3   6   12.90    3.00
  -6  -3  -6    6.30    3.40
   6   3   6    3.20    2.80
   7  -4  -6    4.60    3.00
   7  -4  -6   -1.10    2.90
  -7   4   6    6.40    3.50
   6  -4  -6    0.30    2.50
   6  -4  -6    0.10    2.80
  -6   4   6    2.70    3.00
   5  -4  -6    4.90    2.50
   5  -4  -6    2.10    2.60
  -5   4   6    3.40    2.60
   4  -4  -6   13.60    3.00
   4  -4  -6   10.40    2.60
  -4   4   6    8.00    2.40
   3  -4  -6    4.10    2.40
   3  -4  -6    8.00    2.20
  -3   4   6    4.40    2.00
   2  -4  -6   51.29    3.90
   2  -4  -6   43.80    4.30
  -2   4   6   44.40    3.30
   1  -4  -6  101.69    5.20
   1  -4  -6   94.89    4.70
  -1   4   6   99.99    5.20
  -1   4   6   88.69    4.40
   0  -4  -6   40.80    3.50
   0  -4  -6   48.30    4.00
   0   4   6   42.50    3.70
  -1  -4  -6  171.38    7.60
  -1  -4  -6  168.08    7.40
   1   4   6  172.08    7.30
  -2  -4  -6    7.90    2.30
   2   4   6    7.40    2.40
   2   4   6    7.40    2.00
  -3  -4  -6  101.99    5.90
   3   4   6   99.69    6.00
  -4  -4  -6   -1.50    2.20
   4   4   6   -0.60    2.10
  -5  -4  -6   30.70    4.30
   5   4   6   21.30    3.60
  -6  -4  -6    0.40    3.20
   6   4   6   -1.30    2.50
   7  -5  -6    0.30    4.50
   7  -5  -6    3.40    3.50
  -7   5   6   -0.90    3.20
   6  -5  -6    4.10    3.00
   6  -5  -6    1.30    3.20
  -6   5   6    3.90    3.10
   5  -5  -6    5.50    2.70
   5  -5  -6   -0.30    2.90
  -5   5   6    2.70    2.50
   4  -5  -6   16.90    3.30
   4  -5  -6   16.80    3.50
  -4   5   6   16.50    2.90
   3  -5  -6    4.90    2.30
   3  -5  -6    8.10    2.90
  -3   5   6    4.10    2.00
   2  -5  -6   10.70    2.50
  -2   5   6   11.70    2.60
  -2   5   6    8.00    2.00
   1  -5  -6    3.20    2.10
   1  -5  -6    4.70    1.80
  -1   5   6    3.90    2.00
  -1   5   6    4.40    1.50
   0  -5  -6    5.60    2.10
   0  -5  -6    2.60    2.00
   0   5   6    3.00    1.90
  -1  -5  -6   -0.80    1.90
  -1  -5  -6    0.30    1.90
   1   5   6   -0.10    1.80
  -2  -5  -6   27.50    3.40
   2   5   6   39.80    3.90
  -3  -5  -6   13.80    3.10
   3   5   6   10.60    2.90
  -4  -5  -6   25.70    4.10
   4   5   6   24.40    3.70
  -5  -5  -6   11.70    3.50
   5   5   6   19.20    3.80
   6  -6  -6    2.10    3.50
   6  -6  -6    3.90    3.50
  -6   6   6    4.60    3.40
   5  -6  -6    5.90    3.10
   5  -6  -6    5.60    3.50
  -5   6   6   10.30    3.20
   4  -6  -6    9.00    3.50
   4  -6  -6    6.60    2.90
  -4   6   6    7.50    2.60
   3  -6  -6    5.80    2.50
  -3   6   6    4.60    2.20
  -3   6   6    7.50    2.70
   2  -6  -6   -0.20    2.10
  -2   6   6    0.90    2.10
   1  -6  -6   -1.40    1.60
   1  -6  -6    1.50    2.30
  -1   6   6   -0.20    1.90
   0  -6  -6    3.70    2.20
   0  -6  -6    1.00    2.20
   0   6   6    2.80    2.10
  -1  -6  -6    6.80    2.60
  -1  -6  -6    3.10    2.30
   1   6   6    4.60    2.40
  -2  -6  -6    2.00    2.30
   2   6   6    0.80    2.20
  -3  -6  -6    6.50    2.90
   3   6   6    9.80    3.00
  -4  -6  -6    1.70    2.90
   4   6   6   -0.70    2.60
  -5  -6  -6    7.90    3.90
   5   6   6   -1.20    2.90
   5  -7  -6   -1.30    3.00
  -5   7   6   -1.00    3.00
  -5   7   6    2.40    2.70
   4  -7  -6    8.60    3.30
  -4   7   6    8.30    3.10
   3  -7  -6    2.90    2.80
  -3   7   6   -1.50    2.20
   2  -7  -6   25.90    4.00
  -2   7   6   21.50    3.70
   1  -7  -6   -0.30    2.30
   1  -7  -6   -0.70    2.10
  -1   7   6    3.80    2.50
   0  -7  -6   16.50    3.00
   0  -7  -6   19.40    3.60
   0   7   6   18.70    3.50
  -1  -7  -6    3.20    2.50
  -1  -7  -6    2.20    2.60
   1   7   6    1.90    2.40
  -2  -7  -6    4.10    2.80
   2   7   6    1.60    2.50
  -3  -7  -6   -2.00    2.70
   3   7   6    0.70    2.90
  -4  -7  -6    1.50    3.20
   4   7   6    1.80    3.10
   4  -8  -6    0.60    3.30
  -4   8   6    0.80    2.70
   3  -8  -6    6.00    3.30
  -3   8   6    0.60    2.60
   2  -8  -6    0.50    2.90
  -2   8   6   -0.60    2.40
   1  -8  -6    2.20    2.90
  -1   8   6   -1.70    2.30
   0  -8  -6    7.20    3.20
   0  -8  -6   -0.20    2.10
   0   8   6    3.20    2.80
  -1  -8  -6   -1.70    2.80
  -1  -8  -6    0.90    2.60
   1   8   6   -1.80    2.60
  -2  -8  -6    8.10    3.50
   2   8   6   10.30    3.70
   3   8   6   -0.20    3.00
   3  -9  -6   -0.30    3.40
  -3   9   6    3.50    3.10
   2  -9  -6   11.00    3.90
  -2   9   6    9.50    3.60
   1  -9  -6   -0.30    3.30
  -1   9   6    0.80    2.90
   0  -9  -6    7.40    3.80
   0   9   6    4.80    3.30
  -1  -9  -6    0.10    3.40
  -1  -9  -6    1.70    3.30
   1   9   6    5.30    3.30
   1  12  -7    4.30    3.80
  -1 -12   7   10.20    4.20
   0  12  -7    7.70    4.00
   0 -12   7    9.50    4.10
  -1  12  -7    1.60    3.60
   1 -12   7    4.50    3.60
  -2  12  -7    9.60    4.10
   2 -12   7   11.00    4.50
   3  11  -7    3.10    3.50
  -3 -11   7   -0.70    3.60
   2  11  -7    6.20    3.70
  -2 -11   7    6.90    3.50
   1  11  -7   -0.10    3.00
  -1 -11   7   -1.90    3.00
   0  11  -7    0.70    3.10
   0 -11   7   -0.80    3.10
  -1  11  -7    0.10    3.00
   1 -11   7   -0.50    3.00
   1 -11   7    3.30    3.30
   2 -11   7   -0.50    2.50
   2 -11   7    0.10    3.20
  -3  11  -7    5.00    3.50
   3 -11   7    3.60    3.90
   4 -11   7    3.60    4.00
   4  10  -7   -1.50    2.90
  -4 -10   7   -0.10    3.40
   3  10  -7   -1.00    2.80
  -3 -10   7    1.10    3.00
   2  10  -7    0.20    2.70
  -2 -10   7    5.00    2.90
   1  10  -7   10.80    3.30
  -1 -10   7   10.10    3.20
   0  10  -7   -0.60    2.60
   0 -10   7    4.30    2.80
  -1  10  -7   17.10    3.60
   1 -10   7   13.00    3.20
   1 -10   7   17.00    3.50
  -2  10  -7    2.30    2.80
   2 -10   7   -0.50    2.70
   2 -10   7   -1.50    2.30
  -3  10  -7    7.70    3.20
  -3  10  -7   11.00    3.50
   3 -10   7   13.90    3.80
   3 -10   7   -0.90    2.50
  -4  10  -7   -1.60    2.90
   4 -10   7    4.40    3.80
  -5  10  -7    3.10    3.50
   5 -10   7    1.80    4.00
   5   9  -7    1.40    3.10
  -5  -9   7    6.90    3.70
   4   9  -7   13.50    3.60
  -4  -9   7   22.90    4.10
   3   9  -7   -0.50    2.50
  -3  -9   7    1.20    2.70
   2   9  -7   26.70    4.10
  -2  -9   7   20.70    3.60
   1   9  -7   10.50    3.00
  -1  -9   7   13.20    3.10
   0   9  -7    4.60    2.70
   0  -9   7    6.30    2.40
  -1   9  -7    5.10    2.30
  -1   9  -7    1.50    2.50
   1  -9   7    2.80    2.50
   1  -9   7    5.70    2.60
  -2   9  -7    0.00    2.20
  -2   9  -7    1.40    2.40
   2  -9   7   -0.10    2.30
   2  -9   7    2.40    2.40
  -3   9  -7    0.70    2.40
  -3   9  -7    4.60    2.80
   3  -9   7   -0.20    2.00
   3  -9   7   -0.80    2.60
  -4   9  -7    2.00    3.00
   4  -9   7   -0.30    2.60
  -5   9  -7    1.60    3.10
   5  -9   7    8.00    3.40
   6   8  -7    7.90    3.60
  -6  -8   7    3.20    3.10
   5   8  -7   -5.00    2.40
  -5  -8   7    0.30    2.80
   4   8  -7   18.90    3.70
  -4  -8   7   13.20    3.20
   3   8  -7    6.00    2.60
  -3  -8   7    4.00    2.60
   2   8  -7    4.80    2.40
  -2  -8   7    4.10    2.30
   1   8  -7    4.40    2.30
   1   8  -7    3.40    1.90
  -1  -8   7    1.80    2.30
   0   8  -7    5.20    2.00
   0   8  -7    3.20    2.30
   0  -8   7    3.80    2.00
   0  -8   7    4.30    2.40
  -1   8  -7    0.80    1.90
  -1   8  -7    3.10    2.20
   1  -8   7    3.80    2.00
   1  -8   7    2.00    2.20
  -2   8  -7   31.50    3.50
  -2   8  -7   24.90    3.40
   2  -8   7   29.60    3.40
   2  -8   7   19.70    3.30
  -3   8  -7   19.90    3.30
  -3   8  -7   10.20    2.60
   3  -8   7   16.80    3.10
   3  -8   7   16.00    3.10
  -4   8  -7   14.30    3.40
   4  -8   7   16.60    3.30
  -5   8  -7   12.30    3.50
   5  -8   7   12.80    3.50
  -6   8  -7    4.60    3.50
   6  -8   7    8.00    3.60
   6   7  -7   -3.80    2.50
  -6  -7   7   -1.80    2.40
   5   7  -7   14.60    3.50
  -5  -7   7   12.00    3.20
   4   7  -7    2.10    2.30
  -4  -7   7    3.60    2.40
  -4  -7   7    0.40    1.40
   3   7  -7   21.10    3.30
  -3  -7   7   14.60    2.90
   2   7  -7   40.70    4.20
   2   7  -7   50.99    3.60
  -2  -7   7   43.90    4.30
   1   7  -7    6.00    2.30
   1   7  -7    5.70    1.90
  -1  -7   7    7.50    2.40
   0   7  -7   67.19    4.50
   0   7  -7   69.89    4.10
   0  -7   7   66.19    3.90
   0  -7   7   66.09    4.70
  -1   7  -7   -0.90    1.60
  -1   7  -7    0.00    1.80
   1  -7   7   -0.20    2.10
   1  -7   7    0.50    1.50
  -2   7  -7   24.10    3.10
  -2   7  -7   26.50    3.10
   2  -7   7   25.20    3.20
   2  -7   7   27.40    3.10
  -3   7  -7    3.50    2.40
  -3   7  -7   -0.50    1.60
   3  -7   7    3.90    2.30
   3  -7   7   -0.40    2.00
  -4   7  -7   -1.00    2.40
   4  -7   7    0.70    2.00
   4  -7   7    0.70    2.30
  -5   7  -7   -0.40    2.70
   5  -7   7    1.10    2.70
  -6   7  -7    1.90    3.20
   6  -7   7    4.10    3.30
   7   6  -7    2.50    3.20
  -7  -6   7    0.80    2.70
   6   6  -7    1.70    2.60
  -6  -6   7   -1.20    1.90
  -6  -6   7   -0.60    2.30
   5   6  -7    2.80    2.50
  -5  -6   7    1.20    2.30
  -5  -6   7   -1.70    1.50
   4   6  -7   11.20    2.90
  -4  -6   7   12.60    2.80
  -4  -6   7    8.00    1.90
   3   6  -7    8.70    2.50
  -3  -6   7    4.10    2.10
  -3  -6   7    6.40    1.70
   2   6  -7    5.40    1.80
   2   6  -7    4.30    1.90
  -2  -6   7    2.60    1.80
   1   6  -7   10.40    2.10
   1   6  -7    8.90    2.20
  -1  -6   7   14.90    2.50
   0   6  -7    5.00    1.60
   0   6  -7    4.80    1.80
   0  -6   7    4.40    1.40
   0  -6   7    5.80    2.20
  -1   6  -7    2.60    1.70
  -1   6  -7    4.50    1.70
   1  -6   7    2.00    2.00
   1  -6   7    3.40    1.60
  -2   6  -7   14.10    2.50
  -2   6  -7   16.70    2.40
   2  -6   7   21.10    2.90
   2  -6   7   19.70    2.60
  -3   6  -7    0.90    1.40
  -3   6  -7    1.00    2.00
   3  -6   7   -0.40    1.80
   3  -6   7   -0.70    1.90
  -4   6  -7   11.60    2.80
   4  -6   7   10.30    2.80
   4  -6   7   15.00    2.80
  -5   6  -7   -0.60    2.40
   5  -6   7    1.20    2.60
   5  -6   7   -0.70    2.10
  -6   6  -7    2.40    2.90
   6  -6   7   -0.70    2.80
  -7   6  -7    0.30    3.30
   7  -6   7    2.40    3.30
   7   5  -7    2.60    3.00
  -7  -5   7    0.20    2.70
  -7  -5   7   -1.90    2.10
   6   5  -7   -0.30    2.60
  -6  -5   7   -1.00    1.90
  -6  -5   7    0.90    2.30
   5   5  -7   12.40    3.00
  -5  -5   7   10.60    2.20
  -5  -5   7   11.10    2.70
   4   5  -7   -0.10    1.90
  -4  -5   7    1.10    1.40
  -4  -5   7   -0.20    1.70
   3   5  -7   22.10    3.10
  -3  -5   7   13.10    2.50
  -3  -5   7   24.00    2.60
   2   5  -7    7.90    2.00
   2   5  -7    4.50    1.70
  -2  -5   7    6.80    2.00
   1   5  -7    0.40    1.40
   1   5  -7   -0.80    1.30
  -1  -5   7   -1.60    1.50
   0   5  -7   18.60    2.40
   0   5  -7   15.30    2.10
   0  -5   7   16.30    2.50
  -1   5  -7   16.10    2.30
  -1   5  -7   15.60    2.10
   1  -5   7   16.20    2.00
   1  -5   7   15.80    2.60
  -2   5  -7   -2.10    1.50
  -2   5  -7    0.20    1.20
   2  -5   7    1.20    1.80
   2  -5   7    1.30    1.50
  -3   5  -7   14.20    2.60
   3  -5   7   16.30    2.60
   3  -5   7   14.20    2.50
  -4   5  -7    6.00    2.40
   4  -5   7   11.70    2.60
   4  -5   7    2.90    2.30
  -5   5  -7    2.20    2.40
   5  -5   7   -0.50    2.10
   5  -5   7    0.50    2.60
  -6   5  -7    7.00    2.90
   6  -5   7    5.10    3.00
  -7   5  -7   -0.80    2.80
   7  -5   7   -0.20    3.30
   7   4  -7    3.60    3.10
  -7  -4   7    1.10    2.40
   6   4  -7    0.30    2.50
  -6  -4   7    2.10    2.10
  -6  -4   7    0.90    2.20
   5   4  -7    7.10    2.60
  -5  -4   7    3.00    1.90
  -5  -4   7    5.10    2.10
   4   4  -7    6.00    2.20
  -4  -4   7    1.90    1.60
  -4  -4   7    1.20    1.70
   3   4  -7   -0.30    1.60
  -3  -4   7   -0.30    1.50
  -3  -4   7    1.70    1.40
   2   4  -7   32.20    3.00
   2   4  -7   37.40    3.60
  -2  -4   7   40.30    3.40
   1   4  -7   65.59    3.80
   1   4  -7   55.89    3.60
  -1  -4   7   49.20    3.80
   0   4  -7    6.20    1.50
   0   4  -7    5.10    1.60
   0  -4   7    5.70    1.90
  -1   4  -7   98.49    4.40
  -1   4  -7   90.89    4.80
   1  -4   7  100.49    4.30
   1  -4   7   94.19    5.00
  -2   4  -7   27.20    2.20
  -2   4  -7   27.50    2.90
   2  -4   7   33.30    2.90
   2  -4   7   34.90    3.30
  -3   4  -7   28.20    3.20
   3  -4   7   33.40    3.50
   3  -4   7   38.30    3.50
  -4   4  -7   34.00    3.50
   4  -4   7   37.90    3.80
   4  -4   7   35.50    3.80
  -5   4  -7    1.50    2.20
   5  -4   7    1.00    2.30
   5  -4   7    4.90    2.40
  -6   4  -7    0.60    2.50
   6  -4   7    5.20    3.20
  -7   4  -7    1.30    2.80
   7  -4   7   -0.80    3.10
   7   3  -7    1.20    3.10
  -7  -3   7    1.20    2.60
   6   3  -7    2.00    2.80
  -6  -3   7    2.60    2.20
  -6  -3   7    1.40    2.10
   5   3  -7   12.10    3.00
  -5  -3   7    1.20    1.70
  -5  -3   7    8.50    2.30
   4   3  -7   76.69    5.30
  -4  -3   7   72.79    4.20
  -4  -3   7   69.89    4.40
   3   3  -7   17.50    2.80
  -3  -3   7   17.60    2.30
  -3  -3   7   20.90    2.40
   2   3  -7  229.58    9.10
   2   3  -7  209.78    8.50
  -2  -3   7  226.28    8.70
   1   3  -7   43.10    3.20
   1   3  -7   50.49    3.50
  -1  -3   7   49.10    3.40
   0   3  -7  104.29    4.80
   0   3  -7  107.69    4.90
   0  -3   7  108.59    5.20
  -1   3  -7    8.00    1.40
  -1   3  -7    8.70    1.90
   1  -3   7    8.40    1.40
   1  -3   7    7.50    1.90
  -2   3  -7    6.50    1.80
   2  -3   7    4.30    1.60
   2  -3   7    6.80    1.90
  -3   3  -7   10.00    2.20
  -3   3  -7   15.40    2.50
   3  -3   7   10.00    2.20
  -4   3  -7    0.80    1.90
  -4   3  -7    0.60    2.10
   4  -3   7    3.30    2.10
  -5   3  -7   30.70    3.80
  -5   3  -7   28.00    3.50
   5  -3   7   27.90    3.70
  -6   3  -7   -2.30    2.70
  -6   3  -7   -0.50    2.30
   6  -3   7   -0.60    2.50
  -7   3  -7   13.60    3.40
   7  -3   7   14.10    3.70
   8   2  -7    0.00    3.30
  -8  -2   7   -0.30    2.90
   7   2  -7    3.00    3.00
  -7  -2   7    5.60    2.70
   6   2  -7   -1.10    2.50
  -6  -2   7    0.10    2.00
   5   2  -7   12.10    3.30
  -5  -2   7   13.70    2.50
  -5  -2   7   13.40    2.10
   4   2  -7    0.80    2.10
  -4  -2   7    1.90    1.60
  -4  -2   7    3.40    1.70
   3   2  -7   29.90    3.50
  -3  -2   7   36.80    2.90
  -3  -2   7   37.60    3.20
   2   2  -7    0.80    1.60
   2   2  -7    3.70    1.50
  -2  -2   7    1.40    1.30
   1   2  -7    2.90    1.60
   1   2  -7    4.50    1.50
  -1  -2   7    8.10    1.80
   0   2  -7   58.29    3.50
   0   2  -7   74.99    3.80
   0  -2   7   65.59    3.80
  -1   2  -7   13.40    2.00
  -1   2  -7    9.80    1.40
   1  -2   7   11.40    1.70
   1  -2   7   11.20    2.00
  -2   2  -7   75.49    4.10
  -2   2  -7   70.99    4.30
   2  -2   7   67.29    4.00
  -3   2  -7    3.40    1.90
  -3   2  -7    2.00    1.70
   3  -2   7    2.20    1.70
  -4   2  -7   10.20    2.60
  -4   2  -7   15.00    2.60
   4  -2   7   15.80    2.80
  -5   2  -7    2.00    2.40
  -5   2  -7    2.20    2.20
   5  -2   7    0.60    2.30
  -6   2  -7   -1.00    2.30
  -6   2  -7   -2.20    2.70
   6  -2   7   -1.30    2.50
  -7   2  -7   -0.10    3.70
  -7   2  -7    1.00    2.90
   7  -2   7    2.00    2.70
   8   1  -7    1.50    3.50
  -8  -1   7    2.90    3.00
   7   1  -7    7.90    3.50
  -7  -1   7    1.80    2.50
   6   1  -7   -1.70    2.50
  -6  -1   7    0.20    2.10
   5   1  -7   36.40    4.40
  -5  -1   7   38.10    3.10
  -5  -1   7   31.00    3.30
   4   1  -7    3.10    2.20
  -4  -1   7    2.90    1.40
  -4  -1   7    2.50    1.70
   3   1  -7   28.30    3.40
  -3  -1   7   30.90    2.90
  -3  -1   7   29.60    2.50
   2   1  -7   33.70    2.90
   2   1  -7   40.80    3.60
  -2  -1   7   35.70    2.80
   1   1  -7   -1.60    1.30
   1   1  -7   -1.50    1.20
  -1  -1   7   -0.50    1.10
   0   1  -7   98.39    4.60
   0   1  -7   83.39    4.30
   0  -1   7   93.09    3.90
  -1   1  -7   24.40    2.70
  -1   1  -7   26.80    2.00
  -1   1  -7   32.40    2.70
   1  -1   7   27.60    2.30
  -2   1  -7   77.19    4.20
  -2   1  -7   67.19    4.30
   2  -1   7   74.79    4.20
  -3   1  -7    6.50    1.90
  -3   1  -7    1.70    1.80
   3  -1   7    3.10    1.90
  -4   1  -7   20.10    3.00
  -4   1  -7   21.30    2.90
   4  -1   7   18.20    2.90
  -5   1  -7    3.00    2.60
  -5   1  -7    4.80    2.30
   5  -1   7    3.60    2.40
  -6   1  -7   -1.30    2.70
  -6   1  -7    3.70    2.70
   6  -1   7    0.10    2.40
  -7   1  -7    5.40    3.00
  -7   1  -7    6.00    3.50
   7  -1   7    1.70    3.00
   8   0  -7    2.30    3.40
  -8   0   7    1.10    2.90
   7   0  -7    3.60    3.10
  -7   0   7   -0.10    2.40
   6   0  -7    0.50    1.60
   6   0  -7    5.80    2.90
  -6   0   7    7.90    2.60
   5   0  -7    0.00    1.30
   5   0  -7   13.00    3.10
  -5   0   7    6.70    2.20
   4   0  -7   19.10    3.30
   4   0  -7   18.60    2.10
  -4   0   7   18.30    2.00
  -4   0   7   20.80    2.70
   3   0  -7  115.29    6.20
   3   0  -7  108.19    4.70
  -3   0   7  117.39    4.80
  -3   0   7  115.79    5.40
   2   0  -7   60.59    3.10
   2   0  -7   72.69    3.90
   2   0  -7   69.79    4.40
  -2   0   7   68.69    3.50
   1   0  -7  283.97   10.00
   1   0  -7  303.47   10.80
   1   0  -7  285.57   10.50
  -1   0   7  283.17   10.30
   0   0  -7   83.19    4.20
   0   0  -7   76.39    4.20
   0   0  -7   80.99    4.00
  -1   0  -7  106.59    4.80
  -1   0  -7  108.89    4.40
  -1   0  -7  106.09    5.20
   1   0   7  109.29    4.80
  -2   0  -7   16.20    2.20
  -2   0  -7    9.50    2.10
   2   0   7   12.40    2.00
  -3   0  -7    6.80    2.20
  -3   0  -7    3.80    1.80
   3   0   7    4.50    1.90
  -4   0  -7    0.60    1.70
  -4   0  -7   -0.70    2.00
   4   0   7    1.00    2.00
  -5   0  -7   -2.60    2.10
  -5   0  -7    1.70    2.50
   5   0   7    1.60    2.30
  -6   0  -7   -0.30    3.00
  -6   0  -7    1.80    2.40
   6   0   7   -1.40    2.30
  -7   0  -7   -0.40    3.40
  -7   0  -7    0.20    2.90
   7   0   7    1.20    2.90
   8  -1  -7    2.30    3.30
  -8   1   7    4.10    3.30
   7  -1  -7    2.40    2.30
   7  -1  -7    4.50    3.20
  -7   1   7    5.10    2.90
   6  -1  -7    7.80    3.20
   6  -1  -7    0.10    1.70
  -6   1   7    7.50    2.70
   5  -1  -7    0.10    1.60
   5  -1  -7    0.80    2.50
  -5   1   7   -0.20    2.00
   4  -1  -7    2.50    1.50
   4  -1  -7    0.90    2.10
  -4   1   7    3.60    1.80
   3  -1  -7   -1.80    1.70
   3  -1  -7   -0.50    1.20
  -3   1   7    0.20    1.40
  -3   1   7    0.00    1.10
   2  -1  -7    7.10    1.60
   2  -1  -7    7.90    2.00
  -2   1   7    3.70    1.60
  -2   1   7    5.80    1.40
   1  -1  -7   13.30    2.20
   1  -1  -7    8.90    1.60
   1  -1  -7   12.00    2.00
   1  -1  -7   12.90    1.90
   0  -1  -7   28.90    2.70
   0  -1  -7   26.20    2.40
   0  -1  -7   28.90    2.60
   0  -1  -7   26.20    2.40
  -1  -1  -7   62.69    3.50
  -1  -1  -7   57.89    4.00
   1   1   7   62.99    3.70
  -2  -1  -7   45.50    3.20
  -2  -1  -7   45.60    3.90
   2   1   7   42.10    2.40
   2   1   7   46.60    3.40
  -3  -1  -7   44.90    3.40
  -3  -1  -7   40.70    3.80
   3   1   7   33.90    3.40
  -4  -1  -7   21.20    2.80
  -4  -1  -7   22.20    3.30
   4   1   7   28.00    3.60
  -5  -1  -7    2.90    2.60
  -5  -1  -7    9.40    2.40
   5   1   7    5.30    2.60
  -6  -1  -7   -2.40    2.20
  -6  -1  -7    5.20    3.20
   6   1   7    7.60    3.20
  -7  -1  -7    1.50    3.50
  -7  -1  -7   -1.10    3.10
   7   1   7   -1.10    2.90
   7  -2  -7    0.90    2.00
   7  -2  -7    4.90    3.40
  -7   2   7    7.80    3.40
   6  -2  -7    0.80    2.90
   6  -2  -7    5.10    2.20
  -6   2   7    6.80    2.90
   5  -2  -7   15.30    3.30
   5  -2  -7   11.60    2.40
  -5   2   7   12.80    2.80
   4  -2  -7   15.50    2.40
   4  -2  -7   10.90    2.90
  -4   2   7   17.50    2.80
   3  -2  -7   -4.70    1.60
   3  -2  -7    1.60    1.40
  -3   2   7   -0.50    1.50
   2  -2  -7   12.10    2.50
   2  -2  -7   17.00    2.20
  -2   2   7   12.90    2.10
   1  -2  -7    4.80    1.60
   1  -2  -7    3.20    1.40
   1  -2  -7    3.20    1.40
   1  -2  -7    4.60    1.80
   0  -2  -7   11.30    2.00
   0  -2  -7   13.90    2.20
   0  -2  -7   10.60    1.90
   0  -2  -7   10.10    1.80
  -1  -2  -7    0.30    1.30
  -1  -2  -7   -1.40    1.60
   1   2   7   -1.20    1.00
  -2  -2  -7    9.90    2.50
  -2  -2  -7   12.40    1.80
   2   2   7    9.70    2.20
   2   2   7    8.50    1.50
  -3  -2  -7    3.30    1.60
  -3  -2  -7    4.00    2.30
   3   2   7    3.60    2.00
  -4  -2  -7    1.80    1.70
  -4  -2  -7    7.60    2.80
   4   2   7   10.10    2.70
  -5  -2  -7    3.10    2.90
  -5  -2  -7   -0.10    1.90
   5   2   7    5.90    2.90
  -6  -2  -7    7.90    3.60
   6   2   7    2.70    2.80
   7  -3  -7    3.40    2.70
   7  -3  -7   17.90    4.40
  -7   3   7   11.60    3.70
   6  -3  -7    0.30    2.70
   6  -3  -7    3.50    2.50
  -6   3   7    1.70    2.80
   5  -3  -7    1.30    2.60
   5  -3  -7    3.80    2.20
  -5   3   7    3.50    2.40
   4  -3  -7    3.10    2.30
   4  -3  -7    5.30    2.20
  -4   3   7    4.90    2.10
   3  -3  -7   -0.30    1.90
   3  -3  -7   -2.30    1.50
  -3   3   7   -0.60    1.50
   2  -3  -7    4.40    1.50
   2  -3  -7    6.20    1.90
   2  -3  -7    4.10    2.20
  -2   3   7    4.10    1.70
   1  -3  -7   16.80    2.70
   1  -3  -7   18.90    2.30
   1  -3  -7   15.00    2.50
  -1   3   7   15.70    2.10
   0  -3  -7    0.30    1.60
   0  -3  -7    1.60    1.70
   0  -3  -7   -0.50    1.30
   0   3   7    0.50    1.40
  -1  -3  -7   87.19    5.10
  -1  -3  -7   98.29    4.50
  -1  -3  -7   86.99    5.20
   1   3   7   91.29    4.60
  -2  -3  -7    1.00    1.50
  -2  -3  -7    1.40    2.10
   2   3   7    4.80    1.60
   2   3   7    3.40    2.00
  -3  -3  -7   83.89    5.60
   3   3   7   97.19    5.70
  -4  -3  -7    5.60    2.80
   4   3   7    1.90    2.40
  -5  -3  -7   31.90    4.40
   5   3   7   28.40    4.20
  -6  -3  -7    1.60    3.40
   6   3   7   -3.00    2.70
   7  -4  -7   17.80    3.80
   7  -4  -7   20.70    4.40
  -7   4   7   17.40    4.20
   6  -4  -7   23.70    3.90
   6  -4  -7   28.90    4.60
  -6   4   7   30.20    4.50
   5  -4  -7  105.69    6.50
   5  -4  -7  108.89    7.20
  -5   4   7  117.39    6.80
   4  -4  -7   31.50    3.70
   4  -4  -7   29.60    4.10
  -4   4   7   27.60    3.50
   3  -4  -7  163.18    7.80
   3  -4  -7  176.48    8.70
  -3   4   7  182.88    7.70
   2  -4  -7    0.80    1.90
   2  -4  -7    5.10    2.60
   2  -4  -7   -1.00    1.40
  -2   4   7    2.10    1.60
   1  -4  -7  140.99    6.20
   1  -4  -7  141.39    6.80
  -1   4   7  130.29    6.00
   0  -4  -7   -1.40    1.80
   0  -4  -7   -2.30    1.20
   0  -4  -7    1.60    1.90
   0   4   7    0.70    1.60
  -1  -4  -7   68.69    4.90
  -1  -4  -7   70.49    4.90
   1   4   7   78.99    4.60
  -2  -4  -7    0.20    2.20
   2   4   7    1.30    1.70
   2   4   7    1.20    2.10
  -3  -4  -7   49.30    4.90
   3   4   7   56.29    4.90
  -4  -4  -7    5.70    2.80
   4   4   7   10.20    3.10
  -5  -4  -7   45.50    5.40
   5   4   7   47.40    5.00
   6  -5  -7    2.70    3.60
   6  -5  -7    0.50    3.10
  -6   5   7   -1.70    3.00
   5  -5  -7    1.60    3.20
   5  -5  -7    2.00    2.90
  -5   5   7    2.10    2.90
   4  -5  -7   10.10    3.40
   4  -5  -7    1.10    2.40
  -4   5   7    7.50    2.60
   3  -5  -7   18.80    3.60
   3  -5  -7   20.20    3.30
  -3   5   7   18.90    2.90
   2  -5  -7   54.09    4.80
  -2   5   7   56.09    3.90
  -2   5   7   46.90    4.60
   1  -5  -7   28.00    3.20
   1  -5  -7   48.90    4.40
  -1   5   7   46.20    4.30
  -1   5   7   46.20    3.70
   0  -5  -7   54.99    4.30
   0  -5  -7   51.79    4.70
   0   5   7   50.39    4.50
  -1  -5  -7   31.50    3.80
  -1  -5  -7   41.90    4.30
   1   5   7   38.90    3.90
  -2  -5  -7    3.50    2.50
   2   5   7    6.50    2.40
   2   5   7    3.90    2.40
  -3  -5  -7   15.60    3.30
   3   5   7   14.10    3.50
  -4  -5  -7    0.90    2.80
   4   5   7    0.30    2.70
  -5  -5  -7    1.80    3.30
   5   5   7    4.40    3.30
   6  -6  -7   -0.20    3.50
   6  -6  -7    1.60    3.50
  -6   6   7   -1.30    3.10
   5  -6  -7    1.60    3.20
   5  -6  -7    0.30    3.50
  -5   6   7    1.30    2.90
   4  -6  -7    4.30    2.80
   4  -6  -7    8.10    3.50
  -4   6   7   10.80    3.00
   3  -6  -7   -0.50    2.50
  -3   6   7    1.60    2.10
  -3   6   7   -0.60    2.20
   2  -6  -7   11.60    3.10
  -2   6   7    8.20    2.60
   1  -6  -7    7.50    2.80
   1  -6  -7    2.30    2.00
  -1   6   7    6.50    2.60
   0  -6  -7    2.50    2.20
   0  -6  -7   -0.10    2.30
   0   6   7   -1.30    2.00
  -1  -6  -7    4.20    2.60
  -1  -6  -7    3.60    2.60
   1   6   7    4.90    2.50
  -2  -6  -7    8.30    3.00
   2   6   7    4.10    2.90
   2   6   7   10.50    2.90
  -3  -6  -7    3.50    2.90
   3   6   7    3.30    2.80
  -4  -6  -7    0.80    3.20
   4   6   7    5.70    3.20
   5  -7  -7    2.70    3.70
  -5   7   7    3.20    3.20
   4  -7  -7    0.40    2.90
  -4   7   7   -2.50    2.40
   3  -7  -7    2.90    2.90
  -3   7   7    0.90    2.50
   2  -7  -7    7.20    3.10
  -2   7   7    3.10    2.70
   1  -7  -7    1.90    2.60
  -1   7   7    3.00    2.70
   0  -7  -7   18.20    3.80
   0   7   7   24.60    4.00
  -1  -7  -7    2.40    2.60
  -1  -7  -7    2.40    2.80
   1   7   7    0.10    2.50
  -2  -7  -7   10.80    3.60
   2   7   7   17.70    3.90
  -3  -7  -7   -2.90    2.90
   3   7   7   -1.50    3.00
  -4   8   7    1.80    3.00
   3  -8  -7    0.00    3.10
  -3   8   7   -0.70    2.80
   2  -8  -7   -0.50    2.80
  -2   8   7   -0.20    2.80
   1  -8  -7   -3.80    2.80
  -1   8   7   -0.40    2.70
   0  -8  -7    2.60    3.10
   0  -8  -7   -0.10    2.70
   0   8   7   -0.20    2.60
  -1  -8  -7    3.10    3.10
  -1  -8  -7    3.20    3.20
   1   8   7    2.00    3.10
  -2  -8  -7    1.00    3.40
   1  12  -8    4.20    4.00
  -1 -12   8   -0.50    3.60
   0  12  -8   11.50    4.40
   0 -12   8   14.20    4.30
  -1  12  -8    3.90    4.00
   1 -12   8    0.50    3.50
  -2  12  -8    8.30    4.10
   3  11  -8    0.50    3.50
  -3 -11   8    0.30    3.30
   2  11  -8    5.80    3.80
  -2 -11   8    3.00    3.40
   1  11  -8   -2.00    3.00
  -1 -11   8    0.30    3.20
   0  11  -8    0.00    3.00
   0 -11   8   -2.70    3.00
  -1  11  -8    1.90    3.40
   1 -11   8   -0.80    2.90
  -2  11  -8   -0.20    3.20
   2 -11   8    2.30    3.80
   2 -11   8    2.40    2.80
  -3  11  -8   -1.40    3.00
   3 -11   8    1.00    3.50
   4  10  -8    1.50    3.10
  -4 -10   8    7.80    3.60
   3  10  -8   24.20    4.50
  -3 -10   8   21.90    4.20
   2  10  -8    5.30    3.10
  -2 -10   8    7.70    3.20
   1  10  -8   12.50    3.60
  -1 -10   8    8.10    3.20
   0  10  -8    9.20    3.20
   0 -10   8    9.50    3.30
  -1  10  -8    1.50    2.80
   1 -10   8   -0.50    2.70
  -2  10  -8   20.40    3.40
  -2  10  -8   10.50    3.10
   2 -10   8   13.00    3.40
   2 -10   8    9.90    3.20
  -3  10  -8   -0.90    2.50
  -3  10  -8    0.80    2.90
   3 -10   8    1.80    2.60
   3 -10   8    3.20    3.30
  -4  10  -8   13.80    4.10
   4 -10   8   13.50    4.20
   5   9  -8    0.00    3.00
  -5  -9   8    0.70    3.10
   4   9  -8    1.10    2.70
  -4  -9   8   -0.90    2.80
   3   9  -8   -2.90    2.20
  -3  -9   8   -1.90    2.70
   2   9  -8    0.50    2.50
  -2  -9   8    2.30    2.40
   1   9  -8    5.40    3.00
  -1  -9   8   15.10    3.40
   0   9  -8    1.30    2.20
   0   9  -8   -0.70    2.40
   0  -9   8    3.40    2.70
  -1   9  -8   15.80    3.30
  -1   9  -8   24.50    3.30
   1  -9   8   16.50    3.40
   1  -9   8   16.30    3.10
  -2   9  -8   -1.80    2.50
  -2   9  -8   -1.40    2.20
   2  -9   8    0.60    2.40
   2  -9   8   -1.10    2.50
  -3   9  -8    1.60    2.20
  -3   9  -8    3.50    2.90
   3  -9   8    8.40    3.00
   3  -9   8   -0.30    2.40
  -4   9  -8    3.20    3.20
   4  -9   8    2.40    2.80
  -5   9  -8    1.10    3.40
   5  -9   8    1.40    3.30
   6   8  -8   -0.40    3.00
  -6  -8   8    0.80    3.00
   5   8  -8    0.10    2.90
  -5  -8   8    3.70    2.80
   4   8  -8   13.50    3.50
  -4  -8   8    9.70    3.10
   3   8  -8    0.70    2.20
  -3  -8   8   -1.50    2.10
   2   8  -8   65.59    4.50
   2   8  -8   49.20    5.00
  -2  -8   8   47.30    4.80
   1   8  -8    5.10    2.20
   1   8  -8    1.90    2.30
  -1  -8   8    1.60    2.30
   0   8  -8   63.09    4.40
   0   8  -8   69.59    5.20
   0  -8   8   63.19    5.10
  -1   8  -8    3.70    2.20
  -1   8  -8    4.50    2.30
   1  -8   8    6.10    2.60
   1  -8   8   10.00    2.40
  -2   8  -8   26.30    3.50
  -2   8  -8   29.70    3.60
   2  -8   8   24.00    3.60
   2  -8   8   30.00    3.30
  -3   8  -8    0.20    2.50
  -3   8  -8    1.30    1.80
   3  -8   8    0.10    2.30
   3  -8   8    4.40    2.50
  -4   8  -8    4.40    3.00
   4  -8   8    7.30    3.00
   4  -8   8   -1.00    2.20
  -5   8  -8    4.60    3.40
   5  -8   8    1.10    2.90
  -6   8  -8    2.40    3.40
   6  -8   8    3.50    3.60
   6   7  -8    3.10    3.00
  -6  -7   8    5.10    2.90
   5   7  -8    3.60    2.80
  -5  -7   8    1.00    2.40
   4   7  -8    4.40    2.60
  -4  -7   8    4.00    2.40
  -4  -7   8    1.50    1.50
   3   7  -8    1.00    2.10
  -3  -7   8    3.00    2.40
   2   7  -8   -1.20    1.70
   2   7  -8    1.20    1.80
  -2  -7   8    1.10    2.20
   1   7  -8    0.80    1.90
   1   7  -8    2.40    1.90
  -1  -7   8    2.30    2.20
   0   7  -8    1.10    1.80
   0   7  -8    3.10    2.10
   0  -7   8   -0.40    2.10
  -1   7  -8    5.80    2.10
  -1   7  -8    7.00    2.10
   1  -7   8    6.50    2.00
   1  -7   8    5.40    2.40
  -2   7  -8   13.90    2.90
  -2   7  -8   15.80    2.50
   2  -7   8   18.10    2.70
   2  -7   8   15.70    3.00
  -3   7  -8   13.50    3.10
   3  -7   8   14.70    3.00
   3  -7   8   19.30    3.10
  -4   7  -8   21.20    3.70
   4  -7   8   22.10    3.50
   4  -7   8   28.50    3.70
  -5   7  -8    7.80    3.40
   5  -7   8   -0.10    2.50
   5  -7   8    9.20    3.50
  -6   7  -8   11.30    3.70
   6  -7   8   14.20    4.00
   7   6  -8    2.20    4.20
  -7  -6   8    2.90    3.10
   6   6  -8    0.70    2.80
  -6  -6   8   -0.60    2.40
  -6  -6   8    1.90    2.10
   5   6  -8   -2.00    2.20
  -5  -6   8    0.10    2.00
  -5  -6   8    1.30    1.80
   4   6  -8    0.50    2.10
  -4  -6   8    1.40    1.50
  -4  -6   8   -0.40    2.00
   3   6  -8   -1.30    1.70
   3   6  -8    4.70    2.00
  -3  -6   8    3.20    2.20
   2   6  -8    5.40    2.10
   2   6  -8   -0.50    1.70
  -2  -6   8    2.60    2.20
   1   6  -8    2.80    1.80
   1   6  -8    1.40    1.70
  -1  -6   8    2.00    2.00
   0   6  -8   -1.60    1.50
   0   6  -8   -1.10    1.50
   0  -6   8    1.30    1.80
  -1   6  -8    0.80    1.80
  -1   6  -8    2.20    1.80
   1  -6   8    1.30    2.00
   1  -6   8    3.40    1.60
  -2   6  -8   -1.40    1.80
  -2   6  -8    1.10    1.70
   2  -6   8    1.00    1.70
   2  -6   8   -0.60    2.00
  -3   6  -8    6.20    2.50
   3  -6   8    8.20    2.40
   3  -6   8    8.40    2.70
  -4   6  -8    3.30    2.60
   4  -6   8    1.70    2.30
   4  -6   8    1.20    2.30
  -5   6  -8   -3.60    2.50
   5  -6   8    0.70    2.20
   5  -6   8   -1.40    2.50
  -6   6  -8    0.20    3.00
   6  -6   8   -2.90    2.90
   7   5  -8   -0.20    3.00
  -7  -5   8    0.20    3.60
  -7  -5   8    1.50    2.50
   6   5  -8    5.90    3.10
  -6  -5   8    0.80    2.20
  -6  -5   8    2.70    2.40
   5   5  -8    0.50    2.40
  -5  -5   8    3.10    1.90
  -5  -5   8    1.80    2.00
   4   5  -8   13.10    2.90
  -4  -5   8   11.50    2.30
  -4  -5   8   12.60    2.50
   3   5  -8   26.50    3.50
   3   5  -8   24.50    2.80
  -3  -5   8   33.10    3.60
   2   5  -8    1.30    1.70
   2   5  -8    2.50    1.70
  -2  -5   8   -2.10    1.60
   1   5  -8   16.60    2.40
   1   5  -8   14.90    2.40
  -1  -5   8   16.80    2.70
   0   5  -8   18.30    2.40
   0   5  -8   19.30    2.50
   0  -5   8   19.00    2.80
  -1   5  -8   -1.60    1.60
  -1   5  -8    1.10    1.40
   1  -5   8    0.60    1.40
   1  -5   8   -0.70    1.70
  -2   5  -8   13.60    1.90
  -2   5  -8   13.50    2.50
   2  -5   8   12.40    2.20
   2  -5   8   10.60    2.40
  -3   5  -8   -1.30    1.90
   3  -5   8    3.70    2.10
   3  -5   8    1.30    1.90
  -4   5  -8    0.10    2.20
   4  -5   8   -0.40    2.20
   4  -5   8    0.30    2.20
  -5   5  -8    1.20    2.40
   5  -5   8    1.40    2.40
   5  -5   8   -1.00    2.50
  -6   5  -8    3.30    2.80
   6  -5   8    0.90    2.60
   6  -5   8    0.80    3.00
  -7   5  -8    0.50    3.20
   7  -5   8    1.60    3.30
   7   4  -8    4.40    3.40
  -7  -4   8    2.30    2.50
   6   4  -8    7.10    3.20
  -6  -4   8   12.90    2.90
  -6  -4   8    6.20    2.50
   5   4  -8   18.40    3.50
  -5  -4   8   18.10    2.80
  -5  -4   8   14.50    2.70
   4   4  -8    4.20    2.30
  -4  -4   8    1.00    1.70
  -4  -4   8    2.00    1.70
   3   4  -8   41.00    3.50
   3   4  -8   50.29    4.40
  -3  -4   8   36.00    3.60
   2   4  -8   34.70    3.30
   2   4  -8   38.10    3.60
  -2  -4   8   42.70    3.70
   1   4  -8   29.20    3.00
   1   4  -8   25.80    2.90
  -1  -4   8   32.30    3.30
   0   4  -8  105.29    5.20
   0   4  -8  108.49    5.10
   0  -4   8  105.79    5.50
  -1   4  -8    1.60    1.30
  -1   4  -8    1.60    1.60
   1  -4   8    5.10    1.50
   1  -4   8    5.80    1.90
  -2   4  -8    9.80    1.60
  -2   4  -8    8.10    2.20
   2  -4   8    7.60    2.30
   2  -4   8   11.40    2.10
  -3   4  -8    2.00    2.00
   3  -4   8    1.40    2.10
   3  -4   8   -0.20    1.80
  -4   4  -8    9.20    2.60
   4  -4   8    7.80    2.60
   4  -4   8    4.00    2.30
  -5   4  -8    2.90    2.40
   5  -4   8    0.60    2.30
   5  -4   8    5.00    2.90
  -6   4  -8    9.70    3.10
   6  -4   8    2.70    2.60
   6  -4   8   14.10    3.80
  -7   4  -8    1.00    3.00
   7  -4   8   -2.80    3.10
   7   3  -8    3.10    3.50
  -7  -3   8    3.10    2.60
   6   3  -8   27.30    4.40
  -6  -3   8   20.90    3.30
  -6  -3   8   17.30    4.00
   5   3  -8   11.10    3.10
  -5  -3   8   10.90    2.30
  -5  -3   8    9.70    2.40
   4   3  -8   10.40    2.70
  -4  -3   8   13.60    2.50
  -4  -3   8   11.30    2.20
   3   3  -8   37.70    3.30
   3   3  -8   37.30    4.00
  -3  -3   8   36.90    3.40
   2   3  -8    1.00    1.50
   2   3  -8    0.90    1.80
  -2  -3   8    0.00    1.40
   1   3  -8   69.49    4.30
   1   3  -8   74.89    4.30
  -1  -3   8   79.99    4.50
   0   3  -8   -1.00    1.30
   0   3  -8    0.80    1.40
   0  -3   8    0.10    1.40
  -1   3  -8  117.19    5.10
  -1   3  -8  125.49    5.70
   1  -3   8  121.49    5.10
   1  -3   8  117.99    5.80
  -2   3  -8    3.80    1.10
  -2   3  -8   10.00    2.10
   2  -3   8    6.50    1.80
   2  -3   8   10.00    2.40
  -3   3  -8   69.49    4.70
  -3   3  -8   77.59    5.00
   3  -3   8   73.89    4.80
  -4   3  -8    7.50    2.70
  -4   3  -8    3.90    2.20
   4  -3   8    6.10    2.60
  -5   3  -8    5.30    2.50
  -5   3  -8   10.60    3.10
   5  -3   8   12.20    3.20
  -6   3  -8   -2.00    2.90
  -6   3  -8    1.90    2.60
   6  -3   8   -2.00    2.40
  -7   3  -8    2.10    3.20
   7  -3   8    0.70    3.10
   7   2  -8    6.00    3.60
  -7  -2   8    4.30    2.50
   6   2  -8    2.60    2.80
  -6  -2   8    0.20    2.20
   5   2  -8   29.70    4.40
  -5  -2   8   28.10    2.80
  -5  -2   8   29.50    3.40
   4   2  -8   23.80    3.70
  -4  -2   8   25.60    2.70
  -4  -2   8   26.30    3.10
   3   2  -8  140.99    7.10
  -3  -2   8  123.49    5.80
  -3  -2   8  122.49    5.90
   2   2  -8   71.99    4.30
   2   2  -8   81.69    5.10
  -2  -2   8   75.99    4.20
   1   2  -8  146.59    6.90
   1   2  -8  162.58    6.80
  -1  -2   8  164.48    6.70
   0   2  -8   39.10    3.00
   0   2  -8   28.50    2.90
   0  -2   8   34.30    3.20
  -1   2  -8    4.90    1.50
   1  -2   8    9.40    2.10
   1  -2   8   10.30    1.70
  -2   2  -8    0.00    1.60
  -2   2  -8    0.90    1.90
   2  -2   8    1.30    1.60
  -3   2  -8   20.30    2.70
  -3   2  -8   16.20    2.80
   3  -2   8   17.70    2.80
  -4   2  -8    1.30    2.10
  -4   2  -8    2.50    2.40
   4  -2   8    5.30    2.30
  -5   2  -8    6.30    2.60
  -5   2  -8    2.00    2.70
   5  -2   8    5.10    2.70
  -6   2  -8    2.40    3.30
  -6   2  -8   -1.00    2.40
   6  -2   8    1.50    2.70
  -7   2  -8    1.20    3.60
  -7   2  -8    0.60    3.10
   7  -2   8    1.40    3.20
   7   1  -8   32.00    5.10
  -7  -1   8   29.50    3.90
   6   1  -8    0.30    2.60
  -6  -1   8    0.80    2.30
   5   1  -8    7.30    2.90
  -5  -1   8    7.10    2.20
   4   1  -8    0.80    2.20
  -4  -1   8    2.20    1.70
  -4  -1   8    0.70    1.40
   3   1  -8   -3.30    1.90
  -3  -1   8    0.90    1.30
  -3  -1   8   -1.60    1.40
   2   1  -8    2.10    2.00
   2   1  -8    2.80    1.60
  -2  -1   8    3.10    1.50
   1   1  -8   21.90    2.50
   1   1  -8   16.20    2.60
  -1  -1   8   22.30    2.40
   0   1  -8    4.80    1.50
   0   1  -8    7.20    1.80
   0  -1   8    6.00    1.30
   0  -1   8    4.90    1.90
  -1   1  -8   83.69    4.40
  -1   1  -8   88.19    4.80
  -1   1  -8   75.29    3.80
   1  -1   8   86.69    4.20
  -2   1  -8    2.30    1.90
  -2   1  -8    1.60    1.70
   2  -1   8   -0.20    1.50
  -3   1  -8   59.09    4.60
  -3   1  -8   60.69    4.10
   3  -1   8   55.89    4.30
  -4   1  -8    3.70    2.40
  -4   1  -8    5.50    2.20
   4  -1   8    2.50    2.20
  -5   1  -8    9.10    3.10
  -5   1  -8    9.80    2.90
   5  -1   8    5.70    2.80
  -6   1  -8    0.00    2.60
  -6   1  -8   -3.00    2.90
   6  -1   8    2.30    2.90
  -7   1  -8   -1.80    3.20
  -7   1  -8    4.10    3.70
   7  -1   8    1.50    3.10
   7   0  -8   46.30    5.90
  -7   0   8   41.10    4.70
   6   0  -8    1.80    2.80
  -6   0   8    1.80    2.40
   5   0  -8   96.89    6.60
  -5   0   8   94.99    5.70
   4   0  -8    2.20    2.20
   4   0  -8   -0.20    1.10
  -4   0   8    1.50    1.80
  -4   0   8    3.10    1.40
   3   0  -8   64.99    3.40
   3   0  -8   74.89    4.90
  -3   0   8   64.89    4.20
  -3   0   8   66.19    3.60
   2   0  -8   14.60    2.30
   2   0  -8   15.90    2.70
   2   0  -8   19.60    1.90
  -2   0   8   19.70    2.30
   1   0  -8    0.70    1.60
   1   0  -8    1.00    1.00
   1   0  -8    1.40    1.40
  -1   0   8    0.60    1.30
   0   0  -8   67.19    3.90
   0   0  -8   61.89    3.80
   0   0  -8   61.19    3.60
   0   0   8   56.19    3.40
  -1   0  -8    1.40    1.80
  -1   0  -8    6.10    1.80
  -1   0  -8    3.70    1.30
   1   0   8    5.40    1.50
  -2   0  -8   34.80    3.20
  -2   0  -8   30.40    3.30
   2   0   8   29.20    3.00
  -3   0  -8    1.50    2.10
  -3   0  -8    0.50    1.80
   3   0   8   -2.30    1.60
  -4   0  -8    1.70    2.10
  -4   0  -8    1.10    2.30
   4   0   8   -0.10    2.10
  -5   0  -8    5.10    2.90
  -5   0  -8    2.40    2.30
   5   0   8    3.30    2.60
  -6   0  -8    0.80    2.60
  -6   0  -8   -0.10    3.00
   6   0   8    0.80    2.70
   7  -1  -8   -0.60    3.20
  -7   1   8    4.70    3.00
   6  -1  -8   20.90    4.10
  -6   1   8   26.00    3.80
   5  -1  -8   -0.70    1.40
   5  -1  -8    5.10    2.90
  -5   1   8    6.20    2.30
   4  -1  -8   22.40    3.50
   4  -1  -8   22.10    2.50
  -4   1   8   16.60    2.80
   3  -1  -8   42.50    4.10
   3  -1  -8   36.70    3.00
  -3   1   8   38.80    3.00
  -3   1   8   37.10    3.50
   2  -1  -8    3.20    1.70
   2  -1  -8    0.90    1.20
   2  -1  -8    0.40    1.80
  -2   1   8    0.30    1.20
   1  -1  -8   29.70    3.00
   1  -1  -8   30.70    3.10
   1  -1  -8   26.40    2.50
   1  -1  -8   31.10    2.90
   0  -1  -8   -0.40    1.40
   0  -1  -8   -0.70    1.20
   0  -1  -8    1.50    1.40
   0  -1  -8    2.00    1.70
  -1  -1  -8    0.70    1.50
  -1  -1  -8    0.00    1.70
  -1  -1  -8    0.50    1.20
   1   1   8    2.60    1.50
  -2  -1  -8    0.70    2.00
  -2  -1  -8    0.70    1.50
   2   1   8   -1.40    1.40
  -3  -1  -8    5.80    2.00
  -3  -1  -8    5.50    2.40
   3   1   8    5.10    2.00
  -4  -1  -8    7.20    2.90
  -4  -1  -8    8.40    2.30
   4   1   8    1.30    2.30
  -5  -1  -8    9.30    2.80
  -5  -1  -8    2.20    2.70
   5   1   8    3.10    2.70
  -6  -1  -8   -0.50    2.50
  -6  -1  -8    8.00    3.70
   6   1   8    4.10    3.00
   7  -2  -8   19.00    4.40
  -7   2   8   16.40    4.10
   6  -2  -8    9.40    3.50
   6  -2  -8    0.60    2.10
  -6   2   8    5.50    2.90
   5  -2  -8   40.20    4.80
  -5   2   8   43.10    4.40
   4  -2  -8   16.20    3.40
   4  -2  -8   10.50    2.30
  -4   2   8   12.00    2.40
   3  -2  -8   11.20    2.10
   3  -2  -8   18.80    3.20
  -3   2   8   18.00    2.70
   2  -2  -8   14.90    2.20
   2  -2  -8   14.40    2.80
  -2   2   8   16.80    2.50
  -2   2   8   21.60    2.20
   1  -2  -8   -0.30    1.40
   1  -2  -8   -1.40    1.60
   1  -2  -8    1.00    1.50
   1  -2  -8   -1.10    1.30
   0  -2  -8    6.00    1.90
   0  -2  -8    4.60    1.90
   0  -2  -8    6.60    2.10
   0  -2  -8    5.10    1.70
  -1  -2  -8    0.70    1.60
  -1  -2  -8   -2.60    1.80
   1   2   8    2.20    1.70
   1   2   8    0.60    1.30
  -2  -2  -8    4.40    1.60
  -2  -2  -8    4.10    2.20
   2   2   8    3.30    2.00
  -3  -2  -8    5.50    1.90
  -3  -2  -8    4.90    2.50
   3   2   8   11.40    2.70
  -4  -2  -8    1.40    1.90
  -4  -2  -8    1.20    2.60
   4   2   8    4.30    2.40
  -5  -2  -8   13.50    3.60
   5   2   8   11.80    3.20
  -6  -2  -8    3.90    3.40
   6   2   8    4.20    3.20
   7  -3  -8   17.50    4.50
  -7   3   8   23.60    4.60
   6  -3  -8    0.20    2.90
   6  -3  -8   -0.70    2.20
  -6   3   8    5.00    3.20
   5  -3  -8   94.19    6.80
   5  -3  -8   81.89    5.60
  -5   3   8   83.99    5.90
   4  -3  -8   18.90    3.50
   4  -3  -8   24.00    3.20
  -4   3   8   30.10    3.50
   3  -3  -8  283.07   11.40
   3  -3  -8  250.37   10.40
  -3   3   8  266.77   10.50
   2  -3  -8   74.39    4.70
   2  -3  -8   82.79    5.30
  -2   3   8   76.39    4.60
   1  -3  -8  354.76   12.90
   1  -3  -8  356.46   13.20
   0  -3  -8   69.09    4.70
   0  -3  -8   69.99    4.60
   0  -3  -8   67.29    4.20
   0   3   8   75.09    4.50
  -1  -3  -8  133.29    6.60
  -1  -3  -8  119.59    5.70
   1   3   8  125.09    5.90
  -2  -3  -8   24.00    3.50
   2   3   8   28.80    3.50
  -3  -3  -8    7.10    2.80
   3   3   8   11.80    2.80
  -4  -3  -8   12.40    3.40
   4   3   8    9.50    3.00
  -5  -3  -8    2.70    3.30
   5   3   8    0.80    2.70
   6  -4  -8   -2.70    2.70
   6  -4  -8   -0.40    3.10
  -6   4   8    3.20    3.20
   5  -4  -8  109.09    7.20
   5  -4  -8   92.79    6.30
  -5   4   8   94.99    6.30
   4  -4  -8   -1.90    2.10
   4  -4  -8    0.30    2.60
  -4   4   8   -1.00    2.10
   3  -4  -8  128.79    7.50
   3  -4  -8  130.69    6.80
  -3   4   8  128.59    6.50
   2  -4  -8   14.60    3.30
   2  -4  -8    0.90    1.60
   2  -4  -8    9.80    2.60
  -2   4   8   11.10    2.30
   1  -4  -8  199.08    9.00
   1  -4  -8  209.98    8.50
  -1   4   8  210.08    8.30
  -1   4   8  208.78    9.10
   0  -4  -8   80.09    5.40
   0  -4  -8   87.09    5.20
   0   4   8   86.59    5.20
  -1  -4  -8  252.57   10.70
  -1  -4  -8  253.47   10.70
   1   4   8  266.07   10.30
  -2  -4  -8  101.39    6.30
   2   4   8   97.59    6.10
  -3  -4  -8  153.48    8.20
   3   4   8  158.58    8.20
  -4  -4  -8   16.60    3.60
   4   4   8   21.60    3.80
  -5  -4  -8   53.09    6.00
   5   4   8   43.30    5.30
   6  -5  -8    8.80    3.70
   6  -5  -8   15.70    4.50
  -6   5   8   15.20    4.80
   5  -5  -8   27.20    4.40
   5  -5  -8   23.80    4.60
  -5   5   8   32.90    4.40
   4  -5  -8   12.60    3.20
   4  -5  -8    9.80    3.20
  -4   5   8   14.00    3.10
   3  -5  -8   46.80    5.20
   3  -5  -8   49.99    4.70
  -3   5   8   32.10    3.70
   2  -5  -8   -0.50    2.10
  -2   5   8    2.30    1.90
  -2   5   8   -0.70    2.20
  -1   5   8   38.40    4.20
   0  -5  -8   11.20    2.70
   0  -5  -8    5.40    2.60
   0   5   8    7.70    2.50
  -1  -5  -8   27.10    3.80
  -1  -5  -8   27.50    3.80
   1   5   8   28.40    3.70
  -2  -5  -8    2.10    2.80
   2   5   8    1.50    2.60
  -3  -5  -8   20.10    3.80
   3   5   8   19.50    3.70
  -4  -5  -8   -0.40    3.20
   4   5   8    1.00    2.90
   5  -6  -8   12.60    4.40
   5  -6  -8    4.10    3.30
  -5   6   8   12.50    3.60
   4  -6  -8    4.40    3.20
   4  -6  -8   -0.80    3.00
  -4   6   8    0.90    2.70
   3  -6  -8   11.60    3.30
  -3   6   8    7.30    3.00
   2  -6  -8   -1.10    2.40
  -2   6   8    1.00    2.40
   1  -6  -8    0.90    2.10
   1  -6  -8    2.50    2.50
  -1   6   8    2.80    2.50
   0  -6  -8   -0.10    2.40
   0  -6  -8    1.90    2.50
   0   6   8    0.90    2.30
  -1  -6  -8    1.30    2.60
  -1  -6  -8   -1.40    2.60
   1   6   8    1.20    2.30
  -2  -6  -8    1.00    2.90
   2   6   8    2.80    2.80
  -3  -6  -8    0.20    3.20
   3   6   8   -0.50    3.00
   4  -7  -8   21.60    4.60
  -4   7   8    6.20    3.20
   3  -7  -8    6.80    3.30
  -3   7   8    6.00    3.10
   2  -7  -8   15.90    3.70
  -2   7   8   12.40    3.40
   1  -7  -8   -0.50    2.60
  -1   7   8    3.90    2.80
   0  -7  -8   -2.70    2.40
   0  -7  -8    2.50    3.00
   0   7   8    5.50    2.90
  -1  -7  -8    3.70    3.00
  -1  -7  -8    3.30    3.10
   1   7   8    9.10    3.20
  -2  -7  -8    3.20    3.70
   2   7   8    1.50    3.10
   2  -8  -8    3.00    3.50
  -2   8   8   -2.10    2.80
   1  -8  -8   11.00    3.70
  -1   8   8   10.10    3.60
   0  -8  -8    6.10    3.40
   0   8   8    5.80    3.30
   1  12  -9   -0.40    4.00
  -1 -12   9    1.70    3.80
   0  12  -9    3.20    3.90
   0 -12   9   -1.20    3.90
  -1  12  -9   -0.80    3.70
   1 -12   9    1.50    3.80
   3  11  -9    1.20    3.40
  -3 -11   9   -1.00    3.40
   2  11  -9   -1.20    3.30
  -2 -11   9    0.90    3.40
   1  11  -9    0.20    3.30
  -1 -11   9    1.90    3.30
   0  11  -9    1.70    3.40
   0 -11   9    3.40    3.40
  -1  11  -9    0.80    3.30
   1 -11   9   -0.50    3.20
  -2  11  -9    3.30    3.30
   2 -11   9    0.00    3.10
   4  10  -9    0.40    3.20
  -4 -10   9   -1.30    3.20
   3  10  -9   14.40    3.90
  -3 -10   9    8.20    3.50
   2  10  -9    1.20    2.90
  -2 -10   9    4.50    3.10
   1  10  -9    9.90    3.40
  -1 -10   9   14.60    3.90
   0  10  -9    8.40    3.20
   0 -10   9    4.20    3.10
  -1  10  -9    4.10    2.60
  -1  10  -9    1.30    2.70
   1 -10   9    3.70    3.10
  -2  10  -9    0.90    2.80
  -2  10  -9    5.70    2.90
   2 -10   9    5.10    3.10
  -3  10  -9    0.50    4.30
   3 -10   9    2.60    2.80
   3 -10   9    3.80    3.30
  -4  10  -9   -0.30    3.40
   4 -10   9   -2.10    3.40
   5   9  -9   -0.30    3.00
  -5  -9   9    6.50    3.50
   4   9  -9    0.50    2.80
  -4  -9   9   -2.30    2.70
   3   9  -9    0.30    2.40
  -3  -9   9   -1.80    2.50
   2   9  -9    1.70    2.40
  -2  -9   9    0.60    2.70
   1   9  -9    2.40    2.50
   1   9  -9    2.40    2.60
  -1  -9   9    0.10    2.50
   0   9  -9   22.90    3.50
   0   9  -9   19.00    3.70
   0  -9   9   20.20    3.70
  -1   9  -9    3.20    2.40
  -1   9  -9    3.10    2.60
   1  -9   9    0.40    2.70
  -2   9  -9   26.40    3.80
  -2   9  -9   38.00    4.20
   2  -9   9   25.80    4.10
   2  -9   9   28.10    3.80
  -3   9  -9   -2.80    2.60
   3  -9   9    4.50    2.90
   3  -9   9    3.80    3.00
  -4   9  -9    5.50    3.50
   4  -9   9    1.10    2.80
   4  -9   9   10.00    4.00
  -5   9  -9    2.40    3.60
   5  -9   9    2.60    3.20
   5   8  -9    5.90    3.20
  -5  -8   9    8.40    3.10
   4   8  -9   53.59    5.80
  -4  -8   9   50.19    5.40
   3   8  -9    4.90    2.40
  -3  -8   9    3.40    2.60
   2   8  -9   31.70    4.10
   2   8  -9   39.60    3.90
  -2  -8   9   36.80    4.30
   1   8  -9    5.00    2.60
   1   8  -9    3.50    2.30
  -1  -8   9    4.30    2.70
   0   8  -9    8.90    2.80
   0   8  -9   11.40    2.70
   0  -8   9    9.80    3.00
  -1   8  -9    3.40    2.40
  -1   8  -9    4.70    2.50
  -2   8  -9    1.50    2.10
  -2   8  -9    1.70    2.50
   2  -8   9    8.30    3.00
   2  -8   9    3.60    2.20
  -3   8  -9    2.20    2.70
   3  -8   9    0.70    2.60
   3  -8   9    3.60    2.50
  -4   8  -9    8.00    3.50
   4  -8   9    9.70    3.20
   4  -8   9    0.10    2.50
  -5   8  -9    1.80    3.30
   5  -8   9   -0.40    3.10
   6   7  -9    0.80    3.10
  -6  -7   9    2.60    2.80
   5   7  -9    4.90    3.00
  -5  -7   9    2.90    2.50
  -5  -7   9   -1.10    1.70
   4   7  -9    1.40    2.40
  -4  -7   9   -0.10    1.80
  -4  -7   9    1.80    2.40
   3   7  -9    1.40    2.30
   3   7  -9    1.70    2.00
  -3  -7   9   -1.70    2.10
   2   7  -9   22.00    3.10
   2   7  -9   16.40    3.10
  -2  -7   9   18.30    3.40
   1   7  -9   10.20    2.50
   1   7  -9   11.00    2.70
  -1  -7   9    5.60    2.40
   0   7  -9   45.40    4.30
   0   7  -9   39.60    3.80
   0  -7   9   43.00    4.40
  -1   7  -9   13.70    2.60
  -1   7  -9   11.90    2.80
   1  -7   9   12.80    2.30
   1  -7   9   10.20    2.80
  -2   7  -9   40.90    4.30
   2  -7   9   33.80    4.00
   2  -7   9   35.70    3.60
  -3   7  -9   -1.90    2.40
   3  -7   9   -2.10    2.40
   3  -7   9   -1.30    2.10
  -4   7  -9   17.90    3.80
   4  -7   9   15.20    3.40
   4  -7   9    9.30    3.10
  -5   7  -9    6.40    3.30
   5  -7   9    2.30    3.10
   5  -7   9   -0.50    2.60
  -6   7  -9    3.10    3.50
   6  -7   9    3.60    3.60
   6   6  -9    5.40    3.50
  -6  -6   9    8.60    3.10
  -6  -6   9   -0.60    2.00
   5   6  -9   -0.80    2.40
  -5  -6   9    2.60    2.00
  -5  -6   9   -0.70    2.30
   4   6  -9    2.60    2.40
  -4  -6   9    1.10    2.20
  -4  -6   9    3.20    1.90
   3   6  -9   31.10    4.00
   3   6  -9   33.80    3.50
  -3  -6   9   27.80    3.70
   2   6  -9   -1.10    1.80
   2   6  -9   -1.10    1.90
  -2  -6   9   -0.20    1.90
   1   6  -9   81.09    4.90
   1   6  -9   80.79    5.00
  -1  -6   9   79.49    5.40
   0   6  -9    1.60    1.70
   0   6  -9    0.80    1.80
   0  -6   9   -0.60    2.00
  -1   6  -9   18.30    2.60
  -1   6  -9   16.50    2.80
   1  -6   9   19.10    3.00
   1  -6   9   15.60    2.30
  -2   6  -9   -0.40    2.10
  -2   6  -9    0.00    1.50
   2  -6   9   -2.30    2.00
   2  -6   9   -1.30    1.70
  -3   6  -9    6.30    2.70
   3  -6   9   12.90    3.10
   3  -6   9    7.00    2.40
  -4   6  -9   -1.30    2.50
   4  -6   9    0.40    2.40
   4  -6   9   -2.40    2.30
  -5   6  -9   19.20    3.80
   5  -6   9   17.90    3.60
   5  -6   9   17.60    3.80
  -6   6  -9    1.70    3.40
   6  -6   9   -0.50    3.20
   7   5  -9    7.50    3.70
  -7  -5   9    6.00    2.80
   6   5  -9    2.00    2.90
  -6  -5   9   -2.00    2.00
  -6  -5   9   -0.20    2.40
   5   5  -9    6.40    3.00
  -5  -5   9    6.00    2.20
  -5  -5   9    6.80    2.50
   4   5  -9   33.90    4.10
  -4  -5   9   34.00    3.60
  -4  -5   9   28.80    3.60
   3   5  -9    0.80    2.10
   3   5  -9    1.50    1.80
  -3  -5   9    2.80    2.00
   2   5  -9   83.59    5.20
   2   5  -9   78.79    4.80
  -2  -5   9   77.49    5.10
   1   5  -9    6.50    2.10
   1   5  -9   11.70    2.40
  -1  -5   9    7.00    2.30
   0   5  -9   23.00    2.90
   0   5  -9   29.30    3.10
   0  -5   9   28.70    3.40
  -1   5  -9   46.90    3.40
  -1   5  -9   49.30    4.20
   1  -5   9   41.80    3.20
   1  -5   9   48.50    4.30
  -2   5  -9    2.60    2.10
  -2   5  -9    0.60    1.30
   2  -5   9    1.60    1.80
   2  -5   9    3.20    2.10
  -3   5  -9   64.59    5.10
   3  -5   9   59.39    4.80
   3  -5   9   65.29    5.10
  -4   5  -9    8.70    2.90
   4  -5   9   11.40    3.10
   4  -5   9   10.10    3.00
  -5   5  -9    8.40    3.10
   5  -5   9   16.90    3.70
   5  -5   9   17.30    3.40
  -6   5  -9   20.10    3.90
   6  -5   9   28.90    4.50
   7   4  -9   -4.00    3.10
  -7  -4   9   -1.20    2.50
   6   4  -9   -1.10    2.80
  -6  -4   9   -1.00    2.10
  -6  -4   9    3.80    2.30
   5   4  -9    1.20    2.50
  -5  -4   9   -0.40    1.80
  -5  -4   9    0.10    1.90
   4   4  -9    3.60    2.40
  -4  -4   9    0.60    1.80
  -4  -4   9    3.00    2.00
   3   4  -9   -1.90    1.60
   3   4  -9    0.10    2.00
  -3  -4   9    1.30    1.70
   2   4  -9   24.20    3.00
   2   4  -9   21.10    3.10
  -2  -4   9   16.60    2.70
   1   4  -9   -1.60    1.50
   1   4  -9   -2.70    1.50
  -1  -4   9    0.20    1.70
   0   4  -9  210.88    8.70
   0   4  -9  218.58    8.60
   0  -4   9  213.88    9.00
  -1   4  -9    1.00    1.70
  -1   4  -9    1.60    1.40
   1  -4   9    2.90    1.50
   1  -4   9   -0.40    1.60
  -2   4  -9  266.47   10.70
   2  -4   9  267.27   10.10
   2  -4   9  268.17   10.80
  -3   4  -9    0.90    2.10
   3  -4   9    2.40    2.10
   3  -4   9    0.60    2.20
  -4   4  -9  107.59    6.30
   4  -4   9  108.59    6.40
   4  -4   9   90.29    6.20
  -5   4  -9   11.00    3.10
   5  -4   9    4.60    3.00
   5  -4   9   14.40    3.40
  -6   4  -9   15.70    3.60
   6  -4   9   26.20    4.50
   6  -4   9   24.20    4.20
   7   3  -9   -3.90    3.00
  -7  -3   9   -1.90    2.40
   6   3  -9    3.90    3.20
  -6  -3   9   -0.90    2.10
   5   3  -9   -1.20    2.50
  -5  -3   9   -0.10    1.70
  -5  -3   9    1.20    1.90
   4   3  -9    3.90    2.40
  -4  -3   9    3.70    1.90
  -4  -3   9    8.60    2.30
   3   3  -9   13.00    2.80
   3   3  -9    8.60    2.20
  -3  -3   9   10.20    2.30
   2   3  -9    0.90    1.90
   2   3  -9    2.20    1.70
  -2  -3   9    1.10    1.70
   1   3  -9   52.99    3.80
   1   3  -9   50.39    4.00
  -1  -3   9   51.19    4.00
   0   3  -9    0.50    1.50
   0   3  -9    0.80    1.60
   0  -3   9    5.50    1.80
  -1   3  -9   33.40    3.20
  -1   3  -9   33.40    2.70
   1  -3   9   37.10    2.80
   1  -3   9   34.70    3.50
  -2   3  -9   28.20    3.10
   2  -3   9   22.00    3.10
   2  -3   9   27.40    2.90
  -3   3  -9    1.70    2.00
   3  -3   9    3.00    2.10
  -4   3  -9   39.10    4.20
  -4   3  -9   36.60    4.40
   4  -3   9   48.40    4.70
  -5   3  -9    5.90    2.80
  -5   3  -9    5.70    3.10
   5  -3   9    2.00    2.90
  -6   3  -9    7.60    3.20
  -6   3  -9   15.70    4.00
   6  -3   9    9.40    3.20
   7   2  -9    1.00    3.20
  -7  -2   9   -0.70    2.60
   6   2  -9    7.20    3.30
  -6  -2   9    2.30    2.20
   5   2  -9    0.00    2.70
  -5  -2   9    1.80    2.00
  -5  -2   9   -0.70    1.60
   4   2  -9    2.20    2.40
  -4  -2   9    1.80    1.60
  -4  -2   9    1.80    1.80
   3   2  -9   33.20    4.10
   3   2  -9   23.30    2.90
  -3  -2   9   34.60    3.20
   2   2  -9    2.60    2.00
   2   2  -9   -1.00    1.40
  -2  -2   9    1.10    1.50
   1   2  -9  118.59    6.10
   1   2  -9  121.59    5.80
  -1  -2   9  132.49    5.90
   0   2  -9    7.30    1.80
   0   2  -9    6.50    2.00
   0  -2   9    5.30    1.90
   0  -2   9    7.80    1.50
  -1   2  -9   84.49    4.30
  -1   2  -9   95.49    4.90
   1  -2   9   93.89    4.60
   1  -2   9  100.29    5.30
  -2   2  -9   12.80    2.50
  -2   2  -9    8.10    2.10
   2  -2   9    9.60    2.10
  -3   2  -9    6.40    2.20
  -3   2  -9    7.10    2.50
   3  -2   9    7.50    2.50
  -4   2  -9   10.20    2.60
  -4   2  -9    4.60    2.70
   4  -2   9   10.60    2.70
  -5   2  -9    0.70    2.50
  -5   2  -9    3.10    3.00
   5  -2   9    1.90    2.70
  -6   2  -9    9.00    3.30
  -6   2  -9    8.70    3.70
   6  -2   9   12.90    3.60
   7   1  -9   23.00    4.60
  -7  -1   9   17.90    3.70
   6   1  -9    7.60    3.40
  -6  -1   9    1.40    2.40
   5   1  -9   20.80    3.90
  -5  -1   9   15.80    2.80
   4   1  -9   11.00    3.00
  -4  -1   9   11.50    2.10
  -4  -1   9   11.80    2.40
   3   1  -9   -0.90    2.00
  -3  -1   9    0.60    1.50
  -3  -1   9    0.10    1.70
   2   1  -9   21.50    3.10
   2   1  -9   23.50    2.90
  -2  -1   9   25.80    2.90
   1   1  -9    6.60    1.80
   1   1  -9    0.20    1.70
  -1  -1   9    2.80    1.60
   0   1  -9   -0.60    1.60
   0   1  -9   -0.40    1.40
   0  -1   9    0.10    1.40
   0  -1   9    0.00    1.20
  -1   1  -9    2.20    1.70
  -1   1  -9    1.70    1.30
  -1   1  -9    4.10    2.00
   1  -1   9    3.70    1.60
  -2   1  -9   12.60    2.70
  -2   1  -9   11.40    2.30
   2  -1   9   10.00    2.10
  -3   1  -9   22.40    3.50
  -3   1  -9   20.70    3.10
   3  -1   9   19.10    3.00
  -4   1  -9    9.50    2.70
  -4   1  -9   10.60    2.90
   4  -1   9   11.20    2.90
  -5   1  -9   12.50    3.10
  -5   1  -9   12.70    3.50
   5  -1   9   12.70    3.40
  -6   1  -9    0.40    3.40
   6  -1   9    1.60    3.00
   7   0  -9    8.70    3.80
  -7   0   9    7.10    3.00
   6   0  -9    9.20    3.40
  -6   0   9    2.70    2.50
   5   0  -9   40.90    4.90
  -5   0   9   37.70    4.20
   4   0  -9    2.90    2.30
   4   0  -9    0.10    1.20
  -4   0   9   -1.30    1.80
   3   0  -9   78.49    5.30
  -3   0   9   67.89    4.00
  -3   0   9   69.19    4.50
   2   0  -9    3.40    1.80
   2   0  -9    7.60    2.30
   2   0  -9    4.10    1.30
  -2   0   9    1.30    1.40
   1   0  -9   46.30    3.00
   1   0  -9   54.29    3.80
   1   0  -9   51.39    3.70
  -1   0   9   50.19    3.60
   0   0  -9   29.80    3.20
   0   0  -9   28.80    2.80
   0   0  -9   32.30    3.10
   0   0   9   32.40    2.80
  -1   0  -9    4.20    2.10
  -1   0  -9    4.20    1.90
  -1   0  -9    5.40    1.50
   1   0   9    3.20    1.70
  -2   0  -9   47.10    3.80
  -2   0  -9   49.90    4.30
   2   0   9   46.20    3.80
  -3   0  -9    1.30    1.90
  -3   0  -9   -1.30    2.20
   3   0   9    1.90    2.00
  -4   0  -9   10.10    3.10
  -4   0  -9   10.50    2.80
   4   0   9    9.40    2.90
  -5   0  -9   -2.30    2.60
  -5   0  -9    2.10    2.30
   5   0   9   -0.70    2.50
  -6   0  -9    2.50    3.50
  -6   0  -9   -1.90    2.70
   6   0   9   -0.10    2.90
   7  -1  -9    1.00    3.30
  -7   1   9    4.30    3.20
   6  -1  -9   41.60    5.20
  -6   1   9   30.90    4.20
   5  -1  -9    0.00    1.80
   5  -1  -9    3.30    2.90
  -5   1   9    3.10    2.20
   4  -1  -9   92.19    6.20
  -4   1   9   88.09    5.50
   3  -1  -9   61.69    4.90
   3  -1  -9   56.59    3.60
  -3   1   9   68.59    4.50
  -3   1   9   54.89    3.70
   2  -1  -9   81.99    4.70
   2  -1  -9   80.89    4.30
   2  -1  -9   88.59    5.40
  -2   1   9   87.39    4.50
   1  -1  -9   84.39    4.90
   1  -1  -9   81.19    4.60
   1  -1  -9   79.39    4.70
   1  -1  -9   84.59    4.40
   0  -1  -9   30.70    3.10
   0  -1  -9   34.50    3.60
   0  -1  -9   30.50    2.90
  -1  -1  -9   47.60    3.80
  -1  -1  -9   59.19    4.60
   1   1   9   49.90    3.90
  -2  -1  -9    2.30    1.70
  -2  -1  -9    3.70    2.30
   2   1   9    3.70    2.00
  -3  -1  -9   18.90    3.30
  -3  -1  -9   16.10    2.70
   3   1   9   18.70    3.00
  -4  -1  -9    1.60    2.10
  -4  -1  -9    5.70    2.90
   4   1   9   -2.50    2.20
  -5  -1  -9    7.00    3.30
  -5  -1  -9   -0.80    2.20
   5   1   9   10.30    3.30
  -6  -1  -9    4.10    3.60
   6   1   9    6.20    3.50
   7  -2  -9    1.10    3.60
  -7   2   9   -2.20    2.90
   6  -2  -9   23.20    4.40
  -6   2   9   26.10    4.00
   5  -2  -9   -0.60    1.90
   5  -2  -9    4.30    3.00
  -5   2   9   -1.00    2.30
   4  -2  -9   52.29    5.10
  -4   2   9   49.50    4.50
   3  -2  -9    2.40    2.30
   3  -2  -9    1.80    1.70
  -3   2   9    1.10    1.90
   2  -2  -9   76.19    5.30
   2  -2  -9   68.79    4.30
  -2   2   9   61.49    4.40
  -2   2   9   76.69    4.20
   1  -2  -9   33.70    3.30
   1  -2  -9   33.70    3.50
   1  -2  -9   33.80    3.30
   1  -2  -9   33.20    3.40
   0  -2  -9   48.90    3.90
   0  -2  -9   50.69    3.80
   0  -2  -9   54.39    4.50
   0  -2  -9   52.79    4.00
  -1  -2  -9   80.09    4.70
  -1  -2  -9   71.69    5.20
   1   2   9   78.99    4.90
   1   2   9   78.89    4.30
  -2  -2  -9   18.90    2.70
  -2  -2  -9   17.30    3.30
   2   2   9   26.00    3.20
  -3  -2  -9   27.50    3.90
   3   2   9   27.20    3.50
  -4  -2  -9    3.60    3.00
  -4  -2  -9    0.10    2.00
   4   2   9    7.30    2.80
  -5  -2  -9   -1.40    3.20
   5   2   9   -1.30    2.70
   6  -3  -9    0.50    3.30
   6  -3  -9    1.30    2.60
  -6   3   9   -1.40    2.90
   5  -3  -9   23.80    4.40
  -5   3   9   29.10    4.00
   4  -3  -9    1.80    2.50
   4  -3  -9    4.40    2.20
  -4   3   9    1.10    2.20
   3  -3  -9   -1.30    2.20
   3  -3  -9   -3.60    1.70
  -3   3   9   -2.20    1.90
   2  -3  -9   21.20    3.00
   2  -3  -9   24.60    3.60
  -2   3   9   22.10    3.00
   1  -3  -9   28.80    3.40
   1  -3  -9   31.20    3.90
   1  -3  -9   32.40    3.20
   1  -3  -9   31.50    3.40
   0  -3  -9   24.90    2.90
   0  -3  -9   22.50    3.30
   0  -3  -9   19.70    3.10
   0   3   9   21.10    3.00
  -1  -3  -9   28.60    3.90
   1   3   9   28.90    3.50
   1   3   9   38.40    3.50
  -2  -3  -9   -0.20    1.70
  -2  -3  -9    3.50    3.20
   2   3   9   -0.60    2.20
  -3  -3  -9   -0.60    2.60
   3   3   9    3.20    2.70
  -4  -3  -9   -3.40    2.50
   4   3   9    1.50    2.60
  -5  -3  -9    0.40    3.10
   5   3   9   -0.10    2.80
   6  -4  -9    1.00    3.60
   6  -4  -9    2.90    2.90
  -6   4   9   -0.50    3.10
   5  -4  -9    4.30    2.70
   5  -4  -9    9.00    3.80
  -5   4   9    9.30    3.10
   4  -4  -9   22.70    3.50
   4  -4  -9   13.30    3.70
  -4   4   9   16.60    3.20
   3  -4  -9   13.50    3.50
   3  -4  -9   16.50    3.20
  -3   4   9   20.30    3.10
   2  -4  -9   26.00    3.50
  -2   4   9   24.90    3.20
   1  -4  -9    8.60    2.60
   1  -4  -9    6.00    2.20
  -1   4   9    5.80    2.60
  -1   4   9    7.80    2.20
   0  -4  -9   -0.90    2.10
   0  -4  -9   -1.40    2.20
   0  -4  -9   -0.20    1.60
   0   4   9   -0.90    1.90
  -1  -4  -9   -0.30    2.50
  -2  -4  -9   30.90    4.20
   2   4   9   26.50    3.80
  -3  -4  -9   12.40    3.50
   3   4   9    9.60    3.10
  -4  -4  -9   28.50    4.60
   4   4   9   30.80    4.50
   5  -5  -9    0.90    2.80
   5  -5  -9   -0.10    3.40
  -5   5   9   -1.90    3.10
   4  -5  -9    8.10    3.10
   4  -5  -9    9.40    3.80
  -4   5   9    5.30    2.70
   3  -5  -9    1.80    2.60
   3  -5  -9    4.70    3.20
  -3   5   9    1.30    2.40
   2  -5  -9    2.30    2.50
  -2   5   9    0.90    2.40
   1  -5  -9    3.30    2.60
   1  -5  -9   -0.60    2.00
  -1   5   9    1.80    2.30
   0  -5  -9    2.10    2.50
   0  -5  -9    1.40    2.60
   0   5   9    1.30    2.30
  -1  -5  -9    1.60    2.80
  -1  -5  -9    0.50    2.40
   1   5   9    4.60    2.50
  -2  -5  -9    3.20    3.00
   2   5   9    0.30    2.60
  -3  -5  -9    4.00    3.60
   3   5   9    1.90    2.90
  -4  -5  -9   -2.30    3.50
   4   5   9   -0.60    2.90
   4  -6  -9    0.60    3.00
   4  -6  -9    0.60    3.50
   3  -6  -9   26.20    4.30
  -3   6   9   19.50    3.80
   2  -6  -9   -1.70    2.60
  -2   6   9   -1.00    2.40
   1  -6  -9   16.60    3.60
  -1   6   9   18.90    3.60
   0  -6  -9    1.40    2.60
   0  -6  -9   -0.50    2.60
   0   6   9    1.00    2.50
  -1  -6  -9    0.60    2.80
  -1  -6  -9    9.60    3.40
   1   6   9    5.70    2.80
  -2  -6  -9    2.30    3.50
   2   6   9   -1.40    2.80
  -3  -6  -9    4.10    3.80
   3   6   9    0.90    3.20
   3  -7  -9   16.70    4.40
  -3   7   9   12.90    3.70
   2  -7  -9   -4.40    2.80
  -2   7   9    0.30    2.70
   1  -7  -9   31.30    4.80
  -1   7   9   40.00    5.10
   0  -7  -9    2.30    3.20
   0  -7  -9   -0.40    3.10
   0   7   9    0.60    3.10
  -1  -7  -9   35.20    4.90
  -1  -7  -9   47.60    5.60
   2  11 -10    1.10    3.50
  -2 -11  10   -0.50    3.30
   1  11 -10    7.80    3.80
  -1 -11  10    7.50    3.80
   0  11 -10    1.50    3.60
   0 -11  10   -1.20    3.40
  -1  11 -10   17.10    4.40
   1 -11  10   14.40    4.30
  -2  11 -10   -0.40    3.00
   2 -11  10    5.60    3.60
  -3  11 -10    6.50    4.00
   3 -11  10    2.50    3.50
   4  10 -10    0.70    3.40
  -4 -10  10    5.30    3.30
   3  10 -10    1.70    3.20
  -3 -10  10    1.50    3.20
   2  10 -10    6.00    3.30
  -2 -10  10    5.50    3.40
   1  10 -10    5.80    3.30
  -1 -10  10    8.30    3.50
   0  10 -10    4.90    3.20
   0 -10  10    3.00    3.10
  -1  10 -10    4.70    2.90
  -1  10 -10    6.30    3.30
   1 -10  10    4.90    3.50
  -2  10 -10   -2.60    2.50
  -2  10 -10   -1.60    2.80
   2 -10  10    1.10    3.20
  -3  10 -10   -0.30    3.40
   3 -10  10   -1.70    3.00
  -4  10 -10    7.20    4.10
   4 -10  10    0.20    3.80
   5   9 -10    8.90    3.90
  -5  -9  10    5.00    3.40
   4   9 -10    6.40    3.40
  -4  -9  10    8.80    3.40
   3   9 -10    2.50    2.80
  -3  -9  10   -0.10    2.80
   2   9 -10   23.80    4.00
  -2  -9  10   26.10    4.30
   1   9 -10    8.30    3.00
   1   9 -10    6.20    3.10
  -1  -9  10   10.30    3.20
   0   9 -10   10.40    3.00
   0   9 -10   14.80    3.40
   0  -9  10   13.80    3.60
  -1   9 -10   13.30    3.30
  -1   9 -10   12.30    3.00
   1  -9  10   16.80    3.70
  -2   9 -10    1.30    2.80
  -2   9 -10   -0.70    2.40
   2  -9  10   -0.70    3.00
  -3   9 -10   10.50    3.70
   3  -9  10   19.00    3.60
   3  -9  10    9.50    3.40
  -4   9 -10    1.70    3.40
   4  -9  10    2.20    2.90
   4  -9  10   -2.20    2.90
  -5   9 -10   12.30    4.30
   5   8 -10   11.90    3.70
  -5  -8  10    7.30    3.20
   4   8 -10    8.30    3.20
  -4  -8  10    6.50    3.10
  -4  -8  10   -1.20    2.00
   3   8 -10    3.20    2.50
   3   8 -10    4.20    2.70
  -3  -8  10    0.60    2.60
   2   8 -10    3.30    2.50
   2   8 -10    5.40    2.60
  -2  -8  10    6.50    3.00
   1   8 -10    5.60    2.60
   1   8 -10    4.70    2.70
  -1  -8  10    6.70    3.00
   0   8 -10   12.60    3.00
   0   8 -10   19.60    3.40
   0  -8  10   19.10    3.70
  -1   8 -10   10.70    2.80
  -1   8 -10   14.10    3.00
   1  -8  10   15.70    3.50
  -2   8 -10   33.50    4.10
   2  -8  10   39.40    5.50
   2  -8  10   24.60    4.10
  -3   8 -10    9.60    3.30
   3  -8  10   14.70    3.60
   3  -8  10   10.40    3.00
  -4   8 -10   25.20    4.50
   4  -8  10   14.30    3.70
   4  -8  10   19.90    3.70
  -5   8 -10    3.50    3.80
   5  -8  10    2.40    5.70
   5  -8  10    1.60    3.30
   6   7 -10   30.10    5.20
  -6  -7  10   20.60    4.00
   5   7 -10   50.39    5.60
  -5  -7  10   40.50    4.60
   4   7 -10   41.60    4.80
  -4  -7  10   39.40    4.40
  -4  -7  10   38.10    3.80
   3   7 -10   91.19    6.10
   3   7 -10   73.09    5.30
  -3  -7  10   78.69    5.80
   2   7 -10   65.09    5.00
   2   7 -10   57.29    5.30
  -2  -7  10   58.69    5.50
   1   7 -10   17.70    3.20
   1   7 -10   25.70    3.50
  -1  -7  10   18.30    3.50
   0   7 -10   40.70    4.10
   0   7 -10   40.50    4.20
   0  -7  10   42.60    4.70
  -1   7 -10    1.90    2.40
  -1   7 -10    3.30    2.00
   1  -7  10    0.40    2.40
  -2   7 -10   16.60    3.30
   2  -7  10   16.80    2.90
  -3   7 -10    1.50    2.70
   3  -7  10    2.70    2.50
   3  -7  10    0.40    2.70
  -4   7 -10    2.90    3.20
   4  -7  10    7.10    3.30
   4  -7  10    5.70    3.00
  -5   7 -10    5.30    3.60
   5  -7  10    0.80    3.00
   5  -7  10    0.10    2.90
   6   6 -10    7.60    3.80
  -6  -6  10    5.50    2.60
  -6  -6  10    9.00    3.10
   5   6 -10    4.10    3.10
  -5  -6  10    5.00    2.60
  -5  -6  10    6.00    2.30
   4   6 -10   12.50    3.30
  -4  -6  10   11.30    2.90
  -4  -6  10    7.90    2.50
   3   6 -10   10.90    2.90
   3   6 -10    7.80    2.50
  -3  -6  10    5.30    2.60
   2   6 -10    6.30    2.40
   2   6 -10    5.80    2.60
  -2  -6  10    6.60    2.50
   1   6 -10  122.49    6.60
   1   6 -10  128.19    6.70
  -1  -6  10  119.99    6.90
   0   6 -10    3.90    2.20
   0   6 -10    3.00    2.20
   0  -6  10    3.00    2.40
  -1   6 -10  172.38    7.50
  -1   6 -10  172.08    8.00
   1  -6  10  163.58    8.30
  -2   6 -10   23.50    3.40
   2  -6  10   19.90    2.90
   2  -6  10   17.10    3.40
  -3   6 -10   47.70    4.80
   3  -6  10   35.50    4.40
   3  -6  10   45.90    4.20
  -4   6 -10   26.40    4.30
   4  -6  10   30.00    4.10
   4  -6  10   38.70    4.60
  -5   6 -10    0.20    2.90
   5  -6  10    2.30    3.00
   5  -6  10   -3.20    2.80
  -6   6 -10    9.80    3.70
   6  -6  10    1.40    3.10
   6  -6  10    8.00    3.80
   6   5 -10    5.10    3.40
  -6  -5  10    3.00    2.30
  -6  -5  10    3.40    2.50
   5   5 -10   18.70    3.90
  -5  -5  10   12.60    2.80
  -5  -5  10    8.30    2.60
   4   5 -10   -1.70    2.20
  -4  -5  10    1.10    2.00
  -4  -5  10    3.00    2.00
   3   5 -10   50.69    5.00
   3   5 -10   46.80    4.30
  -3  -5  10   41.80    4.50
   2   5 -10    5.60    2.50
   2   5 -10    7.00    2.30
  -2  -5  10    8.60    2.80
   1   5 -10   59.89    4.60
   1   5 -10   61.49    4.60
  -1  -5  10   63.99    4.90
   0   5 -10    4.10    1.90
   0   5 -10    4.30    2.10
   0  -5  10    2.50    2.10
  -1   5 -10    9.90    2.60
  -1   5 -10   10.50    2.20
   1  -5  10   10.00    2.00
   1  -5  10   13.00    2.80
  -2   5 -10   68.59    5.10
   2  -5  10   66.79    5.10
   2  -5  10   71.29    4.60
  -3   5 -10    2.10    2.40
   3  -5  10    7.30    2.60
  -4   5 -10   89.29    6.30
   4  -5  10   88.79    6.40
   4  -5  10   94.69    6.50
  -5   5 -10   11.60    3.30
   5  -5  10    6.40    3.20
   5  -5  10   11.50    3.70
  -6   5 -10   20.70    4.30
   6  -5  10    3.10    3.40
   6  -5  10   18.70    4.30
   7   4 -10    0.80    3.30
  -7  -4  10    5.80    3.00
   6   4 -10   16.50    4.30
  -6  -4  10   13.30    3.00
   5   4 -10    6.60    3.10
  -5  -4  10    5.40    2.30
  -5  -4  10    5.80    2.40
   4   4 -10   79.19    5.80
  -4  -4  10   71.29    4.90
  -4  -4  10   82.89    5.10
   3   4 -10   21.10    3.00
   3   4 -10   15.90    3.20
  -3  -4  10   16.50    2.90
   2   4 -10  153.88    7.60
   2   4 -10  149.88    7.20
  -2  -4  10  143.49    7.20
   1   4 -10   49.60    4.30
   1   4 -10   41.40    3.90
  -1  -4  10   43.40    4.20
   0   4 -10   83.79    5.10
   0   4 -10   82.59    4.80
   0  -4  10   77.29    5.10
  -1   4 -10   54.89    3.80
  -1   4 -10   59.59    4.40
   1  -4  10   66.99    3.80
   1  -4  10   70.19    4.70
  -2   4 -10   29.60    3.50
   2  -4  10   23.60    3.40
   2  -4  10   25.80    2.90
  -3   4 -10   59.99    5.10
   3  -4  10   62.49    5.40
   3  -4  10   68.29    4.90
  -4   4 -10   29.60    4.00
   4  -4  10   42.60    4.70
   4  -4  10   48.50    4.70
  -5   4 -10   15.90    3.60
   5  -4  10   17.90    3.80
   5  -4  10   24.60    4.10
  -6   4 -10   42.00    5.10
   6  -4  10   72.79    6.40
   6  -4  10   47.40    5.80
   7   3 -10   -1.80    3.20
  -7  -3  10   -0.20    2.70
   6   3 -10    4.30    3.30
  -6  -3  10    5.50    2.50
   5   3 -10    2.40    3.00
  -5  -3  10    1.70    1.70
  -5  -3  10    0.90    2.00
   4   3 -10   14.00    3.40
  -4  -3  10   10.80    2.50
  -4  -3  10   15.60    2.50
   3   3 -10    1.20    1.80
   3   3 -10    1.00    2.50
  -3  -3  10    2.60    1.90
   2   3 -10   29.60    3.30
   2   3 -10   39.10    4.20
  -2  -3  10   30.90    3.60
   1   3 -10    9.80    2.40
   1   3 -10   16.10    2.60
  -1  -3  10   12.40    2.60
   0   3 -10   34.20    3.50
   0   3 -10   31.70    3.30
   0  -3  10   39.80    4.00
  -1   3 -10   76.69    4.80
   1  -3  10   75.69    4.20
   1  -3  10   78.89    5.10
  -2   3 -10    2.90    2.00
   2  -3  10    6.50    2.20
   2  -3  10    2.50    2.20
  -3   3 -10   93.99    6.00
   3  -3  10  100.19    6.10
  -4   3 -10    2.60    2.40
  -4   3 -10    2.40    2.80
   4  -3  10    5.50    2.80
  -5   3 -10   42.60    4.90
  -5   3 -10   49.00    5.50
   5  -3  10   53.19    5.40
  -6   3 -10    5.60    3.70
  -6   3 -10    6.80    3.30
   6  -3  10    3.90    3.50
   7   2 -10    4.80    3.60
  -7  -2  10    0.40    2.60
   6   2 -10   -0.40    3.00
  -6  -2  10    1.90    2.30
   5   2 -10   31.40    4.50
  -5  -2  10   26.50    3.50
   4   2 -10   -2.30    2.20
  -4  -2  10   -0.10    1.80
  -4  -2  10    0.50    1.60
   3   2 -10   53.19    4.10
   3   2 -10   60.59    5.50
  -3  -2  10   55.39    4.10
   2   2 -10   11.70    2.40
   2   2 -10   11.40    2.70
  -2  -2  10   13.80    2.50
   1   2 -10   17.00    2.60
   1   2 -10   18.50    2.80
  -1  -2  10   15.00    2.60
   0   2 -10   20.40    2.90
   0   2 -10   17.40    2.50
   0  -2  10   18.60    2.10
   0  -2  10   13.10    2.40
  -1   2 -10    3.40    1.80
  -1   2 -10   -0.30    1.20
   1  -2  10    4.50    2.10
   1  -2  10    3.40    1.70
  -2   2 -10    4.60    2.10
  -2   2 -10    2.10    2.40
   2  -2  10    3.30    1.90
  -3   2 -10   11.30    2.70
  -3   2 -10    5.50    2.60
   3  -2  10   10.20    2.90
  -4   2 -10    4.70    2.90
  -4   2 -10    3.70    2.40
   4  -2  10    0.50    2.50
  -5   2 -10    3.60    3.10
  -5   2 -10    4.50    2.90
   5  -2  10    6.10    3.20
  -6   2 -10   10.60    3.70
  -6   2 -10   18.00    4.50
   6  -2  10   15.80    4.00
   7   1 -10   12.50    4.10
  -7  -1  10    8.10    3.40
   6   1 -10   -0.70    2.90
  -6  -1  10    1.40    2.30
   5   1 -10   15.70    3.90
  -5  -1  10   17.00    3.10
   4   1 -10   -0.30    2.40
  -4  -1  10    1.40    1.70
  -4  -1  10   -2.20    1.80
   3   1 -10    2.30    2.50
  -3  -1  10    3.20    1.80
   2   1 -10   18.40    3.10
   2   1 -10   27.50    3.20
  -2  -1  10   23.10    2.90
   1   1 -10    9.20    2.20
   1   1 -10    9.50    2.30
  -1  -1  10   10.40    2.20
   0   1 -10   46.80    4.00
   0   1 -10   39.20    3.40
   0  -1  10   42.40    3.90
   0  -1  10   39.20    3.00
  -1   1 -10   29.70    3.10
  -1   1 -10   24.40    3.30
   1  -1  10   22.90    2.60
  -2   1 -10   -1.80    1.80
  -2   1 -10    2.80    2.40
   2  -1  10    0.60    1.70
  -3   1 -10   15.20    2.90
  -3   1 -10    8.10    3.00
   3  -1  10   12.10    2.80
  -4   1 -10    8.10    3.20
  -4   1 -10    8.40    2.90
   4  -1  10   12.00    3.10
  -5   1 -10   -1.00    3.10
  -5   1 -10   -0.90    2.60
   5  -1  10   -3.00    2.60
  -6   1 -10    9.70    3.50
  -6   1 -10   11.90    4.10
   6  -1  10   10.40    3.70
   7   0 -10    1.50    3.70
  -7   0  10    1.70    2.90
   6   0 -10    0.80    3.20
  -6   0  10    4.50    2.90
   5   0 -10    7.50    3.20
  -5   0  10    4.40    2.30
   4   0 -10    1.50    2.50
  -4   0  10   -0.20    1.80
   3   0 -10   16.00    3.20
  -3   0  10   11.10    2.50
  -3   0  10    8.10    2.10
   2   0 -10   -0.30    1.20
   2   0 -10   10.40    2.70
   2   0 -10    8.80    2.20
  -2   0  10    5.10    1.80
   1   0 -10    5.50    2.10
   1   0 -10   11.70    2.50
  -1   0  10   14.30    2.50
   0   0 -10    0.70    1.80
   0   0 -10   -0.20    2.00
   0   0 -10    4.40    1.90
   0   0  10    0.80    1.60
  -1   0 -10    9.80    2.70
  -1   0 -10   -0.30    1.40
  -1   0 -10    7.20    2.20
   1   0  10    7.20    2.00
  -2   0 -10   13.30    3.00
  -2   0 -10    7.00    2.20
   2   0  10   12.10    2.50
  -3   0 -10    2.80    2.70
  -3   0 -10    1.10    2.10
   3   0  10    2.80    2.20
  -4   0 -10   27.70    3.60
  -4   0 -10   32.30    4.50
   4   0  10   31.30    4.10
  -5   0 -10    0.90    2.90
  -5   0 -10   -2.60    2.90
   5   0  10   -3.10    2.70
  -6   0 -10    5.30    4.10
  -6   0 -10    1.80    3.00
   6   0  10   12.70    3.80
   7  -1 -10    5.10    3.90
  -7   1  10    3.00    3.40
   6  -1 -10    2.80    3.40
  -6   1  10    0.80    2.50
   5  -1 -10    3.30    3.00
  -5   1  10    2.80    2.40
   4  -1 -10    9.20    3.00
   4  -1 -10    0.80    1.90
  -4   1  10   12.40    2.60
   3  -1 -10   -0.50    2.40
   3  -1 -10   -0.30    1.40
  -3   1  10   -0.70    1.80
  -3   1  10    0.10    1.90
   2  -1 -10   28.40    3.70
   2  -1 -10   20.10    2.50
   2  -1 -10   25.50    3.10
  -2   1  10   23.40    2.80
   1  -1 -10   -0.30    1.80
   1  -1 -10    2.60    1.50
   1  -1 -10    0.40    1.90
   0  -1 -10   12.30    2.70
   0  -1 -10   11.70    2.40
   0  -1 -10    9.10    2.10
   0   1  10    9.20    2.10
  -1  -1 -10    1.40    1.90
  -1  -1 -10   -1.90    2.10
   1   1  10   -0.70    1.70
  -2  -1 -10    0.80    2.00
  -2  -1 -10   -0.80    2.20
   2   1  10    2.20    2.00
  -3  -1 -10   -0.20    2.40
  -3  -1 -10   -0.60    1.80
   3   1  10    2.00    2.20
  -4  -1 -10   -0.60    2.70
  -4  -1 -10    1.50    2.20
   4   1  10   -2.70    2.30
  -5  -1 -10    1.10    2.60
  -5  -1 -10    1.10    3.40
   5   1  10    1.80    2.90
   6  -2 -10    0.50    3.50
  -6   2  10    6.50    3.10
   5  -2 -10   13.10    3.60
  -5   2  10    5.00    2.70
   4  -2 -10    0.90    1.70
   4  -2 -10   14.20    3.50
  -4   2  10   10.00    2.70
   3  -2 -10   29.70    4.00
  -3   2  10   33.80    3.60
   2  -2 -10   19.80    2.60
   2  -2 -10   22.30    3.60
  -2   2  10   16.80    2.50
  -2   2  10   21.10    3.00
   1  -2 -10    1.40    2.20
   1  -2 -10    4.40    2.10
   1  -2 -10    3.60    2.20
   1  -2 -10    2.30    1.90
   0  -2 -10   15.90    2.80
   0  -2 -10   18.40    2.70
   0  -2 -10   20.20    3.30
   0  -2 -10   14.90    2.60
  -1  -2 -10   17.60    3.40
  -1  -2 -10   22.40    2.90
   1   2  10   11.40    2.60
   1   2  10   20.10    3.00
  -2  -2 -10    2.90    2.80
  -2  -2 -10   -0.50    2.00
   2   2  10    7.90    2.50
  -3  -2 -10   28.30    4.20
   3   2  10   32.30    4.10
  -4  -2 -10    0.10    3.10
   4   2  10    0.40    2.60
  -5  -2 -10    5.10    3.80
   5   2  10    5.90    3.30
   6  -3 -10   -1.60    3.30
  -6   3  10   -0.20    2.80
   5  -3 -10    9.50    3.60
   5  -3 -10    1.40    2.40
  -5   3  10    8.30    3.10
   4  -3 -10   -1.00    1.90
   4  -3 -10    4.60    3.00
  -4   3  10    8.90    2.80
   3  -3 -10   11.10    2.60
   3  -3 -10    7.60    3.00
  -3   3  10    8.40    2.50
   2  -3 -10   42.30    4.70
   2  -3 -10   45.50    4.20
  -2   3  10   38.60    4.00
   1  -3 -10   -0.50    1.80
   1  -3 -10   -0.60    2.00
   1  -3 -10    0.60    2.10
   1  -3 -10    1.60    2.40
   0  -3 -10   46.60    4.30
   0  -3 -10   64.79    5.10
   0  -3 -10   78.69    5.10
   0   3  10   72.19    4.80
  -1  -3 -10    5.60    2.80
  -1  -3 -10   -1.30    1.80
   1   3  10    2.00    2.40
  -2  -3 -10   37.30    4.90
   2   3  10   42.40    4.40
  -3  -3 -10   -2.00    2.70
   3   3  10   -2.00    2.20
  -4  -3 -10    5.40    3.50
   4   3  10    8.40    3.20
   5  -4 -10    1.20    2.60
   5  -4 -10    5.60    3.50
  -5   4  10    9.60    3.30
   4  -4 -10    1.30    2.40
   4  -4 -10    2.50    3.20
  -4   4  10    4.40    2.60
   3  -4 -10   -0.20    2.20
   3  -4 -10   -0.30    2.80
  -3   4  10   -1.20    2.10
   2  -4 -10    2.20    2.90
   2  -4 -10    1.60    2.30
  -2   4  10   -1.90    2.10
   1  -4 -10   -0.10    2.30
   1  -4 -10    1.20    2.10
  -1   4  10   -0.80    2.00
  -1   4  10   -2.30    2.10
   0  -4 -10    5.30    2.60
   0  -4 -10    3.10    2.50
   0   4  10    2.10    2.30
  -1  -4 -10   -0.50    2.70
   1   4  10    1.60    2.50
  -2  -4 -10    0.80    3.00
   2   4  10    1.80    2.80
  -3  -4 -10    4.10    3.30
   3   4  10    4.40    2.90
  -4  -4 -10   14.30    4.00
   4   4  10   15.00    3.80
   5  -5 -10    2.60    3.10
   5  -5 -10   -2.20    3.40
  -5   5  10   10.60    3.80
   4  -5 -10    1.20    3.40
   4  -5 -10    2.00    3.00
  -4   5  10    5.10    2.90
   3  -5 -10    7.00    3.60
   3  -5 -10    6.80    3.10
  -3   5  10    6.40    2.80
   2  -5 -10    3.90    2.80
  -2   5  10    1.80    2.50
   1  -5 -10   -0.50    2.40
   1  -5 -10    2.50    2.80
  -1   5  10    3.40    2.50
   0  -5 -10   -0.40    2.80
   0  -5 -10   -1.30    2.30
   0   5  10   -1.80    2.20
  -1  -5 -10    5.60    3.20
  -2  -5 -10    1.20    3.20
   2   5  10    0.90    2.90
  -3  -5 -10    3.10    3.70
   3   5  10    6.00    3.30
   3  -6 -10    2.70    3.20
  -3   6  10    1.80    2.90
   2  -6 -10    5.70    3.30
  -2   6  10    2.20    2.80
   1  -6 -10    4.30    3.10
  -1   6  10    4.10    2.90
   0  -6 -10   -0.70    2.70
   0  -6 -10    2.20    3.00
   0   6  10    1.90    2.70
  -1  -6 -10    0.90    3.30
   2  11 -11    4.40    3.90
  -2 -11  11   10.40    4.30
   1  11 -11    5.40    3.80
  -1 -11  11    4.60    4.00
   0  11 -11    5.40    3.80
   0 -11  11    4.20    3.80
  -1  11 -11    1.80    3.30
   1 -11  11    1.30    3.60
  -2  11 -11   -3.00    3.60
   2 -11  11    1.50    3.90
   3  10 -11    2.20    3.50
  -3 -10  11   -0.60    3.20
   2  10 -11    5.70    3.40
  -2 -10  11    0.70    3.10
   1  10 -11    0.90    3.00
  -1 -10  11   -0.60    3.00
   0  10 -11   15.00    3.70
   0  10 -11   13.20    3.70
   0 -10  11   10.70    4.00
  -1  10 -11    0.40    2.90
  -1  10 -11    0.00    2.90
   1 -10  11   -0.20    3.20
  -2  10 -11    5.80    3.50
   2 -10  11    5.50    3.60
  -3  10 -11    1.00    3.50
   3 -10  11   -1.50    3.40
   4   9 -11   13.70    4.00
  -4  -9  11   18.30    4.10
   3   9 -11    0.80    2.80
  -3  -9  11   -0.50    2.70
   2   9 -11   -1.30    2.70
   2   9 -11    3.60    2.90
  -2  -9  11    5.40    3.20
   1   9 -11   -1.00    2.70
   1   9 -11   -0.30    2.60
  -1  -9  11    0.00    2.80
   0   9 -11    2.40    2.80
   0   9 -11    3.10    2.70
   0  -9  11   -1.40    2.80
  -1   9 -11    2.80    2.70
  -1   9 -11    0.20    2.60
   1  -9  11    1.00    3.20
  -2   9 -11   -1.10    2.90
   2  -9  11   -1.30    3.10
  -3   9 -11    0.40    3.40
   3  -9  11    1.40    3.20
  -4   9 -11    2.80    3.70
   4  -9  11   -1.60    3.20
   5   8 -11   22.80    4.70
  -5  -8  11   12.20    3.60
   4   8 -11    7.70    3.40
  -4  -8  11   -0.30    1.90
  -4  -8  11    7.80    3.20
   3   8 -11   10.60    3.10
   3   8 -11    6.10    3.00
  -3  -8  11    9.40    3.30
   2   8 -11   17.80    3.70
   2   8 -11   22.70    3.90
  -2  -8  11   25.00    4.30
   1   8 -11    2.80    2.70
   1   8 -11    7.20    2.70
  -1  -8  11   -1.80    2.50
   0   8 -11   20.10    3.50
   0   8 -11   20.80    3.50
   0  -8  11   14.90    3.50
  -1   8 -11    1.70    2.60
  -1   8 -11   -1.20    2.20
   1  -8  11   -0.30    2.70
  -2   8 -11    6.10    3.10
   2  -8  11    8.10    3.30
  -3   8 -11   10.30    3.60
   3  -8  11    7.90    3.50
  -4   8 -11    2.30    3.30
   4  -8  11    1.50    3.40
   4  -8  11    6.00    3.10
  -5   8 -11    8.80    4.10
   5  -8  11    9.20    3.70
   5  -8  11   -4.20    3.30
   5   7 -11   25.50    4.70
  -5  -7  11    3.50    2.40
  -5  -7  11   16.90    3.60
   4   7 -11   -1.50    2.40
  -4  -7  11    1.60    2.70
  -4  -7  11   -0.90    1.90
   3   7 -11  109.39    6.50
   3   7 -11  102.69    6.80
  -3  -7  11   91.59    6.50
   2   7 -11    3.00    2.60
   2   7 -11    1.10    2.40
  -2  -7  11   -2.80    2.20
   1   7 -11  100.59    6.30
   1   7 -11   94.79    6.20
  -1  -7  11   90.89    6.60
   0   7 -11    2.50    2.50
   0   7 -11    0.60    2.30
   0  -7  11    3.10    2.50
  -1   7 -11   11.80    3.00
  -1   7 -11   -0.70    2.00
   1  -7  11    9.90    3.10
  -2   7 -11    1.00    2.60
   2  -7  11    0.70    2.70
  -3   7 -11   -7.90    2.60
   3  -7  11   -1.40    2.90
   3  -7  11    3.00    2.70
  -4   7 -11   -0.70    2.90
   4  -7  11   -0.10    3.20
   4  -7  11   -2.40    2.70
  -5   7 -11    0.30    3.50
   5  -7  11   -0.50    3.40
   5  -7  11    1.50    3.30
   6   6 -11   24.10    4.70
  -6  -6  11   26.90    3.80
  -6  -6  11   26.30    4.00
   5   6 -11    7.80    3.50
  -5  -6  11    8.70    2.80
  -5  -6  11    7.00    2.50
   4   6 -11   48.40    5.40
  -4  -6  11   51.69    5.30
  -4  -6  11   45.90    4.50
   3   6 -11   15.20    3.20
   3   6 -11    6.90    2.80
  -3  -6  11   11.30    3.00
   2   6 -11   24.70    3.70
   2   6 -11   17.00    3.40
  -2  -6  11   16.30    3.30
   1   6 -11    4.20    2.40
   1   6 -11    7.10    2.70
  -1  -6  11    3.30    2.50
   0   6 -11    0.80    2.30
   0   6 -11    2.20    2.20
   0  -6  11    0.40    2.20
  -1   6 -11   79.69    5.50
   1  -6  11   81.79    5.90
  -2   6 -11    0.90    2.40
   2  -6  11    1.80    2.10
   2  -6  11    3.40    2.80
  -3   6 -11   59.59    5.60
   3  -6  11   66.59    5.90
   3  -6  11   72.49    5.30
  -4   6 -11    8.30    3.30
   4  -6  11   11.10    3.60
   4  -6  11    8.70    3.10
  -5   6 -11   12.80    4.00
   5  -6  11    9.40    3.70
   5  -6  11   15.30    4.00
   6   5 -11   48.30    5.90
  -6  -5  11   38.10    4.40
  -6  -5  11   33.60    4.20
   5   5 -11   20.60    4.00
  -5  -5  11   17.80    3.30
  -5  -5  11   17.40    3.20
   4   5 -11  182.88    9.40
  -4  -5  11  177.68    8.30
  -4  -5  11  158.08    8.20
   3   5 -11   13.60    3.00
   3   5 -11    6.60    2.90
  -3  -5  11    9.90    2.70
   2   5 -11  539.85   20.00
   2   5 -11  550.64   19.80
  -2  -5  11  551.04   19.90
   1   5 -11   -2.90    2.10
   1   5 -11    1.80    2.10
  -1  -5  11    1.30    2.20
   0   5 -11  735.33   24.50
   0   5 -11  704.43   24.70
   0  -5  11  690.03   24.90
  -1   5 -11    1.20    1.80
  -1   5 -11    3.60    2.30
   1  -5  11    0.60    2.20
  -2   5 -11  330.67   13.20
   2  -5  11  328.47   13.30
   2  -5  11  330.37   12.50
  -3   5 -11   18.10    3.50
   3  -5  11   16.90    3.60
   3  -5  11   26.10    3.50
  -4   5 -11   50.99    5.20
   4  -5  11   66.09    6.10
   4  -5  11   60.79    5.50
  -5   5 -11   35.90    4.80
   5  -5  11   46.50    5.80
   5  -5  11   44.40    5.30
   6   4 -11  124.69    8.50
  -6  -4  11   92.99    6.40
   5   4 -11   24.60    4.50
  -5  -4  11   13.50    3.10
  -5  -4  11   12.40    2.80
   4   4 -11  195.98    9.70
  -4  -4  11  164.68    8.10
  -4  -4  11  172.78    8.20
   3   4 -11   38.00    4.10
   3   4 -11   40.10    4.60
  -3  -4  11   34.20    4.00
   2   4 -11  315.47   12.80
   2   4 -11  351.66   13.40
  -2  -4  11  312.87   12.90
   1   4 -11   38.90    4.00
   1   4 -11   31.30    3.80
  -1  -4  11   28.20    3.70
   0   4 -11  548.55   20.20
   0   4 -11  603.84   20.00
   0  -4  11  554.74   20.40
  -1   4 -11    8.90    2.50
   1  -4  11   11.50    2.10
   1  -4  11   15.10    2.90
  -2   4 -11  614.74   22.90
   2  -4  11  684.93   22.40
   2  -4  11  660.33   23.30
  -3   4 -11   -2.00    2.30
   3  -4  11    0.50    2.50
   3  -4  11    1.50    2.60
   4  -4  11  411.66   15.80
   4  -4  11  406.96   16.30
  -5   4 -11    1.10    2.70
   5  -4  11    3.10    3.10
   5  -4  11   -1.40    3.20
   6  -4  11  132.39    8.90
   6  -4  11  129.89    8.90
   7   3 -11    4.60    3.80
  -7  -3  11    2.60    3.10
   6   3 -11   22.20    4.70
  -6  -3  11   19.70    3.50
   5   3 -11   -0.10    2.60
  -5  -3  11    0.20    2.10
  -5  -3  11    0.70    2.10
   4   3 -11   35.20    4.80
  -4  -3  11   27.90    3.60
  -4  -3  11   21.10    3.00
   3   3 -11    6.00    2.40
   3   3 -11   13.10    3.20
  -3  -3  11    9.20    2.50
   2   3 -11   21.30    3.20
   2   3 -11   14.00    3.30
  -2  -3  11   18.20    2.90
   1   3 -11   21.20    3.10
   1   3 -11   22.80    3.40
  -1  -3  11   21.50    3.20
   0   3 -11   18.80    2.90
  -1   3 -11    6.00    2.30
  -1   3 -11   -0.50    1.50
   1  -3  11    9.60    2.10
   1  -3  11    7.20    2.60
  -3   3 -11    1.20    2.40
   3  -3  11    1.00    2.50
   3  -3  11    0.70    2.50
  -4   3 -11  130.79    7.80
   4  -3  11  160.88    8.30
  -5   3 -11    3.00    2.90
  -5   3 -11    2.30    3.40
   5  -3  11    9.00    3.70
  -6   3 -11  112.49    8.50
   6  -3  11  106.79    8.10
   7   2 -11    0.80    3.60
  -7  -2  11    1.60    2.90
   6   2 -11   -0.20    3.40
  -6  -2  11    1.30    2.30
   5   2 -11    4.60    3.00
  -5  -2  11    4.00    2.40
   4   2 -11   11.20    3.50
  -4  -2  11    6.50    2.40
  -4  -2  11   13.80    2.60
   3   2 -11   53.79    4.50
   3   2 -11   42.30    4.80
  -3  -2  11   38.50    3.90
   2   2 -11   -0.10    2.40
   2   2 -11    4.10    2.10
  -2  -2  11    5.20    2.10
   1   2 -11   87.09    5.40
   1   2 -11   87.59    5.40
  -1  -2  11   84.69    5.20
   0   2 -11   15.70    2.80
   0   2 -11    4.50    2.60
   0  -2  11   15.00    2.70
   0  -2  11   16.80    2.20
  -1   2 -11   46.70    4.10
   1  -2  11   43.90    3.50
   1  -2  11   37.70    4.20
  -3   2 -11    6.50    2.60
  -3   2 -11    2.60    2.80
   3  -2  11    6.70    2.80
  -4   2 -11   88.79    6.30
  -5   2 -11    3.20    3.00
  -5   2 -11    3.10    3.40
   5  -2  11    3.80    3.40
   7   1 -11    2.80    3.80
  -7  -1  11    4.30    3.10
   6   1 -11    8.00    3.80
  -6  -1  11    7.00    2.70
   5   1 -11   -2.70    2.50
  -5  -1  11   -0.20    2.20
   4   1 -11   20.50    4.00
  -4  -1  11   18.70    3.20
   3   1 -11    0.00    1.80
   3   1 -11   -0.40    2.40
  -3  -1  11   -1.20    1.60
   2   1 -11    2.40    2.50
   2   1 -11   -0.30    1.90
  -2  -1  11   -0.30    1.80
   1   1 -11    1.70    2.00
   1   1 -11    0.50    1.90
  -1  -1  11    2.70    1.80
   0   1 -11   10.30    2.50
   0   1 -11    4.10    2.00
   0  -1  11   11.20    2.80
   0  -1  11   10.10    2.00
  -1   1 -11   26.30    3.50
  -1   1 -11   22.40    3.50
   1  -1  11   27.40    3.00
  -2   1 -11    4.70    2.70
  -2   1 -11   10.90    2.60
   2  -1  11    6.90    2.30
  -3   1 -11   46.90    4.60
  -3   1 -11   54.49    5.30
   3  -1  11   61.89    5.10
  -4   1 -11    3.80    3.20
  -4   1 -11    1.80    2.60
   4  -1  11    4.70    2.90
  -5   1 -11   38.90    4.80
  -5   1 -11   37.90    5.20
   5  -1  11   35.60    4.80
   6   0 -11    0.70    3.70
  -6   0  11    0.50    2.50
   5   0 -11    4.10    3.20
  -5   0  11    6.80    2.70
   4   0 -11   -1.20    2.60
  -4   0  11    2.10    2.10
   3   0 -11    8.80    2.90
  -3   0  11    7.40    2.20
  -3   0  11    5.80    2.40
   2   0 -11   34.50    4.00
   2   0 -11   32.40    3.60
  -2   0  11   26.50    3.10
   1   0 -11    4.40    2.20
   1   0 -11    6.80    2.40
  -1   0  11    4.00    2.00
   0   0 -11   89.49    5.60
   0   0 -11   89.09    5.50
   0   0 -11   80.49    4.90
   0   0  11   85.99    4.90
  -1   0 -11    2.50    2.40
  -1   0 -11   -1.30    2.10
   1   0  11    0.70    1.80
  -2   0 -11   58.09    4.70
  -2   0 -11   67.89    5.80
   2   0  11   66.89    4.80
  -3   0 -11    0.70    2.80
  -3   0 -11    0.70    2.20
   3   0  11   -0.90    2.20
  -4   0 -11    5.40    2.80
  -4   0 -11   10.40    3.70
   4   0  11    8.20    3.10
  -5   0 -11    0.00    2.90
  -5   0 -11    1.60    3.40
   5   0  11    1.30    3.20
   6  -1 -11    1.60    3.70
  -6   1  11    6.70    3.10
   5  -1 -11   -2.20    2.80
  -5   1  11    1.40    2.40
   4  -1 -11    1.70    2.80
  -4   1  11    0.70    2.20
   3  -1 -11    0.60    2.60
  -3   1  11    2.30    2.20
   2  -1 -11    0.90    2.00
   2  -1 -11   -0.50    1.50
   2  -1 -11    0.10    2.30
  -2   1  11   -0.20    1.60
   1  -1 -11    2.60    1.60
   1  -1 -11    0.90    2.20
   1  -1 -11   -0.50    2.10
  -1   1  11    0.90    1.80
   0  -1 -11    3.50    2.00
   0  -1 -11    4.40    2.50
   0  -1 -11    0.70    2.10
   0   1  11    3.50    2.10
  -1  -1 -11    3.40    2.30
  -1  -1 -11   -1.10    2.40
   1   1  11   -1.00    1.90
  -2  -1 -11    4.30    2.40
  -2  -1 -11    5.20    2.90
   2   1  11    2.80    2.30
  -3  -1 -11   12.10    3.40
  -3  -1 -11    6.80    2.50
   3   1  11   10.10    2.90
  -4  -1 -11   11.80    3.60
  -4  -1 -11   -0.40    2.10
   4   1  11   10.10    3.30
  -5  -1 -11    7.10    3.90
   5   1  11   10.40    3.60
   6  -2 -11   -1.50    3.60
  -6   2  11   -1.90    2.70
   5  -2 -11    1.10    3.20
  -5   2  11    1.40    2.50
   4  -2 -11   -0.60    2.80
  -4   2  11   -0.20    2.30
   3  -2 -11   23.10    4.00
  -3   2  11   21.00    3.20
   2  -2 -11    1.80    1.80
   2  -2 -11    3.30    2.60
  -2   2  11    1.80    1.90
  -2   2  11   -0.10    2.10
   1  -2 -11   48.60    4.40
   1  -2 -11   53.29    4.50
   1  -2 -11   48.60    4.70
   1  -2 -11   51.19    4.20
   0  -2 -11    1.20    2.50
   0  -2 -11    1.00    2.10
   0  -2 -11   -0.70    2.00
  -1  -2 -11   15.10    2.80
  -1  -2 -11   12.00    3.30
   1   2  11    7.80    2.70
  -2  -2 -11    3.10    3.10
  -2  -2 -11    0.90    2.00
   2   2  11    1.80    2.30
  -3  -2 -11    1.20    2.90
  -3  -2 -11    1.70    3.40
   3   2  11    0.90    2.50
  -4  -2 -11    2.40    3.40
   4   2  11    4.90    3.10
   5  -3 -11    5.60    3.50
  -5   3  11    2.70    2.90
   4  -3 -11    4.50    3.20
   4  -3 -11    0.10    2.30
  -4   3  11    6.10    2.80
   3  -3 -11    0.50    1.90
   3  -3 -11    2.20    3.00
  -3   3  11    1.40    2.40
   2  -3 -11   -0.10    2.70
   2  -3 -11    0.90    2.10
  -2   3  11    3.10    2.40
   1  -3 -11    6.40    2.40
   1  -3 -11    3.60    2.30
   1  -3 -11    1.70    2.20
   1  -3 -11    4.40    2.80
   0  -3 -11    2.10    2.70
   0  -3 -11    1.50    2.20
   0  -3 -11   -3.30    1.80
   0   3  11    1.60    2.10
  -1  -3 -11   13.10    3.50
  -1  -3 -11    2.30    2.50
   1   3  11   14.00    3.20
  -2  -3 -11   10.60    3.70
   2   3  11    8.50    2.90
  -3  -3 -11   13.90    4.10
   3   3  11   15.00    3.40
  -4  -3 -11    2.20    3.50
   4   3  11    0.80    3.10
   5  -4 -11    3.40    3.80
  -5   4  11    1.70    2.90
   4  -4 -11    3.30    3.50
   4  -4 -11    1.40    2.60
  -4   4  11    5.90    2.90
   3  -4 -11   -0.30    2.30
   3  -4 -11   -3.80    3.00
  -3   4  11    6.10    2.70
   2  -4 -11    0.60    3.00
   2  -4 -11    1.50    2.50
  -2   4  11    0.60    2.30
   1  -4 -11    0.30    2.40
   1  -4 -11   -1.90    2.30
  -1   4  11   -1.80    2.20
   0  -4 -11    4.00    3.60
   0  -4 -11    5.30    2.80
   0   4  11    5.30    2.60
  -1  -4 -11    0.80    3.10
   1   4  11   -2.60    2.60
  -2  -4 -11    3.50    3.60
   2   4  11    4.90    3.10
  -3  -4 -11   -0.30    3.60
   3   4  11    0.10    3.00
   4  -5 -11    2.00    3.00
   4  -5 -11    1.80    3.90
  -4   5  11    5.70    3.30
   3  -5 -11    2.10    3.40
   3  -5 -11    2.20    3.00
   2  -5 -11    9.60    3.50
  -2   5  11    2.40    2.80
  -1   5  11   -0.20    2.60
   0  -5 -11    4.10    3.20
   0  -5 -11    2.30    2.90
   0   5  11    2.70    2.70
  -1  -5 -11   -2.00    3.30
   1   5  11    3.00    3.00
  -2  -5 -11   -0.40    3.70
   2   5  11   -4.60    2.90
   2  -6 -11    3.60    3.60
  -2   6  11    2.10    3.00
   1  -6 -11    9.90    3.80
  -1   6  11    4.70    3.10
   0  -6 -11    3.50    3.50
   1  11 -12    3.20    3.80
  -1 -11  12    0.90    3.80
   0  11 -12   -1.40    3.30
   0 -11  12    1.30    3.90
  -1  11 -12   -1.10    3.30
   1 -11  12   -2.90    3.90
   3  10 -12    1.30    3.50
  -3 -10  12    2.50    3.50
   2  10 -12    0.80    3.30
  -2 -10  12    0.40    3.40
   1  10 -12    0.30    3.20
  -1 -10  12    2.40    3.50
   0  10 -12    4.70    3.20
   0  10 -12    4.80    3.40
   0 -10  12    8.60    3.90
  -1  10 -12    1.80    3.00
  -1  10 -12   -0.50    3.20
   1 -10  12   -0.50    3.50
  -2  10 -12   14.10    3.90
   2 -10  12   14.80    4.70
  -3  10 -12    0.80    3.90
   3 -10  12   -0.50    4.00
   4   9 -12    8.00    3.90
  -4  -9  12    6.60    3.50
   3   9 -12    3.60    3.30
  -3  -9  12    6.40    3.70
   2   9 -12    3.80    3.30
   2   9 -12    2.90    3.30
  -2  -9  12    0.70    3.10
   1   9 -12    7.80    3.40
   1   9 -12    8.70    3.30
  -1  -9  12    4.80    3.10
   0   9 -12   -0.90    2.80
   0   9 -12    3.20    2.80
   0  -9  12    2.40    3.40
  -1   9 -12    3.60    3.10
  -1   9 -12   -0.40    2.40
   1  -9  12    6.70    3.50
  -2   9 -12   -2.70    3.00
   2  -9  12   -1.30    3.20
  -3   9 -12    1.00    3.60
   3  -9  12    2.60    3.70
  -4   9 -12    4.30    4.10
   4  -9  12   -4.80    3.50
   5   8 -12   17.20    4.40
  -5  -8  12   13.30    3.80
  -5  -8  12    0.90    3.60
   4   8 -12   -0.80    2.80
  -4  -8  12   -1.40    2.10
  -4  -8  12   -0.10    2.90
   3   8 -12    3.90    3.00
   3   8 -12    2.70    3.00
  -3  -8  12    6.20    3.10
   2   8 -12   -0.50    2.80
   2   8 -12    2.70    2.90
  -2  -8  12    2.20    3.00
   1   8 -12    4.80    3.00
   1   8 -12   -4.70    2.40
  -1  -8  12    0.40    2.90
   0   8 -12    1.40    2.70
   0   8 -12    2.50    2.70
   0  -8  12    0.60    2.80
  -1   8 -12    3.30    2.80
  -1   8 -12   -1.80    2.20
   1  -8  12   -3.40    2.70
  -2   8 -12    3.00    3.10
   2  -8  12   -0.30    3.00
  -3   8 -12    4.60    3.40
   3  -8  12    0.00    3.40
  -4   8 -12    0.10    4.00
   4  -8  12    0.30    3.60
   5   7 -12   -0.70    3.10
  -5  -7  12   -0.80    2.30
  -5  -7  12    0.50    2.60
   4   7 -12    1.20    2.90
  -4  -7  12    3.60    2.30
  -4  -7  12    4.30    2.90
   3   7 -12   31.60    4.30
   3   7 -12   25.20    4.50
  -3  -7  12   24.60    4.10
   2   7 -12    6.70    3.00
   2   7 -12    2.50    2.90
  -2  -7  12    4.90    3.10
   1   7 -12   83.89    6.10
   1   7 -12   92.79    6.40
  -1  -7  12   82.49    6.50
   0   7 -12    2.20    2.40
   0   7 -12    2.30    2.70
   0  -7  12    6.30    2.90
  -1   7 -12   42.10    4.60
   1  -7  12   44.60    5.10
  -2   7 -12   -0.20    2.80
   2  -7  12   -1.20    2.80
  -3   7 -12    2.70    3.20
   3  -7  12    3.50    3.50
  -4   7 -12    2.10    3.50
   4  -7  12    2.20    3.10
   4  -7  12    4.00    3.60
  -5   7 -12   -2.10    3.50
   5  -7  12   -2.10    3.20
   5  -7  12   -0.80    3.90
   6   6 -12   -2.10    3.20
  -6  -6  12   -0.30    2.80
  -6  -6  12   -0.90    2.60
   5   6 -12    3.80    3.30
  -5  -6  12    2.70    2.70
   4   6 -12    6.10    3.20
  -4  -6  12    2.10    2.40
  -4  -6  12    7.10    2.80
   3   6 -12   -2.90    2.50
   3   6 -12   -2.10    2.40
  -3  -6  12   -0.30    2.30
   2   6 -12   11.40    3.20
   2   6 -12    3.50    2.80
  -2  -6  12    3.70    2.80
   1   6 -12    1.60    2.50
   1   6 -12   -0.90    2.40
  -1  -6  12   -1.10    2.40
   0   6 -12    1.20    2.30
   0   6 -12    1.00    2.60
   0  -6  12   -1.10    2.30
  -1   6 -12    0.60    3.20
  -1   6 -12    9.30    2.90
   1  -6  12    1.90    2.50
  -2   6 -12   10.90    3.20
   2  -6  12    8.90    3.20
  -3   6 -12   17.70    3.80
   3  -6  12   20.80    4.00
   3  -6  12   19.20    3.90
  -4   6 -12    2.60    3.40
   4  -6  12    5.30    3.40
   4  -6  12    4.00    3.10
  -5   6 -12    6.80    3.70
   5  -6  12    0.00    3.30
   5  -6  12    2.20    3.60
   6   5 -12   74.39    7.80
  -6  -5  12   45.30    5.00
   5   5 -12    5.70    3.30
  -5  -5  12    4.80    2.70
  -5  -5  12    3.90    2.60
   4   5 -12   58.69    5.90
  -4  -5  12   62.19    5.70
  -4  -5  12   60.49    5.20
   3   5 -12    4.90    2.80
   3   5 -12    1.90    2.50
  -3  -5  12    1.60    2.40
   2   5 -12    6.10    2.90
   2   5 -12   12.30    3.10
  -2  -5  12   12.40    3.10
   1   5 -12    6.60    2.60
   1   5 -12    7.30    2.70
  -1  -5  12    5.70    2.60
   0   5 -12    8.70    2.80
   0   5 -12   12.40    2.80
   0  -5  12   12.10    3.20
  -1   5 -12   23.30    3.50
   1  -5  12   16.10    3.40
  -2   5 -12   24.60    3.90
   2  -5  12   23.10    3.80
  -3   5 -12    3.50    2.90
   3  -5  12    5.90    3.20
   3  -5  12    5.60    2.90
  -4   5 -12    4.80    3.30
   4  -5  12    1.30    3.20
   4  -5  12    7.30    3.30
  -5   5 -12   -0.20    3.40
   5  -5  12    1.50    3.70
   5  -5  12   -0.60    3.40
   6   4 -12   24.80    5.00
  -6  -4  12   16.00    3.40
   5   4 -12    5.20    3.60
  -5  -4  12    3.00    2.50
  -5  -4  12    2.90    2.50
   4   4 -12   78.69    6.90
  -4  -4  12   62.09    5.20
  -4  -4  12   51.89    5.00
   3   4 -12   -0.90    2.20
   3   4 -12    2.80    2.80
  -3  -4  12   -3.00    2.00
   2   4 -12  106.59    6.70
   2   4 -12  100.49    6.30
  -2  -4  12  104.69    6.40
   1   4 -12    3.80    2.40
   1   4 -12   -0.10    2.20
  -1  -4  12   -2.30    2.10
   0   4 -12   55.29    4.80
   0  -4  12   51.39    5.20
  -1   4 -12   -3.80    2.00
   1  -4  12   -0.30    2.10
  -2   4 -12    3.10    2.50
   2  -4  12    2.00    2.40
   2  -4  12    1.00    2.40
  -3   4 -12   -0.10    2.40
   3  -4  12    1.60    2.80
   3  -4  12    0.90    2.80
  -4   4 -12    5.30    3.20
   4  -4  12    3.60    3.20
   4  -4  12    7.10    3.20
  -5   4 -12    0.60    3.00
   5  -4  12   -1.80    3.60
   5  -4  12    0.50    3.10
   6   3 -12   19.10    5.10
  -6  -3  12   16.70    3.50
   5   3 -12   10.80    3.70
  -5  -3  12   17.00    3.20
   4   3 -12   32.30    4.70
  -4  -3  12   24.60    3.40
  -4  -3  12   28.10    3.60
   3   3 -12   13.30    3.00
  -3  -3  12   12.30    2.90
   2   3 -12    3.20    2.90
   2   3 -12    8.40    2.60
  -2  -3  12    5.60    2.40
   1   3 -12    0.00    2.10
   1   3 -12   -1.00    2.00
  -1  -3  12    1.70    2.20
   0   3 -12   -0.30    1.70
  -1   3 -12    6.40    2.60
   1  -3  12    6.10    2.70
  -2   3 -12   12.20    3.00
   2  -3  12   16.10    2.90
   2  -3  12   12.50    3.20
  -3   3 -12    0.10    2.50
   3  -3  12    4.70    2.90
   3  -3  12    7.90    3.20
  -4   3 -12    2.90    3.00
   4  -3  12    2.50    3.00
   4  -3  12    1.20    3.10
  -5   3 -12   -2.70    3.10
   5  -3  12    2.50    3.50
   6   2 -12   12.50    4.50
  -6  -2  12   12.80    3.20
   5   2 -12   18.50    4.30
  -5  -2  12   10.10    2.80
   4   2 -12   95.59    7.20
  -4  -2  12   86.89    5.80
  -4  -2  12   91.39    5.70
   3   2 -12    4.00    2.30
  -3  -2  12    5.90    2.40
   2   2 -12  236.78   10.40
   2   2 -12  248.68   11.00
  -2  -2  12  240.68   10.20
   1   2 -12    2.80    2.20
   1   2 -12    3.00    2.10
  -1  -2  12    0.80    2.00
   0   2 -12  167.38    8.10
   0  -2  12  173.68    8.20
  -1   2 -12   14.10    3.10
   1  -2  12   16.20    3.10
   1  -2  12   16.50    2.70
  -2   2 -12   29.60    3.60
   2  -2  12   35.80    4.40
   2  -2  12   38.30    3.90
  -3   2 -12   12.70    3.60
  -3   2 -12   13.60    3.30
   3  -2  12   15.60    3.40
  -4   2 -12    1.30    2.80
  -4   2 -12    1.70    3.30
   4  -2  12   -1.60    2.80
  -5   2 -12    5.30    4.00
  -5   2 -12    2.90    3.50
   5  -2  12    3.00    3.80
   6   1 -12    4.10    3.90
  -6  -1  12    4.80    2.70
   5   1 -12    1.40    3.20
  -5  -1  12    5.20    2.80
   4   1 -12   -4.70    2.50
  -4  -1  12   -1.00    2.20
   3   1 -12    1.40    2.10
   3   1 -12    1.30    2.60
  -3  -1  12   -0.90    1.80
   2   1 -12   -0.40    2.00
   2   1 -12    0.90    2.40
  -2  -1  12    5.40    2.20
   1   1 -12   15.60    2.90
   1   1 -12   12.90    2.80
  -1  -1  12   17.60    3.10
   0   1 -12   60.49    4.90
   0  -1  12   57.09    4.30
   0  -1  12   53.89    4.90
  -1   1 -12    7.70    2.70
   1  -1  12    9.80    2.40
  -2   1 -12  161.88    7.70
  -2   1 -12  143.99    8.30
   2  -1  12  144.29    7.40
  -3   1 -12    1.60    2.60
  -3   1 -12   -0.10    2.90
   3  -1  12    3.30    2.60
  -4   1 -12  114.39    8.10
  -4   1 -12  105.39    8.40
   4  -1  12  112.59    7.60
  -5   1 -12    1.90    4.00
  -5   1 -12   -1.20    3.10
   5  -1  12   -2.40    3.20
   6   0 -12   16.50    4.70
  -6   0  12   18.80    3.80
   5   0 -12    1.70    3.30
  -5   0  12    1.70    2.50
   4   0 -12   57.89    6.00
  -4   0  12   47.10    4.80
   3   0 -12    2.20    2.70
  -3   0  12   -1.00    2.00
  -3   0  12   -1.10    2.20
   2   0 -12   59.99    5.40
   2   0 -12   46.10    4.50
  -2   0  12   52.29    4.40
   1   0 -12    9.80    2.60
  -1   0  12    5.60    2.20
   0   0 -12   20.10    3.20
   0   0  12   13.70    2.80
   0   0  12   15.30    2.60
  -1   0 -12    2.70    2.80
  -1   0 -12    1.10    2.30
   1   0  12    2.20    2.10
  -2   0 -12    2.70    2.90
  -2   0 -12    4.20    2.50
   2   0  12    4.30    2.40
  -3   0 -12    0.40    2.30
  -3   0 -12    0.20    3.00
   3   0  12    0.50    2.50
  -4   0 -12    5.90    3.00
  -4   0 -12    9.60    4.00
   4   0  12    6.30    3.20
   6  -1 -12   -0.30    3.70
  -6   1  12   -0.80    3.00
   5  -1 -12    2.40    3.20
  -5   1  12   -0.70    2.40
   4  -1 -12    1.10    3.10
  -4   1  12    0.70    2.50
   3  -1 -12    5.60    3.10
  -3   1  12    1.70    2.40
   2  -1 -12    0.20    2.10
   2  -1 -12    4.00    2.60
  -2   1  12    0.80    1.90
   1  -1 -12    1.70    2.30
   1  -1 -12   -0.30    2.10
  -1   1  12   -0.50    1.90
   0  -1 -12    0.80    2.70
   0  -1 -12   -1.90    1.80
   0  -1 -12    2.20    2.40
   0   1  12    4.10    2.40
  -1  -1 -12   -0.80    2.80
  -1  -1 -12   -0.80    2.20
   1   1  12   -0.40    2.20
  -2  -1 -12    0.80    2.40
  -2  -1 -12   -1.00    3.00
   2   1  12    1.40    2.30
  -3  -1 -12    0.50    2.40
  -3  -1 -12    3.50    3.50
   3   1  12    9.30    3.10
  -4  -1 -12   -0.70    2.80
  -4  -1 -12    4.30    4.00
   4   1  12   -0.10    2.90
   5  -2 -12    2.10    3.70
  -5   2  12    1.80    2.80
   4  -2 -12    3.40    3.20
  -4   2  12    1.30    2.60
   3  -2 -12    2.60    2.90
  -3   2  12    4.20    2.60
   2  -2 -12    1.90    2.00
   2  -2 -12    2.60    2.80
  -2   2  12    1.50    3.20
  -2   2  12    3.10    2.50
   1  -2 -12    0.20    1.80
   1  -2 -12    1.20    2.40
   1  -2 -12   -1.60    2.10
   0  -2 -12    9.10    2.80
   0  -2 -12   10.30    3.10
   0  -2 -12    0.30    2.10
   0   2  12   14.70    3.00
  -1  -2 -12    4.70    3.30
  -1  -2 -12   -0.90    2.20
   1   2  12    4.90    2.70
  -2  -2 -12    0.30    2.40
  -2  -2 -12    3.20    3.50
   2   2  12    7.10    2.80
  -3  -2 -12    1.00    3.40
   3   2  12    2.90    2.80
   5  -3 -12    3.20    3.60
  -5   3  12    1.00    3.10
   4  -3 -12   -0.20    3.40
  -4   3  12    0.80    2.70
   3  -3 -12    5.50    3.60
   3  -3 -12    1.10    2.40
  -3   3  12    3.20    2.60
   2  -3 -12    1.00    2.20
   2  -3 -12    2.10    3.00
  -2   3  12    3.70    2.60
   1  -3 -12    3.30    2.40
   1  -3 -12    0.80    2.70
   1  -3 -12   -0.20    2.60
   0  -3 -12    0.20    2.90
   0  -3 -12    0.40    2.30
   0   3  12    0.50    2.60
  -1  -3 -12    3.50    3.60
   1   3  12   -1.00    2.50
  -2  -3 -12    1.80    3.40
   2   3  12   -3.70    2.50
  -3  -3 -12    3.30    3.80
   3   3  12   -1.10    2.90
   4  -4 -12    0.80    3.90
  -4   4  12    0.70    2.90
   3  -4 -12   -2.60    2.50
   3  -4 -12    0.60    3.60
  -3   4  12    1.10    2.60
   2  -4 -12    5.70    3.50
   2  -4 -12    2.70    2.80
   1  -4 -12   -4.90    3.20
   1  -4 -12   -0.70    2.60
  -1   4  12   -0.20    2.60
   0  -4 -12    6.40    3.70
  -1  -4 -12    0.90    3.40
   1   4  12   -0.40    2.80
  -2  -4 -12   -2.40    3.50
   2   4  12    4.10    3.20
   2  -5 -12   -0.90    3.10
  -2   5  12   -1.00    2.80
   1  -5 -12    7.50    3.30
  -1   5  12   -0.10    2.90
   0  -5 -12   -2.00    3.30
   2  10 -13   37.30    5.60
  -2 -10  13   28.00    5.10
   1  10 -13   -1.70    3.20
   1  10 -13   -1.20    3.50
   0  10 -13   27.00    4.70
   0  10 -13   25.40    4.50
   0 -10  13   34.70    5.50
  -1  10 -13    6.10    3.80
   1 -10  13   -4.20    3.60
  -2  10 -13   11.10    3.90
   2 -10  13   10.50    4.80
   3   9 -13    7.10    3.90
   3   9 -13    2.30    3.50
  -3  -9  13    4.40    3.50
   2   9 -13   -7.20    3.00
   2   9 -13   -0.70    3.10
  -2  -9  13    1.40    3.30
   1   9 -13    4.20    3.60
   1   9 -13    3.40    3.20
  -1  -9  13    3.90    3.30
   0   9 -13    0.00    2.90
   0   9 -13   -0.90    3.30
   0  -9  13    3.60    3.50
  -1   9 -13    1.60    3.30
   1  -9  13    3.30    3.60
  -2   9 -13    3.00    3.30
   2  -9  13    2.60    3.90
  -3   9 -13    1.30    3.60
   3  -9  13    5.20    4.50
   4   8 -13    2.30    3.50
  -4  -8  13   -2.20    2.40
  -4  -8  13   -2.20    2.70
   3   8 -13   -0.10    3.00
   3   8 -13   -2.20    3.10
  -3  -8  13   -0.30    2.90
   2   8 -13    3.40    3.10
   2   8 -13   -1.60    3.10
  -2  -8  13    1.80    3.00
   1   8 -13   -0.10    3.20
   1   8 -13   -2.80    2.60
  -1  -8  13    3.80    3.30
   0   8 -13   -1.70    2.60
   0   8 -13   -0.30    3.00
   0  -8  13    1.50    3.00
  -1   8 -13    6.30    3.30
   1  -8  13   10.80    3.80
  -2   8 -13    3.70    3.30
   2  -8  13    0.70    3.00
  -3   8 -13    6.30    3.80
   3  -8  13    1.10    3.50
  -4   8 -13   -2.00    3.70
   4  -8  13    9.90    4.50
   5   7 -13   12.60    4.30
  -5  -7  13    5.70    2.90
  -5  -7  13    6.40    3.20
   4   7 -13    6.60    3.50
  -4  -7  13    5.00    3.00
  -4  -7  13    2.50    2.60
   3   7 -13    4.20    3.30
   3   7 -13    8.30    3.30
  -3  -7  13    2.60    2.90
   2   7 -13    0.50    3.00
   2   7 -13    0.60    2.90
  -2  -7  13   -0.30    2.80
   1   7 -13    1.20    2.90
   1   7 -13    0.20    2.60
  -1  -7  13    0.20    2.80
   0   7 -13   -0.90    2.20
   0   7 -13   -0.30    2.90
   0  -7  13   -1.10    2.60
  -1   7 -13   10.30    3.40
   1  -7  13    2.00    2.80
  -2   7 -13   -0.80    3.00
   2  -7  13   -0.70    3.10
  -3   7 -13   -4.60    3.00
   3  -7  13   -2.10    3.40
  -4   7 -13    2.40    3.70
   4  -7  13   -0.50    3.80
   5   6 -13    2.00    3.50
  -5  -6  13    4.50    2.90
  -5  -6  13    6.10    3.10
   4   6 -13    8.70    3.60
  -4  -6  13    6.00    3.00
  -4  -6  13    7.30    3.00
   3   6 -13   -2.00    2.90
   3   6 -13   -1.30    2.70
  -3  -6  13    4.00    2.80
   2   6 -13    5.80    3.30
   2   6 -13   14.30    3.80
  -2  -6  13    9.40    3.40
   1   6 -13    1.40    2.60
   1   6 -13   -2.60    2.60
  -1  -6  13    2.50    2.80
   0   6 -13    0.00    2.70
   0   6 -13   -0.70    2.30
   0  -6  13    2.60    2.80
  -1   6 -13   -2.50    2.60
   1  -6  13   -4.00    2.40
  -2   6 -13    5.30    3.10
   2  -6  13   -1.20    2.70
  -3   6 -13    2.20    3.30
   3  -6  13   -1.30    3.00
  -4   6 -13    8.10    3.80
   4  -6  13    5.50    3.70
   5   5 -13   11.50    4.30
  -5  -5  13    8.40    3.10
  -5  -5  13   14.20    3.20
   4   5 -13    4.50    3.20
  -4  -5  13    2.50    2.60
  -4  -5  13   -0.20    2.40
   3   5 -13   36.70    4.60
   3   5 -13   35.20    4.80
  -3  -5  13   32.40    4.40
   2   5 -13   -0.10    2.60
   2   5 -13    0.00    2.70
  -2  -5  13    3.90    2.70
   1   5 -13   26.10    3.90
   1   5 -13   21.90    3.90
  -1  -5  13   26.20    4.00
   0   5 -13   -3.70    2.40
   0   5 -13    0.10    2.00
   0  -5  13    4.10    2.70
  -1   5 -13    0.70    2.60
   1  -5  13    2.70    2.90
  -2   5 -13   -1.70    2.70
   2  -5  13    1.30    2.70
  -3   5 -13   -2.30    2.60
   3  -5  13    0.90    3.00
  -4   5 -13    5.30    3.30
   4  -5  13    0.70    3.20
   4  -5  13    5.50    3.80
   6   4 -13   22.80    4.90
  -6  -4  13   18.60    3.80
   5   4 -13   -5.10    2.90
  -5  -4  13    0.90    2.60
  -5  -4  13   -0.40    2.30
   4   4 -13   15.50    4.10
  -4  -4  13    9.20    2.80
  -4  -4  13   13.80    3.10
   3   4 -13    1.10    2.50
   3   4 -13    3.50    3.20
  -3  -4  13   -0.80    2.20
   2   4 -13    5.60    3.20
   2   4 -13    2.30    2.60
  -2  -4  13    1.60    2.40
   1   4 -13    2.30    2.50
   1   4 -13    2.90    2.60
  -1  -4  13   -0.70    2.40
   0   4 -13    3.40    2.60
   0   4 -13   -1.20    1.90
   0  -4  13    1.40    2.50
  -1   4 -13    2.40    2.50
   1  -4  13    2.00    2.60
  -2   4 -13    3.40    2.60
   2  -4  13    5.00    2.90
  -3   4 -13    0.20    2.80
   3  -4  13    3.00    3.10
   3  -4  13    3.10    3.00
  -4   4 -13   14.40    3.90
   4  -4  13   11.80    3.50
   4  -4  13   16.10    4.30
   6   3 -13   20.10    5.00
  -6  -3  13   14.70    3.50
   5   3 -13    2.00    3.40
  -5  -3  13    1.10    2.40
   4   3 -13   43.40    5.80
  -4  -3  13   45.80    4.70
  -4  -3  13   40.60    4.30
   3   3 -13   16.10    3.80
   3   3 -13   11.10    3.00
  -3  -3  13   16.80    3.40
   2   3 -13   58.09    5.50
   2   3 -13   62.79    5.80
  -2  -3  13   62.39    5.50
   1   3 -13   19.30    3.40
   1   3 -13   25.20    3.70
  -1  -3  13   21.20    3.60
   0   3 -13    8.20    2.80
   0   3 -13    1.10    2.00
   0  -3  13   13.90    3.00
  -1   3 -13    5.20    2.70
   1  -3  13    3.50    2.70
  -2   3 -13    2.10    2.40
   2  -3  13    0.70    2.80
  -3   3 -13    1.00    2.50
   3  -3  13    0.60    3.10
   3  -3  13   -0.70    2.70
  -4   3 -13   -1.10    3.00
   4  -3  13    3.30    3.40
   4  -3  13   -1.10    3.20
   6   2 -13   30.90    5.30
  -6  -2  13   28.20    4.20
   5   2 -13   -1.30    3.20
  -5  -2  13    0.40    2.40
   4   2 -13   21.80    4.60
  -4  -2  13   12.80    3.20
   3   2 -13    7.40    3.50
   3   2 -13    1.70    2.30
  -3  -2  13    3.80    2.30
   2   2 -13   -1.00    2.60
   2   2 -13    1.10    2.30
  -2  -2  13   -0.60    2.00
   1   2 -13    3.10    2.40
   1   2 -13    2.90    2.40
  -1  -2  13    1.50    2.10
   0   2 -13   30.60    3.90
   0  -2  13   24.90    3.80
  -1   2 -13   -2.00    2.40
   1  -2  13   -1.10    2.50
  -2   2 -13   12.70    3.30
   2  -2  13   17.20    3.30
   2  -2  13   14.10    3.50
  -3   2 -13    0.30    2.50
   3  -2  13    1.60    2.90
  -4   2 -13   -0.60    3.80
  -4   2 -13   -1.50    3.10
   4  -2  13   -0.80    3.10
   6   1 -13    1.60    3.70
  -6  -1  13    0.10    2.80
   5   1 -13   19.50    4.60
  -5  -1  13    9.20    3.10
   4   1 -13   15.80    4.30
  -4  -1  13   23.20    3.80
   3   1 -13   33.50    4.10
   3   1 -13   42.60    5.20
  -3  -1  13   31.30    3.80
   2   1 -13   54.39    5.10
   2   1 -13   68.89    5.50
  -2  -1  13   60.29    5.10
   1   1 -13   20.80    3.50
   1   1 -13   16.80    3.40
  -1  -1  13   23.00    3.50
   0   1 -13   41.30    4.40
   0  -1  13   40.00    4.50
  -1   1 -13    3.00    2.50
   1  -1  13    4.70    2.60
   1  -1  13    0.90    2.40
  -2   1 -13    2.80    3.00
  -2   1 -13    2.10    2.70
   2  -1  13    1.90    2.50
  -3   1 -13   -2.60    3.40
  -3   1 -13   -2.40    2.60
   3  -1  13   -2.10    2.50
  -4   1 -13    4.40    3.20
  -4   1 -13   -0.20    3.60
   4  -1  13    8.30    3.70
   5   0 -13   -0.40    3.30
  -5   0  13   -0.80    2.60
   4   0 -13    1.20    3.10
  -4   0  13    1.30    2.50
   3   0 -13    3.70    3.10
  -3   0  13    4.30    2.60
   2   0 -13    4.00    2.70
   2   0 -13    1.00    2.40
  -2   0  13    0.80    2.10
   1   0 -13   21.00    3.50
   1   0 -13   37.30    4.40
  -1   0  13   28.40    3.80
   0   0 -13    3.10    2.50
   0   0  13    2.90    2.40
  -1   0 -13   53.99    5.00
  -1   0 -13   55.99    5.50
   1   0  13   55.29    4.70
  -2   0 -13    0.80    3.10
  -2   0 -13    2.30    2.60
   2   0  13    5.90    2.60
  -3   0 -13   25.10    3.90
  -3   0 -13   20.80    4.40
   3   0  13   37.20    4.60
  -4   0 -13    0.90    2.80
  -4   0 -13    4.50    4.00
   4   0  13    5.20    3.30
   5  -1 -13    2.90    3.90
  -5   1  13    0.20    2.70
   4  -1 -13   -3.90    2.90
  -4   1  13    0.50    2.60
   3  -1 -13   -1.80    2.90
  -3   1  13   -0.90    2.30
   2  -1 -13   -0.60    2.60
   2  -1 -13   -3.00    2.20
  -2   1  13    0.00    2.00
   1  -1 -13    1.10    2.40
   1  -1 -13    0.80    2.60
  -1   1  13    0.40    2.20
   0  -1 -13    1.30    2.50
   0   1  13    1.30    2.40
  -1  -1 -13    2.30    3.30
  -1  -1 -13   -0.40    3.00
   1   1  13    3.00    2.40
  -2  -1 -13    1.30    3.40
  -2  -1 -13    2.20    2.70
   2   1  13    1.60    3.50
  -3  -1 -13   -1.70    3.20
  -3  -1 -13   -1.10    3.80
   3   1  13    2.00    2.90
   4  -2 -13    9.00    3.80
  -4   2  13    9.60    3.20
   3  -2 -13    4.20    3.20
  -3   2  13    1.80    2.80
   2  -2 -13   12.70    3.50
  -2   2  13   11.10    3.10
   1  -2 -13    0.30    2.50
   1  -2 -13    2.70    2.50
  -1   2  13    0.90    2.20
   0  -2 -13    0.40    2.80
   0  -2 -13    3.20    3.10
   0   2  13    6.40    2.90
  -1  -2 -13   -1.10    2.50
  -1  -2 -13   -2.70    3.30
   1   2  13    0.20    2.60
  -2  -2 -13    1.60    3.70
   2   2  13    0.90    2.70
  -3  -2 -13    4.00    4.00
   3   2  13    2.70    3.00
   4  -3 -13    0.20    3.50
  -4   3  13   -0.10    2.60
   3  -3 -13   -1.20    3.50
  -3   3  13    2.10    3.00
   2  -3 -13    0.10    3.20
   2  -3 -13   -2.90    3.20
  -2   3  13    1.40    2.60
   1  -3 -13   -1.40    2.20
   1  -3 -13   -0.60    2.90
   0  -3 -13   -1.10    3.10
   0   3  13    1.10    2.80
  -1  -3 -13   -1.90    3.60
   1   3  13    3.70    3.20
  -2  -3 -13    2.90    4.00
   2   3  13    3.70    3.00
   2  -4 -13    0.30    2.80
   2  -4 -13    9.90    4.20
   1  -4 -13    1.10    2.80
  -1   4  13    4.60    3.20
   0  -4 -13   -1.80    3.20
   0   4  13    4.10    3.20
   1  10 -14   -3.30    3.60
   1  10 -14    3.30    3.50
  -1 -10  14    0.60    3.70
   0  10 -14    0.40    3.50
   0  10 -14    7.10    4.00
   0 -10  14    9.40    4.60
  -1  10 -14   -1.20    3.40
   1 -10  14   -3.10    4.00
   3   9 -14    9.90    4.10
   3   9 -14    2.40    3.70
  -3  -9  14    5.70    3.60
   2   9 -14    9.40    4.10
   2   9 -14    8.70    4.10
  -2  -9  14   12.70    4.50
   1   9 -14   12.20    4.10
   1   9 -14    3.00    3.40
  -1  -9  14    9.30    4.00
   0   9 -14   25.00    4.50
   0   9 -14    1.70    3.20
   0  -9  14   14.20    4.70
  -1   9 -14   12.30    4.20
   1  -9  14    8.60    4.00
  -2   9 -14   25.00    4.70
   2  -9  14   12.00    4.60
   4   8 -14    2.00    4.00
  -4  -8  14    0.90    3.00
  -4  -8  14   -0.20    3.30
   3   8 -14    1.70    3.40
   3   8 -14    1.10    3.40
  -3  -8  14   -0.30    3.20
   2   8 -14    5.70    3.30
   2   8 -14    3.10    3.60
  -2  -8  14    4.70    3.40
   1   8 -14    4.00    3.30
   1   8 -14   10.20    3.70
  -1  -8  14    6.60    3.90
   0   8 -14   -3.50    2.70
   0   8 -14   12.80    3.90
   0  -8  14   10.50    3.90
  -1   8 -14   21.50    4.50
   1  -8  14   24.20    4.80
  -2   8 -14   11.40    3.90
   2  -8  14   19.90    4.70
  -3   8 -14   22.30    5.00
   3  -8  14   21.30    5.00
   4   7 -14   -3.80    3.10
  -4  -7  14    0.20    3.00
  -4  -7  14    4.60    3.10
   3   7 -14    7.90    3.90
   3   7 -14    7.20    3.70
  -3  -7  14   10.20    3.70
   2   7 -14    3.60    3.50
   2   7 -14    0.30    3.10
  -2  -7  14   -2.00    2.90
   1   7 -14    7.60    3.50
   1   7 -14    3.30    3.10
  -1  -7  14    4.30    3.20
   0   7 -14   -0.70    3.10
   0   7 -14    0.30    2.70
   0  -7  14   -2.40    2.70
  -1   7 -14    2.20    3.30
   1  -7  14    1.90    3.10
  -2   7 -14   -1.40    3.10
   2  -7  14    0.70    3.60
  -3   7 -14    5.50    3.90
   3  -7  14    2.60    3.80
   5   6 -14    5.90    4.00
  -5  -6  14    0.70    2.80
  -5  -6  14    5.00    3.10
   4   6 -14    2.60    3.60
  -4  -6  14    3.90    3.00
  -4  -6  14    2.20    3.00
   3   6 -14    0.20    2.90
   3   6 -14   -0.50    3.00
  -3  -6  14    2.00    3.00
   2   6 -14   23.40    4.40
   2   6 -14   16.30    4.00
  -2  -6  14    8.30    3.30
   1   6 -14    1.90    3.10
   1   6 -14    8.10    3.10
  -1  -6  14    1.30    2.90
   0   6 -14    8.80    3.50
   0  -6  14   14.50    3.70
  -1   6 -14    1.80    3.20
   1  -6  14    1.70    2.80
  -2   6 -14    4.30    3.10
   2  -6  14    5.20    3.40
  -3   6 -14    0.80    3.50
   3  -6  14   -4.40    3.10
  -4   6 -14   -1.20    3.30
   4  -6  14    0.40    3.90
   5   5 -14    1.70    3.80
  -5  -5  14    4.90    2.90
  -5  -5  14    4.40    3.00
   4   5 -14    8.40    3.80
  -4  -5  14    6.10    3.00
  -4  -5  14    3.50    2.80
   3   5 -14    1.50    3.30
   3   5 -14    4.20    3.10
  -3  -5  14    3.50    2.90
   2   5 -14   13.40    3.80
   2   5 -14   14.80    3.70
  -2  -5  14    6.50    3.00
   1   5 -14   -1.60    2.60
   1   5 -14   -0.10    2.80
  -1  -5  14    0.20    2.60
   0   5 -14   10.70    3.30
   0  -5  14   14.40    3.90
  -1   5 -14   -0.20    2.80
   1  -5  14    0.30    2.80
  -2   5 -14    9.50    3.20
   2  -5  14   12.90    3.60
  -3   5 -14    5.40    3.30
   3  -5  14    9.20    3.80
  -4   5 -14    1.70    3.40
   4  -5  14    2.20    4.00
   5   4 -14    0.60    3.80
  -5  -4  14    2.30    2.80
   4   4 -14   -1.10    3.10
  -4  -4  14    0.20    2.50
  -4  -4  14    0.00    2.40
   3   4 -14   -0.40    3.00
   3   4 -14    0.60    2.70
  -3  -4  14    2.50    2.60
   2   4 -14    1.90    2.90
   2   4 -14    3.30    2.80
  -2  -4  14   -0.10    2.30
   1   4 -14   -0.20    2.30
   1   4 -14   -1.40    2.50
  -1  -4  14    0.50    2.50
   0   4 -14    4.90    2.90
   0  -4  14    2.10    2.70
  -1   4 -14    1.30    2.70
   1  -4  14    3.50    2.80
  -2   4 -14    2.50    2.90
   2  -4  14    1.70    3.00
  -3   4 -14   -2.30    2.90
   3  -4  14   -0.50    3.10
  -4   4 -14   -2.50    3.20
   4  -4  14    2.20    3.80
   5   3 -14    3.80    3.90
  -5  -3  14    3.40    2.80
   4   3 -14   -4.40    3.10
  -4  -3  14   -1.90    2.60
  -4  -3  14    2.80    2.50
   3   3 -14    1.30    2.70
   3   3 -14   -0.10    3.00
  -3  -3  14    0.10    2.40
   2   3 -14   -1.20    2.40
   2   3 -14    0.40    2.70
  -2  -3  14   -2.60    2.20
   1   3 -14    1.10    2.40
   1   3 -14    0.90    2.40
  -1  -3  14    0.20    2.40
   0   3 -14    0.50    2.60
   0  -3  14    3.40    2.60
  -1   3 -14    3.90    2.80
   1  -3  14    0.30    2.70
  -2   3 -14    0.10    2.60
   2  -3  14    0.00    3.00
  -3   3 -14    1.80    2.80
   3  -3  14    4.60    3.50
  -4   3 -14    1.30    3.50
   4  -3  14    0.30    3.80
   4  -3  14    3.70    3.70
   5   2 -14    3.70    3.90
  -5  -2  14    3.80    2.90
   4   2 -14    7.20    3.80
  -4  -2  14    9.20    3.10
   3   2 -14    0.80    3.00
   3   2 -14    3.80    2.50
  -3  -2  14    3.00    2.30
   2   2 -14    3.90    2.60
   2   2 -14    3.20    2.80
  -2  -2  14    1.10    2.40
   1   2 -14   -0.60    2.40
   1   2 -14    0.10    2.20
  -1  -2  14    1.30    2.30
   0   2 -14    2.70    2.70
   0  -2  14    2.00    2.50
  -1   2 -14    1.50    2.70
   1  -2  14   -1.90    2.60
  -2   2 -14    3.80    3.10
   2  -2  14    1.10    3.10
  -3   2 -14    0.50    2.80
   3  -2  14   -4.00    3.00
   3  -2  14   -0.40    3.20
  -4   2 -14    1.50    3.30
   4  -2  14   -2.80    3.30
   5   1 -14    3.90    4.20
  -5  -1  14    5.80    3.10
   4   1 -14    3.90    3.70
  -4  -1  14    0.00    2.70
   3   1 -14    6.30    3.60
  -3  -1  14   -0.90    2.20
   2   1 -14   -0.90    2.50
   2   1 -14    1.90    2.50
  -2  -1  14   -0.50    2.20
   1   1 -14    1.70    2.70
   1   1 -14    1.80    2.40
  -1  -1  14    1.90    2.30
   0   1 -14    2.90    2.80
   0  -1  14    2.30    2.50
  -1   1 -14    0.10    2.70
   1  -1  14   -2.50    2.50
  -2   1 -14    3.50    3.10
  -3   1 -14   -0.50    3.90
  -3   1 -14   -0.20    3.00
   3  -1  14   -0.90    2.90
   5   0 -14   28.80    5.70
  -5   0  14   19.70    4.20
   4   0 -14   -1.30    3.20
  -4   0  14    1.80    2.70
   3   0 -14   31.20    4.90
  -3   0  14   29.90    4.20
   2   0 -14    5.00    3.00
   2   0 -14    2.60    2.60
  -2   0  14   -0.10    2.10
   1   0 -14    5.60    3.10
   1   0 -14    1.10    2.40
  -1   0  14    8.70    2.70
   0   0 -14   -3.10    2.70
   0   0  14    4.10    2.80
  -1   0 -14    2.10    2.90
  -2   0 -14    0.40    2.80
  -2   0 -14   -0.80    3.50
   2   0  14    0.70    2.80
  -3   0 -14   -0.10    3.70
  -3   0 -14   -0.40    3.10
   3   0  14    2.30    3.20
   4  -1 -14    4.60    3.70
  -4   1  14    4.50    3.00
   3  -1 -14   -1.90    3.20
  -3   1  14   -3.30    2.50
   2  -1 -14    1.90    2.90
   2  -1 -14    1.70    2.80
   1  -1 -14   -2.30    2.40
   1  -1 -14    3.90    3.00
  -1   1  14   -1.90    2.30
   0  -1 -14    0.00    2.80
   0   1  14    0.00    2.40
  -1  -1 -14    1.60    3.00
  -1  -1 -14    0.80    4.00
   1   1  14   -1.50    2.90
  -2  -1 -14   -2.40    3.50
  -2  -1 -14    1.00    2.90
   2   1  14    1.70    2.90
   3  -2 -14    1.30    3.60
  -3   2  14    1.80    2.90
   2  -2 -14   12.60    3.90
  -2   2  14    9.80    3.20
   1  -2 -14    0.50    3.00
   1  -2 -14   -2.20    2.60
  -1   2  14   -0.60    2.50
   0  -2 -14    1.20    2.90
   0  -2 -14    7.20    3.80
  -1  -2 -14    5.30    5.30
  -1  -2 -14   -1.40    3.80
   1   2  14   -1.90    2.80
   2  -3 -14   10.10    4.10
  -2   3  14   20.80    4.10
   0  -3 -14   24.90    5.10
   0   3  14   23.10    4.70
   1   9 -15    1.90    3.40
   1   9 -15   15.50    4.50
  -1  -9  15   14.10    4.60
   0   9 -15   -0.90    3.80
   0  -9  15   -3.80    3.70
  -1   9 -15    6.10    4.00
   1  -9  15   10.60    4.60
   3   8 -15    5.40    4.30
   3   8 -15   10.50    4.00
  -3  -8  15    8.90    4.10
   2   8 -15    3.80    4.10
   2   8 -15    4.90    3.90
  -2  -8  15   -1.30    3.40
   1   8 -15    3.70    3.50
   1   8 -15    5.70    3.90
  -1  -8  15    9.60    4.20
   0   8 -15    4.60    3.80
   0  -8  15    2.80    3.80
  -1   8 -15    9.40    4.00
   1  -8  15    6.90    4.10
  -2   8 -15    1.00    3.70
   2  -8  15   -1.90    3.80
   3   7 -15    4.40    3.60
   3   7 -15   -4.20    3.40
  -3  -7  15   -2.00    2.90
   2   7 -15    0.60    3.50
   2   7 -15    0.50    3.40
  -2  -7  15    2.70    3.40
   1   7 -15   -0.40    3.00
   1   7 -15   -0.80    3.20
  -1  -7  15    4.00    3.40
   0   7 -15    2.40    3.50
   0  -7  15    1.30    3.20
  -1   7 -15   -2.40    3.20
   1  -7  15    0.90    3.30
  -2   7 -15    4.10    3.60
   2  -7  15    4.00    4.20
   4   6 -15    1.90    3.90
  -4  -6  15   -1.60    2.70
  -4  -6  15    0.40    2.80
   3   6 -15    0.40    3.70
   3   6 -15   -0.10    3.40
  -3  -6  15   -0.70    2.90
   2   6 -15   -4.10    3.00
   2   6 -15    0.20    3.40
  -2  -6  15   -2.60    2.90
   1   6 -15    0.90    2.80
   1   6 -15    7.20    3.50
  -1  -6  15   -0.60    2.90
   0   6 -15   -0.80    3.10
   0  -6  15   -1.50    2.90
  -1   6 -15   25.70    4.80
   1  -6  15   13.70    4.00
  -2   6 -15   -0.90    3.20
   2  -6  15   -1.40    3.50
  -3   6 -15    9.80    3.90
   3  -6  15   15.90    4.60
   4   5 -15    3.30    3.90
  -4  -5  15   -0.60    2.70
  -4  -5  15    1.10    2.80
   3   5 -15    3.20    3.70
   3   5 -15    6.30    3.50
  -3  -5  15    0.30    2.90
   2   5 -15    2.90    3.30
   2   5 -15    3.40    3.40
  -2  -5  15    2.10    2.90
   1   5 -15    4.20    3.20
   1   5 -15    0.20    2.70
  -1  -5  15    1.30    2.80
   0   5 -15   -3.10    2.90
   0  -5  15   -1.50    2.80
  -1   5 -15    6.30    3.40
   1  -5  15   13.50    3.90
  -2   5 -15    3.20    3.30
   2  -5  15    3.20    3.40
  -3   5 -15    4.40    3.50
   3  -5  15    0.10    3.80
   4   4 -15    1.90    3.80
  -4  -4  15    1.00    2.80
  -4  -4  15   -2.20    2.50
   3   4 -15    2.20    3.30
   3   4 -15    3.20    3.70
  -3  -4  15    3.10    2.80
   2   4 -15   -0.40    3.10
   2   4 -15    0.00    3.00
  -2  -4  15   -1.10    2.50
   1   4 -15   -1.70    2.50
   1   4 -15    0.70    2.90
  -1  -4  15    1.70    2.70
   0   4 -15   -0.20    2.80
   0  -4  15    1.40    2.90
  -1   4 -15    7.40    3.30
   1  -4  15    8.10    3.50
  -2   4 -15    4.80    3.20
   2  -4  15    1.50    3.40
  -3   4 -15   10.20    3.70
   3  -4  15   15.20    4.30
   4   3 -15    1.70    3.70
  -4  -3  15    0.70    2.80
   3   3 -15   -1.70    2.70
  -3  -3  15    2.80    2.80
   2   3 -15   -1.30    2.80
   2   3 -15    1.30    2.90
  -2  -3  15    1.00    2.60
   1   3 -15    0.50    2.40
   1   3 -15    7.00    3.10
  -1  -3  15    9.90    3.30
   0   3 -15   -1.50    2.80
   0  -3  15   -0.50    2.50
  -1   3 -15    9.20    3.30
   1  -3  15    8.40    3.50
  -2   3 -15   -0.10    3.10
   2  -3  15    3.90    3.50
  -3   3 -15    5.40    3.40
   3  -3  15    3.50    4.10
   4   2 -15    0.70    3.50
  -4  -2  15    3.50    2.90
   3   2 -15   -0.80    3.10
   3   2 -15   -3.40    2.50
  -3  -2  15    1.20    2.50
   2   2 -15    1.50    3.20
   2   2 -15   -0.10    2.70
  -2  -2  15    4.50    2.70
   1   2 -15    1.60    2.70
   1   2 -15    1.60    2.90
  -1  -2  15    1.70    2.50
   0   2 -15    0.40    3.00
   0  -2  15    2.00    2.70
  -1   2 -15    4.80    3.20
   1  -2  15    5.70    3.40
  -2   2 -15    4.10    3.50
   2  -2  15    1.10    3.50
  -3   2 -15    4.20    3.60
   3  -2  15   13.60    4.30
   4   1 -15    2.20    3.80
  -4  -1  15   -1.90    2.90
   3   1 -15    5.30    3.40
   2   1 -15    0.70    2.90
   2   1 -15    1.60    3.10
  -2  -1  15   -1.10    2.20
   1   1 -15    3.30    3.10
  -1  -1  15    2.20    2.50
   0   1 -15   -1.70    2.70
   0  -1  15   -0.30    2.50
  -1   1 -15   -1.10    3.10
   1  -1  15    2.00    3.10
  -2   1 -15    2.30    3.40
   2  -1  15    5.80    3.70
   3   0 -15    1.20    3.50
  -3   0  15    2.80    3.00
   2   0 -15    3.10    3.00
   2   0 -15    4.30    3.30
  -2   0  15    2.50    2.50
   1   0 -15   -2.90    3.10
  -1   0  15    0.50    2.40
   0   0 -15   10.00    3.60
   0   0  15   14.50    3.70
  -1   0 -15   -0.30    3.00
   1   0  15   -0.10    2.80
  -2   0 -15   15.90    4.00
   3  -1 -15   10.20    4.20
  -3   1  15   10.80    3.80
   2  -1 -15   -1.80    3.00
   1  -1 -15   15.30    3.80
  -1   1  15    7.30    2.90
   0  -1 -15    9.70    3.70
   0   1  15    4.10    3.00
  -1  -1 -15    2.10    3.10
   1   8 -16   10.60    4.30
  -1  -8  16   20.90    5.20
   0   8 -16   -3.40    3.70
   0  -8  16   -0.70    3.60
   2   7 -16    0.90    3.50
   2   7 -16   -2.50    3.70
  -2  -7  16   -0.40    3.40
   1   7 -16    4.50    3.70
  -1  -7  16    6.90    4.00
   0   7 -16    4.20    3.80
   0  -7  16    2.00    3.40
  -1   7 -16    2.60    4.10
   1  -7  16    6.90    4.40
   3   6 -16   18.30    4.70
   3   6 -16   31.60    5.90
  -3  -6  16   25.60    4.90
   2   6 -16    3.20    3.90
   2   6 -16    3.00    3.90
  -2  -6  16   -0.40    3.00
   1   6 -16   37.20    5.30
  -1  -6  16   33.20    5.10
   0   6 -16   -0.70    3.50
   0  -6  16    4.40    3.50
  -1   6 -16   21.00    4.50
   1  -6  16   13.60    4.50
  -2   6 -16   -4.10    3.50
   2  -6  16    0.20    3.60
   3   5 -16   11.50    4.30
   3   5 -16    7.00    3.90
  -3  -5  16   17.50    4.20
   2   5 -16    3.90    3.70
   2   5 -16    7.10    3.70
  -2  -5  16    3.80    3.10
   1   5 -16    2.70    3.40
  -1  -5  16    1.20    2.90
   0   5 -16    5.00    3.80
   0  -5  16    3.60    3.30
  -1   5 -16    0.50    3.30
   1  -5  16    1.10    3.40
  -2   5 -16    0.60    3.70
   2  -5  16    6.90    4.20
   3   4 -16   22.30    5.10
   3   4 -16   23.00    4.40
  -3  -4  16   23.60    4.40
   2   4 -16   11.60    4.40
   2   4 -16    4.10    3.40
  -2  -4  16   14.50    3.80
   1   4 -16   59.19    6.10
  -1  -4  16   55.19    6.10
   0   4 -16   13.90    3.80
   0  -4  16   14.30    3.90
  -1   4 -16   33.80    5.00
   1  -4  16   40.40    5.30
  -2   4 -16   12.00    4.10
   2  -4  16   23.90    4.90
   3   3 -16   -0.20    3.60
   3   3 -16    2.00    3.00
  -3  -3  16    0.60    2.60
   2   3 -16   -1.10    3.10
   2   3 -16    6.30    3.60
  -2  -3  16   10.30    3.20
   1   3 -16    9.00    3.60
  -1  -3  16    3.80    2.90
   0   3 -16    7.00    3.30
   0  -3  16    8.80    3.30
  -1   3 -16   19.30    4.30
   1  -3  16   12.30    3.80
  -2   3 -16    7.50    4.00
   2  -3  16    9.10    4.10
   3   2 -16    2.70    3.30
   3   2 -16   -1.60    3.70
   2   2 -16    7.00    3.40
   2   2 -16   -1.50    2.90
  -2  -2  16    2.20    2.80
   1   2 -16    3.30    3.40
  -1  -2  16    2.80    2.80
   0   2 -16   -1.00    3.00
   0  -2  16   -2.80    2.70
  -1   2 -16   -1.20    3.10
   1  -2  16    0.00    3.00
   3   1 -16    3.20    4.00
  -3  -1  16    3.60    3.10
   2   1 -16   31.90    4.90
  -2  -1  16   28.20    4.40
   1   1 -16    0.70    3.30
  -1  -1  16    1.50    2.70
   0   1 -16   36.90    5.30
   0  -1  16   30.00    4.70
  -1   1 -16    0.50    3.40
   1  -1  16    2.80    3.40
   1   0 -16    5.70    3.60
  -1   0  16    0.00    2.50
   1   5 -17    6.40    3.90
  -1  -5  17    4.40    3.30
   0   5 -17    0.20    3.60
   0  -5  17    2.00    3.40
   1   4 -17   24.40    4.60
  -1  -4  17   21.60    4.40
   0   4 -17    1.10    3.50
   0  -4  17    3.70    3.30
   1   3 -17   10.50    3.90
  -1  -3  17    7.00    3.50
   0   0   0    0.00    0.00

_computing_structure_solution     'SHELXT 2018/2 (Sheldrick, 2018)'
;
_shelx_hkl_checksum              11584
loop_
_space_group_symop_operation_xyz
'x, y, z'
'-x, -y, -z'
loop_
_atom_site_label
_atom_site_type_symbol
_atom_site_fract_x
_atom_site_fract_y
_atom_site_fract_z
_atom_site_U_iso_or_equiv
_atom_site_adp_type
_atom_site_occupancy
_atom_site_site_symmetry_order
_atom_site_calc_flag
_atom_site_refinement_flags_posn
_atom_site_refinement_flags_adp
_atom_site_refinement_flags_occupancy
_atom_site_disorder_assembly
_atom_site_disorder_group
O1 O 0.7411(3) 0.6788(2) 0.42643(15) 0.0311(5) Uani 1 1 d . . . . .
N1 N 0.7632(3) 0.5200(3) 1.00272(18) 0.0287(6) Uani 1 1 d . . . . .
C1 C 0.7469(4) 0.5446(3) 1.1062(2) 0.0312(7) Uani 1 1 d . . . . .
H1 H 0.772854 0.466613 1.132130 0.037 Uiso 1 1 calc R U . . .
O2 O 0.7284(3) 0.3981(2) 0.31432(14) 0.0305(5) Uani 1 1 d . . . . .
N2 N 0.8231(4) 0.2167(3) 0.88451(19) 0.0290(6) Uani 1 1 d D . . . .
C2 C 0.6951(5) 0.6756(4) 1.1777(2) 0.0334(7) Uani 1 1 d . . . . .
H2 H 0.685494 0.687062 1.250539 0.040 Uiso 1 1 calc R U . . .
N3 N 0.8192(4) -0.0086(3) 0.75970(19) 0.0338(6) Uani 1 1 d . . . . .
C3 C 0.6576(4) 0.7890(3) 1.1411(2) 0.0328(7) Uani 1 1 d . . . . .
H3 H 0.621901 0.880844 1.188535 0.039 Uiso 1 1 calc R U . . .
C4 C 0.6723(4) 0.7680(3) 1.0337(2) 0.0298(7) Uani 1 1 d . . . . .
H4 H 0.646667 0.845126 1.006744 0.036 Uiso 1 1 calc R U . . .
C5 C 0.7252(4) 0.6325(3) 0.9667(2) 0.0281(7) Uani 1 1 d . . . . .
C6 C 0.7440(4) 0.6032(3) 0.8551(2) 0.0281(7) Uani 1 1 d . . . . .
C7 C 0.7568(4) 0.5763(3) 0.7615(2) 0.0282(7) Uani 1 1 d . . . . .
C8 C 0.7600(4) 0.5309(3) 0.6473(2) 0.0263(7) Uani 1 1 d . . . . .
C9 C 0.7532(4) 0.6340(3) 0.5948(2) 0.0275(7) Uani 1 1 d . . . . .
H9 H 0.753235 0.736664 0.635373 0.033 Uiso 1 1 calc R U . . .
C10 C 0.7464(4) 0.5866(3) 0.4834(2) 0.0269(7) Uani 1 1 d . . . . .
C11 C 0.7424(4) 0.4348(3) 0.4234(2) 0.0276(7) Uani 1 1 d . . . . .
C12 C 0.7549(4) 0.3327(3) 0.4746(2) 0.0265(6) Uani 1 1 d . . . . .
H12 H 0.758256 0.230561 0.433532 0.032 Uiso 1 1 calc R U . . .
C13 C 0.7625(4) 0.3794(3) 0.5870(2) 0.0259(6) Uani 1 1 d . . . . .
C14 C 0.7773(4) 0.2771(3) 0.6426(2) 0.0293(7) Uani 1 1 d . . . . .
C15 C 0.7914(4) 0.2046(3) 0.6993(2) 0.0303(7) Uani 1 1 d . . . . .
C16 C 0.8124(4) 0.1356(3) 0.7777(2) 0.0290(7) Uani 1 1 d . . . . .
C17 C 0.8388(4) 0.1193(3) 0.9369(2) 0.0318(7) Uani 1 1 d . . . . .
H17 H 0.849422 0.142510 1.012325 0.038 Uiso 1 1 calc R U . . .
C18 C 0.8364(5) -0.0164(3) 0.8614(2) 0.0344(7) Uani 1 1 d . . . . .
H18 H 0.845343 -0.105499 0.875975 0.041 Uiso 1 1 calc R U . . .
C19 C 0.7503(5) 0.8334(3) 0.4853(2) 0.0356(8) Uani 1 1 d . . . . .
H19A H 0.631273 0.855735 0.523701 0.053 Uiso 1 1 calc R U . . .
H19B H 0.754170 0.887816 0.435775 0.053 Uiso 1 1 calc R U . . .
H19C H 0.871854 0.863233 0.536994 0.053 Uiso 1 1 calc R U . . .
C20 C 0.7039(5) 0.2438(3) 0.2516(2) 0.0351(7) Uani 1 1 d . . . . .
H20A H 0.826762 0.197966 0.263703 0.053 Uiso 1 1 calc R U . . .
H20B H 0.678198 0.230507 0.175421 0.053 Uiso 1 1 calc R U . . .
H20C H 0.590065 0.196750 0.272625 0.053 Uiso 1 1 calc R U . . .
H2N H 0.820(5) 0.318(2) 0.918(2) 0.050(11) Uiso 1 1 d D . . . .
loop_
_atom_site_aniso_label
_atom_site_aniso_U_11
_atom_site_aniso_U_22
_atom_site_aniso_U_33
_atom_site_aniso_U_23
_atom_site_aniso_U_13
_atom_site_aniso_U_12
O1 0.0398(12) 0.0367(13) 0.0222(11) 0.0169(9) 0.0041(9) 0.0043(9)
N1 0.0287(13) 0.0385(15) 0.0223(13) 0.0150(11) 0.0031(10) 0.0016(11)
C1 0.0338(17) 0.0387(18) 0.0253(16) 0.0180(13) -0.0010(13) 0.0009(13)
O2 0.0386(12) 0.0415(13) 0.0138(10) 0.0126(9) 0.0036(8) 0.0049(9)
N2 0.0329(14) 0.0348(16) 0.0210(13) 0.0116(11) 0.0041(10) 0.0055(11)
C2 0.0358(17) 0.049(2) 0.0186(15) 0.0162(14) 0.0008(13) -0.0001(14)
N3 0.0461(16) 0.0340(15) 0.0244(13) 0.0147(11) 0.0029(11) 0.0027(12)
C3 0.0356(17) 0.0364(18) 0.0245(16) 0.0078(13) 0.0062(13) 0.0032(13)
C4 0.0321(16) 0.0369(18) 0.0242(16) 0.0159(13) 0.0027(12) -0.0003(13)
C5 0.0294(16) 0.0370(18) 0.0207(15) 0.0139(13) 0.0028(12) 0.0017(13)
C6 0.0331(16) 0.0297(16) 0.0247(16) 0.0136(13) 0.0033(12) 0.0032(12)
C7 0.0321(16) 0.0326(17) 0.0233(16) 0.0134(13) 0.0049(12) 0.0049(13)
C8 0.0245(15) 0.0385(18) 0.0193(14) 0.0137(13) 0.0049(11) 0.0042(12)
C9 0.0266(16) 0.0382(18) 0.0204(14) 0.0136(13) 0.0024(12) 0.0043(12)
C10 0.0249(15) 0.0382(18) 0.0224(15) 0.0164(13) 0.0036(11) 0.0038(12)
C11 0.0286(16) 0.0407(18) 0.0157(14) 0.0127(13) 0.0037(11) 0.0028(13)
C12 0.0264(15) 0.0351(17) 0.0205(15) 0.0126(12) 0.0035(12) 0.0047(12)
C13 0.0242(15) 0.0354(17) 0.0222(15) 0.0146(13) 0.0036(11) 0.0051(12)
C14 0.0303(16) 0.0360(17) 0.0214(15) 0.0096(13) 0.0039(12) 0.0024(13)
C15 0.0358(17) 0.0351(17) 0.0212(15) 0.0121(13) 0.0005(12) 0.0047(13)
C16 0.0280(16) 0.0405(18) 0.0212(15) 0.0143(13) 0.0028(12) 0.0021(13)
C17 0.0388(18) 0.0356(18) 0.0261(16) 0.0170(14) 0.0039(13) 0.0048(14)
C18 0.0434(19) 0.0376(18) 0.0293(17) 0.0217(14) 0.0008(14) 0.0018(14)
C19 0.047(2) 0.0377(19) 0.0286(17) 0.0190(14) 0.0056(14) 0.0044(15)
C20 0.0452(19) 0.0410(19) 0.0199(15) 0.0107(13) 0.0057(13) 0.0068(14)
loop_
_atom_type_symbol
_atom_type_description
_atom_type_scat_dispersion_real
_atom_type_scat_dispersion_imag
_atom_type_scat_source
C C 0.0033 0.0016 'International Tables Vol C Tables 4.2.6.8 and 6.1.1.4'
H H 0.0000 0.0000 'International Tables Vol C Tables 4.2.6.8 and 6.1.1.4'
N N 0.0061 0.0033 'International Tables Vol C Tables 4.2.6.8 and 6.1.1.4'
O O 0.0106 0.0060 'International Tables Vol C Tables 4.2.6.8 and 6.1.1.4'
loop_
_geom_angle_atom_site_label_1
_geom_angle_atom_site_label_2
_geom_angle_atom_site_label_3
_geom_angle
_geom_angle_site_symmetry_1
_geom_angle_site_symmetry_3
C10 O1 C19 117.3(2) . .
C1 N1 C5 117.2(2) . .
N1 C1 C2 124.3(3) . .
N1 C1 H1 117.8 . .
C2 C1 H1 117.8 . .
C11 O2 C20 116.4(2) . .
C17 N2 C16 106.7(3) . .
C17 N2 H2N 125(2) . .
C16 N2 H2N 129(2) . .
C3 C2 C1 118.3(3) . .
C3 C2 H2 120.8 . .
C1 C2 H2 120.8 . .
C16 N3 C18 103.9(2) . .
C2 C3 C4 119.3(3) . .
C2 C3 H3 120.4 . .
C4 C3 H3 120.4 . .
C5 C4 C3 118.9(3) . .
C5 C4 H4 120.6 . .
C3 C4 H4 120.6 . .
N1 C5 C4 122.0(3) . .
N1 C5 C6 116.0(2) . .
C4 C5 C6 121.9(3) . .
C7 C6 C5 178.7(3) . .
C6 C7 C8 174.4(3) . .
C9 C8 C13 119.7(3) . .
C9 C8 C7 121.4(3) . .
C13 C8 C7 118.9(2) . .
C10 C9 C8 120.3(3) . .
C10 C9 H9 119.8 . .
C8 C9 H9 119.8 . .
O1 C10 C9 124.1(3) . .
O1 C10 C11 116.1(2) . .
C9 C10 C11 119.8(3) . .
O2 C11 C12 124.0(3) . .
O2 C11 C10 115.7(2) . .
C12 C11 C10 120.3(3) . .
C11 C12 C13 120.4(3) . .
C11 C12 H12 119.8 . .
C13 C12 H12 119.8 . .
C8 C13 C12 119.5(3) . .
C8 C13 C14 118.7(2) . .
C12 C13 C14 121.9(3) . .
C15 C14 C13 172.8(3) . .
C14 C15 C16 172.8(3) . .
N3 C16 N2 111.8(3) . .
N3 C16 C15 127.1(3) . .
N2 C16 C15 121.1(3) . .
C18 C17 N2 106.9(3) . .
C18 C17 H17 126.6 . .
N2 C17 H17 126.6 . .
C17 C18 N3 110.8(3) . .
C17 C18 H18 124.6 . .
N3 C18 H18 124.6 . .
O1 C19 H19A 109.5 . .
O1 C19 H19B 109.5 . .
H19A C19 H19B 109.5 . .
O1 C19 H19C 109.5 . .
H19A C19 H19C 109.5 . .
H19B C19 H19C 109.5 . .
O2 C20 H20A 109.5 . .
O2 C20 H20B 109.5 . .
H20A C20 H20B 109.5 . .
O2 C20 H20C 109.5 . .
H20A C20 H20C 109.5 . .
H20B C20 H20C 109.5 . .
loop_
_geom_bond_atom_site_label_1
_geom_bond_atom_site_label_2
_geom_bond_distance
_geom_bond_site_symmetry_2
O1 C10 1.359(3) .
O1 C19 1.420(3) .
N1 C1 1.336(4) .
N1 C5 1.359(4) .
C1 C2 1.377(4) .
C1 H1 0.9500 .
O2 C11 1.370(3) .
O2 C20 1.425(3) .
N2 C17 1.357(4) .
N2 C16 1.363(4) .
N2 H2N 0.922(18) .
C2 C3 1.371(4) .
C2 H2 0.9500 .
N3 C16 1.331(4) .
N3 C18 1.384(4) .
C3 C4 1.394(4) .
C3 H3 0.9500 .
C4 C5 1.388(4) .
C4 H4 0.9500 .
C5 C6 1.439(4) .
C6 C7 1.198(4) .
C7 C8 1.438(4) .
C8 C9 1.405(4) .
C8 C13 1.405(4) .
C9 C10 1.393(4) .
C9 H9 0.9500 .
C10 C11 1.402(4) .
C11 C12 1.384(4) .
C12 C13 1.408(4) .
C12 H12 0.9500 .
C13 C14 1.430(4) .
C14 C15 1.200(4) .
C15 C16 1.426(4) .
C17 C18 1.345(4) .
C17 H17 0.9500 .
C18 H18 0.9500 .
C19 H19A 0.9800 .
C19 H19B 0.9800 .
C19 H19C 0.9800 .
C20 H20A 0.9800 .
C20 H20B 0.9800 .
C20 H20C 0.9800 .
loop_
_geom_hbond_atom_site_label_D
_geom_hbond_atom_site_label_H
_geom_hbond_atom_site_label_A
_geom_hbond_distance_DH
_geom_hbond_distance_HA
_geom_hbond_distance_DA
_geom_hbond_angle_DHA
_geom_hbond_site_symmetry_A
_geom_hbond_publ_flag
C2 H2 O1 0.95 2.38 3.303(4) 164.2 1_556 yes
C9 H9 N3 0.95 2.43 3.369(4) 167.7 1_565 yes
N2 H2N N1 0.922(18) 1.97(2) 2.872(4) 167(3) . yes
