#------------------------------------------------------------------------------
#$Date: 2021-12-06 10:59:38 +0200 (Mon, 06 Dec 2021) $
#$Revision: 271126 $
#$URL: file:///home/coder/svn-repositories/cod/cif/1/56/55/1565550.cif $
#------------------------------------------------------------------------------
#
# This file is available in the Crystallography Open Database (COD),
# http://www.crystallography.net/
#
# All data on this site have been placed in the public domain by the
# contributors.
#
data_1565550
loop_
_publ_author_name
'L\'opez Pl\'a, Jessica M.'
'Boudalis, Athanassios K.'
'Telser, Joshua'
'Raptis, Raphael G.'
_publ_section_title
;
 Chromium(III)-pyrazole complexes. X-Ray crystal structures, 1H NMR
 investigation of ligand fluxional behavior and EPR studies
;
_journal_name_full               'Inorganica Chimica Acta'
_journal_page_first              119299
_journal_paper_doi               10.1016/j.ica.2019.119299
_journal_volume                  502
_journal_year                    2020
_chemical_formula_moiety         'C9 H9 Cl6 Cr N6'
_chemical_formula_sum            'C9 H9 Cl6 Cr N6'
_chemical_formula_weight         465.92
_chemical_name_systematic        mer-CrCl3(4-Cl-pzH)3
_space_group_crystal_system      triclinic
_space_group_IT_number           2
_space_group_name_Hall           '-P 1'
_space_group_name_H-M_alt        'P -1'
_atom_sites_solution_hydrogens   difmap
_atom_sites_solution_primary     dual
_cell_angle_alpha                78.808(15)
_cell_angle_beta                 89.621(15)
_cell_angle_gamma                88.186(15)
_cell_formula_units_Z            2
_cell_length_a                   6.792(3)
_cell_length_b                   10.395(3)
_cell_length_c                   12.218(4)
_cell_measurement_reflns_used    9871
_cell_measurement_temperature    295.15
_cell_measurement_theta_max      30.08
_cell_measurement_theta_min      2.87
_cell_volume                     845.8(5)
_computing_cell_refinement       'SAINT v8.37A (Bruker, 2015)'
_computing_data_reduction        'SAINT v8.37A (Bruker, 2015)'
_computing_molecular_graphics    'Olex2 (Dolomanov et al., 2009)'
_computing_publication_material  'Olex2 (Dolomanov et al., 2009)'
_computing_structure_refinement  'ShelXL (Sheldrick, 2015)'
_computing_structure_solution    'ShelXT (Sheldrick, 2015)'
_diffrn_ambient_temperature      295.15
_diffrn_detector_area_resol_mean 8
_diffrn_measured_fraction_theta_full 0.999
_diffrn_measured_fraction_theta_max 0.999
_diffrn_measurement_device_type  'Bruker D8 Quest CMOS'
_diffrn_measurement_method       '\f and \w scans'
_diffrn_radiation_type           MoK\a
_diffrn_radiation_wavelength     0.71073
_diffrn_reflns_av_R_equivalents  0.0233
_diffrn_reflns_av_unetI/netI     0.0184
_diffrn_reflns_Laue_measured_fraction_full 0.999
_diffrn_reflns_Laue_measured_fraction_max 0.999
_diffrn_reflns_limit_h_max       8
_diffrn_reflns_limit_h_min       -8
_diffrn_reflns_limit_k_max       12
_diffrn_reflns_limit_k_min       -12
_diffrn_reflns_limit_l_max       15
_diffrn_reflns_limit_l_min       -15
_diffrn_reflns_number            16370
_diffrn_reflns_point_group_measured_fraction_full 0.999
_diffrn_reflns_point_group_measured_fraction_max 0.999
_diffrn_reflns_theta_full        25.242
_diffrn_reflns_theta_max         26.304
_diffrn_reflns_theta_min         2.864
_diffrn_standards_number         0
_exptl_absorpt_coefficient_mu    1.626
_exptl_absorpt_correction_T_max  0.9014
_exptl_absorpt_correction_T_min  0.7824
_exptl_absorpt_correction_type   multi-scan
_exptl_absorpt_process_details
'SADABS-2016/2 (Bruker,2016/2) was used for absorption correction. wR2(int) was 0.0435 before and 0.0384 after correction. The Ratio of minimum to maximum transmission is 0.8680. The \l/2 correction factor is Not present.'
_exptl_crystal_colour            'clear grayish green'
_exptl_crystal_colour_lustre     clear
_exptl_crystal_colour_modifier   grayish
_exptl_crystal_colour_primary    green
_exptl_crystal_density_diffrn    1.830
_exptl_crystal_description       cubic
_exptl_crystal_F_000             462
_exptl_crystal_size_max          0.199
_exptl_crystal_size_mid          0.122
_exptl_crystal_size_min          0.081
_refine_diff_density_max         0.300
_refine_diff_density_min         -0.350
_refine_diff_density_rms         0.057
_refine_ls_extinction_coef       .
_refine_ls_extinction_method     none
_refine_ls_goodness_of_fit_ref   1.046
_refine_ls_hydrogen_treatment    refall
_refine_ls_matrix_type           full
_refine_ls_number_parameters     244
_refine_ls_number_reflns         3424
_refine_ls_number_restraints     0
_refine_ls_restrained_S_all      1.046
_refine_ls_R_factor_all          0.0358
_refine_ls_R_factor_gt           0.0270
_refine_ls_shift/su_max          0.001
_refine_ls_shift/su_mean         0.000
_refine_ls_structure_factor_coef Fsqd
_refine_ls_weighting_details
'w=1/[\s^2^(Fo^2^)+(0.0292P)^2^+0.5222P] where P=(Fo^2^+2Fc^2^)/3'
_refine_ls_weighting_scheme      calc
_refine_ls_wR_factor_gt          0.0628
_refine_ls_wR_factor_ref         0.0668
_reflns_Friedel_coverage         0.000
_reflns_Friedel_fraction_full    .
_reflns_Friedel_fraction_max     .
_reflns_number_gt                2900
_reflns_number_total             3424
_reflns_threshold_expression     'I > 2\s(I)'
_cod_data_source_file            ICA-2020-502-119299.cif
_cod_data_source_block           jlp068_a
_cod_original_cell_volume        845.7(5)
_cod_database_code               1565550
_shelx_space_group_comment
;
The symmetry employed for this shelxl refinement is uniquely defined
by the following loop, which should always be used as a source of
symmetry information in preference to the above space-group names.
They are only intended as comments.
;
_shelx_estimated_absorpt_t_max   0.880
_shelx_estimated_absorpt_t_min   0.738
_olex2_refinement_description
;
1. Others
 Fixed Sof: Cl5B(0.45) Cl5A(0.55)
;
_shelx_res_file
;
TITL JLP068_a.res in P-1
 jlp068_a.res created by SHELXL-2016/4 at 16:55:06 on 01-Oct-2018
REM Old TITL JLP068 in P-1
REM SHELXT solution in P-1
REM R1 0.158, Rweak 0.009, Alpha 0.041, Orientation as input
REM Formula found by SHELXT: C13 Cl6 Cr N2
CELL 0.71073 6.7915 10.3946 12.2183 78.808 89.621 88.186
ZERR 2 0.0025 0.0033 0.0043 0.015 0.015 0.015
LATT 1
SFAC C H Cl Cr N
UNIT 18 18 12 2 12

L.S. 10
PLAN  4
SIZE 0.081 0.122 0.199
TEMP 22
BOND $H
LIST 6
fmap 2
acta
REM <olex2.extras>
REM <HklSrc "%.\\JLP068_0m.hkl">
REM </olex2.extras>

WGHT    0.029200    0.522200
FVAR       0.67537
CR1   4    0.170516    0.319459    0.795060    11.00000    0.02490    0.02846 =
         0.02677   -0.00457    0.00225   -0.00150
CL1   3   -0.062566    0.448322    0.677601    11.00000    0.03050    0.04372 =
         0.04479   -0.00663   -0.00627    0.00793
CL2   3   -0.015988    0.339017    0.951361    11.00000    0.04518    0.04873 =
         0.04074   -0.01800    0.01550   -0.00815
CL3   3    0.410171    0.188881    0.898626    11.00000    0.03801    0.04032 =
         0.03011    0.00129   -0.00324    0.00309
CL4   3    0.367666    0.851044    0.836110    11.00000    0.04903    0.03428 =
         0.05849   -0.00908   -0.00792   -0.00506
PART 2
CL5B  3    0.715051    0.163920    0.460834    10.45000    0.08139    0.12427 =
         0.04166   -0.01236    0.01272    0.05643
PART 0
CL6   3   -0.166963   -0.146051    0.668190    11.00000    0.06209    0.05616 =
         0.08139   -0.03729    0.01755   -0.02157
N1    5    0.322209    0.485164    0.811547    11.00000    0.02685    0.03440 =
         0.03285   -0.00639   -0.00044   -0.00272
N2    5    0.509703    0.485680    0.849395    11.00000    0.02914    0.03682 =
         0.04751   -0.00562   -0.00333    0.00081
H2    2    0.574970    0.415545    0.862885    11.00000    0.04083
N3    5    0.333410    0.302866    0.650742    11.00000    0.02928    0.03501 =
         0.02469   -0.00109    0.00031    0.00027
N4    5    0.288866    0.372805    0.548349    11.00000    0.04120    0.04477 =
         0.02968   -0.00003   -0.00208    0.01253
H4    2    0.194260    0.423748    0.542819    11.00000    0.05901
N5    5    0.020447    0.151737    0.782998    11.00000    0.02946    0.03305 =
         0.03141   -0.00374    0.00259   -0.00433
N6    5   -0.088701    0.089065    0.868859    11.00000    0.04222    0.04481 =
         0.03391   -0.00784    0.00785   -0.01363
H6    2   -0.107761    0.121712    0.922178    11.00000    0.05514
C1    1    0.252999    0.608273    0.803125    11.00000    0.03060    0.03452 =
         0.03751   -0.00638   -0.00256   -0.00089
H1    2    0.128749    0.630658    0.780480    11.00000    0.03576
C2    1    0.396269    0.686035    0.834558    11.00000    0.03604    0.03289 =
         0.03191   -0.00497    0.00082   -0.00665
C3    1    0.557704    0.605427    0.863792    11.00000    0.03176    0.04257 =
         0.04566   -0.00562   -0.00406   -0.00916
H3    2    0.683929    0.620664    0.889029    11.00000    0.05508
C4    1    0.493281    0.231476    0.634617    11.00000    0.04097    0.06277 =
         0.02957    0.00217    0.00165    0.02012
H4A   2    0.542955    0.180284    0.687292    11.00000    0.04820
C5    1    0.546425    0.256971    0.523146    11.00000    0.04085    0.06859 =
         0.02942   -0.00574    0.00523    0.01514
C6    1    0.414859    0.346815    0.470370    11.00000    0.04525    0.05767 =
         0.02486    0.00044    0.00287    0.00546
H6A   2    0.409803    0.386512    0.402460    11.00000    0.05197
C7    1    0.009693    0.080422    0.704175    11.00000    0.03526    0.03718 =
         0.03666   -0.00767    0.00442   -0.00346
H7    2    0.072900    0.101176    0.637030    11.00000    0.03568
C8    1   -0.108459   -0.026786    0.740863    11.00000    0.02987    0.03265 =
         0.04898   -0.01030   -0.00084   -0.00137
C9    1   -0.168763   -0.018417    0.845952    11.00000    0.03768    0.04169 =
         0.04504   -0.00243    0.00563   -0.01262
H9    2   -0.240475   -0.069973    0.896312    11.00000    0.04564
PART 1
CL5A  3    0.760027    0.208106    0.463667    10.55000    0.05432    0.12155 =
         0.03734   -0.00302    0.01396    0.03397
HKLF 4




REM  JLP068_a.res in P-1
REM R1 =  0.0270 for    2900 Fo > 4sig(Fo)  and  0.0358 for all    3424 data
REM    244 parameters refined using      0 restraints

END

WGHT      0.0292      0.5221

REM Highest difference peak  0.300,  deepest hole -0.350,  1-sigma level  0.057
Q1    1  -0.0611  0.4286  0.7412  11.00000  0.05    0.30
Q2    1   0.4105  0.8485  0.7597  11.00000  0.05    0.22
Q3    1   0.0585  0.2971  1.0038  11.00000  0.05    0.22
Q4    1   0.3308  0.6676  0.8008  11.00000  0.05    0.22
;
_shelx_res_checksum              4083
_shelx_hkl_file
;
  -1   0   0 180.162 3.19723   5
  -1   0   0 161.251 3.38952   2
  -1   0   0 186.151 3.93256   3
  -1   0   0 164.419 3.39805   1
   1   0   0 183.888 3.81132   4
   1   0   0 176.114 3.21710   5
   1   0   0 190.261 3.41023   5
   1   0   0 183.478 4.04777   1
   1   0   0 183.238 3.63588   2
  -2   0   0 342.780 6.95219   3
  -2   0   0 346.254 6.13158   5
   2   0   0 349.459 6.14159   5
   2   0   0 341.915 6.62927   1
   2   0   0 348.730 6.53355   2
   2   0   0 347.719 6.81252   4
  -3   0   0 5.36542 1.22345   3
  -3   0   0 7.07735 1.12331   5
   3   0   0 5.96222 1.56699   1
   3   0   0 5.52674 1.06090   2
   3   0   0 7.11798 1.60745   4
   3   0   0 5.65003 1.16135   5
  -4   0   0 34.0192 2.87890   3
   4   0   0 38.3988 2.36489   2
   4   0   0 33.8499 2.77272   4
   4   0   0 33.8451 1.89256   5
   4   0   0 40.0677 2.59851   1
  -5   0   0 375.437 9.59067   3
   5   0   0 363.399 8.33444   2
   5   0   0 359.315 9.08002   4
   5   0   0 363.439 7.27744   5
   5   0   0 350.366 8.50139   1
  -6   0   0 105.010 5.97957   3
   6   0   0 98.9638 5.00577   2
   6   0   0 105.433 5.52455   4
   6   0   0 89.5647 5.15412   1
  -7   0   0 16.9950 3.48879   2
  -7   0   0 22.0294 4.35319   3
   7   0   0 17.5800 3.72029   1
   7   0   0 17.0426 3.22307   2
   7   0   0 22.1420 5.35584   4
  -8   0   0 22.3009 5.53368   3
   8   0   0 10.2059 4.49845   4
   8   0   0 17.1110 4.43780   1
   8  -1   0 232.265 10.2870   4
   8  -1   0 241.316 9.07580   2
  -8   1   0 242.558 9.51810   2
  -8   1   0 237.867 11.7999   3
   7  -1   0 148.321 7.45906   1
   7  -1   0 162.764 7.73786   4
   7  -1   0 154.145 7.01456   2
  -7   1   0 165.183 8.51432   3
  -7   1   0 162.402 7.36981   2
   6  -1   0 44.7623 4.16056   2
   6  -1   0 49.6894 4.40656   1
   6  -1   0 46.8630 4.73166   4
  -6   1   0 40.1458 4.93875   3
   5  -1   0 131.473 4.85613   2
   5  -1   0 124.094 5.11400   4
   5  -1   0 145.285 4.88521   1
  -5   1   0 142.008 5.82777   3
   4  -1   0 1889.43 32.6696   1
   4  -1   0 1909.82 33.2198   4
   4  -1   0 1889.98 32.7109   2
   4  -1   0 1941.91 31.1791   5
  -4   1   0 1873.47 33.5226   3
   3  -1   0 -0.4664 0.88588   1
   3  -1   0 0.71530 0.59639   5
   3  -1   0 0.37771 0.94588   4
   3  -1   0 0.75295 0.60795   5
   3  -1   0 -0.7756 0.90495   2
  -3   1   0 1.09806 1.03592   3
   2  -1   0 27.1014 1.55403   2
   2  -1   0 25.7435 0.94110   5
   2  -1   0 28.4478 1.65714   4
   2  -1   0 25.3268 0.92899   5
   2  -1   0 23.8339 1.47467   1
  -2   1   0 23.8881 0.87646   5
  -2   1   0 24.5273 1.74079   3
   1  -1   0 904.629 14.9561   4
   1  -1   0 885.637 14.8914   2
   1  -1   0 890.110 14.7929   1
   1  -1   0 866.183 14.3614   5
  -1   1   0 884.851 14.9272   3
  -1   1   0 857.488 14.3579   5
  -1  -1   0 227.290 4.10597   2
  -1  -1   0 236.478 4.40094   5
  -1  -1   0 233.488 4.47685   1
  -1  -1   0 233.600 4.39094   3
   1   1   0 230.350 4.46462   1
   1   1   0 229.580 4.09275   2
   1   1   0 236.383 4.47062   4
  -2  -1   0 844.850 14.8306   3
  -2  -1   0 843.336 14.3976   5
   2   1   0 846.932 14.7214   1
   2   1   0 830.582 14.7426   4
   2   1   0 842.770 14.2385   2
  -3  -1   0 116.877 3.06332   5
  -3  -1   0 121.634 3.82327   3
   3   1   0 118.033 3.62918   4
   3   1   0 120.161 3.12673   5
   3   1   0 116.550 3.10187   2
   3   1   0 116.623 3.55627   1
  -4  -1   0 241.938 6.51637   3
  -4  -1   0 239.422 5.34338   5
   4   1   0 237.576 5.55253   2
   4   1   0 235.826 6.04627   1
   4   1   0 235.803 6.22308   4
   4   1   0 242.551 5.38750   5
  -5  -1   0 604.662 11.4121   5
  -5  -1   0 563.976 13.1475   3
   5   1   0 602.107 11.8743   2
   5   1   0 597.107 12.5527   1
   5   1   0 603.825 11.4381   5
   5   1   0 608.981 12.9981   4
  -6  -1   0 10.0182 2.90139   3
   6   1   0 17.1885 3.94570   4
   6   1   0 13.4493 3.28378   2
   6   1   0 10.3173 2.73301   1
   6   1   0 13.0097 2.84605   5
  -7  -1   0 53.8493 6.84186   3
   7   1   0 64.7804 5.96643   4
   7   1   0 59.6281 5.84593   1
   7   1   0 59.0917 4.94170   2
  -8  -1   0 3.80549 4.74930   3
   8   1   0 4.92311 4.44128   4
   8   1   0 2.10604 3.70257   1
   8  -2   0 6.82763 4.11948   4
   8  -2   0 -0.5919 3.94787   2
  -8   2   0 1.04079 3.84008   2
  -8   2   0 -2.9304 4.68684   3
   7  -2   0 76.9870 6.68517   1
   7  -2   0 83.1653 5.99973   2
   7  -2   0 84.4220 6.75706   4
  -7   2   0 94.3654 6.42410   2
  -7   2   0 84.2214 7.20781   3
   6  -2   0 0.99774 2.40127   2
   6  -2   0 -1.4699 2.24637   1
   6  -2   0 2.78210 2.39338   4
  -6   2   0 -6.1076 2.64451   3
  -6   2   0 1.05630 2.41292   2
   5  -2   0 18.4252 3.30215   4
   5  -2   0 14.4071 2.84513   1
   5  -2   0 12.6136 2.31438   2
  -5   2   0 22.5708 3.51900   3
  -5   2   0 17.4760 3.33318   2
   4  -2   0 39.3363 2.71673   1
   4  -2   0 39.7439 2.88089   2
   4  -2   0 41.6988 3.09613   4
  -4   2   0 42.6768 3.25580   3
   3  -2   0 552.602 10.9634   2
   3  -2   0 542.251 11.0828   4
   3  -2   0 566.457 10.8128   1
  -3   2   0 557.136 11.2925   3
   2  -2   0 1351.22 21.8325   5
   2  -2   0 1321.85 22.9451   4
   2  -2   0 1362.85 22.7525   1
   2  -2   0 1329.83 22.8942   2
  -2   2   0 1283.32 21.8037   5
  -2   2   0 1344.46 23.0374   3
   1  -2   0 43.2815 1.69968   2
   1  -2   0 42.0110 1.38815   5
   1  -2   0 43.4898 1.72578   4
   1  -2   0 45.1379 1.75888   1
  -1   2   0 43.7422 1.67670   3
   0  -2   0 1523.60 25.0276   3
   0  -2   0 1571.84 25.4042   5
   0  -2   0 1564.12 25.3303   2
   0  -2   0 1557.21 25.5465   1
   0  -2   0 1530.77 25.4754   4
   0   2   0 1527.15 25.0317   3
   0   2   0 1543.36 25.4934   4
   0   2   0 1570.54 25.3371   2
   0   2   0 1447.01 25.0229   3
  -1  -2   0 2379.89 40.9174   2
  -1  -2   0 2465.89 41.5280   1
  -1  -2   0 2704.26 41.0873   3
  -1  -2   0 2393.33 41.4269   5
   1   2   0 2481.26 41.5282   1
   1   2   0 2647.79 40.9972   2
   1   2   0 2629.93 41.4814   4
  -2  -2   0 200.280 4.72187   1
  -2  -2   0 205.991 4.55249   3
  -2  -2   0 204.502 4.56617   5
   2   2   0 199.478 4.67429   4
   2   2   0 200.666 4.71626   1
   2   2   0 207.179 4.02719   2
  -3  -2   0 72.4183 2.97861   3
  -3  -2   0 76.6558 2.68855   5
   3   2   0 74.1849 2.95589   1
   3   2   0 74.3431 2.92562   4
   3   2   0 69.2911 2.27441   2
  -4  -2   0 0.71148 1.05326   5
  -4  -2   0 2.32652 1.42632   3
   4   2   0 0.28253 1.24413   1
   4   2   0 1.27151 1.10800   2
   4   2   0 2.39916 1.11992   5
   4   2   0 0.85865 1.31348   4
  -5  -2   0 1522.63 26.6821   5
  -5  -2   0 1545.87 28.3241   3
   5   2   0 1494.90 27.8415   4
   5   2   0 1537.56 26.5387   2
   5   2   0 1549.78 26.7275   5
   5   2   0 1521.45 27.6864   1
  -6  -2   0 131.354 4.81135   5
  -6  -2   0 133.465 6.36113   3
   6   2   0 130.542 5.96773   1
   6   2   0 137.296 4.91460   2
   6   2   0 129.626 4.85575   5
   6   2   0 136.542 6.09207   4
  -7  -2   0 38.0531 6.32834   3
   7   2   0 50.5952 5.77184   4
   7   2   0 44.0077 5.80729   1
  -8  -2   0 36.5253 8.45980   3
   8   2   0 39.9254 7.49106   4
   8   2   0 44.7303 6.63168   1
   8  -3   0 8.32672 4.68949   2
   8  -3   0 13.6764 4.35469   4
  -8   3   0 11.8747 4.86718   3
  -8   3   0 8.14988 4.39407   2
   7  -3   0 59.0816 5.99770   2
   7  -3   0 66.9441 6.83751   1
   7  -3   0 55.2994 6.31588   4
  -7   3   0 59.8747 6.62302   3
  -7   3   0 73.5729 6.01876   2
   6  -3   0 41.3939 4.63979   2
   6  -3   0 46.5756 5.09183   4
   6  -3   0 40.0272 5.04037   1
  -6   3   0 36.1349 5.50710   3
  -6   3   0 38.3736 4.78718   2
   5  -3   0 48.3810 3.73587   1
   5  -3   0 51.1652 4.15048   2
   5  -3   0 47.8785 4.10947   4
  -5   3   0 45.7635 3.95704   2
  -5   3   0 50.1253 4.32616   3
   4  -3   0 79.8920 3.86245   4
   4  -3   0 80.4431 3.65825   1
   4  -3   0 86.8299 4.04413   2
  -4   3   0 73.5140 3.81669   2
  -4   3   0 74.7154 4.19373   3
   3  -3   0 825.047 15.7513   2
   3  -3   0 849.306 15.5300   1
   3  -3   0 834.713 15.9124   4
   3  -3   0 844.533 14.0803   5
  -3   3   0 820.592 15.7578   2
  -3   3   0 817.799 15.8585   3
   2  -3   0 184.695 4.76050   2
   2  -3   0 183.498 4.66588   1
   2  -3   0 176.968 4.75675   4
   2  -3   0 187.576 3.90314   5
  -2   3   0 187.658 4.72500   3
  -2   3   0 183.390 4.77352   2
   1  -3   0 869.035 14.8959   3
   1  -3   0 841.547 15.1551   1
   1  -3   0 829.423 14.6791   5
   1  -3   0 858.640 15.2029   2
   1  -3   0 846.811 15.2274   4
  -1   3   0 872.181 14.8923   3
   0  -3   0 192.306 3.86236   3
   0  -3   0 190.462 4.21189   2
   0  -3   0 191.607 4.45163   4
   0  -3   0 192.321 4.50646   1
   0  -3   0 196.705 4.36877   5
   0   3   0 192.186 4.21197   2
   0   3   0 196.176 3.85982   3
  -1  -3   0 1265.75 20.9403   3
  -1  -3   0 1282.66 21.7224   5
  -1  -3   0 1271.77 21.8159   1
   1   3   0 1242.88 21.7522   1
   1   3   0 1251.19 21.0841   2
   1   3   0 1256.30 21.6648   4
  -2  -3   0 1.85965 0.86437   3
  -2  -3   0 1.83013 0.90099   5
  -2  -3   0 0.89684 0.92666   1
   2   3   0 2.62878 0.72947   2
   2   3   0 0.25291 0.93624   4
   2   3   0 2.63424 1.02116   1
  -3  -3   0 4.64027 1.18631   3
  -3  -3   0 5.62648 1.22809   5
  -3  -3   0 3.56164 1.21078   1
   3   3   0 3.70624 0.91850   2
   3   3   0 3.87357 1.20754   1
   3   3   0 3.89595 1.23248   4
  -4  -3   0 257.802 6.35492   5
  -4  -3   0 261.609 6.77696   3
   4   3   0 260.370 6.84942   1
   4   3   0 248.947 6.75213   4
   4   3   0 254.765 5.59568   2
   4   3   0 258.052 6.38725   5
  -5  -3   0 59.2899 3.47821   5
  -5  -3   0 57.6360 4.36689   3
   5   3   0 51.2775 3.94435   4
   5   3   0 61.1572 4.34533   1
   5   3   0 59.5045 3.41484   5
   5   3   0 49.3602 2.85351   2
  -6  -3   0 312.444 8.19357   5
  -6  -3   0 328.941 9.74800   3
   6   3   0 323.525 9.41269   1
   6   3   0 326.065 9.34064   4
   6   3   0 328.198 7.65507   2
   6   3   0 314.782 8.31013   5
  -7  -3   0 74.7674 6.55931   3
   7   3   0 55.2576 6.10870   4
   7   3   0 62.6916 6.34914   1
  -8  -3   0 3.80766 4.91080   3
   8   3   0 7.18158 4.02288   1
   8   3   0 5.09516 4.57633   4
   7  -4   0 -5.2319 3.42490   4
   7  -4   0 3.62901 3.71495   2
   7  -4   0 -4.2415 3.79540   1
  -7   4   0 -6.4234 3.68723   2
  -7   4   0 -3.0916 3.79172   3
   6  -4   0 -0.2454 3.05156   1
   6  -4   0 0.62294 2.88666   2
   6  -4   0 0.55436 2.80534   4
  -6   4   0 1.76633 3.05185   2
  -6   4   0 -5.2500 3.00611   3
   5  -4   0 315.282 9.27149   4
   5  -4   0 322.783 8.63154   1
   5  -4   0 305.521 8.85690   2
  -5   4   0 301.651 9.19172   3
  -5   4   0 321.330 8.87371   2
   4  -4   0 95.1595 4.42071   4
   4  -4   0 91.3294 4.22400   1
   4  -4   0 91.8212 4.41154   2
  -4   4   0 92.6628 4.59267   2
  -4   4   0 90.4406 4.63948   3
   3  -4   0 681.271 13.8021   4
   3  -4   0 639.277 11.9304   5
   3  -4   0 691.109 13.7570   2
   3  -4   0 686.370 13.4004   1
  -3   4   0 678.630 13.6923   2
  -3   4   0 695.213 13.6569   3
   2  -4   0 783.028 15.2525   4
   2  -4   0 806.534 15.1604   1
   2  -4   0 804.956 15.2830   2
   2  -4   0 825.970 14.2829   5
  -2   4   0 809.989 15.3063   2
  -2   4   0 822.837 15.0430   3
   1  -4   0 209.139 5.24442   4
   1  -4   0 207.091 4.79859   5
   1  -4   0 211.051 5.25308   1
   1  -4   0 213.156 5.20980   2
   1  -4   0 207.504 4.77058   3
  -1   4   0 208.995 5.21627   4
  -1   4   0 208.426 5.18011   2
  -1   4   0 214.102 4.80000   3
   0  -4   0 1339.09 22.8622   2
   0  -4   0 1324.32 22.9635   5
   0  -4   0 1334.10 23.1769   4
   0  -4   0 1325.84 23.2570   1
   0  -4   0 1332.76 22.2040   3
   0   4   0 1313.25 22.7984   2
   0   4   0 1338.68 22.2167   3
   0   4   0 1323.25 23.1769   4
  -1  -4   0 2046.93 34.5059   5
  -1  -4   0 2027.94 34.6351   1
  -1  -4   0 2000.85 33.4082   3
   1   4   0 2032.80 34.5001   4
   1   4   0 2075.49 34.6967   1
   1   4   0 2023.15 33.8112   2
  -2  -4   0 298.309 7.04197   1
  -2  -4   0 306.515 6.98174   5
  -2  -4   0 306.902 6.19942   3
   2   4   0 280.115 5.97646   2
   2   4   0 312.756 6.97824   4
   2   4   0 299.366 7.03973   1
  -3  -4   0 1.18952 1.19469   5
  -3  -4   0 0.00905 1.33001   1
  -3  -4   0 1.55360 1.12243   3
   3   4   0 1.63324 1.17503   4
   3   4   0 1.41720 0.95707   2
   3   4   0 0.64693 1.26536   1
  -4  -4   0 1.86913 1.49080   5
  -4  -4   0 -0.2880 1.38621   3
   4   4   0 -1.7382 1.58921   1
   4   4   0 -0.3001 1.57804   4
   4   4   0 -0.2478 1.12020   2
  -5  -4   0 34.6634 3.58443   5
  -5  -4   0 41.5116 4.19368   3
   5   4   0 38.2948 3.66066   5
   5   4   0 32.6844 2.65610   2
   5   4   0 37.1589 3.98429   1
   5   4   0 39.0149 4.05833   4
  -6  -4   0 53.4651 4.64476   5
  -6  -4   0 51.3745 5.52895   3
   6   4   0 49.5116 5.16172   1
   6   4   0 55.6300 5.22419   4
   6   4   0 49.9462 4.92036   5
  -7  -4   0 164.721 8.19448   3
  -7  -4   0 152.852 6.90598   5
   7   4   0 162.633 7.11476   5
   7   4   0 161.810 8.09813   4
   7   4   0 158.643 7.66966   1
  -8  -4   0 6.69434 4.89892   3
   8   4   0 9.48192 4.47262   4
   8   4   0 -0.4458 4.32217   1
   7  -5   0 10.4571 4.49448   2
   7  -5   0 15.1217 4.22927   4
   7  -5   0 27.8966 7.21807   1
  -7   5   0 23.3073 4.99465   2
  -7   5   0 16.3784 4.51208   3
   6  -5   0 373.134 11.2910   4
   6  -5   0 345.575 10.8471   2
   6  -5   0 356.034 10.6959   1
  -6   5   0 350.837 11.4613   3
  -6   5   0 364.478 11.1992   2
   5  -5   0 37.2911 4.60251   2
   5  -5   0 42.7719 4.74305   1
   5  -5   0 39.3700 4.82767   4
  -5   5   0 39.0823 4.98368   2
  -5   5   0 31.5822 4.87166   3
   4  -5   0 233.834 5.22416   5
   4  -5   0 241.900 7.48220   2
   4  -5   0 238.909 7.06868   1
   4  -5   0 235.682 7.46889   4
  -4   5   0 238.306 7.39832   3
  -4   5   0 241.225 7.53523   2
   3  -5   0 19.7601 2.81618   1
   3  -5   0 21.6260 2.90572   4
   3  -5   0 21.7959 2.12240   5
   3  -5   0 24.9109 3.13650   2
  -3   5   0 22.3424 2.68280   3
  -3   5   0 17.5879 2.97561   2
   2  -5   0 683.905 13.7901   2
   2  -5   0 674.393 13.8116   4
   2  -5   0 704.221 13.7497   1
   2  -5   0 696.794 12.7985   5
  -2   5   0 684.196 13.7607   2
  -2   5   0 690.549 13.3049   3
   1  -5   0 974.220 18.2369   1
   1  -5   0 993.964 18.1318   2
   1  -5   0 977.258 17.3864   3
   1  -5   0 992.105 18.2888   4
   1  -5   0 987.419 17.6948   5
  -1   5   0 991.336 17.4150   3
  -1   5   0 978.420 18.0414   2
  -1   5   0 973.552 18.2355   4
   0  -5   0 102.577 3.78507   1
   0  -5   0 105.963 3.68628   4
   0  -5   0 103.459 3.45060   2
   0  -5   0 98.7966 2.88362   3
   0  -5   0 104.898 3.58596   5
   0   5   0 100.381 2.84740   3
   0   5   0 102.167 3.64316   4
   0   5   0 106.183 3.46925   2
  -1  -5   0 27.4306 2.31754   5
  -1  -5   0 34.4449 1.77518   3
  -1  -5   0 31.4867 2.43281   1
   1   5   0 31.9190 2.52718   1
   1   5   0 30.3279 2.03892   2
   1   5   0 34.3558 2.47956   4
  -2  -5   0 670.772 12.0386   3
  -2  -5   0 653.832 13.4136   1
  -2  -5   0 656.160 13.2043   5
   2   5   0 650.723 13.1179   4
   2   5   0 657.580 13.3862   1
   2   5   0 673.146 12.1922   2
  -3  -5   0 64.7971 3.68234   1
  -3  -5   0 68.4876 3.03029   3
  -3  -5   0 69.0125 3.66356   5
   3   5   0 66.3566 2.62210   2
   3   5   0 62.9054 3.69247   1
   3   5   0 62.1861 3.52683   4
  -4  -5   0 102.183 4.16436   3
  -4  -5   0 102.307 4.62326   5
  -4  -5   0 94.3008 4.78508   1
   4   5   0 98.1093 3.27488   2
   4   5   0 101.182 4.83399   4
   4   5   0 103.549 5.01093   1
  -5  -5   0 2.76124 2.33392   3
  -5  -5   0 2.33470 2.18437   5
   5   5   0 2.42744 2.35849   4
   5   5   0 2.86543 2.42976   1
   5   5   0 6.12544 2.23506   5
   5   5   0 -0.0720 1.89965   2
  -6  -5   0 371.141 11.0049   3
  -6  -5   0 376.117 10.3150   5
   6   5   0 386.651 10.4076   5
   6   5   0 380.153 11.0522   1
   6   5   0 382.826 10.7965   4
  -7  -5   0 83.1734 7.67260   3
  -7  -5   0 94.6323 6.30789   5
   7   5   0 78.5726 6.83254   5
   7   5   0 95.3249 7.13209   4
   7   5   0 88.4718 6.90170   1
   7  -6   0 2.34032 4.21861   4
   7  -6   0 4.27185 4.06106   2
  -7   6   0 0.08841 4.85829   2
  -7   6   0 -2.8018 4.14090   3
   6  -6   0 169.228 8.51737   4
   6  -6   0 153.450 8.48583   1
   6  -6   0 184.453 8.41791   2
  -6   6   0 173.859 8.64635   3
  -6   6   0 179.147 8.63151   2
   5  -6   0 493.498 12.5223   1
   5  -6   0 484.155 12.9474   2
   5  -6   0 482.250 12.9952   4
  -5   6   0 490.067 13.0060   2
  -5   6   0 496.093 12.8733   3
   4  -6   0 3.16413 2.51403   4
   4  -6   0 7.71568 1.59425   5
   4  -6   0 5.06103 2.52133   1
   4  -6   0 5.33470 2.65003   2
  -4   6   0 11.1499 2.70825   2
  -4   6   0 7.47537 2.29611   3
   3  -6   0 566.293 12.4352   1
   3  -6   0 570.273 10.9810   5
   3  -6   0 559.148 12.6779   2
   3  -6   0 552.269 12.6773   4
  -3   6   0 559.404 12.1202   3
  -3   6   0 541.379 12.5433   2
   2  -6   0 553.557 11.9427   2
   2  -6   0 520.821 11.6649   1
   2  -6   0 545.684 10.8758   5
   2  -6   0 535.695 11.9377   4
  -2   6   0 539.875 11.9001   2
  -2   6   0 555.238 11.1727   3
   1  -6   0 -0.7827 1.16873   5
   1  -6   0 1.54277 1.41035   2
   1  -6   0 -0.3715 1.16019   3
   1  -6   0 2.57386 1.48421   1
   1  -6   0 -0.4771 1.43847   4
  -1   6   0 1.67585 1.46657   2
  -1   6   0 0.84056 1.15733   3
  -1   6   0 0.00443 1.44309   4
   0  -6   0 2420.86 39.2438   3
   0  -6   0 2358.18 40.2179   2
   0  -6   0 2359.75 40.4783   5
   0  -6   0 2339.46 40.7551   4
   0  -6   0 2348.11 40.8954   1
   0   6   0 2323.27 40.7656   4
   0   6   0 2395.22 39.2267   3
   0   6   0 2377.73 40.2581   2
  -1  -6   0 10.5808 2.33456   5
  -1  -6   0 7.21778 1.65909   3
  -1  -6   0 3.85876 1.59217   1
   1   6   0 5.01291 1.72422   1
   1   6   0 7.97815 1.88017   2
   1   6   0 8.16284 1.69149   4
  -2  -6   0 122.367 4.99902   1
  -2  -6   0 120.284 4.67165   5
  -2  -6   0 121.915 3.61203   3
   2   6   0 124.303 3.88947   2
   2   6   0 121.500 4.71829   4
   2   6   0 120.833 4.93888   1
  -3  -6   0 597.077 13.4502   1
  -3  -6   0 612.883 11.8449   3
  -3  -6   0 588.845 13.0939   5
   3   6   0 614.629 13.1934   4
   3   6   0 631.689 13.5642   1
   3   6   0 617.346 11.5979   2
  -4  -6   0 341.530 8.07731   3
  -4  -6   0 327.209 9.01865   5
  -4  -6   0 328.361 9.44319   1
   4   6   0 337.062 7.15480   2
   4   6   0 330.763 9.33289   1
   4   6   0 339.864 9.13314   4
  -5  -6   0 67.8980 5.02501   5
  -5  -6   0 78.6687 5.02811   3
   5   6   0 65.4279 5.25600   1
   5   6   0 71.5205 5.31537   4
   5   6   0 77.0820 5.10228   5
  -6  -6   0 208.281 8.22314   5
  -6  -6   0 211.416 8.71739   3
   6   6   0 206.510 8.30906   5
   6   6   0 215.578 8.52624   4
   6   6   0 216.647 8.86824   1
  -7  -6   0 191.153 8.58269   5
  -7  -6   0 173.939 8.90160   3
   7   6   0 179.793 9.52495   1
   7   6   0 183.055 8.34198   5
   7   6   0 184.327 9.00684   4
   6  -7   0 3.39435 3.84527   4
   6  -7   0 -2.5222 3.70196   2
   6  -7   0 4.37455 4.15445   1
  -6   7   0 3.26870 4.44222   2
  -6   7   0 -7.2742 3.61786   3
   5  -7   0 140.964 7.48982   1
   5  -7   0 140.271 7.52669   4
   5  -7   0 146.660 7.71077   2
  -5   7   0 145.324 7.89986   2
  -5   7   0 140.915 7.32276   3
   4  -7   0 933.664 19.7533   2
   4  -7   0 906.268 19.7270   4
   4  -7   0 925.724 19.1670   1
  -4   7   0 880.028 18.8673   3
  -4   7   0 916.381 19.7083   2
   3  -7   0 0.48670 2.27583   2
   3  -7   0 0.14293 1.55218   5
   3  -7   0 -2.8128 2.20552   4
   3  -7   0 0.03887 2.30860   1
  -3   7   0 -0.3837 1.89705   3
  -3   7   0 -0.9504 2.33820   2
   2  -7   0 1.28207 2.14573   1
   2  -7   0 -0.4419 1.87509   2
   2  -7   0 0.86832 1.97787   4
   2  -7   0 -0.1850 1.46688   5
  -2   7   0 2.53825 1.98392   2
  -2   7   0 -1.2426 1.92194   4
  -2   7   0 2.34201 1.64106   3
   1  -7   0 462.309 10.8681   1
   1  -7   0 465.669 10.2175   5
   1  -7   0 454.411 10.5554   2
   1  -7   0 452.935 10.8405   4
  -1   7   0 449.863 9.39037   3
  -1   7   0 459.084 10.5506   2
  -1   7   0 458.275 10.8649   4
   0  -7   0 51.5072 2.64772   3
   0  -7   0 43.0598 3.76169   1
   0  -7   0 52.8494 3.79816   4
   0  -7   0 50.1399 3.52092   5
   0   7   0 51.0466 3.86579   4
   0   7   0 51.9081 3.34627   2
   0   7   0 55.1833 2.61705   3
  -1  -7   0 143.115 5.46796   5
  -1  -7   0 138.407 5.64143   1
  -1  -7   0 147.988 3.92735   3
   1   7   0 134.911 5.54779   1
   1   7   0 145.853 3.87634   3
   1   7   0 150.151 5.53606   4
   1   7   0 146.450 4.67266   2
  -2  -7   0 306.253 6.68748   3
  -2  -7   0 315.585 8.55502   5
  -2  -7   0 317.158 8.74064   1
   2   7   0 307.509 7.27978   2
   2   7   0 312.763 8.52209   4
   2   7   0 313.203 8.72266   1
  -3  -7   0 8.50421 2.41515   1
  -3  -7   0 6.69190 1.65443   3
  -3  -7   0 8.87085 2.34138   5
   3   7   0 9.05386 2.28916   4
   3   7   0 10.6545 2.74604   2
   3   7   0 16.7170 3.65787   1
  -4  -7   0 2.04173 2.72619   1
  -4  -7   0 2.39239 2.46741   5
  -4  -7   0 0.74904 1.95739   3
   4   7   0 5.93266 2.76195   1
   4   7   0 0.60625 2.38948   4
  -5  -7   0 202.729 8.17794   5
  -5  -7   0 188.800 6.96507   3
   5   7   0 210.662 8.69399   1
   5   7   0 197.360 7.99627   4
  -6  -7   0 30.5372 5.69648   5
  -6  -7   0 23.4816 5.80238   3
   6   7   0 37.8747 5.72193   5
   6   7   0 46.7185 6.24281   4
   6   7   0 48.1907 7.20146   1
  -7  -7   0 39.0871 7.38209   5
   7   7   0 54.8976 8.39120   4
   7   7   0 44.5229 8.81993   1
   7   7   0 39.0290 7.11884   5
   6  -8   0 3.18080 4.40830   1
   6  -8   0 1.40983 4.42566   2
   6  -8   0 14.4637 4.79234   4
  -6   8   0 4.27782 4.52410   3
  -6   8   0 7.76349 5.55290   2
   5  -8   0 5.26598 3.86495   1
   5  -8   0 11.0707 3.83080   4
   5  -8   0 8.58123 4.05477   2
  -5   8   0 0.56388 3.33088   3
  -5   8   0 9.41995 4.14726   2
   4  -8   0 95.7510 6.56801   2
   4  -8   0 95.0783 6.70814   4
   4  -8   0 87.9935 6.53550   1
  -4   8   0 91.5584 5.97408   3
  -4   8   0 95.8617 6.48204   2
   3  -8   0 37.0648 5.19763   4
   3  -8   0 40.6084 4.71378   1
   3  -8   0 33.4023 3.90197   5
   3  -8   0 46.9379 5.37536   2
  -3   8   0 40.5885 5.36221   4
  -3   8   0 42.4251 4.28541   3
  -3   8   0 41.9263 5.29446   2
   2  -8   0 161.851 6.62028   4
   2  -8   0 151.359 6.38234   1
   2  -8   0 170.021 5.85507   5
   2  -8   0 163.882 6.53396   2
  -2   8   0 155.824 6.61142   4
  -2   8   0 163.668 5.51556   3
  -2   8   0 164.707 6.42051   2
   1  -8   0 141.138 5.70439   2
   1  -8   0 133.899 6.00996   1
   1  -8   0 143.539 6.12140   4
   1  -8   0 135.701 5.57556   5
  -1   8   0 132.028 5.87712   4
  -1   8   0 134.810 4.61362   3
  -1   8   0 135.997 5.57899   2
   0  -8   0 226.874 7.38814   4
   0  -8   0 229.326 7.07278   5
   0  -8   0 226.515 5.65028   3
   0  -8   0 227.657 7.58918   1
   0   8   0 228.114 5.64903   3
   0   8   0 234.340 7.04288   2
   0   8   0 226.052 7.40126   4
  -1  -8   0 76.2762 4.59577   5
  -1  -8   0 71.2297 3.01482   3
  -1  -8   0 72.2597 4.81936   1
   1   8   0 71.7188 4.01969   2
   1   8   0 75.5148 4.80921   4
   1   8   0 70.1563 2.99005   3
   1   8   0 70.6678 5.07183   1
  -2  -8   0 403.908 8.21105   3
  -2  -8   0 403.628 10.9930   1
  -2  -8   0 389.262 10.5772   5
   2   8   0 400.497 10.4444   4
   2   8   0 393.500 10.8279   1
   2   8   0 404.821 9.20589   2
  -3  -8   0 9.29240 2.74891   5
  -3  -8   0 12.4081 3.16395   1
  -3  -8   0 4.82713 2.10312   3
   3   8   0 11.6754 3.17948   1
   3   8   0 12.9811 3.13626   2
   3   8   0 12.3866 2.93152   4
  -4  -8   0 2.75588 2.98424   5
  -4  -8   0 12.6711 3.58929   1
   4   8   0 11.7263 3.11819   4
   4   8   0 5.35460 3.28528   1
  -5  -8   0 194.424 9.04686   1
  -5  -8   0 185.240 8.64553   5
   5   8   0 199.538 8.45514   4
   5   8   0 202.195 9.41261   1
  -6  -8   0 9.52763 4.11547   5
   6   8   0 6.49917 4.06850   4
   6   8   0 -3.8204 4.95064   1
   6   8   0 3.17835 4.15525   5
   5  -9   0 26.1779 4.94932   4
   5  -9   0 25.5335 4.96692   2
   5  -9   0 41.7137 6.99260   1
  -5   9   0 26.0071 5.17387   2
  -5   9   0 42.3146 6.88107   3
   4  -9   0 44.6286 6.45485   4
   4  -9   0 44.2398 6.18540   1
   4  -9   0 37.2063 6.79656   2
  -4   9   0 34.9954 5.76218   3
  -4   9   0 39.1302 6.28145   4
  -4   9   0 34.5080 6.54824   2
   3  -9   0 143.305 7.37836   2
   3  -9   0 149.030 7.52124   4
   3  -9   0 133.818 6.09560   5
   3  -9   0 147.426 7.47170   1
  -3   9   0 135.369 6.40220   3
  -3   9   0 132.524 7.25706   2
  -3   9   0 140.339 7.33267   4
   2  -9   0 146.152 7.42666   2
   2  -9   0 149.030 7.45707   4
   2  -9   0 159.412 6.58909   5
   2  -9   0 158.484 7.20122   1
  -2   9   0 151.949 7.30675   2
  -2   9   0 156.298 5.87120   3
  -2   9   0 157.214 7.39089   4
   1  -9   0 128.986 5.79426   5
   1  -9   0 124.239 6.49039   4
   1  -9   0 121.310 5.97728   2
   1  -9   0 125.450 6.53888   1
  -1   9   0 128.231 6.45885   4
  -1   9   0 123.009 5.97258   2
  -1   9   0 123.819 4.65321   3
   0  -9   0 34.9699 4.39754   5
   0  -9   0 32.7993 5.14347   1
   0  -9   0 33.9009 4.66429   4
   0  -9   0 33.9128 3.08748   3
   0   9   0 38.3335 4.40628   2
   0   9   0 32.0620 2.98522   3
   0   9   0 41.0046 4.80991   4
  -1  -9   0 471.211 12.1770   5
  -1  -9   0 476.530 12.6289   1
   1   9   0 468.296 11.1150   2
   1   9   0 474.292 12.1796   4
   1   9   0 466.811 12.3717   1
  -2  -9   0 9.41249 3.57659   1
  -2  -9   0 27.8053 4.90728   5
   2   9   0 15.2688 3.22995   4
   2   9   0 14.3094 3.64694   1
   2   9   0 20.3609 3.74287   2
  -3  -9   0 8.45565 3.07039   5
  -3  -9   0 5.39581 3.21046   1
   3   9   0 3.69294 2.74159   2
   3   9   0 4.00092 3.28719   1
   3   9   0 0.72398 2.98185   4
  -4  -9   0 3.48390 3.38393   5
  -4  -9   0 3.51718 3.55748   1
   4   9   0 -3.3551 3.09190   4
   4   9   0 0.45022 3.53040   1
  -5  -9   0 7.95020 3.93527   5
  -5  -9   0 4.01687 4.00074   1
   5   9   0 -3.1159 4.45069   1
   5   9   0 4.13393 3.78227   4
  -6  -9   0 53.3682 7.54367   5
   6   9   0 62.7579 9.97205   1
   6   9   0 47.9463 8.33783   4
   6   9   0 34.6198 5.93658   5
   5 -10   0 22.0849 5.12988   2
   5 -10   0 8.98635 5.17088   1
   5 -10   0 8.89884 4.75974   4
  -5  10   0 6.39742 4.72570   4
   4 -10   0 40.9554 7.05551   1
   4 -10   0 39.7041 7.35342   4
   4 -10   0 48.5745 7.17203   2
  -4  10   0 38.0067 6.16411   3
  -4  10   0 29.7224 7.20573   4
  -4  10   0 34.4986 6.92678   2
   3 -10   0 100.171 6.81431   5
   3 -10   0 93.5261 7.56375   1
   3 -10   0 103.029 7.63518   4
   3 -10   0 101.684 8.23999   2
  -3  10   0 108.589 6.51887   3
  -3  10   0 108.041 7.57929   4
  -3  10   0 86.2574 7.39110   2
   2 -10   0 31.3368 6.10677   4
   2 -10   0 31.4435 5.77827   1
   2 -10   0 35.6821 5.52146   5
   2 -10   0 24.1344 5.92585   2
  -2  10   0 43.1885 5.73235   2
  -2  10   0 32.9908 5.10936   3
  -2  10   0 31.2151 5.87895   4
   1 -10   0 13.9960 3.22705   5
   1 -10   0 12.8534 3.58894   1
   1 -10   0 13.5138 3.61663   4
  -1  10   0 15.4563 3.72284   2
  -1  10   0 10.2679 3.42687   4
   0 -10   0 30.1140 5.51360   4
   0 -10   0 23.9266 3.90984   5
   0 -10   0 20.2436 5.38937   1
   0  10   0 29.3916 4.99525   2
   0  10   0 22.6967 3.88560   4
  -1 -10   0 203.331 8.38747   5
  -1 -10   0 212.000 9.00231   1
   1  10   0 202.870 7.72671   2
   1  10   0 215.763 8.79057   4
   1  10   0 209.437 8.59549   1
  -2 -10   0 369.977 11.2256   5
  -2 -10   0 350.229 11.4067   1
   2  10   0 357.050 11.1665   4
   2  10   0 341.465 9.59293   2
   2  10   0 348.911 11.2508   1
  -3 -10   0 0.27939 3.51643   1
  -3 -10   0 14.4504 3.83561   5
   3  10   0 7.20614 3.89030   1
   3  10   0 6.62992 3.52399   4
  -4 -10   0 59.3877 7.29709   1
  -4 -10   0 45.5443 6.68838   5
   4  10   0 61.0514 6.92858   4
   4  10   0 29.4307 7.72406   1
  -5 -10   0 29.2110 7.24287   5
  -5 -10   0 16.8948 4.98405   1
   5  10   0 10.4752 4.76544   4
   5  10   0 11.1724 5.71237   1
   5  10   0 9.69805 5.13478   5
   4 -11   0 42.5028 8.89238   1
   4 -11   0 40.9377 8.48224   4
  -4  11   0 53.4428 8.72431   4
   3 -11   0 155.210 9.49026   2
   3 -11   0 166.211 10.0984   1
   3 -11   0 149.439 9.90864   4
  -3  11   0 164.373 9.41230   4
  -3  11   0 146.110 8.90100   2
   2 -11   0 3.82726 4.20949   1
   2 -11   0 2.20859 4.09572   4
   2 -11   0 9.44256 3.61225   5
  -2  11   0 3.27247 3.75055   2
  -2  11   0 2.57993 3.90063   4
   1 -11   0 24.7656 5.67014   5
   1 -11   0 22.7810 4.85869   4
   1 -11   0 22.7853 4.72640   1
  -1  11   0 24.0057 4.47999   4
  -1  11   0 20.9018 4.18709   2
   0 -11   0 59.6531 7.27415   4
   0 -11   0 63.7237 6.63287   5
   0 -11   0 55.8903 7.38473   1
   0  11   0 57.8253 6.80543   4
   0  11   0 51.7022 7.18792   1
   0  11   0 64.6750 6.35531   2
  -1 -11   0 15.1374 4.22580   5
  -1 -11   0 14.7948 4.55570   1
   1  11   0 21.5891 5.71170   2
   1  11   0 13.3422 3.87034   1
   1  11   0 18.5775 4.35909   4
  -2 -11   0 165.779 9.22867   1
  -2 -11   0 164.771 8.99582   5
   2  11   0 178.812 9.20883   4
   2  11   0 168.318 9.39651   1
  -3 -11   0 0.19117 3.56472   5
  -3 -11   0 1.55258 4.08335   1
   3  11   0 6.03955 4.20684   4
   3  11   0 -0.8395 4.00104   1
  -4 -11   0 0.27629 4.26688   5
  -4 -11   0 7.26142 4.67910   1
   4  11   0 4.90309 4.68845   4
   4  11   0 -3.6427 5.12545   1
   2 -12   0 101.334 10.4207   1
   2 -12   0 83.7516 8.00003   5
   2 -12   0 84.2240 9.47474   4
  -2  12   0 81.7084 8.71817   4
  -2  12   0 106.229 8.81120   2
   1 -12   0 -2.0508 4.62629   4
   1 -12   0 -2.7684 4.93870   1
   1 -12   0 1.68484 4.13347   5
  -1  12   0 -3.1563 4.50391   2
  -1  12   0 -2.4993 4.15604   4
   0 -12   0 19.8983 5.50038   1
   0 -12   0 14.3123 4.97648   5
   0  12   0 31.4849 7.45017   1
   0  12   0 20.6090 4.55303   2
   0  12   0 39.9984 7.35460   4
  -1 -12   0 18.9526 5.43340   1
  -1 -12   0 21.0107 4.97400   5
   1  12   0 16.8876 4.14169   2
   1  12   0 19.9053 5.22289   1
   1  12   0 15.0486 4.79484   4
  -2 -12   0 206.088 10.8218   1
  -2 -12   0 202.294 11.0280   5
   2  12   0 203.765 10.8735   1
   2  12   0 189.779 10.8516   4
  -3 -12   0 8.52753 4.97373   1
  -3 -12   0 9.07039 4.62220   5
   3  12   0 2.62212 4.74521   1
   2  12  -1 3.35777 4.81714   4
   2  12  -1 -1.3267 4.45123   1
  -2 -12   1 -0.2132 4.61752   5
  -2 -12   1 1.68917 4.88338   1
   1  12  -1 2.22637 4.43659   4
   1  12  -1 5.10107 4.47745   1
  -1 -12   1 -2.2162 4.59794   5
  -1 -12   1 8.94792 5.36893   1
   0  12  -1 7.60787 4.44436   4
   0  12  -1 9.29820 4.55430   1
   0  12  -1 19.7007 4.64438   2
   0 -12   1 7.30551 5.26962   1
   0 -12   1 6.26929 4.75066   5
  -1  12  -1 136.554 9.30179   1
  -1  12  -1 142.017 9.23097   4
  -1  12  -1 162.405 9.91113   2
   1 -12   1 160.726 10.5362   1
   1 -12   1 151.396 10.3970   4
   1 -12   1 145.383 8.60985   5
  -2  12  -1 12.9437 4.95159   2
  -2  12  -1 0.71140 4.46092   4
   2 -12   1 -5.6951 4.03000   5
   2 -12   1 9.26616 5.65825   1
   2 -12   1 6.17874 4.94316   4
   4  11  -1 44.0781 8.09171   5
   4  11  -1 41.3381 8.62324   1
   4  11  -1 37.7712 8.32255   4
  -4 -11   1 24.3431 5.25507   5
  -4 -11   1 27.2081 5.79056   1
   3  11  -1 13.0669 4.65758   1
   3  11  -1 6.40066 4.11647   4
  -3 -11   1 16.4130 4.41830   5
  -3 -11   1 8.11948 4.55954   1
   2  11  -1 67.7400 7.33715   4
   2  11  -1 62.6952 7.74177   1
  -2 -11   1 67.3170 7.52435   5
  -2 -11   1 72.0811 7.94195   1
   1  11  -1 120.796 7.03840   2
   1  11  -1 117.376 7.86587   1
   1  11  -1 120.140 8.28906   4
  -1 -11   1 127.004 8.81984   1
  -1 -11   1 115.810 8.26983   5
   0  11  -1 12.0396 3.73495   2
   0  11  -1 12.6666 3.95568   1
   0  11  -1 11.4892 4.01745   4
   0 -11   1 9.09710 4.02800   5
   0 -11   1 11.9866 4.32344   4
   0 -11   1 12.1653 4.56218   1
  -1  11  -1 -2.4403 3.55005   4
  -1  11  -1 0.44336 3.64797   2
   1 -11   1 0.32109 4.04894   1
   1 -11   1 2.88031 3.43797   5
   1 -11   1 -2.0833 3.83039   4
  -2  11  -1 7.83591 4.33538   2
  -2  11  -1 9.87798 3.93931   4
   2 -11   1 11.1572 3.80451   5
   2 -11   1 3.59914 4.28964   2
   2 -11   1 5.09284 4.45190   1
   2 -11   1 8.56552 4.54694   4
  -3  11  -1 1.07407 4.15646   2
  -3  11  -1 -2.5926 4.18835   4
   3 -11   1 -0.7725 5.02649   2
   3 -11   1 -0.2108 4.32348   1
   3 -11   1 -0.7895 4.85312   4
   5  10  -1 2.81088 5.02855   5
   5  10  -1 2.90519 5.22216   1
   5  10  -1 0.29386 4.47823   4
  -5 -10   1 0.05835 4.23093   5
  -5 -10   1 2.34113 4.68991   1
   4  10  -1 -0.1365 4.06844   5
   4  10  -1 1.21806 3.64551   4
   4  10  -1 4.83887 4.28604   1
  -4 -10   1 1.81445 4.46631   1
  -4 -10   1 -0.3806 3.75358   5
   3  10  -1 3.02053 3.63352   1
   3  10  -1 7.30881 3.48827   4
  -3 -10   1 -1.2663 3.24091   5
  -3 -10   1 2.35780 3.60506   1
   2  10  -1 48.5825 5.15207   2
   2  10  -1 49.0518 6.26446   4
   2  10  -1 60.9439 6.12744   1
  -2 -10   1 60.8544 5.91572   5
  -2 -10   1 53.1781 6.66196   1
   1  10  -1 195.350 8.67045   1
   1  10  -1 198.986 8.60928   4
   1  10  -1 188.487 7.41115   2
  -1 -10   1 201.241 8.48733   5
  -1 -10   1 201.751 8.75256   1
   0  10  -1 12.2963 3.47872   1
   0  10  -1 6.25982 3.05395   2
   0  10  -1 12.5018 3.33489   4
   0 -10   1 7.30956 3.40831   4
   0 -10   1 10.8314 3.31385   5
   0 -10   1 14.3607 3.76222   1
  -1  10  -1 -5.6362 2.91975   4
  -1  10  -1 -4.3305 3.26914   2
   1 -10   1 4.19860 3.36989   1
   1 -10   1 -3.3176 2.92568   5
   1 -10   1 -0.2003 3.27075   2
   1 -10   1 -2.9278 3.07458   4
  -2  10  -1 279.688 8.82863   3
  -2  10  -1 284.370 10.1843   4
  -2  10  -1 298.318 10.1260   2
   2 -10   1 268.543 10.2201   2
   2 -10   1 284.247 10.4362   4
   2 -10   1 290.537 10.2444   1
   2 -10   1 286.365 9.67941   5
  -3  10  -1 1.95055 3.62946   2
  -3  10  -1 8.10152 3.77516   4
  -3  10  -1 -6.9408 3.11144   3
   3 -10   1 6.38621 4.13921   2
   3 -10   1 -2.8176 3.79547   4
   3 -10   1 7.76917 3.53513   1
  -4  10  -1 6.55346 3.93322   3
  -4  10  -1 5.85908 4.31854   4
  -4  10  -1 0.02032 4.18450   2
   4 -10   1 -0.5296 3.98663   1
   4 -10   1 -3.6899 4.61234   4
   4 -10   1 5.30444 4.73096   2
   6   9  -1 208.994 10.3867   4
   6   9  -1 199.291 12.1425   1
   6   9  -1 198.454 11.2274   5
  -6  -9   1 197.005 10.1619   5
   5   9  -1 162.526 10.1862   1
   5   9  -1 166.186 8.76547   4
   5   9  -1 170.262 9.69290   5
  -5  -9   1 184.641 8.94739   5
   4   9  -1 2.25366 3.70666   1
   4   9  -1 7.62549 3.70628   4
  -4  -9   1 5.63740 3.72478   1
  -4  -9   1 9.63134 3.66633   5
   3   9  -1 5.03995 3.23596   1
   3   9  -1 4.07124 2.94630   4
  -3  -9   1 0.23191 3.21631   1
  -3  -9   1 -1.5363 2.81273   5
   2   9  -1 237.480 8.74058   1
   2   9  -1 243.540 7.05753   2
   2   9  -1 235.698 8.38706   4
  -2  -9   1 240.561 8.78137   5
  -2  -9   1 228.981 8.86495   1
   1   9  -1 293.479 8.21807   2
   1   9  -1 277.200 8.92845   4
   1   9  -1 295.806 7.16831   3
   1   9  -1 281.617 9.38567   1
  -1  -9   1 284.138 9.64584   1
  -1  -9   1 287.026 9.14513   5
   0   9  -1 294.511 7.22778   3
   0   9  -1 271.195 9.29016   1
   0   9  -1 286.483 9.02594   4
   0   9  -1 282.307 8.39834   2
   0  -9   1 293.206 8.76393   5
   0  -9   1 287.630 9.37336   1
   0  -9   1 281.310 7.21068   3
   0  -9   1 278.145 8.81665   4
  -1   9  -1 4.69852 2.16114   3
  -1   9  -1 2.96349 2.73949   4
  -1   9  -1 6.27971 2.63476   2
   1  -9   1 9.44630 2.93963   4
   1  -9   1 2.39956 2.65980   2
   1  -9   1 4.76778 2.54746   5
   1  -9   1 8.05978 2.88130   1
   1  -9   1 2.29060 2.25675   3
  -2   9  -1 0.59160 2.41804   3
  -2   9  -1 -0.7225 3.04700   2
  -2   9  -1 1.08584 2.95501   4
   2  -9   1 0.66117 2.74539   1
   2  -9   1 3.68368 2.86467   5
   2  -9   1 2.74001 2.98701   4
   2  -9   1 3.43094 3.06173   2
  -3   9  -1 132.134 7.40474   4
  -3   9  -1 136.115 6.84482   3
  -3   9  -1 144.591 7.68090   2
   3  -9   1 138.034 7.27375   1
   3  -9   1 127.248 7.63039   4
   3  -9   1 140.796 7.68128   2
   3  -9   1 132.563 6.14804   5
  -4   9  -1 197.476 8.36756   3
  -4   9  -1 195.616 9.18631   2
  -4   9  -1 200.025 9.05532   4
   4  -9   1 188.855 9.42096   4
   4  -9   1 192.016 8.79101   1
   4  -9   1 192.777 9.32576   2
  -5   9  -1 -1.3770 4.43606   2
  -5   9  -1 -3.6001 3.66703   3
   5  -9   1 -1.5876 4.10204   4
   5  -9   1 1.09173 4.11381   1
   5  -9   1 -1.1361 4.14192   2
   6   8  -1 39.8549 8.29021   1
   6   8  -1 19.5455 4.75035   5
   6   8  -1 29.1294 6.76228   4
  -6  -8   1 21.5354 4.73786   5
   5   8  -1 326.694 11.0472   5
   5   8  -1 306.403 11.5202   1
   5   8  -1 317.328 10.5530   4
  -5  -8   1 319.771 10.6129   5
   4   8  -1 519.129 13.8312   1
   4   8  -1 490.817 12.8487   4
  -4  -8   1 495.628 13.1759   5
  -4  -8   1 504.072 13.7854   1
   3   8  -1 6.91572 2.50630   2
   3   8  -1 2.31577 2.67161   4
   3   8  -1 8.82867 2.94496   1
  -3  -8   1 5.86862 3.11392   1
  -3  -8   1 4.13158 2.62997   5
  -3  -8   1 6.61747 2.11337   3
   2   8  -1 6.62796 1.94625   2
   2   8  -1 4.81897 2.38555   4
   2   8  -1 15.4456 4.00249   1
  -2  -8   1 3.32940 1.78660   3
  -2  -8   1 5.62574 2.51791   5
  -2  -8   1 11.7630 2.98411   1
   1   8  -1 489.882 11.7721   4
   1   8  -1 483.413 10.6142   2
   1   8  -1 487.468 9.91071   3
   1   8  -1 474.206 12.0014   1
  -1  -8   1 481.185 12.0010   1
  -1  -8   1 481.314 9.89676   3
  -1  -8   1 483.045 11.7265   5
   0   8  -1 374.541 9.94852   4
   0   8  -1 369.044 8.23558   3
   0   8  -1 369.949 9.22212   2
   0  -8   1 380.096 9.84591   4
   0  -8   1 368.015 9.18810   2
   0  -8   1 373.304 10.0006   1
   0  -8   1 357.054 8.20163   3
   0  -8   1 365.106 9.55553   5
  -1   8  -1 41.3621 3.96785   2
  -1   8  -1 39.5480 3.33163   3
  -1   8  -1 43.4444 4.18219   4
   1  -8   1 37.1934 3.89348   5
   1  -8   1 49.7736 4.39210   1
   1  -8   1 50.7343 4.11814   2
   1  -8   1 39.8714 4.10264   4
   1  -8   1 38.7743 3.32305   3
  -2   8  -1 15.7139 3.50631   3
  -2   8  -1 18.8736 4.04387   2
  -2   8  -1 17.1268 4.24212   4
   2  -8   1 11.1276 2.68850   2
   2  -8   1 12.3485 2.91470   4
   2  -8   1 20.1202 3.59702   5
   2  -8   1 11.3522 2.61525   1
  -3   8  -1 7.08674 2.56301   3
  -3   8  -1 7.10314 3.12202   4
  -3   8  -1 8.83108 3.45338   2
   3  -8   1 4.55306 3.17152   4
   3  -8   1 5.40855 2.82872   1
   3  -8   1 9.19604 3.29541   2
   3  -8   1 3.67414 2.24137   5
  -4   8  -1 229.796 8.40666   3
  -4   8  -1 232.433 8.96725   2
   4  -8   1 232.126 9.15944   4
   4  -8   1 226.063 8.74139   1
   4  -8   1 228.224 8.92467   2
  -5   8  -1 44.7741 7.51828   2
  -5   8  -1 36.4188 6.14261   3
   5  -8   1 39.7815 6.81704   4
   5  -8   1 33.7545 6.49127   1
   5  -8   1 44.3705 7.04862   2
  -6   8  -1 2.41224 4.27063   3
  -6   8  -1 3.47984 5.25178   2
   6  -8   1 2.94218 4.67993   2
   6  -8   1 3.27925 4.36175   4
   7   7  -1 1.18379 5.34005   1
   7   7  -1 6.19485 4.39890   4
   7   7  -1 0.93929 4.40687   5
  -7  -7   1 -3.2755 4.35275   5
   6   7  -1 90.1816 7.05518   4
   6   7  -1 98.9658 8.37538   1
   6   7  -1 90.7532 6.89526   5
  -6  -7   1 88.5900 7.36085   3
  -6  -7   1 90.9216 6.80508   5
   5   7  -1 12.0330 3.39094   5
   5   7  -1 18.7271 3.97721   1
   5   7  -1 13.6932 3.43128   4
  -5  -7   1 18.8389 4.94599   5
  -5  -7   1 17.0581 3.38864   3
   4   7  -1 25.9009 4.74508   1
   4   7  -1 24.3564 4.04050   4
  -4  -7   1 24.7910 4.73971   5
  -4  -7   1 29.4166 3.82470   3
  -4  -7   1 30.0363 4.92792   1
   3   7  -1 27.1798 4.11403   1
   3   7  -1 23.3516 3.69122   4
   3   7  -1 20.8232 2.69051   2
  -3  -7   1 21.9006 4.10017   1
  -3  -7   1 23.8505 3.00139   3
  -3  -7   1 23.1528 3.93112   5
   2   7  -1 11.7530 2.44300   2
   2   7  -1 10.1255 2.28003   4
   2   7  -1 9.85873 2.16591   1
  -2  -7   1 7.98619 2.05116   5
  -2  -7   1 10.5138 2.43045   3
  -2  -7   1 15.0969 3.33852   1
   1   7  -1 360.565 9.09376   4
   1   7  -1 364.744 9.28460   1
   1   7  -1 356.272 8.08357   2
  -1  -7   1 334.352 8.90153   5
  -1  -7   1 353.453 9.21270   1
  -1  -7   1 362.896 7.72084   3
   0   7  -1 760.687 15.9361   4
   0   7  -1 775.729 14.6195   3
   0   7  -1 770.097 15.2896   2
   0  -7   1 789.213 16.0036   4
   0  -7   1 792.939 15.8001   5
   0  -7   1 781.386 14.5904   3
   0  -7   1 785.107 16.2513   1
   0  -7   1 805.234 15.4290   2
  -1   7  -1 46.7824 3.85668   4
  -1   7  -1 41.4914 3.02413   3
  -1   7  -1 36.1740 3.46251   2
   1  -7   1 50.8613 4.03006   4
   1  -7   1 44.1482 3.86343   1
   1  -7   1 42.9642 3.07790   3
   1  -7   1 41.6564 3.50658   2
   1  -7   1 45.3257 3.27103   5
  -2   7  -1 172.020 6.26370   2
  -2   7  -1 163.083 5.53328   3
  -2   7  -1 171.131 6.29134   4
   2  -7   1 172.303 5.37593   5
   2  -7   1 175.911 6.30872   2
   2  -7   1 165.763 6.12029   1
   2  -7   1 176.166 6.24024   4
  -3   7  -1 16.5040 3.94751   2
  -3   7  -1 5.69341 2.14256   3
   3  -7   1 14.3644 2.83220   5
   3  -7   1 8.16770 2.35822   1
   3  -7   1 11.2629 2.71977   4
   3  -7   1 12.6985 2.86618   2
  -4   7  -1 2.02538 2.51487   3
  -4   7  -1 4.63424 2.85775   2
   4  -7   1 -3.2545 2.75328   1
   4  -7   1 0.04485 2.79597   4
   4  -7   1 2.61804 2.88991   2
  -5   7  -1 57.8664 6.06496   3
  -5   7  -1 67.4124 6.75106   2
   5  -7   1 41.1687 6.67911   1
   5  -7   1 64.1379 6.44057   2
   5  -7   1 59.5660 6.39885   4
  -6   7  -1 5.07244 4.51944   2
  -6   7  -1 11.1422 4.05750   3
   6  -7   1 -2.4426 3.83238   4
   6  -7   1 -0.0487 3.87767   2
   6  -7   1 7.84448 4.00732   1
   7   6  -1 -5.1159 3.45858   5
   7   6  -1 -4.7294 3.63055   4
   7   6  -1 -5.4172 4.68521   1
  -7  -6   1 0.74985 3.70205   5
  -7  -6   1 6.12075 3.85308   3
   6   6  -1 2.46223 3.03980   5
   6   6  -1 0.41908 3.11348   4
   6   6  -1 -0.5931 3.35454   1
  -6  -6   1 1.05146 3.66192   3
  -6  -6   1 1.42812 3.21002   5
   5   6  -1 124.526 6.25026   4
   5   6  -1 123.652 7.14249   1
   5   6  -1 133.801 6.21546   5
  -5  -6   1 143.838 6.34240   5
  -5  -6   1 137.955 6.22177   3
   4   6  -1 279.143 8.64660   1
   4   6  -1 274.720 8.24184   5
   4   6  -1 277.688 8.07613   4
  -4  -6   1 289.553 8.74722   1
  -4  -6   1 275.933 8.35970   5
  -4  -6   1 278.240 7.56274   3
   3   6  -1 114.803 3.47851   2
   3   6  -1 110.860 4.72010   4
   3   6  -1 113.350 5.17904   1
  -3  -6   1 120.727 4.28900   3
  -3  -6   1 118.447 5.10517   5
  -3  -6   1 121.993 5.40589   1
   2   6  -1 797.980 16.3537   1
   2   6  -1 812.950 14.6472   2
   2   6  -1 815.348 15.9574   4
  -2  -6   1 810.847 14.9019   3
  -2  -6   1 806.266 16.4258   1
  -2  -6   1 800.997 16.1788   5
   1   6  -1 39.8705 2.45020   2
   1   6  -1 37.8435 3.17030   1
   1   6  -1 32.0569 2.88403   4
  -1  -6   1 37.9586 2.36590   3
  -1  -6   1 34.6069 2.98394   1
  -1  -6   1 30.8482 2.81637   5
   0   6  -1 1197.01 22.2754   4
   0   6  -1 1210.77 21.8017   2
   0   6  -1 1241.12 21.3814   3
   0  -6   1 1222.23 22.2218   5
   0  -6   1 1222.23 21.3319   3
   0  -6   1 1205.75 22.3156   4
   0  -6   1 1216.85 22.6336   1
   0  -6   1 1217.69 21.8200   2
  -1   6  -1 1814.25 31.9668   2
  -1   6  -1 1831.51 31.3893   3
  -1   6  -1 1814.92 32.2088   4
   1  -6   1 1790.73 31.9208   2
   1  -6   1 1833.07 31.3731   3
   1  -6   1 1826.11 32.2161   1
   1  -6   1 1841.53 31.6071   5
   1  -6   1 1813.67 32.2246   4
  -2   6  -1 2.00172 1.45908   3
  -2   6  -1 0.01071 1.62510   2
   2  -6   1 -0.6642 1.66025   2
   2  -6   1 0.05592 1.59647   4
   2  -6   1 -3.3266 1.43838   1
   2  -6   1 0.74086 1.26812   5
  -3   6  -1 109.506 5.02684   3
  -3   6  -1 118.608 5.21349   2
   3  -6   1 125.901 3.99656   5
   3  -6   1 122.714 5.37193   4
   3  -6   1 121.565 5.21637   2
   3  -6   1 115.516 4.96342   1
  -4   6  -1 35.1668 4.28050   3
  -4   6  -1 36.2562 4.65982   2
   4  -6   1 43.5268 4.78994   4
   4  -6   1 35.1947 4.40065   2
   4  -6   1 37.8511 4.37096   1
  -5   6  -1 23.0499 5.32266   3
  -5   6  -1 21.0283 5.42257   2
   5  -6   1 24.5067 5.42372   1
   5  -6   1 16.2807 3.45405   2
   5  -6   1 22.9618 5.14234   4
  -6   6  -1 130.924 8.32779   2
  -6   6  -1 122.657 7.73062   3
   6  -6   1 117.485 7.73289   2
   6  -6   1 121.519 7.63375   4
   6  -6   1 130.847 7.61721   1
  -7   6  -1 10.7971 5.07043   3
  -7   6  -1 7.21293 5.33191   2
   7  -6   1 14.6878 4.57414   2
   7  -6   1 13.6405 4.92783   4
   7   5  -1 224.585 8.98569   5
   7   5  -1 246.382 10.3142   1
   7   5  -1 242.210 9.34787   4
  -7  -5   1 247.530 9.06496   5
  -7  -5   1 242.165 9.74197   3
   6   5  -1 22.7613 5.39502   1
   6   5  -1 30.9327 5.06861   5
   6   5  -1 37.3600 5.14854   4
  -6  -5   1 25.6629 5.02740   5
  -6  -5   1 45.4812 5.67413   3
   5   5  -1 18.1279 4.00050   4
   5   5  -1 17.3998 4.33331   1
   5   5  -1 19.3287 4.06215   5
  -5  -5   1 20.5029 3.96428   5
  -5  -5   1 21.9844 4.19413   3
   4   5  -1 102.256 2.91185   2
   4   5  -1 105.181 5.23228   1
   4   5  -1 100.234 4.56764   4
   4   5  -1 98.3214 4.80284   5
  -4  -5   1 102.154 4.46398   3
  -4  -5   1 105.601 4.73483   5
   3   5  -1 146.480 4.89364   4
   3   5  -1 140.026 5.24647   1
   3   5  -1 145.835 3.56541   2
  -3  -5   1 150.951 4.62050   3
  -3  -5   1 146.006 5.13348   5
  -3  -5   1 151.899 5.53841   1
   2   5  -1 90.1143 3.56334   4
   2   5  -1 78.5641 3.74749   1
   2   5  -1 87.4567 2.79742   2
  -2  -5   1 89.7375 3.83739   1
  -2  -5   1 88.3316 3.74281   5
  -2  -5   1 87.5637 3.14469   3
   1   5  -1 0.31899 0.94584   2
   1   5  -1 1.26951 1.26299   1
   1   5  -1 0.99245 1.15386   4
  -1  -5   1 0.52137 0.91029   3
  -1  -5   1 -1.3169 1.05998   5
  -1  -5   1 1.05228 1.24186   1
   0   5  -1 566.173 10.6820   3
   0   5  -1 571.437 11.4110   4
   0   5  -1 553.335 10.9248   2
   0  -5   1 560.642 11.3828   4
   0  -5   1 570.399 11.2692   5
   0  -5   1 574.128 11.5881   1
   0  -5   1 572.316 10.6880   3
   0  -5   1 561.689 10.9709   2
  -1   5  -1 34.2066 2.26832   3
  -1   5  -1 28.3059 2.40115   4
  -1   5  -1 34.9895 2.34175   2
   1  -5   1 29.7638 2.12808   5
   1  -5   1 30.9423 2.30774   2
   1  -5   1 33.5568 2.51548   1
   1  -5   1 33.0561 2.42683   4
   1  -5   1 31.9450 2.25708   3
  -2   5  -1 94.8894 4.04369   2
  -2   5  -1 97.7877 3.76102   3
   2  -5   1 91.3954 3.98752   2
   2  -5   1 93.1703 3.69249   1
   2  -5   1 91.9585 3.17656   5
   2  -5   1 97.1008 4.04964   4
  -3   5  -1 1.20313 1.69570   3
  -3   5  -1 2.67422 1.85937   2
   3  -5   1 2.25724 1.62473   1
   3  -5   1 -0.2382 1.70160   2
   3  -5   1 -0.0912 1.72004   4
   3  -5   1 1.43843 1.16253   5
  -4   5  -1 10.7848 2.42491   2
  -4   5  -1 8.36409 2.27883   3
   4  -5   1 9.50836 2.45723   4
   4  -5   1 9.90655 2.54545   2
   4  -5   1 12.3326 2.22772   1
  -5   5  -1 672.849 15.5587   2
  -5   5  -1 677.800 15.6622   3
   5  -5   1 682.466 14.7117   1
   5  -5   1 678.248 15.8788   4
   5  -5   1 656.989 15.4125   2
  -6   5  -1 22.3616 5.75534   3
  -6   5  -1 30.0606 6.06020   2
   6  -5   1 30.2619 5.65373   2
   6  -5   1 24.5476 5.57934   4
   6  -5   1 29.8365 5.63318   1
  -7   5  -1 25.2614 5.24699   2
  -7   5  -1 14.8060 4.47662   3
   7  -5   1 28.7769 6.38600   4
   7  -5   1 28.6401 6.81282   2
   8   4  -1 -0.9068 4.37588   1
   8   4  -1 -5.7483 4.39576   4
  -8  -4   1 -4.0723 5.01131   3
   7   4  -1 58.8209 6.28572   4
   7   4  -1 70.6306 6.24461   5
   7   4  -1 64.2205 6.37853   1
  -7  -4   1 66.4744 6.94047   3
  -7  -4   1 60.1651 5.71318   5
   6   4  -1 79.7616 5.64123   4
   6   4  -1 71.7748 5.33424   5
   6   4  -1 73.6372 5.65643   1
  -6  -4   1 77.4766 5.04980   5
  -6  -4   1 75.6360 6.04331   3
   5   4  -1 3.23367 2.28983   1
   5   4  -1 6.18871 2.01156   5
   5   4  -1 5.57259 2.11814   4
  -5  -4   1 5.04033 2.02202   5
  -5  -4   1 2.50553 2.26395   3
   4   4  -1 170.872 5.44268   4
   4   4  -1 170.953 5.49275   5
   4   4  -1 167.601 6.04944   1
   4   4  -1 166.383 3.74572   2
  -4  -4   1 164.368 5.39511   5
  -4  -4   1 163.676 5.46388   3
   3   4  -1 513.127 11.0313   1
   3   4  -1 507.584 10.4769   4
   3   4  -1 513.657 8.93586   2
  -3  -4   1 499.141 10.9487   1
  -3  -4   1 489.055 10.6593   5
  -3  -4   1 518.266 10.3416   3
   2   4  -1 25.7463 2.04188   4
   2   4  -1 22.3712 1.50448   2
   2   4  -1 20.9221 2.09026   1
  -2  -4   1 22.4839 2.11548   5
  -2  -4   1 23.2779 1.93576   3
  -2  -4   1 22.3209 2.17093   1
   1   4  -1 3.83550 1.11273   1
   1   4  -1 3.70548 0.83420   2
   1   4  -1 2.55834 0.95890   4
  -1  -4   1 2.11221 1.06299   1
  -1  -4   1 1.81052 1.00062   5
  -1  -4   1 3.04407 0.89151   3
   0   4  -1 617.007 11.5063   2
   0   4  -1 628.293 11.8342   4
   0  -4   1 630.259 11.3898   3
   0  -4   1 620.410 11.5226   2
   0  -4   1 621.596 11.7368   5
   0  -4   1 628.575 11.8265   4
   0  -4   1 623.179 11.9868   1
  -1   4  -1 1181.40 20.6080   3
  -1   4  -1 1172.33 20.8412   2
   1  -4   1 1189.34 20.8448   1
   1  -4   1 1187.00 20.5982   3
   1  -4   1 1189.09 20.8665   2
   1  -4   1 1183.99 20.3883   5
   1  -4   1 1160.76 20.8895   4
  -2   4  -1 575.797 11.4377   3
   2  -4   1 572.823 10.4266   5
   2  -4   1 570.682 11.2235   1
   2  -4   1 567.688 11.4340   3
   2  -4   1 574.674 11.5945   4
   2  -4   1 577.132 11.5952   2
  -3   4  -1 43.7465 3.06935   3
  -3   4  -1 41.1120 3.01529   2
   3  -4   1 50.7092 2.91957   1
   3  -4   1 41.6892 3.05113   4
   3  -4   1 47.9937 3.21776   2
   3  -4   1 50.5010 2.02652   5
  -4   4  -1 121.596 5.11034   2
  -4   4  -1 121.068 5.08208   3
   4  -4   1 125.696 5.11429   2
   4  -4   1 119.404 5.13885   4
   4  -4   1 122.171 4.47772   1
  -5   4  -1 688.781 15.3424   2
  -5   4  -1 702.639 15.8982   3
   5  -4   1 693.255 15.3285   2
   5  -4   1 696.238 15.6709   4
   5  -4   1 703.200 14.4450   1
  -6   4  -1 488.446 12.8919   2
  -6   4  -1 493.746 13.3954   3
   6  -4   1 466.388 11.8481   1
   6  -4   1 491.458 12.8113   2
   6  -4   1 506.192 13.1047   4
  -7   4  -1 12.4444 4.30895   2
  -7   4  -1 9.14816 4.21361   3
   7  -4   1 12.2667 4.03232   4
   7  -4   1 13.4167 4.13866   2
   8   3  -1 -4.2072 3.99659   1
   8   3  -1 9.58192 4.45105   4
  -8  -3   1 5.44615 5.37686   3
   7   3  -1 28.8200 5.26463   1
   7   3  -1 20.4892 4.95904   5
   7   3  -1 37.6357 5.44896   4
  -7  -3   1 35.1099 6.39616   3
  -7  -3   1 24.5042 4.55390   5
   6   3  -1 202.346 6.73295   5
   6   3  -1 207.953 7.46225   1
   6   3  -1 197.024 7.30220   4
  -6  -3   1 191.803 6.53395   5
  -6  -3   1 207.759 7.85960   3
   5   3  -1 357.133 8.49761   5
   5   3  -1 361.060 9.31099   1
   5   3  -1 343.971 7.13629   2
   5   3  -1 344.353 8.80648   4
  -5  -3   1 346.810 8.45673   5
  -5  -3   1 346.488 9.31167   3
   4   3  -1 232.463 4.88580   2
   4   3  -1 233.305 6.18135   5
   4   3  -1 234.078 6.65805   1
   4   3  -1 232.740 6.22646   4
  -4  -3   1 237.990 6.13958   5
  -4  -3   1 239.660 6.56334   3
   3   3  -1 211.394 5.73659   1
   3   3  -1 207.450 5.40441   5
   3   3  -1 208.830 5.32191   4
   3   3  -1 210.334 4.08677   2
  -3  -3   1 206.472 5.38115   3
  -3  -3   1 200.084 5.35784   5
   2   3  -1 3633.77 60.7264   4
   2   3  -1 3765.63 61.2655   1
   2   3  -1 3746.21 59.6407   2
  -2  -3   1 3730.86 61.2814   1
  -2  -3   1 3756.43 60.7536   3
  -2  -3   1 3752.89 61.0724   5
  -2  -3   1 3527.91 59.5977   2
   1   3  -1 570.536 10.8371   1
   1   3  -1 587.800 10.5865   4
   1   3  -1 578.472 9.92271   2
  -1  -3   1 564.725 10.8273   1
  -1  -3   1 566.592 10.7282   5
  -1  -3   1 560.101 10.3062   3
   0   3  -1 447.970 8.20932   2
   0   3  -1 430.671 8.38644   4
   0  -3   1 441.890 8.19748   2
   0  -3   1 434.876 8.37620   5
   0  -3   1 446.825 8.58619   1
   0  -3   1 430.247 8.38094   4
   0  -3   1 450.929 8.24394   3
  -1   3  -1 212.069 4.75598   3
   1  -3   1 210.661 4.76408   1
   1  -3   1 211.472 4.87045   4
   1  -3   1 187.910 4.33262   5
   1  -3   1 212.697 4.78454   3
   1  -3   1 211.468 4.86399   2
  -2   3  -1 389.504 8.24107   3
   2  -3   1 379.861 8.25014   4
   2  -3   1 404.620 7.11030   5
   2  -3   1 394.300 7.88325   1
   2  -3   1 380.935 8.21715   2
  -3   3  -1 920.338 17.3629   3
   3  -3   1 924.903 16.6219   1
   3  -3   1 914.180 17.2663   2
   3  -3   1 902.175 17.2712   4
  -4   3  -1 17.7733 3.00320   3
   4  -3   1 22.3455 2.49699   1
   4  -3   1 18.2753 2.94470   4
   4  -3   1 16.3959 2.80240   2
  -5   3  -1 1.91025 2.29765   3
   5  -3   1 3.42207 2.22330   4
   5  -3   1 2.12576 2.02901   2
   5  -3   1 2.41049 1.99276   1
  -6   3  -1 117.336 7.03191   3
  -6   3  -1 128.109 6.33577   2
   6  -3   1 127.724 6.27551   2
   6  -3   1 124.598 6.09063   1
   6  -3   1 130.711 6.90514   4
  -7   3  -1 318.304 11.3697   3
  -7   3  -1 307.100 10.3356   2
   7  -3   1 301.216 10.6917   4
   7  -3   1 309.553 10.4364   2
  -8   3  -1 12.8154 4.78388   2
  -8   3  -1 6.77877 4.68494   3
   8  -3   1 13.9678 4.55049   4
   8  -3   1 10.2730 4.80543   2
   8   2  -1 36.8140 6.85191   4
   8   2  -1 28.2035 4.84668   1
  -8  -2   1 24.0293 5.64738   3
   7   2  -1 -0.5292 3.44277   1
   7   2  -1 0.85578 3.03430   4
  -7  -2   1 2.06587 3.80103   3
   6   2  -1 531.702 11.5602   5
   6   2  -1 545.336 12.7212   4
   6   2  -1 546.548 10.9734   2
   6   2  -1 537.969 12.8094   1
  -6  -2   1 542.142 11.5472   5
  -6  -2   1 538.651 13.2252   3
   5   2  -1 417.968 10.0052   4
   5   2  -1 429.303 10.3453   1
   5   2  -1 429.862 8.68894   2
   5   2  -1 447.611 9.42161   5
  -5  -2   1 426.630 10.6247   3
  -5  -2   1 435.647 9.39576   5
   4   2  -1 340.372 7.77232   4
   4   2  -1 331.860 8.09394   1
   4   2  -1 343.547 6.72587   2
   4   2  -1 341.181 7.51344   5
  -4  -2   1 339.598 7.49417   5
  -4  -2   1 330.699 8.19643   3
   3   2  -1 -0.0612 0.91786   5
   3   2  -1 0.98745 0.64489   2
   3   2  -1 0.47696 1.02451   1
   3   2  -1 0.69325 0.96768   4
  -3  -2   1 -0.2670 1.07609   3
  -3  -2   1 -0.9140 0.88016   5
   2   2  -1 13.0487 1.35262   4
   2   2  -1 13.3041 1.50640   5
   2   2  -1 10.5158 1.51393   1
  -2  -2   1 13.3903 0.86716   2
  -2  -2   1 14.0274 1.47047   5
  -2  -2   1 14.5115 1.57991   3
   1   2  -1 636.086 11.4846   1
   1   2  -1 647.948 10.5836   2
   1   2  -1 646.145 11.1486   4
   1   2  -1 621.560 10.5485   2
  -1  -2   1 627.642 11.3892   5
  -1  -2   1 644.994 11.2244   3
  -1  -2   1 626.241 10.5573   2
  -1  -2   1 653.649 11.5523   1
   0   2  -1 1912.61 32.3358   4
   0   2  -1 1983.34 32.2655   2
   0  -2   1 1954.04 32.2381   2
   0  -2   1 1986.20 32.3944   3
   0  -2   1 2010.23 32.4302   5
   0  -2   1 2014.61 32.5230   1
   0  -2   1 1936.41 32.3548   4
  -1   2  -1 815.147 14.3301   3
   1  -2   1 835.783 13.7573   5
   1  -2   1 816.811 14.3228   3
   1  -2   1 810.943 14.3192   4
   1  -2   1 816.165 14.3292   2
   1  -2   1 815.075 14.0647   1
  -2   2  -1 5660.26 90.5390   3
   2  -2   1 5094.18 89.7308   1
   2  -2   1 5796.39 90.5388   4
   2  -2   1 5651.98 90.3889   2
  -3   2  -1 2846.81 47.7046   3
   3  -2   1 2790.06 47.3016   2
   3  -2   1 2805.42 47.4721   4
   3  -2   1 2832.65 46.6704   1
  -4   2  -1 30.7267 2.99148   3
   4  -2   1 25.7400 2.38610   1
   4  -2   1 28.6271 2.89636   4
   4  -2   1 26.2697 2.77357   2
  -5   2  -1 3.15713 2.24106   3
   5  -2   1 2.19999 1.64780   1
   5  -2   1 4.37440 2.00088   4
   5  -2   1 4.54602 2.01905   2
  -6   2  -1 81.7609 6.37665   3
   6  -2   1 69.9404 5.13149   2
   6  -2   1 77.0015 5.39829   4
   6  -2   1 81.3484 4.92368   1
  -7   2  -1 170.035 7.73654   2
  -7   2  -1 172.397 9.10959   3
   7  -2   1 160.755 7.49279   2
   7  -2   1 149.355 7.34674   1
   7  -2   1 170.804 7.91861   4
  -8   2  -1 -0.9366 4.79636   3
  -8   2  -1 -5.0417 3.89783   2
   8  -2   1 0.79718 4.17845   2
   8  -2   1 10.0596 4.21838   4
   8   1  -1 15.1380 4.02207   1
   8   1  -1 11.9627 4.14140   4
  -8  -1   1 17.1126 5.05601   3
   7   1  -1 12.0691 3.33311   4
   7   1  -1 6.80004 3.32913   1
  -7  -1   1 7.69276 3.73964   3
   6   1  -1 485.860 11.7472   1
   6   1  -1 463.496 10.0958   5
   6   1  -1 480.661 11.6948   4
   6   1  -1 474.031 10.2737   2
  -6  -1   1 469.744 10.4163   2
  -6  -1   1 501.563 12.6136   3
   5   1  -1 965.888 18.9383   1
   5   1  -1 971.764 17.6875   2
   5   1  -1 976.892 17.7083   5
   5   1  -1 967.917 18.8454   4
  -5  -1   1 1015.29 19.6894   3
  -5  -1   1 965.285 17.7043   5
   4   1  -1 355.958 7.44357   5
   4   1  -1 350.542 7.20812   2
   4   1  -1 355.089 8.21437   1
   4   1  -1 360.690 8.04200   4
  -4  -1   1 351.700 7.46520   5
  -4  -1   1 357.030 8.59015   3
   3   1  -1 25.0284 1.90020   4
   3   1  -1 22.7692 1.93457   1
   3   1  -1 24.1249 1.45590   2
   3   1  -1 22.8615 1.71916   5
  -3  -1   1 27.2888 1.78264   5
  -3  -1   1 25.0133 2.16598   3
   2   1  -1 38.3031 1.67508   5
   2   1  -1 39.6503 1.21239   2
   2   1  -1 37.5164 1.84200   1
   2   1  -1 33.6780 1.60365   4
  -2  -1   1 38.8368 1.95740   3
  -2  -1   1 38.6716 1.66905   5
  -2  -1   1 36.2560 1.23972   2
   1   1  -1 44.5141 1.54140   5
   1   1  -1 41.8389 1.58267   1
   1   1  -1 42.8839 1.29727   4
  -1  -1   1 41.3057 1.31318   4
  -1  -1   1 48.0412 1.55398   5
  -1  -1   1 42.1918 1.58609   3
   0   1  -1 1005.88 17.3026   2
   0   1  -1 1036.61 17.1747   4
   0   1  -1 1052.92 17.3886   1
  -1   1  -1 2295.99 36.5859   5
  -1   1  -1 2241.49 36.5771   5
  -1   1  -1 2151.54 36.8218   1
  -1   1  -1 2340.88 37.4143   3
   1  -1   1 2257.76 37.2627   2
   1  -1   1 2314.73 36.5873   5
   1  -1   1 2292.76 37.2719   4
   1  -1   1 2251.54 36.8514   1
   1  -1   1 2338.25 37.4048   3
  -2   1  -1 1997.97 33.3159   3
   2  -1   1 1942.34 33.1671   4
   2  -1   1 1989.31 32.5578   1
   2  -1   1 1992.74 33.1054   2
  -3   1  -1 788.717 15.1939   3
   3  -1   1 796.615 15.0841   4
   3  -1   1 840.860 14.3879   1
   3  -1   1 795.026 14.8315   2
  -4   1  -1 350.860 8.58780   3
   4  -1   1 351.178 8.02394   2
   4  -1   1 348.652 8.37404   4
   4  -1   1 348.075 7.55692   1
  -5   1  -1 361.102 9.62327   3
   5  -1   1 372.882 8.36432   1
   5  -1   1 358.498 8.83310   2
   5  -1   1 351.449 9.24168   4
  -6   1  -1 114.248 6.38395   3
   6  -1   1 118.859 6.04643   4
   6  -1   1 119.916 5.21145   1
   6  -1   1 132.081 5.64565   2
  -7   1  -1 116.220 7.68253   3
   7  -1   1 110.312 7.08782   4
   7  -1   1 100.614 6.22642   1
   7  -1   1 115.353 6.32774   2
  -8   1  -1 8.23093 4.01833   2
  -8   1  -1 10.2272 5.19579   3
   8  -1   1 13.2417 4.02575   4
   8  -1   1 10.8665 4.03827   2
   8   0  -1 9.21592 4.17537   4
   8   0  -1 7.10222 3.76114   1
  -8   0   1 1.69489 4.83954   3
   7   0  -1 9.51322 3.30461   4
   7   0  -1 12.0869 3.45038   1
   7   0  -1 11.1278 3.11756   2
  -7   0   1 14.9058 3.38498   2
  -7   0   1 9.31358 3.81402   3
   6   0  -1 3.50153 2.41210   4
   6   0  -1 2.98841 1.71676   5
   6   0  -1 0.09273 2.30797   1
   6   0  -1 -0.0118 2.05413   2
  -6   0   1 0.17998 2.01769   2
  -6   0   1 0.69626 2.68438   3
   5   0  -1 1148.19 20.8808   2
   5   0  -1 1173.96 20.3077   5
   5   0  -1 1143.53 21.7414   1
   5   0  -1 1153.78 21.8364   4
  -5   0   1 1189.30 20.9945   2
  -5   0   1 1146.70 22.4582   3
   4   0  -1 -0.8733 0.95626   5
   4   0  -1 0.26805 1.12888   4
   4   0  -1 0.73121 1.06636   2
   4   0  -1 1.49012 1.27478   1
  -4   0   1 -0.4378 1.34383   3
   3   0  -1 571.073 10.2606   5
   3   0  -1 564.346 10.9896   1
   3   0  -1 570.703 10.4007   2
   3   0  -1 563.625 10.8407   4
  -3   0   1 571.033 11.3190   3
  -3   0   1 561.650 10.2233   5
   2   0  -1 5566.88 94.3088   4
   2   0  -1 5917.83 94.0935   5
   2   0  -1 5876.78 94.0306   2
   2   0  -1 5922.26 94.6058   1
  -2   0   1 5978.37 94.1077   5
  -2   0   1 5783.42 94.7495   3
   1   0  -1 1022.63 16.7773   5
   1   0  -1 1023.45 16.5579   2
   1   0  -1 1025.92 16.6628   4
   1   0  -1 975.275 16.5347   2
   1   0  -1 1056.37 17.0192   1
  -1   0   1 1007.48 16.7597   5
  -1   0   1 971.213 16.6302   4
  -1   0   1 1012.34 17.0070   3
  -1   0   1 1019.24 16.5586   2
  -1   0   1 1006.81 16.5474   2
  -1   0  -1 1675.87 27.6422   5
  -1   0  -1 1786.49 28.2454   3
  -1   0  -1 1680.86 27.6529   1
   1   0   1 1678.98 27.6440   5
   1   0   1 1720.46 28.1284   2
   1   0   1 1739.15 27.6701   1
   1   0   1 1749.86 28.2142   3
   1   0   1 1695.61 28.1684   4
  -2   0  -1 297.675 6.20290   3
  -2   0  -1 294.338 5.11530   5
   2   0   1 287.718 6.09485   4
   2   0   1 300.136 5.56887   1
   2   0   1 290.899 5.13679   5
   2   0   1 295.000 5.91714   2
  -3   0  -1 23.6176 1.14584   5
  -3   0  -1 20.0529 2.02786   3
   3   0   1 21.0079 1.18349   5
   3   0   1 22.4674 1.69286   1
   3   0   1 23.0923 1.99725   4
   3   0   1 21.6642 1.75586   2
  -4   0  -1 498.545 10.9221   3
  -4   0  -1 506.970 8.90083   5
   4   0   1 493.452 10.2042   2
   4   0   1 502.183 10.8020   4
   4   0   1 504.245 8.91111   5
   4   0   1 497.237 9.95775   1
  -5   0  -1 -3.3613 1.81257   3
   5   0   1 -1.2390 1.05589   5
   5   0   1 0.10836 1.51112   2
   5   0   1 2.53479 1.46591   1
   5   0   1 1.20486 1.78611   4
  -6   0  -1 107.058 6.28940   3
   6   0   1 103.320 5.71925   4
   6   0   1 105.880 5.02649   2
   6   0   1 110.448 5.15142   1
  -7   0  -1 39.6755 6.23280   3
   7   0   1 28.2460 5.75495   4
   7   0   1 27.2160 5.11740   2
   7   0   1 26.5005 5.13011   1
  -8   0  -1 80.8611 7.18566   2
  -8   0  -1 81.5294 9.28458   3
   8   0   1 74.5850 7.77550   4
   8   0   1 73.3638 6.45251   2
   8  -1  -1 46.2401 6.61580   1
   8  -1  -1 46.2107 7.35885   4
  -8   1   1 34.4730 8.56708   3
   7  -1  -1 4.01141 3.09862   4
   7  -1  -1 1.17531 3.05519   1
   7  -1  -1 2.12710 3.02104   2
  -7   1   1 -0.8572 3.20284   2
  -7   1   1 2.44036 3.50615   3
   6  -1  -1 130.636 5.90752   4
   6  -1  -1 134.696 5.49859   2
   6  -1  -1 132.393 5.95075   1
  -6   1   1 123.604 6.79727   3
  -6   1   1 133.877 5.54386   2
   5  -1  -1 44.8454 2.47909   5
   5  -1  -1 39.4003 3.58710   1
   5  -1  -1 38.5074 3.12576   2
   5  -1  -1 46.6133 3.71065   4
  -5   1   1 40.8611 3.77726   3
  -5   1   1 46.6959 3.18134   2
   4  -1  -1 1191.13 20.2161   5
   4  -1  -1 1188.57 21.5243   1
   4  -1  -1 1196.51 21.6743   4
   4  -1  -1 1202.73 21.1818   2
  -4   1   1 1145.51 22.0676   3
  -4   1   1 1198.31 21.2242   2
   3  -1  -1 644.197 12.2541   4
   3  -1  -1 639.337 11.9579   2
   3  -1  -1 649.308 12.2744   1
   3  -1  -1 655.208 11.3347   5
  -3   1   1 639.007 11.9723   2
  -3   1   1 642.950 12.6285   3
   2  -1  -1 1781.83 29.0799   5
   2  -1  -1 1772.97 29.4962   2
   2  -1  -1 1762.48 29.7239   1
   2  -1  -1 1763.50 29.6190   4
  -2   1   1 1779.30 29.5136   2
  -2   1   1 1774.47 29.9412   3
   1  -1  -1 2673.39 43.3648   2
   1  -1  -1 2611.23 43.4698   1
   1  -1  -1 2672.10 43.3424   4
   1  -1  -1 2681.80 43.1837   5
  -1   1   1 2710.25 43.4686   3
  -1   1   1 2655.55 43.3555   2
  -1  -1  -1 117.297 2.50253   3
  -1  -1  -1 116.350 2.48675   1
  -1  -1  -1 116.536 2.52824   5
   1   1   1 115.003 2.57756   2
   1   1   1 117.555 2.50248   1
  -2  -1  -1 6.71330 1.25432   3
   2   1   1 4.55258 1.05466   1
   2   1   1 3.97538 0.75291   2
   2   1   1 6.89383 1.29680   4
  -3  -1  -1 668.539 12.4893   3
  -3  -1  -1 596.273 11.3729   5
   3   1   1 652.599 11.9084   2
   3   1   1 660.334 12.4728   4
   3   1   1 661.850 11.9205   1
  -4  -1  -1 344.487 6.82212   5
  -4  -1  -1 343.012 8.22569   3
   4   1   1 340.353 8.14458   4
   4   1   1 347.503 6.88347   5
   4   1   1 340.873 7.43116   2
   4   1   1 340.246 7.52454   1
  -5  -1  -1 156.345 4.08021   5
  -5  -1  -1 136.579 5.72691   3
   5   1   1 162.624 4.13782   5
   5   1   1 161.060 5.12897   1
   5   1   1 151.368 4.91925   2
   5   1   1 142.271 5.48958   4
  -6  -1  -1 129.749 6.29916   3
   6   1   1 123.882 5.30116   2
   6   1   1 121.828 5.53873   1
   6   1   1 122.191 6.08722   4
  -7  -1  -1 3.81723 3.62540   3
   7   1   1 2.62031 3.06562   1
   7   1   1 0.22219 2.85731   2
   7   1   1 -1.2640 2.86697   4
  -8  -1  -1 98.8924 9.66265   3
   8   1   1 116.243 8.33755   4
   8  -2  -1 180.804 9.43169   4
   8  -2  -1 175.850 8.94889   1
   8  -2  -1 191.593 8.75070   2
  -8   2   1 179.909 8.77957   2
  -8   2   1 176.771 10.5980   3
   7  -2  -1 3.29226 3.42635   4
   7  -2  -1 -5.7618 3.11501   1
   7  -2  -1 -0.5618 3.01160   2
  -7   2   1 -1.7385 3.46080   3
  -7   2   1 1.94932 3.25080   2
   6  -2  -1 81.0391 5.29588   4
   6  -2  -1 77.7186 4.91264   2
   6  -2  -1 76.6834 5.36375   1
  -6   2   1 82.8067 6.20834   3
  -6   2   1 75.6796 5.09085   2
   5  -2  -1 5.66501 1.91385   2
   5  -2  -1 8.95478 2.02333   5
   5  -2  -1 7.38082 2.07421   1
   5  -2  -1 13.1684 3.02450   4
  -5   2   1 13.0492 3.39063   3
  -5   2   1 4.85327 1.90976   2
   4  -2  -1 513.310 10.5670   2
   4  -2  -1 511.110 10.6426   1
   4  -2  -1 471.689 9.17049   5
   4  -2  -1 517.159 10.9237   4
  -4   2   1 500.610 11.2437   3
  -4   2   1 504.695 10.5724   2
   3  -2  -1 221.534 4.53808   5
   3  -2  -1 208.739 5.29903   2
   3  -2  -1 217.494 5.50947   4
   3  -2  -1 216.161 5.45054   1
  -3   2   1 223.003 5.78958   3
  -3   2   1 209.587 5.34173   2
   2  -2  -1 1.70520 0.86276   2
   2  -2  -1 0.13674 0.74282   4
   2  -2  -1 1.49522 0.67305   5
   2  -2  -1 0.98899 0.82495   1
  -2   2   1 1.78138 0.88288   3
  -2   2   1 0.19130 0.83342   2
   1  -2  -1 39.8589 1.65632   2
   1  -2  -1 41.1588 1.54210   5
   1  -2  -1 37.7700 1.64081   4
   1  -2  -1 39.4383 1.78514   1
  -1   2   1 39.9491 1.57738   3
  -1   2   1 41.2677 1.65960   2
   0  -2  -1 1079.22 18.1613   1
   0  -2  -1 1064.88 18.0117   5
   0  -2  -1 1087.48 18.1427   4
   0   2   1 1062.97 18.0130   2
   0   2   1 1060.67 17.3246   3
  -1  -2  -1 6658.06 105.755   5
   1   2   1 6459.58 105.544   2
  -2  -2  -1 496.327 9.34155   3
  -2  -2  -1 527.575 9.44687   5
  -2  -2  -1 514.292 9.49785   1
   2   2   1 516.878 9.82662   4
   2   2   1 519.499 9.53355   1
   2   2   1 479.107 9.17230   2
  -3  -2  -1 175.339 4.33436   5
  -3  -2  -1 184.961 4.78584   3
   3   2   1 176.367 4.87945   4
   3   2   1 178.799 4.56928   1
   3   2   1 178.758 4.31193   2
  -4  -2  -1 767.715 13.9661   5
  -4  -2  -1 766.139 14.9081   3
   4   2   1 760.567 14.5194   1
   4   2   1 771.053 14.0974   2
   4   2   1 737.016 14.9533   4
  -5  -2  -1 596.135 13.3376   3
  -5  -2  -1 618.583 11.8592   5
   5   2   1 607.980 12.6861   1
   5   2   1 603.506 11.7928   5
   5   2   1 622.485 13.3939   4
   5   2   1 614.446 12.1322   2
  -6  -2  -1 314.269 9.39406   3
  -6  -2  -1 315.412 7.28285   5
   6   2   1 310.406 7.95477   2
   6   2   1 303.600 7.25252   5
   6   2   1 298.463 9.09265   4
   6   2   1 288.880 8.44057   1
  -7  -2  -1 9.43246 3.79330   3
   7   2   1 4.55250 3.32601   4
   7   2   1 6.70098 3.38752   1
   7   2   1 10.2738 3.02837   2
  -8  -2  -1 2.05005 5.12928   3
   8   2   1 -2.9728 3.99599   1
   8   2   1 9.10652 4.13088   4
   8  -3  -1 29.4837 7.50833   4
   8  -3  -1 39.5541 7.45654   2
   8  -3  -1 32.2916 7.31070   1
  -8   3   1 42.9920 7.25762   2
  -8   3   1 51.1361 8.62027   3
   7  -3  -1 83.2531 6.95268   4
   7  -3  -1 79.1060 6.76046   1
   7  -3  -1 76.0178 6.30637   2
  -7   3   1 76.8879 7.20548   3
  -7   3   1 82.6071 6.55456   2
   6  -3  -1 7.01622 2.73973   4
   6  -3  -1 10.0013 2.74948   2
   6  -3  -1 18.8813 4.56578   1
  -6   3   1 9.87596 2.86598   2
  -6   3   1 8.52991 3.32215   3
   5  -3  -1 7.93395 1.84344   5
   5  -3  -1 8.59155 2.11274   2
   5  -3  -1 7.53600 2.06383   4
   5  -3  -1 10.2351 2.35136   1
  -5   3   1 15.5645 3.90683   3
  -5   3   1 8.81298 2.29907   2
   4  -3  -1 1877.91 32.9435   2
   4  -3  -1 1707.21 30.9909   5
   4  -3  -1 1896.23 33.1996   4
   4  -3  -1 1958.98 33.0540   1
  -4   3   1 1896.55 32.9637   2
  -4   3   1 1911.47 33.5269   3
   3  -3  -1 386.160 8.35710   2
   3  -3  -1 345.432 7.11627   5
   3  -3  -1 373.504 8.28605   1
   3  -3  -1 381.928 8.43409   4
  -3   3   1 378.888 8.34339   2
  -3   3   1 388.149 8.52012   3
   2  -3  -1 552.744 10.8053   5
   2  -3  -1 616.483 11.6969   4
   2  -3  -1 615.013 11.7021   2
   2  -3  -1 631.279 11.7819   1
  -2   3   1 620.056 11.5867   3
  -2   3   1 620.887 11.6971   2
   1  -3  -1 1904.12 31.8855   2
   1  -3  -1 1906.93 32.0321   1
   1  -3  -1 1883.00 31.8944   4
   1  -3  -1 1867.56 31.4679   5
  -1   3   1 1920.80 31.9051   2
  -1   3   1 1903.12 31.3909   3
   0  -3  -1 26.9053 1.63602   4
   0   3   1 24.0097 0.89091   3
   0   3   1 24.6551 1.50695   2
   0   3   1 28.4420 1.64467   4
   0   3   1 24.5034 0.91953   3
  -1  -3  -1 9999.99 161.088   5
  -2  -3  -1 3068.92 49.7064   3
  -2  -3  -1 3025.63 50.3161   5
  -2  -3  -1 3032.37 50.3844   1
   2   3   1 3055.05 50.3856   1
   2   3   1 3037.45 50.5726   4
   2   3   1 3034.29 49.8216   2
  -3  -3  -1 3.35526 1.09302   5
  -3  -3  -1 2.08952 1.14634   1
  -3  -3  -1 4.65436 1.12299   3
   3   3   1 3.65591 1.14558   1
   3   3   1 2.99694 0.98529   2
   3   3   1 2.62783 1.23508   4
  -4  -3  -1 -1.6765 1.26124   3
  -4  -3  -1 -0.0874 1.11750   5
   4   3   1 -0.0164 1.15330   2
   4   3   1 3.92979 1.41101   1
   4   3   1 1.86084 1.43837   4
  -5  -3  -1 59.7113 3.42726   5
  -5  -3  -1 58.7033 4.20413   3
   5   3   1 60.8801 3.18811   2
   5   3   1 62.4493 3.99003   1
   5   3   1 59.6009 3.42258   5
   5   3   1 62.4497 4.28940   4
  -6  -3  -1 2.30976 2.67952   3
  -6  -3  -1 -1.6822 1.83406   5
   6   3   1 4.01904 2.51844   4
   6   3   1 3.66676 2.05118   2
   6   3   1 3.71808 2.78797   1
   6   3   1 3.36019 2.10389   5
  -7  -3  -1 43.1620 6.42187   3
   7   3   1 42.6688 6.03738   4
   7   3   1 39.0594 5.98148   1
  -8  -3  -1 0.84188 4.67840   3
   8   3   1 5.26803 4.14678   4
   8   3   1 12.5494 4.30533   1
   7  -4  -1 88.3487 6.97707   2
   7  -4  -1 90.8317 7.42874   1
   7  -4  -1 94.7326 7.41077   4
  -7   4   1 98.0994 6.83809   2
  -7   4   1 88.7664 7.73114   3
   6  -4  -1 350.281 10.3092   1
   6  -4  -1 346.024 10.0046   2
   6  -4  -1 336.264 10.4670   4
  -6   4   1 326.275 9.85712   2
  -6   4   1 339.884 10.7282   3
   5  -4  -1 119.090 5.65642   2
   5  -4  -1 115.072 5.55224   1
   5  -4  -1 118.497 5.61078   4
  -5   4   1 117.518 5.66160   2
  -5   4   1 121.374 6.03067   3
   4  -4  -1 128.896 5.02743   1
   4  -4  -1 134.352 5.27505   2
   4  -4  -1 131.846 5.21807   4
   4  -4  -1 133.416 3.60081   5
  -4   4   1 132.368 5.35724   3
  -4   4   1 137.640 5.37045   2
   3  -4  -1 717.864 14.2539   2
   3  -4  -1 716.411 12.8140   5
   3  -4  -1 710.249 14.1112   1
   3  -4  -1 696.524 14.2102   4
  -3   4   1 710.562 14.1927   2
  -3   4   1 726.151 14.1563   3
   2  -4  -1 965.714 17.8812   2
   2  -4  -1 989.867 17.0590   5
   2  -4  -1 959.966 17.8885   4
   2  -4  -1 963.248 17.9034   1
  -2   4   1 971.569 17.5095   3
  -2   4   1 977.774 17.9190   2
   1  -4  -1 0.63442 0.96198   2
   1  -4  -1 3.59522 1.01508   4
   1  -4  -1 2.94207 1.08895   1
   1  -4  -1 2.00845 0.92340   5
  -1   4   1 1.95936 0.98252   4
  -1   4   1 1.58831 0.77100   3
  -1   4   1 2.45001 0.96018   2
   0  -4  -1 30.8572 1.90516   5
   0  -4  -1 31.9014 2.08947   4
   0  -4  -1 37.3305 2.10573   1
   0   4   1 33.1966 1.26189   3
   0   4   1 29.9083 1.92604   2
  -1  -4  -1 193.565 4.99635   1
  -1  -4  -1 185.089 4.78747   5
   1   4   1 189.037 4.95109   4
   1   4   1 182.089 3.50779   3
   1   4   1 191.195 4.51645   2
  -2  -4  -1 2770.09 45.9117   1
  -2  -4  -1 2686.15 44.5739   3
  -2  -4  -1 2696.70 45.7236   5
   2   4   1 2709.55 45.0509   2
   2   4   1 2722.90 45.9625   4
   2   4   1 2769.41 45.9067   1
  -3  -4  -1 166.376 4.44528   3
  -3  -4  -1 169.521 5.01480   1
  -3  -4  -1 166.522 4.81886   5
   3   4   1 162.607 4.98341   1
   3   4   1 163.406 4.21180   2
   3   4   1 164.059 5.15297   4
  -4  -4  -1 12.9856 2.39507   3
  -4  -4  -1 10.5864 2.45071   5
   4   4   1 14.5294 2.97615   4
   4   4   1 8.39028 2.05827   2
   4   4   1 16.3341 2.73570   1
  -5  -4  -1 285.713 7.53296   5
  -5  -4  -1 278.757 7.84363   3
   5   4   1 280.044 6.73559   2
   5   4   1 281.226 8.24250   4
   5   4   1 259.735 7.86495   1
  -6  -4  -1 316.598 9.52212   3
  -6  -4  -1 299.074 8.23512   5
   6   4   1 280.988 8.23594   5
   6   4   1 309.425 9.49385   4
   6   4   1 311.042 9.32100   1
   6   4   1 307.624 7.59352   2
  -7  -4  -1 27.3651 5.74415   3
   7   4   1 31.6685 6.09081   4
   7   4   1 29.2598 6.05602   1
  -8  -4  -1 2.96933 4.79451   3
   8   4   1 -4.8472 4.09023   4
   8   4   1 6.92975 4.46073   1
   7  -5  -1 32.0829 6.59362   1
   7  -5  -1 22.4969 4.55514   4
   7  -5  -1 18.1659 4.50821   2
  -7   5   1 11.4431 4.39374   2
  -7   5   1 20.6581 4.60254   3
   6  -5  -1 11.1933 3.41192   1
   6  -5  -1 7.17474 3.20026   4
   6  -5  -1 10.5824 3.34015   2
  -6   5   1 4.37825 3.21756   2
  -6   5   1 6.65101 3.23053   3
   5  -5  -1 107.331 5.99313   4
   5  -5  -1 115.838 6.12362   1
   5  -5  -1 116.429 6.04051   2
  -5   5   1 104.706 6.02268   3
  -5   5   1 114.671 5.97770   2
   4  -5  -1 191.660 6.55003   2
   4  -5  -1 199.938 4.85120   5
   4  -5  -1 194.131 6.59191   1
   4  -5  -1 198.701 6.72878   4
  -4   5   1 191.288 6.52210   2
  -4   5   1 201.730 6.60871   3
   3  -5  -1 365.318 9.05645   2
   3  -5  -1 374.448 9.15840   4
   3  -5  -1 368.435 8.96108   1
   3  -5  -1 360.568 7.65680   5
  -3   5   1 383.181 9.16239   2
  -3   5   1 369.013 8.73125   3
   2  -5  -1 405.158 9.24903   4
   2  -5  -1 417.279 8.42294   5
   2  -5  -1 409.422 9.23940   2
   2  -5  -1 408.443 9.25412   1
  -2   5   1 409.306 9.18628   2
  -2   5   1 412.352 8.65314   3
   1  -5  -1 28.7709 2.38730   2
   1  -5  -1 30.5905 2.10463   5
   1  -5  -1 26.9161 2.37602   1
   1  -5  -1 30.1837 2.30644   4
  -1   5   1 32.6760 2.31439   4
  -1   5   1 32.9446 1.90288   3
  -1   5   1 28.4983 2.30912   2
   0  -5  -1 109.178 3.64986   5
   0  -5  -1 107.475 3.81295   4
   0  -5  -1 110.846 3.84889   1
   0   5   1 103.829 3.79004   4
   0   5   1 111.430 2.64235   3
   0   5   1 107.678 3.59110   2
  -1  -5  -1 2583.55 43.5487   5
  -1  -5  -1 2624.61 43.8198   1
   1   5   1 2537.43 43.6555   4
   1   5   1 2537.53 42.9423   2
  -2  -5  -1 0.73019 1.23060   1
  -2  -5  -1 -1.1153 1.20954   5
  -2  -5  -1 0.85994 0.95482   3
   2   5   1 1.05961 1.23083   4
   2   5   1 -0.6360 1.25461   1
   2   5   1 0.16637 1.09102   2
  -3  -5  -1 0.84044 1.45239   1
  -3  -5  -1 -0.2809 1.16616   3
  -3  -5  -1 -1.9353 1.37256   5
   3   5   1 -1.7805 1.40829   4
   3   5   1 0.15615 1.13616   2
   3   5   1 0.20910 1.47319   1
  -4  -5  -1 140.008 4.54754   3
  -4  -5  -1 125.009 5.02926   5
  -4  -5  -1 122.410 5.20643   1
   4   5   1 131.299 5.40007   1
   4   5   1 133.273 5.49944   4
   4   5   1 127.110 4.05971   2
  -5  -5  -1 133.190 5.51495   3
  -5  -5  -1 125.685 5.49135   5
   5   5   1 124.557 5.98169   4
   5   5   1 136.855 5.98303   1
   5   5   1 134.096 4.56911   2
  -6  -5  -1 179.698 7.77785   3
  -6  -5  -1 175.894 7.04797   5
   6   5   1 179.409 7.19024   5
   6   5   1 183.271 7.84727   4
   6   5   1 176.047 7.71062   1
  -7  -5  -1 279.850 10.2622   3
  -7  -5  -1 288.739 9.25368   5
   7   5   1 286.090 10.1415   1
   7   5   1 287.482 10.4984   4
   7   5   1 279.208 9.46670   5
   7  -6  -1 39.2083 7.22839   1
   7  -6  -1 30.4248 7.14986   4
   7  -6  -1 33.6554 7.35592   2
  -7   6   1 23.0993 5.52988   2
  -7   6   1 39.1257 7.30859   3
   6  -6  -1 1.36913 3.34014   1
   6  -6  -1 4.10248 3.55797   2
   6  -6  -1 1.26592 3.31554   4
  -6   6   1 -4.2948 3.73274   2
  -6   6   1 0.15566 3.52989   3
   5  -6  -1 300.103 9.67994   2
   5  -6  -1 301.568 9.49862   1
   5  -6  -1 299.884 9.83349   4
  -5   6   1 291.304 9.59377   3
  -5   6   1 305.813 10.0266   2
   4  -6  -1 58.8107 4.70599   2
   4  -6  -1 58.9916 4.95921   4
   4  -6  -1 55.7008 4.87424   1
   4  -6  -1 70.0118 3.31490   5
  -4   6   1 73.8430 4.96280   2
  -4   6   1 66.1353 4.80476   3
   3  -6  -1 -1.2012 1.78787   2
   3  -6  -1 -0.6259 1.78315   4
   3  -6  -1 -2.9019 1.80078   1
   3  -6  -1 2.16781 1.37370   5
  -3   6   1 2.26638 1.89087   2
  -3   6   1 -1.3355 1.52488   3
   2  -6  -1 166.558 5.55314   4
   2  -6  -1 166.285 5.71973   1
   2  -6  -1 157.984 5.51086   2
   2  -6  -1 172.121 4.88173   5
  -2   6   1 168.384 5.63553   4
  -2   6   1 164.657 5.57344   2
  -2   6   1 170.905 4.85831   3
   1  -6  -1 896.005 16.4979   5
   1  -6  -1 859.194 17.0396   1
   1  -6  -1 866.569 17.0212   4
   1  -6  -1 890.964 16.8577   2
  -1   6   1 860.354 16.7746   2
  -1   6   1 878.519 15.6249   3
  -1   6   1 865.110 17.0455   4
   0  -6  -1 54.8095 3.09370   5
   0  -6  -1 53.7903 3.29220   4
   0  -6  -1 54.8669 3.23394   1
   0   6   1 58.0297 2.96378   2
   0   6   1 54.6965 2.03477   3
   0   6   1 58.8491 3.45057   4
  -1  -6  -1 12.0892 2.63658   1
  -1  -6  -1 16.9205 2.48148   5
   1   6   1 15.0857 2.11415   2
   1   6   1 12.8894 1.33468   3
   1   6   1 14.2916 2.66291   4
  -2  -6  -1 191.255 6.07095   1
  -2  -6  -1 191.951 4.30026   3
  -2  -6  -1 189.819 5.85778   5
   2   6   1 188.592 6.04136   4
   2   6   1 196.040 5.24591   2
   2   6   1 195.143 6.11332   1
  -3  -6  -1 299.097 8.22460   5
  -3  -6  -1 302.674 8.29968   1
  -3  -6  -1 306.828 6.67024   3
   3   6   1 299.685 8.40259   1
   3   6   1 310.878 8.39018   4
   3   6   1 294.052 6.93957   2
  -4  -6  -1 11.5731 2.46811   5
  -4  -6  -1 13.4210 2.74932   1
  -4  -6  -1 19.9051 2.95645   3
   4   6   1 13.8778 2.67369   2
   4   6   1 19.1539 3.60788   1
   4   6   1 19.6976 3.87198   4
  -5  -6  -1 205.228 6.84171   3
  -5  -6  -1 207.553 7.28293   5
   5   6   1 211.852 7.78656   1
   5   6   1 203.924 7.80857   4
   5   6   1 208.909 6.41859   2
  -6  -6  -1 75.8118 5.89710   5
  -6  -6  -1 77.4922 6.12101   3
   6   6   1 72.3938 6.46154   1
   6   6   1 65.7855 6.31878   4
   6   6   1 69.4800 5.95243   5
  -7  -6  -1 58.4809 6.18936   5
  -7  -6  -1 49.5883 7.42272   3
   7   6   1 57.2958 7.22986   1
   7   6   1 55.4569 6.30334   5
   7   6   1 65.7640 7.52104   4
   6  -7  -1 -2.4856 3.68056   2
   6  -7  -1 -1.2121 3.83808   1
   6  -7  -1 2.75257 3.77950   4
  -6   7   1 -3.9908 4.00598   2
  -6   7   1 1.14710 3.78178   3
   5  -7  -1 124.758 7.37601   2
   5  -7  -1 134.270 7.31088   1
   5  -7  -1 119.741 7.25255   4
  -5   7   1 138.440 7.43778   3
  -5   7   1 135.256 7.68487   2
   4  -7  -1 10.8317 3.19541   4
   4  -7  -1 10.8955 3.07312   1
   4  -7  -1 14.1442 3.28417   5
   4  -7  -1 10.0418 3.15799   2
  -4   7   1 7.57924 3.04604   2
  -4   7   1 13.0068 2.95730   3
   3  -7  -1 43.2021 3.26249   5
   3  -7  -1 47.0415 4.64702   2
   3  -7  -1 40.9372 4.25289   1
   3  -7  -1 44.5419 4.50657   4
  -3   7   1 45.9195 4.42996   2
  -3   7   1 45.9676 3.82081   3
  -3   7   1 39.9963 4.48807   4
   2  -7  -1 40.4858 3.81087   4
   2  -7  -1 40.9847 3.77231   2
   2  -7  -1 38.9217 3.20717   5
   2  -7  -1 38.2163 3.86752   1
  -2   7   1 36.9679 3.72286   2
  -2   7   1 39.2343 3.60836   4
  -2   7   1 41.7074 2.83235   3
   1  -7  -1 103.268 4.38296   5
   1  -7  -1 109.835 4.69672   2
   1  -7  -1 95.2253 4.88790   1
   1  -7  -1 102.244 4.81278   4
  -1   7   1 102.500 4.75037   2
  -1   7   1 103.641 3.53616   3
  -1   7   1 100.616 4.68516   4
   0  -7  -1 238.304 7.12391   4
   0  -7  -1 239.752 7.21243   1
   0  -7  -1 243.770 6.80918   5
   0   7   1 243.099 6.67755   2
   0   7   1 240.342 5.15662   3
   0   7   1 239.526 7.11346   4
  -1  -7  -1 256.951 7.31095   5
  -1  -7  -1 259.917 7.64709   1
   1   7   1 259.592 6.72508   2
   1   7   1 255.384 7.48075   4
  -2  -7  -1 714.347 15.0087   5
  -2  -7  -1 691.862 12.3488   3
  -2  -7  -1 699.128 15.1184   1
   2   7   1 726.294 15.1797   4
   2   7   1 702.879 13.8092   2
   2   7   1 693.663 15.0520   1
  -3  -7  -1 22.0575 3.56896   5
  -3  -7  -1 18.2448 2.38530   3
  -3  -7  -1 23.4506 3.66473   1
   3   7   1 22.2810 2.93728   2
   3   7   1 30.3006 3.99614   1
   3   7   1 30.2009 4.00298   4
  -4  -7  -1 18.8937 4.15997   5
  -4  -7  -1 22.7201 4.59904   1
  -4  -7  -1 16.5948 3.28771   3
   4   7   1 18.8274 3.04794   2
   4   7   1 24.7048 4.14904   4
   4   7   1 18.8260 4.41356   1
  -5  -7  -1 22.7707 3.98773   1
  -5  -7  -1 18.2436 4.58988   5
  -5  -7  -1 25.8062 4.40251   3
   5   7   1 20.7701 5.32564   1
   5   7   1 13.9229 3.33262   4
  -6  -7  -1 31.2883 6.02267   5
   6   7   1 33.6184 5.73657   5
   6   7   1 26.2201 6.46786   1
   6   7   1 41.5779 6.59074   4
  -7  -7  -1 8.67103 4.07464   5
   7   7   1 3.20902 4.16823   5
   7   7   1 3.53354 4.74695   4
   7   7   1 9.81682 5.00052   1
   6  -8  -1 45.7754 7.31928   1
   6  -8  -1 57.8324 7.56134   4
   6  -8  -1 50.5074 7.96028   2
  -6   8   1 41.8556 9.06276   2
  -6   8   1 50.5264 8.05644   3
   5  -8  -1 87.0788 6.93068   2
   5  -8  -1 105.885 7.46062   1
   5  -8  -1 81.2901 7.21985   4
  -5   8   1 87.9186 6.73152   3
  -5   8   1 88.8614 7.45298   2
   4  -8  -1 59.6874 5.79260   4
   4  -8  -1 66.4883 5.95396   1
   4  -8  -1 61.0413 5.94593   2
  -4   8   1 65.9436 6.14283   2
  -4   8   1 61.6330 5.63761   3
   3  -8  -1 80.5756 5.87310   2
   3  -8  -1 73.0735 4.33988   5
   3  -8  -1 76.5846 5.56543   1
   3  -8  -1 58.2987 5.66310   4
  -3   8   1 71.7081 4.78421   3
  -3   8   1 87.1026 5.95191   2
  -3   8   1 74.7318 5.63551   4
   2  -8  -1 5.92839 2.47554   1
   2  -8  -1 10.8137 2.70560   4
   2  -8  -1 11.9790 2.72494   2
   2  -8  -1 2.23536 2.14280   5
  -2   8   1 5.19446 2.40971   2
  -2   8   1 8.39518 2.65450   4
  -2   8   1 6.86557 1.87578   3
   1  -8  -1 20.2360 3.57682   5
   1  -8  -1 25.4071 3.77300   1
   1  -8  -1 20.8867 3.65372   4
  -1   8   1 23.7579 2.61737   3
  -1   8   1 27.2236 3.76000   2
  -1   8   1 20.5106 3.75457   4
   0  -8  -1 1188.51 23.1825   4
   0  -8  -1 1173.43 23.2710   1
   0  -8  -1 1210.18 22.8117   5
   0   8   1 1174.91 23.1168   4
   0   8   1 1195.57 20.3717   3
   0   8   1 1187.52 22.5088   2
  -1  -8  -1 59.7466 4.35709   5
  -1  -8  -1 64.7838 4.53000   1
   1   8   1 62.3661 3.85575   2
   1   8   1 59.1193 4.45454   4
  -2  -8  -1 39.5332 4.12979   5
  -2  -8  -1 43.6829 4.37676   1
   2   8   1 38.9420 3.58285   2
   2   8   1 36.1778 4.52109   1
   2   8   1 31.6592 4.28103   4
  -3  -8  -1 22.1091 4.63005   5
  -3  -8  -1 27.4429 4.73991   1
   3   8   1 33.7178 4.87351   1
   3   8   1 36.5532 4.76738   4
   3   8   1 28.6156 3.73947   2
  -4  -8  -1 655.162 15.9248   1
  -4  -8  -1 654.984 15.5199   5
   4   8   1 651.669 16.1603   2
   4   8   1 650.192 15.9000   1
   4   8   1 645.666 15.5036   4
  -5  -8  -1 28.8666 5.60986   5
  -5  -8  -1 33.1527 6.06842   1
   5   8   1 28.0472 6.10097   4
   5   8   1 41.0499 6.54147   1
  -6  -8  -1 1.87233 3.76618   5
   6   8   1 10.1376 4.12724   5
   6   8   1 1.75555 3.96788   4
   6   8   1 -1.0361 4.10899   1
   5  -9  -1 -3.5409 3.77517   2
   5  -9  -1 6.33762 4.11574   4
   5  -9  -1 9.51376 4.22321   1
  -5   9   1 0.19790 4.20371   2
  -5   9   1 7.99304 4.19602   4
  -5   9   1 7.70556 3.88959   3
   4  -9  -1 876.426 19.7274   1
   4  -9  -1 867.138 20.0372   2
   4  -9  -1 878.955 20.0706   4
  -4   9   1 864.099 20.0124   4
  -4   9   1 829.844 18.5037   3
  -4   9   1 855.785 19.8660   2
   3  -9  -1 90.6040 6.92676   2
   3  -9  -1 89.9843 6.71583   4
   3  -9  -1 79.2826 5.46913   5
   3  -9  -1 90.6274 6.84464   1
  -3   9   1 97.7655 6.82707   2
  -3   9   1 88.5637 5.67622   3
  -3   9   1 80.1288 6.45937   4
   2  -9  -1 6.01831 2.72038   5
   2  -9  -1 3.57514 2.95092   2
   2  -9  -1 8.35466 3.33164   4
   2  -9  -1 13.5646 3.27038   1
  -2   9   1 6.84830 3.03391   2
  -2   9   1 3.03704 3.06437   4
  -2   9   1 1.68076 2.12208   3
   1  -9  -1 1.74322 2.81890   1
   1  -9  -1 3.50415 2.63879   4
   1  -9  -1 3.15048 2.32391   5
  -1   9   1 2.49301 2.48505   2
  -1   9   1 1.68753 1.74029   3
  -1   9   1 0.23445 2.69750   4
   0  -9  -1 295.843 9.28950   4
   0  -9  -1 295.453 9.57702   1
   0  -9  -1 286.895 8.68954   5
   0   9   1 292.154 9.24921   4
   0   9   1 295.624 8.60472   2
  -1  -9  -1 158.956 6.91186   5
  -1  -9  -1 160.311 7.13964   1
   1   9   1 155.973 6.10106   2
   1   9   1 155.766 6.88162   4
  -2  -9  -1 90.2445 6.41280   1
  -2  -9  -1 81.4324 6.01932   5
   2   9   1 86.5885 5.01936   2
   2   9   1 84.7992 5.86107   4
   2   9   1 86.9481 6.35126   1
  -3  -9  -1 47.2570 5.69498   1
  -3  -9  -1 45.4555 5.47051   5
   3   9   1 50.6336 5.83046   1
   3   9   1 43.3221 4.39675   2
   3   9   1 38.6924 5.53056   4
  -4  -9  -1 25.3705 5.75739   1
  -4  -9  -1 2.89798 3.26748   5
   4   9   1 11.4408 3.52441   4
   4   9   1 13.7158 3.82450   1
  -5  -9  -1 128.793 7.85679   5
  -5  -9  -1 128.757 8.44956   1
   5   9   1 122.524 8.30355   4
   5   9   1 111.334 8.90875   1
  -6  -9  -1 0.13872 4.07118   5
   6   9   1 14.0318 4.96598   5
   6   9   1 -2.1407 4.80908   4
   6   9   1 -2.3413 5.13115   1
   5 -10  -1 6.07534 4.88767   2
   5 -10  -1 3.63819 4.74603   4
   5 -10  -1 1.47940 4.75492   1
  -5  10   1 6.49074 4.39032   3
  -5  10   1 7.14177 4.65809   2
  -5  10   1 9.34722 4.75268   4
   4 -10  -1 5.75274 3.90653   4
   4 -10  -1 6.82671 4.53130   1
   4 -10  -1 3.70353 4.22306   2
  -4  10   1 2.91325 3.94028   2
  -4  10   1 6.12862 3.77597   3
  -4  10   1 8.90050 4.10085   4
   3 -10  -1 322.446 11.5168   2
   3 -10  -1 318.291 9.96120   5
   3 -10  -1 346.671 11.8284   1
   3 -10  -1 339.963 11.5981   4
  -3  10   1 336.970 11.3558   2
  -3  10   1 320.008 9.67260   3
  -3  10   1 358.572 11.5096   4
   2 -10  -1 29.8952 5.47399   4
   2 -10  -1 26.3395 5.05081   5
   2 -10  -1 30.7062 5.85615   1
  -2  10   1 21.8163 5.60789   2
  -2  10   1 31.5293 5.60564   4
   1 -10  -1 13.1138 3.40569   4
   1 -10  -1 26.9252 5.81411   1
   1 -10  -1 16.6545 3.35925   5
  -1  10   1 19.8110 3.94570   2
  -1  10   1 30.0587 5.43777   4
   0 -10  -1 32.5589 5.61681   4
   0 -10  -1 30.8113 5.91835   1
   0 -10  -1 33.1368 5.39769   5
   0  10   1 38.0643 5.74839   4
   0  10   1 40.7127 5.07267   2
  -1 -10  -1 66.7989 6.01007   5
  -1 -10  -1 62.8820 6.51631   1
   1  10   1 66.0884 6.15504   4
   1  10   1 59.2099 5.62005   2
   1  10   1 62.9936 6.01615   1
  -2 -10  -1 7.28626 3.47939   1
  -2 -10  -1 4.27052 3.24314   5
   2  10   1 2.27991 3.21613   4
   2  10   1 7.89175 3.40614   1
   2  10   1 3.73161 2.98281   2
  -3 -10  -1 107.234 7.29236   5
  -3 -10  -1 102.754 7.44156   1
   3  10   1 98.6483 7.25849   1
   3  10   1 95.4074 7.64858   4
  -4 -10  -1 36.8717 6.85517   1
  -4 -10  -1 21.0052 4.46316   5
   4  10   1 15.9051 4.86732   1
   4  10   1 33.3840 6.88518   4
  -5 -10  -1 13.6402 4.63757   1
  -5 -10  -1 8.73445 4.15169   5
   5  10   1 5.17610 5.20455   1
   5  10   1 30.7402 7.88473   4
   4 -11  -1 29.3419 7.58646   4
   4 -11  -1 33.8720 6.26183   1
   4 -11  -1 36.6467 8.73050   2
  -4  11   1 49.0697 7.91786   4
  -4  11   1 37.1075 8.24908   2
   3 -11  -1 19.0485 5.38431   1
   3 -11  -1 31.3456 6.41867   5
   3 -11  -1 18.2335 4.75189   4
  -3  11   1 29.9702 7.39434   4
  -3  11   1 15.6269 4.53957   2
   2 -11  -1 2.06073 3.30688   5
   2 -11  -1 4.83580 4.43763   1
   2 -11  -1 4.03775 3.99059   4
  -2  11   1 -1.0185 3.64691   2
  -2  11   1 3.35987 3.75452   4
   1 -11  -1 6.69423 4.21798   1
   1 -11  -1 2.77229 3.24414   5
   1 -11  -1 8.37242 4.03750   4
  -1  11   1 0.62602 3.70612   2
  -1  11   1 -6.7147 3.21736   4
   0 -11  -1 11.0251 3.80198   5
   0 -11  -1 7.02745 3.98303   1
   0  11   1 9.94855 3.63015   2
   0  11   1 4.12212 3.68094   4
  -1 -11  -1 414.918 12.9898   1
  -1 -11  -1 390.102 12.4764   5
   1  11   1 398.714 11.4087   2
   1  11   1 400.803 12.5302   4
   1  11   1 405.114 12.7812   1
  -2 -11  -1 27.8311 4.88415   5
  -2 -11  -1 39.8069 7.02168   1
   2  11   1 29.8327 5.75810   2
   2  11   1 37.2967 6.87056   4
   2  11   1 24.1984 4.65534   1
  -3 -11  -1 27.8631 6.81215   1
  -3 -11  -1 26.7942 6.28578   5
   3  11   1 53.4822 7.68431   1
   3  11   1 34.8778 7.29601   4
  -4 -11  -1 27.6626 5.25419   5
  -4 -11  -1 40.2683 8.18793   1
   4  11   1 34.8084 9.02813   1
   4  11   1 24.9142 5.19040   4
   2 -12  -1 14.2740 5.57681   1
   2 -12  -1 13.7887 5.39522   4
   2 -12  -1 17.0518 4.36449   5
  -2  12   1 7.81420 4.75667   4
  -2  12   1 1.29516 4.29948   2
   1 -12  -1 -2.1587 4.48651   4
   1 -12  -1 4.20859 4.09364   5
   1 -12  -1 -1.9219 4.56539   1
  -1  12   1 0.48677 4.29218   2
  -1  12   1 0.16022 3.98549   4
   0 -12  -1 33.2729 7.96955   5
   0 -12  -1 38.0208 8.19430   1
   0  12   1 62.3286 7.08322   4
   0  12   1 43.5014 7.12875   2
  -1 -12  -1 2.11335 4.36193   1
  -1 -12  -1 -1.8825 4.19341   5
   1  12   1 -0.2806 3.96534   4
   1  12   1 7.02734 4.03570   2
   1  12   1 -5.5705 4.22192   1
  -2 -12  -1 92.8835 9.27235   1
  -2 -12  -1 100.125 8.92430   5
   2  12   1 93.9184 8.65827   4
   2  12   1 94.2533 8.58763   1
  -3 -12  -1 46.9197 8.73692   1
  -3 -12  -1 36.0199 7.57775   5
   3  12   1 32.5157 5.91269   1
   3  12   1 38.5933 5.91069   4
   1  12  -2 17.8117 4.64016   5
   1  12  -2 3.74440 4.84633   4
   1  12  -2 18.8678 5.16771   1
  -1 -12   2 8.57546 5.60780   1
  -1 -12   2 15.7467 5.75055   5
   0  12  -2 21.3952 4.59763   2
   0  12  -2 7.55535 4.64215   1
   0  12  -2 11.8377 4.88993   4
   0 -12   2 11.7943 5.71377   1
   0 -12   2 7.06336 4.74371   5
  -1  12  -2 193.593 10.4871   1
  -1  12  -2 196.332 10.4172   2
  -1  12  -2 179.998 10.1723   4
  -1  12  -2 202.646 10.7107   5
   1 -12   2 182.445 10.1823   5
   1 -12   2 187.732 11.3476   4
   1 -12   2 198.979 11.9043   1
   3  11  -2 71.3984 8.58537   1
   3  11  -2 55.9499 8.00197   5
   3  11  -2 66.1512 7.99509   4
  -3 -11   2 80.1372 7.86177   5
  -3 -11   2 78.9230 8.54130   1
   2  11  -2 16.2603 4.37716   4
   2  11  -2 13.0952 4.30151   1
   2  11  -2 15.0491 4.29784   5
  -2 -11   2 16.1210 4.74717   1
  -2 -11   2 17.4122 4.53381   5
   1  11  -2 79.2801 7.58329   1
   1  11  -2 70.1775 7.42197   4
   1  11  -2 74.1740 6.91623   2
  -1 -11   2 68.0413 8.44401   1
  -1 -11   2 76.6083 7.91691   5
   0  11  -2 65.8145 6.81927   2
   0  11  -2 81.9418 7.16266   1
   0  11  -2 70.7796 7.69558   4
   0 -11   2 57.4573 7.60561   4
   0 -11   2 81.6071 7.40997   5
   0 -11   2 68.7775 8.33192   1
  -1  11  -2 8.08175 4.16584   4
  -1  11  -2 6.07071 4.06986   1
  -1  11  -2 3.01151 3.74367   2
   1 -11   2 -1.1706 4.16829   1
   1 -11   2 6.49225 3.72166   2
   1 -11   2 4.80248 4.27476   4
   1 -11   2 12.7859 3.88982   5
  -2  11  -2 74.0141 7.81362   4
  -2  11  -2 57.6101 7.64371   2
   2 -11   2 67.9700 8.64382   4
   2 -11   2 82.9189 7.23962   5
   2 -11   2 55.9204 8.41705   2
   2 -11   2 84.7384 8.00857   1
  -3  11  -2 4.63388 4.37880   4
  -3  11  -2 12.6581 4.40278   2
   3 -11   2 11.5211 5.52764   2
   3 -11   2 15.2055 4.78003   1
   3 -11   2 11.7174 5.28138   4
   5  10  -2 58.5678 9.58052   1
  -5 -10   2 60.4056 8.16585   5
   4  10  -2 50.2036 6.97733   4
   4  10  -2 68.4439 7.71789   5
   4  10  -2 59.3089 8.12518   1
  -4 -10   2 58.7316 7.60763   5
  -4 -10   2 67.3713 7.90769   1
   3  10  -2 43.1003 6.70667   1
   3  10  -2 34.8714 6.31523   4
   3  10  -2 35.7858 6.66542   5
  -3 -10   2 36.0424 7.12394   1
  -3 -10   2 38.1243 6.70165   5
   2  10  -2 165.306 8.45683   1
   2  10  -2 173.734 8.35291   4
  -2 -10   2 175.407 9.02253   1
  -2 -10   2 172.367 8.55421   5
   1  10  -2 20.7478 4.22905   4
   1  10  -2 22.9285 4.68274   2
   1  10  -2 24.9154 5.64577   1
  -1 -10   2 15.0740 3.97304   1
  -1 -10   2 20.9817 4.13495   5
   0  10  -2 0.51070 3.19142   4
   0  10  -2 -1.4677 3.12451   1
   0  10  -2 2.68825 3.14508   2
   0 -10   2 0.74638 3.02668   5
   0 -10   2 1.72278 3.14242   4
   0 -10   2 0.82833 3.41635   1
  -1  10  -2 284.838 8.39068   3
  -1  10  -2 305.788 10.3135   1
  -1  10  -2 289.583 9.69860   2
  -1  10  -2 290.185 10.1581   4
   1 -10   2 273.147 10.1646   1
   1 -10   2 287.527 10.2134   4
   1 -10   2 280.408 9.73416   2
   1 -10   2 273.492 8.54662   3
   1 -10   2 296.958 9.70754   5
  -2  10  -2 2.94643 3.32925   3
  -2  10  -2 7.42825 3.55111   4
  -2  10  -2 8.29703 3.68010   2
   2 -10   2 6.50048 3.63130   1
   2 -10   2 12.2646 3.84851   2
   2 -10   2 9.86142 3.56445   5
   2 -10   2 9.08761 3.96690   4
  -3  10  -2 5.37112 3.76344   2
  -3  10  -2 0.76565 3.67110   4
  -3  10  -2 -1.7026 3.61322   3
   3 -10   2 6.89988 4.22660   2
   3 -10   2 -1.9294 3.36846   1
   3 -10   2 0.21422 4.28488   4
  -4  10  -2 13.5941 4.58241   4
  -4  10  -2 14.1824 4.18364   3
  -4  10  -2 15.1693 4.60000   2
   4 -10   2 15.8519 5.32834   4
   4 -10   2 18.5937 4.61533   1
   4 -10   2 14.0319 5.19226   2
   5   9  -2 31.7585 8.32487   1
   5   9  -2 35.1262 6.41017   4
   5   9  -2 24.2062 4.94379   5
  -5  -9   2 25.0197 6.36871   5
   4   9  -2 2.55423 3.55064   5
   4   9  -2 3.25813 3.36652   4
   4   9  -2 2.61961 3.88761   1
  -4  -9   2 1.34216 3.66688   1
  -4  -9   2 6.84873 3.25902   5
   3   9  -2 76.7712 6.66504   1
   3   9  -2 65.9771 6.02271   5
   3   9  -2 75.5779 5.97798   4
  -3  -9   2 75.8770 6.06682   5
  -3  -9   2 84.8137 6.63562   1
   2   9  -2 3.57273 3.20641   1
   2   9  -2 6.27601 2.29881   2
   2   9  -2 4.95159 3.07686   4
  -2  -9   2 4.65541 3.34792   3
  -2  -9   2 1.55235 2.87190   5
  -2  -9   2 5.52762 3.14073   1
   1   9  -2 80.7206 5.46852   4
   1   9  -2 83.2865 6.36388   1
   1   9  -2 69.0938 4.09353   3
   1   9  -2 63.4130 4.65771   2
  -1  -9   2 62.9058 4.34461   3
  -1  -9   2 76.6286 5.89135   5
  -1  -9   2 75.4931 6.30205   1
   0   9  -2 44.0326 4.76788   2
   0   9  -2 41.7501 4.85849   4
   0   9  -2 37.3467 4.94798   1
   0   9  -2 39.1392 3.71424   3
   0  -9   2 34.3152 4.87210   4
   0  -9   2 45.0830 5.30268   1
   0  -9   2 42.7704 4.00473   3
   0  -9   2 35.4994 4.66367   5
   0  -9   2 44.0867 4.89058   2
  -1   9  -2 5.57544 2.43283   3
  -1   9  -2 2.50024 2.68189   4
  -1   9  -2 0.19744 2.55749   2
   1  -9   2 2.89073 2.53520   2
   1  -9   2 -1.7241 2.49686   5
   1  -9   2 -2.8884 2.60279   4
   1  -9   2 1.70675 2.71248   1
   1  -9   2 2.71455 2.52338   3
  -2   9  -2 104.497 6.49696   4
  -2   9  -2 91.5461 6.45999   2
  -2   9  -2 101.509 5.69285   3
   2  -9   2 91.9419 5.90135   5
   2  -9   2 87.6785 6.32197   4
   2  -9   2 89.0237 6.43977   2
   2  -9   2 88.7894 6.16070   1
  -3   9  -2 10.9765 3.67324   2
  -3   9  -2 12.8518 3.55174   3
  -3   9  -2 11.6802 3.49206   4
   3  -9   2 9.79839 3.70340   4
   3  -9   2 9.97236 3.56578   1
   3  -9   2 12.3237 3.80713   2
   3  -9   2 5.13131 2.71398   5
  -4   9  -2 -0.5084 3.57806   4
  -4   9  -2 7.72299 3.66684   3
  -4   9  -2 2.96859 4.07605   2
   4  -9   2 5.20821 4.30202   2
   4  -9   2 9.74142 4.31509   4
   4  -9   2 1.15327 3.99932   1
  -5   9  -2 19.6199 4.84923   3
  -5   9  -2 44.1582 8.59174   2
   5  -9   2 16.9021 5.15234   2
   5  -9   2 25.5154 5.46611   4
   6   8  -2 11.3805 4.97657   5
   6   8  -2 3.98171 3.91951   4
   6   8  -2 -1.4264 4.99213   1
  -6  -8   2 -7.4936 3.82444   5
   5   8  -2 45.1438 6.91850   5
   5   8  -2 51.2576 6.11246   4
   5   8  -2 53.9270 7.08430   1
  -5  -8   2 51.8692 6.30441   5
   4   8  -2 140.839 6.92313   4
   4   8  -2 158.273 7.75217   5
   4   8  -2 149.354 7.99237   1
  -4  -8   2 153.291 7.87387   1
  -4  -8   2 149.134 6.44918   3
  -4  -8   2 153.693 7.50589   5
   3   8  -2 108.946 5.91089   4
   3   8  -2 114.526 6.59846   1
   3   8  -2 99.2326 6.28880   5
  -3  -8   2 114.402 6.61306   5
  -3  -8   2 106.576 5.24291   3
  -3  -8   2 110.554 6.83039   1
   2   8  -2 20.7822 4.57455   1
   2   8  -2 15.1591 3.01495   2
   2   8  -2 16.8845 2.93025   4
  -2  -8   2 21.1365 3.38715   3
  -2  -8   2 17.8800 4.31106   5
  -2  -8   2 14.0177 3.06421   1
   1   8  -2 15.2551 3.34604   2
   1   8  -2 15.8492 4.21822   1
   1   8  -2 15.1489 3.82643   4
  -1  -8   2 16.5837 3.79475   5
  -1  -8   2 12.5647 3.03690   3
  -1  -8   2 20.5555 4.12316   1
   0   8  -2 289.551 8.89600   1
   0   8  -2 305.664 8.83218   4
   0   8  -2 315.224 7.71611   3
   0   8  -2 307.316 8.13706   2
   0  -8   2 315.501 8.80758   4
   0  -8   2 284.457 8.23978   2
   0  -8   2 308.337 8.54028   5
   0  -8   2 306.039 8.91027   1
   0  -8   2 307.365 7.66121   3
  -1   8  -2 8.06022 2.47458   4
  -1   8  -2 8.09494 2.33418   2
  -1   8  -2 7.44013 2.14750   3
   1  -8   2 5.64046 2.10385   3
   1  -8   2 9.13907 2.38404   2
   1  -8   2 4.98366 2.48278   4
   1  -8   2 7.52782 2.44677   1
   1  -8   2 15.3057 3.73825   5
  -2   8  -2 49.4394 4.22458   3
  -2   8  -2 44.9539 4.62861   2
  -2   8  -2 53.9171 5.00497   4
   2  -8   2 47.0184 4.85219   4
   2  -8   2 54.9377 4.56003   3
   2  -8   2 51.6748 4.78108   2
   2  -8   2 56.4681 4.43380   5
   2  -8   2 55.7986 4.73561   1
  -3   8  -2 224.832 7.88973   3
  -3   8  -2 229.750 8.53833   2
  -3   8  -2 233.831 8.53214   4
   3  -8   2 231.905 8.59063   4
   3  -8   2 225.033 8.24669   1
   3  -8   2 225.545 8.48376   2
   3  -8   2 218.187 6.73974   5
  -4   8  -2 4.78445 3.42775   3
  -4   8  -2 2.49043 3.20711   2
   4  -8   2 0.61175 3.27347   2
   4  -8   2 0.45194 3.24851   4
   4  -8   2 0.22062 3.44592   1
  -5   8  -2 8.38657 4.12751   2
  -5   8  -2 3.89652 3.85016   3
   5  -8   2 -1.6529 3.83438   1
   5  -8   2 -0.7938 3.87185   4
   5  -8   2 1.47048 3.91698   2
  -6   8  -2 44.0799 7.72668   3
  -6   8  -2 54.3750 8.22586   2
   6  -8   2 28.9622 5.45617   2
   6  -8   2 29.2452 5.36190   4
   6   7  -2 106.998 7.82708   5
   6   7  -2 120.444 9.09396   1
   6   7  -2 111.888 7.59788   4
  -6  -7   2 130.136 7.89714   5
  -6  -7   2 110.486 8.15294   3
   5   7  -2 337.991 11.2028   1
   5   7  -2 331.871 10.5400   5
   5   7  -2 340.417 10.0396   4
  -5  -7   2 324.834 9.78970   3
  -5  -7   2 330.720 10.5265   5
   4   7  -2 66.6072 5.83534   5
   4   7  -2 62.9715 5.90956   1
   4   7  -2 65.6019 5.12298   4
  -4  -7   2 67.5719 4.88103   3
  -4  -7   2 61.1440 5.53842   5
  -4  -7   2 67.6497 6.30565   1
   3   7  -2 77.3937 4.65799   4
   3   7  -2 70.1364 4.93965   5
   3   7  -2 76.0384 5.33831   1
  -3  -7   2 60.9800 4.10500   3
  -3  -7   2 72.1367 5.23337   1
  -3  -7   2 68.5750 4.87670   5
   2   7  -2 7.27911 2.13313   4
   2   7  -2 8.17495 1.70429   2
   2   7  -2 9.71443 2.41389   1
  -2  -7   2 7.97915 1.83836   3
  -2  -7   2 9.14063 2.34484   5
  -2  -7   2 8.49170 2.32667   1
   1   7  -2 10.7424 2.46634   2
   1   7  -2 22.9896 3.24378   4
   1   7  -2 17.8659 3.53117   1
  -1  -7   2 12.4279 2.60946   3
  -1  -7   2 17.8588 3.40910   1
  -1  -7   2 17.1117 3.21305   5
   0   7  -2 1086.28 20.5778   2
   0   7  -2 1137.98 20.4319   3
   0   7  -2 1087.89 21.2234   4
   0   7  -2 1116.60 21.5457   1
   0  -7   2 1107.61 20.6642   2
   0  -7   2 1124.53 21.3003   4
   0  -7   2 1123.09 21.2957   5
   0  -7   2 1150.41 20.4253   3
   0  -7   2 1101.62 21.5389   1
  -1   7  -2 21.2030 3.27290   2
  -1   7  -2 21.3116 3.41992   4
  -1   7  -2 24.9175 2.89793   3
   1  -7   2 21.1803 3.57814   1
   1  -7   2 25.8869 3.07529   5
   1  -7   2 15.9992 3.48374   4
   1  -7   2 17.0132 3.28234   2
   1  -7   2 28.6573 2.99500   3
  -2   7  -2 52.2913 4.08780   2
  -2   7  -2 52.0949 4.29553   4
  -2   7  -2 52.3350 3.93454   3
   2  -7   2 51.8657 3.97265   3
   2  -7   2 48.5382 4.03295   2
   2  -7   2 59.3032 3.52521   5
   2  -7   2 48.2900 4.19838   4
   2  -7   2 52.0239 4.19438   1
  -3   7  -2 322.016 9.48423   2
  -3   7  -2 312.477 8.90149   3
   3  -7   2 315.202 7.50666   5
   3  -7   2 325.639 8.84093   1
   3  -7   2 308.020 9.36962   2
   3  -7   2 306.809 9.36248   4
  -4   7  -2 29.1573 5.28755   2
  -4   7  -2 35.1539 5.01464   3
   4  -7   2 32.5450 5.26352   1
   4  -7   2 29.7167 4.99174   2
   4  -7   2 26.2791 5.10411   4
  -5   7  -2 1.98735 3.59949   2
  -5   7  -2 7.03353 3.42070   3
   5  -7   2 10.4603 3.48883   1
   5  -7   2 2.64075 3.45933   4
   5  -7   2 3.94805 3.63695   2
  -6   7  -2 29.1336 6.86194   3
  -6   7  -2 45.0949 8.03318   2
   6  -7   2 32.7090 6.99080   4
   6  -7   2 36.6854 7.40566   2
   7   6  -2 1.33465 3.90659   5
   7   6  -2 0.40819 3.75415   4
   7   6  -2 2.28469 4.68801   1
  -7  -6   2 -3.5722 4.01329   3
  -7  -6   2 0.37687 4.03009   5
   6   6  -2 -1.6647 3.13580   4
   6   6  -2 1.43197 3.13992   5
   6   6  -2 4.51018 3.86497   1
  -6  -6   2 -2.4568 3.05613   5
  -6  -6   2 3.05017 3.48251   3
   5   6  -2 105.438 5.98356   5
   5   6  -2 100.776 6.56556   1
   5   6  -2 109.641 5.78768   4
  -5  -6   2 108.965 6.11380   5
  -5  -6   2 103.111 6.37885   3
   4   6  -2 1402.81 27.0573   1
   4   6  -2 1402.85 25.8230   4
   4   6  -2 1376.76 26.4303   5
  -4  -6   2 1387.94 25.6496   3
  -4  -6   2 1365.92 26.3716   5
   3   6  -2 30.9866 3.92692   1
   3   6  -2 27.6801 3.11451   4
   3   6  -2 30.3476 2.05685   2
   3   6  -2 28.7036 3.59023   5
  -3  -6   2 25.6706 3.54769   1
  -3  -6   2 31.8804 3.70640   5
  -3  -6   2 35.1587 3.10058   3
   2   6  -2 64.7980 2.71313   2
   2   6  -2 67.1090 3.54197   4
   2   6  -2 55.7405 3.78795   1
  -2  -6   2 66.1904 3.28383   3
  -2  -6   2 63.1931 4.08817   1
  -2  -6   2 62.9242 3.86971   5
   1   6  -2 263.102 6.87589   4
   1   6  -2 266.895 6.18917   2
   1   6  -2 262.596 7.38243   1
  -1  -6   2 259.285 7.04503   5
  -1  -6   2 269.780 6.17135   2
  -1  -6   2 270.762 6.96705   4
  -1  -6   2 267.957 7.37351   1
  -1  -6   2 266.782 6.44972   3
   0   6  -2 227.269 6.39618   4
   0   6  -2 230.613 5.95256   3
   0   6  -2 242.583 6.00337   2
   0   6  -2 242.099 6.70909   1
   0  -6   2 236.321 5.95985   3
   0  -6   2 236.607 6.63974   1
   0  -6   2 230.832 6.42861   4
   0  -6   2 236.279 6.44281   5
   0  -6   2 230.990 6.01923   2
  -1   6  -2 959.379 18.3070   2
  -1   6  -2 946.234 18.4756   4
  -1   6  -2 971.167 18.0839   3
   1  -6   2 976.429 18.5388   1
   1  -6   2 973.778 18.3515   2
   1  -6   2 962.402 18.5347   4
   1  -6   2 972.441 18.0790   3
   1  -6   2 965.878 18.0251   5
  -2   6  -2 21.7868 2.94806   3
  -2   6  -2 31.2183 3.40961   2
   2  -6   2 23.5273 3.02203   1
   2  -6   2 30.3824 3.39235   2
   2  -6   2 26.3906 3.36826   4
   2  -6   2 27.8581 3.07285   3
   2  -6   2 28.9491 2.58289   5
  -3   6  -2 22.7854 3.84400   2
  -3   6  -2 20.1807 3.62556   3
   3  -6   2 19.7875 3.75016   2
   3  -6   2 22.4724 2.54081   5
   3  -6   2 25.0963 3.32606   1
   3  -6   2 24.8504 3.69393   4
  -4   6  -2 1.00554 2.60278   2
  -4   6  -2 6.26163 2.59976   3
   4  -6   2 0.58923 2.84485   2
   4  -6   2 -1.3487 2.44725   4
   4  -6   2 -2.1871 2.12245   1
  -5   6  -2 363.004 11.0753   3
  -5   6  -2 377.954 11.3501   2
   5  -6   2 335.260 9.68580   1
   5  -6   2 373.089 11.2073   4
   5  -6   2 381.964 11.2459   2
  -6   6  -2 -1.0813 3.38537   3
  -6   6  -2 0.86683 4.09407   2
   6  -6   2 0.68303 3.61472   2
   6  -6   2 5.40626 3.70835   4
  -7   6  -2 55.4267 8.46510   3
  -7   6  -2 59.6363 9.56813   2
   7  -6   2 59.2655 8.19689   4
   7  -6   2 47.9875 7.92536   2
   7   5  -2 17.8284 4.74284   1
   7   5  -2 9.99613 3.52594   5
   7   5  -2 7.30914 3.61231   4
  -7  -5   2 6.68804 4.02310   3
  -7  -5   2 10.8280 3.73189   5
   6   5  -2 27.7480 5.15443   4
   6   5  -2 28.4681 4.97473   5
   6   5  -2 22.7031 5.94873   1
  -6  -5   2 29.4962 5.18328   5
  -6  -5   2 33.4352 5.72517   3
   5   5  -2 16.4640 4.34386   1
   5   5  -2 22.5263 3.83636   5
   5   5  -2 15.5098 2.52261   4
  -5  -5   2 17.8235 3.16227   3
  -5  -5   2 21.0678 4.14683   5
   4   5  -2 43.7966 3.58432   4
   4   5  -2 41.6893 3.76765   5
   4   5  -2 48.5582 4.35932   1
  -4  -5   2 48.7201 3.80651   3
  -4  -5   2 40.6752 3.79243   5
   3   5  -2 724.790 15.0481   5
   3   5  -2 729.136 15.3162   1
   3   5  -2 730.981 14.3098   4
  -3  -5   2 729.905 15.2814   1
  -3  -5   2 740.836 14.3858   3
  -3  -5   2 731.871 15.0085   5
   2   5  -2 297.911 7.02938   4
   2   5  -2 299.469 7.69624   1
   2   5  -2 296.041 5.94153   2
  -2  -5   2 295.320 7.70636   1
  -2  -5   2 292.086 7.52150   5
  -2  -5   2 302.576 6.92263   3
   1   5  -2 565.602 11.5420   1
   1   5  -2 554.223 11.0627   4
   1   5  -2 555.134 10.2994   2
  -1  -5   2 528.955 10.3101   2
  -1  -5   2 538.772 11.2822   5
  -1  -5   2 541.990 11.4689   1
  -1  -5   2 546.891 10.7620   3
  -1  -5   2 547.168 11.0380   4
   0   5  -2 1902.27 32.5065   1
   0   5  -2 1848.24 32.2392   4
   0   5  -2 1847.59 31.8658   2
   0  -5   2 1879.81 32.2936   5
   0  -5   2 1883.61 31.9296   2
   0  -5   2 1869.19 32.2666   4
   0  -5   2 1866.03 32.4625   1
   0  -5   2 1873.10 31.9894   3
  -1   5  -2 413.126 8.80014   3
  -1   5  -2 394.518 8.76951   2
   1  -5   2 401.160 8.73270   3
   1  -5   2 403.121 8.81602   2
   1  -5   2 396.363 8.88327   4
   1  -5   2 409.880 8.84869   1
   1  -5   2 406.106 8.48934   5
  -2   5  -2 131.359 4.78985   2
  -2   5  -2 131.903 4.63069   3
   2  -5   2 131.521 3.85992   5
   2  -5   2 131.610 4.68479   3
   2  -5   2 128.708 4.77123   2
   2  -5   2 130.323 4.70049   4
   2  -5   2 139.569 4.44050   1
  -3   5  -2 21.4700 3.05053   2
  -3   5  -2 18.6944 3.28405   3
  -3   5  -2 22.3303 2.05545   5
   3  -5   2 13.4780 3.07018   4
   3  -5   2 16.3413 3.06486   2
   3  -5   2 16.1716 2.55171   1
   3  -5   2 18.6500 2.10583   5
  -4   5  -2 120.842 5.69662   3
   4  -5   2 113.732 4.77434   1
   4  -5   2 107.210 5.56763   2
   4  -5   2 116.278 5.57903   4
  -5   5  -2 216.365 8.48600   2
  -5   5  -2 212.427 8.27402   3
   5  -5   2 223.924 8.44756   4
   5  -5   2 224.855 8.44939   2
   5  -5   2 211.977 7.17230   1
  -6   5  -2 114.348 7.49257   3
  -6   5  -2 106.536 7.56956   2
   6  -5   2 111.934 7.16539   2
   6  -5   2 114.448 7.41007   4
  -7   5  -2 47.5937 7.41013   3
  -7   5  -2 35.4708 5.74970   2
   7  -5   2 43.7247 6.82909   2
   7  -5   2 36.8267 7.48998   4
   7   4  -2 114.033 7.30358   4
   7   4  -2 122.328 7.12842   5
   7   4  -2 112.913 7.91784   1
  -7  -4   2 125.937 6.82604   5
  -7  -4   2 126.715 7.84995   3
   6   4  -2 40.0387 4.74031   5
   6   4  -2 48.2784 5.15181   4
   6   4  -2 49.2848 5.85813   1
  -6  -4   2 34.0375 5.36955   3
  -6  -4   2 33.2921 4.64025   5
   5   4  -2 27.2044 3.91021   5
   5   4  -2 28.2261 3.65622   4
   5   4  -2 29.1598 4.21484   1
  -5  -4   2 30.9939 4.26386   3
  -5  -4   2 29.6704 3.84731   5
   4   4  -2 414.666 9.74884   5
   4   4  -2 406.763 9.19171   4
   4   4  -2 406.061 10.0590   1
  -4  -4   2 407.778 9.62459   3
  -4  -4   2 407.993 9.71456   5
   3   4  -2 7.23524 1.40847   4
   3   4  -2 6.87030 1.64491   5
   3   4  -2 6.53487 1.72725   1
  -3  -4   2 10.8175 2.38875   5
  -3  -4   2 6.58443 1.43797   3
   2   4  -2 32.2971 2.21253   4
   2   4  -2 33.9273 2.50152   1
   2   4  -2 32.2692 2.48930   5
   2   4  -2 33.0030 1.47478   2
  -2  -4   2 33.4121 2.32215   3
  -2  -4   2 33.8414 2.62925   1
  -2  -4   2 32.6009 2.55305   5
   1   4  -2 1.82193 0.99144   4
   1   4  -2 2.94113 0.76924   2
   1   4  -2 -0.5446 1.06879   1
  -1  -4   2 -0.3324 0.81057   2
  -1  -4   2 3.95494 1.15712   5
  -1  -4   2 1.92583 1.11380   1
  -1  -4   2 1.09862 1.03073   3
   0   4  -2 9.88828 1.56530   2
   0   4  -2 10.7218 1.77883   1
   0   4  -2 10.8751 1.67531   4
   0  -4   2 13.5934 1.74618   4
   0  -4   2 11.4426 1.77290   3
   0  -4   2 8.43751 1.78385   1
   0  -4   2 12.1823 1.66971   5
   0  -4   2 11.0505 1.59727   2
  -1   4  -2 2724.76 45.6318   2
  -1   4  -2 2717.56 45.6621   3
   1  -4   2 2717.75 45.1430   5
   1  -4   2 2737.62 45.4680   1
   1  -4   2 2725.97 45.6074   2
   1  -4   2 2732.89 45.6491   3
   1  -4   2 2715.69 45.6612   4
  -2   4  -2 752.548 14.5815   3
   2  -4   2 740.658 14.5284   4
   2  -4   2 757.645 14.5852   3
   2  -4   2 743.721 13.9442   1
   2  -4   2 733.654 14.4962   2
   2  -4   2 769.147 13.3737   5
  -3   4  -2 278.564 5.48002   5
  -3   4  -2 284.763 7.57180   3
   3  -4   2 287.552 5.52794   5
   3  -4   2 281.337 6.63893   1
   3  -4   2 276.840 7.45188   4
   3  -4   2 277.609 7.43829   2
  -4   4  -2 129.728 5.47516   3
   4  -4   2 124.064 4.43518   1
   4  -4   2 120.682 5.25350   2
   4  -4   2 116.986 5.22839   4
  -5   4  -2 552.165 13.7481   3
   5  -4   2 552.352 13.5301   4
   5  -4   2 574.842 13.4410   2
   5  -4   2 558.963 12.0626   1
  -6   4  -2 160.973 7.63254   2
  -6   4  -2 173.338 8.25677   3
   6  -4   2 169.307 7.67209   2
   6  -4   2 166.804 7.77013   4
   6  -4   2 171.978 6.61618   1
  -7   4  -2 2.47712 4.15937   2
  -7   4  -2 1.23454 3.87538   3
   7  -4   2 4.49568 3.68230   4
   7  -4   2 -8.8567 3.49197   2
   8   3  -2 29.4675 7.25969   4
   8   3  -2 15.6643 5.18985   1
  -8  -3   2 9.02582 5.73027   3
   7   3  -2 -5.7552 3.07692   4
   7   3  -2 -3.9646 3.03814   5
   7   3  -2 -3.6596 3.35315   1
  -7  -3   2 4.23339 3.90717   3
  -7  -3   2 2.28648 2.83978   5
   6   3  -2 3.45469 2.60156   4
   6   3  -2 1.99031 2.66238   5
   6   3  -2 4.90365 2.77630   1
  -6  -3   2 2.00725 2.50867   5
  -6  -3   2 -1.8374 2.76123   3
   5   3  -2 -0.9437 1.79179   5
   5   3  -2 -1.1292 1.71996   4
   5   3  -2 -0.7432 2.01620   1
  -5  -3   2 -1.3610 1.70696   5
  -5  -3   2 -2.5943 2.25376   3
   4   3  -2 284.070 7.20179   5
   4   3  -2 291.386 6.96589   4
   4   3  -2 275.370 7.68644   1
  -4  -3   2 292.233 7.63178   3
  -4  -3   2 286.812 7.23507   5
   3   3  -2 3126.05 52.5031   5
   3   3  -2 3105.35 51.9466   4
   3   3  -2 3139.76 52.9539   1
  -3  -3   2 3123.21 52.5311   3
  -3  -3   2 3169.23 52.5589   5
   2   3  -2 100.082 3.45110   5
   2   3  -2 101.982 3.03632   4
   2   3  -2 102.226 3.62900   1
  -2  -3   2 101.325 3.38195   3
  -2  -3   2 99.2827 3.53188   1
  -2  -3   2 101.982 3.44349   5
   1   3  -2 268.445 5.55607   4
   1   3  -2 269.155 6.00362   5
   1   3  -2 268.655 5.05224   2
   1   3  -2 263.804 6.01997   1
  -1  -3   2 265.138 5.05147   2
  -1  -3   2 267.194 6.06435   1
  -1  -3   2 269.163 5.87331   3
  -1  -3   2 266.613 5.98414   5
   0   3  -2 433.239 8.28502   5
   0   3  -2 419.126 8.05202   4
   0   3  -2 416.140 8.23497   1
   0  -3   2 417.990 8.26242   1
   0  -3   2 416.380 8.07197   4
   0  -3   2 424.622 8.26493   5
   0  -3   2 419.558 8.31759   3
   0  -3   2 422.292 7.96538   2
  -1   3  -2 28.1611 1.92029   3
  -1   3  -2 25.5700 1.56025   5
   1  -3   2 23.9038 1.79255   4
   1  -3   2 22.5691 1.52801   5
   1  -3   2 24.1229 1.81600   2
   1  -3   2 25.4048 1.71127   1
   1  -3   2 24.6086 1.88004   3
  -2   3  -2 2276.18 37.2851   5
  -2   3  -2 2288.69 38.8397   3
   2  -3   2 2294.86 38.8268   3
   2  -3   2 2256.20 37.2639   5
   2  -3   2 2261.59 38.6575   2
   2  -3   2 2305.91 38.6999   4
   2  -3   2 2272.42 37.8894   1
  -3   3  -2 132.193 4.69228   3
   3  -3   2 131.413 4.54861   4
   3  -3   2 128.482 4.57119   2
   3  -3   2 126.051 3.81491   1
  -4   3  -2 -1.0065 1.72892   3
   4  -3   2 -0.7756 1.31702   1
   4  -3   2 -2.0257 1.64319   2
   4  -3   2 0.86031 1.51394   4
  -5   3  -2 114.225 5.99119   3
   5  -3   2 121.114 4.54755   1
   5  -3   2 118.228 5.45389   2
   5  -3   2 113.379 5.66446   4
  -6   3  -2 126.745 7.20582   3
   6  -3   2 129.911 6.81158   2
   6  -3   2 130.780 6.92698   4
   6  -3   2 126.524 5.77396   1
  -7   3  -2 2.99178 3.80333   2
  -7   3  -2 1.93926 3.92398   3
   7  -3   2 -1.4141 3.39750   4
   7  -3   2 4.85765 3.61566   2
  -8   3  -2 12.5874 5.10860   2
  -8   3  -2 7.85595 4.80767   3
   8  -3   2 4.75241 4.40967   4
   8  -3   2 13.8462 4.65082   2
   8   2  -2 41.6766 7.35853   1
   8   2  -2 39.3707 7.47329   4
  -8  -2   2 63.7938 9.40450   3
   7   2  -2 36.4198 5.76900   1
   7   2  -2 46.0466 5.50409   4
  -7  -2   2 39.5129 6.77071   3
   6   2  -2 307.620 8.15895   5
   6   2  -2 301.512 8.68703   4
   6   2  -2 309.833 9.24478   1
  -6  -2   2 316.138 9.82954   3
  -6  -2   2 297.958 8.02649   5
   5   2  -2 246.785 6.61371   5
   5   2  -2 244.266 7.43841   1
   5   2  -2 237.971 6.74031   4
   5   2  -2 245.716 5.43541   2
  -5  -2   2 242.350 6.58842   5
  -5  -2   2 235.717 5.44661   2
  -5  -2   2 231.505 7.54230   3
   4   2  -2 540.203 11.0664   4
   4   2  -2 551.204 11.8925   1
   4   2  -2 553.971 9.81147   2
   4   2  -2 561.624 11.2570   5
  -4  -2   2 548.590 11.1820   5
  -4  -2   2 558.713 11.9542   3
  -4  -2   2 559.616 9.85636   2
   3   2  -2 7.13741 1.78440   1
   3   2  -2 8.10999 1.80644   5
   3   2  -2 5.54105 1.12573   4
  -3  -2   2 9.04994 1.74719   5
  -3  -2   2 11.4273 2.07735   3
   2   2  -2 113.277 3.54822   1
   2   2  -2 100.534 2.82535   4
   2   2  -2 110.265 3.31409   5
  -2  -2   2 114.599 3.43478   3
  -2  -2   2 110.752 3.31378   5
   1   2  -2 384.564 7.62047   5
   1   2  -2 380.610 6.60930   2
   1   2  -2 402.296 6.64673   2
   1   2  -2 394.746 7.06117   4
   1   2  -2 386.758 7.68823   1
  -1  -2   2 385.496 7.69039   1
  -1  -2   2 396.597 6.63993   2
  -1  -2   2 384.003 7.63337   5
  -1  -2   2 388.756 7.63785   3
   0   2  -2 2872.80 47.2437   5
   0   2  -2 2885.55 47.1982   1
   0  -2   2 2873.93 46.9834   4
   0  -2   2 2899.08 47.0350   2
   0  -2   2 2909.75 47.2692   5
   0  -2   2 2921.04 47.2284   1
   0  -2   2 2857.10 47.4426   3
  -1   2  -2 509.479 9.70452   3
  -1   2  -2 514.747 8.97435   5
   1  -2   2 507.423 9.53075   2
   1  -2   2 504.376 9.42987   4
   1  -2   2 499.637 9.64913   3
   1  -2   2 503.929 9.03458   1
   1  -2   2 511.449 8.98226   5
  -2   2  -2 42.5078 2.35701   3
  -2   2  -2 43.1843 1.32483   5
  -2   2  -2 46.9250 1.32989   5
   2  -2   2 41.8096 2.21472   4
   2  -2   2 47.1077 1.37579   5
   2  -2   2 43.9186 2.42782   3
   2  -2   2 44.4986 1.82033   1
   2  -2   2 45.7864 2.35159   2
  -3   2  -2 257.093 6.60267   3
   3  -2   2 255.264 6.40587   4
   3  -2   2 260.730 5.55596   1
   3  -2   2 253.121 6.39242   2
  -4   2  -2 7.20804 1.81181   3
   4  -2   2 9.46497 1.85827   4
   4  -2   2 6.70022 1.72475   2
   4  -2   2 9.98327 2.14494   1
  -5   2  -2 41.0644 4.29316   3
   5  -2   2 47.0902 3.28405   1
   5  -2   2 52.5235 4.09995   2
   5  -2   2 53.5447 4.37319   4
  -6   2  -2 771.978 17.6906   3
   6  -2   2 773.524 16.6366   2
   6  -2   2 757.200 17.2279   4
   6  -2   2 744.361 15.2839   1
  -7   2  -2 48.0658 7.07365   3
   7  -2   2 43.2631 6.15169   4
   7  -2   2 36.7170 5.62850   2
  -8   2  -2 11.9038 4.63158   2
  -8   2  -2 11.7325 4.96785   3
   8  -2   2 -0.7426 4.25817   2
   8  -2   2 0.46889 4.37990   4
   8   1  -2 -3.3789 3.80216   4
   8   1  -2 3.48785 3.97169   1
  -8  -1   2 1.83315 5.35280   3
   7   1  -2 1.14086 2.96835   1
   7   1  -2 0.22698 3.01750   4
  -7  -1   2 3.10087 3.77026   3
   6   1  -2 24.5525 4.07411   4
   6   1  -2 17.3530 3.05473   2
   6   1  -2 18.9171 4.11354   1
   6   1  -2 24.5005 3.62625   5
  -6  -1   2 18.7772 3.29282   2
  -6  -1   2 21.4917 4.87723   3
   5   1  -2 404.249 8.74864   5
   5   1  -2 405.492 9.34966   4
   5   1  -2 361.676 9.65000   1
   5   1  -2 406.558 8.25721   2
  -5  -1   2 405.707 8.30396   2
  -5  -1   2 398.207 10.1656   3
   4   1  -2 2.32825 1.42604   1
   4   1  -2 0.65166 0.99340   2
   4   1  -2 1.20449 1.21852   5
   4   1  -2 0.13398 1.16709   4
  -4  -1   2 0.43717 1.09891   5
  -4  -1   2 0.06230 1.03476   2
  -4  -1   2 0.02441 1.51845   3
   3   1  -2 3.25507 0.77306   2
   3   1  -2 5.32473 1.31161   1
   3   1  -2 3.92361 1.03722   5
   3   1  -2 3.24433 1.01604   4
  -3  -1   2 2.24773 1.04909   5
  -3  -1   2 2.60104 1.19362   3
  -3  -1   2 3.52876 0.83001   2
   2   1  -2 2365.02 39.5037   1
   2   1  -2 2399.86 39.1976   5
   2   1  -2 2306.98 38.6351   4
  -2  -1   2 2326.53 39.4525   3
  -2  -1   2 2410.46 39.2148   5
   1   1  -2 192.893 4.23354   1
   1   1  -2 192.421 4.18739   5
   1   1  -2 195.453 3.50809   4
  -1  -1   2 185.386 3.51293   4
  -1  -1   2 192.942 4.19869   5
  -1  -1   2 197.351 4.32142   3
   0   1  -2 403.372 7.43127   4
   0   1  -2 442.935 7.87449   5
   0   1  -2 433.637 7.71013   1
   0  -1   2 443.160 7.70942   2
   0  -1   2 442.698 8.14214   3
   0  -1   2 443.023 7.48818   4
   0  -1   2 445.231 7.73412   1
   0  -1   2 447.902 7.89460   5
  -1   1  -2 4199.51 75.8500   1
  -1   1  -2 4698.04 76.8284   3
  -1   1  -2 4887.67 76.0544   5
   1  -1   2 4938.39 76.7041   2
   1  -1   2 4987.71 76.5980   4
   1  -1   2 4664.27 76.7969   3
  -2   1  -2 4628.39 75.8358   3
   2  -1   2 4685.50 75.6375   2
   2  -1   2 4705.17 75.6628   4
   2  -1   2 4513.24 75.7512   3
   2  -1   2 4622.46 74.5767   1
  -3   1  -2 517.680 10.6951   3
   3  -1   2 509.839 9.47278   1
   3  -1   2 523.019 10.4281   2
   3  -1   2 519.990 10.5582   4
  -4   1  -2 2.39110 1.47701   3
   4  -1   2 0.12327 1.36062   2
   4  -1   2 0.15649 1.43719   4
   4  -1   2 2.02047 1.22299   1
  -5   1  -2 446.134 11.0279   3
   5  -1   2 440.082 9.34244   1
   5  -1   2 431.531 10.2757   2
   5  -1   2 428.374 10.6785   4
  -6   1  -2 33.3852 5.41351   3
   6  -1   2 21.9420 3.62085   1
   6  -1   2 24.9020 4.79482   4
   6  -1   2 31.8335 4.35970   2
  -7   1  -2 707.276 17.6015   3
   7  -1   2 713.850 16.3321   2
   7  -1   2 695.620 17.0227   4
  -8   1  -2 46.2812 8.95732   3
   8  -1   2 31.2969 4.90769   2
   8  -1   2 40.8292 7.36702   4
   8   0  -2 1.13302 3.92657   4
   8   0  -2 2.14847 3.82194   1
  -8   0   2 -1.2115 5.13962   3
   7   0  -2 34.1977 5.82305   1
   7   0  -2 37.6078 5.78582   4
  -7   0   2 30.5400 6.53033   3
   6   0  -2 589.168 13.6386   1
   6   0  -2 586.780 11.9155   5
   6   0  -2 596.287 13.4181   4
   6   0  -2 584.410 12.2246   2
  -6   0   2 583.322 12.3247   2
  -6   0   2 597.094 14.5804   3
   5   0  -2 92.2078 4.78318   1
   5   0  -2 93.1891 3.67067   2
   5   0  -2 91.6761 4.25325   4
   5   0  -2 92.4515 3.64510   5
  -5   0   2 82.6151 3.65775   2
  -5   0   2 95.1867 4.92274   3
   4   0  -2 1540.87 26.9593   4
   4   0  -2 1549.65 26.3339   2
   4   0  -2 1557.95 26.4693   5
   4   0  -2 1532.51 27.4864   1
  -4   0   2 1550.75 26.3584   2
  -4   0   2 1513.14 27.8071   3
   3   0  -2 23.2743 1.55727   2
   3   0  -2 22.7478 2.15489   1
   3   0  -2 23.0649 1.76548   5
   3   0  -2 22.7520 1.78521   4
  -3   0   2 25.2721 1.61238   2
  -3   0   2 22.6441 2.12769   3
   2   0  -2 116.233 2.85342   4
   2   0  -2 116.573 3.37814   1
   2   0  -2 119.110 2.71297   2
   2   0  -2 118.359 3.09571   5
  -2   0   2 119.615 2.72348   2
  -2   0   2 115.193 3.40701   3
   1   0  -2 3918.21 66.8475   2
   1   0  -2 4230.12 67.4596   1
   1   0  -2 4362.02 67.3750   5
  -1   0   2 4027.11 67.4613   3
  -1   0   2 4253.75 66.7147   4
   0   0  -2 1662.58 27.3855   4
   0   0  -2 1738.54 27.6038   1
   0   0  -2 1685.71 27.7833   5
   0   0   2 1696.73 27.9303   3
   0   0   2 1731.67 27.3976   4
   0   0   2 1699.48 27.7279   2
   0   0   2 1652.94 27.5729   1
  -1   0  -2 5.54756 0.74974   5
  -1   0  -2 5.66575 1.11296   3
   1   0   2 6.17767 1.04132   3
   1   0   2 6.74265 0.75242   5
   1   0   2 6.17715 1.01203   2
   1   0   2 6.06657 0.99061   4
  -2   0  -2 8.44789 1.39329   3
  -2   0  -2 4.78973 0.74120   5
  -2   0  -2 4.36985 0.74149   1
   2   0   2 4.09276 0.87303   4
   2   0   2 4.48355 1.02291   3
   2   0   2 5.42834 0.83797   5
   2   0   2 3.92136 0.94038   2
   2   0   2 4.02586 0.82463   1
  -3   0  -2 2084.35 35.3739   3
  -3   0  -2 2077.66 33.5450   5
   3   0   2 1977.26 33.5669   5
   3   0   2 2117.09 35.4219   4
   3   0   2 2067.37 34.1309   1
   3   0   2 2082.38 35.0694   2
  -4   0  -2 32.8326 2.99188   3
   4   0   2 34.5197 2.23522   1
   4   0   2 36.1513 2.59196   2
   4   0   2 30.5641 2.84105   4
  -5   0  -2 120.114 5.45696   3
   5   0   2 124.688 5.39344   4
   5   0   2 122.048 4.26453   1
   5   0   2 124.022 4.90532   2
  -6   0  -2 -2.0566 2.56266   3
   6   0   2 -0.2151 2.05366   1
   6   0   2 1.73001 2.19027   2
   6   0   2 0.53244 2.45385   4
  -7   0  -2 12.2729 3.84746   3
   7   0   2 20.4474 5.12705   2
   7   0   2 4.25783 3.83397   1
   7   0   2 30.6889 5.73785   4
  -8   0  -2 136.121 10.1097   3
   8   0   2 129.812 8.65610   4
   8   0   2 127.579 7.92090   2
   8  -1  -2 151.664 8.70343   1
   8  -1  -2 162.738 9.14513   4
  -8   1   2 162.331 10.4632   3
   7  -1  -2 18.2183 4.01110   1
   7  -1  -2 32.2050 5.17181   4
   7  -1  -2 33.1551 4.79954   2
  -7   1   2 21.1312 3.68590   2
  -7   1   2 13.9179 4.05462   3
   6  -1  -2 -2.2563 2.12114   2
   6  -1  -2 0.40356 2.21993   1
   6  -1  -2 2.07882 1.78630   5
   6  -1  -2 -1.0205 2.31778   4
  -6   1   2 2.32029 2.34555   2
  -6   1   2 -0.4607 2.63315   3
   5  -1  -2 281.851 7.03255   2
   5  -1  -2 278.290 6.45240   5
   5  -1  -2 286.051 7.66380   4
   5  -1  -2 278.295 7.88329   1
  -5   1   2 282.773 7.08136   2
  -5   1   2 267.810 8.26275   3
   4  -1  -2 441.413 8.60566   5
   4  -1  -2 430.913 9.70503   1
   4  -1  -2 436.873 8.98092   2
   4  -1  -2 433.420 9.32831   4
  -4   1   2 419.708 9.95195   3
  -4   1   2 433.099 8.99871   2
   3  -1  -2 262.141 5.75750   2
   3  -1  -2 258.846 6.28961   1
   3  -1  -2 262.711 5.54960   5
   3  -1  -2 256.334 5.87350   4
  -3   1   2 257.540 6.45635   3
  -3   1   2 257.932 5.72639   2
   2  -1  -2 803.462 14.3647   1
   2  -1  -2 776.373 13.8568   4
   2  -1  -2 804.277 13.8420   5
   2  -1  -2 803.980 13.8686   2
  -2   1   2 793.462 13.8722   2
  -2   1   2 777.254 14.3606   3
   1  -1  -2 1.52286 0.61423   5
   1  -1  -2 0.34165 0.58714   1
   1  -1  -2 1.31188 0.50449   4
  -1   1   2 1.94142 0.61858   2
  -1   1   2 0.98875 0.60147   3
   0  -1  -2 368.847 6.35701   1
   0  -1  -2 297.223 6.15434   3
   0  -1  -2 360.243 6.48013   5
   0   1   2 356.965 6.24900   3
   0   1   2 367.122 6.29897   4
  -1  -1  -2 1680.25 27.2959   5
  -1  -1  -2 1694.86 27.3043   3
  -1  -1  -2 1656.05 26.9630   1
   1   1   2 1666.87 27.5314   4
   1   1   2 1584.40 26.9385   1
   1   1   2 1640.27 27.2600   3
   1   1   2 1664.74 27.5009   2
  -2  -1  -2 137.630 3.60244   3
  -2  -1  -2 140.155 3.14576   5
   2   1   2 138.254 3.55152   2
   2   1   2 139.620 3.06386   1
  -3  -1  -2 1424.92 24.7339   3
  -3  -1  -2 1413.23 23.5923   5
   3   1   2 1413.51 24.4548   2
   3   1   2 1393.33 24.8622   4
   3   1   2 1415.65 23.8633   1
  -4  -1  -2 605.651 10.8268   5
  -4  -1  -2 596.676 12.4836   3
   4   1   2 606.288 11.9465   2
   4   1   2 605.903 11.4830   1
   4   1   2 586.924 12.5148   4
  -5  -1  -2 -1.0401 1.13683   5
  -5  -1  -2 0.91004 1.83496   3
   5   1   2 1.54276 1.65479   2
   5   1   2 3.49884 1.97025   4
   5   1   2 0.12319 1.49735   1
   5   1   2 1.40568 1.16394   5
  -6  -1  -2 12.8463 2.95314   3
   6   1   2 5.76993 2.76592   4
   6   1   2 8.05262 2.43435   2
   6   1   2 7.37665 2.32948   1
  -7  -1  -2 211.874 9.34879   3
   7   1   2 215.856 8.00226   2
   7   1   2 228.649 8.15539   1
   7   1   2 237.421 9.15657   4
  -8  -1  -2 17.7502 5.46347   3
   8   1   2 29.0104 6.78148   4
   8   1   2 23.6268 5.93635   2
   8  -2  -2 5.33985 4.10228   1
   8  -2  -2 -3.5654 4.39231   4
  -8   2   2 -6.3196 4.38754   3
   7  -2  -2 49.2662 6.05866   1
   7  -2  -2 50.9982 5.78010   4
   7  -2  -2 59.3694 5.90337   2
  -7   2   2 51.0954 6.30847   3
  -7   2   2 48.8964 6.11088   2
   6  -2  -2 -1.7834 2.21516   4
   6  -2  -2 3.17249 2.47537   1
   6  -2  -2 3.23001 2.42274   2
  -6   2   2 1.37851 3.02897   3
   5  -2  -2 485.890 11.2216   4
   5  -2  -2 500.718 11.4744   1
   5  -2  -2 478.545 9.59308   5
   5  -2  -2 490.341 10.8078   2
  -5   2   2 488.274 10.7880   2
  -5   2   2 483.590 11.8713   3
   4  -2  -2 2686.65 45.0960   2
   4  -2  -2 2670.24 44.1105   5
   4  -2  -2 2635.18 45.3000   4
   4  -2  -2 2653.36 45.5520   1
  -4   2   2 2669.96 46.0116   3
  -4   2   2 2663.13 45.0608   2
   3  -2  -2 0.98404 1.18774   1
   3  -2  -2 2.26018 1.09450   2
   3  -2  -2 2.73606 1.05334   4
   3  -2  -2 0.23257 0.88669   5
  -3   2   2 4.26867 1.18551   3
  -3   2   2 2.87949 1.07617   2
   2  -2  -2 709.745 12.9941   2
   2  -2  -2 731.143 13.3294   1
   2  -2  -2 717.880 12.9842   4
   2  -2  -2 721.881 12.6924   5
  -2   2   2 703.014 12.9890   2
  -2   2   2 708.378 13.1820   3
   1  -2  -2 9.58681 1.12380   4
   1  -2  -2 11.1240 1.21072   5
  -1   2   2 11.7729 1.15633   3
  -1   2   2 12.5688 1.19007   4
  -1   2   2 12.2189 1.27359   2
   0  -2  -2 21.5708 1.32571   5
   0  -2  -2 20.8128 1.32528   1
   0  -2  -2 18.9322 1.30014   4
   0  -2  -2 19.4969 0.91007   3
   0   2   2 18.8380 1.28548   2
   0   2   2 21.1213 0.88900   3
  -1  -2  -2 24.7180 1.09631   3
  -1  -2  -2 28.0116 1.42264   1
  -1  -2  -2 25.8123 1.40900   5
  -1  -2  -2 29.3317 1.15248   3
   1   2   2 27.8623 1.52867   2
   1   2   2 28.0626 1.08412   3
  -2  -2  -2 210.388 4.63747   5
  -2  -2  -2 213.772 4.59578   1
  -2  -2  -2 214.946 4.64830   3
   2   2   2 214.768 4.61684   1
   2   2   2 206.188 4.76664   2
   2   2   2 214.210 5.13634   4
  -3  -2  -2 1460.69 24.8274   5
  -3  -2  -2 1463.37 25.3422   3
   3   2   2 1451.66 25.7707   4
   3   2   2 1437.40 25.1106   2
   3   2   2 1484.73 24.9855   1
  -4  -2  -2 640.863 11.8299   5
  -4  -2  -2 621.963 12.7746   3
   4   2   2 633.559 12.3358   2
   4   2   2 613.469 13.0268   4
   4   2   2 636.398 12.1678   1
  -5  -2  -2 397.033 10.0276   3
  -5  -2  -2 400.987 8.37976   5
   5   2   2 390.088 10.0088   4
   5   2   2 391.747 9.01009   2
   5   2   2 410.300 8.40337   5
   5   2   2 392.360 8.95041   1
  -6  -2  -2 64.0351 3.45439   5
  -6  -2  -2 62.4161 5.06875   3
   6   2   2 49.4557 3.44894   5
   6   2   2 63.6102 4.33951   1
   6   2   2 63.9431 4.42538   2
   6   2   2 57.5727 5.26751   4
  -7  -2  -2 -0.9129 3.26640   3
   7   2   2 -0.0348 3.13264   1
   7   2   2 1.49149 3.03146   2
   7   2   2 1.15337 3.17868   4
  -8  -2  -2 149.265 10.3023   3
   8   2   2 137.394 8.74178   4
   8  -3  -2 25.3516 4.80539   2
   8  -3  -2 42.6182 7.76033   4
   8  -3  -2 37.8793 7.66152   1
  -8   3   2 27.3279 5.60535   3
  -8   3   2 34.2367 7.09215   2
   7  -3  -2 0.38340 3.24623   1
   7  -3  -2 -0.9526 3.37961   2
   7  -3  -2 2.76853 3.37671   4
  -7   3   2 8.72522 3.96969   3
  -7   3   2 1.38911 3.73750   2
   6  -3  -2 292.783 9.04753   1
   6  -3  -2 281.944 8.65527   2
   6  -3  -2 279.223 8.92949   4
  -6   3   2 281.436 8.79523   2
  -6   3   2 287.600 9.85127   3
   5  -3  -2 -0.7151 1.44994   5
   5  -3  -2 -2.3304 1.88689   1
   5  -3  -2 2.61582 2.11459   4
   5  -3  -2 2.08056 2.04685   2
  -5   3   2 0.08876 2.09895   3
  -5   3   2 1.49054 2.05778   2
   4  -3  -2 292.245 7.53968   4
   4  -3  -2 274.991 7.26000   2
   4  -3  -2 290.184 7.61238   1
   4  -3  -2 290.061 6.25256   5
  -4   3   2 275.247 7.28345   2
  -4   3   2 284.469 7.82447   3
   3  -3  -2 1588.08 27.8029   4
   3  -3  -2 1592.76 27.7838   2
   3  -3  -2 1628.06 26.9142   5
   3  -3  -2 1584.83 28.0008   1
  -3   3   2 1543.85 27.7012   2
  -3   3   2 1575.90 27.9519   3
   2  -3  -2 407.267 8.53044   1
   2  -3  -2 406.405 8.34643   2
   2  -3  -2 402.764 7.85529   5
   2  -3  -2 399.340 8.27728   4
  -2   3   2 398.319 8.18606   3
  -2   3   2 386.074 8.26782   2
   1  -3  -2 1773.72 30.3722   1
   1  -3  -2 1787.46 30.0201   5
   1  -3  -2 1832.47 30.2207   4
  -1   3   2 1773.24 30.1564   4
  -1   3   2 1770.64 30.2103   2
  -1   3   2 1786.10 29.6401   3
   0  -3  -2 46.7720 2.06855   4
   0  -3  -2 46.0381 1.22819   3
   0  -3  -2 42.7798 2.05023   1
   0   3   2 46.1794 1.18753   3
   0   3   2 45.7395 2.03897   2
   0   3   2 46.6154 2.05345   4
  -1  -3  -2 1743.96 29.5700   5
  -1  -3  -2 1755.41 29.5573   1
   1   3   2 1752.72 29.4720   2
   1   3   2 1754.03 29.7730   4
  -2  -3  -2 2392.78 40.3801   1
  -2  -3  -2 2412.80 39.7521   3
  -2  -3  -2 2442.29 40.4632   5
   2   3   2 2430.13 40.3090   2
   2   3   2 2444.35 40.4160   1
   2   3   2 2411.15 40.8659   4
  -3  -3  -2 28.8171 2.11709   3
  -3  -3  -2 27.4870 2.11384   5
  -3  -3  -2 27.5342 2.14584   1
   3   3   2 27.4009 2.44131   4
   3   3   2 27.7642 2.10426   1
   3   3   2 28.2887 2.09654   2
  -4  -3  -2 0.67354 1.25022   5
  -4  -3  -2 0.74048 1.31817   3
   4   3   2 2.20728 1.54031   4
   4   3   2 1.84306 1.35820   1
   4   3   2 2.32124 1.28756   2
  -5  -3  -2 83.9305 4.56973   3
  -5  -3  -2 80.1576 3.57407   5
   5   3   2 80.1182 3.83770   2
   5   3   2 80.6326 4.64261   4
   5   3   2 82.4028 4.17606   1
  -6  -3  -2 3.74733 2.51445   3
  -6  -3  -2 1.84083 1.93360   5
   6   3   2 -0.2158 2.75939   4
   6   3   2 7.38959 2.10894   5
   6   3   2 3.92403 2.23061   2
   6   3   2 1.81222 2.45394   1
  -7  -3  -2 15.6620 3.77078   3
   7   3   2 13.9059 3.14886   2
   7   3   2 7.53891 3.43459   1
   7   3   2 12.5249 3.61408   4
  -8  -3  -2 9.87031 5.04053   3
   8   3   2 14.3033 4.40479   4
   7  -4  -2 234.064 9.43365   1
   7  -4  -2 236.469 9.42549   2
   7  -4  -2 243.972 10.0014   4
  -7   4   2 253.545 10.4265   3
  -7   4   2 241.508 9.29497   2
   6  -4  -2 9.67491 3.10394   2
   6  -4  -2 5.90941 3.37515   4
   6  -4  -2 9.50723 3.23477   1
  -6   4   2 9.24037 2.94919   2
  -6   4   2 9.95404 3.42665   3
   5  -4  -2 0.52071 2.27234   1
   5  -4  -2 1.57969 1.51488   5
   5  -4  -2 -2.4841 2.00510   2
   5  -4  -2 -0.2271 2.22064   4
  -5   4   2 2.32080 2.16437   2
  -5   4   2 1.72317 2.26046   3
   4  -4  -2 72.2925 4.25388   1
   4  -4  -2 72.0134 4.19415   2
   4  -4  -2 72.0596 3.08265   5
   4  -4  -2 77.9721 4.28627   4
  -4   4   2 72.7702 4.23006   3
  -4   4   2 70.8006 4.22843   2
   3  -4  -2 1058.12 18.3896   5
   3  -4  -2 1012.11 19.3387   4
   3  -4  -2 1032.95 19.5629   1
   3  -4  -2 1041.05 19.4551   2
  -3   4   2 1060.61 19.4006   3
  -3   4   2 1018.90 19.3508   2
   2  -4  -2 115.112 4.04601   1
   2  -4  -2 119.634 3.86396   4
   2  -4  -2 119.178 3.52301   5
   2  -4  -2 113.396 3.91777   2
  -2   4   2 113.614 3.90080   2
  -2   4   2 114.343 3.64609   3
   1  -4  -2 657.121 12.1439   5
   1  -4  -2 658.455 12.4375   4
   1  -4  -2 641.178 12.5832   1
  -1   4   2 661.732 12.4681   4
  -1   4   2 618.941 11.5204   3
  -1   4   2 649.528 12.4012   2
   0  -4  -2 30.1043 2.13766   4
   0  -4  -2 24.6907 1.89158   5
  -1  -4  -2 803.674 15.0587   5
  -1  -4  -2 837.763 15.2191   1
   1   4   2 817.550 14.8777   2
   1   4   2 819.582 15.2809   4
  -2  -4  -2 308.169 7.12006   1
  -2  -4  -2 316.329 7.18923   5
  -2  -4  -2 320.460 6.04891   3
   2   4   2 312.691 6.85800   2
   2   4   2 317.172 7.15800   1
   2   4   2 317.485 7.45200   4
  -3  -4  -2 14.1363 1.93750   3
  -3  -4  -2 9.50998 2.09694   1
  -3  -4  -2 10.8840 1.95926   5
   3   4   2 9.69453 2.10514   1
   3   4   2 12.1035 1.84294   2
   3   4   2 12.3400 2.46935   4
  -4  -4  -2 59.7153 3.35602   5
  -4  -4  -2 58.8826 3.44235   1
  -4  -4  -2 62.9965 3.19552   3
   4   4   2 63.0386 3.99794   4
   4   4   2 59.1380 3.50710   1
   4   4   2 61.9310 3.03550   2
  -5  -4  -2 122.845 5.31998   3
  -5  -4  -2 114.402 4.81523   5
   5   4   2 121.864 5.76776   4
   5   4   2 134.138 5.41911   1
   5   4   2 125.820 4.66600   2
  -6  -4  -2 30.1081 3.96855   5
  -6  -4  -2 22.5811 4.89096   3
   6   4   2 26.8783 3.69198   2
   6   4   2 28.8336 5.33367   4
   6   4   2 32.0055 4.94577   1
   6   4   2 30.2787 4.25408   5
  -7  -4  -2 -2.7719 3.31925   3
   7   4   2 -1.1556 3.43508   4
   7   4   2 6.13116 3.50430   1
  -8  -4  -2 1.49256 4.64091   3
   8   4   2 -1.5938 4.15427   4
   7  -5  -2 128.183 8.17310   1
   7  -5  -2 118.188 8.11778   2
   7  -5  -2 134.558 8.39774   4
  -7   5   2 128.503 8.06823   2
  -7   5   2 135.583 8.78597   3
   6  -5  -2 29.9651 5.57350   4
   6  -5  -2 19.9070 3.89578   1
   6  -5  -2 28.5144 5.41780   2
  -6   5   2 19.8110 5.10577   2
  -6   5   2 30.4101 5.71424   3
   5  -5  -2 20.3886 4.37541   4
   5  -5  -2 22.5444 4.65996   1
   5  -5  -2 14.3790 2.93476   2
  -5   5   2 25.3417 4.32352   2
  -5   5   2 20.1342 4.44618   3
   4  -5  -2 113.616 5.47315   1
   4  -5  -2 124.801 4.03603   5
   4  -5  -2 128.464 5.44299   2
   4  -5  -2 135.621 5.53906   4
  -4   5   2 117.969 5.20879   3
  -4   5   2 119.658 5.33408   2
   3  -5  -2 59.3780 3.74274   1
   3  -5  -2 62.5077 2.90073   5
   3  -5  -2 61.3950 3.75896   2
   3  -5  -2 62.9955 3.70360   4
  -3   5   2 61.5629 3.41636   3
  -3   5   2 58.9822 3.72202   2
   2  -5  -2 121.303 3.82118   5
   2  -5  -2 119.388 4.53775   1
   2  -5  -2 117.443 4.38022   4
   2  -5  -2 123.678 4.45886   2
  -2   5   2 117.311 4.35863   4
  -2   5   2 123.050 3.90225   3
  -2   5   2 114.909 4.32187   2
   1  -5  -2 394.650 9.00754   1
   1  -5  -2 412.023 8.67095   5
   1  -5  -2 406.083 8.96452   4
  -1   5   2 409.495 7.85910   3
  -1   5   2 411.299 8.88813   2
  -1   5   2 413.419 9.01045   4
   0  -5  -2 4.28770 1.21818   5
   0  -5  -2 7.95644 1.99724   4
   0  -5  -2 4.29472 1.23637   1
   0   5   2 4.22612 1.27160   2
   0   5   2 4.47492 1.29284   4
  -1  -5  -2 1997.38 34.1301   5
  -1  -5  -2 1968.88 34.2497   1
   1   5   2 1980.78 33.7527   2
   1   5   2 1967.12 34.3021   4
  -2  -5  -2 3238.39 53.8258   1
  -2  -5  -2 3137.15 51.7167   3
  -2  -5  -2 3183.73 53.7038   5
   2   5   2 3184.86 53.9990   4
   2   5   2 3230.82 53.8087   1
   2   5   2 3184.53 53.1619   2
  -3  -5  -2 260.801 6.90760   5
  -3  -5  -2 265.551 5.84715   3
  -3  -5  -2 261.091 6.98312   1
   3   5   2 255.685 7.23536   4
   3   5   2 264.821 6.33452   2
   3   5   2 262.300 7.01572   1
  -4  -5  -2 2.38006 1.79934   5
  -4  -5  -2 4.11553 1.92937   1
  -4  -5  -2 4.77675 1.57250   3
   4   5   2 4.88379 2.09615   4
   4   5   2 -1.2212 1.82092   1
   4   5   2 1.93255 1.57239   2
  -5  -5  -2 14.3751 2.44257   5
  -5  -5  -2 13.3026 2.51574   3
   5   5   2 18.1332 4.18007   4
   5   5   2 16.0883 2.98529   1
   5   5   2 21.9876 3.17746   2
  -6  -5  -2 0.76149 2.58218   5
  -6  -5  -2 5.82698 3.22808   3
   6   5   2 1.79736 3.04935   4
   6   5   2 3.03266 2.23588   2
   6   5   2 6.25512 3.15688   1
  -7  -5  -2 329.902 11.0284   3
   7   5   2 340.678 10.7975   1
   7   5   2 328.509 11.3613   4
   7  -6  -2 8.09080 4.51205   2
   7  -6  -2 8.54446 4.39433   1
   7  -6  -2 1.32099 4.04758   4
  -7   6   2 2.88174 4.21482   3
  -7   6   2 4.60902 4.96306   2
   6  -6  -2 575.706 14.5834   1
   6  -6  -2 581.397 14.8239   2
   6  -6  -2 571.629 14.9534   4
  -6   6   2 557.376 14.8180   2
  -6   6   2 550.596 14.8684   3
   5  -6  -2 11.6069 3.54241   4
   5  -6  -2 21.9219 5.09731   1
   5  -6  -2 15.6323 3.65220   2
  -5   6   2 24.3491 5.13509   2
  -5   6   2 15.7443 3.18029   3
   4  -6  -2 91.5734 3.95161   5
   4  -6  -2 93.3247 5.28880   2
   4  -6  -2 96.9835 5.25508   1
   4  -6  -2 87.0005 5.11269   4
  -4   6   2 89.3621 5.23090   2
  -4   6   2 101.654 5.22641   3
   3  -6  -2 378.829 9.99041   1
   3  -6  -2 382.507 9.72803   4
   3  -6  -2 388.591 9.82066   2
   3  -6  -2 396.488 8.55274   5
  -3   6   2 386.918 9.12995   3
  -3   6   2 381.061 9.75322   2
   2  -6  -2 653.498 13.9661   1
   2  -6  -2 665.799 12.9938   5
   2  -6  -2 662.354 13.7923   2
   2  -6  -2 654.096 13.8520   4
  -2   6   2 659.911 13.7813   2
  -2   6   2 662.737 12.7426   3
  -2   6   2 648.948 13.8013   4
   1  -6  -2 177.856 5.59075   4
   1  -6  -2 175.224 5.64061   1
   1  -6  -2 178.672 5.14745   5
  -1   6   2 177.209 4.32143   3
  -1   6   2 171.337 5.46963   2
  -1   6   2 171.440 5.46002   4
   0  -6  -2 61.3226 3.44370   4
   0  -6  -2 63.9522 3.18317   5
   0  -6  -2 62.5546 3.53274   1
   0   6   2 61.3462 3.30873   2
   0   6   2 68.1103 3.48428   4
  -1  -6  -2 80.1643 3.69678   5
  -1  -6  -2 83.9280 4.02886   1
   1   6   2 80.5464 3.45727   2
  -2  -6  -2 396.779 9.46824   5
  -2  -6  -2 415.266 9.66857   1
   2   6   2 400.749 9.72246   4
   2   6   2 402.742 8.84456   2
   2   6   2 406.247 9.62874   1
  -3  -6  -2 3192.64 54.4305   1
  -3  -6  -2 3176.47 52.1888   3
  -3  -6  -2 3166.26 54.2867   5
   3   6   2 3200.21 54.6849   4
   3   6   2 3161.18 54.3639   1
   3   6   2 3166.74 53.2774   2
  -4  -6  -2 12.5498 2.82472   3
  -4  -6  -2 13.3929 3.47696   5
  -4  -6  -2 19.2079 3.80150   1
   4   6   2 13.7177 2.76840   2
   4   6   2 13.6880 3.60520   1
   4   6   2 16.0609 3.89669   4
  -5  -6  -2 2.41579 2.65610   5
  -5  -6  -2 0.82950 2.44126   3
   5   6   2 6.74217 2.59331   1
   5   6   2 3.56517 2.68154   4
   5   6   2 9.01097 2.30921   2
  -6  -6  -2 153.870 7.22872   5
  -6  -6  -2 145.852 7.26464   3
   6   6   2 151.282 7.50297   1
   6   6   2 155.616 7.93417   4
  -7  -6  -2 49.4833 7.27886   3
  -7  -6  -2 61.8741 6.37325   5
   7   6   2 46.7238 6.69963   5
   7   6   2 55.8461 6.79261   1
   7   6   2 30.2164 7.46542   4
   6  -7  -2 7.53440 3.96971   2
   6  -7  -2 -1.4611 3.88456   1
   6  -7  -2 9.19265 3.92969   4
  -6   7   2 5.77624 3.99320   3
  -6   7   2 0.84915 4.25207   2
   5  -7  -2 39.2248 5.88013   2
   5  -7  -2 31.4863 6.16655   1
   5  -7  -2 41.4036 5.82314   4
  -5   7   2 42.5788 6.01457   2
  -5   7   2 39.4976 5.69016   3
   4  -7  -2 30.6640 4.73032   1
   4  -7  -2 25.8699 3.50027   5
   4  -7  -2 22.1797 4.74151   4
   4  -7  -2 27.3815 4.72554   2
  -4   7   2 23.3990 4.34172   3
  -4   7   2 20.2585 4.83018   2
   3  -7  -2 47.0125 4.41788   1
   3  -7  -2 40.6341 4.26168   4
   3  -7  -2 46.1477 4.79754   2
   3  -7  -2 43.8642 3.32475   5
  -3   7   2 43.2068 4.65327   2
  -3   7   2 40.5953 3.65129   3
  -3   7   2 36.7462 4.29062   4
   2  -7  -2 537.989 12.6063   1
   2  -7  -2 549.205 11.5871   5
   2  -7  -2 538.504 12.4978   4
   2  -7  -2 550.096 12.4449   2
  -2   7   2 551.494 12.5374   2
  -2   7   2 524.958 12.4574   4
  -2   7   2 570.933 11.2056   3
   1  -7  -2 1502.57 26.6657   5
   1  -7  -2 1420.27 27.1412   4
   1  -7  -2 1475.38 27.3253   1
  -1   7   2 1384.28 27.0906   4
  -1   7   2 1504.99 25.1320   3
  -1   7   2 1530.36 27.0974   2
   0  -7  -2 32.2522 3.43294   1
   0  -7  -2 39.7141 3.44181   4
   0  -7  -2 35.3024 3.23864   5
   0   7   2 32.4931 3.35865   4
   0   7   2 35.7621 3.23113   2
  -1  -7  -2 158.238 5.59224   5
  -1  -7  -2 146.322 5.74075   1
   1   7   2 160.032 5.26770   2
   1   7   2 153.721 5.74373   4
  -2  -7  -2 396.090 10.0511   1
  -2  -7  -2 404.522 10.0596   5
   2   7   2 409.926 9.35784   2
   2   7   2 405.984 10.2140   4
   2   7   2 415.466 10.2238   1
  -3  -7  -2 158.849 6.10206   5
  -3  -7  -2 150.920 6.18062   1
  -3  -7  -2 141.123 3.90640   3
   3   7   2 148.873 5.23149   2
   3   7   2 160.142 6.43655   4
   3   7   2 158.867 6.25675   1
  -4  -7  -2 11.5580 2.72098   5
  -4  -7  -2 17.9849 2.87627   3
  -4  -7  -2 13.9036 2.87943   1
   4   7   2 13.4518 2.30577   2
   4   7   2 8.21487 2.73327   4
   4   7   2 12.3814 2.77211   1
  -5  -7  -2 64.0259 5.91114   1
  -5  -7  -2 69.3511 5.56395   5
   5   7   2 81.8606 6.42450   4
   5   7   2 71.0814 5.78156   1
   5   7   2 69.9283 5.37022   2
  -6  -7  -2 45.3104 5.83339   5
   6   7   2 38.6560 6.62357   4
   6   7   2 49.4844 6.23438   1
  -7  -7  -2 183.024 8.90816   5
   7   7   2 175.620 8.77502   5
   7   7   2 183.935 9.46762   1
   7   7   2 155.439 9.46041   4
   6  -8  -2 61.0793 7.77733   2
   6  -8  -2 54.5943 7.60223   1
   6  -8  -2 60.3371 7.37801   4
  -6   8   2 54.9473 9.02711   2
  -6   8   2 48.7736 7.92200   3
   5  -8  -2 0.78995 3.40241   4
   5  -8  -2 1.08532 3.63096   2
   5  -8  -2 9.23080 4.04058   1
  -5   8   2 4.81971 3.42174   3
  -5   8   2 8.06701 4.10424   2
   4  -8  -2 67.1578 6.36244   2
   4  -8  -2 68.4514 4.55428   5
   4  -8  -2 65.8421 6.35597   1
   4  -8  -2 61.6955 5.79425   4
  -4   8   2 79.0289 6.07694   4
  -4   8   2 55.0786 5.38048   3
  -4   8   2 69.4048 6.31088   2
   3  -8  -2 25.9154 5.00918   2
   3  -8  -2 22.3399 4.02139   5
   3  -8  -2 29.2231 4.89775   1
   3  -8  -2 27.6465 4.99654   4
  -3   8   2 31.9109 5.06775   2
  -3   8   2 24.5020 4.00152   3
  -3   8   2 29.3996 4.99590   4
   2  -8  -2 4.55413 2.17273   5
   2  -8  -2 2.21993 2.29693   1
   2  -8  -2 -1.5688 2.33539   4
  -2   8   2 1.03695 1.63407   3
  -2   8   2 2.19228 2.40076   2
  -2   8   2 2.71185 2.49209   4
   1  -8  -2 401.408 10.0057   5
   1  -8  -2 402.089 10.5857   4
   1  -8  -2 401.528 10.7601   1
  -1   8   2 414.664 10.6333   4
  -1   8   2 410.219 8.34706   3
  -1   8   2 411.215 10.2768   2
   0  -8  -2 10.1218 2.54291   1
   0  -8  -2 22.9197 3.60391   4
   0  -8  -2 14.6950 3.47123   5
   0   8   2 16.8249 3.36191   2
   0   8   2 17.3099 3.53533   4
  -1  -8  -2 53.5768 4.17440   5
  -1  -8  -2 42.0250 4.27219   1
   1   8   2 41.1325 4.16047   4
   1   8   2 54.3088 4.00449   2
  -2  -8  -2 1.94196 2.25515   1
  -2  -8  -2 2.12621 2.20317   5
   2   8   2 0.09644 2.29974   4
   2   8   2 1.31355 2.01986   2
   2   8   2 2.27971 2.26860   1
  -3  -8  -2 351.999 10.1499   5
  -3  -8  -2 334.579 10.1199   1
   3   8   2 357.099 9.03680   2
   3   8   2 351.657 10.2835   1
   3   8   2 350.611 10.3691   4
  -4  -8  -2 35.1646 5.64610   1
  -4  -8  -2 46.8249 5.68944   5
   4   8   2 37.3282 5.74345   4
   4   8   2 46.1172 4.03317   2
   4   8   2 43.8256 5.65673   1
  -5  -8  -2 10.1610 3.51944   5
  -5  -8  -2 17.2107 3.91939   1
   5   8   2 7.42650 3.64322   1
   5   8   2 12.0978 3.85871   4
  -6  -8  -2 1.31843 3.98873   5
   6   8   2 1.87508 4.18183   4
   6   8   2 0.55900 4.01373   1
   5  -9  -2 25.3680 5.00792   1
   5  -9  -2 41.0275 7.74990   2
   5  -9  -2 31.6161 6.84674   4
  -5   9   2 42.6329 7.74296   2
  -5   9   2 27.8856 6.43630   3
  -5   9   2 18.4347 4.82800   4
   4  -9  -2 55.3790 7.05414   1
   4  -9  -2 32.7460 6.26316   2
   4  -9  -2 43.2963 6.13183   4
  -4   9   2 56.0782 6.81787   2
  -4   9   2 58.0177 6.55702   4
  -4   9   2 42.5639 5.76069   3
   3  -9  -2 14.9096 3.68678   2
   3  -9  -2 21.5609 3.85933   1
   3  -9  -2 16.6743 3.68049   4
   3  -9  -2 13.0755 3.17057   5
  -3   9   2 17.7061 3.70539   2
  -3   9   2 21.4344 5.52317   4
  -3   9   2 12.8360 2.64489   3
   2  -9  -2 -1.5214 2.80470   4
   2  -9  -2 2.78899 3.14615   1
   2  -9  -2 0.18282 2.49080   5
  -2   9   2 -2.0003 2.91370   2
  -2   9   2 -0.0881 2.82081   4
  -2   9   2 0.23787 1.95923   3
   1  -9  -2 57.5101 5.19316   1
   1  -9  -2 45.7243 4.54849   5
   1  -9  -2 48.4172 5.03535   4
  -1   9   2 58.2877 4.99086   2
  -1   9   2 59.1033 5.19057   4
   0  -9  -2 46.2594 5.30555   1
   0  -9  -2 47.9838 4.57755   5
   0  -9  -2 44.3654 4.84984   4
   0   9   2 47.2958 4.92325   4
   0   9   2 49.1112 4.73016   2
  -1  -9  -2 3.29938 2.56958   5
  -1  -9  -2 0.02618 2.57879   1
   1   9   2 3.26099 2.45914   2
   1   9   2 -2.0261 2.63656   4
  -2  -9  -2 103.459 6.26654   5
  -2  -9  -2 100.982 6.16989   1
   2   9   2 93.0829 5.06169   2
   2   9   2 97.2642 6.07974   4
   2   9   2 99.9598 6.21847   1
  -3  -9  -2 130.986 7.37225   1
  -3  -9  -2 135.930 7.07717   5
   3   9   2 128.185 7.39750   1
   3   9   2 126.637 5.95721   2
   3   9   2 138.132 7.56040   4
  -4  -9  -2 147.069 7.85510   5
  -4  -9  -2 148.483 8.04448   1
   4   9   2 157.786 8.04563   4
   4   9   2 158.301 8.29003   1
  -5  -9  -2 10.3921 4.52748   1
  -5  -9  -2 18.4302 4.25160   5
   5   9   2 25.8715 6.89347   4
   5   9   2 10.2632 4.48072   1
  -6  -9  -2 5.52556 4.58598   5
   6   9   2 4.13468 5.30578   1
   6   9   2 5.72031 4.38197   4
   5 -10  -2 18.7942 5.06653   2
   5 -10  -2 30.4925 8.02460   4
   5 -10  -2 7.96381 5.60965   1
  -5  10   2 12.5980 5.09981   4
  -5  10   2 15.6546 4.44920   3
  -5  10   2 11.9192 4.96831   2
   4 -10  -2 74.7303 7.81927   2
   4 -10  -2 61.1012 7.61224   4
   4 -10  -2 65.4811 8.15049   1
  -4  10   2 69.1529 6.03727   3
  -4  10   2 69.5034 7.97654   2
  -4  10   2 61.4537 7.93293   4
   3 -10  -2 11.5817 3.74631   4
   3 -10  -2 8.27598 3.78609   5
   3 -10  -2 34.4584 7.19614   1
  -3  10   2 12.7604 3.92162   2
  -3  10   2 8.58168 3.74664   4
   2 -10  -2 57.2326 6.20362   4
   2 -10  -2 47.0609 6.60665   1
   2 -10  -2 61.6583 5.79155   5
  -2  10   2 58.7313 6.11396   4
  -2  10   2 50.1075 5.97683   2
   1 -10  -2 33.4081 4.91078   5
   1 -10  -2 37.5065 5.44406   4
   1 -10  -2 25.4259 5.63350   1
  -1  10   2 37.9235 5.46573   4
  -1  10   2 39.6950 5.69509   2
   0 -10  -2 -0.6293 2.84614   4
   0 -10  -2 1.52813 3.11304   1
   0 -10  -2 -2.9923 3.06995   5
   0  10   2 -0.5977 3.02800   4
   0  10   2 1.13001 2.79507   2
  -1 -10  -2 104.903 6.63262   5
  -1 -10  -2 99.3903 6.55466   1
   1  10   2 109.396 6.96937   4
   1  10   2 105.564 6.44615   2
  -2 -10  -2 2.93896 3.28805   5
  -2 -10  -2 3.51847 3.36283   1
   2  10   2 1.37419 3.17059   2
   2  10   2 4.24804 3.36409   4
   2  10   2 8.87118 3.58942   1
  -3 -10  -2 39.4361 6.02307   5
  -3 -10  -2 37.6973 6.31878   1
   3  10   2 44.7164 5.43741   2
   3  10   2 45.3924 6.59793   4
   3  10   2 29.2279 6.55322   1
  -4 -10  -2 99.2504 8.00802   1
  -4 -10  -2 90.2107 7.50352   5
   4  10   2 100.182 8.45735   1
   4  10   2 95.7442 7.98733   4
  -5 -10  -2 11.3272 4.24754   5
  -5 -10  -2 6.39998 4.36973   1
   5  10   2 1.78172 4.49352   4
   5  10   2 -0.6512 5.02900   1
   4 -11  -2 81.3304 11.1015   1
   4 -11  -2 81.1218 8.18871   4
  -4  11   2 85.3625 8.38577   4
  -4  11   2 89.1345 8.81046   2
   3 -11  -2 96.0781 9.63234   1
   3 -11  -2 81.9550 8.08039   4
   3 -11  -2 58.5425 6.95929   5
  -3  11   2 77.1757 7.84941   2
  -3  11   2 96.8465 8.33428   4
   2 -11  -2 -2.2929 3.94156   1
   2 -11  -2 1.54345 3.78947   4
   2 -11  -2 3.71430 3.31386   5
  -2  11   2 -0.0499 4.00277   4
  -2  11   2 0.81363 3.55644   2
   1 -11  -2 8.14994 4.24508   1
   1 -11  -2 4.72686 3.42987   5
   1 -11  -2 6.64466 3.81219   4
  -1  11   2 1.80087 3.39750   4
  -1  11   2 6.32141 3.74895   2
   0 -11  -2 100.481 7.66596   1
   0 -11  -2 88.5352 7.16093   5
   0  11   2 97.4975 6.85750   2
   0  11   2 105.624 7.61172   4
  -1 -11  -2 190.364 9.04626   5
  -1 -11  -2 186.805 8.93083   1
   1  11   2 187.539 9.25007   1
   1  11   2 199.459 8.65168   2
   1  11   2 203.362 8.92512   4
  -2 -11  -2 109.713 7.77865   5
  -2 -11  -2 111.121 7.71904   1
   2  11   2 105.865 8.22700   1
   2  11   2 105.503 7.85128   4
   2  11   2 99.2528 6.88708   2
  -3 -11  -2 2.88640 3.83871   1
  -3 -11  -2 -1.2645 3.79892   5
   3  11   2 4.72388 4.37781   1
   3  11   2 -2.8251 3.74297   4
  -4 -11  -2 1.95550 4.11303   5
  -4 -11  -2 6.12325 4.53772   1
   4  11   2 2.12888 4.41665   4
   4  11   2 8.87697 5.28914   1
   2 -12  -2 165.758 10.0243   4
   2 -12  -2 176.273 9.14486   5
   2 -12  -2 157.734 11.0577   1
  -2  12   2 173.647 9.66914   2
  -2  12   2 162.619 10.3035   4
   1 -12  -2 23.1703 5.23052   4
   1 -12  -2 28.8104 5.66652   1
   1 -12  -2 27.9185 7.15072   5
  -1  12   2 31.3129 6.97597   4
  -1  12   2 18.4274 5.01182   2
   0 -12  -2 0.72324 3.95518   1
   0 -12  -2 -3.1343 4.27089   5
   0  12   2 -1.0910 3.92661   2
   0  12   2 3.63629 3.98603   4
  -1 -12  -2 101.576 8.50506   1
  -1 -12  -2 86.2507 8.53189   5
   1  12   2 100.455 8.10552   2
   1  12   2 94.7846 8.60192   1
   1  12   2 100.173 8.08198   4
  -2 -12  -2 5.85727 4.58344   1
  -2 -12  -2 7.37204 4.55157   5
   2  12   2 -6.4799 3.62707   2
   2  12   2 1.94348 3.97766   4
   2  12   2 11.1078 5.04230   1
  -3 -12  -2 78.5515 7.91441   5
  -3 -12  -2 92.5018 8.82193   1
   3  12   2 85.5656 8.76880   4
   3  12   2 92.9456 9.24280   1
   3  11  -3 -0.6943 4.37136   5
   3  11  -3 -1.7177 4.11148   4
   3  11  -3 -4.3489 4.60996   1
  -3 -11   3 -0.2085 5.02005   1
   2  11  -3 6.05109 4.24926   4
   2  11  -3 12.4696 4.27994   5
   2  11  -3 6.05336 4.14117   1
  -2 -11   3 11.9762 5.30239   1
  -2 -11   3 -1.1982 4.55450   5
   1  11  -3 0.63966 3.90756   1
   1  11  -3 3.63615 3.89830   4
   1  11  -3 -1.9343 3.77643   5
  -1 -11   3 10.3158 4.84000   1
  -1 -11   3 3.74552 4.45718   5
   0  11  -3 33.4184 7.44411   5
   0  11  -3 33.1100 7.35718   1
   0  11  -3 30.5331 6.12653   2
   0  11  -3 22.2167 4.61455   4
   0 -11   3 26.0775 5.27826   1
   0 -11   3 37.5608 6.48789   4
   0 -11   3 31.9479 7.36778   5
  -1  11  -3 74.1991 7.11833   5
  -1  11  -3 74.7676 6.91939   2
  -1  11  -3 54.1264 7.73925   1
  -1  11  -3 67.1924 8.10419   4
   1 -11   3 66.5389 7.82973   4
   1 -11   3 66.0661 8.03209   1
   1 -11   3 66.5567 7.14432   5
   1 -11   3 64.7128 6.86305   2
  -2  11  -3 14.9680 4.87158   4
  -2  11  -3 22.4660 4.98978   2
  -2  11  -3 22.2898 4.31577   5
  -2  11  -3 33.9899 7.27707   1
   2 -11   3 27.0193 5.62133   4
   2 -11   3 18.9644 4.40399   5
   2 -11   3 16.5654 4.95204   2
   2 -11   3 12.2020 4.43410   1
   4  10  -3 55.4351 6.68878   4
   4  10  -3 66.4206 8.28040   5
   4  10  -3 64.1121 8.01708   1
  -4 -10   3 64.3458 8.40810   1
  -4 -10   3 72.7375 8.01410   5
   3  10  -3 3.90544 3.79479   4
   3  10  -3 10.1086 4.39124   1
   3  10  -3 8.10454 4.14198   5
  -3 -10   3 1.21359 4.17041   1
  -3 -10   3 2.62686 3.64323   5
   2  10  -3 49.1878 6.67292   4
   2  10  -3 51.1544 6.43651   5
   2  10  -3 33.6665 6.53133   1
  -2 -10   3 50.0969 7.38149   1
  -2 -10   3 40.3515 6.67324   5
   1  10  -3 43.0710 5.28716   2
   1  10  -3 41.6527 6.12806   4
   1  10  -3 46.0644 6.25823   1
   1  10  -3 35.8499 6.28791   5
  -1 -10   3 38.0355 6.46424   5
  -1 -10   3 34.9872 6.71779   1
   0  10  -3 4.76110 3.25391   2
   0  10  -3 8.29849 3.49198   5
   0  10  -3 3.67540 3.36751   4
   0  10  -3 0.07441 3.41534   1
   0  10  -3 6.02330 2.89374   3
   0 -10   3 3.32768 3.50838   2
   0 -10   3 3.93989 3.43621   5
   0 -10   3 5.71232 3.32710   4
   0 -10   3 4.93459 3.74823   1
   0 -10   3 2.78873 3.41363   3
  -1  10  -3 173.342 8.35485   1
  -1  10  -3 175.349 7.46178   3
  -1  10  -3 174.599 8.44324   4
  -1  10  -3 177.693 8.03142   2
  -1  10  -3 181.772 8.26604   5
   1 -10   3 165.280 7.75736   3
   1 -10   3 171.864 7.96888   2
   1 -10   3 195.577 8.56038   4
   1 -10   3 174.265 8.10886   5
   1 -10   3 180.247 8.70241   1
  -2  10  -3 349.869 10.4256   5
  -2  10  -3 353.086 11.8767   4
  -2  10  -3 342.709 11.0472   1
  -2  10  -3 342.199 10.4548   3
  -2  10  -3 330.703 11.1850   2
   2 -10   3 349.254 11.2883   2
   2 -10   3 355.056 11.2827   1
   2 -10   3 358.561 12.0938   4
   2 -10   3 346.737 10.9228   3
   2 -10   3 328.127 10.5874   5
  -3  10  -3 11.9870 4.23432   2
  -3  10  -3 29.8836 6.27657   3
  -3  10  -3 35.7581 7.15566   4
   3 -10   3 16.5113 4.89948   4
   3 -10   3 12.8114 3.96405   1
   3 -10   3 19.1784 5.01899   2
  -4  10  -3 16.2676 5.06717   2
  -4  10  -3 8.72496 4.46099   4
  -4  10  -3 17.3034 5.01759   3
   4 -10   3 7.92079 5.45156   4
   4 -10   3 9.24759 4.75796   1
   4 -10   3 23.0736 5.79921   2
   5   9  -3 2.27477 4.87710   1
   5   9  -3 10.4361 4.75099   5
  -5  -9   3 5.50445 4.05830   5
   4   9  -3 69.1256 7.01587   5
   4   9  -3 66.2502 6.46138   4
   4   9  -3 81.7781 7.69826   1
  -4  -9   3 71.2454 7.36343   1
  -4  -9   3 64.1030 6.86795   5
   3   9  -3 222.393 8.64192   4
   3   9  -3 256.705 9.57812   5
   3   9  -3 225.818 9.44938   1
  -3  -9   3 245.899 9.80162   1
  -3  -9   3 239.718 9.41384   5
   2   9  -3 145.713 7.39361   5
   2   9  -3 159.392 7.31751   4
   2   9  -3 159.584 7.60713   1
  -2  -9   3 155.167 8.03170   1
  -2  -9   3 149.707 7.34416   5
  -2  -9   3 150.472 6.38838   3
   1   9  -3 83.2327 6.16360   5
   1   9  -3 75.1377 4.86440   2
   1   9  -3 69.7862 5.69248   4
   1   9  -3 72.5727 5.97606   1
   1   9  -3 72.3139 4.70703   3
  -1  -9   3 70.7501 5.97419   5
  -1  -9   3 76.7673 4.93233   3
  -1  -9   3 80.3252 6.36285   1
   0   9  -3 41.8438 5.39133   1
   0   9  -3 38.1158 4.32922   3
   0   9  -3 42.2243 5.14891   4
   0   9  -3 37.7347 4.69311   2
   0   9  -3 39.5197 5.07524   5
   0  -9   3 44.2086 5.37281   4
   0  -9   3 41.9179 5.50592   1
   0  -9   3 44.0468 4.59784   3
   0  -9   3 42.1957 5.18084   2
   0  -9   3 37.7406 5.15182   5
  -1   9  -3 50.5107 5.34959   1
  -1   9  -3 51.5967 5.39872   5
  -1   9  -3 40.8461 5.27317   4
  -1   9  -3 50.6692 4.83168   3
  -1   9  -3 54.5387 5.11283   2
   1  -9   3 58.9577 5.41537   5
   1  -9   3 51.2804 5.41940   4
   1  -9   3 47.4692 5.55048   1
   1  -9   3 51.2978 5.27608   2
   1  -9   3 43.3138 5.24432   3
  -2   9  -3 105.968 6.24134   5
  -2   9  -3 114.206 6.84001   2
  -2   9  -3 109.764 6.39934   3
  -2   9  -3 110.366 7.01042   4
   2  -9   3 116.716 6.70329   3
   2  -9   3 114.526 6.65037   1
   2  -9   3 117.901 6.68404   2
   2  -9   3 112.797 6.65820   5
   2  -9   3 116.589 7.00261   4
  -3   9  -3 256.188 9.47173   3
  -3   9  -3 251.745 9.82163   2
  -3   9  -3 268.885 9.81812   4
   3  -9   3 249.557 9.31190   1
   3  -9   3 261.887 10.1078   2
   3  -9   3 250.886 10.1828   4
  -4   9  -3 15.7126 4.22976   3
  -4   9  -3 9.77043 4.04556   2
   4  -9   3 10.1999 4.15588   1
   4  -9   3 10.7881 4.46923   2
   4  -9   3 13.9531 4.79428   4
  -5   9  -3 32.3010 8.29693   3
  -5   9  -3 11.2628 4.97093   2
   5  -9   3 13.8607 4.96869   2
   5  -9   3 16.1283 5.52359   4
   6   8  -3 1.17522 4.85116   1
   6   8  -3 -0.0905 4.66859   5
  -6  -8   3 -7.5012 3.75535   5
   5   8  -3 346.377 12.3159   1
   5   8  -3 338.884 11.8590   5
   5   8  -3 355.922 10.6668   4
  -5  -8   3 338.210 10.6961   3
  -5  -8   3 355.467 11.6459   5
   4   8  -3 -0.9439 2.95546   4
   4   8  -3 -4.8940 3.06321   5
   4   8  -3 2.19552 3.60683   1
  -4  -8   3 0.68512 3.14471   5
  -4  -8   3 -1.3807 3.09666   3
   3   8  -3 26.1365 4.65707   4
   3   8  -3 29.2080 5.10748   5
   3   8  -3 27.5582 5.07905   1
  -3  -8   3 25.3079 4.86542   5
  -3  -8   3 21.3281 5.55002   1
  -3  -8   3 27.5616 4.91751   3
   2   8  -3 64.3088 3.68984   2
   2   8  -3 69.5761 4.80626   4
   2   8  -3 65.0669 5.42478   1
   2   8  -3 58.4982 5.54614   5
  -2  -8   3 62.5762 4.51454   3
  -2  -8   3 60.2471 5.64278   1
  -2  -8   3 63.4999 5.53369   5
   1   8  -3 110.951 5.50352   4
   1   8  -3 108.117 5.80474   5
   1   8  -3 102.033 4.62057   2
   1   8  -3 106.210 5.94695   1
  -1  -8   3 111.087 5.90716   5
  -1  -8   3 116.177 5.16881   3
  -1  -8   3 117.419 6.09998   1
   0   8  -3 3.32358 2.38410   5
   0   8  -3 1.71602 2.31848   1
   0   8  -3 -1.7727 2.08297   2
   0   8  -3 0.00746 1.99512   3
   0   8  -3 2.20901 2.31138   4
   0  -8   3 0.80897 2.31533   4
   0  -8   3 0.75013 2.28711   1
   0  -8   3 -0.1073 1.99991   3
   0  -8   3 1.00498 2.15636   2
   0  -8   3 2.29572 2.24884   5
  -1   8  -3 185.941 6.62368   5
  -1   8  -3 184.960 6.44426   3
  -1   8  -3 183.616 7.06979   4
  -1   8  -3 179.032 6.86634   1
  -1   8  -3 169.994 6.63220   2
   1  -8   3 183.321 6.90123   4
   1  -8   3 190.478 7.09360   1
   1  -8   3 183.769 6.83072   5
   1  -8   3 186.808 6.60621   3
   1  -8   3 188.127 6.66644   2
  -2   8  -3 52.4216 4.66558   5
  -2   8  -3 60.7510 4.78279   3
  -2   8  -3 50.9430 5.03888   4
  -2   8  -3 51.9756 5.01133   2
   2  -8   3 59.3913 5.29505   3
   2  -8   3 56.2674 5.19532   1
   2  -8   3 59.6612 4.64300   5
   2  -8   3 57.3810 5.19170   4
   2  -8   3 54.9566 4.83112   2
  -3   8  -3 82.6891 5.79134   3
  -3   8  -3 81.4442 4.56271   5
  -3   8  -3 72.4641 6.28427   2
   3  -8   3 84.0768 6.38566   2
   3  -8   3 78.0996 4.61373   5
   3  -8   3 77.9134 6.18331   1
   3  -8   3 87.2149 6.34410   4
  -4   8  -3 3.70716 3.56825   2
  -4   8  -3 5.95213 3.47128   3
   4  -8   3 11.8524 3.53296   1
   4  -8   3 6.23639 3.90697   4
   4  -8   3 8.78366 3.75446   2
  -5   8  -3 13.4728 4.17017   3
  -5   8  -3 3.52818 4.00464   2
   5  -8   3 4.14474 4.30906   4
   5  -8   3 5.23854 4.06086   2
   6   7  -3 21.4488 4.64828   5
   6   7  -3 22.4449 4.94642   4
   6   7  -3 16.3033 4.99433   1
  -6  -7   3 11.3389 3.96314   3
  -6  -7   3 30.7964 6.66895   5
   5   7  -3 66.1250 6.72486   1
   5   7  -3 62.2443 6.11448   4
   5   7  -3 73.9225 6.74012   5
  -5  -7   3 79.7870 6.72319   3
  -5  -7   3 73.1712 6.49629   5
   4   7  -3 77.9849 5.77150   5
   4   7  -3 76.7834 6.05336   1
   4   7  -3 70.9762 4.85311   4
  -4  -7   3 76.4775 5.73426   5
  -4  -7   3 71.9162 5.64548   3
   3   7  -3 232.002 7.25307   4
   3   7  -3 231.684 8.22185   5
   3   7  -3 250.328 8.68266   1
  -3  -7   3 236.911 7.42180   3
  -3  -7   3 247.730 8.76600   1
  -3  -7   3 240.841 8.22778   5
   2   7  -3 17.0543 3.31608   4
   2   7  -3 19.4352 2.60552   2
   2   7  -3 14.5535 2.85396   5
   2   7  -3 20.7253 3.83510   1
  -2  -7   3 14.3669 3.29169   3
  -2  -7   3 19.0728 3.97745   5
  -2  -7   3 18.1501 4.06787   1
   1   7  -3 369.867 9.62526   5
   1   7  -3 361.192 9.09456   4
   1   7  -3 362.827 8.18513   2
   1   7  -3 357.010 9.64305   1
  -1  -7   3 371.797 9.66017   5
  -1  -7   3 353.542 9.54771   1
  -1  -7   3 379.009 8.82662   3
  -1  -7   3 376.866 8.26632   2
   0   7  -3 45.1015 3.67827   4
   0   7  -3 41.0353 3.22222   2
   0   7  -3 35.9561 3.60329   5
   0   7  -3 40.7585 3.37720   3
   0   7  -3 40.6418 3.66260   1
   0  -7   3 43.5335 3.99548   1
   0  -7   3 46.9545 3.46185   3
   0  -7   3 35.9960 3.63184   4
   0  -7   3 38.3938 3.24003   2
   0  -7   3 31.8617 3.70246   5
  -1   7  -3 2.48198 1.82537   3
  -1   7  -3 1.38688 2.03910   2
  -1   7  -3 1.98246 1.87554   4
  -1   7  -3 -0.8851 1.80569   5
  -1   7  -3 -0.6552 1.92451   1
   1  -7   3 0.64378 1.99761   4
   1  -7   3 2.50432 2.16427   2
   1  -7   3 -1.3002 1.93325   1
   1  -7   3 0.18541 1.89293   5
   1  -7   3 3.63369 1.79173   3
  -2   7  -3 618.117 13.8117   3
  -2   7  -3 646.994 13.1434   5
  -2   7  -3 635.410 14.1954   2
  -2   7  -3 636.432 14.2339   4
   2  -7   3 637.857 14.2648   4
   2  -7   3 636.396 14.1291   2
   2  -7   3 657.783 13.9741   1
   2  -7   3 636.992 13.9879   3
   2  -7   3 641.799 13.0670   5
  -3   7  -3 303.539 7.33458   5
  -3   7  -3 299.496 9.37475   2
  -3   7  -3 304.494 9.17155   3
   3  -7   3 297.903 8.51725   1
   3  -7   3 299.130 9.06053   3
   3  -7   3 298.225 9.29301   4
   3  -7   3 287.707 7.34985   5
   3  -7   3 299.984 9.42969   2
  -4   7  -3 104.135 6.91755   3
  -4   7  -3 103.689 6.80930   2
   4  -7   3 102.602 6.78419   2
   4  -7   3 96.5367 6.80805   4
   4  -7   3 97.4515 5.49722   1
  -5   7  -3 122.650 7.96162   3
  -5   7  -3 135.755 8.23197   2
   5  -7   3 145.620 8.15892   2
   5  -7   3 138.767 8.22963   4
  -6   7  -3 15.0115 4.25089   3
  -6   7  -3 6.49698 4.43780   2
   6  -7   3 -2.5996 4.19964   2
   6  -7   3 8.40747 4.52189   4
   7   6  -3 40.1144 7.31206   5
   7   6  -3 43.4582 9.34408   1
  -7  -6   3 52.3124 7.79121   3
  -7  -6   3 35.0230 7.91755   5
   6   6  -3 -0.7312 3.93983   1
   6   6  -3 4.18548 3.45625   5
   6   6  -3 7.77708 3.33080   4
  -6  -6   3 3.32731 3.50666   5
  -6  -6   3 1.90706 3.43396   3
   5   6  -3 303.408 10.2095   1
   5   6  -3 304.298 8.77234   4
   5   6  -3 298.694 9.62699   5
  -5  -6   3 297.182 9.61598   5
  -5  -6   3 303.779 9.55495   3
   4   6  -3 7.50266 2.83418   5
   4   6  -3 9.66748 2.33787   4
   4   6  -3 12.0123 3.13930   1
  -4  -6   3 9.25999 2.81664   5
  -4  -6   3 6.61296 2.50582   3
   3   6  -3 1.56539 2.20050   5
   3   6  -3 0.91596 2.24138   1
   3   6  -3 4.32390 1.87416   4
  -3  -6   3 0.06441 2.11268   5
  -3  -6   3 6.94646 2.43543   1
  -3  -6   3 -0.3917 1.88436   3
   2   6  -3 8.33563 1.76135   4
   2   6  -3 7.51092 2.11183   1
   2   6  -3 4.23141 1.90291   5
   2   6  -3 6.34014 1.32762   2
  -2  -6   3 6.86497 2.08235   1
  -2  -6   3 8.08888 1.88277   3
  -2  -6   3 7.79942 2.10037   5
   1   6  -3 119.007 5.03286   1
   1   6  -3 127.112 3.92081   2
   1   6  -3 119.789 5.03832   5
   1   6  -3 122.776 4.45703   4
  -1  -6   3 118.777 4.94733   5
  -1  -6   3 120.822 3.87380   2
  -1  -6   3 121.011 4.48442   4
  -1  -6   3 122.685 5.05124   1
  -1  -6   3 123.714 4.43260   3
   0   6  -3 1325.13 23.7624   2
   0   6  -3 1305.91 24.4785   1
   0   6  -3 1332.56 24.4024   5
   0   6  -3 1329.90 24.2434   4
   0  -6   3 1326.64 24.3836   5
   0  -6   3 1357.07 23.8559   2
   0  -6   3 1330.82 24.5477   1
   0  -6   3 1337.65 24.2539   4
   0  -6   3 1364.26 24.1913   3
  -1   6  -3 -0.6433 1.34876   5
  -1   6  -3 0.42367 1.54435   2
  -1   6  -3 -1.3848 1.54293   1
  -1   6  -3 0.85588 1.57138   3
  -1   6  -3 -1.1071 1.54193   4
   1  -6   3 -0.1622 1.50646   2
   1  -6   3 1.23628 1.61977   1
   1  -6   3 2.49207 1.61619   4
   1  -6   3 1.70087 1.54843   5
   1  -6   3 -0.3027 1.51657   3
  -2   6  -3 32.6232 3.56226   3
  -2   6  -3 27.2709 2.63097   5
  -2   6  -3 34.4212 3.52544   2
   2  -6   3 33.4876 3.69522   3
   2  -6   3 28.0519 3.62050   2
   2  -6   3 26.8247 3.52600   4
   2  -6   3 28.1285 2.65723   5
   2  -6   3 30.2614 3.11679   1
  -3   6  -3 -1.7504 1.47546   5
  -3   6  -3 -1.0627 2.01334   2
  -3   6  -3 6.00793 2.25097   3
   3  -6   3 2.69817 1.55389   5
   3  -6   3 3.18275 2.15819   2
   3  -6   3 4.62689 2.18759   3
   3  -6   3 1.41392 1.84528   1
   3  -6   3 5.27096 2.13761   4
  -4   6  -3 243.589 8.75362   2
  -4   6  -3 238.755 8.30359   3
   4  -6   3 237.092 8.61496   2
   4  -6   3 247.493 8.61803   4
   4  -6   3 230.194 7.11324   1
  -5   6  -3 38.6895 6.05329   2
  -5   6  -3 35.1181 5.87606   3
   5  -6   3 21.8900 5.29243   1
   5  -6   3 44.5576 5.88355   4
   5  -6   3 38.9624 5.91014   2
  -6   6  -3 20.5506 4.42580   3
  -6   6  -3 12.5951 4.64845   2
   6  -6   3 13.9910 4.44597   4
   6  -6   3 18.2393 4.49084   2
   7   5  -3 14.2114 4.99843   1
   7   5  -3 20.2332 4.01818   5
   7   5  -3 18.8859 4.62195   4
  -7  -5   3 20.8085 4.55774   3
  -7  -5   3 18.8563 4.05534   5
   6   5  -3 32.7482 5.16143   5
   6   5  -3 29.0153 5.99399   1
   6   5  -3 40.3840 5.25066   4
  -6  -5   3 34.0135 6.10736   3
  -6  -5   3 31.3231 5.36092   5
   5   5  -3 10.7728 3.46028   1
   5   5  -3 17.2586 3.83772   4
   5   5  -3 17.2401 4.12299   5
  -5  -5   3 18.9958 4.61971   3
  -5  -5   3 17.6730 4.24274   5
   4   5  -3 138.285 6.38418   1
   4   5  -3 153.068 5.97439   5
   4   5  -3 135.583 5.15844   4
  -4  -5   3 139.671 5.89746   3
  -4  -5   3 140.121 5.95952   5
   3   5  -3 0.98441 1.82658   1
   3   5  -3 2.62778 1.78038   5
   3   5  -3 3.94708 1.44078   4
  -3  -5   3 4.51756 1.77984   3
  -3  -5   3 1.65606 1.82723   5
   2   5  -3 4.19190 1.33904   4
   2   5  -3 2.52112 0.99651   2
   2   5  -3 3.45632 1.63180   1
   2   5  -3 3.33843 1.58930   5
  -2  -5   3 5.29646 1.66729   5
  -2  -5   3 3.41514 1.78565   1
  -2  -5   3 2.92657 1.43734   3
   1   5  -3 5.86976 1.54097   5
   1   5  -3 6.07824 1.41546   4
   1   5  -3 9.08389 2.23333   1
   1   5  -3 8.19803 1.72508   2
  -1  -5   3 8.96228 2.05141   4
  -1  -5   3 6.45126 1.49742   3
  -1  -5   3 8.89408 1.74345   2
  -1  -5   3 5.36059 1.51816   5
  -1  -5   3 5.66322 1.59311   1
   0   5  -3 0.73580 1.18271   4
   0   5  -3 -1.6150 1.14846   5
   0   5  -3 1.01457 1.23041   1
   0   5  -3 0.14105 1.08309   2
   0  -5   3 2.63740 1.28251   3
   0  -5   3 0.60941 1.20846   4
   0  -5   3 -1.9181 1.15554   1
   0  -5   3 1.61286 1.17035   2
   0  -5   3 0.64534 1.21491   5
  -1   5  -3 160.285 4.94356   3
  -1   5  -3 157.068 4.73860   1
  -1   5  -3 150.980 4.75629   2
  -1   5  -3 150.755 4.50530   5
   1  -5   3 154.926 4.56714   5
   1  -5   3 153.742 4.78775   4
   1  -5   3 158.683 4.96628   3
   1  -5   3 151.702 4.73175   1
   1  -5   3 149.659 4.72695   2
  -2   5  -3 143.370 4.16102   5
  -2   5  -3 135.998 5.04570   3
   2  -5   3 138.884 4.97598   4
   2  -5   3 142.962 4.48956   1
   2  -5   3 145.305 5.13055   2
   2  -5   3 143.294 5.13839   3
   2  -5   3 147.653 4.20782   5
  -3   5  -3 0.36771 1.19477   5
  -3   5  -3 -0.7696 1.78471   3
   3  -5   3 -1.1817 1.19910   5
   3  -5   3 -1.5953 1.83265   2
   3  -5   3 -1.7722 1.80654   3
   3  -5   3 2.85847 1.52645   1
   3  -5   3 0.86326 1.84912   4
  -4   5  -3 476.592 11.9088   3
   4  -5   3 469.039 10.2027   1
   4  -5   3 465.924 11.8391   4
   4  -5   3 472.610 11.8513   2
  -5   5  -3 1.75151 3.01949   3
   5  -5   3 -0.7985 2.85683   2
   5  -5   3 4.86790 2.48798   1
   5  -5   3 5.72109 2.95427   4
  -6   5  -3 3.92669 3.84616   2
  -6   5  -3 -3.6404 3.37424   3
   6  -5   3 -3.9268 3.36808   4
   6  -5   3 0.02104 3.33675   2
  -7   5  -3 -3.6616 4.51444   3
  -7   5  -3 3.62976 5.15157   2
   7  -5   3 -1.1476 4.12154   4
   7  -5   3 -1.6656 4.06580   2
   7   4  -3 29.4430 6.93080   1
   7   4  -3 28.8870 5.65482   4
  -7  -4   3 32.0194 5.69596   5
  -7  -4   3 28.9964 6.95379   3
   6   4  -3 90.0572 5.79932   5
   6   4  -3 95.3071 5.74528   4
   6   4  -3 91.4982 6.77310   1
  -6  -4   3 93.2857 6.54918   3
  -6  -4   3 95.5343 5.90266   5
   5   4  -3 83.1269 5.90790   1
   5   4  -3 104.017 5.18256   5
   5   4  -3 103.777 4.76851   4
  -5  -4   3 101.994 5.65939   3
  -5  -4   3 98.6887 5.27705   5
   4   4  -3 1190.88 22.6337   5
   4   4  -3 1203.68 21.6603   4
   4   4  -3 1186.61 23.1456   1
  -4  -4   3 1202.47 22.7215   3
  -4  -4   3 1193.41 22.6160   5
   3   4  -3 791.621 15.7946   5
   3   4  -3 805.278 14.7954   4
   3   4  -3 784.112 16.0703   1
  -3  -4   3 791.043 15.8058   5
  -3  -4   3 798.306 15.6037   3
   2   4  -3 25.4828 2.56065   5
   2   4  -3 24.0840 2.54059   1
   2   4  -3 23.5633 2.01887   4
  -2  -4   3 28.1225 2.69822   1
  -2  -4   3 22.5090 2.47904   3
  -2  -4   3 23.7575 2.52905   5
   1   4  -3 203.567 4.54131   2
   1   4  -3 212.715 5.61936   5
   1   4  -3 207.758 5.03570   4
   1   4  -3 204.286 5.50836   1
  -1  -4   3 212.765 5.63367   1
  -1  -4   3 211.743 5.53519   5
  -1  -4   3 205.743 5.43843   3
  -1  -4   3 214.690 5.08189   4
  -1  -4   3 204.883 4.56097   2
   0   4  -3 148.942 4.33955   5
   0   4  -3 146.961 4.32100   1
   0   4  -3 147.501 4.09654   4
   0  -4   3 153.871 4.50279   3
   0  -4   3 148.369 4.11834   4
   0  -4   3 153.097 4.39570   1
   0  -4   3 150.087 4.00359   2
   0  -4   3 148.093 4.30234   5
  -1   4  -3 1210.13 21.0400   1
  -1   4  -3 1191.98 21.5618   3
  -1   4  -3 1185.37 20.8573   5
   1  -4   3 1186.07 21.5380   3
   1  -4   3 1185.66 21.2120   4
   1  -4   3 1188.91 20.8680   5
   1  -4   3 1202.10 21.0243   1
   1  -4   3 1186.88 21.2693   2
  -2   4  -3 40.8695 2.13809   5
  -2   4  -3 37.3153 2.92534   3
   2  -4   3 38.8240 2.73835   4
   2  -4   3 38.9886 2.93130   2
   2  -4   3 41.3095 2.93213   3
   2  -4   3 39.5996 2.14289   5
   2  -4   3 38.5657 2.40278   1
  -3   4  -3 353.011 8.97564   3
  -3   4  -3 357.951 6.68571   5
   3  -4   3 347.412 8.76789   4
   3  -4   3 341.228 8.87167   3
   3  -4   3 351.600 6.68699   5
   3  -4   3 333.842 8.69943   2
   3  -4   3 346.968 7.56518   1
  -4   4  -3 2.73021 2.18945   3
   4  -4   3 5.08526 2.13073   4
   4  -4   3 2.70097 2.19333   2
   4  -4   3 2.63673 1.68995   1
  -5   4  -3 552.367 13.8509   3
   5  -4   3 551.101 13.5896   4
   5  -4   3 537.281 11.4912   1
   5  -4   3 562.109 13.6019   2
  -6   4  -3 1.36773 3.20659   3
   6  -4   3 3.37681 3.20045   2
   6  -4   3 3.33793 3.11129   4
  -7   4  -3 0.18274 3.96171   3
  -7   4  -3 -0.1309 4.49598   2
   7  -4   3 2.31097 3.67783   2
   7  -4   3 -7.5862 3.57489   4
   8   3  -3 164.019 12.4703   4
   8   3  -3 186.008 10.7145   1
  -8  -3   3 177.361 11.6053   3
   7   3  -3 4.28959 3.31393   4
   7   3  -3 7.25026 3.94292   1
   7   3  -3 7.12367 3.47197   5
  -7  -3   3 8.44413 4.28596   3
   6   3  -3 7.16333 2.83123   5
   6   3  -3 5.13728 3.09057   1
   6   3  -3 10.2860 2.80086   4
  -6  -3   3 2.82356 2.72545   5
  -6  -3   3 11.5704 3.38541   3
   5   3  -3 95.6490 4.31822   4
   5   3  -3 92.9300 4.84830   5
   5   3  -3 96.3836 5.42786   1
  -5  -3   3 89.3995 4.60348   5
  -5  -3   3 92.7504 5.27854   3
   4   3  -3 3.43695 1.44025   4
   4   3  -3 0.08950 1.62947   1
   4   3  -3 0.75787 1.62104   5
  -4  -3   3 4.20698 1.96166   3
  -4  -3   3 3.49232 1.65789   5
   3   3  -3 3106.80 51.1181   4
   3   3  -3 3136.77 52.2398   5
   3   3  -3 3117.85 52.5959   1
  -3  -3   3 3065.20 52.1501   5
  -3  -3   3 3041.54 52.2329   3
   2   3  -3 500.150 9.27467   4
   2   3  -3 509.184 10.4526   1
   2   3  -3 488.911 10.2121   5
  -2  -3   3 508.931 10.2843   3
  -2  -3   3 480.121 10.1741   5
   1   3  -3 130.581 3.93854   1
   1   3  -3 133.170 3.91926   5
   1   3  -3 126.839 3.28972   4
  -1  -3   3 134.948 3.95872   1
  -1  -3   3 135.809 3.97134   3
  -1  -3   3 131.189 3.92521   5
  -1  -3   3 129.709 3.00706   2
   0   3  -3 0.58714 0.84642   5
   0   3  -3 0.86437 0.75698   4
   0   3  -3 0.58298 0.85880   1
   0  -3   3 0.38596 0.88851   1
   0  -3   3 0.36789 0.80696   2
   0  -3   3 0.92464 1.00315   3
   0  -3   3 2.22143 0.83306   4
   0  -3   3 1.25954 0.87600   5
  -1   3  -3 3311.50 53.4689   5
  -1   3  -3 3255.75 54.2794   3
  -1   3  -3 3226.68 53.3903   1
   1  -3   3 3250.96 53.7869   4
   1  -3   3 3255.41 53.4122   1
   1  -3   3 3256.23 53.9435   2
   1  -3   3 3198.28 54.2210   3
   1  -3   3 3299.92 53.4716   5
  -2   3  -3 827.055 15.6615   3
  -2   3  -3 773.524 14.1134   5
   2  -3   3 833.276 15.5162   2
   2  -3   3 849.265 14.4845   1
   2  -3   3 781.775 14.1432   5
   2  -3   3 835.360 15.4242   4
   2  -3   3 817.948 15.6316   3
  -3   3  -3 718.413 14.6614   3
   3  -3   3 696.706 14.3647   2
   3  -3   3 731.889 13.0494   1
   3  -3   3 716.291 14.6558   3
   3  -3   3 720.791 14.4445   4
  -4   3  -3 217.162 6.99078   3
   4  -3   3 197.720 6.57271   2
   4  -3   3 210.375 6.74929   4
   4  -3   3 208.802 5.29984   1
   5  -3   3 144.471 6.45679   2
   5  -3   3 149.603 6.50642   4
   5  -3   3 150.953 5.03462   1
  -6   3  -3 33.7675 5.69425   3
   6  -3   3 28.2526 5.21665   2
   6  -3   3 48.0185 5.50122   4
  -7   3  -3 34.6175 7.16468   3
   7  -3   3 33.6088 6.85645   4
   7  -3   3 38.0752 6.49958   2
   8   2  -3 0.56436 3.96719   4
   8   2  -3 -1.2392 4.79410   1
  -8  -2   3 3.75795 5.77332   3
   7   2  -3 155.038 7.12412   5
   7   2  -3 162.938 8.31885   1
   7   2  -3 155.078 7.27058   4
  -7  -2   3 145.860 9.07400   3
   6   2  -3 101.854 6.12531   1
   6   2  -3 106.162 5.49613   5
   6   2  -3 101.034 5.38595   4
  -6  -2   3 103.447 6.83975   3
   5   2  -3 339.276 6.71974   2
   5   2  -3 332.709 8.31038   5
   5   2  -3 330.845 9.12211   1
   5   2  -3 334.646 8.11675   4
  -5  -2   3 322.710 8.27704   5
  -5  -2   3 338.846 9.51196   3
   4   2  -3 416.332 9.24217   5
   4   2  -3 421.126 8.70398   4
   4   2  -3 404.069 9.77948   1
  -4  -2   3 410.997 9.22101   5
  -4  -2   3 403.900 9.80314   3
   3   2  -3 153.614 4.94790   1
   3   2  -3 155.546 3.96615   4
   3   2  -3 154.621 4.58057   5
  -3  -2   3 154.826 4.87229   3
  -3  -2   3 155.100 4.59166   5
   2   2  -3 1682.88 28.8662   5
   2   2  -3 1680.61 29.0506   1
   2   2  -3 1681.06 27.7228   4
  -2  -2   3 1670.31 28.8314   5
  -2  -2   3 1667.20 28.9857   3
   1   2  -3 91.2857 2.94420   1
   1   2  -3 90.7557 2.20110   4
   1   2  -3 90.7842 2.94866   5
  -1  -2   3 89.6047 2.13137   2
  -1  -2   3 89.4391 3.06849   3
  -1  -2   3 88.1982 2.92091   5
   0   2  -3 237.924 5.00495   1
   0   2  -3 237.199 5.17758   5
   0  -2   3 237.858 5.03677   1
   0  -2   3 238.623 4.73358   4
   0  -2   3 234.923 5.18134   5
   0  -2   3 240.243 4.93585   2
   0  -2   3 236.950 5.49422   3
  -1   2  -3 4049.21 66.9203   3
  -1   2  -3 4144.23 66.0774   5
  -1   2  -3 3995.52 65.8261   1
   1  -2   3 3974.62 66.5390   2
   1  -2   3 4161.41 66.0778   5
   1  -2   3 4083.17 66.3803   4
   1  -2   3 4062.08 66.9296   3
   1  -2   3 4072.97 65.8546   1
  -2   2  -3 1527.33 27.0159   3
  -2   2  -3 1567.01 25.4412   5
   2  -2   3 1517.20 26.9763   3
   2  -2   3 1547.13 26.7861   2
   2  -2   3 1539.92 26.6899   4
   2  -2   3 1554.52 25.5077   1
  -3   2  -3 1270.88 23.1191   3
   3  -2   3 1277.70 21.2295   1
   3  -2   3 1257.02 23.0769   3
   3  -2   3 1233.49 22.7302   4
   3  -2   3 1235.30 22.7321   2
  -4   2  -3 195.475 6.47899   3
   4  -2   3 195.719 4.77328   1
   4  -2   3 192.831 6.24663   4
   4  -2   3 188.835 6.04426   2
  -5   2  -3 14.4540 2.96188   3
   5  -2   3 11.0422 2.68439   1
   5  -2   3 12.0821 2.54934   2
   5  -2   3 14.2630 3.76605   4
  -6   2  -3 -0.5915 2.89095   3
   6  -2   3 0.14603 2.79086   4
   6  -2   3 6.86991 2.81611   2
  -7   2  -3 131.812 8.54023   3
   7  -2   3 115.651 7.51935   4
   7  -2   3 124.880 7.41855   2
  -8   2  -3 26.7441 5.87919   3
   8  -2   3 16.8438 4.55476   4
   8  -2   3 21.8814 5.00911   2
   8   1  -3 -3.7741 4.38861   1
   8   1  -3 -4.1232 3.87131   4
  -8  -1   3 4.32133 5.35835   3
   7   1  -3 126.371 7.36881   1
   7   1  -3 128.720 6.88380   4
  -7  -1   3 131.608 8.34433   3
   6   1  -3 258.418 7.80652   4
   6   1  -3 261.409 8.54928   1
   6   1  -3 246.461 7.34725   5
  -6  -1   3 265.977 9.45827   3
   5   1  -3 38.1260 3.92963   1
   5   1  -3 29.5945 3.11153   5
   5   1  -3 33.0039 3.12830   4
   5   1  -3 34.7983 2.56797   2
  -5  -1   3 36.7673 4.06125   3
  -5  -1   3 35.6114 2.61686   2
   4   1  -3 34.5903 2.51148   4
   4   1  -3 40.9421 2.71651   5
   4   1  -3 37.0228 2.06132   2
   4   1  -3 43.8062 3.33141   1
  -4  -1   3 40.3600 2.59969   5
  -4  -1   3 40.2641 2.12184   2
  -4  -1   3 36.3597 3.31919   3
   3   1  -3 1293.61 23.3693   1
   3   1  -3 1319.81 22.2386   4
   3   1  -3 1287.96 22.8409   5
  -3  -1   3 1288.29 23.4177   3
  -3  -1   3 1299.99 22.8818   5
  -3  -1   3 1321.62 21.5295   2
   2   1  -3 158.958 4.33877   1
   2   1  -3 161.968 3.35791   4
   2   1  -3 157.281 4.17840   5
  -2  -1   3 157.841 4.41713   3
  -2  -1   3 157.613 3.04164   2
  -2  -1   3 162.598 4.19582   5
   1   1  -3 1842.57 31.1712   5
   1   1  -3 1859.83 31.1791   1
  -1  -1   3 1852.47 31.3835   3
  -1  -1   3 1877.70 30.3071   2
  -1  -1   3 1872.28 31.2086   5
   0   1  -3 33.7785 1.16398   4
   0   1  -3 38.9707 1.51004   1
   0   1  -3 34.5782 1.57540   5
   0  -1   3 35.9779 1.90640   3
   0  -1   3 38.2061 1.24722   4
   0  -1   3 37.5328 1.57289   2
  -1   1  -3 576.520 9.58371   1
  -1   1  -3 552.116 9.59607   1
  -1   1  -3 580.281 10.0656   5
  -1   1  -3 563.033 10.7821   3
   1  -1   3 562.419 10.3020   4
   1  -1   3 580.950 9.59788   1
   1  -1   3 568.875 10.7820   3
   1  -1   3 575.568 10.5807   2
  -2   1  -3 3791.55 60.4917   5
  -2   1  -3 3749.16 62.0276   3
   2  -1   3 3682.71 61.7602   2
   2  -1   3 3683.49 61.9766   3
   2  -1   3 3830.52 61.7577   4
  -3   1  -3 1412.22 25.3253   3
   3  -1   3 1414.46 25.0532   2
   3  -1   3 1398.91 25.0932   4
   3  -1   3 1419.23 23.4054   1
  -4   1  -3 2.01836 1.66591   3
   4  -1   3 -0.1300 1.51431   4
   4  -1   3 -1.0352 1.51569   2
   4  -1   3 1.52412 1.12630   1
  -5   1  -3 19.5500 3.68700   3
   5  -1   3 15.9075 3.50201   2
   5  -1   3 11.0930 2.53560   4
   5  -1   3 18.8497 2.55624   1
  -6   1  -3 201.325 8.35787   3
   6  -1   3 182.399 7.75957   4
   6  -1   3 190.576 7.24391   2
  -7   1  -3 8.75549 4.10237   3
   7  -1   3 1.00617 3.42408   4
   7  -1   3 -0.3413 3.16009   2
  -8   1  -3 38.4637 8.70019   3
   8  -1   3 34.6355 7.70848   2
   8  -1   3 28.7039 5.16680   4
   8   0  -3 -0.4384 4.29840   1
   8   0  -3 2.72580 4.08373   4
  -8   0   3 4.92063 5.43740   3
   7   0  -3 77.3078 5.96111   4
   7   0  -3 72.3167 6.37630   1
  -7   0   3 80.1066 7.23017   3
   6   0  -3 28.3455 4.49796   1
   6   0  -3 21.9977 3.67347   5
   6   0  -3 24.0497 3.33919   2
   6   0  -3 27.4167 4.09655   4
  -6   0   3 22.5536 3.58029   2
  -6   0   3 21.0402 5.57577   3
   5   0  -3 135.969 5.61824   1
   5   0  -3 143.743 4.77048   5
   5   0  -3 150.629 4.56712   2
   5   0  -3 145.668 5.07531   4
  -5   0   3 155.169 4.61176   2
  -5   0   3 149.133 6.21397   3
   4   0  -3 22.3404 2.03118   2
   4   0  -3 24.4574 2.31019   5
   4   0  -3 24.2766 2.22210   4
   4   0  -3 22.9451 2.89787   1
  -4   0   3 26.4067 2.15450   2
  -4   0   3 18.8956 3.00390   3
   3   0  -3 155.876 3.64501   2
   3   0  -3 152.321 3.91425   4
   3   0  -3 155.557 4.67890   1
   3   0  -3 156.316 4.22410   5
  -3   0   3 153.504 3.70144   2
  -3   0   3 143.674 4.60042   3
   2   0  -3 3031.62 49.0163   4
   2   0  -3 3031.78 50.1305   1
   2   0  -3 2990.00 49.7780   5
  -2   0   3 2991.41 49.0527   2
  -2   0   3 3046.18 50.2152   3
   1   0  -3 3085.13 49.9344   5
   1   0  -3 3048.13 49.9005   1
  -1   0   3 3070.71 49.3807   2
  -1   0   3 2964.75 50.0316   3
   0   0  -3 3179.04 48.7150   1
   0   0  -3 3033.10 48.3785   4
   0   0  -3 2812.71 48.9225   5
   0   0   3 3123.78 48.3849   4
   0   0   3 3099.67 48.9107   2
   0   0   3 2747.98 49.0936   3
  -1   0  -3 3387.87 52.6237   5
  -1   0  -3 3247.08 53.1138   3
   1   0   3 3207.90 53.0891   3
   1   0   3 3345.72 53.0664   2
   1   0   3 2990.36 52.6940   4
  -2   0  -3 18.7532 1.83456   3
  -2   0  -3 17.8680 1.23365   5
   2   0   3 18.6280 1.75575   3
   2   0   3 17.3060 1.60610   4
  -3   0  -3 119.446 4.16639   3
  -3   0  -3 128.557 2.82552   5
   3   0   3 130.107 4.10407   2
   3   0   3 125.202 4.13199   4
   3   0   3 130.366 2.95968   1
  -4   0  -3 290.559 7.74013   3
   4   0   3 300.847 6.15025   1
   4   0   3 292.050 7.35514   2
   4   0   3 283.554 7.62290   4
  -5   0  -3 9.30791 2.33282   3
   5   0   3 10.3800 2.41903   4
   5   0   3 15.2122 2.35492   1
   5   0   3 5.95216 2.07324   2
  -6   0  -3 9.32725 3.21608   3
   6   0   3 10.0959 3.11692   4
   6   0   3 9.66503 2.19829   1
   6   0   3 10.0958 2.60538   2
  -7   0  -3 237.594 9.90486   3
   7   0   3 246.668 9.66114   4
   7   0   3 248.841 8.94374   2
  -8   0  -3 14.3171 5.35830   3
   8   0   3 17.1949 4.72993   4
   8   0   3 16.4835 4.52100   2
   8  -1  -3 38.0193 7.92164   1
   8  -1  -3 38.6685 7.39154   4
  -8   1   3 24.5278 5.69981   3
   7  -1  -3 8.25296 3.60862   2
   7  -1  -3 4.45363 3.42122   4
   7  -1  -3 6.40359 3.29829   1
  -7   1   3 -1.4369 3.77066   3
  -7   1   3 4.27895 4.76248   2
   6  -1  -3 4.08533 2.55824   4
   6  -1  -3 10.0783 2.77147   1
   6  -1  -3 5.95167 2.13615   5
   6  -1  -3 9.32769 2.30649   2
  -6   1   3 7.96631 2.44228   2
  -6   1   3 8.94374 3.44071   3
   5  -1  -3 1.13607 2.02319   1
   5  -1  -3 1.90332 1.68765   4
   5  -1  -3 3.80166 1.62490   2
   5  -1  -3 0.18383 1.52872   5
  -5   1   3 0.80139 1.58387   2
  -5   1   3 1.76764 2.20662   3
   4  -1  -3 289.642 6.89934   4
   4  -1  -3 288.347 7.56165   1
   4  -1  -3 289.603 6.58045   2
   4  -1  -3 291.973 6.61478   5
  -4   1   3 276.951 7.66896   3
  -4   1   3 293.699 6.62972   2
   3  -1  -3 436.869 9.44841   1
   3  -1  -3 446.396 8.82680   5
   3  -1  -3 441.423 8.75421   4
   3  -1  -3 449.115 8.75457   2
  -3   1   3 446.470 9.60658   3
  -3   1   3 432.517 8.65378   2
   2  -1  -3 24.3166 1.44764   4
   2  -1  -3 28.1197 1.76306   5
   2  -1  -3 23.3130 1.87430   1
  -2   1   3 25.0390 1.60702   2
  -2   1   3 27.6279 1.96479   3
   1  -1  -3 1234.93 20.9909   1
   1  -1  -3 1221.00 20.2777   4
   1  -1  -3 1223.23 20.9107   5
  -1   1   3 1216.87 20.6942   2
  -1   1   3 1232.91 20.2944   4
  -1   1   3 1222.61 20.9476   3
   0  -1  -3 72.8639 2.26033   5
   0  -1  -3 72.4420 2.08927   1
   0   1   3 63.5884 2.18464   2
   0   1   3 70.6920 1.94236   4
   0   1   3 72.8443 2.16904   3
  -1  -1  -3 1801.13 29.5663   3
  -1  -1  -3 1760.20 28.9494   1
  -1  -1  -3 1797.83 29.5054   5
   1   1   3 1740.15 28.9388   1
   1   1   3 1743.88 29.7231   2
   1   1   3 1798.22 29.5530   3
   1   1   3 1789.98 29.6462   4
  -2  -1  -3 564.760 9.63832   1
  -2  -1  -3 569.158 10.1386   5
  -2  -1  -3 567.307 10.6899   3
   2   1   3 563.101 10.6689   3
   2   1   3 563.304 10.7380   2
   2   1   3 564.353 9.63909   1
   2   1   3 553.039 10.7787   4
  -3  -1  -3 0.09745 0.76162   5
  -3  -1  -3 1.26252 1.07705   3
   3   1   3 0.28231 0.80717   1
   3   1   3 0.50458 1.05546   2
   3   1   3 -0.9886 0.96874   4
  -4  -1  -3 109.971 3.06950   5
  -4  -1  -3 113.067 4.37318   3
   4   1   3 104.460 4.41091   4
   4   1   3 105.668 3.32298   1
   4   1   3 112.232 4.16703   2
  -5  -1  -3 2.96388 1.20963   5
  -5  -1  -3 -1.0803 1.93754   3
   5   1   3 2.66688 1.93144   2
   5   1   3 2.99025 1.22312   5
   5   1   3 1.76789 1.91495   4
   5   1   3 1.26111 1.47850   1
  -6  -1  -3 3.39634 2.65253   3
   6   1   3 1.55450 2.72442   4
   6   1   3 -1.9444 2.24437   2
   6   1   3 0.02205 2.02282   1
  -7  -1  -3 252.985 10.1566   3
   7   1   3 272.727 9.99421   4
   7   1   3 243.199 8.57790   2
  -8  -1  -3 124.299 9.87766   3
   8   1   3 135.355 9.20406   4
   8   1   3 135.025 7.97715   2
   8  -2  -3 31.8473 7.52673   1
   8  -2  -3 49.2127 7.89467   4
  -8   2   3 33.3831 7.95497   3
   7  -2  -3 2.18253 3.18970   4
   7  -2  -3 3.80437 3.12582   2
   7  -2  -3 -1.6785 3.10947   1
  -7   2   3 -1.2709 3.38284   3
  -7   2   3 2.85033 3.43373   2
   6  -2  -3 80.2317 5.20073   4
   6  -2  -3 76.9235 4.88009   2
   6  -2  -3 76.5302 5.45549   1
  -6   2   3 87.3036 6.58213   3
  -6   2   3 88.4899 5.18518   2
   5  -2  -3 138.426 5.03146   2
   5  -2  -3 137.586 4.50178   5
   5  -2  -3 138.811 5.67001   1
   5  -2  -3 130.256 5.25624   4
  -5   2   3 136.291 6.02457   3
  -5   2   3 129.859 4.99019   2
   4  -2  -3 1005.18 19.4330   1
   4  -2  -3 1015.91 18.2126   5
   4  -2  -3 1020.79 18.6557   2
   4  -2  -3 1018.54 18.8491   4
  -4   2   3 999.718 19.6606   3
  -4   2   3 1022.83 18.6893   2
   3  -2  -3 357.312 8.24786   1
   3  -2  -3 357.349 7.72013   2
   3  -2  -3 359.690 7.69265   4
   3  -2  -3 351.612 7.45961   5
  -3   2   3 364.509 7.73455   2
  -3   2   3 357.772 8.21751   3
   2  -2  -3 29.4613 1.90231   5
   2  -2  -3 28.7898 2.10213   1
   2  -2  -3 26.5757 1.75185   4
  -2   2   3 27.1758 1.98234   3
  -2   2   3 29.5202 1.90310   2
   1  -2  -3 1963.03 35.0003   4
   1  -2  -3 2187.23 35.4367   5
   1  -2  -3 2269.75 35.6904   1
  -1   2   3 2188.44 35.2313   3
  -1   2   3 1977.31 35.0167   4
  -1   2   3 2154.24 35.3902   2
   0  -2  -3 339.610 6.54868   1
   0  -2  -3 333.463 6.64819   5
   0   2   3 333.961 6.11040   3
   0   2   3 300.173 6.37095   4
  -1  -2  -3 3380.77 53.6423   3
  -1  -2  -3 3237.71 53.7339   1
  -1  -2  -3 3268.71 54.1263   5
   1   2   3 3284.03 54.2201   4
   1   2   3 3282.67 53.5966   3
   1   2   3 3348.93 54.2671   2
  -2  -2  -3 19.6188 1.60652   3
  -2  -2  -3 19.7669 1.59253   5
  -2  -2  -3 19.4972 1.40295   1
   2   2   3 21.2294 1.48058   1
   2   2   3 25.5826 1.85512   2
  -3  -2  -3 1268.26 22.5665   3
  -3  -2  -3 1282.44 22.0156   5
   3   2   3 1294.27 21.8758   1
   3   2   3 1280.53 23.0836   4
   3   2   3 1268.27 22.5765   2
  -4  -2  -3 669.559 12.3031   5
  -4  -2  -3 665.168 13.3894   3
   4   2   3 665.029 12.4298   1
   4   2   3 654.874 13.0857   2
   4   2   3 640.473 13.7093   4
  -5  -2  -3 235.496 5.61818   5
  -5  -2  -3 219.646 7.11441   3
   5   2   3 228.863 5.95807   1
   5   2   3 217.248 7.19838   4
   5   2   3 215.545 6.50875   2
  -6  -2  -3 342.484 9.82084   3
   6   2   3 301.132 8.15207   1
   6   2   3 323.685 8.81749   2
   6   2   3 311.667 9.93830   4
  -7  -2  -3 16.3967 3.87854   3
   7   2   3 24.0454 5.76556   4
   7   2   3 14.2370 3.41931   2
  -8  -2  -3 134.226 10.1514   3
   8   2   3 132.927 7.49080   2
   8   2   3 124.481 8.85665   4
   8  -3  -3 379.829 12.9648   1
   8  -3  -3 379.156 13.1301   4
  -8   3   3 386.529 13.9873   3
   7  -3  -3 3.50289 3.45733   2
   7  -3  -3 7.95097 3.76431   1
   7  -3  -3 12.4090 3.73383   4
  -7   3   3 6.59646 4.20622   3
  -7   3   3 7.39435 3.65827   2
   6  -3  -3 3.79630 2.81870   1
   6  -3  -3 3.61067 2.73286   2
   6  -3  -3 3.14464 2.71090   4
  -6   3   3 7.11535 3.27785   3
  -6   3   3 1.89246 2.80071   2
   5  -3  -3 286.801 8.07778   2
   5  -3  -3 297.205 8.57774   1
   5  -3  -3 308.398 8.34426   4
   5  -3  -3 301.174 7.13210   5
  -5   3   3 301.484 8.98726   3
  -5   3   3 298.493 8.16282   2
   4  -3  -3 152.245 5.17184   4
   4  -3  -3 152.796 5.54047   1
   4  -3  -3 155.727 5.14059   2
   4  -3  -3 152.887 4.48114   5
  -4   3   3 156.623 5.16602   2
  -4   3   3 157.580 5.78995   3
   3  -3  -3 1479.41 26.3284   4
   3  -3  -3 1487.71 26.9168   1
   3  -3  -3 1519.39 25.9327   5
   3  -3  -3 1506.20 26.4917   2
  -3   3   3 1529.07 26.8153   3
  -3   3   3 1479.90 26.4043   2
   2  -3  -3 6.03000 1.55620   4
   2  -3  -3 6.51103 1.54458   5
   2  -3  -3 3.48244 1.21048   1
  -2   3   3 3.42970 1.10027   3
  -2   3   3 4.23583 1.16137   2
   1  -3  -3 217.238 5.28744   1
   1  -3  -3 206.544 4.99627   5
   1  -3  -3 210.696 4.93878   4
  -1   3   3 209.173 4.61151   3
  -1   3   3 212.308 4.98111   4
  -1   3   3 209.807 5.09315   2
   0  -3  -3 39.6268 2.04576   1
   0   3   3 38.4955 1.41950   3
   0   3   3 38.8972 2.09143   4
  -1  -3  -3 1226.03 20.1417   3
  -1  -3  -3 1240.95 21.1374   1
  -1  -3  -3 1212.69 21.2893   5
   1   3   3 1221.71 21.4154   4
   1   3   3 1211.44 20.1282   3
   1   3   3 1219.79 21.3104   2
  -2  -3  -3 49.9545 2.26444   1
  -2  -3  -3 48.7275 2.01583   3
  -2  -3  -3 47.0627 2.37166   5
   2   3   3 52.2350 2.72798   4
   2   3   3 58.4526 2.56083   2
   2   3   3 48.9235 2.30772   1
  -3  -3  -3 1164.96 20.6862   5
  -3  -3  -3 1167.89 20.5795   3
  -3  -3  -3 1177.07 20.5646   1
   3   3   3 1152.64 21.4956   4
   3   3   3 1181.23 20.5698   1
   3   3   3 1161.92 20.8908   2
  -4  -3  -3 1150.78 20.4481   5
  -4  -3  -3 1135.29 20.9139   3
   4   3   3 1126.00 20.7895   2
   4   3   3 1151.22 20.5345   1
   4   3   3 1136.37 21.7342   4
  -5  -3  -3 3.27777 2.07308   3
  -5  -3  -3 5.74592 1.56692   5
   5   3   3 6.96560 2.01694   2
   5   3   3 2.69142 2.31227   4
   5   3   3 5.32996 1.79922   1
  -6  -3  -3 44.6944 3.72305   5
  -6  -3  -3 37.7177 4.97301   3
   6   3   3 30.4359 4.23523   2
   6   3   3 33.0543 3.67402   5
   6   3   3 35.1176 5.35972   4
   6   3   3 31.4558 4.07896   1
  -7  -3  -3 30.6738 5.56079   3
   7   3   3 18.9894 3.59865   2
   7   3   3 24.8219 6.05283   4
  -8  -3  -3 2.74398 4.97612   3
   8   3   3 1.61291 4.16723   4
   7  -4  -3 70.2691 6.84337   1
   7  -4  -3 79.5940 7.11693   4
   7  -4  -3 64.5503 6.64688   2
  -7   4   3 67.1586 6.27900   2
  -7   4   3 69.0963 7.65442   3
   6  -4  -3 126.455 6.83203   1
   6  -4  -3 137.615 6.63400   2
   6  -4  -3 138.933 6.92912   4
  -6   4   3 120.229 7.11970   3
  -6   4   3 134.964 6.66332   2
   5  -4  -3 15.2977 2.79649   1
   5  -4  -3 18.7352 3.97921   4
   5  -4  -3 27.8238 4.09947   2
   5  -4  -3 18.1611 2.93853   5
  -5   4   3 19.9977 3.81065   2
  -5   4   3 26.8377 4.36407   3
   4  -4  -3 775.387 15.8036   4
   4  -4  -3 774.530 15.8012   2
   4  -4  -3 767.678 16.1599   1
   4  -4  -3 812.631 14.7615   5
  -4   4   3 780.287 15.8160   2
  -4   4   3 771.531 16.0571   3
   3  -4  -3 1836.99 33.5387   2
   3  -4  -3 1960.52 33.9902   1
   3  -4  -3 1911.94 33.4470   4
   3  -4  -3 1929.18 32.7297   5
  -3   4   3 1913.39 33.4275   3
  -3   4   3 1946.35 33.5829   2
   2  -4  -3 222.590 5.74254   4
   2  -4  -3 223.570 6.07324   1
   2  -4  -3 222.582 5.50202   5
  -2   4   3 222.566 5.49520   3
  -2   4   3 218.019 5.80669   2
  -2   4   3 223.755 5.76175   4
   1  -4  -3 259.382 6.11049   4
   1  -4  -3 257.072 6.02326   5
   1  -4  -3 254.840 6.29167   1
  -1   4   3 250.512 6.13811   2
  -1   4   3 256.802 5.35338   3
  -1   4   3 251.028 6.06858   4
   0  -4  -3 -0.5549 0.58725   3
   0  -4  -3 -0.8471 0.91433   4
   0  -4  -3 -0.3388 0.92205   5
   0  -4  -3 -0.1053 0.96281   1
   0   4   3 0.85251 0.54478   3
   0   4   3 1.10368 1.00387   2
   0   4   3 1.60325 0.99163   4
  -1  -4  -3 830.330 15.4867   5
  -1  -4  -3 825.104 15.3934   1
   1   4   3 830.602 15.6140   4
   1   4   3 849.793 15.4621   2
  -2  -4  -3 923.039 16.8538   1
  -2  -4  -3 930.364 15.6346   3
  -2  -4  -3 913.793 16.9363   5
   2   4   3 905.643 17.2986   4
   2   4   3 913.070 16.8319   2
  -3  -4  -3 595.153 11.2127   3
  -3  -4  -3 603.479 11.8374   1
  -3  -4  -3 591.975 11.9142   5
   3   4   3 590.961 11.7798   2
   3   4   3 575.854 12.5159   4
   3   4   3 602.100 11.8482   1
  -4  -4  -3 270.568 6.97029   1
  -4  -4  -3 274.336 6.94623   5
  -4  -4  -3 281.578 6.86833   3
   4   4   3 277.225 6.98980   1
   4   4   3 251.075 7.54918   4
   4   4   3 282.098 6.97234   2
  -5  -4  -3 520.979 11.2778   5
  -5  -4  -3 514.967 11.5868   3
   5   4   3 508.406 12.5151   4
   5   4   3 509.224 11.3427   2
   5   4   3 525.227 11.5209   1
  -6  -4  -3 50.1550 4.13449   5
  -6  -4  -3 54.2327 5.55155   3
   6   4   3 42.9514 4.27587   2
   6   4   3 48.7296 5.45285   4
   6   4   3 51.2512 5.12052   1
  -7  -4  -3 7.82677 3.68050   3
   7   4   3 8.35474 3.30055   2
   7   4   3 22.4471 5.59595   1
   7   4   3 6.32815 3.54294   4
  -8  -4  -3 71.3267 8.98555   3
   8   4   3 79.5233 8.17090   4
   7  -5  -3 -1.9409 3.87020   4
   7  -5  -3 9.69836 4.23751   2
   7  -5  -3 2.48326 4.17288   1
  -7   5   3 2.16408 4.07780   3
  -7   5   3 1.42685 3.93206   2
   6  -5  -3 15.7582 3.61724   2
   6  -5  -3 12.0938 3.61027   1
   6  -5  -3 16.8343 3.55917   4
  -6   5   3 13.5690 3.84987   3
  -6   5   3 10.0836 3.34174   2
   5  -5  -3 5.55001 2.48767   4
   5  -5  -3 3.37504 2.61301   2
   5  -5  -3 7.26376 2.05759   5
   5  -5  -3 7.27567 2.71052   1
  -5   5   3 5.46917 2.73889   2
  -5   5   3 6.58143 2.73627   3
   4  -5  -3 282.953 8.20552   2
   4  -5  -3 289.907 6.94080   5
   4  -5  -3 280.249 8.25495   1
   4  -5  -3 280.687 8.09978   4
  -4   5   3 281.587 8.10923   2
  -4   5   3 270.549 7.94902   3
   3  -5  -3 1430.16 26.5865   4
   3  -5  -3 1486.18 27.0840   1
   3  -5  -3 1466.52 26.7356   2
   3  -5  -3 1470.55 25.7152   5
  -3   5   3 1443.71 26.6879   2
  -3   5   3 1470.37 26.3149   3
   2  -5  -3 26.0823 2.71149   4
   2  -5  -3 23.3810 2.37112   5
   2  -5  -3 29.6306 2.94483   1
  -2   5   3 27.2696 2.20463   3
  -2   5   3 28.0967 2.60535   4
  -2   5   3 25.1448 2.69287   2
   1  -5  -3 1653.28 29.3075   1
   1  -5  -3 1635.12 28.7710   5
   1  -5  -3 1674.34 29.1040   4
  -1   5   3 1648.46 29.0797   4
  -1   5   3 1658.92 27.7055   3
  -1   5   3 1638.71 29.0362   2
   0  -5  -3 -0.8807 1.07330   4
   0  -5  -3 -0.2042 1.01384   5
   0  -5  -3 0.01144 1.06077   1
   0   5   3 2.55821 1.20202   2
   0   5   3 -0.3465 1.11265   4
  -1  -5  -3 954.332 18.0293   1
  -1  -5  -3 972.426 18.0375   5
   1   5   3 970.799 17.8579   2
   1   5   3 972.314 18.2469   4
  -2  -5  -3 -0.0677 1.22549   5
  -2  -5  -3 0.46250 1.16504   1
   2   5   3 0.12364 1.35829   4
   2   5   3 0.96446 1.28805   2
  -3  -5  -3 124.125 4.64636   5
  -3  -5  -3 127.015 3.72602   3
  -3  -5  -3 128.456 4.68027   1
   3   5   3 127.967 5.18935   4
   3   5   3 132.425 4.35785   2
   3   5   3 132.482 4.72074   1
  -4  -5  -3 147.058 5.30398   5
  -4  -5  -3 149.718 4.73738   3
  -4  -5  -3 144.770 5.23731   1
   4   5   3 144.392 5.96803   4
   4   5   3 140.650 5.25625   1
   4   5   3 143.269 4.97869   2
  -5  -5  -3 181.202 6.23780   3
  -5  -5  -3 163.592 6.14844   5
   5   5   3 184.062 6.03248   2
   5   5   3 170.366 6.46183   1
   5   5   3 182.676 7.23239   4
  -6  -5  -3 221.787 8.36170   3
  -6  -5  -3 220.568 7.54447   5
   6   5   3 227.112 8.36423   1
   6   5   3 227.862 8.89959   4
   6   5   3 204.422 7.10246   2
  -7  -5  -3 18.8536 4.16337   3
   7   5   3 25.3240 6.41762   1
   7   5   3 16.9516 4.09902   4
   7  -6  -3 179.480 10.2441   1
   7  -6  -3 166.006 9.71071   4
   7  -6  -3 199.270 10.4176   2
  -7   6   3 161.220 9.62066   3
  -7   6   3 185.100 10.5442   2
   6  -6  -3 17.7192 4.05312   4
   6  -6  -3 8.92412 3.96352   2
   6  -6  -3 23.6490 6.37418   1
  -6   6   3 18.5841 4.24079   2
  -6   6   3 14.1506 4.12875   3
   5  -6  -3 15.8901 3.59429   4
   5  -6  -3 15.1109 3.43714   1
   5  -6  -3 18.6458 3.79644   2
  -5   6   3 12.0857 3.17024   3
  -5   6   3 16.2573 3.83642   2
   4  -6  -3 47.8894 3.48442   5
   4  -6  -3 52.3059 4.72681   1
   4  -6  -3 34.6358 4.74743   2
   4  -6  -3 43.3339 4.15745   4
  -4   6   3 43.2748 4.28520   3
  -4   6   3 47.1117 4.77363   2
   3  -6  -3 42.1729 3.97702   1
   3  -6  -3 41.8299 3.76627   2
   3  -6  -3 45.3272 3.65119   4
   3  -6  -3 47.9506 3.16076   5
  -3   6   3 40.2978 3.24219   3
  -3   6   3 41.8977 3.87337   2
  -3   6   3 41.7600 3.75924   4
   2  -6  -3 1277.98 24.2396   1
   2  -6  -3 1302.79 24.0114   4
   2  -6  -3 1272.11 23.2382   5
  -2   6   3 1267.22 23.9586   2
  -2   6   3 1293.06 22.7670   3
  -2   6   3 1305.29 24.0328   4
   1  -6  -3 102.396 4.10072   5
   1  -6  -3 96.0831 4.43695   1
   1  -6  -3 99.9921 4.27649   4
  -1   6   3 101.739 3.08222   3
  -1   6   3 101.419 4.18745   4
  -1   6   3 96.5723 4.18750   2
   0  -6  -3 6.47680 1.55564   5
   0  -6  -3 7.26868 1.72968   4
   0  -6  -3 6.36566 1.67131   1
   0   6   3 6.88979 1.68748   4
   0   6   3 6.63033 1.72161   2
  -1  -6  -3 307.680 7.91110   1
  -1  -6  -3 308.833 7.72739   5
   1   6   3 311.107 7.53838   2
   1   6   3 311.306 7.97842   4
  -2  -6  -3 628.847 13.2184   5
  -2  -6  -3 623.392 13.2355   1
   2   6   3 642.097 12.8057   2
   2   6   3 611.225 13.4200   4
  -3  -6  -3 55.8130 4.04677   5
  -3  -6  -3 60.9607 4.05179   1
  -3  -6  -3 62.4925 2.62671   3
   3   6   3 56.8323 3.53144   2
   3   6   3 59.6304 4.04687   4
   3   6   3 66.2735 4.17951   1
  -4  -6  -3 3.03154 2.14914   5
  -4  -6  -3 1.03044 1.64589   3
  -4  -6  -3 3.02594 1.94034   1
   4   6   3 1.75847 2.12112   1
   4   6   3 2.67517 2.28506   4
   4   6   3 2.31362 1.85962   2
  -5  -6  -3 14.3801 3.05361   5
  -5  -6  -3 10.2917 2.63900   3
  -5  -6  -3 14.0673 2.99307   1
   5   6   3 13.7731 3.61297   2
   5   6   3 14.5276 3.10774   1
   5   6   3 19.1016 3.48077   4
  -6  -6  -3 54.6577 5.87246   5
  -6  -6  -3 69.4164 6.24419   3
   6   6   3 67.4080 5.75341   2
   6   6   3 62.0290 6.47641   1
   6   6   3 78.6530 6.75932   4
  -7  -6  -3 16.0104 4.76919   5
   7   6   3 12.8036 4.11798   1
   7   6   3 28.1196 7.05752   4
   7   6   3 6.71523 5.56351   5
   6  -7  -3 192.574 9.37882   2
   6  -7  -3 180.566 9.51467   1
   6  -7  -3 196.233 9.01715   4
  -6   7   3 180.020 9.70263   2
  -6   7   3 178.054 9.19593   3
   5  -7  -3 12.9927 3.69384   2
   5  -7  -3 8.57185 3.28179   1
   5  -7  -3 9.47086 3.43802   4
  -5   7   3 10.4111 3.71288   2
  -5   7   3 6.92677 3.27013   3
   4  -7  -3 12.4059 3.19568   1
   4  -7  -3 19.3518 4.98159   2
   4  -7  -3 12.4966 3.13437   4
   4  -7  -3 10.4965 2.39381   5
  -4   7   3 12.0816 2.73735   3
  -4   7   3 11.2093 3.21056   2
  -4   7   3 10.8854 3.05019   4
   3  -7  -3 63.4993 3.97638   5
   3  -7  -3 68.7529 4.78497   1
   3  -7  -3 63.9062 4.79469   4
   3  -7  -3 65.1431 4.98501   2
  -3   7   3 69.4011 4.75407   4
  -3   7   3 53.4134 3.90649   3
  -3   7   3 64.4832 4.99627   2
   2  -7  -3 119.288 4.87079   5
   2  -7  -3 124.836 5.50983   1
   2  -7  -3 125.002 5.52675   4
  -2   7   3 130.721 4.28570   3
  -2   7   3 117.189 5.45866   4
  -2   7   3 128.201 5.38715   2
   1  -7  -3 139.427 5.10173   5
   1  -7  -3 125.966 5.26280   4
   1  -7  -3 128.788 5.51543   1
  -1   7   3 137.324 3.75976   3
  -1   7   3 138.810 5.36187   2
  -1   7   3 123.005 5.26947   4
   0  -7  -3 7.17810 2.02914   1
   0  -7  -3 2.21993 1.89008   4
   0  -7  -3 6.54171 1.89666   5
   0   7   3 5.99360 2.06792   4
   0   7   3 6.68046 1.99877   2
  -1  -7  -3 79.3317 4.32804   1
  -1  -7  -3 74.0505 4.27450   5
   1   7   3 72.0851 3.91790   2
   1   7   3 74.5488 4.29504   4
  -2  -7  -3 731.566 15.3566   5
  -2  -7  -3 670.428 15.2295   1
   2   7   3 746.107 14.7538   2
   2   7   3 754.143 15.6919   4
  -3  -7  -3 9.14381 2.47920   5
  -3  -7  -3 15.6473 3.57008   1
   3   7   3 19.2285 3.82817   4
   3   7   3 10.6496 2.20052   2
   3   7   3 6.88600 2.34487   1
  -4  -7  -3 8.24552 2.78365   5
  -4  -7  -3 7.07542 2.83778   1
   4   7   3 7.37852 2.97004   4
   4   7   3 8.69033 2.73760   1
   4   7   3 7.92875 2.30602   2
  -5  -7  -3 16.1046 3.29408   1
  -5  -7  -3 14.2710 3.27330   5
   5   7   3 7.63651 3.20786   1
   5   7   3 21.2497 5.30658   4
   5   7   3 19.4832 4.13550   2
  -6  -7  -3 6.19424 3.59946   5
   6   7   3 6.90270 3.61386   1
   6   7   3 11.2532 4.04680   4
  -7  -7  -3 61.6843 7.51740   5
   7   7   3 46.2060 7.27256   5
   7   7   3 71.6509 8.04745   4
   7   7   3 67.2990 8.03004   1
   6  -8  -3 37.0036 7.33479   2
   6  -8  -3 26.1541 6.90951   4
   6  -8  -3 15.3926 5.39674   1
  -6   8   3 20.8857 4.91601   3
  -6   8   3 24.0525 5.71356   2
   5  -8  -3 72.3419 6.98550   4
   5  -8  -3 87.7689 7.17852   2
   5  -8  -3 90.4131 7.72827   1
  -5   8   3 71.9326 6.50814   3
  -5   8   3 63.4254 7.36168   4
  -5   8   3 72.6471 7.67295   2
   4  -8  -3 40.8801 5.93089   1
   4  -8  -3 44.4450 5.89074   4
   4  -8  -3 43.4983 5.82970   2
   4  -8  -3 38.9526 4.38550   5
  -4   8   3 47.2221 6.09779   2
  -4   8   3 45.9357 5.24255   3
  -4   8   3 41.9102 5.87278   4
   3  -8  -3 96.3501 6.08433   4
   3  -8  -3 88.2957 4.98558   5
   3  -8  -3 96.6027 6.26917   1
  -3   8   3 101.348 4.90652   3
  -3   8   3 94.0038 6.25745   4
  -3   8   3 94.9251 6.29252   2
   2  -8  -3 866.897 17.6630   5
   2  -8  -3 877.075 18.6511   4
   2  -8  -3 879.615 18.8746   1
  -2   8   3 897.895 16.5610   3
  -2   8   3 887.744 18.7188   4
  -2   8   3 879.085 18.5762   2
   1  -8  -3 151.959 5.86353   5
   1  -8  -3 159.252 6.65549   1
   1  -8  -3 159.441 6.40494   4
  -1   8   3 160.078 6.50867   4
  -1   8   3 154.459 4.21915   3
  -1   8   3 147.902 6.18321   2
   0  -8  -3 20.5846 3.58062   1
   0  -8  -3 15.2948 3.72112   4
   0  -8  -3 19.4841 3.61381   5
   0   8   3 27.5138 3.95567   4
   0   8   3 24.0857 3.84714   2
  -1  -8  -3 216.776 7.18314   5
  -1  -8  -3 219.838 7.55313   1
   1   8   3 214.895 6.86585   2
   1   8   3 213.151 7.50253   4
  -2  -8  -3 20.7049 3.99255   5
  -2  -8  -3 17.2056 3.94615   1
   2   8   3 23.1940 3.62109   2
   2   8   3 29.9506 4.36700   4
  -3  -8  -3 1016.92 21.1152   1
  -3  -8  -3 1010.76 20.9219   5
   3   8   3 1018.23 20.0238   2
   3   8   3 1029.30 21.1416   1
   3   8   3 1033.74 21.5609   4
  -4  -8  -3 143.318 7.16317   1
  -4  -8  -3 151.175 7.39574   5
   4   8   3 143.425 7.13351   1
   4   8   3 152.457 6.16667   2
   4   8   3 148.961 7.72421   4
  -5  -8  -3 38.1880 5.94950   1
  -5  -8  -3 53.7016 6.19504   5
   5   8   3 32.2397 5.80923   1
   5   8   3 34.3086 6.31637   4
  -6  -8  -3 8.07720 4.05898   5
   6   8   3 18.0297 4.43385   4
   6   8   3 14.9512 4.24529   1
   5  -9  -3 208.870 10.2763   2
   5  -9  -3 225.788 10.3084   4
   5  -9  -3 225.165 11.3001   1
  -5   9   3 239.564 9.38288   3
  -5   9   3 226.632 10.9208   4
  -5   9   3 222.000 10.7588   2
   4  -9  -3 15.7309 3.30447   5
   4  -9  -3 10.2186 3.83113   4
   4  -9  -3 29.6298 6.86709   1
  -4   9   3 11.0717 3.34923   3
  -4   9   3 11.4478 3.87684   4
  -4   9   3 16.7559 4.28633   2
   3  -9  -3 93.6758 6.00710   5
   3  -9  -3 92.1352 6.69908   1
   3  -9  -3 88.9384 6.76753   4
  -3   9   3 103.295 6.85079   2
  -3   9   3 92.6949 5.02406   3
  -3   9   3 77.4859 6.62456   4
   2  -9  -3 131.606 6.12038   5
   2  -9  -3 118.247 7.01693   4
   2  -9  -3 135.547 7.39722   1
  -2   9   3 127.460 7.20798   2
  -2   9   3 128.188 7.10102   4
  -2   9   3 130.784 4.74975   3
   1  -9  -3 334.915 9.39618   5
   1  -9  -3 334.797 10.1592   4
   1  -9  -3 320.459 10.0676   1
  -1   9   3 333.641 9.82564   2
  -1   9   3 329.902 10.1862   4
   0  -9  -3 109.075 6.37090   1
   0  -9  -3 116.672 5.87348   5
   0   9   3 111.928 5.79842   2
   0   9   3 109.932 6.29730   4
  -1  -9  -3 35.2681 4.61557   5
  -1  -9  -3 38.3520 4.91723   1
   1   9   3 36.7268 4.51258   2
   1   9   3 34.2222 5.02487   4
  -2  -9  -3 3.96013 2.76212   1
  -2  -9  -3 0.86845 2.79251   5
   2   9   3 1.88274 2.88774   1
   2   9   3 3.97473 2.96584   4
   2   9   3 3.65624 2.57698   2
  -3  -9  -3 32.3163 5.37717   5
  -3  -9  -3 22.5626 5.19502   1
   3   9   3 26.7190 4.91889   2
   3   9   3 24.7184 5.28195   1
   3   9   3 29.1699 5.64987   4
  -4  -9  -3 482.550 13.5321   1
  -4  -9  -3 491.708 13.4169   5
   4   9   3 495.438 13.7477   1
   4   9   3 495.285 13.9963   4
   4   9   3 481.181 12.0039   2
  -5  -9  -3 49.5189 7.28888   1
  -5  -9  -3 66.7038 7.16630   5
   5   9   3 63.1138 7.57623   1
   5   9   3 50.6461 7.10532   4
  -6  -9  -3 -6.9871 4.59316   5
   6   9   3 -7.2886 4.14815   4
   6   9   3 3.91189 4.94019   1
   5 -10  -3 12.5039 6.02542   1
   5 -10  -3 28.9618 7.37574   4
  -5  10   3 30.5976 7.32473   3
  -5  10   3 11.3665 5.30376   4
  -5  10   3 11.8480 5.18632   2
   4 -10  -3 39.2828 7.31916   4
   4 -10  -3 44.2532 8.53237   1
  -4  10   3 34.9544 7.24719   2
  -4  10   3 30.0773 5.26053   4
   3 -10  -3 111.893 7.75171   4
   3 -10  -3 120.196 8.34013   1
   3 -10  -3 112.332 7.12768   5
  -3  10   3 114.116 8.04663   2
  -3  10   3 123.358 8.07290   4
   2 -10  -3 2.41262 3.54930   1
   2 -10  -3 -1.0636 2.98662   4
   2 -10  -3 1.13770 3.03893   5
  -2  10   3 4.54217 3.56104   2
  -2  10   3 4.43088 3.35746   4
   1 -10  -3 95.7928 6.23392   5
   1 -10  -3 78.8332 6.70889   1
   1 -10  -3 90.8965 6.66312   4
  -1  10   3 104.107 6.74501   2
  -1  10   3 93.0053 6.56454   4
   0 -10  -3 233.576 8.90912   5
   0 -10  -3 242.379 9.15962   1
   0  10   3 236.678 9.01795   4
   0  10   3 235.127 8.54597   2
  -1 -10  -3 32.7745 5.33510   5
  -1 -10  -3 43.3399 5.83414   1
   1  10   3 40.0301 5.08635   2
   1  10   3 40.5863 5.40792   4
  -2 -10  -3 73.2252 6.19088   5
  -2 -10  -3 66.0380 6.54003   1
   2  10   3 64.5913 5.80035   2
   2  10   3 73.8980 6.80897   1
   2  10   3 58.6810 6.46539   4
  -3 -10  -3 333.121 11.2256   1
  -3 -10  -3 336.847 11.2501   5
   3  10   3 338.089 11.6083   1
   3  10   3 322.526 10.1076   2
   3  10   3 328.036 11.3404   4
  -4 -10  -3 2.43098 3.58231   5
  -4 -10  -3 -0.2602 3.57002   1
   4  10   3 7.76629 4.41118   1
   4  10   3 9.62542 3.99695   4
  -5 -10  -3 6.81712 4.51192   1
  -5 -10  -3 6.82132 3.92282   5
   5  10   3 -0.0795 4.94403   1
   5  10   3 1.30527 4.05564   4
   4 -11  -3 5.54800 5.56732   1
   4 -11  -3 6.86515 4.62248   4
  -4  11   3 1.01819 4.71385   2
  -4  11   3 10.1934 4.85601   4
   3 -11  -3 5.78379 5.25854   1
   3 -11  -3 -3.1146 3.90269   4
   3 -11  -3 4.57621 3.64578   5
  -3  11   3 5.67800 4.35408   4
  -3  11   3 0.20365 4.02693   2
   2 -11  -3 -1.0529 3.23985   5
   2 -11  -3 2.20682 3.92026   4
   2 -11  -3 4.80834 4.35757   1
  -2  11   3 -3.4078 3.73168   4
  -2  11   3 4.18430 3.94845   2
   1 -11  -3 62.9628 7.01402   4
   1 -11  -3 80.0988 6.79070   5
   1 -11  -3 65.3953 7.38165   1
  -1  11   3 76.4017 7.24337   2
  -1  11   3 65.7270 6.86507   4
   0 -11  -3 108.845 7.86435   5
   0 -11  -3 120.366 7.84046   1
   0  11   3 108.686 7.50252   4
   0  11   3 116.880 7.88278   2
  -1 -11  -3 79.6866 6.99660   5
  -1 -11  -3 81.7522 7.18092   1
   1  11   3 96.2486 6.92628   2
   1  11   3 92.9477 7.30857   4
  -2 -11  -3 7.27207 3.83483   5
  -2 -11  -3 6.01295 3.78530   1
   2  11   3 14.4451 4.41015   1
   2  11   3 1.97155 3.50150   2
   2  11   3 5.38950 3.77865   4
  -3 -11  -3 11.0944 4.12498   5
  -3 -11  -3 15.6521 4.39462   1
   3  11   3 22.8622 5.91786   2
   3  11   3 10.4478 4.87773   1
   3  11   3 18.6969 4.64229   4
  -4 -11  -3 141.887 9.10877   5
  -4 -11  -3 151.423 9.18832   1
   4  11   3 136.729 10.3445   1
   4  11   3 146.104 9.17950   4
   2 -12  -3 56.9755 9.54052   1
   2 -12  -3 74.8921 7.34621   5
   2 -12  -3 49.2842 7.90836   4
  -2  12   3 53.7065 8.44132   4
  -2  12   3 71.8780 7.94697   2
   1 -12  -3 -0.9683 4.65017   1
   1 -12  -3 1.59016 4.16507   4
   1 -12  -3 4.07355 4.38957   5
  -1  12   3 12.5384 4.46082   4
  -1  12   3 4.41247 4.32603   2
   0 -12  -3 17.9126 5.10019   5
   0 -12  -3 9.53648 4.71689   1
   0  12   3 10.4064 4.50921   2
   0  12   3 9.67035 4.30694   4
  -1 -12  -3 0.74140 4.12193   1
  -1 -12  -3 6.26298 4.57816   5
   1  12   3 14.9008 4.30521   2
   1  12   3 9.45641 4.13431   4
  -2 -12  -3 12.9733 5.05260   1
  -2 -12  -3 14.8730 4.63683   5
   2  12   3 30.9165 6.95683   2
   2  12   3 32.2187 8.27174   1
   2  12   3 19.7669 4.78347   4
  -3 -12  -3 -1.0187 4.60600   1
  -3 -12  -3 7.50509 4.43589   5
   3  12   3 14.8005 5.07955   4
   3  12   3 11.4590 5.64675   1
   2  11  -4 7.96340 4.32635   4
   2  11  -4 -6.6742 4.28134   1
   2  11  -4 -0.4494 4.29798   5
  -2 -11   4 -4.3343 4.81363   5
  -2 -11   4 -3.1201 5.34613   1
   1  11  -4 49.8499 7.24361   5
   1  11  -4 37.1561 7.66283   4
   1  11  -4 45.8947 7.64413   1
  -1 -11   4 47.9003 8.14955   5
  -1 -11   4 50.9418 8.94031   1
   0  11  -4 -6.2272 4.33887   1
   0  11  -4 -0.4282 4.06071   4
   0  11  -4 -1.2014 4.31281   5
   0  11  -4 -0.0702 3.54911   2
   0 -11   4 -1.7358 4.59903   1
   0 -11   4 -5.2754 4.31974   5
   0 -11   4 -2.9929 4.02222   4
  -1  11  -4 -7.2973 4.39308   1
  -1  11  -4 9.63148 4.39571   5
  -1  11  -4 -0.4071 4.18600   2
  -1  11  -4 0.29470 4.35284   4
   1 -11   4 -0.7816 4.07006   4
   1 -11   4 -4.4920 3.97168   5
   1 -11   4 5.67575 4.15834   2
   1 -11   4 10.1221 4.67311   1
  -2  11  -4 33.6474 5.54970   1
  -2  11  -4 23.1030 5.25977   2
  -2  11  -4 28.2474 6.90170   5
  -2  11  -4 30.2432 7.98247   4
   2 -11   4 29.5631 7.72495   2
   2 -11   4 27.8420 5.58570   4
   2 -11   4 26.0347 5.14561   1
   4  10  -4 15.9584 4.90655   1
   4  10  -4 10.9728 4.55031   5
  -4 -10   4 10.0579 4.40032   5
   3  10  -4 319.994 11.8661   1
   3  10  -4 330.992 14.8844   4
   3  10  -4 313.486 11.5649   5
  -3 -10   4 308.916 11.8799   5
  -3 -10   4 320.987 12.7217   1
   2  10  -4 46.9626 6.84643   5
   2  10  -4 46.5461 7.17987   1
   2  10  -4 39.9392 6.49321   4
  -2 -10   4 53.1509 8.05867   1
  -2 -10   4 51.2480 7.51717   5
   1  10  -4 4.89235 3.88064   1
   1  10  -4 0.91691 3.73754   4
   1  10  -4 5.87984 3.78231   5
  -1 -10   4 7.08501 4.29751   1
  -1 -10   4 2.35063 3.71876   5
   0  10  -4 -1.2495 3.17672   2
   0  10  -4 -1.0921 3.11645   3
   0  10  -4 -4.5471 3.34092   5
   0  10  -4 6.93428 3.52861   4
   0  10  -4 1.74444 3.60047   1
   0 -10   4 0.66887 3.24060   4
   0 -10   4 -5.4062 3.36691   2
   0 -10   4 -0.0489 3.58551   1
   0 -10   4 -0.0132 3.40178   5
   0 -10   4 4.25610 3.48113   3
  -1  10  -4 136.551 7.79419   4
  -1  10  -4 153.473 7.62112   5
  -1  10  -4 130.488 7.31430   2
  -1  10  -4 130.217 8.02238   1
  -1  10  -4 148.377 7.29273   3
   1 -10   4 128.000 7.84114   1
   1 -10   4 135.337 7.46116   4
   1 -10   4 130.417 7.68560   3
   1 -10   4 128.922 7.19590   5
   1 -10   4 140.950 7.26034   2
  -2  10  -4 76.3724 6.71758   3
  -2  10  -4 88.7748 7.35436   1
  -2  10  -4 88.2561 7.53703   2
  -2  10  -4 73.3650 7.63199   4
  -2  10  -4 74.8709 6.91878   5
   2 -10   4 79.3086 7.00010   1
   2 -10   4 81.0228 7.68572   5
   2 -10   4 74.5303 6.88416   3
   2 -10   4 85.0788 7.38084   2
   2 -10   4 83.3331 7.54261   4
  -3  10  -4 8.68143 3.87011   1
  -3  10  -4 13.1378 4.58291   2
  -3  10  -4 7.17249 4.27959   3
  -3  10  -4 34.3669 7.31833   4
   3 -10   4 5.92504 4.17686   1
   3 -10   4 7.80092 4.88947   2
   3 -10   4 1.21664 4.85463   4
   5   9  -4 6.60979 5.03051   5
   5   9  -4 11.4662 4.74119   1
  -5  -9   4 4.70182 4.17118   5
   4   9  -4 8.51313 4.13444   1
   4   9  -4 4.13803 3.87432   5
  -4  -9   4 3.04457 3.80026   5
   3   9  -4 6.20176 3.62879   5
   3   9  -4 -1.7586 3.48196   1
   3   9  -4 4.48478 3.17671   4
  -3  -9   4 4.55435 3.97494   1
  -3  -9   4 5.92567 3.63365   5
  -3  -9   4 9.09056 3.68380   3
   2   9  -4 370.188 11.3414   5
   2   9  -4 365.504 10.7171   4
   2   9  -4 372.850 11.5930   1
  -2  -9   4 358.876 10.4015   3
  -2  -9   4 368.652 11.3619   5
  -2  -9   4 389.239 12.0055   1
   1   9  -4 37.9450 5.46723   4
   1   9  -4 37.2856 5.71211   1
   1   9  -4 46.5233 4.44719   2
   1   9  -4 40.6975 5.41653   5
  -1  -9   4 35.7198 5.92324   1
  -1  -9   4 28.6327 5.37625   3
  -1  -9   4 33.8690 5.53261   5
   0   9  -4 16.9784 3.49166   4
   0   9  -4 18.7397 4.51580   3
   0   9  -4 18.9998 4.49333   2
   0   9  -4 25.2901 5.52543   5
   0   9  -4 21.4653 3.99369   1
   0  -9   4 19.8095 4.98522   3
   0  -9   4 24.7032 5.07543   2
   0  -9   4 25.8865 5.25856   5
   0  -9   4 15.9205 3.63386   4
   0  -9   4 20.2167 5.42601   1
  -1   9  -4 57.0767 5.63965   5
  -1   9  -4 38.8129 5.64840   1
  -1   9  -4 43.9626 5.39674   2
  -1   9  -4 43.0625 5.17408   3
  -1   9  -4 38.8788 5.55111   4
   1  -9   4 43.0462 5.73378   1
   1  -9   4 38.7480 5.79419   4
   1  -9   4 36.5555 5.30410   2
   1  -9   4 44.6257 5.39445   5
   1  -9   4 40.3252 5.49275   3
  -2   9  -4 245.962 8.98062   3
  -2   9  -4 252.565 8.48078   5
  -2   9  -4 252.822 9.38379   4
  -2   9  -4 253.862 8.77380   1
  -2   9  -4 241.678 9.08350   2
   2  -9   4 257.803 9.20607   2
   2  -9   4 245.137 9.18922   4
   2  -9   4 250.193 9.17658   1
   2  -9   4 238.691 8.75518   5
   2  -9   4 247.634 9.08097   3
  -3   9  -4 0.24248 3.45144   1
  -3   9  -4 -0.5123 3.33617   3
  -3   9  -4 -0.7938 3.68381   2
  -3   9  -4 -0.3156 3.56839   4
   3  -9   4 -0.2131 3.84670   2
   3  -9   4 2.34191 4.00358   4
   3  -9   4 0.51742 3.66419   1
  -4   9  -4 2.13230 4.10381   3
  -4   9  -4 8.14964 4.11508   2
   4  -9   4 11.4440 4.90146   4
   4  -9   4 0.70737 4.50194   2
   5   8  -4 10.1211 4.31691   1
   5   8  -4 17.0908 4.63353   5
  -5  -8   4 11.6962 4.48623   3
  -5  -8   4 10.7915 4.02851   5
   4   8  -4 25.2353 5.92673   5
   4   8  -4 35.7255 6.43777   1
   4   8  -4 35.1615 5.04087   4
  -4  -8   4 27.2307 5.73693   5
  -4  -8   4 28.5050 6.28997   3
   3   8  -4 54.8391 5.03796   4
   3   8  -4 61.1963 5.83524   5
   3   8  -4 61.4660 6.04455   1
  -3  -8   4 57.1022 6.03558   5
  -3  -8   4 64.7796 6.42072   1
  -3  -8   4 66.1942 6.11270   3
   2   8  -4 16.2299 2.88186   4
   2   8  -4 12.8291 3.27690   5
   2   8  -4 14.0779 3.37526   1
  -2  -8   4 20.9997 5.50722   1
  -2  -8   4 13.8277 3.32577   5
  -2  -8   4 19.7035 4.50826   3
   1   8  -4 43.5722 3.66300   2
   1   8  -4 40.5107 4.89999   1
   1   8  -4 25.3988 4.28917   4
   1   8  -4 50.0627 5.22129   5
  -1  -8   4 40.6933 4.67613   5
  -1  -8   4 34.8309 4.57922   3
  -1  -8   4 34.3154 3.73302   2
  -1  -8   4 45.3749 5.13417   1
   0   8  -4 4.55707 2.48472   5
   0   8  -4 3.80454 2.30842   2
   0   8  -4 4.46739 2.56554   1
   0   8  -4 8.43715 2.68629   4
   0   8  -4 5.18245 2.21720   3
   0  -8   4 4.79518 2.46673   1
   0  -8   4 5.18296 2.73113   4
   0  -8   4 3.92806 2.39724   2
   0  -8   4 4.40196 2.63750   3
   0  -8   4 6.07610 2.49224   5
  -1   8  -4 50.6270 4.88225   4
  -1   8  -4 50.8364 4.79260   2
  -1   8  -4 57.6131 5.22979   1
  -1   8  -4 50.0063 4.86397   5
  -1   8  -4 56.3262 4.75974   3
   1  -8   4 51.3077 4.91814   4
   1  -8   4 42.9885 4.77300   5
   1  -8   4 58.1267 5.01248   3
   1  -8   4 45.7965 4.91713   2
   1  -8   4 53.7985 5.06592   1
  -2   8  -4 594.756 14.2925   4
  -2   8  -4 609.339 13.9094   1
  -2   8  -4 606.720 14.3111   3
  -2   8  -4 603.495 14.3406   2
  -2   8  -4 606.980 13.2969   5
   2  -8   4 615.361 14.4505   4
   2  -8   4 591.716 13.9881   1
   2  -8   4 606.942 14.3467   3
   2  -8   4 602.049 13.4848   5
   2  -8   4 598.871 14.2952   2
  -3   8  -4 112.347 6.94336   3
  -3   8  -4 115.505 7.07629   2
   3  -8   4 112.129 6.91308   4
   3  -8   4 114.174 7.08523   3
   3  -8   4 109.628 6.61347   1
   3  -8   4 112.776 7.03635   2
  -4   8  -4 3.85090 3.48115   3
  -4   8  -4 4.50128 3.59234   2
   4  -8   4 5.99725 3.97447   2
   4  -8   4 5.47708 3.94382   4
  -5   8  -4 7.11633 4.21496   3
  -5   8  -4 1.45939 4.49392   2
   5  -8   4 17.5253 5.06306   2
   5  -8   4 1.97599 4.61058   4
   6   7  -4 60.3287 8.87083   1
   6   7  -4 78.5169 8.16234   5
  -6  -7   4 79.5006 7.75772   5
  -6  -7   4 76.4065 7.27286   3
   5   7  -4 19.7105 4.41853   5
   5   7  -4 24.6147 6.06199   1
  -5  -7   4 22.8921 5.54763   5
  -5  -7   4 15.8825 3.84932   3
   4   7  -4 1.34120 2.99953   1
   4   7  -4 -1.2257 2.34491   4
   4   7  -4 -0.7018 2.88426   5
  -4  -7   4 3.38126 2.96551   5
  -4  -7   4 0.35556 3.01326   3
   3   7  -4 90.1001 6.22417   1
   3   7  -4 92.1262 6.16798   5
   3   7  -4 81.8906 4.68365   4
  -3  -7   4 83.6014 6.43223   1
  -3  -7   4 97.9984 6.27375   5
  -3  -7   4 92.7147 5.77358   3
   2   7  -4 140.858 6.49366   1
   2   7  -4 135.167 6.33329   5
   2   7  -4 140.652 4.27763   2
   2   7  -4 137.507 5.48859   4
  -2  -7   4 133.731 6.31102   5
  -2  -7   4 145.987 5.92659   3
  -2  -7   4 132.871 6.35545   1
   1   7  -4 36.4391 3.77412   4
   1   7  -4 42.1622 3.07061   2
   1   7  -4 39.4250 4.30404   1
   1   7  -4 35.8264 4.14259   5
  -1  -7   4 39.5391 3.72226   4
  -1  -7   4 33.9896 3.03915   2
  -1  -7   4 32.1276 4.11604   1
  -1  -7   4 36.1302 3.95228   5
  -1  -7   4 37.4701 3.95380   3
   0   7  -4 60.8576 4.15511   3
   0   7  -4 55.0222 3.74333   2
   0   7  -4 58.4624 4.34334   1
   0   7  -4 51.9457 4.36120   5
   0   7  -4 56.5477 4.04200   4
   0  -7   4 55.4523 4.16855   5
   0  -7   4 50.2599 3.68979   2
   0  -7   4 53.9680 4.28043   1
   0  -7   4 53.6434 4.00490   4
   0  -7   4 55.8933 4.14688   3
  -1   7  -4 1.19358 1.94983   3
  -1   7  -4 4.02316 2.10199   2
  -1   7  -4 7.14006 2.06326   4
  -1   7  -4 2.64614 2.02728   5
  -1   7  -4 2.76142 2.24097   1
   1  -7   4 1.68104 2.17737   4
   1  -7   4 4.50958 2.13416   2
   1  -7   4 3.17500 2.12049   5
   1  -7   4 4.04934 2.08691   3
   1  -7   4 6.50615 2.41657   1
  -2   7  -4 -1.2809 2.25621   2
  -2   7  -4 2.52274 1.99479   5
  -2   7  -4 1.88835 2.24714   1
  -2   7  -4 4.78015 2.42987   3
   2  -7   4 -0.6447 2.20286   1
   2  -7   4 4.63114 2.40579   4
   2  -7   4 -0.0374 2.39811   3
   2  -7   4 -3.2141 2.22098   2
   2  -7   4 4.49503 2.13281   5
  -3   7  -4 874.069 18.6689   3
  -3   7  -4 848.468 18.7114   2
  -3   7  -4 880.055 16.4331   5
   3  -7   4 848.682 16.4477   5
   3  -7   4 855.957 17.4787   1
   3  -7   4 845.533 18.4654   3
   3  -7   4 849.693 18.5504   4
   3  -7   4 865.815 18.8351   2
  -4   7  -4 0.97303 3.25551   2
  -4   7  -4 0.07369 3.18762   3
   4  -7   4 -3.9281 2.60852   1
   4  -7   4 4.96159 3.40514   4
  -5   7  -4 7.15695 3.78585   3
  -5   7  -4 2.44141 4.09135   2
   5  -7   4 4.13660 3.93155   2
   5  -7   4 8.36445 4.16222   4
  -6   7  -4 12.9303 4.53610   3
  -6   7  -4 13.8566 5.03017   2
   6  -7   4 14.5097 5.19518   4
   6  -7   4 16.5884 4.74511   2
   6   6  -4 3.00466 4.29739   1
   6   6  -4 2.04561 3.88792   5
  -6  -6   4 5.81671 3.76816   3
  -6  -6   4 6.50636 3.91675   5
   5   6  -4 245.880 9.44507   1
   5   6  -4 264.591 7.69029   4
   5   6  -4 249.564 9.15018   5
  -5  -6   4 253.216 9.07304   5
  -5  -6   4 255.857 8.99317   3
   4   6  -4 53.7118 4.09460   4
   4   6  -4 57.2056 5.66055   5
   4   6  -4 51.6843 5.65510   1
  -4  -6   4 62.4485 5.24012   3
  -4  -6   4 59.0445 5.50649   5
   3   6  -4 346.839 9.83673   5
   3   6  -4 356.596 10.1210   1
   3   6  -4 353.122 8.37533   4
  -3  -6   4 343.989 9.80481   5
  -3  -6   4 362.484 9.42601   3
   2   6  -4 93.4844 3.25497   2
   2   6  -4 97.0683 5.06368   5
   2   6  -4 95.1518 5.08350   1
   2   6  -4 101.221 4.13547   4
  -2  -6   4 109.895 4.90109   3
  -2  -6   4 98.4062 5.02911   1
  -2  -6   4 99.4031 4.97216   5
   1   6  -4 1221.05 23.0556   5
   1   6  -4 1220.24 21.5183   2
   1   6  -4 1228.95 22.2757   4
   1   6  -4 1202.99 23.1223   1
  -1  -6   4 1244.92 22.3197   4
  -1  -6   4 1227.65 23.1444   5
  -1  -6   4 1226.43 21.5557   2
  -1  -6   4 1229.47 22.8165   3
  -1  -6   4 1184.79 23.1421   1
   0   6  -4 30.9193 3.26544   1
   0   6  -4 30.5455 2.99827   4
   0   6  -4 26.7787 2.74724   2
   0   6  -4 28.9493 3.26244   5
   0  -6   4 28.9927 2.80890   2
   0  -6   4 26.5860 3.32048   3
   0  -6   4 31.3483 3.27884   1
   0  -6   4 34.1536 3.45332   5
   0  -6   4 27.0418 3.04947   4
  -1   6  -4 74.2556 3.79727   5
  -1   6  -4 75.6194 4.38159   3
  -1   6  -4 77.8227 4.00167   4
  -1   6  -4 76.8127 4.04056   2
  -1   6  -4 70.2992 3.83804   1
   1  -6   4 76.9599 4.08340   2
   1  -6   4 75.1569 3.97654   1
   1  -6   4 79.8056 3.90873   5
   1  -6   4 74.6888 4.34661   3
   1  -6   4 75.9907 4.00177   4
  -2   6  -4 18.3712 3.35036   2
  -2   6  -4 11.8718 2.20928   1
  -2   6  -4 14.0104 3.37794   3
  -2   6  -4 14.3017 2.73175   5
   2  -6   4 18.8365 2.79980   5
   2  -6   4 19.2042 3.41262   3
   2  -6   4 11.8868 2.33826   4
   2  -6   4 12.1929 2.84336   1
   2  -6   4 11.8916 3.08552   2
  -3   6  -4 25.9087 2.88917   5
  -3   6  -4 26.1780 4.29916   3
   3  -6   4 25.4635 3.01032   5
   3  -6   4 27.8178 4.17442   3
   3  -6   4 22.9395 4.02832   4
   3  -6   4 25.5860 4.38043   2
   3  -6   4 26.3990 3.45925   1
  -4   6  -4 94.9836 6.66598   3
   4  -6   4 88.2023 6.20036   2
   4  -6   4 99.9952 4.95165   1
   4  -6   4 86.0945 6.37501   4
  -5   6  -4 25.1421 5.85507   2
  -5   6  -4 26.0054 5.97949   3
   5  -6   4 26.0380 5.57349   2
   5  -6   4 26.6835 4.47090   4
  -6   6  -4 33.6083 7.72863   2
  -6   6  -4 32.7200 7.11370   3
   6  -6   4 33.9542 6.99025   4
   6  -6   4 38.3636 7.26369   2
   7   5  -4 72.0065 9.24395   1
   7   5  -4 77.2476 7.05968   5
  -7  -5   4 103.388 7.96635   5
  -7  -5   4 83.0302 8.95729   3
   6   5  -4 30.9826 6.71607   1
   6   5  -4 32.8176 5.52878   5
  -6  -5   4 40.8869 5.89992   3
  -6  -5   4 37.2017 5.77812   5
   5   5  -4 7.73909 3.18229   1
   5   5  -4 6.84916 2.31050   4
   5   5  -4 8.06280 3.11088   5
  -5  -5   4 9.82201 3.13096   3
  -5  -5   4 6.29535 3.00411   5
   4   5  -4 171.981 7.23462   1
   4   5  -4 158.776 6.54792   5
   4   5  -4 167.498 5.30574   4
  -4  -5   4 165.018 6.64402   5
  -4  -5   4 176.615 6.72690   3
   3   5  -4 174.541 6.39916   1
   3   5  -4 176.594 5.05881   4
   3   5  -4 169.835 6.16011   5
  -3  -5   4 169.038 6.20202   5
  -3  -5   4 169.111 6.03535   3
   2   5  -4 53.9254 3.63278   5
   2   5  -4 59.7343 2.96267   4
   2   5  -4 64.2449 2.28582   2
   2   5  -4 55.7028 4.00080   1
  -2  -5   4 66.6941 3.76113   3
  -2  -5   4 53.2874 3.73840   5
  -2  -5   4 62.4538 4.00283   1
   1   5  -4 508.354 11.2133   1
   1   5  -4 506.134 11.1983   5
   1   5  -4 525.278 10.4662   4
   1   5  -4 524.660 9.92457   2
  -1  -5   4 521.559 10.4557   4
  -1  -5   4 507.278 11.1965   1
  -1  -5   4 503.973 11.2151   5
  -1  -5   4 524.501 9.92937   2
  -1  -5   4 512.915 11.1230   3
   0   5  -4 81.1026 3.72472   5
   0   5  -4 81.9280 3.39189   4
   0   5  -4 85.9184 3.66391   1
   0   5  -4 83.2360 3.31571   2
   0  -5   4 89.3114 3.78491   1
   0  -5   4 85.5424 3.98026   3
   0  -5   4 76.6687 3.73660   5
   0  -5   4 85.3356 3.47136   4
   0  -5   4 90.1297 3.37137   2
  -1   5  -4 129.480 4.23779   5
  -1   5  -4 127.349 4.85103   3
  -1   5  -4 128.391 4.26705   1
   1  -5   4 136.626 4.56443   4
   1  -5   4 131.509 4.34299   1
   1  -5   4 128.945 4.93478   3
   1  -5   4 133.976 4.39943   5
   1  -5   4 136.116 4.64652   2
  -2   5  -4 63.6940 4.16262   3
  -2   5  -4 65.5566 3.06601   5
   2  -5   4 68.3203 4.14058   2
   2  -5   4 68.7273 4.17394   3
   2  -5   4 68.0377 3.26676   1
   2  -5   4 64.5431 3.78825   4
   2  -5   4 70.7035 3.19095   5
  -3   5  -4 923.198 16.3207   5
  -3   5  -4 928.395 18.8462   3
   3  -5   4 913.785 18.7956   3
   3  -5   4 921.155 16.9866   1
   3  -5   4 893.659 16.2825   5
   3  -5   4 900.210 18.4977   2
   3  -5   4 913.488 18.4335   4
  -4   5  -4 22.7395 4.70139   3
   4  -5   4 20.2129 4.20936   4
   4  -5   4 14.3923 3.20505   1
   4  -5   4 15.7111 3.35394   2
  -5   5  -4 126.847 7.01996   3
   5  -5   4 128.486 7.22697   2
   5  -5   4 121.990 7.18661   4
  -6   5  -4 4.28772 3.70775   3
   6  -5   4 -1.7956 3.78665   4
   6  -5   4 1.95899 3.47479   2
  -7   5  -4 1.35962 4.54655   3
  -7   5  -4 -1.4879 5.11784   2
   7  -5   4 -0.7119 4.32292   4
   7  -5   4 -4.8886 4.30239   2
   7   4  -4 26.4783 6.03226   5
   7   4  -4 21.9950 5.14039   1
  -7  -4   4 33.3538 6.32475   5
  -7  -4   4 30.0882 8.02149   3
   6   4  -4 109.322 5.56777   4
   6   4  -4 106.182 6.96600   1
   6   4  -4 107.904 6.63987   5
  -6  -4   4 95.9207 6.51083   5
  -6  -4   4 101.235 6.99816   3
   5   4  -4 14.4786 3.24791   4
   5   4  -4 22.3070 4.11949   5
   5   4  -4 25.5814 5.03886   1
  -5  -4   4 18.0148 3.22922   3
  -5  -4   4 15.2783 2.89789   5
   4   4  -4 3.66305 1.97234   5
   4   4  -4 -0.5440 1.55618   4
   4   4  -4 0.81501 2.09451   1
  -4  -4   4 1.86370 2.12497   3
  -4  -4   4 1.64017 1.96805   5
   3   4  -4 483.111 11.2445   1
   3   4  -4 462.821 10.9687   5
   3   4  -4 516.640 9.72451   4
  -3  -4   4 466.619 10.9490   5
  -3  -4   4 499.472 11.1394   3
   2   4  -4 481.807 9.27798   4
   2   4  -4 481.282 10.5984   5
   2   4  -4 465.974 10.6374   1
  -2  -4   4 487.736 10.5243   3
  -2  -4   4 473.072 10.5717   5
   1   4  -4 1112.29 19.7295   4
   1   4  -4 1150.58 20.7856   1
   1   4  -4 1113.54 20.7523   5
  -1  -4   4 1138.02 20.8730   3
  -1  -4   4 1126.70 19.7586   4
  -1  -4   4 1140.44 20.8039   1
  -1  -4   4 1140.26 19.4174   2
  -1  -4   4 1132.87 20.8090   5
   0   4  -4 459.378 9.16374   4
   0   4  -4 443.898 9.48165   1
   0   4  -4 448.518 9.60936   5
   0  -4   4 470.111 9.24916   2
   0  -4   4 473.207 9.24795   4
   0  -4   4 457.568 9.65788   5
   0  -4   4 465.837 9.62276   1
   0  -4   4 465.730 10.0081   3
  -1   4  -4 810.684 15.9075   3
  -1   4  -4 815.229 14.9912   1
  -1   4  -4 822.436 15.1145   5
   1  -4   4 804.979 15.8837   3
   1  -4   4 820.851 15.2864   4
   1  -4   4 810.487 15.4044   2
   1  -4   4 813.229 15.0094   1
   1  -4   4 821.572 15.1164   5
  -2   4  -4 198.791 6.20723   3
  -2   4  -4 206.298 4.99081   5
   2  -4   4 206.586 5.03929   5
   2  -4   4 195.129 5.92810   2
   2  -4   4 204.380 5.10210   1
   2  -4   4 201.209 5.79202   4
   2  -4   4 197.529 6.15019   3
  -3   4  -4 83.4372 4.52365   3
  -3   4  -4 89.6118 2.88031   5
   3  -4   4 81.5329 4.59228   3
   3  -4   4 85.0075 3.30532   1
   3  -4   4 90.0319 4.54010   2
   3  -4   4 91.1036 4.58566   4
  -4   4  -4 1081.05 21.6577   3
   4  -4   4 1061.40 18.9545   1
   4  -4   4 1052.18 21.2166   2
   4  -4   4 1054.84 21.1853   4
  -5   4  -4 -3.8392 2.82484   3
   5  -4   4 0.71887 2.98625   2
   5  -4   4 -0.0801 2.81255   4
  -6   4  -4 117.140 7.61511   3
   6  -4   4 120.084 7.42145   4
   6  -4   4 122.589 7.18475   2
  -7   4  -4 26.0210 5.03043   3
   7  -4   4 32.5116 6.61731   2
   7  -4   4 34.1729 7.28400   4
   7   3  -4 61.2089 7.83483   1
   7   3  -4 69.5263 6.36916   5
  -7  -3   4 53.5811 7.64561   3
   6   3  -4 2.45953 2.79070   5
   6   3  -4 0.89222 2.36437   4
   6   3  -4 -4.9077 3.00265   1
  -6  -3   4 2.73202 2.72182   5
  -6  -3   4 2.19114 3.05616   3
   5   3  -4 5.36507 2.34271   5
   5   3  -4 2.91184 2.56346   1
   5   3  -4 7.87177 1.94642   4
  -5  -3   4 0.36289 2.44674   3
  -5  -3   4 2.75749 2.26077   5
   4   3  -4 776.758 16.0462   1
   4   3  -4 725.937 15.3818   5
   4   3  -4 778.591 14.1022   4
  -4  -3   4 756.934 15.8192   3
  -4  -3   4 727.084 15.3761   5
   3   3  -4 380.571 9.08689   5
   3   3  -4 390.994 9.36599   1
   3   3  -4 404.900 7.81025   4
  -3  -3   4 381.814 9.14109   5
  -3  -3   4 395.029 9.31917   3
   2   3  -4 133.029 4.50071   5
   2   3  -4 135.872 4.63065   1
   2   3  -4 150.251 3.51010   4
  -2  -3   4 138.683 4.54444   5
  -2  -3   4 147.056 4.74652   3
   1   3  -4 941.331 16.1290   4
   1   3  -4 933.211 17.2239   1
   1   3  -4 932.949 17.3050   5
  -1  -3   4 940.563 17.4959   3
  -1  -3   4 949.749 16.0766   2
  -1  -3   4 926.002 17.2668   5
   0   3  -4 414.250 8.53739   1
   0   3  -4 429.604 8.80792   5
   0  -3   4 421.472 8.58414   1
   0  -3   4 423.533 8.40921   2
   0  -3   4 428.492 8.82495   5
   0  -3   4 428.831 9.20307   3
   0  -3   4 438.346 8.23547   4
  -1   3  -4 31.2793 2.03325   5
  -1   3  -4 30.4955 2.48111   3
  -1   3  -4 30.5762 1.83070   1
   1  -3   4 29.9563 2.47319   3
   1  -3   4 31.7129 1.88901   1
   1  -3   4 32.1269 2.09671   4
   1  -3   4 29.5046 2.03892   5
   1  -3   4 28.9070 2.21223   2
  -2   3  -4 254.187 6.86840   3
  -2   3  -4 257.587 5.41009   1
  -2   3  -4 264.264 5.54581   5
   2  -3   4 250.529 6.78582   3
   2  -3   4 258.403 5.46233   1
   2  -3   4 256.390 6.59737   2
   2  -3   4 256.146 6.34296   4
  -3   3  -4 3.40774 0.95131   5
  -3   3  -4 1.69641 1.79399   3
   3  -3   4 0.72916 1.06603   1
   3  -3   4 1.64071 1.50907   4
   3  -3   4 1.72184 1.65136   3
   3  -3   4 0.79866 1.61935   2
  -4   3  -4 133.710 5.72768   3
   4  -3   4 128.373 3.76386   1
   4  -3   4 130.189 5.36565   4
   4  -3   4 117.172 5.29678   2
  -5   3  -4 126.132 6.54782   3
   5  -3   4 128.170 6.38377   4
   5  -3   4 129.873 6.24181   2
  -6   3  -4 14.4607 3.60806   3
   6  -3   4 22.6834 5.31804   4
   6  -3   4 22.4970 5.00758   2
  -7   3  -4 -1.9632 3.81708   3
   7  -3   4 -1.7237 3.69133   4
   7  -3   4 2.83606 3.89379   2
   8   2  -4 8.81993 5.58760   1
  -8  -2   4 18.8904 5.83950   3
   7   2  -4 6.60620 3.25241   4
   7   2  -4 2.55927 3.41945   5
   7   2  -4 3.43128 3.91838   1
  -7  -2   4 5.84086 4.37058   3
   6   2  -4 79.0854 6.25666   1
   6   2  -4 82.7506 4.82479   4
   6   2  -4 73.6212 5.50301   5
  -6  -2   4 67.2075 6.23533   3
   5   2  -4 50.5031 3.47820   4
   5   2  -4 49.9942 3.97910   5
   5   2  -4 42.9270 4.40777   1
  -5  -2   4 48.6692 4.71836   3
   4   2  -4 4.82998 1.70220   5
   4   2  -4 3.87665 1.90261   1
   4   2  -4 7.64578 2.01235   4
  -4  -2   4 2.86490 1.75729   5
  -4  -2   4 6.05950 2.17253   3
   3   2  -4 555.092 10.0531   4
   3   2  -4 538.044 11.7222   1
   3   2  -4 556.509 11.4484   5
  -3  -2   4 546.327 11.4293   5
  -3  -2   4 545.370 11.7045   3
   2   2  -4 236.376 5.93568   5
   2   2  -4 231.070 6.02341   1
   2   2  -4 238.945 4.56268   4
  -2  -2   4 238.205 6.16253   3
  -2  -2   4 238.859 5.96613   5
   1   2  -4 159.872 3.15987   4
   1   2  -4 155.100 4.31126   5
   1   2  -4 159.217 4.27905   1
   1   2  -4 149.547 3.05677   4
  -1  -2   4 154.977 3.45593   2
  -1  -2   4 157.886 4.57586   3
  -1  -2   4 155.131 4.30702   5
   0   2  -4 112.057 3.16639   1
   0   2  -4 112.708 3.37920   5
   0  -2   4 114.482 2.81377   4
   0  -2   4 112.535 3.39784   5
   0  -2   4 114.194 3.17815   2
   0  -2   4 111.937 3.73838   3
  -1   2  -4 111.734 2.82441   1
  -1   2  -4 114.271 3.21143   5
   1  -2   4 114.061 3.53772   2
   1  -2   4 113.667 3.84039   3
   1  -2   4 106.008 2.83343   1
   1  -2   4 110.926 3.24384   4
  -2   2  -4 1312.92 21.6414   1
  -2   2  -4 1304.24 23.6969   3
  -2   2  -4 1339.57 22.0817   5
   2  -2   4 1293.83 23.3154   2
   2  -2   4 1317.40 21.6582   1
   2  -2   4 1303.43 23.6683   3
   2  -2   4 1287.06 23.0601   4
  -3   2  -4 55.8868 1.89228   5
   3  -2   4 52.7649 3.29836   2
   3  -2   4 55.0636 1.96562   1
   3  -2   4 57.7651 3.30542   4
  -4   2  -4 3.94005 2.17472   3
   4  -2   4 1.87363 1.81802   2
   4  -2   4 4.67185 1.93022   4
   4  -2   4 2.61655 1.15809   1
  -5   2  -4 104.014 5.99513   3
   5  -2   4 105.575 5.66541   2
   5  -2   4 102.590 5.70140   4
  -6   2  -4 42.7809 5.59007   3
   6  -2   4 46.3497 5.51622   4
   6  -2   4 36.0462 5.33428   2
  -7   2  -4 3.18981 4.10261   3
   7  -2   4 5.80597 3.79862   4
   7  -2   4 2.38760 3.78518   2
   8   1  -4 91.4442 9.60445   1
  -8  -1   4 96.1389 10.1120   3
   7   1  -4 21.9618 5.08422   5
   7   1  -4 18.7408 4.44591   1
   7   1  -4 21.0701 3.77359   4
  -7  -1   4 23.4598 4.89813   3
   6   1  -4 30.3759 5.44725   1
   6   1  -4 18.0479 3.99033   4
   6   1  -4 23.6715 4.52799   5
  -6  -1   4 20.5824 5.34535   3
   5   1  -4 73.0360 4.14618   5
   5   1  -4 76.7505 5.02826   1
   5   1  -4 79.7954 3.89687   4
  -5  -1   4 80.6744 5.03690   3
  -5  -1   4 79.9815 3.13521   2
   4   1  -4 146.967 4.22487   4
   4   1  -4 141.590 4.87515   5
   4   1  -4 143.171 5.50240   1
  -4  -1   4 151.793 5.75776   3
  -4  -1   4 144.422 3.57987   2
   3   1  -4 1585.96 28.4147   1
   3   1  -4 1605.86 26.7060   4
   3   1  -4 1608.88 27.9826   5
  -3  -1   4 1572.23 28.4254   3
  -3  -1   4 1603.87 26.2399   2
   2   1  -4 1401.59 24.6541   1
   2   1  -4 1419.64 24.5290   5
  -2  -1   4 1421.71 23.0516   2
  -2  -1   4 1405.41 24.8234   3
  -2  -1   4 1348.08 22.8917   4
   1   1  -4 74.9726 2.79027   5
   1   1  -4 73.9229 2.70088   1
  -1  -1   4 75.6889 2.18307   2
  -1  -1   4 76.8022 2.92916   3
   0   1  -4 1066.89 18.5442   5
   0   1  -4 1033.06 18.1340   1
   0  -1   4 1077.02 19.0498   3
   0  -1   4 1070.76 17.6568   4
   0  -1   4 1065.15 18.2936   2
  -1   1  -4 495.792 9.14380   5
  -1   1  -4 500.300 8.48839   1
   1  -1   4 481.760 9.86551   3
   1  -1   4 492.013 9.17602   4
   1  -1   4 478.163 9.50493   2
  -2   1  -4 410.107 8.90855   3
  -2   1  -4 402.576 7.51194   5
   2  -1   4 403.802 8.84697   3
   2  -1   4 403.819 8.43857   4
   2  -1   4 399.494 8.62347   2
  -3   1  -4 726.518 12.3075   5
  -3   1  -4 728.494 14.5160   3
   3  -1   4 720.757 14.2400   2
   3  -1   4 705.198 14.4230   3
   3  -1   4 710.642 14.1655   4
  -4   1  -4 282.358 7.91237   3
   4  -1   4 269.148 7.47542   2
   4  -1   4 275.100 7.67964   4
  -5   1  -4 131.512 6.24252   3
   5  -1   4 144.016 6.15368   4
   5  -1   4 143.909 5.87594   2
   5  -1   4 143.522 4.08700   1
  -6   1  -4 345.807 10.9008   3
   6  -1   4 332.960 10.2701   4
   6  -1   4 338.406 9.98493   2
  -7   1  -4 59.8526 7.58187   3
   7  -1   4 73.7942 7.20392   4
   7  -1   4 80.8710 6.68743   2
  -8   1  -4 -11.332 4.88318   3
   8  -1   4 1.49950 4.46364   4
   8  -1   4 -3.2015 4.53585   2
   8   0  -4 73.9210 7.33595   4
   8   0  -4 50.4426 8.33259   1
  -8   0   4 66.6171 9.42572   3
   7   0  -4 231.643 8.70606   4
   7   0  -4 242.572 9.83481   1
  -7   0   4 253.603 10.2753   3
   6   0  -4 203.325 7.99366   1
   6   0  -4 202.120 6.73419   5
   6   0  -4 199.717 6.72667   4
  -6   0   4 196.418 8.25762   3
   5   0  -4 6.46337 1.93030   4
   5   0  -4 9.57003 2.51865   1
   5   0  -4 5.57287 1.93010   5
  -5   0   4 7.02213 1.68641   2
  -5   0   4 2.63005 2.38857   3
   4   0  -4 558.546 11.4713   5
   4   0  -4 545.634 12.2108   1
   4   0  -4 565.777 10.9401   4
  -4   0   4 558.981 10.5360   2
  -4   0   4 560.096 12.5310   3
   3   0  -4 7.35450 1.51093   4
   3   0  -4 11.6568 2.24987   1
   3   0  -4 11.2168 1.93823   5
  -3   0   4 14.2233 2.27515   3
  -3   0   4 10.6994 1.58177   2
   2   0  -4 294.133 6.83080   1
   2   0  -4 299.596 6.64219   5
   2   0  -4 299.099 5.46178   4
  -2   0   4 298.161 6.94869   3
  -2   0   4 290.709 5.83781   2
   1   0  -4 8909.00 140.922   5
   1   0  -4 9007.47 140.853   1
  -1   0   4 8242.92 140.977   3
   0   0  -4 424.562 7.81581   1
   0   0  -4 426.483 8.22706   5
   0   0   4 425.067 7.42988   4
   0   0   4 417.717 8.06223   2
   0   0   4 419.314 8.46397   3
  -1   0  -4 898.639 15.5049   5
  -1   0  -4 889.396 14.7014   1
   1   0   4 902.393 15.5233   4
   1   0   4 873.693 14.6882   1
   1   0   4 885.091 15.9008   2
   1   0   4 891.822 16.0839   3
  -2   0  -4 1713.98 30.0860   5
  -2   0  -4 1851.81 31.2754   3
   2   0   4 1813.06 31.0983   2
   2   0   4 1845.90 30.9610   4
   2   0   4 1837.23 31.2320   3
  -3   0  -4 15.9402 1.48139   5
  -3   0  -4 13.6990 2.31418   3
   3   0   4 17.6877 2.26213   4
   3   0   4 17.3587 2.26740   2
   3   0   4 13.5972 2.25239   3
  -4   0  -4 31.7996 3.25223   3
  -4   0  -4 30.6879 1.67489   5
   4   0   4 33.4569 3.10081   2
   4   0   4 29.6333 1.89082   1
   4   0   4 26.8917 3.29535   4
  -5   0  -4 28.2750 3.69628   3
   5   0   4 31.2971 3.79871   2
   5   0   4 23.2029 2.52210   1
   5   0   4 36.3362 4.23087   4
  -6   0  -4 26.4111 5.44050   3
   6   0   4 34.6839 5.29013   4
   6   0   4 27.7535 4.68882   2
  -7   0  -4 17.3536 4.36113   3
   7   0   4 4.72179 3.64922   4
   7   0   4 14.0865 3.60196   2
  -8   0  -4 25.0229 5.97892   3
   8   0   4 17.1583 4.91635   2
   8   0   4 20.8104 5.07749   4
   8  -1  -4 16.3598 4.56330   4
   8  -1  -4 20.0206 5.48397   1
  -8   1   4 21.9268 5.27218   3
   7  -1  -4 75.4311 6.27408   4
   7  -1  -4 70.6042 6.81053   1
  -7   1   4 83.2953 7.68160   3
   6  -1  -4 278.292 9.13671   1
   6  -1  -4 280.722 8.18204   4
   6  -1  -4 273.832 7.44682   2
   6  -1  -4 261.756 7.47479   5
  -6   1   4 266.335 9.40355   3
  -6   1   4 256.892 7.49485   2
   5  -1  -4 370.537 8.88984   4
   5  -1  -4 398.624 8.63612   2
   5  -1  -4 387.573 8.91947   5
   5  -1  -4 375.210 10.0090   1
  -5   1   4 381.600 10.4456   3
  -5   1   4 384.185 8.60482   2
   4  -1  -4 176.154 6.02076   1
   4  -1  -4 177.212 5.11626   5
   4  -1  -4 177.415 4.93230   4
  -4   1   4 172.625 6.00060   3
  -4   1   4 184.402 4.90802   2
   3  -1  -4 1597.44 27.5996   5
   3  -1  -4 1607.90 27.0514   4
   3  -1  -4 1574.61 28.2519   1
  -3   1   4 1599.14 28.3779   3
  -3   1   4 1579.57 27.1099   2
   2  -1  -4 917.474 15.7542   4
   2  -1  -4 929.436 16.9712   1
   2  -1  -4 912.117 16.6059   5
  -2   1   4 917.430 16.1645   2
  -2   1   4 926.728 16.9459   3
   1  -1  -4 1955.19 33.0468   1
   1  -1  -4 2015.80 33.1367   5
   1  -1  -4 1940.49 32.1083   4
  -1   1   4 1982.50 32.8046   2
  -1   1   4 1936.71 32.1040   4
  -1   1   4 1954.40 33.0891   3
   0  -1  -4 256.547 5.56902   1
   0  -1  -4 292.676 6.03732   5
   0   1   4 283.098 5.95317   2
   0   1   4 285.522 5.45108   4
   0   1   4 285.713 5.97827   3
  -1  -1  -4 6.55865 1.01419   1
  -1  -1  -4 7.19008 1.36080   5
   1   1   4 2.78834 0.91083   3
   1   1   4 3.19897 0.88582   4
   1   1   4 3.34474 0.93375   2
  -2  -1  -4 1051.70 18.6706   3
  -2  -1  -4 1058.49 18.1310   5
   2   1   4 1068.23 18.7757   4
   2   1   4 1035.04 18.6533   3
   2   1   4 1055.78 18.8260   2
   2   1   4 1003.92 17.1986   1
  -3  -1  -4 2020.57 35.1407   3
  -3  -1  -4 2043.51 33.9441   5
   3   1   4 2028.10 35.1534   2
   3   1   4 2078.86 33.3429   1
   3   1   4 2024.85 35.3045   4
   3   1   4 2046.41 35.1795   3
  -4  -1  -4 343.018 6.77380   5
  -4  -1  -4 332.360 8.37331   3
   4   1   4 330.942 8.31994   2
   4   1   4 345.564 6.73365   1
   4   1   4 327.404 8.55606   4
  -5  -1  -4 114.043 3.33673   5
  -5  -1  -4 112.436 5.31457   3
   5   1   4 114.412 5.16132   2
   5   1   4 109.633 3.71493   1
   5   1   4 112.001 5.42938   4
  -6  -1  -4 206.763 8.01520   3
   6   1   4 207.310 7.38387   2
   6   1   4 204.714 8.05725   4
  -7  -1  -4 7.38535 3.79679   3
   7   1   4 0.32989 3.20436   2
   7   1   4 2.27352 3.34134   4
  -8  -1  -4 107.429 10.0048   3
   8   1   4 87.6413 8.10192   2
   8   1   4 101.721 8.58271   4
   8  -2  -4 49.4857 8.81790   1
   8  -2  -4 69.6281 7.97683   4
  -8   2   4 58.5128 8.77975   3
   7  -2  -4 10.3312 3.60008   4
   7  -2  -4 3.01358 3.27736   2
   7  -2  -4 6.02671 3.75806   1
  -7   2   4 6.23256 3.18512   2
  -7   2   4 3.52153 3.88996   3
   6  -2  -4 -3.6260 2.55881   4
   6  -2  -4 2.89559 2.52413   2
   6  -2  -4 1.65922 2.88302   1
   6  -2  -4 3.45165 2.31935   5
  -6   2   4 -0.0777 2.47141   2
  -6   2   4 -1.2456 2.86773   3
   5  -2  -4 76.9220 4.26341   4
   5  -2  -4 74.6059 4.94069   1
   5  -2  -4 77.7595 3.89825   5
   5  -2  -4 75.6989 4.11548   2
  -5   2   4 76.9154 5.26351   3
  -5   2   4 80.1980 4.13049   2
   4  -2  -4 102.430 3.85066   4
   4  -2  -4 96.3471 4.56138   1
   4  -2  -4 102.869 3.75589   5
   4  -2  -4 99.7419 3.79034   2
  -4   2   4 98.7381 3.84962   2
  -4   2   4 100.217 4.73961   3
   3  -2  -4 376.369 8.83906   1
   3  -2  -4 386.307 8.02405   4
   3  -2  -4 385.263 8.22742   5
  -3   2   4 388.222 8.20433   2
  -3   2   4 376.127 8.81773   3
   2  -2  -4 1970.53 33.2586   5
   2  -2  -4 1961.89 32.7260   4
   2  -2  -4 1956.15 33.6577   1
  -2   2   4 1972.09 33.1373   2
  -2   2   4 1925.73 33.4080   3
   1  -2  -4 4746.45 76.3355   1
   1  -2  -4 4557.07 75.5880   4
   1  -2  -4 4668.73 76.2166   5
  -1   2   4 4601.60 76.0763   2
  -1   2   4 4650.61 75.9907   3
  -1   2   4 4734.53 75.6490   4
   0  -2  -4 54.7707 2.22776   1
   0   2   4 56.6782 2.08139   3
   0   2   4 54.8422 2.11957   4
   0   2   4 55.2718 2.31992   2
  -1  -2  -4 394.811 7.98862   5
  -1  -2  -4 392.939 7.49134   1
   1   2   4 392.782 7.61491   3
   1   2   4 394.062 8.11188   2
   1   2   4 397.632 8.00114   4
  -2  -2  -4 18.3849 1.38609   1
  -2  -2  -4 18.5736 1.78728   5
  -2  -2  -4 14.9046 1.74756   3
   2   2   4 18.5895 2.10082   4
   2   2   4 15.0508 1.73891   3
   2   2   4 15.7915 1.87612   2
  -3  -2  -4 190.362 5.18873   3
  -3  -2  -4 187.840 4.71720   5
  -3  -2  -4 192.298 4.32589   1
   3   2   4 193.811 4.36588   1
   3   2   4 190.506 5.33488   2
   3   2   4 184.963 5.49307   4
  -4  -2  -4 2778.79 45.9334   5
  -4  -2  -4 2770.15 47.2390   3
   4   2   4 2777.63 45.7095   1
   4   2   4 2749.03 47.1769   2
   4   2   4 2734.06 47.7116   4
  -5  -2  -4 75.4254 3.27116   5
  -5  -2  -4 73.5225 4.49214   3
   5   2   4 64.1739 3.30172   1
   5   2   4 66.5810 4.66339   4
   5   2   4 63.9253 4.26733   2
  -6  -2  -4 5.16847 2.75645   3
   6   2   4 0.56712 2.42729   2
   6   2   4 1.84053 2.79525   4
   6   2   4 1.46514 2.23573   1
  -7  -2  -4 24.4903 6.11611   3
   7   2   4 21.6970 5.48821   2
   7   2   4 23.0673 4.23503   4
  -8  -2  -4 110.628 9.68768   3
   8   2   4 138.738 8.25950   2
   8   2   4 128.165 9.34847   4
   7  -3  -4 -0.2398 3.29040   2
   7  -3  -4 -0.4934 3.25465   4
   7  -3  -4 5.44017 4.08640   1
  -7   3   4 -4.8430 4.03788   3
  -7   3   4 0.91298 3.73330   2
   6  -3  -4 5.20077 2.92186   2
   6  -3  -4 5.96475 2.97042   4
   6  -3  -4 1.73587 3.31292   1
  -6   3   4 -0.9504 3.12739   3
  -6   3   4 7.35157 3.16698   2
   5  -3  -4 156.556 6.41973   1
   5  -3  -4 151.319 5.77568   4
   5  -3  -4 157.495 5.94451   2
   5  -3  -4 167.243 5.30872   5
  -5   3   4 161.343 6.78020   3
  -5   3   4 163.175 6.07013   2
   4  -3  -4 398.181 9.17415   4
   4  -3  -4 361.968 9.77748   1
   4  -3  -4 403.983 9.19195   2
   4  -3  -4 415.115 8.86590   5
  -4   3   4 405.022 9.90086   3
  -4   3   4 413.179 9.32901   2
   3  -3  -4 5.56478 1.31851   4
   3  -3  -4 3.84382 1.57524   1
   3  -3  -4 8.15460 2.05614   5
  -3   3   4 4.07412 1.40295   2
  -3   3   4 4.07020 1.49346   3
   2  -3  -4 1043.49 18.5848   5
   2  -3  -4 1020.96 18.9902   1
   2  -3  -4 1021.42 18.2793   4
  -2   3   4 1023.55 18.6332   2
  -2   3   4 1011.10 18.5157   3
  -2   3   4 1032.15 18.3228   4
   1  -3  -4 115.714 3.74696   1
   1  -3  -4 113.668 3.36964   4
   1  -3  -4 115.309 3.68220   5
  -1   3   4 112.155 3.65427   2
  -1   3   4 112.108 3.23894   3
  -1   3   4 113.567 3.39772   4
   0  -3  -4 2113.16 35.5581   1
   0  -3  -4 2121.80 35.7251   5
   0   3   4 2069.07 34.7455   3
   0   3   4 2093.60 35.7309   2
   0   3   4 2145.55 35.5300   4
  -1  -3  -4 203.144 5.07982   5
  -1  -3  -4 198.052 4.73594   1
  -1  -3  -4 195.653 4.21994   3
   1   3   4 193.686 4.18951   3
   1   3   4 197.272 5.08150   4
   1   3   4 197.283 5.08244   2
  -2  -3  -4 230.439 5.70990   5
  -2  -3  -4 243.978 5.31226   3
  -2  -3  -4 252.430 5.51364   1
   2   3   4 242.092 5.28979   3
   2   3   4 239.719 6.13914   4
   2   3   4 237.979 5.96499   2
  -3  -3  -4 220.723 5.43243   3
  -3  -3  -4 223.016 5.22387   1
  -3  -3  -4 217.082 5.52680   5
   3   3   4 215.739 5.22884   1
   3   3   4 215.698 5.84202   2
   3   3   4 210.062 6.23192   4
  -4  -3  -4 2.29225 1.53075   3
  -4  -3  -4 1.43809 1.37711   5
   4   3   4 1.66980 1.34522   1
   4   3   4 0.90269 1.70850   4
   4   3   4 2.59181 1.62849   2
  -5  -3  -4 21.1168 2.80830   5
  -5  -3  -4 22.2420 3.77947   3
   5   3   4 13.3049 2.55992   2
   5   3   4 15.2144 2.77001   1
   5   3   4 19.2739 4.00723   4
  -6  -3  -4 4.03506 2.83275   3
   6   3   4 4.92312 2.66887   2
   6   3   4 3.89550 3.04170   4
   6   3   4 -1.1152 2.32617   1
  -7  -3  -4 -2.0324 3.40302   3
   7   3   4 -1.9444 3.16536   2
   7   3   4 1.38389 3.39427   4
  -8  -3  -4 45.3896 8.73999   3
   8   3   4 24.8368 5.27271   4
   7  -4  -4 15.3042 3.89694   2
   7  -4  -4 19.3050 4.69954   1
   7  -4  -4 27.9593 6.39820   4
  -7   4   4 12.4654 4.35223   3
  -7   4   4 15.1283 3.96871   2
   6  -4  -4 2.02067 2.90420   2
   6  -4  -4 -2.0280 2.97470   1
   6  -4  -4 -1.9369 2.76699   4
  -6   4   4 -3.8148 2.87977   2
  -6   4   4 -4.1382 3.01522   3
   5  -4  -4 48.6643 4.26449   4
   5  -4  -4 53.9858 4.88381   1
   5  -4  -4 47.4748 4.34689   2
   5  -4  -4 40.9798 3.84632   5
  -5   4   4 49.4543 5.04651   3
  -5   4   4 46.0777 4.42347   2
   4  -4  -4 124.459 5.15565   2
   4  -4  -4 127.287 5.07704   4
   4  -4  -4 128.141 4.49770   5
   4  -4  -4 124.202 5.45755   1
  -4   4   4 122.552 5.25275   2
  -4   4   4 114.453 5.17006   3
   3  -4  -4 333.341 8.56096   1
   3  -4  -4 339.844 7.78341   5
   3  -4  -4 341.387 8.02069   4
  -3   4   4 331.032 8.13622   3
  -3   4   4 327.389 8.13594   2
   2  -4  -4 123.384 4.59302   1
   2  -4  -4 131.285 4.15250   5
   2  -4  -4 125.768 4.12548   4
  -2   4   4 125.381 4.02010   3
  -2   4   4 122.303 4.10568   4
  -2   4   4 125.356 4.28614   2
   1  -4  -4 11.2382 2.04966   1
   1  -4  -4 9.14548 1.73804   4
   1  -4  -4 11.4195 1.97706   5
  -1   4   4 10.2036 1.84146   4
  -1   4   4 13.4665 1.96854   2
  -1   4   4 12.3463 1.58774   3
   0  -4  -4 379.765 8.33335   1
   0  -4  -4 384.953 8.37987   5
   0   4   4 385.531 7.04001   3
   0   4   4 376.110 8.20723   4
  -1  -4  -4 50.1418 2.62149   1
  -1  -4  -4 54.8778 2.76057   5
  -1  -4  -4 51.8137 1.76105   3
   1   4   4 51.7780 2.74516   4
   1   4   4 51.6527 2.78318   2
   1   4   4 50.9344 1.68304   3
  -2  -4  -4 68.6023 3.10932   5
  -2  -4  -4 69.4526 2.38344   3
  -2  -4  -4 70.3007 3.01442   1
   2   4   4 64.1530 3.10720   2
   2   4   4 68.6356 3.45865   4
  -3  -4  -4 34.2194 2.48888   3
  -3  -4  -4 39.2332 2.69729   5
  -3  -4  -4 34.6392 2.49958   1
   3   4   4 36.5991 2.82545   2
   3   4   4 34.2622 2.58969   1
   3   4   4 35.0432 3.20001   4
  -4  -4  -4 89.3710 3.75641   1
  -4  -4  -4 79.9833 3.74497   3
  -4  -4  -4 87.1065 3.95139   5
   4   4   4 89.8318 3.79713   1
   4   4   4 86.3498 4.10411   2
   4   4   4 91.6380 4.92882   4
  -5  -4  -4 35.4992 3.72251   5
  -5  -4  -4 36.8267 3.91118   3
   5   4   4 37.8244 4.03228   2
   5   4   4 40.1587 4.79713   4
   5   4   4 32.0120 3.66597   1
  -6  -4  -4 51.4594 5.49606   3
  -6  -4  -4 58.0540 4.34721   5
   6   4   4 44.2337 5.11191   2
   6   4   4 54.9378 5.85823   4
   6   4   4 51.3743 4.79356   1
  -7  -4  -4 62.8589 6.74663   3
   7   4   4 70.1493 5.99630   2
   7   4   4 70.0577 7.19955   4
   7  -5  -4 217.758 10.1527   4
   7  -5  -4 222.084 9.67169   2
   7  -5  -4 216.965 10.6670   1
  -7   5   4 171.069 9.79049   3
  -7   5   4 202.870 9.35609   2
   6  -5  -4 15.2869 3.55966   4
   6  -5  -4 23.9445 5.91871   1
   6  -5  -4 22.0671 5.50042   2
  -6   5   4 21.0649 3.76786   2
  -6   5   4 23.9509 5.98746   3
   5  -5  -4 3.87343 2.15480   5
   5  -5  -4 2.24915 2.89524   1
   5  -5  -4 0.00529 2.36679   2
   5  -5  -4 4.30011 2.42227   4
  -5   5   4 3.30177 2.76339   3
  -5   5   4 4.58254 2.61130   2
   4  -5  -4 403.170 9.27242   5
   4  -5  -4 408.777 10.7136   1
   4  -5  -4 397.853 10.0272   4
   4  -5  -4 400.536 10.1992   2
  -4   5   4 405.905 10.2258   3
  -4   5   4 411.931 10.2721   2
   3  -5  -4 645.001 12.7551   5
   3  -5  -4 621.035 13.1947   4
   3  -5  -4 602.186 13.7273   1
  -3   5   4 622.781 12.9673   3
  -3   5   4 630.010 13.2388   4
  -3   5   4 632.008 13.4497   2
   2  -5  -4 142.787 5.27554   1
   2  -5  -4 143.180 4.88839   4
   2  -5  -4 145.433 4.76355   5
  -2   5   4 145.499 4.95184   4
  -2   5   4 147.657 4.34965   3
  -2   5   4 143.925 5.05963   2
   1  -5  -4 454.804 10.2409   1
   1  -5  -4 448.182 9.76703   5
   1  -5  -4 457.270 9.86477   4
  -1   5   4 448.045 9.95670   2
  -1   5   4 457.697 9.89140   4
  -1   5   4 453.993 8.70677   3
   0  -5  -4 2.28674 1.30246   1
   0  -5  -4 3.17020 1.31000   5
   0   5   4 -0.7471 1.17074   4
   0   5   4 1.12035 1.31947   2
   0   5   4 0.56162 0.71288   3
  -1  -5  -4 1950.60 33.8370   1
  -1  -5  -4 1946.42 33.9002   5
   1   5   4 1941.22 33.8533   2
   1   5   4 1945.27 34.0337   4
  -2  -5  -4 371.354 8.54779   1
  -2  -5  -4 366.751 8.68344   5
  -2  -5  -4 368.930 6.78885   3
   2   5   4 378.162 8.65254   2
   2   5   4 372.391 9.05014   4
  -3  -5  -4 101.058 4.05725   1
  -3  -5  -4 100.245 4.31391   5
  -3  -5  -4 103.266 3.36044   3
   3   5   4 105.670 4.24277   1
   3   5   4 99.5957 4.19027   2
   3   5   4 98.9749 4.66677   4
  -4  -5  -4 229.732 6.07434   3
  -4  -5  -4 228.214 6.81138   5
  -4  -5  -4 233.589 6.67708   1
   4   5   4 227.804 6.76398   2
   4   5   4 225.971 7.73463   4
   4   5   4 230.674 6.73887   1
  -5  -5  -4 656.503 13.7053   3
  -5  -5  -4 613.587 13.8760   5
   5   5   4 618.652 13.8797   2
   5   5   4 677.349 15.4584   4
   5   5   4 674.552 14.0938   1
  -6  -5  -4 50.6469 5.70745   3
  -6  -5  -4 59.8362 5.12430   5
   6   5   4 54.8012 5.58053   2
   6   5   4 45.8242 5.66797   1
   6   5   4 53.8298 6.19133   4
  -7  -5  -4 -3.8237 3.74296   3
   7   5   4 -5.9505 3.43702   4
   7  -6  -4 267.417 12.3309   1
   7  -6  -4 251.564 11.0876   2
   7  -6  -4 275.070 11.2046   4
  -7   6   4 264.803 11.5857   3
  -7   6   4 259.763 11.4953   2
   6  -6  -4 25.9806 6.81673   1
   6  -6  -4 28.2501 6.18229   4
   6  -6  -4 26.6675 6.15572   2
  -6   6   4 15.5251 4.28654   3
  -6   6   4 15.2855 4.17620   2
   5  -6  -4 39.2585 4.01023   5
   5  -6  -4 35.5137 5.51096   2
   5  -6  -4 35.5385 5.41164   4
   5  -6  -4 26.3929 5.43083   1
  -5   6   4 30.6748 5.69348   2
  -5   6   4 50.6377 5.23431   3
   4  -6  -4 86.8928 4.39447   5
   4  -6  -4 89.1916 5.14946   4
   4  -6  -4 79.2891 5.39966   1
  -4   6   4 86.4540 5.38344   2
  -4   6   4 84.7765 5.08333   3
   3  -6  -4 558.660 11.8439   5
   3  -6  -4 564.618 12.6250   4
   3  -6  -4 536.922 12.8098   1
  -3   6   4 558.602 12.5863   4
  -3   6   4 534.788 12.5012   2
  -3   6   4 561.455 11.9179   3
   2  -6  -4 35.9050 3.06316   5
   2  -6  -4 27.0122 3.54962   1
   2  -6  -4 32.7438 3.50310   4
  -2   6   4 26.8872 3.32557   4
  -2   6   4 32.8619 2.69262   3
  -2   6   4 35.2398 3.69647   2
   1  -6  -4 965.892 18.9729   4
   1  -6  -4 984.124 18.7705   5
   1  -6  -4 980.818 19.2793   1
  -1   6   4 988.963 19.0646   2
  -1   6   4 1002.21 17.2194   3
  -1   6   4 993.359 19.0916   4
   0  -6  -4 158.906 5.29001   5
   0  -6  -4 165.470 5.47378   1
   0   6   4 157.963 5.39357   4
   0   6   4 157.649 5.31319   2
  -1  -6  -4 14.4971 2.73890   1
  -1  -6  -4 13.9082 2.61048   5
   1   6   4 20.1164 2.74192   2
   1   6   4 15.3937 2.86222   4
  -2  -6  -4 319.204 8.25326   5
  -2  -6  -4 313.114 8.21118   1
   2   6   4 321.906 8.09910   2
   2   6   4 327.173 8.65557   4
  -3  -6  -4 185.840 6.34595   5
  -3  -6  -4 195.429 4.56347   3
  -3  -6  -4 196.363 6.27489   1
   3   6   4 198.495 6.35629   1
   3   6   4 201.921 6.11693   2
   3   6   4 197.199 6.94063   4
  -4  -6  -4 70.8196 3.49358   3
  -4  -6  -4 72.2743 4.62675   5
  -4  -6  -4 64.0228 4.69521   1
   4   6   4 72.3981 4.32324   2
   4   6   4 71.8100 5.38698   4
   4   6   4 75.5605 4.85554   1
  -5  -6  -4 375.039 10.3463   5
  -5  -6  -4 373.564 10.1210   1
  -5  -6  -4 366.711 9.17949   3
   5   6   4 375.922 9.78187   2
   5   6   4 375.839 10.2971   1
   5   6   4 377.791 11.2416   4
  -6  -6  -4 51.6977 5.75974   5
  -6  -6  -4 43.2578 5.49592   3
   6   6   4 51.8387 5.45526   2
   6   6   4 41.3315 6.36711   4
   6   6   4 54.4631 6.33793   1
   7   6   4 3.85759 4.08402   4
   6  -7  -4 54.5170 7.35703   4
   6  -7  -4 78.4468 7.72843   2
   6  -7  -4 69.9050 8.26186   1
  -6   7   4 70.0304 7.61399   3
  -6   7   4 68.7212 8.04424   2
   5  -7  -4 92.7970 6.65851   4
   5  -7  -4 76.3910 6.80960   2
   5  -7  -4 88.0252 7.29341   1
  -5   7   4 75.2275 6.90454   2
  -5   7   4 82.1666 6.47086   3
   4  -7  -4 -0.5799 2.86721   1
   4  -7  -4 1.69733 2.60582   4
   4  -7  -4 -0.3124 2.36315   5
  -4   7   4 -2.2328 2.45790   3
  -4   7   4 -1.1212 3.02974   2
  -4   7   4 0.01069 2.66079   4
   3  -7  -4 714.408 16.0799   1
   3  -7  -4 686.783 14.5565   5
   3  -7  -4 717.385 15.6320   4
  -3   7   4 710.092 15.5995   4
  -3   7   4 703.853 15.6867   2
  -3   7   4 711.666 14.5715   3
   2  -7  -4 836.805 17.2691   4
   2  -7  -4 821.768 17.5098   1
   2  -7  -4 835.999 16.6680   5
  -2   7   4 828.160 17.2363   4
  -2   7   4 816.483 17.2020   2
  -2   7   4 833.093 15.5965   3
   1  -7  -4 34.6146 3.45506   4
   1  -7  -4 31.1215 3.50939   5
   1  -7  -4 26.4416 3.58545   1
  -1   7   4 30.9407 3.73128   2
  -1   7   4 31.6481 2.24934   3
  -1   7   4 28.8818 3.63390   4
   0  -7  -4 4.88399 2.07586   5
   0  -7  -4 5.96964 2.05907   1
   0   7   4 6.41117 2.07005   4
   0   7   4 8.17639 2.14479   2
  -1  -7  -4 319.317 8.50016   5
  -1  -7  -4 322.789 8.74762   1
   1   7   4 317.738 8.71295   4
   1   7   4 320.398 8.45423   2
  -2  -7  -4 123.697 5.49483   1
  -2  -7  -4 138.135 5.65943   5
   2   7   4 142.728 5.80088   4
   2   7   4 136.842 5.44973   2
  -3  -7  -4 10.3923 2.53731   5
  -3  -7  -4 8.69571 2.46063   1
   3   7   4 16.8712 3.44115   2
   3   7   4 16.4528 3.95825   4
   3   7   4 10.3722 2.56718   1
  -4  -7  -4 162.125 6.65930   1
  -4  -7  -4 158.623 6.57014   5
   4   7   4 151.337 6.16497   2
   4   7   4 169.291 6.85977   1
   4   7   4 167.856 7.30748   4
  -5  -7  -4 -1.4508 2.91604   5
  -5  -7  -4 3.77712 2.96145   1
   5   7   4 1.20688 2.99046   1
   5   7   4 -1.0537 3.29892   4
   5   7   4 0.92143 2.93090   2
  -6  -7  -4 259.138 9.53902   5
   6   7   4 258.042 9.94060   1
   6   7   4 273.587 10.6660   4
  -7  -7  -4 9.22078 4.39982   5
   7   7   4 15.2550 4.71843   1
   7   7   4 11.3757 4.83008   4
   6  -8  -4 24.9626 6.14830   1
   6  -8  -4 39.9054 7.27563   4
  -6   8   4 35.3311 8.98762   2
  -6   8   4 33.8653 7.85589   3
  -6   8   4 24.3550 5.71414   4
   5  -8  -4 27.7403 7.48620   1
   5  -8  -4 26.8804 6.48992   4
  -5   8   4 25.9368 6.56513   2
  -5   8   4 28.2302 5.93897   3
  -5   8   4 30.1936 6.97875   4
   4  -8  -4 19.4041 4.93605   5
   4  -8  -4 12.9934 3.75928   1
   4  -8  -4 14.8518 3.64148   4
  -4   8   4 11.7977 3.48117   4
  -4   8   4 15.3344 3.51221   3
  -4   8   4 17.7035 3.82327   2
   3  -8  -4 5.58922 2.92039   4
   3  -8  -4 6.87056 3.20163   1
   3  -8  -4 5.91123 2.65701   5
  -3   8   4 8.29099 3.16954   4
  -3   8   4 9.68194 2.31526   3
  -3   8   4 6.50029 3.36004   2
   2  -8  -4 754.860 15.9875   5
   2  -8  -4 752.130 17.0794   1
   2  -8  -4 787.077 16.9214   4
  -2   8   4 743.500 16.7509   4
  -2   8   4 764.187 16.8144   2
  -2   8   4 762.218 14.6324   3
   1  -8  -4 793.992 16.9718   4
   1  -8  -4 764.186 16.8856   1
   1  -8  -4 768.829 16.2692   5
  -1   8   4 781.125 16.9014   4
  -1   8   4 776.886 13.8995   3
  -1   8   4 776.633 16.6537   2
   0  -8  -4 32.7004 4.07906   1
   0  -8  -4 34.4375 3.91866   5
   0   8   4 30.2405 3.96347   2
   0   8   4 31.6038 4.08811   4
  -1  -8  -4 282.106 8.48825   5
  -1  -8  -4 278.216 8.61550   1
   1   8   4 282.181 8.58159   4
   1   8   4 280.568 8.23097   2
  -2  -8  -4 144.585 6.34107   5
  -2  -8  -4 139.945 6.28463   1
   2   8   4 146.041 5.98677   2
   2   8   4 132.091 6.37190   4
  -3  -8  -4 65.7987 5.17150   1
  -3  -8  -4 65.6290 5.47494   5
   3   8   4 66.4828 5.08750   2
   3   8   4 74.4694 5.89367   4
   3   8   4 63.3714 5.06256   1
  -4  -8  -4 329.625 10.1590   1
  -4  -8  -4 339.805 10.3576   5
   4   8   4 317.269 9.26817   2
   4   8   4 329.565 10.1008   1
   4   8   4 324.938 10.6156   4
  -5  -8  -4 9.21072 3.56159   5
  -5  -8  -4 11.3251 3.60177   1
   5   8   4 25.9823 5.95540   1
   5   8   4 11.6200 3.54097   2
   5   8   4 15.7947 4.09670   4
  -6  -8  -4 71.6175 7.50325   5
   6   8   4 85.5891 8.02175   4
   6   8   4 75.4879 7.46285   1
   5  -9  -4 126.971 10.3218   1
   5  -9  -4 115.707 8.48437   4
  -5   9   4 141.928 9.69759   2
  -5   9   4 129.514 9.72398   4
  -5   9   4 139.034 8.13547   3
   4  -9  -4 17.5232 4.46779   1
   4  -9  -4 26.7905 5.53107   5
   4  -9  -4 19.7254 4.30953   4
  -4   9   4 14.4860 4.35113   2
  -4   9   4 21.5853 5.66069   3
  -4   9   4 15.4044 4.33155   4
   3  -9  -4 36.2415 5.75062   4
   3  -9  -4 46.4482 6.17010   1
   3  -9  -4 51.4932 5.40223   5
  -3   9   4 46.1871 4.49562   3
  -3   9   4 36.4521 6.11393   2
  -3   9   4 45.0764 5.99392   4
   2  -9  -4 4.81771 2.95304   4
   2  -9  -4 0.04224 3.05279   1
   2  -9  -4 8.20297 2.77776   5
  -2   9   4 4.69035 3.33500   2
  -2   9   4 1.07439 2.93156   4
   1  -9  -4 16.5741 3.52956   1
   1  -9  -4 18.1770 4.84500   4
   1  -9  -4 21.0538 4.00604   5
  -1   9   4 25.2212 5.00226   2
  -1   9   4 23.2502 4.91092   4
   0  -9  -4 33.2231 4.73324   5
   0  -9  -4 42.2845 5.10410   1
   0   9   4 29.7748 4.82151   2
   0   9   4 37.3660 4.94995   4
  -1  -9  -4 -0.9606 2.64612   5
  -1  -9  -4 -0.7456 2.71238   1
   1   9   4 0.92878 2.49690   2
   1   9   4 0.11023 2.58486   4
  -2  -9  -4 1.17665 3.13731   5
  -2  -9  -4 1.32541 2.88228   1
   2   9   4 3.93762 3.20646   4
   2   9   4 1.74337 2.80352   2
  -3  -9  -4 169.008 7.54272   5
  -3  -9  -4 161.362 7.86637   1
   3   9   4 171.171 7.47766   2
   3   9   4 167.186 7.79807   1
   3   9   4 178.332 8.38071   4
  -4  -9  -4 49.5155 6.30500   5
  -4  -9  -4 60.4157 6.62779   1
   4   9   4 63.8537 6.39283   1
   4   9   4 54.0649 5.83243   2
   4   9   4 60.5490 6.52903   4
  -5  -9  -4 4.25614 3.78861   5
  -5  -9  -4 1.27141 3.69704   1
   5   9   4 -2.8103 3.64596   1
   5   9   4 -2.7933 3.75951   4
  -6  -9  -4 0.99996 4.62070   5
  -6  -9  -4 -0.1031 4.53689   1
   6   9   4 2.34181 4.51104   4
   6   9   4 -0.4843 4.68705   1
   5 -10  -4 46.5700 7.41719   1
   5 -10  -4 81.1255 8.84706   4
  -5  10   4 66.4533 9.27675   2
  -5  10   4 74.3473 10.2596   4
   4 -10  -4 39.5433 6.66058   4
   4 -10  -4 41.1847 9.02040   1
  -4  10   4 46.8315 8.23873   4
  -4  10   4 44.8725 7.41413   2
   3 -10  -4 0.48549 3.26501   5
   3 -10  -4 -1.4773 3.85163   1
   3 -10  -4 5.73939 3.54277   4
  -3  10   4 0.45006 3.82681   2
  -3  10   4 -0.1917 3.54160   4
   2 -10  -4 2.91477 3.14667   5
   2 -10  -4 20.7800 5.57122   1
   2 -10  -4 -3.2807 3.06877   4
  -2  10   4 7.82181 3.48659   2
  -2  10   4 -0.4723 3.16547   4
   1 -10  -4 -2.9430 3.18254   1
   1 -10  -4 2.77800 3.01062   5
   1 -10  -4 1.08464 3.00114   4
  -1  10   4 2.06423 3.11310   2
  -1  10   4 6.75370 3.23835   4
   0 -10  -4 27.8878 5.17349   5
   0 -10  -4 41.0361 5.58884   1
   0  10   4 26.1287 5.78501   2
   0  10   4 36.4579 5.47212   4
  -1 -10  -4 1.94380 3.04349   1
  -1 -10  -4 6.65658 3.17636   5
   1  10   4 8.84964 3.12672   4
   1  10   4 5.90895 3.18229   2
  -2 -10  -4 -2.6119 2.99188   5
  -2 -10  -4 2.86625 3.20410   1
   2  10   4 1.35036 3.01635   2
   2  10   4 3.35379 3.46190   4
  -3 -10  -4 178.409 8.68618   1
  -3 -10  -4 163.762 8.36748   5
   3  10   4 178.132 8.99840   1
   3  10   4 173.494 7.97554   2
   3  10   4 184.604 9.10059   4
  -4 -10  -4 54.6014 7.21372   5
  -4 -10  -4 53.1519 7.08625   1
   4  10   4 58.9782 7.66908   1
   4  10   4 69.2664 7.63405   4
   4  10   4 64.5280 6.42251   2
  -5 -10  -4 7.27108 4.08569   5
  -5 -10  -4 8.93661 4.92506   1
   5  10   4 1.88839 4.97818   1
   5  10   4 13.4086 4.61755   4
   4 -11  -4 95.5497 9.29589   4
   4 -11  -4 119.518 11.5022   1
  -4  11   4 110.475 10.2087   4
  -4  11   4 120.899 9.22842   2
   3 -11  -4 55.0750 7.69945   4
   3 -11  -4 64.2430 8.97971   1
   3 -11  -4 51.3547 6.56568   5
  -3  11   4 42.6301 8.36379   2
  -3  11   4 59.6178 8.25813   4
   2 -11  -4 6.63954 3.47975   5
   2 -11  -4 1.95947 4.48545   1
   2 -11  -4 2.74516 3.92631   4
  -2  11   4 -2.4427 3.85876   4
  -2  11   4 6.23628 4.07119   2
   1 -11  -4 297.927 10.6679   4
   1 -11  -4 293.116 11.0944   1
   1 -11  -4 313.617 10.6697   5
  -1  11   4 289.526 10.9071   2
  -1  11   4 299.562 10.9465   4
   0 -11  -4 42.8322 6.77988   1
   0 -11  -4 42.1780 6.73158   5
   0  11   4 38.4938 6.61059   2
   0  11   4 47.6075 6.22475   4
  -1 -11  -4 66.6111 6.94416   5
  -1 -11  -4 61.0609 6.69427   1
   1  11   4 65.4840 6.64259   4
   1  11   4 55.1861 6.37966   2
  -2 -11  -4 82.3998 7.12723   5
  -2 -11  -4 101.477 7.74829   1
   2  11   4 89.4950 7.92832   1
   2  11   4 101.456 7.14569   2
   2  11   4 93.3073 7.65055   4
  -3 -11  -4 14.1779 4.43134   1
  -3 -11  -4 29.9028 6.79920   5
   3  11   4 16.3096 4.38827   4
   3  11   4 10.9973 4.89705   1
   3  11   4 15.6193 4.12267   2
  -4 -11  -4 124.841 8.90740   5
  -4 -11  -4 85.1799 8.40052   1
   4  11   4 98.0018 9.70562   1
   4  11   4 109.403 9.19069   4
   2 -12  -4 21.2174 5.08479   4
   2 -12  -4 21.5144 6.13747   1
   2 -12  -4 21.6119 4.98852   5
  -2  12   4 23.3544 5.14919   4
  -2  12   4 38.6980 8.46127   2
   1 -12  -4 68.9660 8.54640   1
   1 -12  -4 62.7167 8.20334   5
  -1  12   4 60.7738 8.18898   4
  -1  12   4 85.8049 8.13152   2
   0 -12  -4 121.536 9.41902   5
   0 -12  -4 112.940 8.82706   1
   0  12   4 109.132 8.40880   4
   0  12   4 125.711 8.98534   2
  -1 -12  -4 91.5390 8.29970   1
  -1 -12  -4 72.6050 8.52573   5
   1  12   4 79.4718 8.38561   2
   1  12   4 97.1609 8.52185   4
  -2 -12  -4 5.40856 4.45581   5
  -2 -12  -4 9.53400 4.80023   1
   2  12   4 2.24426 4.18870   4
   2  12   4 2.22767 4.79542   1
   2  12   4 -1.3571 4.14955   2
  -3 -12  -4 21.9427 4.88299   5
  -3 -12  -4 31.0864 7.34816   1
   3  12   4 18.7866 5.20972   4
   3  12   4 20.9238 4.96267   2
   3  12   4 14.8511 5.95922   1
   1  11  -5 -0.3935 4.19575   5
   1  11  -5 7.04451 4.81447   1
  -1 -11   5 1.10559 5.20747   5
  -1 -11   5 5.43648 5.43375   1
   0  11  -5 65.6004 8.94632   1
   0  11  -5 67.7067 8.32839   4
   0  11  -5 58.2271 8.57112   5
   0 -11   5 71.7798 9.39384   1
   0 -11   5 72.1071 9.39303   5
   0 -11   5 76.3643 8.33068   4
  -1  11  -5 8.11209 4.98985   4
  -1  11  -5 1.09543 4.18882   2
  -1  11  -5 7.03905 4.63088   5
  -1  11  -5 7.94613 5.03568   1
   1 -11   5 7.59262 4.62389   2
   1 -11   5 0.16363 4.48428   4
   1 -11   5 -2.4828 4.42344   5
   1 -11   5 -0.4794 4.61962   1
   3  10  -5 53.6563 7.92087   5
   3  10  -5 42.8017 7.86610   1
  -3 -10   5 35.2835 9.12738   1
  -3 -10   5 50.7900 7.99483   5
   2  10  -5 27.5367 6.89073   5
   2  10  -5 25.4109 4.95894   1
  -2 -10   5 24.0853 5.05384   5
  -2 -10   5 27.7182 5.73107   1
   1  10  -5 2.94874 4.01621   5
   1  10  -5 13.7297 4.24356   1
   1  10  -5 22.3410 5.69507   3
   1  10  -5 25.5606 6.55849   4
  -1 -10   5 17.1242 4.62221   5
  -1 -10   5 10.9940 3.82281   3
  -1 -10   5 11.1586 4.34182   1
   0  10  -5 1.99965 3.22479   2
   0  10  -5 5.99535 3.98357   1
   0  10  -5 1.65557 3.93401   5
   0  10  -5 4.36574 3.65805   4
   0  10  -5 3.72207 3.44653   3
   0 -10   5 5.15971 3.90003   1
   0 -10   5 0.07277 3.56280   4
   0 -10   5 7.44274 3.70107   2
   0 -10   5 -3.8593 3.68093   3
   0 -10   5 -1.2677 3.88555   5
  -1  10  -5 106.288 7.44392   1
  -1  10  -5 104.971 7.52253   4
  -1  10  -5 106.109 7.22213   2
  -1  10  -5 115.528 7.57354   5
  -1  10  -5 98.5746 6.87623   3
   1 -10   5 101.542 7.37756   5
   1 -10   5 104.203 7.05039   2
   1 -10   5 109.799 7.46644   4
   1 -10   5 105.332 7.63466   1
   1 -10   5 103.710 7.25255   3
  -2  10  -5 13.1311 4.38755   2
  -2  10  -5 29.8025 7.02826   4
  -2  10  -5 7.76151 4.12637   3
  -2  10  -5 12.6779 3.92168   5
  -2  10  -5 16.0366 4.21135   1
   2 -10   5 13.6164 4.03533   5
   2 -10   5 13.5710 4.18162   3
   2 -10   5 12.8584 4.33175   2
   2 -10   5 5.57071 3.93617   1
   2 -10   5 15.9919 4.36987   4
  -3  10  -5 8.02274 4.41738   4
  -3  10  -5 2.15423 4.64059   3
  -3  10  -5 -1.7768 4.28665   2
   3 -10   5 -4.0797 5.03380   2
   3 -10   5 -0.3734 4.89553   4
   4   9  -5 28.1862 7.15315   5
   4   9  -5 25.5762 5.31031   1
  -4  -9   5 31.9362 5.12352   5
   3   9  -5 247.098 10.1597   1
   3   9  -5 223.488 9.85815   5
  -3  -9   5 237.368 10.1715   5
  -3  -9   5 235.823 9.64310   3
   2   9  -5 65.0188 6.20021   4
   2   9  -5 61.3664 6.62382   5
   2   9  -5 56.5858 6.86670   1
  -2  -9   5 72.5677 6.75392   3
  -2  -9   5 64.6203 7.39948   1
  -2  -9   5 49.2243 6.95802   5
   1   9  -5 3.42503 3.16303   4
   1   9  -5 0.40947 3.38828   1
   1   9  -5 -0.1181 3.16719   5
  -1  -9   5 2.19359 3.55702   3
  -1  -9   5 -2.7371 3.23657   1
  -1  -9   5 -2.6162 3.58376   5
   0   9  -5 21.4676 5.24019   3
   0   9  -5 21.3431 5.55021   4
   0   9  -5 11.0747 3.35157   2
   0   9  -5 16.0913 3.66724   1
   0   9  -5 11.6539 3.41356   5
   0  -9   5 20.5429 5.05877   2
   0  -9   5 13.7639 3.60735   5
   0  -9   5 11.1484 3.55167   3
   0  -9   5 15.2777 3.91408   4
   0  -9   5 20.1528 5.34525   1
  -1   9  -5 9.21572 3.35337   5
  -1   9  -5 12.0476 3.49068   4
  -1   9  -5 14.5769 3.56587   1
  -1   9  -5 22.1409 5.33609   3
  -1   9  -5 9.29152 3.30645   2
   1  -9   5 4.97288 3.62624   5
   1  -9   5 8.00221 3.58477   4
   1  -9   5 7.33773 3.68384   1
   1  -9   5 9.70554 3.33718   2
   1  -9   5 9.46979 3.37677   3
  -2   9  -5 42.6072 5.89622   5
  -2   9  -5 49.5285 6.10387   3
  -2   9  -5 34.8657 5.88250   1
  -2   9  -5 51.9893 6.27632   4
  -2   9  -5 39.3565 5.89408   2
   2  -9   5 40.0965 6.06226   3
   2  -9   5 47.1236 6.01126   2
   2  -9   5 41.2323 6.29199   5
   2  -9   5 48.9286 5.81439   4
   2  -9   5 41.5150 6.48121   1
  -3   9  -5 27.9631 6.70922   4
  -3   9  -5 27.0760 6.70034   3
  -3   9  -5 34.6461 6.77433   2
  -3   9  -5 38.9689 7.35033   1
   3  -9   5 29.0739 6.30774   3
   3  -9   5 22.2477 4.84354   4
   3  -9   5 30.8845 7.98813   1
   3  -9   5 25.2134 4.84566   2
  -4   9  -5 1.22160 4.82236   3
  -4   9  -5 5.22189 4.53005   2
   4  -9   5 2.35530 4.86153   4
   4  -9   5 0.89083 5.27457   2
   5   8  -5 19.3630 4.73816   1
   5   8  -5 14.3352 4.75966   5
  -5  -8   5 10.6888 4.29292   3
  -5  -8   5 10.7894 4.24916   5
   4   8  -5 56.6906 7.65637   1
   4   8  -5 62.0733 6.83256   5
  -4  -8   5 72.8500 7.07595   3
  -4  -8   5 53.9242 6.63107   5
   3   8  -5 342.236 11.0010   5
   3   8  -5 319.796 10.8881   1
  -3  -8   5 323.989 10.7057   3
  -3  -8   5 329.818 10.9602   5
   2   8  -5 209.012 7.18725   4
   2   8  -5 219.332 8.68517   5
   2   8  -5 219.923 8.78991   1
  -2  -8   5 213.231 8.69525   5
  -2  -8   5 217.614 8.46883   3
  -2  -8   5 215.934 8.64848   1
   1   8  -5 71.0814 5.69863   1
   1   8  -5 65.8254 4.03318   2
   1   8  -5 78.7997 6.01660   5
   1   8  -5 57.5338 4.92959   4
  -1  -8   5 60.7271 5.71443   3
  -1  -8   5 63.2918 5.53168   1
  -1  -8   5 65.0441 4.26061   2
  -1  -8   5 58.8278 5.65487   5
   0   8  -5 28.7185 4.75733   5
   0   8  -5 35.7235 4.93537   3
   0   8  -5 28.2480 4.75226   1
   0   8  -5 27.6874 4.71849   4
   0   8  -5 37.8641 4.05637   2
   0  -8   5 28.7594 4.70229   5
   0  -8   5 29.1787 5.15585   4
   0  -8   5 21.7769 4.73789   1
   0  -8   5 20.6043 5.09053   3
   0  -8   5 21.1780 4.28511   2
  -1   8  -5 40.4270 5.12280   4
  -1   8  -5 49.4588 5.15324   5
  -1   8  -5 38.9769 5.02170   3
  -1   8  -5 32.0232 4.99974   1
  -1   8  -5 38.5613 5.03066   2
   1  -8   5 40.6832 5.06520   3
   1  -8   5 42.7691 5.33206   4
   1  -8   5 42.6989 5.07719   1
   1  -8   5 52.3760 5.33181   5
   1  -8   5 50.8493 5.31903   2
  -2   8  -5 7.36373 3.03380   4
  -2   8  -5 0.85661 2.95390   1
  -2   8  -5 2.65081 2.84154   5
  -2   8  -5 4.03808 2.99070   3
  -2   8  -5 -0.1239 3.36753   2
   2  -8   5 -1.0429 3.04346   4
   2  -8   5 3.59802 3.35821   2
   2  -8   5 -2.4635 2.98441   5
   2  -8   5 1.19089 2.95054   3
   2  -8   5 1.13327 3.33794   1
  -3   8  -5 96.1421 7.22670   2
  -3   8  -5 95.4335 6.92545   3
  -3   8  -5 103.590 6.17507   1
   3  -8   5 102.268 7.51930   2
   3  -8   5 106.010 6.66569   1
   3  -8   5 105.298 7.04607   4
   3  -8   5 101.935 7.07286   3
  -4   8  -5 7.07435 4.06804   2
  -4   8  -5 7.36235 4.09818   3
   4  -8   5 5.90157 4.21465   4
   4  -8   5 1.37100 4.54539   2
  -5   8  -5 1.81022 4.63997   2
  -5   8  -5 9.81779 4.49936   3
   5  -8   5 -0.7517 5.18502   4
   5  -8   5 1.49896 5.02852   2
   6   7  -5 49.1825 8.14015   1
   6   7  -5 42.6966 8.46799   5
  -6  -7   5 43.0329 7.88608   3
  -6  -7   5 45.8430 7.46109   5
   5   7  -5 6.27719 4.09808   5
   5   7  -5 -5.4726 3.58967   1
  -5  -7   5 1.31007 3.60770   3
  -5  -7   5 -5.3105 3.37720   5
   4   7  -5 2.76281 3.04680   5
   4   7  -5 9.03752 3.63219   1
  -4  -7   5 7.49993 3.25247   5
  -4  -7   5 13.0030 3.61877   3
   3   7  -5 78.6781 4.45433   4
   3   7  -5 76.4064 5.94152   5
   3   7  -5 83.4143 6.33498   1
  -3  -7   5 73.1396 6.13465   3
  -3  -7   5 78.8039 5.95624   5
   2   7  -5 549.576 12.0329   4
   2   7  -5 560.206 13.7184   1
   2   7  -5 563.034 13.6431   5
  -2  -7   5 558.992 13.3025   3
  -2  -7   5 543.445 13.6331   1
  -2  -7   5 557.585 13.7147   5
   1   7  -5 196.075 5.69569   2
   1   7  -5 204.435 6.59404   4
   1   7  -5 201.862 7.31920   5
   1   7  -5 209.348 7.28037   1
  -1  -7   5 194.538 7.31286   5
  -1  -7   5 195.726 7.17342   1
  -1  -7   5 203.255 5.82989   2
  -1  -7   5 196.405 7.28753   3
   0   7  -5 17.2010 3.55353   2
   0   7  -5 31.0069 3.97465   1
   0   7  -5 21.4970 4.05793   5
   0   7  -5 22.5785 3.81628   4
   0  -7   5 20.3866 3.53456   2
   0  -7   5 30.0344 4.36872   3
   0  -7   5 16.2540 4.00757   5
   0  -7   5 30.4897 3.85118   4
   0  -7   5 25.4258 4.00790   1
  -1   7  -5 3.07408 2.07140   1
  -1   7  -5 5.75074 2.35666   2
  -1   7  -5 4.39141 2.51112   3
  -1   7  -5 0.42108 2.27554   5
  -1   7  -5 3.96047 2.31220   4
   1  -7   5 6.23579 2.53199   5
   1  -7   5 5.97628 2.40755   1
   1  -7   5 4.39493 2.49033   2
   1  -7   5 4.87153 2.62339   4
   1  -7   5 7.09269 2.51392   3
  -2   7  -5 572.871 13.5280   2
  -2   7  -5 571.977 12.7635   1
  -2   7  -5 577.249 12.5055   5
  -2   7  -5 561.970 13.6292   3
   2  -7   5 576.087 13.4197   4
   2  -7   5 569.801 12.5588   5
   2  -7   5 573.274 12.9106   1
   2  -7   5 580.570 13.5633   2
   2  -7   5 566.818 13.7358   3
  -3   7  -5 -1.0042 2.17494   1
  -3   7  -5 4.10014 3.12763   2
  -3   7  -5 0.38424 3.27598   3
   3  -7   5 1.01201 3.30054   3
   3  -7   5 6.97788 2.57313   1
   3  -7   5 0.10382 2.86346   4
   3  -7   5 4.15204 3.18998   2
  -4   7  -5 3.01785 3.52652   2
  -4   7  -5 -2.5946 3.44200   3
   4  -7   5 -1.2141 3.45791   4
   4  -7   5 1.06288 3.61975   2
  -5   7  -5 7.57604 4.17034   3
  -5   7  -5 -1.4765 4.06138   2
   5  -7   5 -0.0718 4.13958   4
   5  -7   5 -0.7939 3.89852   2
   6   6  -5 178.195 9.91987   1
   6   6  -5 185.909 9.57572   5
  -6  -6   5 173.994 9.06645   5
  -6  -6   5 170.623 8.83169   3
   5   6  -5 162.811 8.06503   5
   5   6  -5 172.744 8.46533   1
  -5  -6   5 158.571 7.92955   3
  -5  -6   5 160.535 7.91505   5
   4   6  -5 1.23724 2.80613   5
   4   6  -5 4.80865 3.07049   1
  -4  -6   5 -0.0228 2.66173   3
  -4  -6   5 -0.4660 2.54304   5
   3   6  -5 94.4096 5.84693   1
   3   6  -5 86.6421 5.72092   5
   3   6  -5 91.9233 4.10394   4
  -3  -6   5 84.5729 5.64379   5
  -3  -6   5 89.0403 5.58487   3
   2   6  -5 83.3337 4.00295   4
   2   6  -5 87.9637 3.16459   2
   2   6  -5 92.3949 5.26207   5
   2   6  -5 84.1849 5.18835   1
  -2  -6   5 90.0751 5.23975   5
  -2  -6   5 68.9577 3.17281   2
  -2  -6   5 81.2713 5.03824   3
  -2  -6   5 81.8241 4.92883   1
   1   6  -5 422.815 10.5071   5
   1   6  -5 431.697 9.55783   4
   1   6  -5 430.158 10.5306   1
   1   6  -5 423.139 9.01283   2
  -1  -6   5 425.792 9.05743   2
  -1  -6   5 414.909 10.4562   5
  -1  -6   5 439.301 9.59619   4
  -1  -6   5 436.089 10.6784   3
  -1  -6   5 437.628 10.6603   1
   0   6  -5 184.522 5.82801   4
   0   6  -5 189.181 6.21978   1
   0   6  -5 187.346 5.65696   2
   0   6  -5 184.871 6.20709   5
   0  -6   5 182.888 5.66795   2
   0  -6   5 188.348 6.64801   3
   0  -6   5 186.775 6.23398   5
   0  -6   5 194.297 6.32674   1
   0  -6   5 193.597 5.82079   4
  -1   6  -5 13.4236 3.17172   4
  -1   6  -5 13.9260 3.59392   3
  -1   6  -5 16.5687 3.12068   5
  -1   6  -5 17.2520 3.07910   1
   1  -6   5 15.6117 3.45369   2
   1  -6   5 16.6615 3.67294   3
   1  -6   5 17.9794 3.20033   5
   1  -6   5 19.6797 3.08074   4
   1  -6   5 14.1697 3.17852   1
  -2   6  -5 3.22036 1.83974   5
  -2   6  -5 -1.1503 2.15183   3
  -2   6  -5 -0.1142 1.95903   1
   2  -6   5 2.29122 2.29547   3
   2  -6   5 1.86387 1.81645   5
   2  -6   5 3.80923 1.95869   1
   2  -6   5 2.14420 2.17182   2
   2  -6   5 8.50200 2.47707   4
  -3   6  -5 614.339 12.2216   5
  -3   6  -5 626.808 14.8315   3
  -3   6  -5 620.546 12.6891   1
   3  -6   5 627.105 14.8313   3
   3  -6   5 613.781 14.1881   4
   3  -6   5 606.333 12.3048   5
   3  -6   5 598.028 12.7228   1
   3  -6   5 641.033 14.6822   2
  -4   6  -5 65.9242 6.19767   3
   4  -6   5 60.7294 5.94719   4
   4  -6   5 75.0001 6.07802   2
   4  -6   5 65.4906 6.02022   3
  -5   6  -5 8.49386 3.98217   3
   5  -6   5 14.7753 3.97208   2
   5  -6   5 12.6487 4.18324   4
  -6   6  -5 3.20895 4.39345   3
  -6   6  -5 1.51345 4.48653   2
   6  -6   5 6.94020 4.77032   4
   6  -6   5 10.8436 4.58762   2
   7   5  -5 7.22949 4.35666   5
   7   5  -5 3.95405 4.96831   1
  -7  -5   5 4.50105 5.15804   3
  -7  -5   5 8.99225 4.65882   5
   6   5  -5 7.06590 3.77198   5
   6   5  -5 -4.4676 3.88255   1
  -6  -5   5 -5.1380 3.54843   5
  -6  -5   5 -0.1743 3.79855   3
   5   5  -5 69.0034 5.89996   5
   5   5  -5 76.5004 6.20818   1
  -5  -5   5 77.8597 6.12072   5
  -5  -5   5 65.2210 6.26051   3
   4   5  -5 19.7243 3.03293   4
   4   5  -5 14.1264 3.09955   1
   4   5  -5 15.3684 3.17159   5
  -4  -5   5 18.9267 4.17835   5
  -4  -5   5 23.6622 4.48328   3
   3   5  -5 45.0416 4.55338   1
   3   5  -5 46.0021 3.00593   4
   3   5  -5 51.0556 4.42636   5
  -3  -5   5 50.0122 4.24044   5
  -3  -5   5 40.8976 4.19223   3
   2   5  -5 898.964 16.2404   4
   2   5  -5 892.837 17.9759   5
   2   5  -5 903.193 15.3478   2
   2   5  -5 916.605 18.1682   1
  -2  -5   5 870.172 17.9053   5
  -2  -5   5 886.077 17.9453   3
  -2  -5   5 880.242 15.3350   2
   1   5  -5 20.0004 3.04320   5
   1   5  -5 22.3298 2.28719   2
   1   5  -5 27.0412 3.22487   1
  -1  -5   5 24.2448 3.31582   3
  -1  -5   5 24.1992 2.41193   2
  -1  -5   5 20.3937 3.22326   1
  -1  -5   5 22.9411 3.17658   5
   0   5  -5 65.9478 3.31449   4
   0   5  -5 71.1789 3.60588   1
   0   5  -5 68.5334 3.72523   5
   0  -5   5 60.2523 3.52305   1
   0  -5   5 69.7195 3.38137   4
   0  -5   5 66.8155 4.06121   3
   0  -5   5 67.9198 3.27939   2
   0  -5   5 69.4637 3.69791   5
  -1   5  -5 806.671 15.6063   5
  -1   5  -5 805.124 15.4201   1
  -1   5  -5 802.640 16.5387   3
   1  -5   5 805.262 15.4178   1
   1  -5   5 824.068 15.7121   5
   1  -5   5 803.684 15.5942   4
   1  -5   5 806.238 15.8407   2
   1  -5   5 795.673 16.5090   3
  -2   5  -5 13.5671 2.69261   3
  -2   5  -5 14.6316 2.39497   5
  -2   5  -5 20.5470 2.54749   1
   2  -5   5 14.3506 3.31775   2
   2  -5   5 13.9406 3.38043   3
   2  -5   5 11.7946 3.03877   4
   2  -5   5 17.6317 2.51050   5
   2  -5   5 10.5182 2.56080   1
  -3   5  -5 414.856 11.0890   3
  -3   5  -5 428.777 9.06923   1
  -3   5  -5 439.802 8.89129   5
   3  -5   5 425.867 11.1603   3
   3  -5   5 431.874 9.12742   1
   3  -5   5 421.686 10.9353   2
   3  -5   5 412.074 10.5486   4
  -4   5  -5 240.950 9.05062   3
   4  -5   5 233.333 9.06798   3
   4  -5   5 239.083 8.44313   4
   4  -5   5 244.806 8.75299   2
  -5   5  -5 1.12536 3.17805   3
   5  -5   5 -1.4460 3.22593   4
   5  -5   5 2.16937 3.22563   2
  -6   5  -5 19.4800 4.73234   3
   6  -5   5 23.1299 4.88682   4
   6  -5   5 21.5229 4.79626   2
   7   4  -5 2.14934 3.76248   5
   7   4  -5 -0.8833 4.84812   1
  -7  -4   5 -2.8787 4.76156   3
   6   4  -5 20.7243 4.25127   1
   6   4  -5 26.5785 5.06436   5
  -6  -4   5 23.9113 4.45832   3
  -6  -4   5 32.4226 5.36531   5
   5   4  -5 18.0155 3.27453   4
   5   4  -5 14.7016 3.08511   5
   5   4  -5 15.6257 3.46005   1
  -5  -4   5 19.2147 4.75519   3
  -5  -4   5 10.1967 2.91304   5
   4   4  -5 31.7245 4.31625   1
   4   4  -5 26.3445 3.99985   5
   4   4  -5 36.5255 2.90064   4
  -4  -4   5 21.4763 3.96980   3
  -4  -4   5 33.3653 4.15209   5
   3   4  -5 96.3665 3.29944   4
   3   4  -5 94.1001 4.85194   1
   3   4  -5 93.4719 4.66281   5
  -3  -4   5 93.7433 4.77723   5
  -3  -4   5 91.8357 4.98969   3
   2   4  -5 28.4042 3.17304   1
   2   4  -5 21.7767 2.04787   4
   2   4  -5 30.4436 3.18247   5
  -2  -4   5 21.3674 3.07974   3
  -2  -4   5 24.5294 1.63570   2
  -2  -4   5 23.4828 3.17794   5
   1   4  -5 637.365 11.7510   4
   1   4  -5 628.654 13.0508   5
   1   4  -5 628.530 12.9263   1
  -1  -4   5 626.670 13.3186   3
  -1  -4   5 626.667 13.0819   5
  -1  -4   5 641.600 11.7685   4
  -1  -4   5 643.804 11.6781   2
   0   4  -5 189.887 5.50042   5
   0   4  -5 196.708 4.95567   4
   0   4  -5 191.591 5.27430   1
   0  -4   5 191.173 5.97692   3
   0  -4   5 193.950 5.36205   1
   0  -4   5 197.945 5.00458   4
   0  -4   5 190.672 5.08740   2
   0  -4   5 189.945 5.54470   5
  -1   4  -5 0.69979 1.19412   1
  -1   4  -5 1.42510 1.16571   5
  -1   4  -5 -1.7589 1.53869   3
   1  -4   5 0.92667 1.20543   1
   1  -4   5 0.49844 1.24710   4
   1  -4   5 -2.3785 1.45628   3
   1  -4   5 -1.5475 1.17478   5
   1  -4   5 1.38308 1.43875   2
  -2   4  -5 76.7080 3.10643   5
  -2   4  -5 74.2989 3.00230   1
  -2   4  -5 76.2340 4.46563   3
   2  -4   5 76.5661 3.15331   5
   2  -4   5 80.0453 3.13784   1
   2  -4   5 75.7926 3.79278   4
   2  -4   5 83.8837 4.51106   3
   2  -4   5 75.4464 4.03081   2
  -3   4  -5 26.1638 3.73786   3
  -3   4  -5 22.7724 2.25229   5
  -3   4  -5 27.8578 2.34343   1
   3  -4   5 22.7025 2.43671   1
   3  -4   5 21.5125 3.67556   3
   3  -4   5 29.1001 3.54830   4
   3  -4   5 27.5196 3.63351   2
  -4   4  -5 1063.34 21.7939   3
   4  -4   5 1050.52 21.7143   3
   4  -4   5 1035.74 21.0010   4
   4  -4   5 1023.72 21.2535   2
  -5   4  -5 224.616 8.96459   3
   5  -4   5 234.253 8.78911   2
   5  -4   5 231.768 8.59881   4
  -6   4  -5 114.626 8.16729   3
   6  -4   5 111.153 7.48633   2
   6  -4   5 108.771 7.43125   4
  -7   4  -5 5.07021 4.65396   3
   7  -4   5 2.78183 4.37646   2
   7  -4   5 2.81714 4.42647   4
   7   3  -5 36.9805 6.14711   5
   7   3  -5 35.1394 5.63581   1
  -7  -3   5 38.0560 8.32062   3
   6   3  -5 8.36430 3.42957   1
   6   3  -5 10.5926 3.48247   5
  -6  -3   5 12.7445 3.82278   3
   5   3  -5 122.757 4.57745   4
   5   3  -5 124.649 6.61865   1
   5   3  -5 128.063 5.80686   5
  -5  -3   5 126.874 6.58896   3
  -5  -3   5 131.565 5.93952   5
   4   3  -5 283.095 8.50538   1
   4   3  -5 277.681 6.31142   4
   4   3  -5 276.544 7.91997   5
  -4  -3   5 275.522 8.37421   3
  -4  -3   5 273.154 7.92879   5
   3   3  -5 786.181 13.2681   4
   3   3  -5 690.607 15.3845   1
   3   3  -5 744.801 15.3021   5
  -3  -3   5 761.582 15.6276   3
  -3  -3   5 767.914 15.3468   5
   2   3  -5 143.857 4.96662   1
   2   3  -5 152.554 3.38333   4
   2   3  -5 143.512 4.97017   5
  -2  -3   5 149.244 5.08495   3
  -2  -3   5 144.566 5.04643   5
   1   3  -5 827.014 14.2124   4
   1   3  -5 806.816 15.7659   5
   1   3  -5 837.519 15.6556   1
  -1  -3   5 835.180 14.4851   2
  -1  -3   5 809.136 15.7780   5
  -1  -3   5 821.184 16.0983   3
   0   3  -5 501.154 9.90004   1
   0   3  -5 493.602 10.1904   5
   0  -3   5 496.094 10.7836   3
   0  -3   5 494.608 9.73624   2
   0  -3   5 490.540 9.32389   4
   0  -3   5 493.515 10.2132   5
  -1   3  -5 37.6804 2.08635   1
  -1   3  -5 38.3347 2.33221   5
   1  -3   5 33.9425 2.10505   1
   1  -3   5 33.3166 2.46294   2
   1  -3   5 30.6257 2.25221   5
   1  -3   5 34.6167 2.93983   3
   1  -3   5 32.4843 2.26997   4
  -2   3  -5 58.0844 2.29672   1
  -2   3  -5 49.2779 3.53559   3
  -2   3  -5 53.3635 2.54371   5
   2  -3   5 54.8759 2.34723   1
   2  -3   5 51.9337 3.31328   2
   2  -3   5 52.7032 3.50455   3
   2  -3   5 57.9969 2.97784   4
  -3   3  -5 126.895 3.51966   5
  -3   3  -5 132.855 3.33264   1
  -3   3  -5 121.229 5.21939   3
   3  -3   5 136.468 5.45877   3
   3  -3   5 130.460 5.24911   2
   3  -3   5 128.924 3.34661   1
   3  -3   5 123.383 5.01242   4
  -4   3  -5 44.7881 4.80043   3
   4  -3   5 57.8183 4.98682   3
   4  -3   5 37.1867 4.00248   4
   4  -3   5 52.6640 4.54917   2
  -5   3  -5 -1.0498 2.81487   3
   5  -3   5 1.53866 3.17269   2
   5  -3   5 0.76550 2.98245   4
  -6   3  -5 9.36513 3.80720   3
   6  -3   5 1.84099 3.08489   2
   6  -3   5 7.29857 3.54207   4
  -7   3  -5 1.26975 4.28270   3
   7  -3   5 -1.7162 4.03431   4
   7  -3   5 -2.4562 3.69432   2
   7   2  -5 126.058 9.04056   1
   7   2  -5 113.490 7.24727   5
  -7  -2   5 123.641 9.16986   3
   6   2  -5 72.7789 4.49414   4
   6   2  -5 75.4094 5.47376   5
   6   2  -5 69.7324 6.20678   1
  -6  -2   5 69.1532 6.41056   3
   5   2  -5 222.832 8.03344   1
   5   2  -5 232.922 7.43493   5
   5   2  -5 222.187 5.96676   4
  -5  -2   5 212.253 7.98603   3
   4   2  -5 -2.7653 1.76901   1
   4   2  -5 -2.2050 1.67321   5
   4   2  -5 -0.9513 1.24679   4
  -4  -2   5 1.58456 1.98229   3
   3   2  -5 40.6333 3.28618   1
   3   2  -5 41.1802 1.89651   4
   3   2  -5 35.9683 2.93960   5
  -3  -2   5 38.8761 2.99185   5
  -3  -2   5 31.7408 3.17512   3
   2   2  -5 215.610 5.95266   5
   2   2  -5 225.546 6.10558   1
  -2  -2   5 220.510 6.00688   5
  -2  -2   5 225.310 4.39678   2
  -2  -2   5 221.289 6.23064   3
   1   2  -5 2.61118 1.12371   1
   1   2  -5 1.94009 1.06325   5
  -1  -2   5 5.17870 1.31305   3
  -1  -2   5 1.64466 1.04986   5
  -1  -2   5 2.85836 0.95293   2
   0   2  -5 12.1644 1.83951   5
   0   2  -5 10.1039 1.61101   1
   0  -2   5 12.7630 1.71503   2
   0  -2   5 11.9459 1.38642   4
   0  -2   5 19.3950 2.15161   3
  -1   2  -5 1190.11 20.4596   5
  -1   2  -5 1121.54 19.7359   1
   1  -2   5 1154.62 21.4100   3
   1  -2   5 1174.21 20.8246   2
   1  -2   5 1179.06 20.3269   4
  -2   2  -5 295.749 7.62804   3
  -2   2  -5 301.714 6.27038   5
  -2   2  -5 304.624 5.51711   1
   2  -2   5 293.471 7.29389   2
   2  -2   5 292.976 6.92757   4
   2  -2   5 284.884 7.59581   3
  -3   2  -5 157.788 5.72673   3
  -3   2  -5 157.332 3.80024   5
   3  -2   5 148.534 5.16317   4
   3  -2   5 152.187 5.62260   3
   3  -2   5 161.557 5.52476   2
  -4   2  -5 757.582 16.4362   3
   4  -2   5 774.350 16.1096   4
   4  -2   5 748.068 15.9497   2
   4  -2   5 766.905 16.5066   3
  -5   2  -5 98.3793 6.12109   3
   5  -2   5 92.1248 5.79021   4
   5  -2   5 84.9508 5.54139   2
  -6   2  -5 102.360 7.08242   3
   6  -2   5 107.197 6.81938   2
   6  -2   5 97.3192 6.83446   4
  -7   2  -5 75.3588 8.28887   3
   7  -2   5 77.3840 7.51772   4
   7  -2   5 88.7411 7.33523   2
   7   1  -5 525.485 14.8256   1
   7   1  -5 526.118 13.4242   5
  -7  -1   5 553.291 15.5842   3
   6   1  -5 207.517 8.41205   1
   6   1  -5 201.326 7.51615   5
   6   1  -5 215.918 6.73171   4
  -6  -1   5 212.240 8.82473   3
   5   1  -5 142.648 6.58985   1
   5   1  -5 141.213 5.81454   5
   5   1  -5 154.777 4.83482   4
  -5  -1   5 136.067 6.56306   3
   4   1  -5 104.834 5.09673   1
   4   1  -5 103.904 3.43192   4
   4   1  -5 111.267 4.64479   5
  -4  -1   5 105.248 5.11255   3
  -4  -1   5 105.798 3.03062   2
   3   1  -5 434.267 9.79082   5
   3   1  -5 456.254 8.18874   4
   3   1  -5 438.090 10.1442   1
  -3  -1   5 462.005 8.16256   2
  -3  -1   5 446.619 10.2983   3
   2   1  -5 925.719 17.2628   1
   2   1  -5 928.344 17.2169   5
  -2  -1   5 937.339 15.7528   2
  -2  -1   5 893.099 17.4329   3
   1   1  -5 336.214 7.28788   1
   1   1  -5 333.108 7.45905   5
  -1  -1   5 330.940 7.68276   3
  -1  -1   5 343.751 6.68741   2
   0   1  -5 1146.43 20.0196   5
   0   1  -5 1139.09 19.4870   1
   0  -1   5 1119.91 18.8353   4
   0  -1   5 1112.21 20.4978   3
   0  -1   5 1128.23 19.7066   2
  -1   1  -5 1.95310 0.69311   1
  -1   1  -5 7.34359 1.52041   5
   1  -1   5 2.82242 0.91871   4
   1  -1   5 1.63063 1.18455   3
   1  -1   5 0.98999 1.05528   2
  -2   1  -5 1521.76 25.5988   5
  -2   1  -5 1486.50 27.0111   3
   2  -1   5 1532.80 26.4033   4
   2  -1   5 1532.90 26.8057   2
   2  -1   5 1486.70 27.0178   3
  -3   1  -5 237.789 5.02192   5
  -3   1  -5 229.196 6.77268   3
   3  -1   5 231.174 6.31575   4
   3  -1   5 233.525 6.85629   3
   3  -1   5 219.074 6.40088   2
  -4   1  -5 2.57876 2.08506   3
   4  -1   5 4.31344 1.92915   4
   4  -1   5 2.91094 1.99298   2
   4  -1   5 4.14867 2.16878   3
  -5   1  -5 480.269 12.4067   3
   5  -1   5 488.564 11.9109   2
   5  -1   5 472.861 12.0558   4
  -6   1  -5 168.720 7.85450   3
   6  -1   5 160.825 7.77802   4
   6  -1   5 166.053 7.48037   2
  -7   1  -5 0.16729 4.22741   3
   7  -1   5 -6.0229 3.64691   2
   7  -1   5 2.15707 3.79303   4
   7   0  -5 1.88844 3.07163   4
   7   0  -5 2.17110 3.33293   5
   7   0  -5 7.14613 4.22124   1
  -7   0   5 4.26278 4.11023   3
   6   0  -5 543.683 12.7329   5
   6   0  -5 529.692 13.9469   1
   6   0  -5 552.340 12.1158   4
  -6   0   5 545.740 14.1652   3
   5   0  -5 12.8040 2.79772   1
   5   0  -5 13.3954 2.74489   4
   5   0  -5 11.9749 2.55110   5
  -5   0   5 13.3681 3.13600   3
  -5   0   5 15.0788 2.70446   2
   4   0  -5 20.8503 2.90935   5
   4   0  -5 21.7036 3.26381   1
   4   0  -5 18.3483 2.11741   4
  -4   0   5 14.9926 2.23813   2
  -4   0   5 16.2478 3.33402   3
   3   0  -5 39.9739 1.96184   4
   3   0  -5 43.8777 2.87987   5
   3   0  -5 35.5166 3.00106   1
  -3   0   5 42.8084 2.23222   2
  -3   0   5 38.9688 3.16935   3
   2   0  -5 2994.13 50.0124   5
   2   0  -5 3017.36 50.1693   1
  -2   0   5 2934.49 50.2936   3
  -2   0   5 2978.37 48.9297   2
   1   0  -5 118.013 3.73871   5
   1   0  -5 115.671 3.60108   1
  -1   0   5 116.411 3.26267   2
  -1   0   5 120.148 3.94356   3
   0   0  -5 62.4767 2.56108   5
   0   0  -5 66.3111 2.29314   1
   0   0   5 63.9177 2.85166   3
   0   0   5 64.3545 2.53958   2
   0   0   5 66.9112 1.95832   4
  -1   0  -5 426.700 7.87040   1
  -1   0  -5 449.779 8.77821   5
   1   0   5 449.236 9.36511   3
   1   0   5 457.354 8.63349   4
   1   0   5 447.606 9.11190   2
  -2   0  -5 64.0989 2.49524   5
  -2   0  -5 63.5457 3.09307   3
   2   0   5 63.7205 2.85335   4
   2   0   5 66.2010 3.09790   3
   2   0   5 61.3375 3.02764   2
  -3   0  -5 515.628 9.55874   5
  -3   0  -5 501.673 11.1129   3
   3   0   5 500.327 10.9934   2
   3   0   5 508.094 10.8729   4
   3   0   5 512.133 11.1355   3
  -4   0  -5 16.3265 1.81218   5
  -4   0  -5 17.2338 3.49959   3
   4   0   5 13.4629 2.85077   2
   4   0   5 16.8741 3.18873   4
  -5   0  -5 113.540 5.70701   3
   5   0   5 111.395 5.89602   4
   5   0   5 112.364 5.53246   2
  -6   0  -5 213.571 8.60003   3
   6   0   5 196.878 8.45701   4
   6   0   5 210.723 8.18881   2
  -7   0  -5 16.6203 4.65878   3
   7   0   5 11.2980 4.21534   4
   7   0   5 21.0552 4.00769   2
   7  -1  -5 69.2139 7.34113   1
   7  -1  -5 61.4304 5.92277   4
  -7   1   5 61.1464 7.83810   3
   6  -1  -5 10.0847 2.76993   5
   6  -1  -5 5.65655 2.57753   4
   6  -1  -5 5.72529 3.10838   1
  -6   1   5 4.52763 2.38552   2
  -6   1   5 10.4374 3.46023   3
   5  -1  -5 93.2278 5.52825   1
   5  -1  -5 86.9023 4.53650   5
   5  -1  -5 93.6127 4.37821   4
  -5   1   5 85.3027 5.84687   3
  -5   1   5 97.4763 3.98390   2
   4  -1  -5 5.35993 1.71029   5
   4  -1  -5 7.16888 2.10666   1
   4  -1  -5 5.83314 1.46420   4
  -4   1   5 6.18239 2.02689   3
  -4   1   5 6.34657 1.51594   2
   3  -1  -5 142.736 4.56650   5
   3  -1  -5 147.816 3.77302   4
   3  -1  -5 139.939 4.92542   1
  -3   1   5 142.058 4.10046   2
  -3   1   5 137.128 5.08886   3
   2  -1  -5 2684.41 45.1303   5
   2  -1  -5 2700.34 43.7315   4
   2  -1  -5 2709.74 45.3697   1
  -2   1   5 2695.54 43.7348   4
  -2   1   5 2674.15 44.4564   2
  -2   1   5 2599.16 45.2593   3
   1  -1  -5 207.858 5.13523   1
   1  -1  -5 202.461 5.19073   5
  -1   1   5 209.637 4.16531   4
  -1   1   5 201.721 5.21772   3
  -1   1   5 207.834 4.92836   2
   0  -1  -5 3.24326 0.91720   1
   0  -1  -5 0.44358 0.86285   5
   0   1   5 0.78486 0.90902   3
   0   1   5 0.35897 0.86958   2
   0   1   5 1.37072 0.74899   4
  -1  -1  -5 85.8244 3.01785   5
  -1  -1  -5 91.2853 2.45034   1
   1   1   5 83.9235 3.15033   3
   1   1   5 86.9274 2.90708   4
   1   1   5 83.0577 3.11370   2
  -2  -1  -5 0.30223 0.98380   5
  -2  -1  -5 -1.3196 1.08355   3
   2   1   5 -0.1099 1.06604   4
   2   1   5 1.16936 1.04509   2
   2   1   5 0.21038 1.10339   3
  -3  -1  -5 223.692 6.18155   3
  -3  -1  -5 218.277 5.18314   5
   3   1   5 222.587 6.12407   3
   3   1   5 220.179 6.17066   4
   3   1   5 218.461 6.18407   2
  -4  -1  -5 33.8728 2.28053   5
  -4  -1  -5 33.7429 3.47557   3
   4   1   5 25.2554 3.20185   4
   4   1   5 29.3325 3.47249   2
  -5  -1  -5 82.0225 3.17096   5
  -5  -1  -5 69.8306 4.91272   3
   5   1   5 79.4039 5.32641   4
   5   1   5 83.1716 4.87576   2
  -6  -1  -5 8.24557 3.13664   3
   6   1   5 0.03271 2.95276   4
   6   1   5 7.27549 2.77907   2
  -7  -1  -5 113.932 8.15003   3
   7   1   5 129.183 7.40867   2
   7   1   5 107.242 8.03848   4
  -8  -1  -5 9.91105 5.82602   3
   8   1   5 11.7452 4.85385   4
   8   1   5 6.78595 4.59185   2
   7  -2  -5 212.397 9.55866   1
   7  -2  -5 194.271 8.26968   4
  -7   2   5 202.265 9.98740   3
   6  -2  -5 163.915 6.31453   5
   6  -2  -5 174.964 7.96591   1
   6  -2  -5 168.880 6.73687   4
  -6   2   5 173.846 8.04756   3
  -6   2   5 160.446 6.35738   2
   5  -2  -5 108.388 4.75574   4
   5  -2  -5 97.2532 4.68202   5
   5  -2  -5 112.349 5.90735   1
  -5   2   5 106.687 4.65806   2
  -5   2   5 99.4775 5.74333   3
   4  -2  -5 42.6283 3.73936   1
   4  -2  -5 43.8656 3.13335   5
   4  -2  -5 35.5970 2.76464   4
  -4   2   5 46.7911 3.08862   2
  -4   2   5 44.9464 3.84882   3
   3  -2  -5 773.413 15.5993   1
   3  -2  -5 775.994 14.9508   5
   3  -2  -5 793.708 14.3726   4
  -3   2   5 769.416 15.5152   3
  -3   2   5 789.047 14.7687   2
   2  -2  -5 113.308 4.04444   1
   2  -2  -5 105.219 3.82632   5
   2  -2  -5 109.202 3.17024   4
  -2   2   5 115.859 3.71540   2
  -2   2   5 114.247 3.26395   4
  -2   2   5 109.382 3.84634   3
   1  -2  -5 3169.17 53.0683   5
   1  -2  -5 3289.73 53.0883   1
  -1   2   5 3157.53 52.8999   2
  -1   2   5 3119.45 52.8243   3
  -1   2   5 3190.52 52.1761   4
   0  -2  -5 144.743 4.20900   5
   0  -2  -5 144.333 3.92596   1
   0   2   5 147.675 4.29939   2
   0   2   5 161.595 3.89336   4
   0   2   5 140.864 3.94539   3
  -1  -2  -5 240.994 5.08235   1
  -1  -2  -5 230.885 5.59845   5
   1   2   5 225.761 5.42612   4
   1   2   5 223.008 5.33480   3
  -2  -2  -5 50.2790 1.94486   1
  -2  -2  -5 46.7175 2.49041   5
  -2  -2  -5 50.0964 2.56649   3
   2   2   5 49.8909 2.76285   2
   2   2   5 47.8271 2.53641   3
   2   2   5 52.3557 2.81718   4
  -3  -2  -5 1008.51 18.5431   3
  -3  -2  -5 989.564 17.9287   5
  -3  -2  -5 996.362 17.0090   1
   3   2   5 996.946 18.9735   4
   3   2   5 982.638 18.8353   2
   3   2   5 991.213 18.4873   3
   3   2   5 1021.73 17.0372   1
  -4  -2  -5 567.575 11.0450   5
  -4  -2  -5 562.866 12.2322   3
   4   2   5 565.913 12.4135   2
   4   2   5 577.521 10.4854   1
   4   2   5 559.226 12.6794   4
  -5  -2  -5 34.9468 4.05041   3
  -5  -2  -5 23.1227 2.81577   5
   5   2   5 18.5488 4.14830   4
   5   2   5 19.1549 3.85468   2
   5   2   5 21.8115 2.58894   1
  -6  -2  -5 31.3846 5.09144   3
   6   2   5 39.7944 5.40361   4
   6   2   5 35.8305 5.12174   2
  -7  -2  -5 22.1904 4.47594   3
   7   2   5 22.5692 4.62985   4
   7   2   5 23.4291 5.95481   2
  -8  -2  -5 33.8630 9.07391   3
   8   2   5 28.4483 5.63461   4
   7  -3  -5 30.0866 7.22827   1
   7  -3  -5 32.1910 6.12275   4
  -7   3   5 28.9497 6.01793   2
  -7   3   5 23.7991 4.87456   3
   6  -3  -5 90.0570 6.55596   1
   6  -3  -5 98.7371 5.45934   5
   6  -3  -5 94.2046 5.90468   4
  -6   3   5 83.4949 6.55203   3
  -6   3   5 80.5227 6.08690   2
   5  -3  -5 831.738 16.8300   4
   5  -3  -5 846.764 18.2570   1
   5  -3  -5 827.150 16.5436   5
  -5   3   5 852.921 18.2904   3
  -5   3   5 829.837 16.8873   2
   4  -3  -5 168.736 5.30876   5
   4  -3  -5 161.736 5.22081   4
   4  -3  -5 162.180 6.23019   1
  -4   3   5 155.433 5.40284   2
  -4   3   5 169.919 6.08926   3
   3  -3  -5 66.2721 3.81441   1
   3  -3  -5 62.2539 2.95423   4
   3  -3  -5 65.9488 3.29003   5
  -3   3   5 64.0354 3.34799   2
  -3   3   5 66.1991 3.61506   3
   2  -3  -5 159.432 4.34669   4
   2  -3  -5 158.687 4.74857   5
   2  -3  -5 152.921 5.02868   1
  -2   3   5 157.294 4.73944   2
  -2   3   5 157.993 4.71587   3
  -2   3   5 161.901 4.37714   4
   1  -3  -5 19.2592 2.20347   1
   1  -3  -5 22.2196 2.13506   5
   1  -3  -5 20.7087 1.89935   4
  -1   3   5 18.7832 1.91834   4
  -1   3   5 19.3741 2.12452   2
  -1   3   5 24.3374 1.98737   3
   0  -3  -5 1724.20 29.0510   1
   0  -3  -5 1698.08 29.3081   5
   0   3   5 1655.93 28.7886   4
   0   3   5 1654.63 29.2335   2
   0   3   5 1694.88 28.4673   3
  -1  -3  -5 10.5809 1.74859   1
  -1  -3  -5 10.8921 1.91218   5
   1   3   5 14.1374 1.94481   4
   1   3   5 11.4834 1.98361   2
   1   3   5 7.14052 1.52437   3
  -2  -3  -5 1155.43 20.0853   3
  -2  -3  -5 1147.03 19.9192   1
  -2  -3  -5 1166.35 20.6728   5
   2   3   5 1130.17 20.9079   2
   2   3   5 1138.18 20.9640   4
   2   3   5 1129.24 20.0327   3
  -3  -3  -5 1554.00 27.3249   5
  -3  -3  -5 1590.11 27.2939   3
  -3  -3  -5 1553.60 26.5326   1
   3   3   5 1544.29 27.9308   2
   3   3   5 1550.40 28.2136   4
   3   3   5 1565.68 26.5510   1
  -4  -3  -5 333.936 7.71321   5
  -4  -3  -5 336.080 8.29596   3
   4   3   5 326.243 8.96109   4
   4   3   5 332.546 8.64410   2
   4   3   5 334.443 7.23347   1
  -5  -3  -5 5.06667 1.80994   5
  -5  -3  -5 3.48235 2.37476   3
   5   3   5 3.15429 2.23920   2
   5   3   5 -0.1948 2.32318   4
   5   3   5 3.50635 1.85331   1
  -6  -3  -5 7.66840 3.15059   3
   6   3   5 7.81120 2.98512   2
   6   3   5 5.18028 3.08886   4
  -7  -3  -5 32.6006 6.33227   3
   7   3   5 27.7989 6.80803   4
   7   3   5 23.0915 5.88845   2
   7  -4  -5 59.3850 8.25455   1
   7  -4  -5 53.5163 6.80770   4
  -7   4   5 51.2939 6.59114   2
  -7   4   5 30.9254 7.43715   3
   6  -4  -5 72.4749 6.88822   1
   6  -4  -5 70.8419 5.72371   4
  -6   4   5 68.8349 5.94795   2
  -6   4   5 81.1324 6.79789   3
   5  -4  -5 247.723 8.57020   1
   5  -4  -5 248.400 7.78018   4
   5  -4  -5 230.910 7.19079   5
  -5   4   5 244.792 8.57642   3
  -5   4   5 239.657 7.90717   2
   4  -4  -5 110.945 4.79564   4
   4  -4  -5 120.913 5.60516   1
   4  -4  -5 110.341 4.70153   5
  -4   4   5 116.806 5.45069   3
  -4   4   5 121.883 5.27841   2
   3  -4  -5 2.01091 1.88916   1
   3  -4  -5 2.03966 1.44897   4
   3  -4  -5 1.87790 1.54788   5
  -3   4   5 1.14814 1.60582   3
  -3   4   5 3.24407 1.71852   2
  -3   4   5 -0.0112 1.48116   4
   2  -4  -5 237.584 6.03718   4
   2  -4  -5 234.076 6.28192   5
   2  -4  -5 242.927 6.78739   1
  -2   4   5 233.128 6.40442   2
  -2   4   5 240.362 6.10387   4
  -2   4   5 230.054 5.98446   3
   1  -4  -5 1200.20 21.5793   4
   1  -4  -5 1193.29 21.8724   5
   1  -4  -5 1212.74 22.0776   1
  -1   4   5 1206.31 21.5728   4
  -1   4   5 1211.77 21.0412   3
  -1   4   5 1210.43 21.9827   2
   0  -4  -5 73.6543 3.31519   1
   0  -4  -5 72.5459 3.29609   5
   0   4   5 62.4727 3.04629   4
   0   4   5 68.6107 3.24109   2
   0   4   5 71.9317 2.47519   3
  -1  -4  -5 282.891 6.93020   5
  -1  -4  -5 279.093 6.60125   1
   1   4   5 279.382 5.66189   3
   1   4   5 278.327 6.87431   4
   1   4   5 275.855 6.94578   2
  -2  -4  -5 17.4252 2.03315   1
  -2  -4  -5 22.2235 2.32688   5
  -2  -4  -5 19.2960 1.89064   3
   2   4   5 22.7582 2.67970   4
   2   4   5 20.4895 1.84050   3
   2   4   5 17.7786 2.34992   2
  -3  -4  -5 4.08490 1.32986   3
  -3  -4  -5 4.28697 1.57586   5
  -3  -4  -5 2.85008 1.30337   1
   3   4   5 0.94186 1.77596   4
   3   4   5 1.97257 1.76459   2
   3   4   5 5.31392 1.47564   1
  -4  -4  -5 1456.51 26.5090   5
  -4  -4  -5 1481.55 26.3689   3
  -4  -4  -5 1503.37 26.0429   1
   4   4   5 1467.03 27.1386   2
   4   4   5 1488.15 26.0193   1
   4   4   5 1459.82 27.7655   4
  -5  -4  -5 159.379 5.77322   5
  -5  -4  -5 155.707 6.15802   3
   5   4   5 159.624 6.23583   2
   5   4   5 159.315 5.51486   1
   5   4   5 154.969 7.11267   4
  -6  -4  -5 118.662 5.28656   5
  -6  -4  -5 106.003 6.55635   3
   6   4   5 105.753 6.68550   4
   6   4   5 102.383 6.37661   2
  -7  -4  -5 4.52579 3.62524   3
   7   4   5 1.65430 3.85103   4
   7   4   5 -2.5687 3.39381   2
   7  -5  -5 8.46751 4.33476   4
   7  -5  -5 7.82063 5.29112   1
  -7   5   5 8.21550 4.14777   2
  -7   5   5 11.1900 4.61462   3
   6  -5  -5 62.1808 6.67990   1
   6  -5  -5 50.4231 5.96245   4
  -6   5   5 40.3410 5.89163   2
  -6   5   5 33.9158 6.42369   3
   5  -5  -5 131.097 5.64335   5
   5  -5  -5 133.283 7.53766   1
   5  -5  -5 132.155 6.28598   4
  -5   5   5 119.438 6.28667   2
  -5   5   5 135.622 6.81523   3
   4  -5  -5 126.212 5.53038   4
   4  -5  -5 129.491 5.28584   5
   4  -5  -5 127.066 6.15394   1
  -4   5   5 125.195 5.78826   3
  -4   5   5 128.339 5.58863   2
   3  -5  -5 328.977 8.31893   4
   3  -5  -5 330.640 8.17571   5
   3  -5  -5 326.869 8.95484   1
  -3   5   5 316.339 8.13373   3
  -3   5   5 294.540 8.44981   2
  -3   5   5 331.648 8.32426   4
   2  -5  -5 17.4197 2.92327   1
   2  -5  -5 7.45136 1.69458   5
   2  -5  -5 12.2040 2.53843   4
  -2   5   5 7.50280 1.52634   3
  -2   5   5 7.01305 1.92399   2
  -2   5   5 14.8723 2.52926   4
   1  -5  -5 185.821 5.59626   4
   1  -5  -5 195.740 6.03129   1
   1  -5  -5 194.139 5.80269   5
  -1   5   5 196.834 5.67907   4
  -1   5   5 195.962 5.89667   2
  -1   5   5 194.174 4.78561   3
   0  -5  -5 3823.70 64.7784   5
   0  -5  -5 3998.71 64.9386   1
   0   5   5 3896.15 64.7643   4
   0   5   5 3809.12 64.8108   2
   0   5   5 3822.65 62.8516   3
  -1  -5  -5 43.5677 2.87190   1
   1   5   5 44.4770 3.07749   4
   1   5   5 49.7842 3.29434   2
  -2  -5  -5 47.6549 2.14112   3
  -2  -5  -5 44.1280 2.85167   1
  -2  -5  -5 42.4486 3.22720   5
   2   5   5 45.9111 3.52331   4
   2   5   5 41.7092 3.17877   2
  -3  -5  -5 153.535 4.25310   3
  -3  -5  -5 148.429 4.88421   1
  -3  -5  -5 148.773 5.30499   5
   3   5   5 137.979 5.77892   4
   3   5   5 144.998 5.34038   2
   3   5   5 146.587 4.92427   1
  -4  -5  -5 77.1896 4.52340   5
  -4  -5  -5 68.1200 3.70715   3
  -4  -5  -5 71.2987 4.22485   1
   4   5   5 73.3334 4.05124   1
   4   5   5 68.5045 5.14059   4
   4   5   5 66.8001 4.42838   2
  -5  -5  -5 288.434 8.14670   5
  -5  -5  -5 265.122 7.86008   3
   5   5   5 271.071 8.38978   2
   5   5   5 264.926 7.78607   1
   5   5   5 282.369 9.71684   4
  -6  -5  -5 108.220 5.91553   5
  -6  -5  -5 100.419 6.57041   3
   6   5   5 104.436 7.17806   4
   6   5   5 103.387 6.32960   2
   6   5   5 94.8023 6.00775   1
  -7  -5  -5 6.87492 4.20332   3
   7   5   5 15.9554 4.18721   4
   7   5   5 11.2191 3.88116   2
   7  -6  -5 26.2300 6.25246   1
   7  -6  -5 24.8863 5.39817   4
  -7   6   5 33.9911 8.38050   3
  -7   6   5 25.8465 5.29414   2
   6  -6  -5 220.787 10.2500   1
   6  -6  -5 223.350 9.29064   4
  -6   6   5 205.761 8.93164   2
  -6   6   5 200.741 9.58244   3
   5  -6  -5 28.9083 4.50317   5
   5  -6  -5 23.2196 4.99693   4
   5  -6  -5 17.9577 3.78754   1
  -5   6   5 26.6050 5.29630   3
  -5   6   5 22.6987 5.42328   2
   4  -6  -5 133.127 6.88721   1
   4  -6  -5 127.081 5.99849   4
   4  -6  -5 133.265 5.69693   5
  -4   6   5 121.783 5.84468   3
  -4   6   5 130.120 5.93877   4
  -4   6   5 132.154 6.35643   2
   3  -6  -5 80.6672 4.54941   5
   3  -6  -5 82.2115 4.66070   4
   3  -6  -5 84.1041 5.17290   1
  -3   6   5 88.5371 4.84878   4
  -3   6   5 82.5259 5.03191   2
  -3   6   5 79.5993 4.32499   3
   2  -6  -5 50.5151 3.68153   5
   2  -6  -5 46.8420 3.87693   1
   2  -6  -5 46.1392 3.72880   4
  -2   6   5 47.3591 3.92277   2
  -2   6   5 47.4093 3.04917   3
  -2   6   5 51.1693 3.91041   4
   1  -6  -5 49.4414 3.46654   5
   1  -6  -5 51.3297 3.79009   1
   1  -6  -5 53.3977 3.62827   4
  -1   6   5 50.3768 3.89480   2
  -1   6   5 53.5805 3.49108   4
  -1   6   5 50.1210 2.54991   3
   0  -6  -5 217.070 6.55475   1
   0  -6  -5 215.570 6.41025   5
   0   6   5 210.350 6.39649   2
   0   6   5 203.579 6.32466   4
  -1  -6  -5 609.378 13.1039   1
  -1  -6  -5 630.491 13.3083   5
   1   6   5 604.262 13.2713   4
   1   6   5 632.906 13.2825   2
  -2  -6  -5 405.606 9.54405   1
  -2  -6  -5 404.347 9.76588   5
   2   6   5 380.001 9.99667   4
   2   6   5 403.740 9.79551   2
  -3  -6  -5 4.11011 1.98641   5
  -3  -6  -5 1.58206 1.29322   3
  -3  -6  -5 -1.7850 1.73829   1
   3   6   5 0.95258 2.20898   4
   3   6   5 3.12528 2.07455   2
   3   6   5 1.87894 1.90515   1
  -4  -6  -5 17.6743 2.94250   3
  -4  -6  -5 21.2270 3.86455   5
  -4  -6  -5 16.6223 3.81350   1
   4   6   5 27.3024 4.75016   4
   4   6   5 16.7300 3.91709   1
   4   6   5 15.4647 3.94306   2
  -5  -6  -5 -1.4823 2.51199   1
  -5  -6  -5 4.47749 2.71863   5
  -5  -6  -5 2.49485 2.42805   3
   5   6   5 1.52955 3.01203   4
   5   6   5 3.74932 3.03831   2
   5   6   5 2.70668 3.02861   1
  -6  -6  -5 13.8816 3.68906   5
   6   6   5 18.3117 3.79215   2
   6   6   5 25.7521 6.02643   1
   6   6   5 23.1788 4.44563   4
   7   6   5 9.91055 4.67215   4
   6  -7  -5 26.2047 5.39870   1
   6  -7  -5 28.6936 7.07774   4
  -6   7   5 27.3673 7.22669   4
  -6   7   5 40.1454 7.22604   3
  -6   7   5 32.3156 5.50229   2
   5  -7  -5 90.8375 6.80926   4
   5  -7  -5 88.9336 7.53980   1
   5  -7  -5 69.5741 5.73089   5
  -5   7   5 87.0671 6.60844   3
  -5   7   5 82.5704 6.70503   4
  -5   7   5 77.0929 7.09711   2
   4  -7  -5 1.15007 2.67383   4
   4  -7  -5 -0.5486 3.10392   1
   4  -7  -5 -3.5640 2.54254   5
  -4   7   5 1.10760 2.79944   4
  -4   7   5 2.89079 2.68727   3
  -4   7   5 -4.1303 3.01466   2
   3  -7  -5 32.7659 4.32818   4
   3  -7  -5 26.5852 4.64371   1
   3  -7  -5 21.4583 4.12462   5
  -3   7   5 18.5603 4.19156   4
  -3   7   5 26.4597 3.79235   3
  -3   7   5 18.3523 4.63933   2
   2  -7  -5 126.036 5.41105   5
   2  -7  -5 132.342 5.68592   4
   2  -7  -5 114.508 5.95248   1
  -2   7   5 129.825 5.58552   4
  -2   7   5 124.961 4.47966   3
  -2   7   5 122.104 5.91313   2
   1  -7  -5 189.442 6.69622   1
   1  -7  -5 195.587 6.62669   4
   1  -7  -5 196.713 6.42196   5
  -1   7   5 186.285 6.58944   4
  -1   7   5 189.866 4.73276   3
  -1   7   5 184.590 6.54037   2
   0  -7  -5 12.0190 2.41376   5
   0  -7  -5 7.25370 1.93308   1
   0   7   5 15.1545 3.16782   4
   0   7   5 6.03156 2.12767   2
  -1  -7  -5 66.3051 4.39700   5
  -1  -7  -5 64.3435 4.36681   1
   1   7   5 64.8355 4.35952   2
   1   7   5 71.2653 4.40360   4
  -2  -7  -5 10.6454 2.33167   5
  -2  -7  -5 5.52267 2.17633   1
   2   7   5 8.94462 2.28204   2
   2   7   5 13.5776 3.63068   4
  -3  -7  -5 191.097 6.80243   1
  -3  -7  -5 193.304 6.97457   5
   3   7   5 194.304 6.91546   2
   3   7   5 193.225 6.97384   1
   3   7   5 191.264 7.59700   4
  -4  -7  -5 19.8778 4.45956   5
  -4  -7  -5 14.5495 2.87850   1
   4   7   5 17.1490 2.97532   2
   4   7   5 15.1625 3.14156   1
   4   7   5 14.0543 3.65764   4
  -5  -7  -5 405.015 11.2923   5
  -5  -7  -5 397.434 11.1920   1
   5   7   5 398.835 11.2178   1
   5   7   5 397.132 12.3424   4
   5   7   5 400.292 11.0502   2
  -6  -7  -5 4.95430 3.64647   5
   6   7   5 5.37378 3.99057   4
   6   7   5 -1.5345 3.81200   1
   6   7   5 6.43124 3.51427   2
   7   7   5 -3.0768 4.70340   4
   6  -8  -5 113.993 10.6569   1
   6  -8  -5 103.437 8.83588   4
  -6   8   5 108.289 9.89650   4
  -6   8   5 114.752 9.05725   3
  -6   8   5 109.203 10.0109   2
   5  -8  -5 10.0030 4.61068   1
   5  -8  -5 16.0341 4.52428   4
  -5   8   5 11.7223 4.47296   4
  -5   8   5 17.8750 4.71570   2
  -5   8   5 12.0012 3.67988   3
   4  -8  -5 1.39457 3.66792   1
   4  -8  -5 -0.0944 3.01767   5
   4  -8  -5 3.87301 3.12979   4
  -4   8   5 -1.5040 2.75139   3
  -4   8   5 -2.5684 3.40269   2
  -4   8   5 5.43215 3.44732   4
   3  -8  -5 65.5194 5.28246   5
   3  -8  -5 55.9894 6.22944   1
   3  -8  -5 70.5424 5.85405   4
  -3   8   5 62.0084 4.48567   3
  -3   8   5 65.1165 5.91116   2
  -3   8   5 71.6902 5.85801   4
   2  -8  -5 12.7546 2.83881   4
   2  -8  -5 18.6742 4.75667   1
   2  -8  -5 19.8553 3.91917   5
  -2   8   5 15.7017 3.03280   4
  -2   8   5 12.8897 3.15041   2
  -2   8   5 12.9237 2.99623   3
   1  -8  -5 593.474 13.6955   5
   1  -8  -5 615.065 14.4196   1
   1  -8  -5 591.971 13.9556   4
  -1   8   5 603.738 14.1488   2
  -1   8   5 606.578 14.0034   4
  -1   8   5 602.264 11.2265   3
   0  -8  -5 167.072 6.51262   5
   0  -8  -5 157.110 6.53286   1
   0   8   5 159.336 6.43481   2
   0   8   5 156.400 6.49197   4
  -1  -8  -5 0.98875 2.27903   5
  -1  -8  -5 0.06119 2.23578   1
   1   8   5 6.67016 2.55692   2
   1   8   5 -0.4839 2.46643   4
  -2  -8  -5 71.9968 5.26873   1
  -2  -8  -5 77.9366 5.40052   5
   2   8   5 81.9146 5.06168   2
   2   8   5 72.4747 5.58206   4
  -3  -8  -5 50.5340 4.87664   1
  -3  -8  -5 46.5382 5.31576   5
   3   8   5 42.4609 4.96259   2
   3   8   5 47.8032 5.01838   1
   3   8   5 50.3311 5.86517   4
  -4  -8  -5 106.532 6.66849   5
  -4  -8  -5 117.057 6.64646   1
   4   8   5 115.707 7.27779   4
   4   8   5 110.178 6.71987   1
   4   8   5 121.987 6.44525   2
  -5  -8  -5 53.2009 6.52414   1
  -5  -8  -5 46.3017 6.44935   5
   5   8   5 51.5343 6.75506   1
   5   8   5 49.7530 6.87033   4
   5   8   5 63.8913 6.22282   2
  -6  -8  -5 80.5254 7.64157   5
   6   8   5 89.3848 8.65654   4
   6   8   5 93.2290 7.67905   1
   5  -9  -5 204.983 11.2104   1
   5  -9  -5 219.653 10.2201   4
  -5   9   5 221.122 11.4805   2
  -5   9   5 220.200 9.29689   3
  -5   9   5 219.009 11.3940   4
   4  -9  -5 6.92571 3.54022   5
   4  -9  -5 1.34471 4.20070   1
   4  -9  -5 6.27331 3.80022   4
  -4   9   5 -5.0667 3.82669   4
  -4   9   5 1.56821 3.27045   3
  -4   9   5 -1.9886 3.92244   2
   3  -9  -5 9.29490 3.17763   5
   3  -9  -5 3.56372 3.40578   1
   3  -9  -5 2.28005 3.23357   4
  -3   9   5 3.26354 2.45534   3
  -3   9   5 9.07442 3.52536   4
  -3   9   5 7.34660 3.59941   2
   2  -9  -5 355.299 10.3548   5
   2  -9  -5 376.004 11.5425   1
   2  -9  -5 372.710 11.1863   4
  -2   9   5 370.664 11.3221   4
  -2   9   5 377.726 11.2170   2
   1  -9  -5 40.1053 4.82795   5
   1  -9  -5 41.2366 5.52135   1
   1  -9  -5 48.3554 5.45690   4
  -1   9   5 42.3523 5.67482   4
  -1   9   5 44.2340 5.74888   2
   0  -9  -5 163.812 7.39705   1
   0  -9  -5 154.410 6.94694   5
   0   9   5 151.416 7.12944   2
   0   9   5 143.956 7.04045   4
  -1  -9  -5 80.2589 5.95112   5
  -1  -9  -5 74.6322 6.07637   1
   1   9   5 78.5564 6.28252   4
   1   9   5 78.8780 5.55681   2
  -2  -9  -5 12.2360 3.19016   1
  -2  -9  -5 8.48446 3.04699   5
   2   9   5 5.95288 3.09568   4
   2   9   5 12.1872 3.04740   2
  -3  -9  -5 95.5176 6.70280   1
  -3  -9  -5 102.453 6.76470   5
   3   9   5 94.5363 6.36706   2
   3   9   5 104.660 6.98089   4
   3   9   5 99.2976 6.81669   1
  -4  -9  -5 70.8551 6.46916   5
  -4  -9  -5 73.3566 6.48284   1
   4   9   5 63.8321 6.24181   1
   4   9   5 70.7941 7.08191   4
   4   9   5 62.6156 6.18979   2
  -5  -9  -5 -0.7472 4.00750   5
  -5  -9  -5 0.56138 3.89539   1
   5   9   5 1.38548 3.49585   2
   5   9   5 2.39068 3.86553   1
   5   9   5 -2.2001 3.78579   4
  -6  -9  -5 129.707 9.35963   1
  -6  -9  -5 117.609 9.46480   5
   6   9   5 124.298 9.57551   4
   6   9   5 118.054 9.17983   1
   4 -10  -5 10.3207 5.22457   1
   4 -10  -5 18.6602 4.71709   4
   4 -10  -5 13.8886 4.14515   5
  -4  10   5 16.3758 5.20397   4
  -4  10   5 10.8129 4.84056   2
   3 -10  -5 19.5776 4.90325   1
   3 -10  -5 20.2688 3.73761   5
   3 -10  -5 16.0021 4.17093   4
  -3  10   5 17.1052 4.26919   2
  -3  10   5 24.5817 4.60055   4
   2 -10  -5 63.7267 6.38184   4
   2 -10  -5 68.6293 5.90286   5
   2 -10  -5 68.1187 6.75486   1
  -2  10   5 62.5616 6.91949   4
  -2  10   5 63.7552 6.64234   2
   1 -10  -5 281.668 9.43228   5
   1 -10  -5 254.812 9.96541   1
   1 -10  -5 277.111 9.86248   4
  -1  10   5 266.179 9.81080   4
  -1  10   5 272.203 10.0369   2
   0 -10  -5 71.4035 6.27176   5
   0 -10  -5 71.0852 6.52032   1
   0  10   5 74.4209 6.24363   2
   0  10   5 72.6170 6.49519   4
  -1 -10  -5 10.2315 3.46789   1
  -1 -10  -5 3.25910 3.29445   5
   1  10   5 1.77520 3.12495   2
   1  10   5 -1.8543 3.14313   4
  -2 -10  -5 213.373 9.10174   1
  -2 -10  -5 202.864 8.74382   5
   2  10   5 203.703 8.56599   2
   2  10   5 196.186 8.73206   4
  -3 -10  -5 26.1035 5.85050   1
  -3 -10  -5 23.3116 6.07086   5
   3  10   5 16.8955 4.25455   1
   3  10   5 27.6849 6.31595   2
   3  10   5 19.5444 4.31994   4
  -4 -10  -5 82.9153 7.50348   5
  -4 -10  -5 75.0296 7.48718   1
   4  10   5 76.1955 7.72068   1
   4  10   5 61.9432 7.09754   2
   4  10   5 56.4762 7.66257   4
  -5 -10  -5 11.7785 5.28504   1
  -5 -10  -5 9.54838 4.45156   5
   5  10   5 13.7252 5.24821   1
   5  10   5 12.8795 5.13480   4
   4 -11  -5 14.4201 6.20075   1
   3 -11  -5 31.0916 6.44146   5
   3 -11  -5 28.4511 5.89784   1
   3 -11  -5 21.3925 4.85136   4
  -3  11   5 41.7839 8.35070   2
  -3  11   5 44.0473 8.82428   4
   2 -11  -5 1.14977 4.28573   1
   2 -11  -5 0.05637 3.80725   4
   2 -11  -5 -0.5372 3.49476   5
  -2  11   5 5.49773 4.19855   4
  -2  11   5 -0.1187 4.12417   2
   1 -11  -5 47.5020 6.88254   5
   1 -11  -5 33.1090 6.39823   1
  -1  11   5 45.3789 7.20018   4
  -1  11   5 49.4720 7.10137   2
   0 -11  -5 585.343 15.6903   5
   0 -11  -5 594.492 16.0622   1
   0  11   5 594.443 15.5459   2
   0  11   5 578.074 15.7755   4
  -1 -11  -5 9.03467 3.92497   1
  -1 -11  -5 6.49853 3.85575   5
   1  11   5 -0.5593 3.59101   4
   1  11   5 8.62198 3.84519   2
  -2 -11  -5 60.6068 7.10334   1
  -2 -11  -5 53.8727 7.02154   5
   2  11   5 55.5556 6.97334   2
   2  11   5 52.1105 7.40683   4
  -3 -11  -5 -6.9337 4.09008   1
  -3 -11  -5 6.01194 3.82441   5
   3  11   5 -0.3672 3.88077   2
   3  11   5 2.84178 4.70338   1
   3  11   5 -2.0819 3.92713   4
  -4 -11  -5 72.9936 8.09492   1
  -4 -11  -5 75.7042 8.59641   5
   4  11   5 65.9059 7.54860   2
   4  11   5 70.2435 8.86894   4
   4  11   5 86.3255 9.64478   1
   2 -12  -5 -0.6747 4.55716   5
   2 -12  -5 1.34419 4.85655   1
   2 -12  -5 4.99329 4.55118   4
  -2  12   5 6.04619 4.93699   2
  -2  12   5 3.54187 4.68556   4
   1 -12  -5 -0.6005 4.89255   5
   1 -12  -5 2.36578 4.39817   1
  -1  12   5 3.45246 4.36261   4
  -1  12   5 2.12761 4.35648   2
   0 -12  -5 12.4613 4.83594   1
   0 -12  -5 6.80773 4.72489   5
   0  12   5 3.67400 4.59521   2
   0  12   5 7.44302 4.38028   4
  -1 -12  -5 0.68276 4.43633   5
  -1 -12  -5 3.00164 4.56427   1
   1  12   5 -3.7976 4.22760   4
   1  12   5 10.0589 4.70520   2
  -2 -12  -5 5.02528 4.53853   1
  -2 -12  -5 4.41933 4.57675   5
   2  12   5 3.72335 5.54229   1
   2  12   5 3.68730 4.64586   4
   2  12   5 -3.8714 4.33932   2
  -3 -12  -5 -1.5803 4.40258   1
  -3 -12  -5 6.09345 4.52183   5
   3  12   5 -3.8508 5.53728   1
   3  12   5 -0.0309 4.71458   2
   3  12   5 2.65670 4.45407   4
   2  10  -6 9.61868 4.55940   1
   2  10  -6 12.7277 4.80359   5
  -2 -10   6 4.74741 5.12205   1
  -2 -10   6 6.63518 5.09947   5
   1  10  -6 47.1246 7.32529   5
   1  10  -6 28.4299 5.42512   1
   1  10  -6 28.8486 6.50349   3
  -1 -10   6 30.7993 5.47607   5
  -1 -10   6 42.4080 7.04177   3
  -1 -10   6 45.9153 8.54550   1
   0  10  -6 282.974 10.9075   1
   0  10  -6 275.055 10.0867   3
   0  10  -6 297.874 11.2211   5
   0  10  -6 286.831 10.2779   4
   0 -10   6 273.787 10.3807   4
   0 -10   6 280.546 11.1866   5
   0 -10   6 265.327 10.1409   3
   0 -10   6 276.085 10.9087   1
  -1  10  -6 3.81277 3.90862   2
  -1  10  -6 -5.9084 3.83649   3
  -1  10  -6 7.40438 4.12145   1
  -1  10  -6 3.52404 4.17705   5
  -1  10  -6 2.77024 3.99557   4
   1 -10   6 -0.1009 3.95958   1
   1 -10   6 -0.3168 3.87162   5
   1 -10   6 -0.8372 3.72183   2
   1 -10   6 5.91304 3.91940   4
   1 -10   6 -2.4225 3.65750   3
  -2  10  -6 -4.4058 4.57893   2
  -2  10  -6 3.60211 4.37430   1
  -2  10  -6 3.83540 4.52445   3
  -2  10  -6 7.65995 4.64819   4
   2 -10   6 0.97266 4.22151   1
   2 -10   6 0.47689 4.33885   4
   2 -10   6 -3.9594 4.13106   3
   2 -10   6 -4.6494 4.31816   2
   4   9  -6 48.2169 7.30309   5
   4   9  -6 43.1118 8.39380   1
  -4  -9   6 55.8032 7.67078   3
  -4  -9   6 63.1635 7.98292   5
   3   9  -6 68.9325 7.83839   5
   3   9  -6 60.3670 7.26260   1
  -3  -9   6 84.0539 7.82935   5
  -3  -9   6 75.7409 7.59645   3
   2   9  -6 93.2277 7.51621   5
   2   9  -6 78.8896 7.48920   1
  -2  -9   6 75.7911 7.30625   3
  -2  -9   6 86.3929 7.82643   1
  -2  -9   6 83.4790 7.62578   5
   1   9  -6 4.35174 3.74554   5
   1   9  -6 -4.2213 3.40680   1
  -1  -9   6 -3.4986 3.88956   3
  -1  -9   6 0.71544 3.63100   1
  -1  -9   6 -0.7644 3.82898   5
   0   9  -6 2.31318 3.41397   1
   0   9  -6 -2.4943 3.37894   4
   0   9  -6 4.40931 3.13753   2
   0   9  -6 5.29723 3.41540   5
   0   9  -6 1.06281 3.35535   3
   0  -9   6 1.98761 3.43864   3
   0  -9   6 3.58576 3.43291   1
   0  -9   6 -5.5690 3.68069   4
   0  -9   6 6.25394 3.59280   2
   0  -9   6 1.93320 3.37881   5
  -1   9  -6 101.820 7.28279   4
  -1   9  -6 82.1264 6.58668   5
  -1   9  -6 91.9691 6.80188   2
  -1   9  -6 84.1924 6.74984   3
  -1   9  -6 99.4817 7.14976   1
   1  -9   6 78.0032 6.64991   2
   1  -9   6 82.2395 7.09016   4
   1  -9   6 71.3520 6.48515   3
   1  -9   6 89.5019 6.63174   5
   1  -9   6 84.9276 6.81816   1
  -2   9  -6 3.83001 3.76070   2
  -2   9  -6 -1.1416 3.07050   5
  -2   9  -6 5.10879 3.80727   3
  -2   9  -6 -0.6220 3.30698   1
  -2   9  -6 7.40472 3.66496   4
   2  -9   6 -0.7577 3.50803   3
   2  -9   6 4.54473 3.79894   4
   2  -9   6 -1.5005 3.67234   5
   2  -9   6 5.53375 3.59708   2
   2  -9   6 2.55974 3.89878   1
  -3   9  -6 12.6204 4.78568   3
  -3   9  -6 16.9231 4.86435   2
  -3   9  -6 7.36370 4.18799   4
   3  -9   6 13.4243 4.96902   2
   3  -9   6 15.9941 4.90422   3
   3  -9   6 18.0945 4.69578   4
   5   8  -6 -1.5065 4.29323   1
   5   8  -6 9.40481 4.80686   5
  -5  -8   6 4.19123 4.84073   3
  -5  -8   6 -1.0692 4.15449   5
   4   8  -6 10.8197 3.92053   1
   4   8  -6 8.54671 3.96113   5
  -4  -8   6 0.16967 3.60182   5
  -4  -8   6 0.89962 3.80303   3
   3   8  -6 27.0235 6.55266   1
   3   8  -6 20.2537 4.18916   5
  -3  -8   6 25.1752 6.18979   5
  -3  -8   6 21.8333 4.49291   3
   2   8  -6 4.90012 3.24610   1
   2   8  -6 0.55276 3.19333   5
  -2  -8   6 3.39793 3.10077   5
  -2  -8   6 5.28572 3.49464   3
   1   8  -6 -0.7117 2.88616   1
   1   8  -6 5.21838 2.60786   4
   1   8  -6 0.70695 2.97024   5
  -1  -8   6 -0.5490 3.13827   1
  -1  -8   6 6.90237 3.31553   3
  -1  -8   6 0.78600 3.12042   5
   0   8  -6 19.6907 5.12853   3
   0   8  -6 30.6019 5.64033   5
   0   8  -6 21.3908 5.23971   1
   0   8  -6 23.4612 5.09323   4
   0   8  -6 29.0919 4.50918   2
   0  -8   6 24.9276 5.27654   4
   0  -8   6 20.7012 5.10139   5
   0  -8   6 19.0793 3.56691   3
   0  -8   6 21.3514 5.06355   1
   0  -8   6 22.6379 4.97778   2
  -1   8  -6 177.392 7.39977   2
  -1   8  -6 178.498 7.49410   5
  -1   8  -6 187.769 7.53142   1
  -1   8  -6 186.487 8.06506   3
  -1   8  -6 183.466 7.59002   4
   1  -8   6 181.470 7.48549   2
   1  -8   6 175.676 7.78829   4
   1  -8   6 179.574 7.68411   5
   1  -8   6 192.089 8.12029   3
   1  -8   6 177.850 7.77648   1
  -2   8  -6 33.0867 5.84667   4
  -2   8  -6 39.1890 5.50104   1
  -2   8  -6 35.9213 5.83993   2
  -2   8  -6 32.7537 5.43585   5
   2  -8   6 35.1349 5.63631   3
   2  -8   6 25.7683 6.20431   4
   2  -8   6 28.6794 5.78678   1
   2  -8   6 31.6422 5.82381   2
   2  -8   6 38.4504 5.68000   5
  -3   8  -6 3.22208 3.84069   3
  -3   8  -6 2.40955 3.81694   2
   3  -8   6 5.76601 4.17608   3
   3  -8   6 -1.9440 3.84369   2
   3  -8   6 3.94871 3.49409   4
  -4   8  -6 5.33611 3.98523   2
  -4   8  -6 5.28879 4.23690   3
   4  -8   6 2.97764 4.85070   3
   4  -8   6 -2.7661 4.34658   2
   4  -8   6 -2.4910 4.56170   4
   5   7  -6 -3.0012 3.92020   5
   5   7  -6 1.19529 4.23833   1
  -5  -7   6 -2.2930 3.76602   3
  -5  -7   6 1.89844 3.83046   5
   4   7  -6 54.4847 6.58653   1
   4   7  -6 53.2676 6.47511   5
  -4  -7   6 48.0059 6.34447   3
  -4  -7   6 59.1384 6.47702   5
   3   7  -6 164.235 7.74436   5
   3   7  -6 157.923 8.17058   1
  -3  -7   6 168.452 7.98571   5
  -3  -7   6 168.064 7.91320   3
   2   7  -6 1.91837 3.08659   1
   2   7  -6 5.06960 3.00924   5
   2   7  -6 -0.4528 2.43858   4
  -2  -7   6 1.31020 2.82642   3
  -2  -7   6 2.79446 2.69777   5
   1   7  -6 189.737 5.65971   2
   1   7  -6 177.454 7.40538   5
   1   7  -6 176.926 7.20618   1
   1   7  -6 174.369 6.19078   4
  -1  -7   6 173.931 5.78190   2
  -1  -7   6 178.271 7.32158   3
  -1  -7   6 183.361 7.33558   1
  -1  -7   6 183.019 7.30702   5
   0   7  -6 4.70642 2.27467   4
   0   7  -6 1.76050 2.67224   1
   0   7  -6 3.78512 2.53563   5
   0   7  -6 3.30499 2.34737   2
   0  -7   6 0.08052 2.50618   1
   0  -7   6 4.75406 2.55960   5
   0  -7   6 -0.7758 2.43915   2
   0  -7   6 -0.1371 2.40359   4
   0  -7   6 2.56959 2.72327   3
  -1   7  -6 82.9918 5.37303   1
  -1   7  -6 79.0378 5.67362   3
  -1   7  -6 96.8989 5.47373   4
  -1   7  -6 91.0604 5.50965   5
  -1   7  -6 93.0362 5.76084   2
   1  -7   6 90.1227 5.58488   5
   1  -7   6 91.9167 5.92467   4
   1  -7   6 89.3717 5.57406   2
   1  -7   6 90.7702 5.76065   1
   1  -7   6 91.3809 5.95141   3
  -2   7  -6 189.048 7.56147   2
  -2   7  -6 184.907 6.72216   5
  -2   7  -6 194.613 6.71903   1
  -2   7  -6 180.764 8.05977   3
   2  -7   6 181.531 6.76269   1
   2  -7   6 197.800 7.67005   4
   2  -7   6 199.759 8.08136   3
   2  -7   6 188.972 6.86276   5
   2  -7   6 197.495 7.51231   2
  -3   7  -6 -1.8314 3.20708   3
   3  -7   6 6.19370 3.31531   4
   3  -7   6 -1.7977 3.25535   3
   3  -7   6 -0.7415 3.35047   2
  -4   7  -6 50.2952 7.00220   2
  -4   7  -6 56.0217 6.97425   3
   4  -7   6 55.1093 7.60391   2
   4  -7   6 63.3549 7.57331   3
   4  -7   6 56.6898 7.14708   4
  -5   7  -6 -3.6122 4.15782   3
  -5   7  -6 1.57138 4.55297   2
   5  -7   6 -2.6693 4.72235   2
   5  -7   6 -2.6695 4.51302   4
   6   6  -6 44.9055 7.58142   5
   6   6  -6 35.9414 7.32572   1
  -6  -6   6 34.1973 7.97140   3
  -6  -6   6 31.5627 6.96233   5
   5   6  -6 110.887 7.67167   5
   5   6  -6 108.665 8.03251   1
  -5  -6   6 109.468 7.50664   3
  -5  -6   6 125.414 7.45120   5
   4   6  -6 35.7385 5.84705   1
   4   6  -6 48.9031 5.52434   5
  -4  -6   6 42.2800 5.44636   5
  -4  -6   6 49.2060 5.90852   3
   3   6  -6 4.60218 3.23442   1
   3   6  -6 3.01128 2.68593   5
  -3  -6   6 0.40477 2.61439   5
  -3  -6   6 1.94515 2.69239   3
   2   6  -6 567.096 13.5327   1
   2   6  -6 548.238 13.4702   5
   2   6  -6 555.228 11.3516   4
  -2  -6   6 577.195 13.7673   3
  -2  -6   6 568.372 13.6173   5
   1   6  -6 63.9996 3.82331   4
   1   6  -6 68.1207 3.52167   2
   1   6  -6 63.7729 4.56670   1
   1   6  -6 62.7634 4.80478   5
  -1  -6   6 64.0046 3.61279   2
  -1  -6   6 60.2488 4.82866   3
  -1  -6   6 72.1094 4.70622   1
  -1  -6   6 62.7625 4.72562   5
   0   6  -6 83.6289 4.68681   1
   0   6  -6 86.6501 4.73113   5
   0   6  -6 82.0445 4.33614   4
   0  -6   6 77.8557 4.67481   1
   0  -6   6 88.9576 4.76902   5
   0  -6   6 83.0708 4.23514   2
   0  -6   6 87.7958 5.12474   3
   0  -6   6 88.1361 4.33335   4
  -1   6  -6 17.8447 3.43355   5
  -1   6  -6 19.0814 3.62157   4
  -1   6  -6 16.9936 4.11271   3
  -1   6  -6 23.6327 3.47347   1
   1  -6   6 13.0728 2.52180   5
   1  -6   6 16.8852 4.09879   3
   1  -6   6 15.5040 3.39207   1
   1  -6   6 15.6205 3.55854   4
   1  -6   6 13.7279 2.75605   2
  -2   6  -6 11.2312 2.31676   5
  -2   6  -6 10.5506 2.25165   1
  -2   6  -6 8.96239 2.87604   3
   2  -6   6 7.05706 2.25194   5
   2  -6   6 8.72522 2.66310   2
   2  -6   6 16.4869 4.39653   3
   2  -6   6 11.4845 2.86966   4
   2  -6   6 7.77976 2.26551   1
  -3   6  -6 -7.2885 2.73337   1
  -3   6  -6 1.01999 1.94736   5
  -3   6  -6 5.79243 3.27852   3
   3  -6   6 2.58724 3.25661   3
   3  -6   6 1.62049 2.64139   4
   3  -6   6 1.02497 3.25594   2
  -4   6  -6 69.1272 6.59700   3
   4  -6   6 55.5241 6.53216   2
   4  -6   6 77.8708 6.42307   4
   4  -6   6 70.1479 6.92341   3
  -5   6  -6 7.40253 4.17554   3
   5  -6   6 13.1471 4.33029   2
   5  -6   6 7.20169 4.41600   4
  -6   6  -6 190.343 10.2085   3
   6  -6   6 213.061 10.5490   2
   6  -6   6 197.802 11.5920   4
   6   5  -6 28.5241 4.92703   5
   6   5  -6 37.8418 7.22110   1
  -6  -5   6 28.4909 4.92925   3
  -6  -5   6 39.3068 6.91110   5
   5   5  -6 27.2680 5.57207   1
   5   5  -6 13.4078 3.75510   5
  -5  -5   6 15.2937 3.61336   5
  -5  -5   6 21.6565 4.03366   3
   4   5  -6 6.24121 3.02769   5
   4   5  -6 11.7330 3.30698   1
  -4  -5   6 8.06903 3.11314   3
  -4  -5   6 8.84313 3.00271   5
   3   5  -6 8.16181 2.84863   5
   3   5  -6 10.7860 2.85994   1
  -3  -5   6 9.33744 2.82196   3
  -3  -5   6 10.8776 2.86579   5
   2   5  -6 663.621 12.3830   4
   2   5  -6 656.887 14.6447   1
   2   5  -6 666.281 11.8877   2
   2   5  -6 668.380 14.6841   5
  -2  -5   6 680.728 14.8481   3
  -2  -5   6 641.843 11.9176   2
  -2  -5   6 669.252 14.7937   5
   1   5  -6 1615.64 29.4772   5
   1   5  -6 1600.59 29.2815   1
   1   5  -6 1593.16 27.7248   4
  -1  -5   6 1663.65 29.6757   5
  -1  -5   6 1567.37 27.7013   4
  -1  -5   6 1614.28 29.8095   3
  -1  -5   6 1594.99 27.6522   2
   0   5  -6 33.1010 2.84750   4
   0   5  -6 35.7236 3.54268   5
   0   5  -6 31.2237 3.18146   1
   0  -5   6 40.3381 3.12052   2
   0  -5   6 26.2373 3.83233   3
   0  -5   6 34.4611 2.95201   4
   0  -5   6 28.1208 3.64345   5
   0  -5   6 31.2532 3.25909   1
  -1   5  -6 23.3989 2.98397   1
  -1   5  -6 26.7266 3.13133   5
  -1   5  -6 31.3814 4.02033   3
   1  -5   6 31.9727 3.01221   1
   1  -5   6 29.8602 3.45220   2
   1  -5   6 22.9824 2.99295   4
   1  -5   6 28.1081 3.19055   5
   1  -5   6 34.8947 3.96927   3
  -2   5  -6 184.404 5.36998   1
  -2   5  -6 180.989 5.62440   5
  -2   5  -6 191.889 7.16779   3
   2  -5   6 185.696 6.54959   2
   2  -5   6 198.799 5.81145   5
   2  -5   6 184.012 7.01497   3
   2  -5   6 196.575 6.42902   4
   2  -5   6 189.444 5.45897   1
  -3   5  -6 9.27682 1.94291   5
  -3   5  -6 11.7532 3.15349   3
  -3   5  -6 10.0911 1.95196   1
   3  -5   6 15.0589 4.00888   4
   3  -5   6 18.2795 4.80852   3
   3  -5   6 15.4237 2.79265   1
   3  -5   6 9.14106 2.81651   2
  -4   5  -6 87.3730 6.53773   3
   4  -5   6 105.950 6.94106   3
   4  -5   6 96.5369 6.32375   4
   4  -5   6 91.5776 6.62249   2
  -5   5  -6 4.89146 3.62924   3
   5  -5   6 -1.7345 3.39606   2
   5  -5   6 4.02349 3.81652   4
  -6   5  -6 20.1686 4.72768   3
   6  -5   6 21.9234 5.24270   4
   6  -5   6 30.7651 7.29123   2
   7   4  -6 54.5311 8.71916   1
   7   4  -6 52.1333 7.67332   5
  -7  -4   6 49.8641 9.56241   3
   6   4  -6 114.248 8.22908   1
   6   4  -6 113.539 7.64302   5
  -6  -4   6 128.665 8.56854   3
   5   4  -6 308.311 10.2755   1
   5   4  -6 302.694 9.65167   5
  -5  -4   6 304.226 10.2714   3
  -5  -4   6 316.981 9.79632   5
   4   4  -6 35.1674 4.35063   5
   4   4  -6 35.4157 4.88642   1
  -4  -4   6 39.0390 4.79757   3
  -4  -4   6 33.5068 4.40794   5
   3   4  -6 1.19128 1.22830   4
   3   4  -6 -1.8978 1.96797   5
   3   4  -6 1.00103 2.26140   1
  -3  -4   6 -3.0354 2.04783   3
  -3  -4   6 5.66037 2.29271   5
   2   4  -6 200.239 6.59420   5
   2   4  -6 186.865 6.36265   1
   2   4  -6 211.541 4.54677   4
  -2  -4   6 197.609 6.72745   3
  -2  -4   6 206.098 6.57750   5
  -2  -4   6 201.157 4.41576   2
   1   4  -6 211.169 6.29904   1
   1   4  -6 210.488 5.02935   4
   1   4  -6 208.323 6.49618   5
  -1  -4   6 219.841 5.30299   2
  -1  -4   6 218.030 6.59697   5
  -1  -4   6 217.857 7.05105   3
  -1  -4   6 209.241 5.06513   4
   0   4  -6 489.272 10.9240   5
   0   4  -6 499.918 10.5154   1
   0   4  -6 492.567 9.86696   4
   0  -4   6 511.797 10.3461   2
   0  -4   6 500.258 9.95416   4
   0  -4   6 499.462 10.9589   5
   0  -4   6 508.385 11.6919   3
  -1   4  -6 51.8875 3.19368   5
  -1   4  -6 54.4352 2.93251   1
   1  -4   6 54.1760 4.19460   3
   1  -4   6 51.2394 2.91475   1
   1  -4   6 51.6049 2.98152   4
   1  -4   6 52.3726 3.37572   2
   1  -4   6 53.7032 3.30019   5
  -2   4  -6 38.4048 2.57749   1
  -2   4  -6 42.9343 2.85616   5
  -2   4  -6 39.0054 4.01398   3
   2  -4   6 44.8593 4.08887   3
   2  -4   6 39.4347 3.35751   4
   2  -4   6 42.0416 2.58835   1
   2  -4   6 42.1165 3.79279   2
  -3   4  -6 354.565 7.62307   5
  -3   4  -6 349.017 10.0458   3
  -3   4  -6 350.600 7.19560   1
   3  -4   6 350.084 9.25586   4
   3  -4   6 349.509 9.62558   2
   3  -4   6 342.216 9.93293   3
   3  -4   6 349.458 7.25698   1
  -4   4  -6 715.705 16.8649   3
   4  -4   6 712.227 16.3440   2
   4  -4   6 703.316 16.7761   3
   4  -4   6 713.477 15.8796   4
  -5   4  -6 88.0970 6.93605   3
   5  -4   6 95.6188 6.70648   2
   5  -4   6 94.1974 6.65692   4
  -6   4  -6 7.89932 3.97196   3
   6  -4   6 7.55436 4.10936   2
   6  -4   6 5.22467 4.07853   4
   7   3  -6 -4.2013 3.82279   5
   7   3  -6 -1.3507 4.69402   1
  -7  -3   6 1.09728 5.08987   3
   6   3  -6 2.97559 2.97820   5
   6   3  -6 -1.5680 3.37581   1
  -6  -3   6 -5.6319 3.47304   3
   5   3  -6 171.706 7.85052   1
   5   3  -6 176.093 7.09398   5
  -5  -3   6 169.510 7.84867   3
   4   3  -6 1085.26 21.4992   5
   4   3  -6 1085.72 21.9822   1
  -4  -3   6 1081.86 21.9947   3
  -4  -3   6 1087.48 21.4829   5
   3   3  -6 -1.7820 1.93681   1
   3   3  -6 -1.4875 1.64459   5
  -3  -3   6 -1.4697 1.99660   3
  -3  -3   6 -2.6164 1.67783   5
   2   3  -6 17.4615 2.98114   1
   2   3  -6 15.6031 2.69675   5
  -2  -3   6 15.9205 3.22214   3
  -2  -3   6 17.4229 2.76359   5
  -2  -3   6 17.0238 1.72360   2
   1   3  -6 344.123 8.40476   5
   1   3  -6 354.363 6.60405   4
   1   3  -6 358.473 8.26286   1
  -1  -3   6 334.808 8.38098   5
  -1  -3   6 347.848 8.87978   3
  -1  -3   6 359.547 7.24963   2
   0   3  -6 11.7861 2.31424   5
   0   3  -6 13.0013 2.08023   1
   0  -3   6 9.86047 2.15675   2
   0  -3   6 14.9391 2.94861   3
   0  -3   6 13.3833 1.88957   4
  -1   3  -6 427.580 8.58725   1
  -1   3  -6 432.067 9.16410   5
   1  -3   6 422.676 10.2391   3
   1  -3   6 429.129 9.46099   2
   1  -3   6 432.112 8.90129   4
  -2   3  -6 102.748 3.57693   5
  -2   3  -6 87.7494 4.60781   3
  -2   3  -6 93.7016 2.96526   1
   2  -3   6 100.873 3.97435   4
   2  -3   6 92.1450 4.37638   2
   2  -3   6 93.3234 4.71587   3
  -3   3  -6 76.5031 4.60760   3
  -3   3  -6 73.3655 3.07572   5
   3  -3   6 75.7229 4.56254   2
   3  -3   6 81.6524 4.80183   3
   3  -3   6 70.5396 4.43763   4
  -4   3  -6 648.165 15.3721   3
   4  -3   6 661.470 14.7120   4
   4  -3   6 649.027 14.9791   2
   4  -3   6 658.442 15.3689   3
  -5   3  -6 34.4617 5.63945   3
   5  -3   6 30.7573 5.38184   4
   5  -3   6 26.4389 5.16933   2
  -6   3  -6 31.5096 6.65259   3
   6  -3   6 34.3575 5.82538   2
   6  -3   6 33.1377 6.74295   4
  -7   3  -6 -0.5838 4.61148   3
   7  -3   6 4.74432 4.94345   4
   7  -3   6 2.08771 4.40646   2
   7   2  -6 65.8624 8.30889   1
   7   2  -6 64.0211 6.51023   5
  -7  -2   6 62.0073 8.57016   3
   6   2  -6 47.1329 6.45433   1
   6   2  -6 34.8559 5.67453   5
  -6  -2   6 43.9412 6.39296   3
   5   2  -6 4.75951 2.47849   5
   5   2  -6 6.82334 2.95353   1
  -5  -2   6 4.41665 3.19302   3
   4   2  -6 170.521 4.22947   4
   4   2  -6 163.752 6.68344   1
   4   2  -6 169.278 6.17332   5
  -4  -2   6 164.714 6.69611   3
   3   2  -6 -1.1676 1.61388   5
   3   2  -6 3.75606 1.60159   1
  -3  -2   6 2.67424 1.79630   3
   2   2  -6 97.2395 4.14182   1
   2   2  -6 95.9581 4.11395   5
  -2  -2   6 98.7985 4.40248   3
  -2  -2   6 86.5742 2.76162   2
   1   2  -6 160.693 4.70011   1
   1   2  -6 152.575 4.99879   5
  -1  -2   6 152.362 4.04384   2
  -1  -2   6 155.201 5.24962   3
   0   2  -6 525.098 10.7570   5
   0   2  -6 533.931 10.2783   1
   0  -2   6 517.326 11.4091   3
   0  -2   6 491.866 9.45581   4
   0  -2   6 541.855 10.4361   2
  -1   2  -6 112.964 3.78413   5
  -1   2  -6 116.522 3.24380   1
   1  -2   6 114.512 3.58465   4
   1  -2   6 107.951 4.55914   3
   1  -2   6 117.106 4.12671   2
  -2   2  -6 1116.96 19.5915   5
  -2   2  -6 1106.17 21.3136   3
   2  -2   6 1103.79 20.7254   2
   2  -2   6 1079.78 21.2009   3
   2  -2   6 1118.13 20.1588   4
  -3   2  -6 84.5808 4.76016   3
  -3   2  -6 84.2777 3.10162   5
   3  -2   6 80.4117 4.44519   2
   3  -2   6 80.6934 4.60595   3
   3  -2   6 83.4095 4.25624   4
  -4   2  -6 34.0579 4.58351   3
   4  -2   6 39.4652 4.47446   2
   4  -2   6 37.1854 3.91634   4
   4  -2   6 40.6469 4.63731   3
  -5   2  -6 678.084 16.3423   3
   5  -2   6 663.802 15.7904   2
   5  -2   6 693.430 16.0008   4
  -6   2  -6 1.45866 3.45403   3
   6  -2   6 3.78766 3.36499   2
   6  -2   6 1.32667 3.40590   4
  -7   2  -6 8.97911 4.85465   3
   7  -2   6 4.04136 3.84668   2
   7  -2   6 2.51215 4.59122   4
   7   1  -6 37.5627 6.23696   5
   7   1  -6 33.1994 7.46333   1
  -7  -1   6 25.4423 5.23838   3
   6   1  -6 18.3799 3.98258   1
   6   1  -6 20.7451 3.52301   5
  -6  -1   6 17.7531 3.85810   3
   5   1  -6 3.35274 1.79444   4
   5   1  -6 6.50075 2.37817   5
   5   1  -6 7.13851 2.97997   1
  -5  -1   6 3.99921 2.78546   3
   4   1  -6 207.263 6.72077   5
   4   1  -6 203.772 7.13197   1
   4   1  -6 210.344 4.91417   4
  -4  -1   6 206.082 4.60393   2
  -4  -1   6 207.610 7.26047   3
   3   1  -6 176.130 5.94893   1
   3   1  -6 176.430 5.70239   5
  -3  -1   6 168.371 5.99206   3
  -3  -1   6 161.230 3.97072   2
   2   1  -6 844.226 16.4751   5
   2   1  -6 854.812 16.4991   1
  -2  -1   6 866.980 14.9619   2
  -2  -1   6 845.705 16.8434   3
   1   1  -6 9.91091 2.08119   5
   1   1  -6 7.24021 1.85693   1
  -1  -1   6 6.13892 1.19003   2
  -1  -1   6 5.33837 1.56322   3
   0   1  -6 1779.90 30.7372   5
   0   1  -6 1787.02 30.1092   1
   0  -1   6 1812.27 30.4495   2
   0  -1   6 1782.46 29.3049   4
   0  -1   6 1723.72 31.2640   3
  -1   1  -6 1305.02 23.0050   5
  -1   1  -6 1331.04 22.0513   1
   1  -1   6 1326.01 23.3937   2
   1  -1   6 1274.14 23.9275   3
   1  -1   6 1314.90 22.6117   4
  -2   1  -6 313.144 8.18524   3
  -2   1  -6 318.273 6.90109   5
   2  -1   6 320.384 7.89198   2
   2  -1   6 326.890 7.41122   4
   2  -1   6 322.109 8.24943   3
  -3   1  -6 91.5636 4.61708   3
  -3   1  -6 90.7537 3.19857   5
   3  -1   6 86.1240 4.03691   4
   3  -1   6 89.9415 4.53388   2
   3  -1   6 89.0540 4.44729   3
  -4   1  -6 4.87095 2.21223   3
  -4   1  -6 3.35773 1.28412   5
   4  -1   6 7.10739 2.35853   2
   4  -1   6 7.44691 2.26529   4
   4  -1   6 5.41043 2.38064   3
  -5   1  -6 32.1125 4.89895   3
   5  -1   6 24.0060 4.92901   4
   5  -1   6 30.5856 4.63504   2
  -6   1  -6 137.274 8.17199   3
   6  -1   6 157.681 7.96021   4
   6  -1   6 153.214 7.54626   2
  -7   1  -6 24.5223 5.22328   3
   7  -1   6 28.0977 6.53582   2
   7  -1   6 17.1684 4.39644   4
   7   0  -6 254.730 10.7887   1
   7   0  -6 242.318 9.44187   5
  -7   0   6 247.668 10.9714   3
   6   0  -6 96.2377 6.96934   1
   6   0  -6 94.8778 6.11300   5
  -6   0   6 86.5950 6.97983   3
   5   0  -6 92.1777 4.07467   4
   5   0  -6 97.1715 5.12584   5
   5   0  -6 88.6856 5.65274   1
  -5   0   6 94.3768 6.00194   3
   4   0  -6 28.6347 2.34660   4
   4   0  -6 27.3413 3.78876   1
   4   0  -6 18.8477 3.36570   5
  -4   0   6 25.4279 2.52511   2
  -4   0   6 24.5773 3.82670   3
   3   0  -6 272.961 7.51497   1
   3   0  -6 260.890 7.15649   5
   3   0  -6 278.009 5.37563   4
  -3   0   6 282.645 6.09674   2
  -3   0   6 264.255 7.60632   3
   2   0  -6 764.072 14.8636   1
   2   0  -6 746.785 14.7869   5
  -2   0   6 738.548 15.0546   3
  -2   0   6 775.060 13.7656   2
   1   0  -6 284.743 6.70481   1
   1   0  -6 299.511 7.05554   5
  -1   0   6 287.669 7.15960   3
  -1   0   6 293.770 6.41679   2
   0   0  -6 1797.62 31.1009   5
   0   0  -6 1789.00 30.3625   1
   0   0   6 1804.38 31.5785   3
   0   0   6 1803.51 30.8430   2
   0   0   6 1817.04 29.7613   4
  -1   0  -6 142.606 4.07605   5
  -1   0  -6 124.028 3.23648   1
   1   0   6 138.216 4.58708   3
   1   0   6 140.432 3.79636   4
   1   0   6 137.491 4.31385   2
  -2   0  -6 329.408 7.05657   5
  -2   0  -6 317.341 7.97289   3
   2   0   6 321.626 7.83841   2
   2   0   6 318.159 7.93811   3
   2   0   6 330.752 7.44275   4
  -3   0  -6 65.6482 3.88676   3
  -3   0  -6 71.3780 2.92817   5
   3   0   6 64.1374 3.48009   4
   3   0   6 72.0603 4.01869   3
   3   0   6 63.6822 3.77295   2
  -4   0  -6 215.249 5.12600   5
  -4   0  -6 217.803 7.21830   3
   4   0   6 227.599 7.40941   3
   4   0   6 209.054 7.07791   2
   4   0   6 224.159 7.07661   4
  -5   0  -6 122.171 6.20653   3
   5   0   6 122.862 6.38736   4
   5   0   6 116.536 6.22626   2
  -6   0  -6 16.4007 3.76370   3
   6   0   6 16.6123 3.69649   2
   6   0   6 15.4342 3.72639   4
  -7   0  -6 -0.8208 4.63881   3
   7   0   6 0.54937 3.93364   4
   7   0   6 2.84945 3.78955   2
   7  -1  -6 228.252 10.5031   1
  -7   1   6 206.634 10.1785   3
   6  -1  -6 295.566 10.4884   1
   6  -1  -6 318.112 8.43480   4
   6  -1  -6 304.425 9.36477   5
  -6   1   6 322.335 10.7997   3
   5  -1  -6 60.0369 5.38519   1
   5  -1  -6 62.6970 4.70717   5
   5  -1  -6 66.1411 3.81005   4
  -5   1   6 59.6860 5.49387   3
  -5   1   6 68.9555 3.96637   2
   4  -1  -6 8.14340 1.53915   4
   4  -1  -6 9.33531 2.10773   5
   4  -1  -6 4.84029 2.20328   1
  -4   1   6 4.96170 1.68721   2
  -4   1   6 7.94873 2.30038   3
   3  -1  -6 501.483 11.3654   1
   3  -1  -6 490.331 10.8563   5
   3  -1  -6 505.490 9.35410   4
  -3   1   6 506.597 10.0397   2
  -3   1   6 484.600 11.2666   3
   2  -1  -6 29.4065 2.72919   1
   2  -1  -6 30.0728 1.68092   4
   2  -1  -6 28.1590 2.61619   5
  -2   1   6 30.0171 1.74061   4
  -2   1   6 34.2976 2.35595   2
  -2   1   6 28.6842 2.76309   3
   1  -1  -6 804.927 15.6367   5
   1  -1  -6 839.475 15.4760   1
  -1   1   6 833.906 15.2780   2
  -1   1   6 812.168 15.7209   3
  -1   1   6 846.813 14.1250   4
   0  -1  -6 507.732 9.78563   1
   0  -1  -6 488.921 10.2440   5
   0   1   6 519.913 9.37647   4
   0   1   6 507.083 10.2281   2
   0   1   6 504.984 10.4702   3
  -1  -1  -6 78.3081 2.53995   1
  -1  -1  -6 84.2449 3.13842   5
   1   1   6 80.9679 3.35262   2
   1   1   6 75.2160 3.32152   3
   1   1   6 75.8585 2.89344   4
  -2  -1  -6 1115.47 20.5965   3
  -2  -1  -6 1141.54 19.9631   5
   2   1   6 1108.97 20.5399   3
   2   1   6 1092.44 20.6209   2
   2   1   6 1122.98 20.2452   4
  -3  -1  -6 6.64358 1.80950   3
  -3  -1  -6 6.52442 1.42009   5
   3   1   6 4.72331 1.70477   3
   3   1   6 3.26029 1.52943   4
   3   1   6 5.02430 1.80726   2
  -4  -1  -6 72.9816 4.66550   3
  -4  -1  -6 81.7757 3.29561   5
   4   1   6 81.7604 4.57174   2
   4   1   6 85.0820 4.57444   4
   4   1   6 80.4426 4.64378   3
  -5  -1  -6 338.368 9.77834   3
   5   1   6 353.986 10.2377   4
   5   1   6 349.830 9.81419   2
  -6  -1  -6 611.827 15.2587   3
   6   1   6 619.619 14.9706   2
   6   1   6 618.628 15.5266   4
  -7  -1  -6 39.2927 7.58205   3
   7   1   6 29.2837 6.52200   4
   7   1   6 26.7527 6.47983   2
   7  -2  -6 10.4969 4.91421   1
  -7   2   6 0.77534 4.03893   3
   6  -2  -6 250.969 9.78854   1
   6  -2  -6 249.727 8.41736   5
   6  -2  -6 258.184 8.13842   4
  -6   2   6 261.985 9.80777   3
  -6   2   6 256.354 7.91297   2
   5  -2  -6 605.616 12.6167   4
   5  -2  -6 611.091 13.3091   5
   5  -2  -6 607.672 14.6499   1
  -5   2   6 595.081 14.5855   3
  -5   2   6 597.389 12.8243   2
   4  -2  -6 -4.4980 1.68201   5
   4  -2  -6 1.68569 2.14245   1
   4  -2  -6 0.20307 1.47554   4
  -4   2   6 1.88097 1.67093   2
  -4   2   6 0.76030 2.01566   3
   3  -2  -6 11.1844 1.91689   4
   3  -2  -6 7.25849 1.97962   1
   3  -2  -6 13.5582 2.58127   5
  -3   2   6 11.2138 2.66584   3
  -3   2   6 9.83723 2.33728   2
  -3   2   6 9.00593 2.07999   4
   2  -2  -6 570.131 11.9861   1
   2  -2  -6 568.653 10.5723   4
   2  -2  -6 558.784 11.7677   5
  -2   2   6 574.778 11.4112   2
  -2   2   6 578.969 11.9263   3
  -2   2   6 572.755 10.6017   4
   1  -2  -6 115.209 4.09842   5
   1  -2  -6 120.787 4.05630   1
  -1   2   6 121.130 4.03210   3
  -1   2   6 118.923 3.32420   4
  -1   2   6 115.451 3.94980   2
   0  -2  -6 172.841 4.97733   5
   0  -2  -6 182.225 4.70386   1
   0   2   6 179.312 5.05177   2
   0   2   6 176.352 4.40789   4
   0   2   6 177.846 4.88220   3
  -1  -2  -6 31.1330 2.37812   5
  -1  -2  -6 30.5262 1.97429   1
   1   2   6 24.6090 2.30742   2
   1   2   6 28.0972 2.19043   4
   1   2   6 29.0661 2.30412   3
  -2  -2  -6 1153.24 19.4974   1
  -2  -2  -6 1165.30 20.7288   5
  -2  -2  -6 1138.46 20.8215   3
   2   2   6 1136.33 21.2528   2
   2   2   6 1152.40 20.9652   4
   2   2   6 1153.90 20.8441   3
  -3  -2  -6 473.153 9.83495   5
  -3  -2  -6 469.800 8.47389   1
  -3  -2  -6 486.625 10.5073   3
   3   2   6 486.104 10.8138   2
   3   2   6 469.226 8.51583   1
   3   2   6 461.853 10.6123   4
   3   2   6 465.956 10.3326   3
  -4  -2  -6 456.003 9.43845   5
  -4  -2  -6 435.102 10.5643   3
   4   2   6 452.761 10.9735   4
   4   2   6 446.186 10.7997   2
  -5  -2  -6 79.8448 5.17866   3
  -5  -2  -6 73.5787 3.68665   5
   5   2   6 65.1584 5.07079   2
   5   2   6 79.0581 5.52870   4
  -6  -2  -6 53.1023 5.84699   3
   6   2   6 51.9911 5.77119   2
   6   2   6 55.8060 6.07795   4
  -7  -2  -6 194.962 9.45256   3
   7   2   6 192.355 9.67063   4
   7   2   6 201.264 9.15215   2
   7  -3  -6 84.7878 8.88925   1
   7  -3  -6 89.6403 6.91462   4
  -7   3   6 83.8666 8.33163   3
   6  -3  -6 34.7697 6.31865   1
   6  -3  -6 36.3608 5.30548   4
   6  -3  -6 32.7850 5.37852   5
  -6   3   6 37.2921 5.72197   2
  -6   3   6 36.1783 6.34655   3
   5  -3  -6 226.530 7.32049   5
   5  -3  -6 223.757 6.99483   4
   5  -3  -6 227.452 8.68854   1
  -5   3   6 226.070 8.54991   3
  -5   3   6 203.002 7.15221   2
   4  -3  -6 0.62562 2.24024   1
   4  -3  -6 7.12969 2.07295   5
   4  -3  -6 5.07409 1.82650   4
  -4   3   6 1.55231 1.97962   2
  -4   3   6 3.52590 2.08955   3
   3  -3  -6 12.5428 2.69826   5
   3  -3  -6 11.5684 2.24932   1
   3  -3  -6 9.26627 2.27493   4
  -3   3   6 14.6246 2.78597   2
  -3   3   6 16.7327 3.08088   3
  -3   3   6 13.1828 2.35435   4
   2  -3  -6 1.07681 1.34298   5
   2  -3  -6 0.21701 1.08469   4
   2  -3  -6 0.87784 1.48130   1
  -2   3   6 2.90696 1.40982   2
  -2   3   6 0.66193 1.07039   4
  -2   3   6 1.33964 1.26731   3
   1  -3  -6 2657.81 45.5143   5
   1  -3  -6 2699.44 45.4243   1
  -1   3   6 2646.30 44.5808   4
  -1   3   6 2672.22 44.9966   3
  -1   3   6 2700.68 45.4619   2
   0  -3  -6 1067.80 19.8552   5
   0  -3  -6 1101.89 19.5353   1
   0   3   6 1075.57 19.2113   3
   0   3   6 1089.23 19.2903   4
   0   3   6 1059.53 19.8447   2
  -1  -3  -6 7.89985 1.96888   5
  -1  -3  -6 9.60589 1.90163   1
   1   3   6 9.33151 1.99944   4
   1   3   6 5.35191 1.25996   3
   1   3   6 8.26728 2.11243   2
  -2  -3  -6 182.231 4.58858   1
  -2  -3  -6 187.411 5.35690   5
  -2  -3  -6 187.140 5.03934   3
   2   3   6 188.520 5.03801   3
   2   3   6 183.096 5.73598   2
   2   3   6 181.833 5.56152   4
  -3  -3  -6 1.82650 1.18771   1
  -3  -3  -6 1.65807 1.42784   5
  -3  -3  -6 3.97894 1.45921   3
   3   3   6 4.18780 1.30462   1
   3   3   6 3.33646 1.48124   3
   3   3   6 4.30594 1.90077   4
   3   3   6 2.17441 1.73448   2
  -4  -3  -6 149.305 5.44080   3
  -4  -3  -6 156.048 5.06740   5
   4   3   6 147.715 6.12508   4
   4   3   6 156.232 4.30078   1
   4   3   6 163.121 6.09893   2
  -5  -3  -6 11.6475 2.19749   5
  -5  -3  -6 5.25113 2.61361   3
   5   3   6 4.99709 2.88148   4
   5   3   6 6.73092 2.60784   2
  -6  -3  -6 14.8270 3.56469   3
   6   3   6 20.1854 3.98220   2
   6   3   6 22.9890 5.61051   4
  -7  -3  -6 90.8752 7.17279   3
   7   3   6 76.3385 7.84396   4
   7   3   6 80.2410 7.32768   2
   7  -4  -6 -0.8835 3.79149   4
   7  -4  -6 2.31437 4.69234   1
  -7   4   6 -1.0435 3.91895   2
  -7   4   6 1.13819 4.16473   3
   6  -4  -6 288.458 9.07423   5
   6  -4  -6 284.268 10.4860   1
   6  -4  -6 293.181 9.39840   4
  -6   4   6 287.464 10.4524   3
  -6   4   6 280.631 9.59619   2
   5  -4  -6 177.524 6.80305   4
   5  -4  -6 184.297 6.95978   5
   5  -4  -6 173.344 7.85411   1
  -5   4   6 174.037 7.53696   3
  -5   4   6 185.154 7.17880   2
   4  -4  -6 3.80337 2.03818   4
   4  -4  -6 8.67537 2.57004   1
   4  -4  -6 3.05738 2.19547   5
  -4   4   6 5.50657 2.29992   2
  -4   4   6 8.42416 2.46310   3
  -4   4   6 7.45023 2.09664   4
   3  -4  -6 30.3464 2.83122   4
   3  -4  -6 28.7440 3.30530   5
   3  -4  -6 27.2053 3.49142   1
  -3   4   6 29.5699 3.37422   2
  -3   4   6 29.2710 3.28506   3
  -3   4   6 23.0101 2.86739   4
   2  -4  -6 109.173 4.73025   1
   2  -4  -6 119.081 4.59943   5
   2  -4  -6 115.900 3.97350   4
  -2   4   6 117.025 4.07090   4
  -2   4   6 113.361 4.16982   3
  -2   4   6 113.814 4.58826   2
   1  -4  -6 314.614 7.91729   1
   1  -4  -6 319.327 7.97059   5
  -1   4   6 316.118 7.85240   2
  -1   4   6 323.367 7.17691   3
  -1   4   6 331.300 7.48141   4
   0  -4  -6 349.035 8.04353   1
   0  -4  -6 345.792 8.30254   5
   0   4   6 342.498 8.34783   2
   0   4   6 350.862 7.91580   4
   0   4   6 346.650 7.26881   3
  -1  -4  -6 10.1789 2.44111   5
  -1  -4  -6 4.67494 1.43062   1
   1   4   6 4.01322 1.14337   3
   1   4   6 4.38928 1.69938   2
   1   4   6 5.74181 1.57865   4
  -2  -4  -6 135.231 3.98252   3
  -2  -4  -6 127.846 4.66098   5
  -2  -4  -6 133.655 4.14911   1
   2   4   6 127.210 4.84781   2
   2   4   6 136.133 4.91150   4
   2   4   6 135.487 3.93615   3
  -3  -4  -6 356.173 7.83830   1
  -3  -4  -6 355.515 8.62117   5
  -3  -4  -6 354.148 7.95279   3
   3   4   6 368.816 7.91964   1
   3   4   6 376.039 9.22749   2
   3   4   6 328.383 9.12018   4
  -4  -4  -6 30.2444 2.89517   1
  -4  -4  -6 34.8151 3.46621   3
  -4  -4  -6 29.7738 3.39565   5
   4   4   6 35.7613 4.05019   2
   4   4   6 42.7759 3.11465   1
   4   4   6 27.1670 4.25081   4
  -5  -4  -6 -0.7310 2.00964   5
  -5  -4  -6 2.15872 2.35945   3
   5   4   6 2.18218 2.04178   1
   5   4   6 -2.3637 2.99520   4
   5   4   6 0.96494 2.40258   2
  -6  -4  -6 -1.5658 3.18840   3
   6   4   6 2.99096 3.37650   4
   6   4   6 1.61582 3.53045   2
  -7  -4  -6 15.9971 4.05353   3
   7   4   6 15.8015 4.68352   4
   7   4   6 15.5649 4.14952   2
   7  -5  -6 72.8000 8.00158   4
   7  -5  -6 66.0537 9.75667   1
  -7   5   6 64.0199 8.34765   3
  -7   5   6 64.9620 7.85152   2
   6  -5  -6 46.7361 6.29708   4
   6  -5  -6 36.7590 7.43290   1
  -6   5   6 44.9666 6.00431   2
  -6   5   6 32.0804 6.61291   3
   5  -5  -6 360.339 10.1392   4
   5  -5  -6 355.606 11.1386   1
   5  -5  -6 360.093 10.0767   5
  -5   5   6 358.032 10.4061   2
  -5   5   6 374.099 11.1170   3
   4  -5  -6 21.5966 4.00162   5
   4  -5  -6 22.2868 3.88314   4
   4  -5  -6 23.9810 4.75694   1
  -4   5   6 20.7291 3.20368   2
  -4   5   6 32.4291 4.32388   3
  -4   5   6 29.8617 4.36776   4
   3  -5  -6 145.641 5.69407   5
   3  -5  -6 141.020 6.04938   1
   3  -5  -6 142.165 5.34177   4
  -3   5   6 135.998 5.34135   3
  -3   5   6 148.950 5.89683   2
  -3   5   6 151.040 5.51589   4
   2  -5  -6 1043.25 21.3533   1
   2  -5  -6 1118.94 21.1316   5
   2  -5  -6 1107.26 20.6608   4
  -2   5   6 1118.73 20.3027   3
  -2   5   6 1122.04 20.7263   4
  -2   5   6 1135.69 21.3107   2
   1  -5  -6 50.4314 3.66163   1
   1  -5  -6 43.3947 3.08391   4
   1  -5  -6 48.7296 3.43393   5
  -1   5   6 52.6390 2.72621   3
  -1   5   6 49.7504 3.22393   4
  -1   5   6 54.8931 3.52048   2
   0  -5  -6 1866.21 32.7559   5
   0  -5  -6 1837.71 32.5360   1
   0   5   6 1826.47 32.3768   4
   0   5   6 1830.59 30.8962   3
   0   5   6 1833.74 32.7755   2
  -1  -5  -6 693.469 13.9440   1
  -1  -5  -6 699.442 14.4001   5
  -1  -5  -6 723.095 12.5046   3
   1   5   6 672.192 12.4128   3
   1   5   6 691.474 14.4318   2
   1   5   6 701.256 14.3066   4
  -2  -5  -6 47.2907 3.52844   5
  -2  -5  -6 45.3127 3.05889   1
  -2  -5  -6 48.0421 2.51167   3
   2   5   6 46.4067 3.63989   4
   2   5   6 49.2001 2.41350   3
   2   5   6 43.3113 3.74480   2
  -3  -5  -6 13.9384 2.41512   3
  -3  -5  -6 13.8744 3.24606   5
  -3  -5  -6 14.9788 2.57929   1
   3   5   6 11.7828 2.27545   2
   3   5   6 14.5211 2.64974   1
   3   5   6 12.8564 2.50342   4
  -4  -5  -6 84.6389 4.00015   3
  -4  -5  -6 81.1344 4.25847   1
  -4  -5  -6 73.9011 4.44916   5
   4   5   6 80.9163 4.32107   1
   4   5   6 91.4279 5.88219   4
   4   5   6 88.0479 5.00131   2
  -5  -5  -6 18.5654 4.48546   5
  -5  -5  -6 10.8241 2.72795   3
   5   5   6 7.67106 2.45600   1
   5   5   6 6.85104 3.09165   4
   5   5   6 12.2577 3.15547   2
  -6  -5  -6 73.8696 6.24274   3
  -6  -5  -6 79.2342 6.04232   5
   6   5   6 73.2901 6.55461   4
   6   5   6 71.3302 6.59406   2
  -7  -5  -6 -4.9918 3.83394   3
   7   5   6 4.00619 4.17931   4
   7   5   6 1.23329 4.14965   2
   6  -6  -6 14.0414 4.01698   4
   6  -6  -6 14.6431 5.13101   1
  -6   6   6 17.9988 4.49063   3
  -6   6   6 22.6592 4.27305   2
   5  -6  -6 197.105 7.81484   5
   5  -6  -6 216.801 8.29324   4
   5  -6  -6 216.798 9.45205   1
  -5   6   6 213.459 8.82863   3
  -5   6   6 218.342 8.51618   2
  -5   6   6 206.127 8.35005   4
   4  -6  -6 269.716 8.50400   4
   4  -6  -6 270.881 8.46533   5
   4  -6  -6 263.984 9.75639   1
  -4   6   6 276.013 8.85072   2
  -4   6   6 265.090 8.60036   4
  -4   6   6 262.009 8.46010   3
   3  -6  -6 54.1012 4.25859   5
   3  -6  -6 41.7504 5.00409   1
   3  -6  -6 41.2633 4.16170   4
  -3   6   6 49.9860 4.53248   2
  -3   6   6 41.4082 3.85662   3
  -3   6   6 43.4265 4.46337   4
   2  -6  -6 160.315 6.15800   5
   2  -6  -6 181.323 6.66890   1
   2  -6  -6 179.933 6.18227   4
  -2   6   6 172.503 6.23864   4
  -2   6   6 184.512 5.35273   3
  -2   6   6 180.946 6.48641   2
   1  -6  -6 230.653 6.84693   4
   1  -6  -6 225.242 6.99025   5
   1  -6  -6 206.247 6.95488   1
  -1   6   6 232.516 6.90530   4
  -1   6   6 228.061 5.51906   3
  -1   6   6 238.777 7.23346   2
   0  -6  -6 -0.5278 1.75721   1
   0  -6  -6 -0.9068 1.79821   5
   0   6   6 -1.7205 1.68905   4
   0   6   6 -0.7844 1.06613   3
   0   6   6 1.39005 1.84177   2
  -1  -6  -6 41.4372 3.52979   1
  -1  -6  -6 42.1190 3.45139   5
   1   6   6 46.1362 3.86104   4
   1   6   6 42.9189 3.69973   2
  -2  -6  -6 105.536 4.95807   5
  -2  -6  -6 100.540 2.94111   3
  -2  -6  -6 96.4440 4.50348   1
   2   6   6 102.785 5.09950   2
   2   6   6 101.436 5.05233   4
  -3  -6  -6 234.369 5.57135   3
  -3  -6  -6 241.236 7.55568   5
  -3  -6  -6 230.938 6.96651   1
   3   6   6 229.240 7.80274   4
   3   6   6 242.105 7.20269   1
   3   6   6 239.922 7.63481   2
  -4  -6  -6 353.597 9.68881   5
  -4  -6  -6 343.034 9.05641   1
  -4  -6  -6 345.796 8.08278   3
   4   6   6 346.439 10.6520   4
   4   6   6 344.690 9.22206   1
   4   6   6 346.686 9.78875   2
  -5  -6  -6 278.346 8.34182   1
  -5  -6  -6 289.031 8.96544   5
   5   6   6 270.579 8.41516   1
   5   6   6 308.172 9.46682   2
   5   6   6 289.892 10.2235   4
  -6  -6  -6 -3.6497 3.31424   5
   6   6   6 3.21956 3.55003   2
   6   6   6 -5.6752 3.73134   4
   7   6   6 -2.5626 4.11652   2
   7   6   6 4.86695 4.89040   4
   6  -7  -6 3.67634 4.71927   1
   6  -7  -6 -0.4153 4.25609   4
  -6   7   6 7.30460 4.89861   2
  -6   7   6 7.77566 4.23676   4
  -6   7   6 2.60502 4.63207   3
   5  -7  -6 -0.4591 3.25929   5
   5  -7  -6 -4.4694 3.29404   4
   5  -7  -6 3.97720 4.01671   1
  -5   7   6 0.42961 3.30016   3
  -5   7   6 0.71567 3.64716   2
  -5   7   6 5.37927 3.53189   4
   4  -7  -6 47.8335 5.35553   4
   4  -7  -6 45.4870 6.21772   1
   4  -7  -6 36.0327 5.36036   5
  -4   7   6 39.6463 5.11464   3
  -4   7   6 45.2003 5.43126   4
  -4   7   6 41.5733 5.94925   2
   3  -7  -6 147.877 6.51035   4
   3  -7  -6 146.669 6.29619   5
   3  -7  -6 148.077 7.19967   1
  -3   7   6 144.457 7.00865   2
  -3   7   6 145.489 6.48273   4
  -3   7   6 142.340 5.79497   3
   2  -7  -6 124.951 5.73079   4
   2  -7  -6 128.308 6.26712   1
   2  -7  -6 125.187 5.56439   5
  -2   7   6 130.473 5.76776   4
  -2   7   6 121.764 4.50750   3
  -2   7   6 116.550 5.90366   2
   1  -7  -6 132.117 5.68409   5
   1  -7  -6 138.699 5.86887   4
   1  -7  -6 139.616 6.17968   1
  -1   7   6 141.419 5.82939   4
  -1   7   6 140.876 4.16277   3
  -1   7   6 132.098 5.93618   2
   0  -7  -6 1641.90 30.3018   5
   0  -7  -6 1650.31 30.4985   1
   0   7   6 1621.52 30.3314   2
   0   7   6 1647.67 30.4067   4
  -1  -7  -6 491.691 11.7178   1
  -1  -7  -6 466.111 11.6471   5
   1   7   6 496.723 11.8190   2
   1   7   6 499.638 11.9661   4
  -2  -7  -6 148.781 6.20804   5
  -2  -7  -6 132.225 5.69585   1
   2   7   6 151.116 6.11829   2
   2   7   6 143.059 6.36134   4
  -3  -7  -6 114.729 5.79967   5
  -3  -7  -6 110.965 5.38790   1
   3   7   6 117.578 5.98331   1
   3   7   6 115.988 5.80006   2
   3   7   6 106.523 6.46047   4
  -4  -7  -6 41.9577 4.99160   5
  -4  -7  -6 48.3786 4.90876   1
   4   7   6 45.4866 4.95442   2
   4   7   6 47.6005 5.36414   1
   4   7   6 41.0961 5.83020   4
  -5  -7  -6 347.667 10.3466   1
  -5  -7  -6 350.088 10.8398   5
   5   7   6 343.634 10.5345   1
   5   7   6 357.508 10.7726   2
   5   7   6 349.461 11.6742   4
  -6  -7  -6 273.164 9.86589   5
   6   7   6 259.707 11.2647   4
   6   7   6 269.674 9.70721   2
   6  -8  -6 -0.9094 4.71758   4
   6  -8  -6 -6.3463 5.41959   1
  -6   8   6 2.68306 5.52905   2
  -6   8   6 6.11389 5.18474   4
  -6   8   6 -1.3472 4.65132   3
   5  -8  -6 72.2610 7.57715   4
   5  -8  -6 64.7517 8.66651   1
  -5   8   6 66.6988 8.45827   2
  -5   8   6 55.8107 7.71594   4
  -5   8   6 59.5929 6.72144   3
   4  -8  -6 79.7251 6.58617   4
   4  -8  -6 73.8465 6.97135   1
   4  -8  -6 73.3136 6.35739   5
  -4   8   6 69.4540 7.11403   2
  -4   8   6 70.9785 5.97059   3
  -4   8   6 66.9559 6.62388   4
   3  -8  -6 31.2522 5.49172   1
   3  -8  -6 39.5714 5.27251   4
   3  -8  -6 30.1399 4.76199   5
  -3   8   6 29.8376 5.78037   2
  -3   8   6 35.5913 4.30621   3
  -3   8   6 37.9575 5.44417   4
   2  -8  -6 425.790 11.1538   5
   2  -8  -6 435.300 11.5375   4
   2  -8  -6 431.907 12.0658   1
  -2   8   6 439.435 9.56151   3
  -2   8   6 435.753 11.6609   4
  -2   8   6 437.195 12.0128   2
   1  -8  -6 16.8429 4.39713   1
   1  -8  -6 17.5611 3.21164   4
   1  -8  -6 26.9787 3.85018   5
  -1   8   6 22.1559 4.37090   4
  -1   8   6 21.4936 4.68093   2
   0  -8  -6 0.92698 2.35087   1
   0  -8  -6 -0.7880 2.27157   5
   0   8   6 -0.0358 2.48810   2
   0   8   6 -1.9030 2.34645   4
  -1  -8  -6 290.866 8.93855   5
  -1  -8  -6 281.464 8.81876   1
   1   8   6 289.993 8.88108   2
   1   8   6 295.037 9.22312   4
  -2  -8  -6 475.641 12.0501   1
  -2  -8  -6 474.917 12.1700   5
   2   8   6 462.166 12.4356   4
   2   8   6 484.124 12.1116   2
  -3  -8  -6 5.57739 3.07773   5
  -3  -8  -6 -1.9350 2.46248   1
   3   8   6 4.25981 3.22987   4
   3   8   6 -0.4148 2.71069   2
   3   8   6 0.82156 2.78198   1
  -4  -8  -6 -1.2383 3.00950   5
  -4  -8  -6 9.21668 3.20457   1
   4   8   6 -0.5511 3.17782   4
   4   8   6 3.47668 3.23902   1
   4   8   6 9.98375 3.23850   2
  -5  -8  -6 16.9744 3.88770   1
  -5  -8  -6 14.1156 3.94468   5
   5   8   6 31.0684 7.27738   4
   5   8   6 29.5846 6.67674   1
   5   8   6 22.2000 4.31599   2
  -6  -8  -6 -3.5464 4.25470   5
   6   8   6 3.26000 4.08383   2
   6   8   6 -9.9160 4.45657   4
   5  -9  -6 27.5804 6.24259   1
   5  -9  -6 19.2776 5.18425   4
  -5   9   6 26.9922 6.22554   2
  -5   9   6 39.5556 9.19886   4
  -5   9   6 25.9707 4.59379   3
   4  -9  -6 6.36125 4.13783   4
   4  -9  -6 10.8173 4.62032   1
   4  -9  -6 8.16171 3.84652   5
  -4   9   6 1.63328 4.03515   4
  -4   9   6 -0.1837 4.12440   2
  -4   9   6 8.12920 3.37837   3
   3  -9  -6 43.2774 5.69762   5
   3  -9  -6 46.8131 6.74526   1
   3  -9  -6 32.0355 6.05131   4
  -3   9   6 55.0920 6.91721   2
  -3   9   6 51.2243 6.51783   4
   2  -9  -6 77.9864 5.90509   5
   2  -9  -6 85.0574 6.56028   4
   2  -9  -6 80.0715 6.41367   1
  -2   9   6 82.9012 6.79608   2
  -2   9   6 76.5101 6.34489   4
   1  -9  -6 2.06468 3.00631   1
   1  -9  -6 1.47836 3.32524   4
   1  -9  -6 4.76361 2.91418   5
  -1   9   6 -2.3575 3.01029   4
  -1   9   6 4.31029 3.21017   2
   0  -9  -6 -0.4204 2.87939   5
   0  -9  -6 1.05147 3.07864   1
   0   9   6 -0.1636 2.85706   2
   0   9   6 -0.4143 3.01964   4
  -1  -9  -6 56.7133 5.81859   1
  -1  -9  -6 55.2668 5.58768   5
   1   9   6 57.0509 6.09964   4
   1   9   6 59.9243 5.77201   2
  -2  -9  -6 141.486 7.08071   1
  -2  -9  -6 142.909 7.06972   5
   2   9   6 142.828 7.47495   4
   2   9   6 147.163 7.05542   2
  -3  -9  -6 93.1128 6.65679   5
  -3  -9  -6 90.5480 6.97405   1
   3   9   6 89.7797 6.88568   1
   3   9   6 100.881 6.76224   2
   3   9   6 102.348 7.00151   4
  -4  -9  -6 23.3381 6.09240   5
  -4  -9  -6 25.5508 5.76407   1
   4   9   6 21.2797 5.73393   1
   4   9   6 25.4026 6.11667   4
   4   9   6 21.4063 4.15738   2
  -5  -9  -6 33.2072 6.79086   1
  -5  -9  -6 18.9982 4.57222   5
   5   9   6 31.0166 6.68407   1
   5   9   6 37.1598 6.57609   2
   5   9   6 22.7897 5.18511   4
   4 -10  -6 1.31606 5.26720   1
   4 -10  -6 3.73478 4.06544   4
   4 -10  -6 -4.1500 3.74188   5
  -4  10   6 -2.5076 4.71898   4
  -4  10   6 -4.1952 4.67902   2
   3 -10  -6 0.29247 3.14405   5
   3 -10  -6 -2.0015 4.05826   1
   3 -10  -6 0.03767 3.59333   4
  -3  10   6 9.07008 4.47737   4
  -3  10   6 -3.2186 4.11432   2
   2 -10  -6 4.08659 3.79204   1
   2 -10  -6 -0.8095 3.19717   5
   2 -10  -6 6.24483 3.43440   4
  -2  10   6 0.24741 3.53443   2
  -2  10   6 7.64195 4.00674   4
   1 -10  -6 22.6261 5.93802   1
   1 -10  -6 14.3455 3.69652   5
  -1  10   6 17.2013 4.01052   4
  -1  10   6 26.2938 6.27255   2
   0 -10  -6 31.0202 5.86634   5
   0 -10  -6 44.5924 5.76787   1
   0  10   6 32.6724 6.01264   2
   0  10   6 36.7296 6.06219   4
  -1 -10  -6 35.5138 5.87284   5
  -1 -10  -6 45.4498 6.32189   1
   1  10   6 45.0625 5.94974   4
  -2 -10  -6 3.45971 3.61124   1
  -2 -10  -6 7.56658 3.62041   5
   2  10   6 0.95100 3.30378   2
   2  10   6 5.13825 3.71853   4
  -3 -10  -6 24.9394 4.42052   5
  -3 -10  -6 21.0598 4.36246   1
   3  10   6 36.7076 6.82995   4
   3  10   6 26.2602 4.39766   2
   3  10   6 29.5687 6.49987   1
  -4 -10  -6 121.882 8.58122   1
  -4 -10  -6 105.061 8.08999   5
   4  10   6 107.737 7.63127   2
   4  10   6 110.228 8.40628   1
   4  10   6 116.389 8.38307   4
  -5 -10  -6 4.43353 4.59641   5
  -5 -10  -6 1.43753 4.77010   1
   5  10   6 0.53987 4.78141   1
   5  10   6 -0.3966 4.33324   2
   5  10   6 -9.7897 4.40090   4
   3 -11  -6 4.09463 4.06855   5
   3 -11  -6 0.12729 4.14881   4
   3 -11  -6 -7.6276 4.63526   1
  -3  11   6 -4.6727 4.92346   4
  -3  11   6 -2.5730 4.76958   2
   2 -11  -6 6.88965 4.18721   1
   2 -11  -6 0.89774 3.64744   4
   2 -11  -6 -1.6947 3.73999   5
  -2  11   6 -6.9484 4.30588   2
  -2  11   6 6.76055 4.75080   4
   1 -11  -6 143.147 8.99191   1
   1 -11  -6 130.037 8.29885   5
  -1  11   6 128.672 8.78916   2
  -1  11   6 129.316 9.03533   4
   0 -11  -6 145.596 8.37537   1
   0 -11  -6 129.883 8.25647   5
   0  11   6 148.434 8.36264   2
   0  11   6 144.104 9.02119   4
  -1 -11  -6 12.2666 4.41421   5
  -1 -11  -6 15.7651 4.23255   1
   1  11   6 9.72819 4.25502   4
   1  11   6 17.5908 4.63393   2
  -2 -11  -6 9.13512 4.05339   1
  -2 -11  -6 12.6606 4.15845   5
   2  11   6 11.6674 4.15827   4
   2  11   6 11.4660 4.23777   2
  -3 -11  -6 1.19345 4.30202   1
  -3 -11  -6 0.09365 4.03670   5
   3  11   6 0.80442 4.62247   1
   3  11   6 7.54465 4.17277   4
   3  11   6 4.74011 4.17806   2
  -4 -11  -6 33.7940 7.66632   5
  -4 -11  -6 13.3510 5.15154   1
   4  11   6 13.2818 5.55898   1
   4  11   6 21.1650 5.26080   4
   4  11   6 33.4006 8.08401   2
   2 -12  -6 29.2442 5.69161   1
   2 -12  -6 19.9797 5.02926   4
   2 -12  -6 30.0738 5.55512   5
  -2  12   6 36.0418 9.03068   4
  -2  12   6 36.4860 8.70988   2
   1 -12  -6 59.1208 8.63405   5
   1 -12  -6 57.4643 8.62575   1
  -1  12   6 69.8911 8.88743   4
  -1  12   6 73.5970 8.72909   2
   0 -12  -6 54.9784 8.75416   1
   0 -12  -6 68.6154 8.89737   5
   0  12   6 49.3670 8.18910   4
   0  12   6 54.9488 8.02011   2
  -1 -12  -6 2.21687 4.65859   5
  -1 -12  -6 2.78331 4.47707   1
   1  12   6 5.62645 4.61989   4
   1  12   6 11.3877 4.66628   2
  -2 -12  -6 65.1997 8.01161   5
  -2 -12  -6 61.5944 8.20955   1
   2  12   6 51.3879 9.04563   2
   2  12   6 48.7878 8.08193   4
   1  10  -7 7.73571 4.46728   3
   1  10  -7 4.71982 4.51819   5
   1  10  -7 -0.4184 4.81674   1
  -1 -10   7 5.30918 4.72526   1
  -1 -10   7 7.14251 5.40698   5
  -1 -10   7 3.71667 4.36304   3
   0  10  -7 13.8844 4.65259   3
   0  10  -7 16.4326 4.90276   1
   0  10  -7 22.8439 5.30466   5
   0 -10   7 11.8727 5.00098   1
   0 -10   7 16.6914 5.11391   5
   0 -10   7 9.95320 4.57668   3
   3   9  -7 1.73719 4.30690   1
   3   9  -7 -1.9211 4.20962   5
  -3  -9   7 -0.9351 4.58400   3
  -3  -9   7 2.98822 4.50946   5
   2   9  -7 77.6247 8.30011   1
   2   9  -7 88.8398 7.80466   5
  -2  -9   7 89.7091 8.11189   5
  -2  -9   7 81.0761 7.89409   3
   1   9  -7 -5.5719 3.81745   1
   1   9  -7 -0.1937 3.65396   5
  -1  -9   7 1.31966 3.90226   1
  -1  -9   7 2.65988 3.75481   3
  -1  -9   7 2.27714 4.24699   5
   0   9  -7 77.3786 6.89615   3
   0   9  -7 67.2765 6.78311   1
   0   9  -7 85.3239 7.58629   5
   0  -9   7 71.7535 7.13041   5
   0  -9   7 67.6777 7.19595   1
   0  -9   7 83.7214 6.98711   3
  -1   9  -7 20.2023 4.35387   5
  -1   9  -7 25.5506 4.20261   1
  -1   9  -7 31.4815 6.12940   2
  -1   9  -7 21.8919 4.17031   4
  -1   9  -7 31.7763 6.79794   3
   1  -9   7 26.4160 6.98533   4
   1  -9   7 21.7800 4.23845   5
   1  -9   7 25.1774 6.40641   3
   1  -9   7 23.5017 4.25157   1
   1  -9   7 32.9818 6.17657   2
  -2   9  -7 2.27313 4.04528   4
  -2   9  -7 3.43317 4.19336   2
  -2   9  -7 -5.3923 4.00903   3
   2  -9   7 -1.8730 4.11831   3
   2  -9   7 1.07720 3.96547   2
   2  -9   7 3.06784 3.86264   4
  -3   9  -7 1.56466 4.79406   2
  -3   9  -7 3.00767 4.63272   4
  -3   9  -7 7.97624 4.74451   3
   3  -9   7 -0.0028 5.15713   2
   3  -9   7 0.05007 5.31644   3
   3  -9   7 5.35154 4.89760   4
   4   8  -7 3.44944 4.29734   1
   4   8  -7 3.23584 4.15449   5
  -4  -8   7 0.27628 4.29554   5
  -4  -8   7 12.2757 4.78337   3
   3   8  -7 32.2431 4.86104   5
   3   8  -7 29.5568 4.94191   1
  -3  -8   7 23.0359 4.83859   5
  -3  -8   7 47.8932 6.90971   3
   2   8  -7 -1.7105 3.27900   5
   2   8  -7 0.21234 3.54201   1
  -2  -8   7 2.27256 3.58495   3
  -2  -8   7 -3.9552 3.75978   5
   1   8  -7 1.69419 3.25459   5
   1   8  -7 3.55602 3.33489   1
  -1  -8   7 6.64828 3.54634   3
  -1  -8   7 -0.2431 3.38116   5
   0   8  -7 279.341 9.56395   1
   0   8  -7 268.760 8.60506   2
   0   8  -7 286.063 9.62566   5
   0   8  -7 287.114 9.11714   4
   0   8  -7 271.352 9.65223   3
   0  -8   7 300.356 9.72783   5
   0  -8   7 243.193 8.77350   4
   0  -8   7 278.606 9.77281   3
   0  -8   7 273.725 9.01569   2
   0  -8   7 278.237 9.71435   1
  -1   8  -7 64.4124 6.10966   1
  -1   8  -7 54.6297 6.11673   2
  -1   8  -7 71.6486 6.15173   4
  -1   8  -7 60.1980 6.26911   3
  -1   8  -7 67.7829 6.42028   5
   1  -8   7 67.7424 6.54774   4
   1  -8   7 60.1929 6.39706   1
   1  -8   7 61.0525 6.30808   2
   1  -8   7 55.4823 6.26591   5
   1  -8   7 73.9395 6.52386   3
  -2   8  -7 16.8875 4.17396   2
  -2   8  -7 14.8077 3.61287   5
  -2   8  -7 18.9439 3.90732   4
  -2   8  -7 20.6312 4.19069   3
   2  -8   7 22.7834 5.91746   5
   2  -8   7 14.2488 3.85007   2
   2  -8   7 25.5089 6.36003   4
   2  -8   7 12.8043 4.22115   3
  -3   8  -7 37.9976 7.44160   3
  -3   8  -7 39.1547 7.52759   2
   3  -8   7 31.5591 7.83480   2
   3  -8   7 26.1649 6.28889   4
   3  -8   7 34.6388 7.79489   3
  -4   8  -7 2.67985 4.31695   3
  -4   8  -7 10.5038 4.83797   2
   4  -8   7 7.85508 4.92330   4
   4  -8   7 15.8835 5.68088   3
   4  -8   7 14.5202 5.94893   2
   5   7  -7 0.69578 4.75206   5
   5   7  -7 6.45096 4.53982   1
  -5  -7   7 7.51852 4.84658   3
  -5  -7   7 12.4706 4.47205   5
   4   7  -7 118.511 7.85344   5
   4   7  -7 117.773 7.77792   1
  -4  -7   7 113.408 7.67972   3
  -4  -7   7 100.239 7.76228   5
   3   7  -7 1.31486 3.37525   1
   3   7  -7 4.60593 3.38331   5
  -3  -7   7 0.57832 3.46958   5
  -3  -7   7 -1.1052 3.41935   3
   2   7  -7 61.4044 6.22466   1
   2   7  -7 64.9431 5.81018   5
  -2  -7   7 53.1999 6.03828   5
  -2  -7   7 68.8612 6.44685   3
   1   7  -7 47.3908 5.56404   5
   1   7  -7 35.8965 5.28062   1
  -1  -7   7 35.0257 5.35456   3
  -1  -7   7 39.7477 5.66561   5
   0   7  -7 0.42320 2.68616   1
   0   7  -7 5.65340 2.47243   2
   0   7  -7 5.81064 2.46319   4
   0   7  -7 -2.0621 2.63885   5
   0  -7   7 2.88986 2.73033   5
   0  -7   7 3.40162 2.61105   4
   0  -7   7 1.65728 2.93787   1
   0  -7   7 7.54125 2.89105   3
   0  -7   7 1.34118 2.67688   2
  -1   7  -7 781.960 16.4018   1
  -1   7  -7 774.201 17.8384   3
  -1   7  -7 781.232 16.4739   4
  -1   7  -7 788.394 16.7549   2
  -1   7  -7 781.000 16.7632   5
   1  -7   7 741.997 16.5193   1
   1  -7   7 793.750 17.9718   3
   1  -7   7 785.990 16.8243   5
   1  -7   7 764.111 16.6368   2
   1  -7   7 748.412 16.4936   4
  -2   7  -7 99.0303 5.87487   5
  -2   7  -7 94.7008 6.78536   3
  -2   7  -7 92.0814 5.18111   1
   2  -7   7 96.7110 6.11478   5
   2  -7   7 83.9950 5.27798   1
   2  -7   7 94.1923 6.25590   2
   2  -7   7 81.7423 6.64753   3
   2  -7   7 80.1128 6.31668   4
  -3   7  -7 47.1896 6.69467   3
   3  -7   7 28.3950 6.51822   2
   3  -7   7 32.1057 7.01430   3
   3  -7   7 30.8770 5.80405   4
  -4   7  -7 5.95714 4.19204   3
   4  -7   7 2.92113 4.78361   3
   4  -7   7 11.8179 4.77290   2
   4  -7   7 2.82662 4.21862   4
  -5   7  -7 24.3817 5.23892   3
   5  -7   7 20.2657 5.78121   4
   5  -7   7 22.8878 5.59143   2
   5   6  -7 7.18532 4.24036   5
   5   6  -7 6.24158 3.94230   1
  -5  -6   7 8.83558 4.19423   3
  -5  -6   7 9.00350 3.87556   5
   4   6  -7 -3.0967 3.14976   5
   4   6  -7 -0.5386 3.32392   1
  -4  -6   7 4.19339 3.24486   5
  -4  -6   7 1.39449 3.51998   3
   3   6  -7 5.14163 3.23783   1
   3   6  -7 5.32359 2.93877   5
  -3  -6   7 9.34705 3.55515   3
  -3  -6   7 5.22321 2.94210   5
   2   6  -7 -1.1203 2.63272   1
   2   6  -7 -1.3446 2.78024   5
  -2  -6   7 3.49590 2.77131   3
  -2  -6   7 0.82323 2.90899   5
   1   6  -7 665.946 13.0065   2
   1   6  -7 660.018 14.6965   1
   1   6  -7 651.170 14.9418   5
   1   6  -7 640.625 13.0193   4
  -1  -6   7 642.219 14.8823   5
  -1  -6   7 636.805 12.9917   2
  -1  -6   7 650.555 15.2979   3
   0   6  -7 4.85324 2.50603   1
   0   6  -7 5.23932 2.52683   5
   0   6  -7 5.33180 2.10913   4
   0  -6   7 6.31350 2.76228   3
   0  -6   7 6.56844 2.40392   2
   0  -6   7 4.44742 2.34628   5
   0  -6   7 2.68927 2.28969   4
  -1   6  -7 10.7071 3.17590   3
  -1   6  -7 16.4478 3.91859   4
  -1   6  -7 10.3939 2.45370   1
  -1   6  -7 10.7740 2.49735   5
   1  -6   7 10.7950 2.54671   1
   1  -6   7 7.52603 2.66909   5
   1  -6   7 7.55639 3.08202   3
   1  -6   7 13.2410 2.87032   2
   1  -6   7 10.1952 2.50469   4
  -2   6  -7 25.5767 3.57303   1
  -2   6  -7 41.8929 5.72768   3
  -2   6  -7 33.3004 4.20182   5
   2  -6   7 36.5154 4.89499   2
   2  -6   7 35.9868 5.08228   4
   2  -6   7 37.8264 5.71074   3
   2  -6   7 36.9291 3.97454   1
  -3   6  -7 2.46178 3.21554   3
   3  -6   7 2.41199 3.16183   4
   3  -6   7 6.51694 3.52740   3
   3  -6   7 0.81130 3.27032   2
  -4   6  -7 37.3288 6.62718   3
   4  -6   7 40.6549 7.15356   3
   4  -6   7 37.0683 6.06771   4
   4  -6   7 32.4945 6.75557   2
  -5   6  -7 107.034 8.56097   3
   5  -6   7 97.7639 9.51219   4
   5  -6   7 92.1768 8.87061   2
   6   5  -7 142.622 8.98585   1
   6   5  -7 117.577 8.80137   5
  -6  -5   7 130.881 10.0728   3
   5   5  -7 47.5525 6.52002   5
   5   5  -7 38.3257 6.83377   1
  -5  -5   7 41.2466 7.00865   3
  -5  -5   7 38.2761 6.07846   5
   4   5  -7 32.1676 5.73965   1
   4   5  -7 46.8781 5.26489   5
  -4  -5   7 45.9056 5.78700   3
  -4  -5   7 39.0602 5.21774   5
   3   5  -7 1.23607 2.64294   5
   3   5  -7 -0.0891 2.77831   1
  -3  -5   7 3.46367 2.70344   5
  -3  -5   7 -3.6203 2.64443   3
   2   5  -7 280.981 8.92748   5
   2   5  -7 277.992 8.60037   1
  -2  -5   7 274.508 8.77840   5
  -2  -5   7 277.696 8.95397   3
   1   5  -7 25.7825 3.96606   5
   1   5  -7 29.6303 2.82023   4
   1   5  -7 37.7780 4.09523   1
  -1  -5   7 33.2403 4.37169   3
  -1  -5   7 18.6717 3.67105   5
  -1  -5   7 25.3615 3.00645   2
   0   5  -7 34.3376 3.75955   5
   0   5  -7 29.4080 3.61034   1
   0   5  -7 41.1992 3.27933   4
   0  -5   7 29.9131 4.35640   3
   0  -5   7 33.3059 3.21255   4
   0  -5   7 33.5292 3.36098   2
   0  -5   7 31.8563 3.71038   5
  -1   5  -7 223.515 6.45834   1
  -1   5  -7 226.494 6.87009   5
  -1   5  -7 226.909 7.92375   3
   1  -5   7 220.654 7.06737   2
   1  -5   7 226.833 7.89732   3
   1  -5   7 215.469 6.93509   5
   1  -5   7 234.641 6.52243   1
   1  -5   7 235.927 6.55896   4
  -2   5  -7 21.4905 3.05210   1
  -2   5  -7 26.2729 4.54382   3
  -2   5  -7 22.9494 3.41762   5
   2  -5   7 25.5876 4.64674   3
   2  -5   7 20.8802 4.03665   2
   2  -5   7 26.8641 3.33401   1
   2  -5   7 19.6257 3.87473   4
  -3   5  -7 232.482 6.53146   5
  -3   5  -7 226.099 8.94458   3
   3  -5   7 240.907 8.23796   4
   3  -5   7 233.579 8.55761   2
   3  -5   7 246.398 9.16893   3
  -4   5  -7 22.7676 5.83929   3
   4  -5   7 8.89067 3.23294   4
   4  -5   7 9.28101 3.66770   3
   4  -5   7 10.6464 3.39587   2
  -5   5  -7 9.83590 4.20320   3
   5  -5   7 9.90071 4.13733   4
   5  -5   7 9.63232 4.21839   2
  -6   5  -7 127.828 9.82405   3
   6  -5   7 134.341 9.39844   2
   6  -5   7 131.669 10.5876   4
   6   4  -7 13.6486 4.25299   1
   6   4  -7 10.4104 4.31585   5
  -6  -4   7 16.8274 5.13626   3
   5   4  -7 124.524 7.41023   1
   5   4  -7 127.583 7.52827   5
  -5  -4   7 134.676 7.99755   3
   4   4  -7 5.76001 3.02193   5
   4   4  -7 5.67738 3.05396   1
  -4  -4   7 4.76513 2.90230   5
  -4  -4   7 1.30103 3.30941   3
   3   4  -7 21.9661 4.32682   1
   3   4  -7 25.1563 4.03373   5
  -3  -4   7 30.7031 4.54891   3
  -3  -4   7 26.3515 4.14049   5
   2   4  -7 62.5552 4.50127   1
   2   4  -7 68.5551 4.43338   5
  -2  -4   7 59.2926 2.78322   2
  -2  -4   7 62.2331 4.45965   5
  -2  -4   7 63.6012 4.85758   3
   1   4  -7 638.844 11.7261   4
   1   4  -7 662.179 13.7267   1
   1   4  -7 638.560 13.9583   5
  -1  -4   7 625.264 13.8809   5
  -1  -4   7 655.664 14.5850   3
  -1  -4   7 655.014 12.4357   2
   0   4  -7 299.945 7.63760   1
   0   4  -7 314.372 6.89803   4
   0   4  -7 300.922 8.13455   5
   0  -4   7 307.023 6.94233   4
   0  -4   7 312.832 7.54687   2
   0  -4   7 305.810 8.81953   3
  -1   4  -7 19.9219 2.88636   5
  -1   4  -7 13.3367 2.50094   1
   1  -4   7 12.1085 2.44909   3
   1  -4   7 11.1790 2.54293   4
   1  -4   7 15.4098 3.26176   2
  -2   4  -7 4.56778 2.50963   3
  -2   4  -7 3.22337 1.89015   5
  -2   4  -7 7.98802 1.68075   1
   2  -4   7 12.3772 3.21733   4
   2  -4   7 4.91707 2.60788   3
   2  -4   7 5.78233 2.22736   2
  -3   4  -7 5.91395 1.78972   5
  -3   4  -7 11.0821 3.02733   3
   3  -4   7 5.04272 2.72504   2
   3  -4   7 5.57502 2.84840   3
   3  -4   7 2.71437 2.34614   4
  -4   4  -7 51.9189 5.96722   3
   4  -4   7 61.4225 5.32606   4
   4  -4   7 52.8282 5.89204   2
   4  -4   7 48.8016 6.13012   3
  -5   4  -7 1.99237 3.38029   3
   5  -4   7 6.14627 3.50752   4
   5  -4   7 3.19216 3.69299   2
  -6   4  -7 4.71886 4.25320   3
   6  -4   7 -5.0386 3.90837   2
   6  -4   7 5.56533 4.27895   4
   7   3  -7 1.16068 4.84382   1
   7   3  -7 -0.1699 4.24932   5
  -7  -3   7 3.64616 5.44880   3
   6   3  -7 2.86426 3.70652   5
   6   3  -7 -3.4495 3.94926   1
  -6  -3   7 4.05087 4.41791   3
   5   3  -7 2.01585 3.01125   5
   5   3  -7 -4.8289 2.82384   1
  -5  -3   7 -0.8687 3.27677   3
   4   3  -7 122.628 6.39626   1
   4   3  -7 122.193 6.27325   5
  -4  -3   7 115.513 6.60589   3
   3   3  -7 57.3523 4.37875   1
   3   3  -7 58.8278 4.42928   5
  -3  -3   7 57.3736 4.89329   3
   2   3  -7 73.8546 4.33843   5
   2   3  -7 68.7026 4.27686   1
  -2  -3   7 77.8359 4.63358   3
  -2  -3   7 78.5262 2.86119   2
   1   3  -7 244.046 7.30569   5
   1   3  -7 283.147 7.29578   1
  -1  -3   7 284.116 6.31093   2
  -1  -3   7 261.151 7.93188   3
   0   3  -7 524.915 11.4907   5
   0   3  -7 537.015 10.8406   1
   0  -3   7 537.597 10.8954   2
   0  -3   7 506.772 12.2198   3
   0  -3   7 530.499 9.99001   4
  -1   3  -7 15.2394 2.25363   1
  -1   3  -7 19.1546 2.66655   5
   1  -3   7 18.2435 3.50810   3
   1  -3   7 18.3444 2.86008   2
   1  -3   7 23.5091 2.45128   4
  -2   3  -7 62.3230 4.55358   3
  -2   3  -7 62.3446 3.30219   5
  -2   3  -7 60.9477 2.64002   1
   2  -3   7 51.4820 3.99387   2
   2  -3   7 59.7673 4.56121   3
   2  -3   7 64.7636 3.55337   4
  -3   3  -7 78.3708 3.60210   5
  -3   3  -7 72.6947 5.45975   3
   3  -3   7 73.5673 4.55065   4
   3  -3   7 75.5486 5.49295   3
   3  -3   7 67.0306 4.85817   2
  -4   3  -7 101.215 6.59168   3
   4  -3   7 98.4639 6.52491   2
   4  -3   7 91.4621 6.51418   3
   4  -3   7 105.260 5.77369   4
  -5   3  -7 3.32415 3.42964   3
   5  -3   7 -2.9125 3.05043   4
   5  -3   7 0.79029 3.21152   2
  -6   3  -7 4.71031 4.09911   3
   6  -3   7 13.7017 4.72707   4
   6  -3   7 12.1575 4.37934   2
   7   2  -7 7.51374 5.06227   1
   7   2  -7 -1.6056 4.02545   5
  -7  -2   7 -0.7668 5.08245   3
   6   2  -7 331.182 10.2989   5
   6   2  -7 323.861 11.4324   1
  -6  -2   7 317.393 11.7636   3
   5   2  -7 339.872 10.1709   5
   5   2  -7 340.845 10.8030   1
  -5  -2   7 333.947 10.7254   3
   4   2  -7 107.584 5.66572   5
   4   2  -7 107.509 5.88037   1
  -4  -2   7 109.472 6.13801   3
   3   2  -7 66.3969 4.36022   1
   3   2  -7 68.3558 4.47065   5
  -3  -2   7 61.9593 4.56033   3
  -3  -2   7 74.5500 2.44793   2
   2   2  -7 52.8592 3.67709   1
   2   2  -7 46.6660 3.49541   5
  -2  -2   7 53.9119 3.98505   3
  -2  -2   7 48.6278 2.53174   2
   1   2  -7 277.934 7.40045   5
   1   2  -7 273.199 6.95166   1
  -1  -2   7 279.882 6.33121   2
  -1  -2   7 270.351 7.86710   3
   0   2  -7 4122.67 68.2632   1
   0   2  -7 4120.67 69.0717   5
   0  -2   7 4257.90 67.3049   4
   0  -2   7 4165.28 68.5473   2
   0  -2   7 4031.59 69.8154   3
  -1   2  -7 24.7665 2.53766   5
  -1   2  -7 18.8588 1.97673   1
   1  -2   7 18.1194 2.27437   4
   1  -2   7 28.2199 2.95990   2
   1  -2   7 20.7619 3.34501   3
  -2   2  -7 6.17839 1.52177   5
  -2   2  -7 6.57017 2.19339   3
   2  -2   7 5.59022 1.64642   4
   2  -2   7 10.6747 2.18482   3
   2  -2   7 9.10716 2.25600   2
  -3   2  -7 23.5734 2.64239   5
  -3   2  -7 21.5151 4.00889   3
   3  -2   7 22.5054 4.06318   3
   3  -2   7 24.0254 3.50080   4
   3  -2   7 22.7989 3.84934   2
  -4   2  -7 227.684 8.37151   3
   4  -2   7 229.225 8.14312   2
   4  -2   7 227.384 8.37247   3
   4  -2   7 225.577 7.58308   4
  -5   2  -7 3.65553 3.27622   3
   5  -2   7 5.00989 3.14876   4
   5  -2   7 4.33489 3.10730   2
  -6   2  -7 2.24773 4.17801   3
   6  -2   7 -2.8899 3.77235   4
   6  -2   7 1.40178 3.59858   2
  -7   2  -7 4.20573 5.00010   3
   7  -2   7 8.85797 4.64126   2
   7  -2   7 2.09731 4.79717   4
   7   1  -7 20.5038 4.24066   5
   7   1  -7 35.2282 8.14566   1
  -7  -1   7 35.0669 8.41299   3
   6   1  -7 50.7869 5.49866   5
   6   1  -7 38.9311 6.55225   1
  -6  -1   7 54.4108 6.55920   3
   5   1  -7 186.199 7.04965   5
   5   1  -7 173.718 7.87098   1
  -5  -1   7 185.425 8.11730   3
   4   1  -7 1156.70 23.2446   1
   4   1  -7 1179.51 22.7990   5
  -4  -1   7 1171.12 23.5527   3
   3   1  -7 16.0090 3.45707   1
   3   1  -7 13.3272 3.02048   5
  -3  -1   7 20.8498 3.47697   3
  -3  -1   7 19.7106 2.13429   2
   2   1  -7 258.300 7.09408   1
   2   1  -7 259.968 7.22263   5
  -2  -1   7 253.461 7.55093   3
  -2  -1   7 266.223 5.88171   2
   1   1  -7 175.502 5.58397   5
   1   1  -7 186.420 5.22502   1
  -1  -1   7 180.655 6.01109   3
  -1  -1   7 184.092 4.84213   2
   0   1  -7 631.996 12.1207   1
   0   1  -7 633.050 12.8413   5
   0  -1   7 653.896 12.5621   2
   0  -1   7 639.178 11.2283   4
   0  -1   7 616.312 13.4395   3
  -1   1  -7 1065.07 19.3690   5
  -1   1  -7 1064.99 18.1794   1
   1  -1   7 1044.03 19.6089   2
   1  -1   7 1047.00 18.6392   4
   1  -1   7 1044.76 20.3704   3
  -2   1  -7 126.334 4.08302   5
  -2   1  -7 131.858 5.38252   3
   2  -1   7 123.800 4.93661   2
   2  -1   7 125.124 4.29372   4
   2  -1   7 125.518 5.35577   3
  -3   1  -7 66.6879 4.52912   3
  -3   1  -7 66.5510 3.21319   5
   3  -1   7 64.6104 4.54887   3
   3  -1   7 76.4946 4.22904   4
   3  -1   7 68.7313 4.30535   2
  -4   1  -7 47.2266 4.92131   3
  -4   1  -7 46.2311 2.93334   5
   4  -1   7 47.8108 4.37742   4
   4  -1   7 52.2289 4.97048   3
   4  -1   7 42.0835 4.52534   2
  -5   1  -7 707.528 16.9605   3
   5  -1   7 727.650 16.6794   4
   5  -1   7 705.995 16.4675   2
  -6   1  -7 11.0733 4.23954   3
   6  -1   7 17.9066 4.00085   2
   6  -1   7 11.3606 4.12114   4
  -7   1  -7 9.19679 5.14206   3
   7  -1   7 20.9384 5.23048   4
   7  -1   7 26.4319 6.69591   2
   7   0  -7 4.51437 4.68320   1
   7   0  -7 1.35518 3.72364   5
  -7   0   7 5.99040 4.66681   3
   6   0  -7 45.6789 5.89322   5
   6   0  -7 45.6530 6.55238   1
  -6   0   7 41.6094 6.39765   3
   5   0  -7 2.14142 2.43775   5
   5   0  -7 1.54872 2.90065   1
  -5   0   7 -0.0575 2.92308   3
   4   0  -7 53.8934 4.20790   5
   4   0  -7 53.8092 2.67138   4
   4   0  -7 43.1165 4.70331   1
  -4   0   7 51.6510 3.12498   2
  -4   0   7 50.2916 4.80055   3
   3   0  -7 1022.97 20.2396   1
   3   0  -7 1007.85 19.9580   5
  -3   0   7 1056.14 18.4612   2
  -3   0   7 1051.34 20.5656   3
   2   0  -7 150.970 5.22075   5
   2   0  -7 146.922 5.10012   1
  -2   0   7 152.547 4.32586   2
  -2   0   7 148.152 5.44245   3
   1   0  -7 859.461 16.0410   1
   1   0  -7 832.531 16.4045   5
  -1   0   7 856.455 15.6984   2
  -1   0   7 848.767 16.8156   3
   0   0  -7 402.379 8.98755   5
   0   0  -7 409.559 8.30223   1
   0   0   7 400.180 9.41369   3
   0   0   7 403.188 8.72840   2
   0   0   7 378.106 7.48870   4
  -1   0  -7 3.42372 1.12315   1
  -1   0  -7 3.51882 1.28874   5
   1   0   7 3.15164 1.60367   3
   1   0   7 0.20394 1.39297   2
   1   0   7 3.88677 1.21642   4
  -2   0  -7 5.11811 1.31872   5
  -2   0  -7 2.44652 1.80122   3
   2   0   7 1.91652 1.75821   3
   2   0   7 1.68914 1.28330   4
   2   0   7 1.61790 1.61846   2
  -3   0  -7 196.427 5.28308   5
  -3   0  -7 175.839 6.55442   3
   3   0   7 184.956 6.42592   3
   3   0   7 198.654 6.15402   4
   3   0   7 192.064 6.52683   2
  -4   0  -7 10.9546 2.56985   5
  -4   0  -7 2.64068 2.30476   3
   4   0   7 3.20449 2.43918   2
   4   0   7 4.65246 2.28775   4
   4   0   7 5.13313 2.50829   3
  -5   0  -7 369.970 11.0260   3
   5   0   7 373.990 10.9267   2
   5   0   7 361.640 10.9632   4
  -6   0  -7 153.754 8.47095   3
   6   0   7 164.534 8.06033   2
   6   0   7 165.371 8.29623   4
  -7   0  -7 26.6502 5.65472   3
   7   0   7 30.9516 7.83350   4
   7   0   7 37.2609 6.84812   2
   7  -1  -7 4.88539 3.84654   5
   7  -1  -7 1.43805 4.62662   1
  -7   1   7 0.35516 4.23077   3
   6  -1  -7 57.4414 5.75026   5
   6  -1  -7 54.2314 6.33686   1
  -6   1   7 64.7911 6.82678   3
   5  -1  -7 4.67360 3.01218   1
   5  -1  -7 4.69057 2.26725   4
   5  -1  -7 7.56062 2.77467   5
  -5   1   7 10.6554 3.23542   3
  -5   1   7 5.12905 2.26149   2
   4  -1  -7 -0.0680 2.31791   1
   4  -1  -7 -0.4119 1.94779   5
   4  -1  -7 0.98644 1.40490   4
  -4   1   7 -0.3946 1.68052   2
  -4   1   7 0.53068 2.37338   3
   3  -1  -7 71.5912 4.26289   5
   3  -1  -7 69.2623 2.58456   4
   3  -1  -7 70.7204 4.29607   1
  -3   1   7 76.9385 3.43562   2
  -3   1   7 73.6076 2.69832   4
  -3   1   7 76.9556 4.37662   3
   2  -1  -7 11.2124 1.97997   1
   2  -1  -7 16.8174 2.59655   5
  -2   1   7 14.8736 2.87917   3
  -2   1   7 15.1894 2.26458   2
   1  -1  -7 291.293 7.13838   1
   1  -1  -7 306.512 7.60839   5
  -1   1   7 304.254 5.85286   4
  -1   1   7 313.414 7.18325   2
  -1   1   7 306.594 7.72971   3
   0  -1  -7 0.15867 1.24086   5
   0  -1  -7 -0.2345 1.08101   1
   0   1   7 -0.1972 0.92526   4
   0   1   7 0.63820 1.37894   3
   0   1   7 2.50232 1.25520   2
  -1  -1  -7 2742.28 44.8951   1
  -1  -1  -7 2700.06 46.0559   5
   1   1   7 2710.52 46.3664   2
   1   1   7 2747.32 45.4885   4
   1   1   7 2714.32 46.5322   3
  -2  -1  -7 175.350 5.07724   5
  -2  -1  -7 167.045 5.53614   3
   2   1   7 168.356 5.08386   4
   2   1   7 171.238 5.58300   3
   2   1   7 161.673 5.52554   2
  -3  -1  -7 329.240 8.68886   3
  -3  -1  -7 343.677 7.75051   5
   3   1   7 322.724 8.63934   3
   3   1   7 339.803 8.57264   4
   3   1   7 336.257 8.83054   2
  -4  -1  -7 65.3089 3.47328   5
  -4  -1  -7 63.2015 4.53002   3
   4   1   7 63.1204 4.65101   3
   4   1   7 67.8454 4.61503   4
   4   1   7 78.7866 4.94349   2
  -5  -1  -7 52.9768 5.22468   3
   5   1   7 52.3461 5.78791   4
   5   1   7 54.1542 5.57186   2
  -6  -1  -7 453.545 13.2247   3
   6   1   7 462.663 13.0157   2
   6   1   7 453.850 13.1265   4
  -7  -1  -7 8.31785 4.86544   3
   7   1   7 5.50898 4.17894   2
   7   1   7 3.80000 4.43862   4
   7  -2  -7 18.5212 5.48657   1
  -7   2   7 6.69272 4.62570   3
   6  -2  -7 57.7368 6.12038   5
   6  -2  -7 49.2903 6.70460   1
  -6   2   7 48.8704 6.34837   3
   5  -2  -7 106.265 6.47469   1
   5  -2  -7 96.3701 5.65029   5
   5  -2  -7 95.2714 4.55967   4
  -5   2   7 90.0087 5.06678   2
  -5   2   7 101.450 6.43777   3
   4  -2  -7 3.28858 2.33300   1
   4  -2  -7 4.70101 1.70925   4
   4  -2  -7 2.32409 2.06376   5
  -4   2   7 7.10700 2.07531   2
  -4   2   7 2.25894 1.69507   4
  -4   2   7 4.17957 2.35334   3
   3  -2  -7 935.663 18.5434   5
   3  -2  -7 974.690 16.9478   4
   3  -2  -7 966.829 19.0439   1
  -3   2   7 975.902 17.9302   2
  -3   2   7 869.673 18.6666   3
  -3   2   7 973.815 16.9671   4
   2  -2  -7 606.607 12.8214   1
   2  -2  -7 599.527 12.7368   5
  -2   2   7 619.768 11.1931   4
  -2   2   7 602.577 12.1893   2
  -2   2   7 595.230 12.7707   3
   1  -2  -7 3.13737 1.40312   1
   1  -2  -7 1.88249 1.37733   5
  -1   2   7 2.48894 1.08275   4
  -1   2   7 2.65647 1.35177   3
  -1   2   7 0.43154 1.40965   2
   0  -2  -7 378.446 8.23231   1
   0  -2  -7 377.273 8.80089   5
   0   2   7 381.825 8.78150   2
   0   2   7 394.030 7.92682   4
   0   2   7 392.176 8.74926   3
  -1  -2  -7 51.4327 3.11615   5
  -1  -2  -7 51.3417 2.62346   1
   1   2   7 50.9648 3.33365   2
   1   2   7 55.1037 3.15434   3
   1   2   7 58.6921 2.89723   4
  -2  -2  -7 208.933 5.97972   3
  -2  -2  -7 209.249 4.62259   1
  -2  -2  -7 202.569 5.73812   5
   2   2   7 209.005 5.87963   3
   2   2   7 199.633 5.83993   4
   2   2   7 198.735 6.15399   2
  -3  -2  -7 45.5435 3.02111   5
  -3  -2  -7 36.5137 3.40772   3
   3   2   7 46.8092 3.48168   3
   3   2   7 40.5715 3.78333   2
   3   2   7 41.2928 3.62841   4
  -4  -2  -7 57.7329 4.38021   3
  -4  -2  -7 61.2841 3.54282   5
   4   2   7 66.4420 4.61567   4
   4   2   7 59.0380 4.60461   2
   4   2   7 56.4033 4.26328   3
  -5  -2  -7 20.9876 3.13898   5
  -5  -2  -7 20.0331 4.35018   3
   5   2   7 13.7130 3.31424   2
   5   2   7 21.6077 5.21937   4
  -6  -2  -7 -3.4857 3.02765   3
   6   2   7 0.81331 3.37799   2
   6   2   7 5.06894 3.71566   4
  -7  -2  -7 34.1627 7.37895   3
   7   2   7 16.1673 4.80902   2
   7   2   7 20.1421 4.89516   4
   7  -3  -7 -0.9968 4.81974   1
  -7   3   7 1.08916 4.43665   3
   6  -3  -7 191.434 8.20198   5
   6  -3  -7 179.689 9.00074   1
   6  -3  -7 197.602 7.57428   4
  -6   3   7 186.168 8.13784   2
  -6   3   7 195.419 8.98703   3
   5  -3  -7 3.05110 2.79642   5
   5  -3  -7 -1.2192 2.90414   1
   5  -3  -7 -0.5913 2.15952   4
  -5   3   7 0.14323 3.16712   3
  -5   3   7 1.35453 2.70971   2
   4  -3  -7 215.270 6.11548   4
   4  -3  -7 207.564 7.08304   5
   4  -3  -7 217.797 7.87342   1
  -4   3   7 214.054 6.81517   2
  -4   3   7 218.573 6.24312   4
  -4   3   7 212.912 7.51600   3
   3  -3  -7 6.82945 2.18687   1
   3  -3  -7 7.74998 2.24784   5
   3  -3  -7 12.3620 2.34981   4
  -3   3   7 9.39463 2.48351   4
  -3   3   7 8.70164 2.24645   3
  -3   3   7 7.92082 1.97415   2
   2  -3  -7 18.3547 2.19288   4
   2  -3  -7 18.6218 2.87461   5
   2  -3  -7 17.7761 2.99637   1
  -2   3   7 19.5988 2.28212   4
  -2   3   7 23.1976 2.85614   3
  -2   3   7 17.2487 2.78357   2
   1  -3  -7 -0.1841 1.29816   5
   1  -3  -7 -0.0067 1.41516   1
  -1   3   7 1.42365 1.54729   2
  -1   3   7 2.54174 1.31525   3
  -1   3   7 0.63726 1.22180   4
   0  -3  -7 26.5139 2.75653   5
   0  -3  -7 28.9301 2.54855   1
   0   3   7 25.7670 2.79345   2
   0   3   7 33.2242 2.46556   4
   0   3   7 29.9561 2.47008   3
  -1  -3  -7 16.0207 2.21411   1
  -1  -3  -7 13.3758 2.52168   5
   1   3   7 14.4891 2.68697   2
   1   3   7 18.2212 2.36926   4
   1   3   7 17.7730 2.28190   3
  -2  -3  -7 619.939 12.7865   5
  -2  -3  -7 613.701 12.3790   3
  -2  -3  -7 620.805 11.6597   1
   2   3   7 614.369 12.3604   3
   2   3   7 613.884 13.2328   2
   2   3   7 612.773 12.8748   4
  -3  -3  -7 486.669 10.5448   3
  -3  -3  -7 474.092 9.04603   1
  -3  -3  -7 479.105 10.4302   5
   3   3   7 468.117 9.08246   1
   3   3   7 470.325 10.4301   3
   3   3   7 431.278 10.9371   4
   3   3   7 474.520 11.2140   2
  -4  -3  -7 0.72583 2.16323   3
  -4  -3  -7 4.62058 1.95897   5
   4   3   7 1.79462 2.01256   1
   4   3   7 0.58741 2.12489   2
   4   3   7 0.15421 2.36495   4
  -5  -3  -7 19.8131 3.61927   5
  -5  -3  -7 15.5438 3.19722   3
   5   3   7 23.2926 5.18407   4
   5   3   7 15.2216 3.44133   2
  -6  -3  -7 189.046 8.41376   3
   6   3   7 189.461 8.76107   4
   6   3   7 197.278 8.62673   2
  -7  -3  -7 2.61112 3.88786   3
   7   3   7 2.93553 4.12952   4
   7   3   7 2.09950 4.38831   2
   7  -4  -7 36.4058 8.97284   1
  -7   4   7 32.7522 8.04768   3
   6  -4  -7 51.1580 6.92876   1
   6  -4  -7 47.9271 6.61544   5
   6  -4  -7 53.4085 6.10165   4
  -6   4   7 43.8914 6.63305   2
  -6   4   7 60.0890 6.78874   3
   5  -4  -7 654.553 16.2348   1
   5  -4  -7 665.621 15.0108   5
   5  -4  -7 678.188 14.5047   4
  -5   4   7 656.330 14.9900   2
  -5   4   7 655.648 15.8915   3
  -5   4   7 649.294 14.5487   4
   4  -4  -7 277.519 7.63304   4
   4  -4  -7 269.974 9.17492   1
   4  -4  -7 277.783 8.24635   5
  -4   4   7 284.386 8.73113   3
  -4   4   7 272.636 7.69618   4
  -4   4   7 282.683 8.56182   2
   3  -4  -7 6.17956 2.11258   5
   3  -4  -7 5.78747 2.36624   1
   3  -4  -7 8.17785 1.84407   4
  -3   4   7 6.96762 2.41165   2
  -3   4   7 7.34161 2.21608   3
  -3   4   7 7.32393 1.81388   4
   2  -4  -7 722.142 15.3434   1
   2  -4  -7 746.476 14.3031   4
   2  -4  -7 728.714 15.2751   5
  -2   4   7 729.577 15.0303   2
  -2   4   7 733.737 14.7356   3
  -2   4   7 746.640 14.2798   4
   1  -4  -7 5.24480 1.77939   1
   1  -4  -7 4.21184 1.66801   5
  -1   4   7 6.23250 1.51816   4
  -1   4   7 7.25281 1.56643   3
  -1   4   7 7.11313 1.90111   2
   0  -4  -7 796.883 15.9786   5
   0  -4  -7 793.719 15.5001   1
   0   4   7 778.262 15.8861   2
   0   4   7 798.993 14.9083   3
   0   4   7 805.422 15.2947   4
  -1  -4  -7 357.572 8.80866   5
  -1  -4  -7 358.524 8.16816   1
   1   4   7 374.742 7.94252   3
   1   4   7 360.808 8.59177   4
   1   4   7 355.917 8.99150   2
  -2  -4  -7 150.766 4.54502   1
  -2  -4  -7 147.890 4.60759   3
  -2  -4  -7 145.024 5.30431   5
   2   4   7 143.066 5.41717   4
   2   4   7 148.902 4.55004   3
   2   4   7 151.460 5.64590   2
  -3  -4  -7 206.371 5.37875   1
  -3  -4  -7 204.537 5.81176   3
  -3  -4  -7 190.021 6.23926   5
   3   4   7 206.606 6.93374   4
   3   4   7 201.146 5.46929   1
   3   4   7 203.964 5.76832   3
   3   4   7 193.408 6.72162   2
  -4  -4  -7 44.9207 3.25137   1
  -4  -4  -7 51.3778 3.97382   3
  -4  -4  -7 54.5096 4.10951   5
   4   4   7 47.9455 4.63413   2
   4   4   7 49.1375 4.75055   4
   4   4   7 43.1822 3.25963   1
  -5  -4  -7 47.5037 5.29771   3
  -5  -4  -7 45.9261 4.33976   5
   5   4   7 42.2295 5.27997   4
   5   4   7 42.1146 5.11284   2
  -6  -4  -7 40.0939 6.31552   3
   6   4   7 35.3755 6.10938   4
   6   4   7 33.6838 6.02589   2
  -7  -4  -7 180.452 9.10349   3
   7   4   7 187.709 10.1548   4
   7   4   7 188.707 9.68041   2
   6  -5  -7 35.4115 6.31609   4
   6  -5  -7 13.9328 3.52934   5
   6  -5  -7 20.5660 5.09748   1
  -6   5   7 18.7847 4.24314   3
  -6   5   7 29.5310 6.17929   2
  -6   5   7 27.3271 6.54350   4
   5  -5  -7 173.941 7.79172   5
   5  -5  -7 192.441 8.71965   1
   5  -5  -7 177.253 7.53624   4
  -5   5   7 188.931 8.20003   3
  -5   5   7 178.576 7.73612   2
  -5   5   7 179.576 7.75573   4
   4  -5  -7 868.877 17.9867   5
   4  -5  -7 835.490 17.3629   4
   4  -5  -7 867.898 19.1652   1
  -4   5   7 869.239 17.6685   4
  -4   5   7 851.299 18.1010   2
  -4   5   7 862.673 18.2054   3
   3  -5  -7 65.2320 5.21984   1
   3  -5  -7 60.6999 4.46665   5
   3  -5  -7 66.2682 4.20774   4
  -3   5   7 70.0621 4.38294   3
  -3   5   7 67.8478 4.27072   4
  -3   5   7 71.1353 4.65588   2
   2  -5  -7 147.536 5.92428   1
   2  -5  -7 151.926 5.31386   4
   2  -5  -7 153.221 5.88479   5
  -2   5   7 155.844 5.36798   4
  -2   5   7 150.542 5.20670   3
  -2   5   7 160.449 6.07124   2
   1  -5  -7 240.999 7.29968   1
   1  -5  -7 223.250 7.15300   5
  -1   5   7 241.811 7.35859   2
  -1   5   7 253.179 6.25910   3
  -1   5   7 250.771 6.78124   4
   0  -5  -7 969.301 18.7203   1
   0  -5  -7 958.575 18.9427   5
   0   5   7 952.168 18.9767   2
   0   5   7 975.676 17.3959   3
   0   5   7 952.456 18.4376   4
  -1  -5  -7 351.410 8.40435   1
  -1  -5  -7 338.352 8.83570   5
   1   5   7 353.678 8.78782   4
   1   5   7 348.626 7.30069   3
   1   5   7 311.840 8.74690   2
  -2  -5  -7 67.8258 4.22674   5
  -2  -5  -7 71.6646 3.59926   1
  -2  -5  -7 67.0741 3.09587   3
   2   5   7 73.3970 4.47162   2
   2   5   7 59.1055 4.37867   4
   2   5   7 65.0486 3.03211   3
  -3  -5  -7 354.790 9.22956   5
  -3  -5  -7 345.160 8.30548   1
  -3  -5  -7 359.014 8.06546   3
   3   5   7 351.597 9.62648   2
   3   5   7 355.049 9.83082   4
  -4  -5  -7 9.59494 2.09622   1
  -4  -5  -7 13.1282 2.42052   3
  -4  -5  -7 9.47207 2.66028   5
   4   5   7 11.0563 2.30579   1
   4   5   7 13.3571 3.01665   2
   4   5   7 7.37274 3.22671   4
  -5  -5  -7 229.241 7.86281   5
  -5  -5  -7 218.844 7.56101   3
   5   5   7 245.950 9.18260   4
   5   5   7 252.378 8.97041   2
  -6  -5  -7 3.35505 3.64880   3
   6   5   7 0.71318 4.01570   4
   6   5   7 14.3158 4.07031   2
   7   5   7 33.3048 7.76359   4
   7   5   7 29.4867 7.65471   2
   6  -6  -7 1.90500 4.77511   1
   6  -6  -7 7.86849 3.96763   4
  -6   6   7 9.46459 4.36485   3
  -6   6   7 10.4326 3.95342   2
  -6   6   7 2.55841 3.77329   4
   5  -6  -7 113.508 6.90048   4
   5  -6  -7 112.615 7.04178   5
   5  -6  -7 120.329 7.94475   1
  -5   6   7 125.617 7.17683   2
  -5   6   7 121.538 7.29706   4
  -5   6   7 132.966 7.15713   3
   4  -6  -7 88.1039 5.87646   4
   4  -6  -7 90.5180 6.43856   1
   4  -6  -7 92.8627 5.89020   5
  -4   6   7 82.3917 5.89223   3
  -4   6   7 94.6149 6.17797   4
  -4   6   7 101.353 6.18102   2
   3  -6  -7 26.4909 4.24122   4
   3  -6  -7 25.9742 4.89375   1
   3  -6  -7 33.5701 4.24303   5
  -3   6   7 32.0390 4.03917   3
  -3   6   7 41.7018 4.73965   2
  -3   6   7 36.8763 4.71028   4
   2  -6  -7 15.7483 3.83427   1
   2  -6  -7 7.95842 2.32935   4
   2  -6  -7 10.4005 2.41614   5
  -2   6   7 11.4241 2.14664   3
  -2   6   7 6.97008 2.59322   2
  -2   6   7 8.46231 2.37353   4
   1  -6  -7 34.4890 4.07791   1
   1  -6  -7 43.6591 3.81647   5
  -1   6   7 36.9260 2.89451   3
  -1   6   7 36.5493 3.85451   4
  -1   6   7 34.1525 3.95692   2
   0  -6  -7 522.818 12.0649   1
   0  -6  -7 525.423 12.2346   5
   0   6   7 512.742 12.2030   2
   0   6   7 517.279 11.9007   4
   0   6   7 528.057 10.1495   3
  -1  -6  -7 826.207 17.0037   5
  -1  -6  -7 814.147 16.5606   1
  -1  -6  -7 810.473 14.4796   3
   1   6   7 813.179 16.8995   4
   1   6   7 826.623 14.5005   3
   1   6   7 820.396 17.1183   2
  -2  -6  -7 120.858 5.03270   1
  -2  -6  -7 118.357 3.60903   3
  -2  -6  -7 123.286 5.35623   5
   2   6   7 115.806 5.60885   2
   2   6   7 111.492 5.56881   4
  -3  -6  -7 3.40275 2.10058   1
  -3  -6  -7 0.88094 1.63666   3
  -3  -6  -7 2.81565 2.43538   5
   3   6   7 -2.8488 2.25474   2
   3   6   7 4.10288 2.62101   4
  -4  -6  -7 26.0148 3.86932   1
  -4  -6  -7 31.0572 4.36914   5
   4   6   7 25.5875 4.07645   1
   4   6   7 31.9363 4.86863   2
   4   6   7 13.7655 3.69430   4
  -5  -6  -7 40.1327 5.50963   5
   5   6   7 42.9610 6.46589   4
   5   6   7 47.7847 6.04307   2
  -6  -6  -7 3.98226 3.43683   5
   6   6   7 1.46407 4.13375   4
   6   6   7 10.6256 3.96782   2
   6  -7  -7 20.0822 5.18863   4
   6  -7  -7 16.4825 5.80767   1
  -6   7   7 15.5319 4.99931   3
  -6   7   7 14.8832 4.91151   2
  -6   7   7 16.8618 4.76627   4
   5  -7  -7 21.5214 4.88544   1
   5  -7  -7 32.0646 6.26009   5
   5  -7  -7 34.7188 6.30464   4
  -5   7   7 40.1816 5.93622   3
  -5   7   7 31.9501 6.91206   2
  -5   7   7 28.5207 6.20288   4
   4  -7  -7 120.603 7.69064   1
   4  -7  -7 101.704 6.58797   4
   4  -7  -7 111.676 6.67664   5
  -4   7   7 114.975 6.59465   3
  -4   7   7 110.572 6.80579   4
  -4   7   7 121.260 7.30134   2
   3  -7  -7 2.10865 2.64014   4
   3  -7  -7 2.88334 2.57602   5
   3  -7  -7 2.15281 3.06280   1
  -3   7   7 6.40287 3.29496   2
  -3   7   7 2.13625 2.37045   3
  -3   7   7 3.37509 2.56586   4
   2  -7  -7 286.312 8.75137   5
   2  -7  -7 274.456 9.32581   1
   2  -7  -7 290.794 8.70712   4
  -2   7   7 291.963 8.58330   4
  -2   7   7 288.536 9.29828   2
  -2   7   7 291.444 7.51179   3
   1  -7  -7 10.6832 2.71425   5
   1  -7  -7 6.10275 2.39885   1
  -1   7   7 7.81293 2.74052   2
  -1   7   7 13.0564 2.73054   3
  -1   7   7 9.35645 2.51176   4
   0  -7  -7 10.6593 2.67491   5
   0  -7  -7 12.2780 2.70244   1
   0   7   7 9.57621 2.45518   4
   0   7   7 10.7514 2.23345   3
   0   7   7 10.4191 2.81611   2
  -1  -7  -7 518.548 12.6337   5
  -1  -7  -7 535.012 12.5763   1
   1   7   7 536.473 12.8598   2
   1   7   7 522.522 12.6252   4
  -2  -7  -7 135.264 5.81824   1
  -2  -7  -7 129.957 6.30829   5
   2   7   7 127.623 6.21338   2
   2   7   7 129.894 6.44678   4
  -3  -7  -7 88.1073 5.29233   1
  -3  -7  -7 87.0169 5.66533   5
   3   7   7 87.0701 5.80570   2
   3   7   7 76.0686 6.16740   4
  -4  -7  -7 75.6901 5.51422   1
  -4  -7  -7 67.4930 5.72944   5
   4   7   7 79.3490 6.06407   2
   4   7   7 68.4401 5.78535   1
   4   7   7 64.2678 6.48403   4
  -5  -7  -7 77.6783 6.15446   1
  -5  -7  -7 69.9817 6.39428   5
   5   7   7 63.5614 7.32432   4
   5   7   7 64.9421 6.55777   2
   5   7   7 55.3404 6.25796   1
  -6  -7  -7 33.6801 6.63006   5
   6   7   7 29.7179 6.91049   2
   6   7   7 26.7462 5.36529   4
   5  -8  -7 21.9004 4.83894   4
   5  -8  -7 17.1176 4.28120   5
   5  -8  -7 15.6094 5.09689   1
  -5   8   7 26.8230 6.48252   3
  -5   8   7 37.7693 8.30577   2
  -5   8   7 29.4719 7.06911   4
   4  -8  -7 293.826 10.1580   4
   4  -8  -7 272.048 11.1069   1
   4  -8  -7 273.287 9.72142   5
  -4   8   7 287.404 10.1598   4
  -4   8   7 284.520 9.44662   3
  -4   8   7 287.693 10.9116   2
   3  -8  -7 388.402 12.1923   1
   3  -8  -7 395.291 11.0449   5
   3  -8  -7 373.626 11.2893   4
  -3   8   7 388.594 11.3682   4
  -3   8   7 376.229 9.76783   3
  -3   8   7 381.093 11.8188   2
   2  -8  -7 22.8468 5.44349   1
   2  -8  -7 25.4421 4.70102   5
   2  -8  -7 29.5480 4.81736   4
  -2   8   7 32.1343 3.67464   3
  -2   8   7 37.2688 4.85958   4
  -2   8   7 26.9094 5.45306   2
   1  -8  -7 42.5645 4.88445   5
   1  -8  -7 45.9372 5.33984   1
  -1   8   7 42.2494 4.88461   4
  -1   8   7 40.3214 5.08214   2
   0  -8  -7 46.9091 4.99240   1
   0  -8  -7 44.1645 4.84984   5
   0   8   7 33.0879 4.61333   4
   0   8   7 38.6217 5.06137   2
  -1  -8  -7 53.5934 5.06010   1
  -1  -8  -7 57.5664 5.42199   5
   1   8   7 58.2212 5.52036   4
   1   8   7 53.6761 5.39695   2
  -2  -8  -7 269.015 8.72202   1
  -2  -8  -7 257.385 9.08583   5
   2   8   7 260.433 9.00860   2
   2   8   7 248.685 9.22709   4
  -3  -8  -7 4.87385 2.94320   1
  -3  -8  -7 4.85075 2.97361   5
   3   8   7 1.66489 3.21358   4
   3   8   7 10.1871 3.32955   2
  -4  -8  -7 37.9089 5.77813   1
  -4  -8  -7 46.8471 6.01454   5
   4   8   7 56.4282 6.93086   4
   4   8   7 63.3903 6.48766   1
   4   8   7 54.0509 6.38998   2
  -5  -8  -7 0.51004 3.46325   1
  -5  -8  -7 2.51570 3.72296   5
   5   8   7 3.36301 4.20965   4
   5   8   7 4.55821 4.05934   1
   5   8   7 9.83555 3.90906   2
  -6  -8  -7 25.0381 5.08116   5
   6   8   7 12.8436 4.97555   2
   6   8   7 18.5394 4.92521   4
   5  -9  -7 1.35703 5.40901   1
   5  -9  -7 -4.6999 4.78468   4
  -5   9   7 6.81163 5.76712   2
  -5   9   7 1.56263 3.94270   3
  -5   9   7 3.51900 5.27249   4
   4  -9  -7 96.4455 8.02402   4
   4  -9  -7 79.4913 6.64260   5
   4  -9  -7 69.5657 8.39335   1
  -4   9   7 72.0049 7.80203   4
  -4   9   7 65.5066 8.80839   2
   3  -9  -7 118.311 7.82496   1
   3  -9  -7 135.259 7.80722   4
   3  -9  -7 125.510 6.93220   5
  -3   9   7 124.136 8.39010   2
  -3   9   7 114.995 7.86618   4
   2  -9  -7 43.8023 5.63966   5
   2  -9  -7 44.4726 5.95974   1
   2  -9  -7 41.5107 5.79626   4
  -2   9   7 53.0056 6.13960   4
  -2   9   7 57.6816 6.43776   2
   1  -9  -7 7.32782 3.17280   1
   1  -9  -7 4.35376 3.00024   5
  -1   9   7 -2.2879 3.24245   2
  -1   9   7 5.27564 3.08287   4
   0  -9  -7 70.6446 6.61744   1
   0  -9  -7 79.1743 6.25872   5
   0   9   7 79.7993 6.45271   4
   0   9   7 78.9003 6.47468   2
  -1  -9  -7 92.8939 6.22930   5
  -1  -9  -7 98.3967 6.71661   1
   1   9   7 91.7524 6.83467   4
   1   9   7 88.6079 6.79839   2
  -2  -9  -7 7.66415 3.33508   1
  -2  -9  -7 6.21396 3.15387   5
   2   9   7 6.49665 3.58907   4
   2   9   7 6.49895 3.47066   2
  -3  -9  -7 21.5947 4.30522   1
  -3  -9  -7 26.5572 5.57350   5
   3   9   7 32.6653 6.22583   1
   3   9   7 20.5910 4.25425   4
   3   9   7 17.0859 3.91197   2
  -4  -9  -7 9.62904 3.99108   5
  -4  -9  -7 -0.8212 3.62658   1
   4   9   7 7.70919 4.28256   4
   4   9   7 11.7493 3.87776   2
   4   9   7 8.34146 3.73851   1
  -5  -9  -7 66.8258 8.22235   5
  -5  -9  -7 74.6719 7.92813   1
   5   9   7 83.5365 7.94049   2
   5   9   7 80.9352 8.88267   4
   5   9   7 74.0989 7.84623   1
   4 -10  -7 36.4066 7.17340   5
   4 -10  -7 32.7730 8.50757   1
   4 -10  -7 29.4018 5.18978   4
  -4  10   7 29.9403 5.70378   4
  -4  10   7 39.9585 9.66117   2
   3 -10  -7 -2.0679 3.36447   5
   3 -10  -7 -1.7644 3.93936   1
   3 -10  -7 -2.9112 3.95679   4
  -3  10   7 -3.5649 4.24733   2
  -3  10   7 1.16473 4.46998   4
   2 -10  -7 29.8676 6.33217   5
   2 -10  -7 28.6246 6.42699   4
   2 -10  -7 31.7934 6.84974   1
  -2  10   7 27.1449 7.16043   4
  -2  10   7 18.9613 4.41068   2
   1 -10  -7 -4.1015 3.51593   5
   1 -10  -7 0.43781 3.44264   1
  -1  10   7 -1.2271 3.50420   2
  -1  10   7 4.37650 3.62360   4
   0 -10  -7 25.7821 5.73201   1
   0 -10  -7 18.1716 4.10839   5
   0  10   7 30.2149 6.01860   4
   0  10   7 24.6874 6.11176   2
  -1 -10  -7 356.706 11.5913   5
  -1 -10  -7 368.932 11.8562   1
   1  10   7 383.982 11.7532   2
   1  10   7 359.017 12.0023   4
  -2 -10  -7 520.932 14.5166   5
  -2 -10  -7 533.274 14.7136   1
   2  10   7 540.740 15.0158   4
   2  10   7 532.871 14.5121   2
  -3 -10  -7 15.1118 4.07735   1
  -3 -10  -7 12.0416 4.13982   5
   3  10   7 14.4118 4.10693   1
   3  10   7 17.0265 4.46218   4
   3  10   7 20.5690 4.27501   2
  -4 -10  -7 -4.0237 3.86887   5
  -4 -10  -7 1.26137 4.14090   1
   4  10   7 7.55054 4.52189   2
   4  10   7 -2.8475 4.17906   4
   4  10   7 3.33212 4.10296   1
   3 -11  -7 -2.3895 4.38237   5
   3 -11  -7 -5.6323 4.03607   4
   3 -11  -7 4.38730 4.84260   1
  -3  11   7 3.98666 4.82362   2
  -3  11   7 -3.3864 5.31403   4
   2 -11  -7 97.4763 8.72511   5
   2 -11  -7 111.273 9.01865   1
   2 -11  -7 97.9380 7.98483   4
  -2  11   7 106.990 8.77284   2
  -2  11   7 82.5942 9.13682   4
   1 -11  -7 100.245 8.71585   5
   1 -11  -7 103.786 8.28266   1
  -1  11   7 108.826 8.40744   2
  -1  11   7 102.075 9.00783   4
   0 -11  -7 40.4573 7.40539   5
   0 -11  -7 50.7988 6.96191   1
   0  11   7 56.6565 7.56971   2
   0  11   7 41.4530 7.88698   4
  -1 -11  -7 32.1438 7.02263   1
  -1 -11  -7 18.0135 4.50360   5
   1  11   7 11.2846 4.70816   4
   1  11   7 10.1495 4.15827   2
  -2 -11  -7 24.2234 5.07065   1
  -2 -11  -7 37.8947 6.86812   5
   2  11   7 40.2894 6.92751   4
   2  11   7 34.0784 7.64282   2
  -3 -11  -7 180.308 9.88335   5
  -3 -11  -7 171.562 10.0371   1
   3  11   7 168.263 10.2735   1
   3  11   7 177.940 9.83279   2
   3  11   7 186.786 10.4450   4
   1 -12  -7 50.1355 8.94326   1
   1 -12  -7 39.2381 9.01116   5
  -1  12   7 46.3596 9.21801   4
  -1  12   7 54.6411 8.86964   2
   0 -12  -7 -2.7218 4.16182   1
   0 -12  -7 -4.1432 4.86132   5
   0  12   7 4.31527 4.85629   4
   0  12   7 -0.9700 4.40714   2
  -1 -12  -7 13.5553 4.97282   5
  -1 -12  -7 14.7108 4.96023   1
   1  12   7 10.2056 4.69821   2
   1  12   7 12.7481 5.13187   4
  -2 -12  -7 -2.7809 4.35674   1
  -2 -12  -7 -0.3256 4.37319   5
   2  12   7 11.3046 4.80207   4
   2  12   7 9.29989 4.81408   2
   2   9  -8 10.6906 4.41833   5
   2   9  -8 19.8041 5.19504   1
  -2  -9   8 20.7626 5.57004   5
  -2  -9   8 14.5128 4.97881   3
   1   9  -8 0.49791 4.43522   1
   1   9  -8 -1.4924 3.97437   5
  -1  -9   8 -0.5857 4.35961   3
  -1  -9   8 -4.0796 4.35206   5
   0   9  -8 71.7097 8.35756   5
   0   9  -8 84.4289 8.32187   3
   0   9  -8 68.6080 7.60976   1
   0  -9   8 78.4056 8.12930   3
   0  -9   8 67.5808 7.89041   5
  -1   9  -8 10.1148 4.28320   5
  -1   9  -8 2.40601 4.12902   2
  -1   9  -8 6.96805 4.61667   3
   1  -9   8 -0.1629 4.15821   2
   1  -9   8 -1.3714 4.02213   5
   1  -9   8 12.6711 4.99517   3
   3   8  -8 0.62557 4.33519   5
   3   8  -8 1.98159 3.80674   1
  -3  -8   8 -1.1293 4.10048   3
  -3  -8   8 -2.4244 4.11440   5
   2   8  -8 77.5598 7.39694   5
   2   8  -8 79.2669 7.88094   1
  -2  -8   8 58.7477 7.65582   5
  -2  -8   8 82.2961 7.60255   3
   1   8  -8 34.3617 6.36820   1
   1   8  -8 33.0436 6.44451   5
  -1  -8   8 21.0445 4.41042   5
  -1  -8   8 30.7575 7.16352   3
   0   8  -8 85.7031 7.03296   1
   0   8  -8 99.6854 7.32859   3
   0   8  -8 87.8448 7.15611   5
   0  -8   8 91.9070 7.77773   3
   0  -8   8 94.3832 7.08395   5
  -1   8  -8 190.319 8.49208   5
  -1   8  -8 182.835 8.01429   1
  -1   8  -8 191.119 9.44626   3
  -1   8  -8 188.727 8.40695   2
   1  -8   8 191.268 8.46485   2
   1  -8   8 199.773 9.62502   3
   1  -8   8 180.913 8.54251   1
   1  -8   8 192.848 8.31195   5
  -2   8  -8 2.68302 3.72028   5
  -2   8  -8 4.92612 4.34625   3
  -2   8  -8 4.13198 3.61805   4
  -2   8  -8 6.45751 4.13023   2
   2  -8   8 7.68206 3.89533   2
   2  -8   8 1.66491 4.43573   3
   2  -8   8 2.69367 3.98493   4
  -3   8  -8 15.9106 4.90463   2
  -3   8  -8 3.77462 4.21381   3
   3  -8   8 -2.7609 5.05603   3
   3  -8   8 1.35155 4.18002   4
   3  -8   8 2.71233 4.87237   2
   4   7  -8 85.0802 8.17344   1
   4   7  -8 102.981 7.78270   5
  -4  -7   8 94.2186 9.10777   3
  -4  -7   8 84.2760 8.02408   5
   3   7  -8 74.0813 7.20032   1
   3   7  -8 70.5157 6.91524   5
  -3  -7   8 78.4910 7.79736   3
  -3  -7   8 78.2881 6.96195   5
   2   7  -8 4.03247 3.29579   5
   2   7  -8 1.22193 3.37865   1
  -2  -7   8 0.56912 3.56349   5
  -2  -7   8 6.55434 3.82665   3
   1   7  -8 3.59818 3.50927   1
   1   7  -8 3.83248 3.36520   5
  -1  -7   8 2.13562 3.33220   3
  -1  -7   8 2.60371 3.37255   5
   0   7  -8 68.8712 6.13013   1
   0   7  -8 83.5165 5.69346   2
   0   7  -8 85.8464 6.08567   5
   0  -7   8 88.4952 6.20557   5
   0  -7   8 70.3458 7.01086   3
   0  -7   8 73.1702 5.74743   2
  -1   7  -8 31.8344 5.31742   4
  -1   7  -8 38.3881 5.71867   5
  -1   7  -8 24.3045 5.09282   1
  -1   7  -8 35.1853 6.19336   3
   1  -7   8 35.2078 5.67095   4
   1  -7   8 32.8624 6.38239   3
   1  -7   8 34.2167 5.49743   2
   1  -7   8 31.3143 5.54310   5
  -2   7  -8 84.7058 6.31376   4
  -2   7  -8 82.0776 7.35294   3
  -2   7  -8 72.9101 6.10565   5
   2  -7   8 72.8180 7.64852   3
   2  -7   8 87.4564 6.43464   2
   2  -7   8 80.2910 7.05454   4
  -3   7  -8 82.4286 7.77167   3
   3  -7   8 78.7665 8.76185   3
   3  -7   8 93.3513 8.12638   2
   3  -7   8 76.0399 7.17004   4
  -4   7  -8 -3.3388 4.22070   3
   4  -7   8 -4.0189 4.23090   4
   4  -7   8 5.30882 5.22702   3
   4  -7   8 -0.7484 5.09648   2
   5   6  -8 9.00292 4.77920   5
   5   6  -8 2.09538 4.28546   1
  -5  -6   8 1.12908 4.92079   3
   4   6  -8 10.7444 4.15345   1
   4   6  -8 14.1280 4.07848   5
  -4  -6   8 12.3565 4.63658   3
  -4  -6   8 13.8958 3.85439   5
   3   6  -8 -1.7008 3.13749   5
   3   6  -8 3.82103 3.46196   1
  -3  -6   8 -0.9699 3.16957   5
  -3  -6   8 1.10175 3.65422   3
   2   6  -8 56.8570 6.01562   1
   2   6  -8 44.8488 5.49848   5
  -2  -6   8 49.9353 5.85949   5
  -2  -6   8 48.9476 6.28267   3
   1   6  -8 29.7127 5.08220   5
   1   6  -8 31.4270 5.01642   1
  -1  -6   8 32.9008 5.21318   5
  -1  -6   8 30.8496 6.06668   3
   0   6  -8 238.683 8.14829   5
   0   6  -8 228.807 7.74239   1
   0  -6   8 240.007 9.24231   3
   0  -6   8 241.028 8.06439   5
   0  -6   8 213.344 7.31628   2
  -1   6  -8 102.718 5.33709   4
  -1   6  -8 115.733 6.23416   5
  -1   6  -8 101.265 6.78717   3
  -1   6  -8 103.039 5.21733   1
   1  -6   8 100.107 7.07414   3
   1  -6   8 108.296 6.14264   2
   1  -6   8 105.418 5.60127   4
  -2   6  -8 -0.3483 3.04553   3
  -2   6  -8 -0.6824 2.56914   5
   2  -6   8 -1.5056 3.21873   4
   2  -6   8 4.46955 3.40279   2
   2  -6   8 -1.8821 3.17772   3
  -3   6  -8 10.0278 3.72639   3
   3  -6   8 9.79497 3.67377   4
   3  -6   8 12.4243 4.05848   2
   3  -6   8 15.0516 4.26264   3
  -4   6  -8 8.25765 4.06634   3
   4  -6   8 9.94787 3.74151   4
   4  -6   8 12.1503 4.68960   2
   4  -6   8 9.72141 4.63831   3
  -5   6  -8 37.3716 8.20959   3
   5  -6   8 24.1576 5.62860   4
   5  -6   8 33.6681 8.10886   2
   5   5  -8 110.359 8.34170   1
   5   5  -8 117.458 8.39418   5
  -5  -5   8 107.840 9.08191   3
   4   5  -8 -2.3028 3.44415   1
   4   5  -8 4.19761 3.36884   5
  -4  -5   8 6.71960 3.95059   3
   3   5  -8 -2.5895 2.68562   5
   3   5  -8 -1.2153 3.03028   1
  -3  -5   8 2.31805 3.25730   3
  -3  -5   8 7.29471 3.07806   5
   2   5  -8 175.910 7.22171   1
   2   5  -8 165.655 7.46135   5
  -2  -5   8 182.825 7.61942   5
  -2  -5   8 183.554 8.07117   3
   1   5  -8 12.2226 2.80885   1
   1   5  -8 14.6012 3.11708   5
  -1  -5   8 12.7144 3.18566   2
  -1  -5   8 13.5294 3.18204   3
  -1  -5   8 15.6642 3.10201   5
   0   5  -8 39.7799 3.43684   4
   0   5  -8 33.3651 4.02967   1
   0   5  -8 39.2674 4.41561   5
   0  -5   8 37.2732 5.29099   3
   0  -5   8 33.6002 3.63712   4
   0  -5   8 23.8167 4.04234   2
  -1   5  -8 26.3476 3.60887   1
  -1   5  -8 28.2083 5.11164   3
  -1   5  -8 30.2894 4.21368   5
   1  -5   8 34.4754 5.26938   3
   1  -5   8 27.7609 3.86441   4
   1  -5   8 34.1493 4.38675   2
  -2   5  -8 643.226 14.1981   5
  -2   5  -8 683.686 16.3466   3
   2  -5   8 665.677 16.2748   3
   2  -5   8 700.189 15.4639   2
   2  -5   8 693.099 14.8018   4
  -3   5  -8 45.9555 6.11579   3
   3  -5   8 39.6838 6.23460   3
   3  -5   8 35.9113 5.78067   2
   3  -5   8 36.1198 5.51294   4
  -4   5  -8 14.5286 3.91399   3
   4  -5   8 16.9306 4.62360   3
   4  -5   8 10.0621 4.03270   2
   4  -5   8 13.8367 3.50780   4
  -5   5  -8 27.7991 5.42137   3
   5  -5   8 33.7835 7.73745   4
   5  -5   8 34.7051 7.87458   3
   5  -5   8 29.3149 5.25104   2
   6   4  -8 177.188 10.0612   5
   6   4  -8 187.828 10.0069   1
  -6  -4   8 168.992 10.9962   3
   5   4  -8 33.5393 6.53348   5
   5   4  -8 25.1346 4.67747   1
  -5  -4   8 37.0668 7.35248   3
   4   4  -8 35.7291 5.68321   5
   4   4  -8 37.1076 5.89068   1
  -4  -4   8 28.2941 6.11260   3
   3   4  -8 112.269 6.39185   5
   3   4  -8 116.019 6.61555   1
  -3  -4   8 116.366 6.95026   3
   2   4  -8 234.049 7.79285   1
   2   4  -8 228.923 8.09790   5
  -2  -4   8 243.695 8.68494   3
   1   4  -8 289.166 8.17988   1
   1   4  -8 317.237 8.93826   5
  -1  -4   8 297.035 9.38126   3
  -1  -4   8 306.744 7.29012   2
   0   4  -8 60.5117 3.89408   1
   0   4  -8 68.6134 3.32749   4
   0   4  -8 62.6689 4.36117   5
   0  -4   8 62.9727 5.20149   3
   0  -4   8 65.9004 3.98550   2
   0  -4   8 63.5267 3.35199   4
  -1   4  -8 76.0562 3.74243   1
  -1   4  -8 73.6180 4.37356   5
   1  -4   8 72.7838 5.51645   3
   1  -4   8 74.0513 4.70087   2
   1  -4   8 76.8064 3.86345   4
  -2   4  -8 436.027 11.1226   1
  -2   4  -8 420.770 9.91851   5
  -2   4  -8 413.149 11.8668   3
   2  -4   8 418.326 10.8381   2
   2  -4   8 427.628 10.2903   4
   2  -4   8 417.309 11.8210   3
  -3   4  -8 439.542 9.81245   5
  -3   4  -8 429.895 12.5098   3
   3  -4   8 439.797 11.4112   4
   3  -4   8 429.643 12.0127   2
   3  -4   8 435.132 12.5070   3
  -4   4  -8 78.9888 6.55305   3
   4  -4   8 70.8671 6.70465   3
   4  -4   8 65.8446 6.21782   2
   4  -4   8 73.6645 6.09581   4
  -5   4  -8 -6.6739 3.58490   3
   5  -4   8 -2.7512 3.66455   4
   5  -4   8 1.79772 4.01323   3
   5  -4   8 1.88817 3.81293   2
  -6   4  -8 14.2471 4.71103   3
   6  -4   8 13.6428 5.48119   4
   6  -4   8 20.9060 4.84423   2
   6   3  -8 44.9352 7.28067   1
   6   3  -8 36.6005 7.39184   5
  -6  -3   8 30.4054 7.94861   3
   5   3  -8 616.466 15.3850   5
   5   3  -8 582.616 15.4649   1
  -5  -3   8 610.038 16.0881   3
   4   3  -8 8.73746 3.11212   1
   4   3  -8 11.4215 3.20139   5
  -4  -3   8 11.4193 3.67628   3
   3   3  -8 4.09002 2.65200   1
   3   3  -8 7.31205 2.81288   5
  -3  -3   8 6.37109 2.97219   3
   2   3  -8 43.4421 4.42899   5
   2   3  -8 43.4104 4.11465   1
  -2  -3   8 35.3000 4.39177   3
  -2  -3   8 45.7552 2.75561   2
   1   3  -8 93.4630 4.79847   5
   1   3  -8 93.8382 4.61263   1
  -1  -3   8 98.3654 5.48877   3
  -1  -3   8 99.8628 3.91945   2
   0   3  -8 104.594 4.22260   1
   0   3  -8 90.5741 4.60212   5
   0  -3   8 101.998 5.51723   3
   0  -3   8 97.5790 4.24601   2
   0  -3   8 97.2249 3.36393   4
  -1   3  -8 23.3264 3.37014   5
  -1   3  -8 26.9827 2.73224   1
   1  -3   8 23.2513 3.73273   2
   1  -3   8 26.2280 4.07531   3
   1  -3   8 25.1945 2.80503   4
  -2   3  -8 209.902 6.21431   5
  -2   3  -8 206.970 4.98349   1
  -2   3  -8 210.255 7.78587   3
   2  -3   8 211.126 7.16486   2
   2  -3   8 206.164 7.80355   3
   2  -3   8 207.483 6.36061   4
  -3   3  -8 216.124 8.45012   3
  -3   3  -8 220.477 6.12525   5
   3  -3   8 220.666 7.87364   2
   3  -3   8 226.236 7.56433   4
   3  -3   8 217.621 8.32569   3
  -4   3  -8 2.49551 3.21881   3
   4  -3   8 -3.6018 2.70732   4
   4  -3   8 1.60968 3.15538   3
   4  -3   8 2.90820 3.19082   2
  -5   3  -8 12.8654 4.28189   3
   5  -3   8 21.1870 4.27014   3
   5  -3   8 21.5967 4.20970   4
   5  -3   8 23.6236 5.89074   2
  -6   3  -8 23.3506 5.21232   3
   6  -3   8 25.1638 5.46728   4
   6  -3   8 34.6266 7.65031   2
   6   2  -8 2.24400 3.75951   5
   6   2  -8 0.25515 3.97746   1
  -6  -2   8 4.46001 4.32894   3
   5   2  -8 203.825 8.93005   1
   5   2  -8 217.609 8.76065   5
  -5  -2   8 232.710 9.50488   3
   4   2  -8 36.2254 4.95003   5
   4   2  -8 31.5798 5.18986   1
  -4  -2   8 37.7824 5.77642   3
   3   2  -8 192.887 7.13428   5
   3   2  -8 195.847 6.98367   1
  -3  -2   8 192.224 7.60500   3
   2   2  -8 180.094 6.21096   1
   2   2  -8 176.570 6.38788   5
  -2  -2   8 179.301 4.78938   2
  -2  -2   8 169.691 6.83129   3
   1   2  -8 306.852 8.35181   5
   1   2  -8 298.704 7.76231   1
  -1  -2   8 311.993 8.99999   3
  -1  -2   8 313.932 7.20438   2
   0   2  -8 7.06748 2.02199   5
   0   2  -8 9.78639 2.28334   1
   0  -2   8 6.89394 2.25135   3
   0  -2   8 8.87281 1.96367   4
   0  -2   8 5.55744 1.72196   2
  -1   2  -8 129.710 3.93092   1
  -1   2  -8 122.561 4.83950   5
   1  -2   8 133.790 5.62552   3
   1  -2   8 134.898 4.19839   4
   1  -2   8 130.999 5.19552   2
  -2   2  -8 50.4299 3.34778   5
  -2   2  -8 47.2395 4.56813   3
   2  -2   8 40.2280 4.63722   3
   2  -2   8 37.2857 3.72561   2
   2  -2   8 49.4865 3.41253   4
  -3   2  -8 -2.2253 1.68318   5
  -3   2  -8 -3.4418 2.39817   3
   3  -2   8 -0.0683 2.46595   3
   3  -2   8 2.91031 2.33211   4
   3  -2   8 0.65807 2.49738   2
  -4   2  -8 121.402 7.33061   3
   4  -2   8 136.154 6.41042   4
   4  -2   8 127.670 6.99326   2
   4  -2   8 128.911 7.42176   3
  -5   2  -8 8.74828 3.66213   3
   5  -2   8 13.2580 3.59045   4
   5  -2   8 12.4079 3.88797   3
   5  -2   8 10.7910 3.41472   2
  -6   2  -8 -0.7429 4.15975   3
   6  -2   8 3.55432 3.94447   2
   6  -2   8 -3.9925 4.51952   4
   7   1  -8 2.85703 4.41935   5
   7   1  -8 10.4407 5.02696   1
  -7  -1   8 7.47908 5.19611   3
   6   1  -8 1.79776 3.95225   1
   6   1  -8 2.25630 3.43743   5
  -6  -1   8 4.56332 4.18302   3
   5   1  -8 -2.6950 2.88775   5
   5   1  -8 -5.1736 2.94429   1
  -5  -1   8 -1.4636 3.20882   3
   4   1  -8 339.450 10.3151   1
   4   1  -8 357.710 9.96716   5
  -4  -1   8 358.096 10.8972   3
   3   1  -8 0.41608 2.24510   1
   3   1  -8 4.80008 2.19791   5
  -3  -1   8 -0.1139 2.39194   3
  -3  -1   8 0.72493 1.45342   2
   2   1  -8 313.641 8.52833   5
   2   1  -8 316.274 8.48388   1
  -2  -1   8 331.673 7.22950   2
  -2  -1   8 314.053 8.90518   3
   1   1  -8 5.71738 1.66336   1
   1   1  -8 2.62162 1.63572   5
  -1  -1   8 3.79604 1.84329   3
  -1  -1   8 2.93828 1.48123   2
   0   1  -8 1269.04 23.1750   5
   0   1  -8 1263.80 22.1909   1
   0  -1   8 1291.48 22.7650   2
   0  -1   8 1151.10 20.9909   4
   0  -1   8 1255.94 23.9507   3
  -1   1  -8 1.47689 1.24195   1
  -1   1  -8 1.33331 1.51409   5
   1  -1   8 2.00073 1.79382   3
   1  -1   8 2.84660 1.73844   2
   1  -1   8 4.21362 1.37292   4
  -2   1  -8 58.7698 3.38616   5
  -2   1  -8 50.5295 4.21286   3
   2  -1   8 54.0511 3.95185   2
   2  -1   8 56.3180 4.28295   3
   2  -1   8 53.4628 3.38074   4
  -3   1  -8 3.15447 2.38676   3
  -3   1  -8 3.36154 1.66560   5
   3  -1   8 0.01810 2.05210   4
   3  -1   8 2.70482 2.36765   3
   3  -1   8 2.91196 2.31713   2
  -4   1  -8 146.493 7.31347   3
   4  -1   8 135.289 6.98554   2
   4  -1   8 141.241 6.29740   4
   4  -1   8 137.501 7.08578   3
  -5   1  -8 14.0104 3.98749   3
   5  -1   8 12.1501 3.77563   3
   5  -1   8 14.4909 3.65808   2
   5  -1   8 26.1551 5.53437   4
  -6   1  -8 11.0816 4.41219   3
   6  -1   8 2.53361 4.39587   4
   6  -1   8 1.00009 3.80023   2
  -7   1  -8 -2.8235 5.16828   3
   7  -1   8 6.72234 5.19892   4
   7  -1   8 7.09477 4.64981   2
   7   0  -8 -2.1581 4.60678   1
   7   0  -8 3.09800 4.15298   5
  -7   0   8 -2.4053 4.36045   3
   6   0  -8 109.835 8.11820   1
   6   0  -8 102.886 6.77634   5
  -6   0   8 102.475 7.79252   3
   5   0  -8 23.6306 5.04924   5
   5   0  -8 33.6497 5.34886   1
  -5   0   8 26.1425 5.56462   3
   4   0  -8 83.2644 5.33164   5
   4   0  -8 95.3197 5.92069   1
  -4   0   8 65.5603 4.69529   2
  -4   0   8 81.8962 5.71852   3
   3   0  -8 192.046 6.74142   1
   3   0  -8 180.196 6.44421   5
  -3   0   8 174.480 5.07739   2
  -3   0   8 188.220 7.10517   3
   2   0  -8 185.428 6.17968   1
   2   0  -8 182.990 6.22459   5
  -2   0   8 191.968 5.23907   2
  -2   0   8 180.159 6.42109   3
   1   0  -8 4.79867 1.54264   1
   1   0  -8 5.36197 1.87596   5
  -1   0   8 3.87080 1.52387   2
  -1   0   8 4.58340 2.00825   3
   0   0  -8 729.890 13.7982   1
   0   0  -8 719.127 14.7039   5
   0   0   8 727.908 14.4005   2
   0   0   8 735.983 12.9008   4
   0   0   8 718.829 15.1756   3
  -1   0  -8 1506.61 27.3630   5
  -1   0  -8 1522.19 25.9992   1
   1   0   8 1562.28 26.5289   4
   1   0   8 1554.99 28.4155   3
   1   0   8 1520.29 27.6942   2
  -2   0  -8 1.69989 2.12809   3
  -2   0  -8 11.6644 2.51049   5
   2   0   8 7.82238 1.73531   4
   2   0   8 2.61930 1.88681   2
   2   0   8 6.68208 2.26066   3
  -3   0  -8 -0.8844 2.01103   3
  -3   0  -8 0.57700 1.56859   5
   3   0   8 1.30536 2.12468   4
   3   0   8 3.93949 2.32332   2
   3   0   8 0.69426 2.08412   3
  -4   0  -8 33.1418 4.79849   3
  -4   0  -8 28.4170 3.24174   5
   4   0   8 21.5271 4.28826   4
   4   0   8 32.5204 5.00884   2
   4   0   8 31.1955 4.82240   3
  -5   0  -8 37.7666 5.94470   3
   5   0   8 23.7896 5.50717   2
   5   0   8 39.8236 5.95741   4
  -6   0  -8 1.74132 4.08944   3
   6   0   8 5.55365 3.99126   4
   6   0   8 5.58375 3.49892   2
  -7   0  -8 12.5077 5.46738   3
   7   0   8 10.8096 4.60394   2
   7   0   8 0.65020 4.91921   4
   7  -1  -8 66.2481 7.24293   5
   7  -1  -8 94.4776 9.44757   1
  -7   1   8 59.5570 8.09415   3
   6  -1  -8 5.70627 3.11100   5
   6  -1  -8 2.21732 3.72017   1
  -6   1   8 -0.1399 3.74713   3
   5  -1  -8 91.1925 6.27004   1
   5  -1  -8 98.1712 5.86326   5
  -5   1   8 98.0540 6.59898   3
   4  -1  -8 759.744 16.2475   5
   4  -1  -8 757.578 16.8867   1
  -4   1   8 756.375 17.0658   3
  -4   1   8 738.533 14.6394   2
   3  -1  -8 312.464 8.79718   5
   3  -1  -8 314.857 8.88125   1
  -3   1   8 340.172 7.77246   2
  -3   1   8 317.269 9.20040   3
   2  -1  -8 270.880 7.64952   5
   2  -1  -8 270.359 7.65167   1
  -2   1   8 279.294 6.81829   2
  -2   1   8 259.305 7.75580   3
   1  -1  -8 454.526 10.5774   5
  -1   1   8 461.683 10.7788   3
  -1   1   8 461.849 8.36342   4
  -1   1   8 467.001 10.0409   2
   0  -1  -8 -0.3927 1.25676   1
   0  -1  -8 2.97011 1.61038   5
   0   1   8 1.07901 1.09024   4
   0   1   8 -0.4920 1.55567   3
   0   1   8 -0.3604 1.47377   2
  -1  -1  -8 1119.89 21.2557   5
  -1  -1  -8 1168.53 20.0196   1
   1   1   8 1153.49 21.8722   3
   1   1   8 1129.36 21.5742   2
   1   1   8 1161.87 20.4979   4
  -2  -1  -8 129.025 5.41026   3
  -2  -1  -8 131.266 4.76802   5
   2   1   8 128.061 5.17162   2
   2   1   8 130.119 5.34202   3
   2   1   8 131.208 4.67419   4
  -3  -1  -8 45.0123 4.21371   3
  -3  -1  -8 48.9564 3.45392   5
   3   1   8 39.5584 3.93992   4
   3   1   8 38.8010 3.95704   3
   3   1   8 39.3458 4.26839   2
  -4  -1  -8 6.49706 2.58311   3
  -4  -1  -8 13.2185 2.92645   5
   4   1   8 7.87008 2.53941   4
   4   1   8 6.27814 2.52143   3
   4   1   8 9.52575 2.81114   2
  -5  -1  -8 538.132 14.2181   3
   5   1   8 566.761 14.2599   4
   5   1   8 563.299 14.1878   2
  -6  -1  -8 57.5034 6.94550   3
   6   1   8 57.8709 7.36159   4
   6   1   8 59.0803 6.64626   2
  -7  -1  -8 20.6836 5.63484   3
   7   1   8 25.4349 5.61057   4
   7   1   8 34.4564 7.33370   2
   7  -2  -8 0.88247 4.94657   1
   7  -2  -8 -4.4322 5.45729   5
  -7   2   8 8.88019 4.60825   3
   6  -2  -8 -6.2993 3.84999   1
   6  -2  -8 -1.6573 3.22128   5
  -6   2   8 4.20934 3.85732   3
   5  -2  -8 128.430 7.18747   1
   5  -2  -8 125.743 6.40007   5
  -5   2   8 125.901 7.25890   3
  -5   2   8 128.639 5.98938   2
   4  -2  -8 78.9053 5.54954   1
   4  -2  -8 83.1706 5.17587   5
   4  -2  -8 87.2454 3.75395   4
  -4   2   8 81.5189 5.47559   3
  -4   2   8 77.6312 4.61890   2
   3  -2  -8 783.364 13.8977   4
   3  -2  -8 760.328 16.3445   1
   3  -2  -8 762.584 16.0000   5
  -3   2   8 746.467 13.8271   4
  -3   2   8 763.501 15.0953   2
  -3   2   8 760.545 16.3074   3
   2  -2  -8 1293.83 23.8278   1
   2  -2  -8 1229.52 23.7094   5
  -2   2   8 1271.95 23.8751   3
  -2   2   8 1240.12 21.5232   4
  -2   2   8 1264.51 23.0842   2
   1  -2  -8 102.726 4.22408   1
   1  -2  -8 96.0864 4.47248   5
  -1   2   8 99.9504 4.17951   2
  -1   2   8 94.7615 4.40177   3
  -1   2   8 96.0179 3.23210   4
   0  -2  -8 65.1308 3.19127   1
   0   2   8 60.9171 2.95612   4
   0   2   8 62.9909 3.72646   3
   0   2   8 67.3254 3.69959   2
  -1  -2  -8 542.364 10.5123   1
  -1  -2  -8 523.372 11.5753   5
   1   2   8 541.338 11.6696   3
   1   2   8 526.181 11.7628   2
   1   2   8 530.050 10.8791   4
  -2  -2  -8 189.624 4.51720   1
  -2  -2  -8 181.145 6.09261   3
  -2  -2  -8 201.513 6.00424   5
   2   2   8 185.270 6.10939   3
   2   2   8 184.426 6.33447   2
   2   2   8 194.637 5.87591   4
  -3  -2  -8 323.346 8.13241   5
  -3  -2  -8 334.675 8.93549   3
   3   2   8 327.424 9.07129   2
   3   2   8 320.272 8.81478   3
   3   2   8 316.567 8.69332   4
  -4  -2  -8 39.3614 4.42590   3
  -4  -2  -8 42.2719 3.77578   5
   4   2   8 32.6835 4.34092   4
   4   2   8 42.2348 4.42711   3
   4   2   8 45.7825 4.85037   2
  -5  -2  -8 87.4173 6.16161   3
   5   2   8 93.1667 6.53465   4
   5   2   8 89.6930 6.43201   2
  -6  -2  -8 194.238 8.64951   3
   6   2   8 187.793 9.51423   4
   6   2   8 183.353 8.70259   2
  -7  -2  -8 21.9828 5.28657   3
   7   2   8 25.4015 4.99974   2
   7   2   8 25.6494 5.59860   4
   7  -3  -8 88.7814 9.75030   1
  -7   3   8 100.082 8.85060   3
   6  -3  -8 18.6010 4.75122   1
   6  -3  -8 19.3565 3.88739   5
  -6   3   8 20.2226 4.31915   3
   5  -3  -8 323.888 10.9502   1
   5  -3  -8 328.769 9.85013   5
  -5   3   8 325.806 10.6516   3
  -5   3   8 305.294 9.50553   2
   4  -3  -8 63.6786 3.76630   4
   4  -3  -8 71.0595 5.96642   1
   4  -3  -8 68.1133 4.76963   5
  -4   3   8 56.1456 3.88285   4
  -4   3   8 67.8960 4.88628   2
  -4   3   8 70.9564 5.43954   3
   3  -3  -8 6.76054 2.49194   1
   3  -3  -8 7.27642 1.73744   4
   3  -3  -8 4.72182 2.19687   5
  -3   3   8 13.8143 3.47348   2
  -3   3   8 2.63983 2.22867   3
  -3   3   8 6.77305 1.83643   4
   2  -3  -8 478.083 11.5986   1
   2  -3  -8 493.671 11.5636   5
  -2   3   8 503.860 11.2797   2
  -2   3   8 517.149 11.5977   3
  -2   3   8 524.040 10.1705   4
   1  -3  -8 27.8373 3.08251   1
   1  -3  -8 22.8718 3.17272   5
  -1   3   8 19.1540 2.49565   4
  -1   3   8 26.2939 3.00298   3
  -1   3   8 24.6578 3.25042   2
   0  -3  -8 4.66851 1.50787   1
   0  -3  -8 4.72100 1.88000   5
   0   3   8 5.91248 1.62098   3
   0   3   8 7.18558 1.95142   2
   0   3   8 5.46070 1.47218   4
  -1  -3  -8 625.034 12.0626   1
  -1  -3  -8 582.048 12.9169   5
   1   3   8 618.601 12.6026   3
   1   3   8 614.754 12.4454   4
   1   3   8 595.061 13.1641   2
  -2  -3  -8 495.412 11.1769   5
  -2  -3  -8 493.959 10.9651   3
  -2  -3  -8 494.968 9.85848   1
   2   3   8 498.111 11.1578   4
   2   3   8 497.838 10.9324   3
   2   3   8 505.842 11.7404   2
  -3  -3  -8 2.92756 2.01772   3
  -3  -3  -8 2.86470 1.29521   1
  -3  -3  -8 2.13053 1.89781   5
   3   3   8 0.52637 2.14029   2
   3   3   8 -0.2076 1.93708   3
   3   3   8 3.80330 1.42922   1
   3   3   8 -0.3442 2.00819   4
  -4  -3  -8 38.5883 3.87593   5
  -4  -3  -8 38.2408 4.67521   3
   4   3   8 31.3257 4.80582   2
   4   3   8 34.4285 4.27224   3
   4   3   8 34.4138 4.53767   4
  -5  -3  -8 22.8934 4.90334   3
  -5  -3  -8 14.4802 3.70715   5
   5   3   8 15.0007 3.62520   2
   5   3   8 16.6091 3.82807   4
  -6  -3  -8 38.2118 5.86677   3
   6   3   8 34.7179 6.74254   2
   6   3   8 39.3716 6.72645   4
  -7  -3  -8 121.503 9.03893   3
   7   3   8 125.018 9.22340   2
   7   3   8 125.758 9.57775   4
   6  -4  -8 -2.1876 3.76696   5
   6  -4  -8 -3.9249 4.14419   1
  -6   4   8 -1.6059 4.00390   2
  -6   4   8 -0.0139 3.83977   3
   5  -4  -8 -0.9035 3.28659   1
   5  -4  -8 1.78111 2.72787   4
   5  -4  -8 0.01649 3.01664   5
  -5   4   8 1.27607 3.05453   4
  -5   4   8 2.07389 3.36555   2
  -5   4   8 3.48200 3.19351   3
   4  -4  -8 4.17495 3.06391   1
   4  -4  -8 3.50651 2.12768   4
   4  -4  -8 1.31728 2.55778   5
  -4   4   8 2.91643 2.94481   2
  -4   4   8 6.61782 2.48301   4
  -4   4   8 1.78859 2.68612   3
   3  -4  -8 174.452 6.56398   5
   3  -4  -8 175.218 5.56837   4
   3  -4  -8 171.615 6.90119   1
  -3   4   8 179.112 6.56082   2
  -3   4   8 166.631 5.57553   4
  -3   4   8 183.444 6.64227   3
   2  -4  -8 328.665 8.93453   1
   2  -4  -8 321.998 8.88954   5
  -2   4   8 324.690 8.42406   3
  -2   4   8 341.736 7.84090   4
  -2   4   8 304.806 8.72455   2
   1  -4  -8 30.8701 3.47415   5
   1  -4  -8 30.3900 3.52551   1
  -1   4   8 28.8420 2.82394   4
  -1   4   8 29.2721 2.99633   3
  -1   4   8 32.5129 3.76536   2
   0  -4  -8 145.864 5.09671   1
   0  -4  -8 125.952 5.31726   5
   0   4   8 159.155 5.02615   3
   0   4   8 147.472 4.92701   4
   0   4   8 147.290 5.70548   2
  -1  -4  -8 30.8545 2.94745   1
  -1  -4  -8 26.7394 3.44537   5
   1   4   8 35.4876 3.78450   2
   1   4   8 24.2328 2.83034   3
   1   4   8 31.7241 3.14195   4
  -2  -4  -8 977.767 18.1622   3
  -2  -4  -8 956.624 17.8208   1
  -2  -4  -8 985.182 19.1485   5
   2   4   8 975.303 18.1456   3
   2   4   8 967.221 19.1092   4
   2   4   8 925.699 19.3077   2
  -3  -4  -8 419.351 8.87224   1
  -3  -4  -8 414.639 10.1368   5
  -3  -4  -8 423.784 9.81470   3
   3   4   8 423.112 9.76249   3
   3   4   8 415.625 10.6950   4
   3   4   8 408.035 10.9541   2
  -4  -4  -8 32.8561 4.39116   3
  -4  -4  -8 38.8512 4.24655   5
   4   4   8 27.6289 4.65248   2
   4   4   8 29.3838 4.88533   4
  -5  -4  -8 232.469 8.71567   3
  -5  -4  -8 242.933 7.71066   5
   5   4   8 253.633 9.41101   4
   5   4   8 249.108 9.10595   2
  -6  -4  -8 16.7376 4.24927   3
   6   4   8 19.9655 4.68511   4
   6   4   8 13.6908 4.39180   2
  -7  -4  -8 34.1872 7.71500   3
   7   4   8 17.5446 5.21970   2
   7   4   8 16.0861 5.20781   4
   6  -5  -8 38.3206 7.33201   5
   6  -5  -8 44.0304 8.10880   1
  -6   5   8 36.0103 7.35449   3
  -6   5   8 49.7119 6.71799   2
   5  -5  -8 274.146 9.48832   5
   5  -5  -8 288.039 10.7715   1
   5  -5  -8 274.616 9.00107   4
  -5   5   8 269.367 9.88490   3
  -5   5   8 247.395 9.11497   4
  -5   5   8 262.230 9.50868   2
   4  -5  -8 194.085 6.79715   4
   4  -5  -8 202.192 7.60897   5
   4  -5  -8 185.652 8.23942   1
  -4   5   8 195.650 6.98206   4
  -4   5   8 196.969 7.79838   3
  -4   5   8 189.502 7.67146   2
   3  -5  -8 0.22917 2.15197   4
   3  -5  -8 -2.2716 2.16510   5
   3  -5  -8 -1.0059 2.60577   1
  -3   5   8 -1.3296 2.09953   4
  -3   5   8 0.43396 2.30320   3
  -3   5   8 -3.1563 2.34286   2
   2  -5  -8 5.37298 2.42894   1
   2  -5  -8 4.23295 1.86250   4
   2  -5  -8 5.09843 2.34536   5
  -2   5   8 5.49428 1.92943   4
  -2   5   8 3.74786 1.93213   3
  -2   5   8 14.7839 3.76185   2
   1  -5  -8 -2.1046 1.95788   5
   1  -5  -8 2.94191 1.95646   1
  -1   5   8 2.01437 1.68346   3
  -1   5   8 3.23069 1.74239   4
  -1   5   8 3.15280 2.15921   2
   0  -5  -8 128.732 5.49015   5
   0  -5  -8 135.525 5.37671   1
   0   5   8 136.723 4.65648   3
   0   5   8 137.250 5.23773   4
   0   5   8 145.119 5.69514   2
  -1  -5  -8 277.655 7.58599   1
  -1  -5  -8 279.050 8.23962   5
   1   5   8 285.420 8.03518   4
   1   5   8 284.542 6.80321   3
   1   5   8 282.182 8.32270   2
  -2  -5  -8 30.8497 2.99326   3
  -2  -5  -8 26.8833 3.86371   5
  -2  -5  -8 29.4024 3.28029   1
   2   5   8 26.5970 4.22453   2
   2   5   8 29.2595 3.87403   4
   2   5   8 30.9227 3.10068   3
  -3  -5  -8 22.3298 3.20048   3
  -3  -5  -8 23.1553 3.88749   5
  -3  -5  -8 27.9319 3.26459   1
   3   5   8 30.5667 3.26617   3
   3   5   8 27.3572 4.32411   4
   3   5   8 20.1888 4.58948   2
  -4  -5  -8 33.2658 4.77691   5
  -4  -5  -8 27.5719 4.15623   3
  -4  -5  -8 41.4994 4.27090   1
   4   5   8 33.4425 5.76180   4
   4   5   8 23.5835 4.68517   1
   4   5   8 31.4155 5.31550   2
  -5  -5  -8 19.4226 5.07615   3
  -5  -5  -8 14.3197 3.47026   5
   5   5   8 13.1197 3.73934   2
   5   5   8 26.8038 5.74431   4
  -6  -5  -8 38.9789 6.85979   3
   6   5   8 37.4095 7.03801   4
   6   5   8 45.5798 7.07488   2
   6  -6  -8 94.1427 9.65694   1
   6  -6  -8 99.3155 7.50508   4
  -6   6   8 84.8744 8.40484   3
  -6   6   8 93.9735 8.01741   4
  -6   6   8 77.7437 8.47551   2
   5  -6  -8 4.51594 3.90224   5
   5  -6  -8 1.70172 4.19524   1
   5  -6  -8 3.92401 3.33549   4
  -5   6   8 6.31920 3.63534   3
  -5   6   8 4.88639 3.41436   2
  -5   6   8 8.11589 3.73530   4
   4  -6  -8 79.0223 6.72012   1
   4  -6  -8 74.4995 6.18942   5
   4  -6  -8 83.4038 6.31044   4
  -4   6   8 83.3882 6.05615   3
  -4   6   8 66.9887 6.16885   4
  -4   6   8 86.5502 6.59366   2
   3  -6  -8 40.1902 4.78595   4
   3  -6  -8 41.6354 4.93245   5
   3  -6  -8 48.4811 6.00768   1
  -3   6   8 39.3768 5.05784   4
  -3   6   8 37.9240 4.68019   3
  -3   6   8 31.7600 4.99926   2
   2  -6  -8 64.8804 4.85528   5
   2  -6  -8 69.1905 5.43574   1
   2  -6  -8 57.0800 4.42095   4
  -2   6   8 53.8163 4.07989   3
  -2   6   8 64.0557 5.06899   2
  -2   6   8 62.8597 4.64819   4
   1  -6  -8 136.734 6.13256   5
   1  -6  -8 140.540 6.18938   1
  -1   6   8 134.753 6.34579   2
  -1   6   8 134.839 5.82643   4
  -1   6   8 138.607 4.86410   3
   0  -6  -8 111.273 5.23518   1
   0  -6  -8 101.923 5.41960   5
   0   6   8 105.117 5.62520   2
   0   6   8 102.591 3.95056   3
   0   6   8 87.5773 4.97565   4
  -1  -6  -8 102.413 5.44015   5
  -1  -6  -8 101.453 5.05875   1
   1   6   8 94.6181 5.23073   4
   1   6   8 95.6108 5.52845   2
   1   6   8 103.677 3.73586   3
  -2  -6  -8 108.147 5.38785   5
  -2  -6  -8 103.601 5.00396   1
  -2  -6  -8 102.190 3.90008   3
   2   6   8 105.721 3.90850   3
   2   6   8 116.369 5.61287   4
   2   6   8 103.278 5.71365   2
  -3  -6  -8 119.803 5.28803   1
  -3  -6  -8 118.027 6.02603   5
   3   6   8 117.651 6.35473   2
   3   6   8 124.438 6.64845   4
  -4  -6  -8 159.279 7.13606   5
  -4  -6  -8 160.879 5.99908   1
   4   6   8 169.390 7.89776   2
   4   6   8 152.993 6.20550   1
   4   6   8 164.115 8.12920   4
  -5  -6  -8 5.97703 3.23425   5
   5   6   8 7.91298 3.88357   4
   5   6   8 2.57430 3.61698   2
   6   6   8 8.20142 4.33207   2
   6   6   8 4.88330 4.45349   4
   5  -7  -8 10.1290 4.54761   1
   5  -7  -8 3.55179 3.59008   5
   5  -7  -8 -0.2701 3.52562   4
  -5   7   8 1.59382 3.63264   4
  -5   7   8 5.37311 3.71300   3
  -5   7   8 -4.7976 4.06640   2
   4  -7  -8 720.598 18.1031   1
   4  -7  -8 757.957 17.0668   5
   4  -7  -8 710.888 16.5571   4
  -4   7   8 725.948 17.4068   2
  -4   7   8 703.817 16.3649   3
  -4   7   8 735.087 16.7407   4
   3  -7  -8 246.734 8.66044   5
   3  -7  -8 224.860 8.29915   4
   3  -7  -8 225.742 8.82574   1
  -3   7   8 224.140 7.74290   3
  -3   7   8 223.666 8.44889   4
  -3   7   8 225.438 9.00694   2
   2  -7  -8 6.10164 2.63415   4
   2  -7  -8 4.45214 2.85053   5
   2  -7  -8 1.54022 2.93234   1
  -2   7   8 4.03584 2.96564   2
  -2   7   8 3.20899 2.68954   4
  -2   7   8 3.25302 2.13464   3
   1  -7  -8 119.618 6.13531   1
   1  -7  -8 110.731 6.24528   5
  -1   7   8 118.866 6.51461   2
  -1   7   8 121.703 5.94122   4
  -1   7   8 126.354 4.57826   3
   0  -7  -8 308.334 9.29022   1
   0  -7  -8 304.641 9.48330   5
   0   7   8 304.918 8.97904   4
   0   7   8 310.436 7.06606   3
   0   7   8 304.891 9.52669   2
  -1  -7  -8 126.118 5.88863   1
  -1  -7  -8 113.651 5.99627   5
   1   7   8 117.205 5.98303   4
   1   7   8 132.042 6.69186   2
  -2  -7  -8 43.2271 4.81884   5
  -2  -7  -8 39.9410 4.64551   1
   2   7   8 35.8129 5.13790   2
   2   7   8 36.1894 4.99412   4
  -3  -7  -8 45.0531 5.03349   1
  -3  -7  -8 51.4811 5.41513   5
   3   7   8 41.9846 5.87789   2
   3   7   8 45.8068 5.89619   4
  -4  -7  -8 25.7622 5.49104   5
  -4  -7  -8 27.7414 5.05573   1
   4   7   8 17.6382 4.07576   4
   4   7   8 14.2855 3.47312   1
   4   7   8 14.4026 3.71250   2
  -5  -7  -8 170.883 7.96216   5
   5   7   8 170.809 8.69085   2
   5   7   8 179.772 9.81300   4
  -6  -7  -8 7.42773 4.27404   5
   6   7   8 3.82107 4.84315   2
   6   7   8 2.69424 4.75011   4
   5  -8  -8 2.42437 4.42529   4
   5  -8  -8 4.09092 3.96354   5
   5  -8  -8 2.84996 4.72965   1
  -5   8   8 -0.3391 5.10005   2
  -5   8   8 4.17171 4.03596   3
  -5   8   8 -3.0787 4.14253   4
   4  -8  -8 32.6654 5.71090   5
   4  -8  -8 46.0127 6.67714   4
   4  -8  -8 35.4121 7.46292   1
  -4   8   8 26.4789 5.70332   3
  -4   8   8 47.9476 7.81868   2
  -4   8   8 37.9597 6.41500   4
   3  -8  -8 264.768 10.1452   1
   3  -8  -8 284.107 9.63620   5
   3  -8  -8 257.023 9.61188   4
  -3   8   8 261.482 10.2493   2
  -3   8   8 279.842 9.75064   4
  -3   8   8 273.217 8.65072   3
   2  -8  -8 61.9902 5.69308   4
   2  -8  -8 64.9011 5.96653   5
   2  -8  -8 57.9254 6.22414   1
  -2   8   8 52.3663 5.86917   3
  -2   8   8 51.9734 5.74226   4
  -2   8   8 50.1995 6.05793   2
   1  -8  -8 9.15093 3.28664   1
   1  -8  -8 3.41299 3.20910   5
  -1   8   8 3.43730 2.74058   4
  -1   8   8 -0.7700 3.03352   2
   0  -8  -8 -2.5825 2.75815   1
   0  -8  -8 -0.9063 2.85896   5
   0   8   8 -2.5737 2.45971   4
   0   8   8 1.17967 3.19088   2
  -1  -8  -8 270.432 8.91622   1
  -1  -8  -8 253.994 8.97443   5
   1   8   8 261.214 9.33613   2
   1   8   8 258.678 9.04300   4
  -2  -8  -8 -3.4875 2.84182   1
  -2  -8  -8 -3.6286 2.78024   5
   2   8   8 -1.7823 3.19271   2
   2   8   8 -3.6285 3.09802   4
  -3  -8  -8 174.387 7.49788   1
  -3  -8  -8 170.000 7.90484   5
   3   8   8 172.902 8.15914   2
   3   8   8 164.052 8.22633   4
  -4  -8  -8 65.2363 6.29420   1
  -4  -8  -8 62.2123 6.68685   5
   4   8   8 66.6703 7.17514   4
   4   8   8 50.3201 6.87092   1
   4   8   8 69.2097 6.92957   2
  -5  -8  -8 15.9277 4.44597   5
   5   8   8 24.4087 5.14497   2
   5   8   8 19.4189 5.21786   4
   4  -9  -8 71.2767 8.02453   4
   4  -9  -8 83.6864 9.06078   1
   4  -9  -8 77.6076 7.21952   5
  -4   9   8 75.2673 7.86645   4
  -4   9   8 69.9995 9.25005   2
   3  -9  -8 39.1795 6.13203   5
   3  -9  -8 32.9267 6.51281   4
   3  -9  -8 44.9564 7.30280   1
  -3   9   8 42.6017 7.82725   2
  -3   9   8 44.9811 6.69962   4
   2  -9  -8 4.03427 3.62295   1
   2  -9  -8 -0.6274 3.29423   5
   2  -9  -8 13.1228 3.72427   4
  -2   9   8 11.0463 3.62774   4
  -2   9   8 7.90148 3.83536   2
   1  -9  -8 15.6262 3.84191   1
   1  -9  -8 13.6150 3.61022   5
  -1   9   8 14.8746 3.69615   2
  -1   9   8 13.7815 3.58663   4
   0  -9  -8 0.93885 3.18727   1
   0  -9  -8 -1.7069 3.11871   5
   0   9   8 -4.6513 3.24473   2
   0   9   8 -3.6723 3.12167   4
  -1  -9  -8 158.655 7.88113   5
  -1  -9  -8 177.552 8.11958   1
   1   9   8 163.007 8.13571   2
   1   9   8 177.120 8.46012   4
  -2  -9  -8 329.942 10.9470   5
  -2  -9  -8 342.652 10.9773   1
   2   9   8 331.127 11.6163   4
   2   9   8 341.981 11.2924   2
  -3  -9  -8 73.2159 6.80590   5
  -3  -9  -8 76.2346 6.92208   1
   3   9   8 72.1993 7.03623   2
   3   9   8 82.4994 7.49222   4
  -4  -9  -8 2.16936 3.62030   1
  -4  -9  -8 7.23517 4.09063   5
   4   9   8 1.34252 4.26079   2
   4   9   8 1.40405 3.60555   1
   4   9   8 -3.7519 4.20075   4
  -5  -9  -8 46.1605 8.73463   5
   5   9   8 53.0108 8.94774   2
   5   9   8 57.6830 9.02071   4
   4 -10  -8 5.70425 4.54559   5
   4 -10  -8 -3.4205 4.69295   1
   4 -10  -8 8.02198 4.93810   4
  -4  10   8 1.96861 5.43561   4
  -4  10   8 0.54938 5.41218   2
   3 -10  -8 228.915 10.3774   5
   3 -10  -8 226.794 10.7723   4
   3 -10  -8 218.628 10.6483   1
  -3  10   8 216.655 11.4633   2
  -3  10   8 230.492 11.5803   4
   2 -10  -8 17.3917 4.65909   1
   2 -10  -8 30.4534 7.10099   5
  -2  10   8 29.5193 7.34941   2
  -2  10   8 17.7390 4.77638   4
   1 -10  -8 105.513 7.75635   1
   1 -10  -8 106.107 7.73649   5
  -1  10   8 103.524 8.24802   2
  -1  10   8 113.239 8.31062   4
   0 -10  -8 22.4452 4.34858   1
   0 -10  -8 23.4401 5.97727   5
   0  10   8 32.8681 6.64698   2
   0  10   8 19.5212 4.62918   4
  -1 -10  -8 44.6185 6.73347   1
  -1 -10  -8 38.0307 6.45051   5
   1  10   8 45.1288 6.85340   4
   1  10   8 40.6653 6.81238   2
  -2 -10  -8 161.188 8.83600   5
  -2 -10  -8 142.872 8.81303   1
   2  10   8 161.905 8.94745   2
   2  10   8 156.184 9.59772   4
  -3 -10  -8 4.44885 3.81529   5
  -3 -10  -8 0.41620 3.87623   1
   3  10   8 -0.6559 4.12443   2
   3  10   8 5.29796 4.36984   4
   3  10   8 5.56234 4.05182   1
  -4 -10  -8 2.90717 4.21446   5
  -4 -10  -8 -0.3294 4.34407   1
   4  10   8 4.27237 4.81896   4
   4  10   8 -4.6956 4.08359   1
   4  10   8 -0.8816 4.79495   2
   2 -11  -8 109.078 9.52385   1
   2 -11  -8 101.644 9.79904   5
  -2  11   8 79.4453 9.11700   2
  -2  11   8 92.1104 9.86040   4
   1 -11  -8 5.21282 4.65740   5
  -1  11   8 9.87820 4.80008   2
  -1  11   8 5.99713 4.85084   4
   0 -11  -8 4.11853 4.38082   5
   0 -11  -8 12.1060 4.28467   1
   0  11   8 5.65487 4.65250   4
   0  11   8 2.97388 4.37175   2
  -1 -11  -8 19.6207 4.97577   1
  -1 -11  -8 21.9225 4.68839   5
   1  11   8 18.4641 5.08368   4
   1  11   8 20.7684 4.78250   2
  -2 -11  -8 -1.1713 4.20791   5
  -2 -11  -8 -0.3691 4.49894   1
   2  11   8 -0.1019 4.28803   2
   2  11   8 3.04869 4.76291   4
  -3 -11  -8 18.1392 5.29675   1
  -3 -11  -8 23.4883 5.28460   5
   3  11   8 35.7926 8.55497   1
   3  11   8 21.2425 5.48563   4
   3  11   8 40.5949 8.33899   2
   0 -12  -8 3.81947 4.87310   5
   0 -12  -8 -2.1799 4.39824   1
   0  12   8 1.20726 5.04939   4
   0  12   8 -3.0637 4.72959   2
  -1 -12  -8 38.4045 8.16042   1
  -1 -12  -8 46.6496 7.96484   5
   1  12   8 38.5500 8.42487   2
   1  12   8 29.4110 6.07655   4
   2   8  -9 2.59258 4.79874   1
   2   8  -9 4.51932 4.37529   5
  -2  -8   9 9.57679 5.10366   3
  -2  -8   9 5.01991 5.01619   5
   1   8  -9 12.7521 4.29392   1
   1   8  -9 12.0684 4.45265   5
  -1  -8   9 10.9793 4.69983   5
  -1  -8   9 8.16094 5.28065   3
   0   8  -9 119.752 7.76545   1
   0   8  -9 114.339 9.03137   5
   0   8  -9 101.764 8.55406   3
   0  -8   9 90.6359 8.15986   5
   0  -8   9 120.629 9.32501   3
  -1   8  -9 24.7435 5.08975   3
  -1   8  -9 29.3313 6.70325   2
  -1   8  -9 16.8519 4.51379   5
   1  -8   9 18.5041 5.37780   3
   1  -8   9 17.2009 4.52190   2
  -2   8  -9 -3.5821 4.25733   3
  -2   8  -9 3.32918 4.68721   2
   2  -8   9 -0.1780 4.44770   2
   2  -8   9 1.38718 5.27506   3
   3   7  -9 154.541 9.04040   5
   3   7  -9 162.832 9.45629   1
  -3  -7   9 165.435 10.5951   3
  -3  -7   9 171.815 9.17532   5
   2   7  -9 34.5894 6.74579   1
   2   7  -9 33.5063 6.62567   5
  -2  -7   9 31.7314 7.79953   3
  -2  -7   9 23.0721 4.80494   5
   1   7  -9 3.06181 3.34955   1
   1   7  -9 5.09055 3.90458   5
  -1  -7   9 9.38953 4.51951   3
  -1  -7   9 10.3825 3.94958   5
   0   7  -9 190.213 8.02222   1
   0   7  -9 178.166 8.76318   5
   0  -7   9 186.207 9.60502   3
  -1   7  -9 253.285 9.33089   5
  -1   7  -9 253.408 10.3913   3
   1  -7   9 238.785 9.27007   2
   1  -7   9 252.995 11.2059   3
  -2   7  -9 19.2352 4.46653   4
  -2   7  -9 17.6484 4.46295   3
  -2   7  -9 15.0337 3.62837   5
   2  -7   9 15.5106 4.97857   3
   2  -7   9 25.3400 4.32231   2
  -3   7  -9 4.20297 4.15122   3
   3  -7   9 6.49997 4.97495   3
   3  -7   9 5.52257 4.78048   2
   3  -7   9 4.09045 4.06809   4
   4   6  -9 130.765 8.92361   1
   4   6  -9 137.179 8.85465   5
  -4  -6   9 146.709 10.4150   3
   3   6  -9 65.5258 7.20452   1
   3   6  -9 54.2382 6.97630   5
  -3  -6   9 48.1673 8.05084   3
   2   6  -9 5.42250 3.46105   5
   2   6  -9 7.84248 3.48493   1
  -2  -6   9 0.69588 3.93683   3
   1   6  -9 5.22936 3.00988   1
   1   6  -9 6.62838 3.32868   5
  -1  -6   9 4.49480 3.89284   3
   0   6  -9 -3.8656 2.91530   1
   0   6  -9 2.40473 3.06292   5
   0  -6   9 -0.3474 2.93965   2
   0  -6   9 2.59659 3.61916   3
  -1   6  -9 201.835 8.95663   3
  -1   6  -9 189.330 7.84189   5
  -1   6  -9 196.354 7.40628   1
   1  -6   9 192.110 8.01869   2
   1  -6   9 195.402 9.36290   3
  -2   6  -9 53.7407 6.73713   3
  -2   6  -9 52.4933 5.74397   5
   2  -6   9 45.2335 6.24914   4
   2  -6   9 43.4886 7.21397   3
   2  -6   9 48.1828 6.04319   2
  -3   6  -9 11.0718 4.01021   3
   3  -6   9 6.10729 4.32346   2
   3  -6   9 10.3946 3.80327   4
   3  -6   9 8.19226 4.57524   3
  -4   6  -9 23.6552 5.22048   3
   4  -6   9 39.3284 7.14750   4
   4  -6   9 25.9970 5.74634   3
   4  -6   9 33.7834 8.35032   2
   5   5  -9 10.5246 4.96913   5
   5   5  -9 7.22651 4.33480   1
  -5  -5   9 2.74653 5.16904   3
   4   5  -9 44.6771 6.51421   5
   4   5  -9 49.4876 6.83479   1
  -4  -5   9 50.5925 8.11476   3
   3   5  -9 595.035 15.2971   1
   3   5  -9 576.274 15.1606   5
  -3  -5   9 620.413 16.3070   3
   2   5  -9 0.63241 3.01109   5
   2   5  -9 8.09373 3.25957   1
  -2  -5   9 1.18885 3.65553   3
   1   5  -9 56.0556 5.64522   5
   1   5  -9 61.7125 5.35206   1
  -1  -5   9 56.6997 6.38654   3
   0   5  -9 -1.2404 2.46006   5
   0   5  -9 -0.9570 2.50543   1
   0  -5   9 -4.3918 2.89660   3
   0  -5   9 -2.3071 2.50015   2
  -1   5  -9 41.1693 4.00690   1
  -1   5  -9 33.6887 5.70253   3
  -1   5  -9 46.1521 5.20161   5
   1  -5   9 51.4857 6.18616   3
   1  -5   9 35.8274 4.16489   4
   1  -5   9 45.9880 5.25852   2
  -2   5  -9 116.271 7.44595   3
  -2   5  -9 114.554 6.07808   5
   2  -5   9 118.267 7.18531   2
   2  -5   9 114.517 6.44163   4
   2  -5   9 129.675 7.86316   3
  -3   5  -9 -0.6680 3.37680   3
   3  -5   9 -5.3260 3.46680   2
   3  -5   9 -2.7139 3.29258   4
   3  -5   9 2.50024 3.78539   3
  -4   5  -9 4.70266 4.25110   3
   4  -5   9 7.65494 4.48054   3
   4  -5   9 -3.7506 4.21705   2
   4  -5   9 5.41421 3.66095   4
  -5   5  -9 6.01305 4.86185   3
   5  -5   9 -0.5002 4.49452   3
   5  -5   9 7.48751 5.11034   2
   5  -5   9 1.09100 4.71382   4
   5   4  -9 4.86515 3.79798   1
   5   4  -9 -1.4082 4.00277   5
  -5  -4   9 0.93572 4.72871   3
   4   4  -9 19.1548 4.06893   1
   4   4  -9 13.7747 3.96152   5
  -4  -4   9 22.6939 4.70554   3
   3   4  -9 2.16862 3.04663   1
   3   4  -9 1.71060 2.88447   5
  -3  -4   9 1.44815 3.48510   3
   2   4  -9 137.640 6.60680   1
   2   4  -9 144.210 6.81693   5
  -2  -4   9 141.734 7.89392   3
   1   4  -9 -0.2347 2.32503   1
   1   4  -9 -1.1295 2.65879   5
  -1  -4   9 1.95748 2.12152   2
  -1  -4   9 1.05171 3.12495   3
   0   4  -9 19.3157 4.06232   5
   0   4  -9 32.8964 3.91614   1
   0  -4   9 23.3040 5.43364   3
   0  -4   9 23.4150 3.92397   2
  -1   4  -9 67.0491 4.06113   1
  -1   4  -9 60.2967 5.06945   5
   1  -4   9 56.0487 4.92914   2
   1  -4   9 64.9014 6.46355   3
   1  -4   9 75.6242 4.20774   4
  -2   4  -9 141.627 6.16225   5
  -2   4  -9 159.707 7.65607   3
   2  -4   9 149.863 7.54317   3
   2  -4   9 147.946 6.19929   4
   2  -4   9 155.339 6.85499   2
  -3   4  -9 62.4769 5.20726   5
  -3   4  -9 63.4360 6.56976   3
   3  -4   9 66.5409 6.02067   4
   3  -4   9 66.6668 6.58530   3
   3  -4   9 67.2074 6.46789   2
  -4   4  -9 2.53569 3.66616   3
   4  -4   9 -3.2382 3.74601   2
   4  -4   9 -3.1583 3.09681   4
   4  -4   9 1.66337 3.91828   3
  -5   4  -9 86.7557 8.50368   3
   5  -4   9 66.5783 8.41953   3
   5  -4   9 84.3158 8.70103   2
   5  -4   9 61.8714 7.76964   4
   6   3  -9 53.9960 8.97505   5
   6   3  -9 40.2221 7.95951   1
  -6  -3   9 36.4299 9.19679   3
   5   3  -9 76.6776 7.61656   5
   5   3  -9 62.9376 6.88905   1
  -5  -3   9 69.7997 8.44204   3
   4   3  -9 101.305 6.88600   5
   4   3  -9 90.3083 6.48190   1
  -4  -3   9 98.9630 7.32649   3
   3   3  -9 4.50265 2.99772   1
   3   3  -9 5.72886 2.96386   5
  -3  -3   9 6.18038 3.38970   3
   2   3  -9 136.282 6.22180   1
   2   3  -9 132.494 6.50261   5
  -2  -3   9 136.147 7.17767   3
   1   3  -9 8.03678 2.70926   5
   1   3  -9 2.58611 2.11057   1
  -1  -3   9 8.05245 2.77100   3
  -1  -3   9 8.13137 2.10559   2
   0   3  -9 51.8626 3.79445   1
   0   3  -9 52.7304 4.53343   5
   0  -3   9 50.2237 5.19440   3
   0  -3   9 55.7803 4.08268   2
  -1   3  -9 460.699 10.7990   5
  -1   3  -9 461.948 9.63985   1
   1  -3   9 444.593 10.9896   2
   1  -3   9 442.183 9.66349   4
   1  -3   9 433.339 12.1925   3
  -2   3  -9 289.687 10.0073   3
  -2   3  -9 298.444 8.19966   5
   2  -3   9 293.489 9.95175   3
   2  -3   9 300.380 9.01027   2
   2  -3   9 298.853 8.10324   4
  -3   3  -9 56.6498 6.18455   3
  -3   3  -9 70.8129 4.25193   5
   3  -3   9 71.6655 6.30945   3
   3  -3   9 69.4224 5.98630   2
   3  -3   9 58.8063 5.49378   4
  -4   3  -9 -0.6794 3.50767   3
   4  -3   9 -1.7679 3.56124   2
   4  -3   9 0.51165 3.44849   4
   4  -3   9 -0.1521 3.51584   3
  -5   3  -9 57.8230 7.36774   3
   5  -3   9 76.7126 7.67340   2
   5  -3   9 61.8270 7.41014   4
   5  -3   9 61.1911 7.41178   3
  -6   3  -9 22.3365 5.60079   3
   6  -3   9 27.4670 6.22313   4
   6  -3   9 19.1200 5.17849   2
   6   2  -9 77.1362 8.38048   1
   6   2  -9 68.6294 8.24972   5
  -6  -2   9 78.7643 9.22389   3
   5   2  -9 -0.3505 3.44369   1
   5   2  -9 1.43354 3.68801   5
  -5  -2   9 0.23481 3.84585   3
   4   2  -9 335.195 10.5201   5
   4   2  -9 318.625 10.5984   1
  -4  -2   9 355.372 11.4117   3
   3   2  -9 42.1553 4.97142   1
   3   2  -9 39.6884 5.04190   5
  -3  -2   9 41.5644 5.78548   3
   2   2  -9 87.0943 5.14492   1
   2   2  -9 79.7456 5.17060   5
  -2  -2   9 77.1652 3.81419   2
  -2  -2   9 85.0690 5.86119   3
   1   2  -9 2.55778 2.05393   1
   1   2  -9 2.75570 2.16333   5
  -1  -2   9 3.95948 2.70011   3
  -1  -2   9 4.96529 1.81355   2
   0   2  -9 45.7986 4.05615   5
   0   2  -9 43.7396 3.43791   1
   0  -2   9 44.9062 4.64407   3
   0  -2   9 42.7099 2.44561   4
   0  -2   9 44.9247 3.70909   2
  -1   2  -9 1.27790 1.75893   5
  -1   2  -9 1.70499 1.59623   1
   1  -2   9 1.06060 1.60611   4
   1  -2   9 1.56182 2.27675   2
   1  -2   9 -1.0632 2.34133   3
  -2   2  -9 21.7097 3.53578   5
  -2   2  -9 18.6839 4.77016   3
   2  -2   9 11.9582 2.78130   2
   2  -2   9 19.1216 4.88695   3
   2  -2   9 14.1827 3.17977   4
  -3   2  -9 1114.28 23.7571   3
  -3   2  -9 1138.65 21.0779   5
   3  -2   9 1158.01 23.2503   2
   3  -2   9 1137.90 22.1527   4
   3  -2   9 1110.07 23.7519   3
  -4   2  -9 3.12815 3.49226   3
   4  -2   9 5.23147 2.99459   4
   4  -2   9 -1.0952 3.30410   3
   4  -2   9 5.22270 3.38399   2
  -5   2  -9 0.60197 3.88753   3
   5  -2   9 11.2054 3.94871   3
   5  -2   9 1.16928 3.60438   2
   5  -2   9 1.44642 3.67549   4
  -6   2  -9 6.10164 4.97118   3
   6  -2   9 9.98281 4.67812   2
   6  -2   9 2.81777 4.73619   4
   6   1  -9 11.5160 4.52753   1
   6   1  -9 7.90482 4.31086   5
  -6  -1   9 15.4372 4.63888   3
   5   1  -9 330.873 11.0979   5
   5   1  -9 341.915 11.2416   1
  -5  -1   9 336.265 11.7000   3
   4   1  -9 183.501 8.03298   1
   4   1  -9 178.257 7.70898   5
  -4  -1   9 173.322 8.08932   3
   3   1  -9 87.1619 5.63303   1
   3   1  -9 101.921 5.80990   5
  -3  -1   9 98.4833 6.16756   3
  -3  -1   9 73.0159 4.54563   2
   2   1  -9 9.19500 2.60401   5
   2   1  -9 10.8012 2.54127   1
  -2  -1   9 11.3985 2.77794   2
  -2  -1   9 14.0007 2.99051   3
   1   1  -9 440.008 10.8195   5
   1   1  -9 440.468 10.1675   1
  -1  -1   9 433.204 11.4036   3
  -1  -1   9 448.080 9.79024   2
   0   1  -9 147.939 4.69721   1
   0   1  -9 142.244 5.63128   5
   0  -1   9 139.025 6.25860   3
   0  -1   9 144.355 5.25946   2
   0  -1   9 134.621 3.67783   4
  -1   1  -9 341.103 7.34437   1
  -1   1  -9 339.933 8.75229   5
   1  -1   9 344.659 8.93601   2
   1  -1   9 329.471 7.55115   4
   1  -1   9 329.298 9.65988   3
  -2   1  -9 212.912 7.77437   3
  -2   1  -9 220.177 6.61509   5
   2  -1   9 222.536 6.34034   4
   2  -1   9 211.887 7.26236   2
   2  -1   9 207.484 7.79718   3
  -3   1  -9 4.44552 3.03655   3
  -3   1  -9 4.78305 2.19994   5
   3  -1   9 4.68301 2.97750   3
   3  -1   9 6.77918 2.97574   2
   3  -1   9 7.52850 2.73006   4
  -4   1  -9 220.781 9.11381   3
   4  -1   9 240.138 8.99685   2
   4  -1   9 226.073 9.15096   3
   4  -1   9 228.070 8.28682   4
  -5   1  -9 10.9505 4.06092   3
   5  -1   9 6.72912 3.50298   2
   5  -1   9 8.17994 3.78164   4
   5  -1   9 1.42871 3.53264   3
  -6   1  -9 10.0147 4.63258   3
   6  -1   9 4.34510 4.73688   4
   6  -1   9 -2.6931 4.23811   2
   6   0  -9 21.7316 4.67281   1
   6   0  -9 24.3343 4.50432   5
  -6   0   9 31.3547 7.20453   3
   5   0  -9 25.2884 5.77564   1
   5   0  -9 25.1311 4.15615   5
  -5   0   9 30.5812 6.22763   3
   4   0  -9 332.154 10.3412   1
   4   0  -9 342.881 10.2936   5
  -4   0   9 329.542 10.6331   3
   3   0  -9 4.39431 2.49701   5
   3   0  -9 3.26848 2.30580   1
  -3   0   9 -1.8534 2.50683   3
  -3   0   9 3.17496 1.82974   2
   2   0  -9 53.0284 4.54626   5
   2   0  -9 50.1870 4.17891   1
  -2   0   9 54.1123 4.60668   3
  -2   0   9 55.4374 3.40244   2
   1   0  -9 184.515 6.36729   5
   1   0  -9 185.410 6.00413   1
  -1   0   9 190.595 5.78019   2
  -1   0   9 189.431 6.87616   3
   0   0  -9 266.329 7.57249   5
   0   0  -9 269.760 6.62580   1
   0   0   9 244.123 7.92181   3
   0   0   9 267.602 7.29663   2
   0   0   9 254.591 5.63553   4
  -1   0  -9 15.6230 2.42194   1
  -1   0  -9 13.1628 3.12961   5
   1   0   9 12.2688 2.52438   4
   1   0   9 12.8935 2.63113   3
   1   0   9 16.6982 3.35206   2
  -2   0  -9 169.532 5.68499   5
  -2   0  -9 169.835 6.73863   3
   2   0   9 167.487 6.57340   2
   2   0   9 176.084 5.62904   4
   2   0   9 167.919 6.74867   3
  -3   0  -9 300.212 9.28204   3
  -3   0  -9 303.580 7.96535   5
   3   0   9 296.681 9.25617   2
   3   0   9 302.938 9.40357   3
   3   0   9 309.187 8.78631   4
  -4   0  -9 149.417 7.78198   3
  -4   0  -9 157.945 5.57090   5
   4   0   9 161.350 7.48866   2
   4   0   9 153.373 7.77125   3
   4   0   9 161.951 7.00854   4
  -5   0  -9 7.59573 3.85796   3
   5   0   9 12.3401 4.03095   3
   5   0   9 24.3088 5.85663   4
   5   0   9 17.5011 3.90687   2
  -6   0  -9 5.21371 4.50921   3
   6   0   9 7.52383 3.89392   2
   6   0   9 8.76288 4.78567   4
   6  -1  -9 101.190 7.09439   5
  -6   1   9 74.6590 7.84419   3
   5  -1  -9 80.5202 6.68594   1
   5  -1  -9 80.5385 6.23820   5
  -5   1   9 76.5121 6.90897   3
   4  -1  -9 44.7997 5.65630   1
   4  -1  -9 44.0172 5.19380   5
  -4   1   9 49.7930 4.24632   2
  -4   1   9 46.6227 5.50403   3
   3  -1  -9 637.876 14.6126   1
   3  -1  -9 636.633 14.6093   5
  -3   1   9 630.448 14.8002   3
  -3   1   9 632.837 13.0005   2
   2  -1  -9 185.646 6.42028   1
   2  -1  -9 170.835 6.50173   5
  -2   1   9 184.908 6.72048   3
  -2   1   9 184.662 5.71200   2
   1  -1  -9 37.7789 3.59142   5
   1  -1  -9 37.1025 3.44526   1
  -1   1   9 36.4053 3.95560   3
  -1   1   9 44.0841 3.37528   2
   0  -1  -9 289.954 7.09762   1
   0  -1  -9 288.641 7.96036   5
   0   1   9 288.300 6.32983   4
   0   1   9 291.784 8.33133   3
   0   1   9 288.148 7.84682   2
  -1  -1  -9 293.332 7.97478   5
  -1  -1  -9 298.823 6.71841   1
   1   1   9 296.735 6.99249   4
   1   1   9 289.781 8.17473   2
   1   1   9 298.576 8.51210   3
  -2  -1  -9 140.610 3.68190   1
  -2  -1  -9 144.734 5.36717   5
  -2  -1  -9 144.648 5.99506   3
   2   1   9 128.821 5.89219   3
   2   1   9 128.544 5.02929   4
   2   1   9 136.726 5.84062   2
  -3  -1  -9 109.659 5.81700   3
  -3  -1  -9 113.752 5.06096   5
   3   1   9 111.432 6.15864   2
   3   1   9 114.815 6.01484   3
   3   1   9 113.721 5.57623   4
  -4  -1  -9 161.289 7.29747   3
  -4  -1  -9 167.655 5.79813   5
   4   1   9 165.645 7.31055   3
   4   1   9 158.173 7.51117   2
   4   1   9 161.762 6.91200   4
  -5  -1  -9 4.48764 3.60957   3
   5   1   9 7.46930 3.78004   4
   5   1   9 1.83192 3.41396   2
  -6  -1  -9 39.4297 7.24812   3
   6   1   9 29.6586 7.01574   2
   6   1   9 32.9780 7.77492   4
   6  -2  -9 -5.2708 3.44872   5
   6  -2  -9 3.31841 3.93107   1
  -6   2   9 0.32798 3.79996   3
   5  -2  -9 10.4744 3.45733   5
   5  -2  -9 13.7144 3.84538   1
  -5   2   9 16.2260 3.94237   3
   4  -2  -9 2.40188 2.68254   5
   4  -2  -9 4.08266 3.02625   1
  -4   2   9 3.13327 3.05985   3
  -4   2   9 3.31498 2.55601   2
   3  -2  -9 26.5870 4.40037   1
   3  -2  -9 22.1808 4.25746   5
  -3   2   9 15.6720 3.68523   2
  -3   2   9 17.7731 4.21228   3
   2  -2  -9 -0.6510 2.06715   5
   2  -2  -9 2.38479 2.30565   1
  -2   2   9 3.41214 1.38995   4
  -2   2   9 1.26423 2.00423   2
  -2   2   9 -0.0684 2.13024   3
   1  -2  -9 117.472 4.85741   1
   1  -2  -9 111.279 5.02925   5
  -1   2   9 116.680 4.96524   2
  -1   2   9 106.415 5.19920   3
  -1   2   9 110.575 3.60364   4
   0  -2  -9 68.3785 3.59537   1
   0  -2  -9 73.5955 4.14196   5
   0   2   9 69.4091 3.25385   4
   0   2   9 63.5116 4.30933   2
   0   2   9 64.9843 4.12806   3
  -1  -2  -9 72.7186 3.39116   1
  -1  -2  -9 68.4678 4.27921   5
   1   2   9 74.3822 3.54428   4
   1   2   9 73.8555 4.43567   2
   1   2   9 74.2650 4.53926   3
  -2  -2  -9 394.933 8.11052   1
  -2  -2  -9 413.463 9.91706   5
  -2  -2  -9 412.691 10.3136   3
   2   2   9 399.123 10.3832   2
   2   2   9 395.556 10.1701   3
   2   2   9 407.732 9.63243   4
  -3  -2  -9 36.2927 4.49779   3
  -3  -2  -9 40.3151 3.91250   5
   3   2   9 41.6864 4.48620   3
   3   2   9 42.4693 4.73804   2
   3   2   9 41.9481 4.22370   4
  -4  -2  -9 102.543 5.08641   5
  -4  -2  -9 97.9937 5.96575   3
   4   2   9 109.713 6.13950   3
   4   2   9 105.159 6.45196   2
   4   2   9 98.4287 5.96913   4
  -5  -2  -9 9.30550 3.50989   3
   5   2   9 -0.5537 3.33027   2
   5   2   9 4.92721 3.57028   4
  -6  -2  -9 6.33056 4.00247   3
   6   2   9 5.10479 4.10354   2
   6   2   9 4.56910 4.56284   4
   6  -3  -9 0.90443 4.28367   1
   6  -3  -9 0.86112 3.49589   5
  -6   3   9 0.42475 3.71779   3
   5  -3  -9 40.4398 6.48701   1
   5  -3  -9 46.8712 5.62812   5
  -5   3   9 38.5670 6.15513   3
  -5   3   9 33.9134 5.93798   2
   4  -3  -9 216.718 8.85299   1
   4  -3  -9 224.086 8.12070   5
  -4   3   9 227.390 8.84085   3
  -4   3   9 226.253 8.07574   2
   3  -3  -9 402.362 10.7710   5
   3  -3  -9 409.558 11.1694   1
  -3   3   9 369.876 9.99188   2
  -3   3   9 415.672 8.80250   4
  -3   3   9 418.638 10.8960   3
   2  -3  -9 113.168 5.59433   1
   2  -3  -9 106.576 5.28871   5
  -2   3   9 115.643 5.53221   3
  -2   3   9 114.881 5.30333   2
  -2   3   9 113.672 3.99214   4
   1  -3  -9 5.86214 2.17673   1
   1  -3  -9 6.40806 2.05850   5
  -1   3   9 6.50681 2.49577   2
  -1   3   9 8.07357 2.31045   3
  -1   3   9 12.4515 2.61686   4
   0  -3  -9 179.393 5.69360   1
   0  -3  -9 184.540 6.46040   5
   0   3   9 183.715 6.10739   3
   0   3   9 184.505 5.29691   4
   0   3   9 179.192 6.22275   2
  -1  -3  -9 437.659 9.48160   1
  -1  -3  -9 426.092 10.5530   5
   1   3   9 437.196 10.7994   2
   1   3   9 435.453 10.3336   3
   1   3   9 447.613 9.94238   4
  -2  -3  -9 1146.01 22.4533   5
  -2  -3  -9 1171.59 20.8017   1
  -2  -3  -9 1191.30 22.3861   3
   2   3   9 1186.59 22.3439   4
   2   3   9 1164.37 23.1400   2
   2   3   9 1198.36 22.4438   3
  -3  -3  -9 -0.5673 2.21422   3
  -3  -3  -9 -0.8373 2.11548   5
   3   3   9 0.33083 2.28119   4
   3   3   9 2.88550 2.29236   3
   3   3   9 1.36201 2.45063   2
  -4  -3  -9 -1.5311 2.28831   5
  -4  -3  -9 2.72147 2.88720   3
   4   3   9 -0.8275 2.93764   2
   4   3   9 0.89829 2.65376   4
   4   3   9 5.95512 2.79984   3
  -5  -3  -9 3.92840 3.24146   3
   5   3   9 4.03465 3.37749   2
   5   3   9 0.97377 3.43522   4
  -6  -3  -9 27.8965 6.44681   3
   6   3   9 31.0330 6.92626   2
   6   3   9 21.9283 5.06148   4
   6  -4  -9 146.194 8.21331   5
   6  -4  -9 143.406 9.21457   1
  -6   4   9 135.376 9.00380   3
   5  -4  -9 -2.5064 3.03115   5
   5  -4  -9 1.60038 3.41639   1
  -5   4   9 -6.2825 3.16381   3
  -5   4   9 -4.6895 3.69865   2
   4  -4  -9 156.906 7.91699   1
   4  -4  -9 156.920 7.22001   5
   4  -4  -9 173.393 5.93825   4
  -4   4   9 168.189 7.79833   3
  -4   4   9 161.352 7.49176   2
   3  -4  -9 493.527 10.4688   4
   3  -4  -9 489.602 12.1833   5
   3  -4  -9 470.656 12.4213   1
  -3   4   9 469.920 10.4651   4
  -3   4   9 477.279 11.9266   2
  -3   4   9 466.440 11.9110   3
   2  -4  -9 353.662 9.80863   1
   2  -4  -9 338.292 9.58857   5
  -2   4   9 331.715 9.07964   3
  -2   4   9 354.856 9.48751   2
  -2   4   9 364.672 8.26713   4
   1  -4  -9 -2.2765 2.21780   5
   1  -4  -9 0.10209 1.92294   1
  -1   4   9 2.01316 2.09259   2
  -1   4   9 0.63772 1.82211   3
  -1   4   9 -0.7417 1.61122   4
   0  -4  -9 1.98185 2.04416   5
   0  -4  -9 1.37309 1.79985   1
   0   4   9 1.55988 2.06156   2
   0   4   9 -2.4246 1.66602   4
   0   4   9 0.45286 1.76397   3
  -1  -4  -9 48.8559 3.60124   1
  -1  -4  -9 45.7050 4.17853   5
   1   4   9 58.2648 3.90516   4
   1   4   9 49.6275 3.68778   3
   1   4   9 46.9253 4.39049   2
  -2  -4  -9 32.0080 3.21617   1
  -2  -4  -9 23.8484 3.84450   5
  -2  -4  -9 31.4818 3.62878   3
   2   4   9 30.1589 4.54157   2
   2   4   9 31.0779 3.50409   3
   2   4   9 26.9682 4.07342   4
  -3  -4  -9 892.906 18.1244   5
  -3  -4  -9 877.615 16.5601   1
  -3  -4  -9 893.003 17.7358   3
   3   4   9 886.770 18.5122   4
   3   4   9 874.398 17.6240   3
   3   4   9 852.720 18.8267   2
  -4  -4  -9 35.9871 4.81889   5
  -4  -4  -9 34.4539 5.29271   3
   4   4   9 40.9490 5.53096   2
   4   4   9 24.9470 4.88121   3
   4   4   9 35.9651 5.63217   4
  -5  -4  -9 5.75161 2.97339   5
  -5  -4  -9 7.18502 3.62082   3
   5   4   9 3.66946 3.61505   2
   5   4   9 1.66801 3.66644   4
  -6  -4  -9 78.0587 7.06141   3
   6   4   9 90.0792 7.90720   2
   6   4   9 69.9722 8.58560   4
   6  -5  -9 123.941 9.42721   1
   6  -5  -9 124.560 8.33133   5
  -6   5   9 126.779 8.92081   3
  -6   5   9 117.913 8.73645   2
   5  -5  -9 42.7261 6.08043   5
   5  -5  -9 24.2588 6.47177   1
  -5   5   9 28.7965 5.93094   2
  -5   5   9 38.7174 6.64773   3
   4  -5  -9 6.50978 2.58306   4
   4  -5  -9 10.8502 3.34890   5
   4  -5  -9 20.0094 5.07474   1
  -4   5   9 10.3279 2.96791   4
  -4   5   9 6.89525 3.26843   3
  -4   5   9 18.3746 3.77751   2
   3  -5  -9 24.1545 3.82861   4
   3  -5  -9 30.6468 5.72602   1
   3  -5  -9 26.7154 4.80441   5
  -3   5   9 21.8013 4.68769   3
  -3   5   9 25.2889 4.06396   4
  -3   5   9 18.6581 4.80981   2
   2  -5  -9 153.712 6.79494   5
   2  -5  -9 157.219 6.62239   1
  -2   5   9 146.782 6.03012   3
  -2   5   9 158.497 5.70160   4
  -2   5   9 149.108 6.51528   2
   1  -5  -9 1685.75 31.5270   1
   1  -5  -9 1715.65 31.9422   5
  -1   5   9 1714.00 30.6146   3
  -1   5   9 1725.17 31.7751   2
  -1   5   9 1708.87 30.5346   4
   0  -5  -9 92.0059 5.48992   5
   0  -5  -9 92.3017 4.94603   1
   0   5   9 88.3037 5.40666   2
   0   5   9 87.0275 4.74412   4
   0   5   9 88.9196 4.25572   3
  -1  -5  -9 39.0428 4.11186   5
  -1  -5  -9 52.0255 4.02537   1
   1   5   9 45.9902 4.81777   2
   1   5   9 46.6105 3.51772   3
   1   5   9 33.1777 4.07813   4
  -2  -5  -9 336.320 8.34172   3
  -2  -5  -9 342.113 8.60595   1
  -2  -5  -9 349.656 9.72516   5
   2   5   9 340.120 10.1414   2
   2   5   9 347.003 8.41597   3
   2   5   9 356.770 9.67893   4
  -3  -5  -9 49.8024 3.96356   1
  -3  -5  -9 52.9073 5.03002   5
  -3  -5  -9 55.8453 4.33006   3
   3   5   9 60.2698 5.90545   2
   3   5   9 53.4787 5.24667   4
   3   5   9 57.3428 4.25612   3
  -4  -5  -9 6.08447 2.67601   3
  -4  -5  -9 9.26534 3.18499   5
   4   5   9 0.28056 3.12091   2
   4   5   9 3.96958 3.13858   4
  -5  -5  -9 -6.6750 3.26644   3
  -5  -5  -9 -0.9566 3.17033   5
   5   5   9 -2.0236 3.81649   4
   5   5   9 4.95352 3.80887   2
   6   5   9 28.4648 5.63459   4
   6   5   9 20.4046 4.98403   2
   5  -6  -9 7.71411 4.42870   1
   5  -6  -9 10.2667 3.55027   4
   5  -6  -9 4.56521 3.75284   5
  -5   6   9 3.03250 3.76465   2
  -5   6   9 6.73140 4.05849   3
  -5   6   9 11.3522 3.88152   4
   4  -6  -9 6.00283 3.33502   4
   4  -6  -9 5.38206 3.63791   1
   4  -6  -9 -0.9312 3.06598   5
  -4   6   9 3.72133 3.43753   2
  -4   6   9 2.12783 3.34050   3
  -4   6   9 0.67885 3.29789   4
   3  -6  -9 21.6239 4.59244   4
   3  -6  -9 21.7610 5.42431   1
   3  -6  -9 28.0929 5.56149   5
  -3   6   9 18.6378 3.33986   3
  -3   6   9 16.6145 3.29741   4
  -3   6   9 29.0334 5.57074   2
   2  -6  -9 53.7024 5.65052   1
   2  -6  -9 50.1559 5.22846   5
  -2   6   9 63.6862 5.69759   2
  -2   6   9 48.8399 4.60729   3
  -2   6   9 55.4997 4.96687   4
   1  -6  -9 29.1985 4.58255   5
   1  -6  -9 26.1501 4.46492   1
  -1   6   9 23.7622 4.08357   4
  -1   6   9 25.9220 4.63744   2
  -1   6   9 33.1983 3.60537   3
   0  -6  -9 6.31569 2.71395   5
   0  -6  -9 10.6862 2.65364   1
   0   6   9 9.77789 2.04344   3
   0   6   9 14.2884 3.08396   2
   0   6   9 5.05584 2.59902   4
  -1  -6  -9 31.5194 4.65223   5
  -1  -6  -9 36.2522 4.27506   1
   1   6   9 33.7683 4.79126   2
   1   6   9 27.6535 3.34596   3
   1   6   9 30.3883 4.38039   4
  -2  -6  -9 172.114 7.05802   5
  -2  -6  -9 166.853 6.37460   1
  -2  -6  -9 171.544 5.47506   3
   2   6   9 171.540 6.94507   4
   2   6   9 175.034 5.40572   3
   2   6   9 156.858 7.42229   2
  -3  -6  -9 294.302 9.27319   5
  -3  -6  -9 294.953 8.29795   1
   3   6   9 297.507 9.97742   4
   3   6   9 293.390 9.86782   2
  -4  -6  -9 1.47604 3.19961   5
   4   6   9 -1.9466 3.66546   4
   4   6   9 -1.0464 3.47164   2
  -5  -6  -9 7.69292 3.91602   5
   5   6   9 6.87755 4.32729   2
   5   6   9 12.7969 4.72097   4
   6   6   9 7.40693 4.91060   2
   6   6   9 13.0581 5.26203   4
   5  -7  -9 8.83817 4.07998   5
   5  -7  -9 16.8228 4.84706   1
   5  -7  -9 11.9120 4.02730   4
  -5   7   9 16.3986 5.09971   2
  -5   7   9 10.9153 4.37509   3
  -5   7   9 13.1271 4.26035   4
   4  -7  -9 3.02681 3.36064   4
   4  -7  -9 4.72339 3.64683   5
   4  -7  -9 4.13942 3.78142   1
  -4   7   9 8.21032 3.66619   4
  -4   7   9 10.9699 3.96360   3
  -4   7   9 -0.5237 4.00748   2
   3  -7  -9 39.3763 5.39813   4
   3  -7  -9 42.7883 6.21072   1
   3  -7  -9 39.1041 5.94850   5
  -3   7   9 30.0312 6.20623   2
  -3   7   9 48.9772 5.44264   3
  -3   7   9 34.1364 5.63487   4
   2  -7  -9 139.471 7.45507   1
   2  -7  -9 123.403 7.09711   5
  -2   7   9 144.754 7.52954   2
  -2   7   9 130.183 5.76896   3
  -2   7   9 133.677 6.71581   4
   1  -7  -9 208.955 8.48267   5
   1  -7  -9 211.311 8.25145   1
  -1   7   9 207.076 7.73998   4
  -1   7   9 208.263 6.23377   3
  -1   7   9 206.675 8.68935   2
   0  -7  -9 87.0155 6.23987   5
   0  -7  -9 104.519 5.91209   1
   0   7   9 96.2933 6.59266   2
   0   7   9 91.0838 5.60479   4
  -1  -7  -9 47.4121 5.62930   5
  -1  -7  -9 51.3945 5.23955   1
   1   7   9 50.1312 6.08419   2
   1   7   9 39.3833 5.08289   4
  -2  -7  -9 90.2360 6.40200   5
  -2  -7  -9 92.8945 5.67732   1
   2   7   9 85.6624 6.40510   4
   2   7   9 89.7366 6.48149   2
  -3  -7  -9 32.9181 5.43831   1
  -3  -7  -9 24.3650 5.51778   5
   3   7   9 26.3124 5.72029   2
   3   7   9 22.4434 4.17419   4
  -4  -7  -9 497.639 13.3246   5
   4   7   9 487.871 14.5071   4
   4   7   9 513.092 14.2466   2
  -5  -7  -9 8.13077 4.03089   5
   5   7   9 15.5999 4.75807   4
   5   7   9 11.7592 4.42933   2
   5  -8  -9 21.6013 5.05991   4
   5  -8  -9 34.0731 7.78287   5
   5  -8  -9 24.1667 5.38316   1
  -5   8   9 22.8420 5.02667   3
  -5   8   9 22.3883 5.08811   4
  -5   8   9 13.9774 5.83400   2
   4  -8  -9 79.3292 8.05647   1
   4  -8  -9 98.8661 7.55969   4
   4  -8  -9 84.6202 7.11562   5
  -4   8   9 69.7606 7.03755   4
  -4   8   9 86.1853 8.77215   2
  -4   8   9 99.0392 7.25323   3
   3  -8  -9 11.4163 3.54636   4
   3  -8  -9 5.96295 3.61863   1
   3  -8  -9 6.34609 3.78959   5
  -3   8   9 5.16416 3.50093   4
  -3   8   9 9.32066 4.33669   2
  -3   8   9 8.25277 3.46668   3
   2  -8  -9 106.238 7.15094   1
   2  -8  -9 99.7181 6.98955   5
  -2   8   9 100.505 7.38660   2
  -2   8   9 104.940 6.75390   4
   1  -8  -9 7.47364 3.27994   5
   1  -8  -9 12.7706 3.66412   1
  -1   8   9 12.4068 3.27719   4
  -1   8   9 8.43602 3.65432   2
   0  -8  -9 63.2518 6.21512   1
   0  -8  -9 55.2398 6.07459   5
   0   8   9 65.6434 5.80475   4
   0   8   9 58.4480 6.06544   2
  -1  -8  -9 -0.1345 2.80728   5
  -1  -8  -9 -1.2702 2.84772   1
   1   8   9 2.13193 3.24930   4
   1   8   9 -2.5018 3.19640   2
  -2  -8  -9 -0.9430 3.17749   5
  -2  -8  -9 -1.4900 2.91565   1
   2   8   9 -0.7332 3.17763   4
   2   8   9 1.96676 3.35543   2
  -3  -8  -9 3.17298 3.49264   1
  -3  -8  -9 9.67560 3.71294   5
   3   8   9 4.88076 3.82369   2
   3   8   9 0.50618 3.70755   4
  -4  -8  -9 20.3469 4.34976   1
  -4  -8  -9 20.3665 4.26447   5
   4   8   9 9.66062 3.66147   1
   4   8   9 14.7659 4.81042   4
   4   8   9 19.6571 4.81550   2
  -5  -8  -9 -1.8951 4.19545   5
   5   8   9 -5.7467 5.10353   4
   5   8   9 -2.3841 4.63193   2
   4  -9  -9 11.0785 4.18356   5
   4  -9  -9 12.9137 5.05989   1
   4  -9  -9 10.9575 4.82077   4
  -4   9   9 6.67854 4.44835   4
  -4   9   9 1.51610 5.30318   2
   3  -9  -9 162.371 9.12584   5
   3  -9  -9 136.902 9.29571   1
   3  -9  -9 154.654 8.44701   4
  -3   9   9 157.167 8.42984   4
  -3   9   9 168.979 9.99349   2
   2  -9  -9 9.07525 4.10483   5
   2  -9  -9 7.76279 3.71220   1
  -2   9   9 2.84922 4.16103   2
  -2   9   9 6.68179 3.64928   4
   1  -9  -9 2.47084 3.63591   5
   1  -9  -9 0.03911 3.43044   1
  -1   9   9 -6.7461 3.61032   2
  -1   9   9 -3.2791 3.19248   4
   0  -9  -9 13.3925 3.77033   1
   0  -9  -9 13.8022 3.66851   5
   0   9   9 14.7268 3.96101   2
   0   9   9 14.2048 3.96114   4
  -1  -9  -9 22.0125 5.69924   1
  -1  -9  -9 24.7753 6.01845   5
   1   9   9 27.9789 6.30932   2
   1   9   9 28.5601 6.32809   4
  -2  -9  -9 57.9673 6.35922   5
  -2  -9  -9 37.9853 6.17253   1
   2   9   9 61.5597 6.89917   2
   2   9   9 44.1852 7.27523   4
  -3  -9  -9 19.3018 4.20673   1
  -3  -9  -9 24.5441 6.20399   5
   3   9   9 20.8905 5.06770   4
   3   9   9 27.3990 6.88439   2
  -4  -9  -9 -0.1531 4.12595   5
  -4  -9  -9 5.57645 3.83480   1
   4   9   9 7.34985 4.35919   1
   4   9   9 1.19623 4.88620   4
   4   9   9 -2.7624 4.51629   2
   3 -10  -9 166.957 10.5337   1
   3 -10  -9 156.257 10.4850   4
   3 -10  -9 186.838 10.1663   5
  -3  10   9 156.096 11.0482   2
  -3  10   9 164.279 10.6486   4
   2 -10  -9 119.520 8.65989   1
   2 -10  -9 129.844 9.18445   5
  -2  10   9 124.573 9.23092   2
  -2  10   9 133.455 9.07499   4
   1 -10  -9 4.44845 3.92682   1
   1 -10  -9 -1.0762 4.34957   5
  -1  10   9 -5.9945 4.08470   4
  -1  10   9 0.62610 4.10233   2
   0 -10  -9 8.88310 4.02739   1
   0 -10  -9 7.33317 4.22418   5
   0  10   9 -0.2161 4.25075   2
   0  10   9 8.90886 4.22142   4
  -1 -10  -9 240.765 10.5665   1
  -1 -10  -9 228.517 10.1647   5
   1  10   9 257.095 10.4057   2
   1  10   9 235.662 10.7748   4
  -2 -10  -9 -1.6799 3.84831   5
  -2 -10  -9 -0.3655 3.97478   1
   2  10   9 -0.0622 4.19083   2
   2  10   9 3.14992 4.51837   4
  -3 -10  -9 140.141 8.63005   1
  -3 -10  -9 141.480 8.70660   5
   3  10   9 145.728 9.29867   2
   3  10   9 131.445 10.2626   4
  -4 -10  -9 11.2712 4.83259   1
  -4 -10  -9 12.5603 4.77023   5
   4  10   9 11.1845 5.33827   4
   2 -11  -9 16.4928 5.07614   1
   2 -11  -9 5.34259 5.36327   5
  -2  11   9 16.9904 5.31856   2
  -2  11   9 13.0051 5.77038   4
   1 -11  -9 146.400 9.33522   1
   1 -11  -9 130.165 10.0467   5
  -1  11   9 137.082 10.3849   4
  -1  11   9 124.586 10.1428   2
   0 -11  -9 -0.1019 3.84050   1
   0 -11  -9 3.13179 4.59918   5
   0  11   9 0.70508 4.46930   2
   0  11   9 -1.9869 4.71255   4
  -1 -11  -9 1.73324 4.35464   1
  -1 -11  -9 3.33959 4.17092   5
   1  11   9 3.52988 4.30772   2
   1  11   9 2.11476 5.03405   4
  -2 -11  -9 109.497 9.95549   1
  -2 -11  -9 115.172 8.68485   5
   2  11   9 107.368 8.86684   2
   2  11   9 98.0529 10.2839   4
   2   7 -10 1.89758 4.25847   5
   2   7 -10 -7.5832 4.38855   1
  -2  -7  10 -2.4513 5.20601   3
   1   7 -10 13.2814 4.27111   1
   1   7 -10 17.9054 4.62109   5
  -1  -7  10 16.2233 5.46079   3
   0   7 -10 100.350 7.25097   1
   0   7 -10 94.5879 8.19960   5
   0  -7  10 79.3425 9.52598   3
  -1   7 -10 97.5566 8.31621   3
  -1   7 -10 111.230 7.96219   5
   1  -7  10 102.797 9.78264   3
   1  -7  10 107.280 7.70674   2
  -2   7 -10 6.75650 4.54672   3
   2  -7  10 -4.4895 4.07180   2
   2  -7  10 4.24144 5.19594   3
   3   6 -10 119.371 8.60126   1
   3   6 -10 109.988 8.64917   5
  -3  -6  10 102.247 9.95946   3
   2   6 -10 2.98685 3.79077   1
   2   6 -10 4.73484 3.67638   5
  -2  -6  10 2.09526 4.87102   3
   1   6 -10 9.16962 3.61859   5
   1   6 -10 3.20528 3.44520   1
  -1  -6  10 11.8153 4.66685   3
   0   6 -10 33.1954 6.42003   5
   0   6 -10 30.2264 5.62244   1
   0  -6  10 34.4841 7.74130   3
   0  -6  10 17.5035 4.11468   2
  -1   6 -10 6.78042 4.09061   3
  -1   6 -10 3.69358 3.31766   5
   1  -6  10 1.51949 3.49298   2
   1  -6  10 7.52239 4.62683   3
  -2   6 -10 6.82996 3.50738   5
  -2   6 -10 12.3296 4.26267   3
   2  -6  10 1.75359 3.62368   2
   2  -6  10 1.40629 4.59331   3
  -3   6 -10 -2.8273 4.03985   3
   3  -6  10 4.65942 4.96625   3
   3  -6  10 -2.8654 4.60730   2
   3  -6  10 0.30059 3.80612   4
   4   5 -10 23.4299 4.92552   5
   4   5 -10 23.1395 4.54075   1
  -4  -5  10 15.8632 5.58110   3
   3   5 -10 136.037 8.57448   1
   3   5 -10 127.523 8.24481   5
  -3  -5  10 128.099 9.89516   3
   2   5 -10 110.516 7.29912   5
   2   5 -10 122.445 7.32790   1
  -2  -5  10 116.036 8.61091   3
   1   5 -10 59.6044 5.75453   1
   1   5 -10 56.4752 6.26292   5
  -1  -5  10 66.0546 7.53640   3
   0   5 -10 -1.3187 3.03455   5
   0   5 -10 4.01772 2.89189   1
   0  -5  10 -0.6295 3.16133   2
   0  -5  10 1.81955 4.01307   3
  -1   5 -10 544.762 14.9679   3
  -1   5 -10 539.359 13.6537   5
   1  -5  10 552.475 13.5109   2
   1  -5  10 547.119 15.3109   3
  -2   5 -10 10.3081 3.44371   5
  -2   5 -10 16.1885 3.98877   3
   2  -5  10 13.3713 4.40786   3
   2  -5  10 26.4015 5.73670   2
  -3   5 -10 24.2245 4.90344   3
   3  -5  10 23.1952 4.93407   3
   3  -5  10 26.2782 6.96230   4
   3  -5  10 22.0019 4.75833   2
  -4   5 -10 1.16632 4.60060   3
   4  -5  10 2.51422 4.15960   4
   4  -5  10 10.2291 5.29624   3
   4  -5  10 10.1925 5.20853   2
   5   4 -10 12.9484 4.69809   1
   5   4 -10 35.4934 8.20968   5
  -5  -4  10 22.7424 5.94042   3
   4   4 -10 55.5327 6.96340   5
   4   4 -10 63.0436 7.32965   1
  -4  -4  10 53.4384 8.34652   3
   3   4 -10 216.626 8.87120   5
   3   4 -10 200.883 9.06679   1
  -3  -4  10 206.321 10.1618   3
   2   4 -10 122.008 6.95965   1
   2   4 -10 111.208 6.96152   5
  -2  -4  10 116.827 7.92226   3
   1   4 -10 -5.3586 2.74850   5
   1   4 -10 -4.3183 2.62064   1
  -1  -4  10 1.86554 3.34769   3
  -1  -4  10 -1.1526 2.31018   2
   0   4 -10 16.6462 3.42435   5
   0   4 -10 12.6232 2.59276   1
   0  -4  10 15.0321 3.90992   3
   0  -4  10 19.1738 4.63769   2
  -1   4 -10 15.0808 3.22327   5
   1  -4  10 10.6694 3.06931   2
   1  -4  10 8.18792 3.72331   3
  -2   4 -10 222.872 9.53329   3
  -2   4 -10 223.635 7.90131   5
   2  -4  10 230.718 8.72036   2
   2  -4  10 224.388 7.83727   4
   2  -4  10 220.509 9.67023   3
  -3   4 -10 97.1961 7.83390   3
   3  -4  10 102.761 7.88623   2
   3  -4  10 110.921 8.02017   3
   3  -4  10 104.997 7.03212   4
  -4   4 -10 7.28154 4.07563   3
   4  -4  10 11.8223 3.83907   4
   4  -4  10 11.8439 4.19855   3
   4  -4  10 8.10345 4.64475   2
  -5   4 -10 25.7271 5.34507   3
   5  -4  10 45.3459 8.98097   2
   5  -4  10 32.8940 8.07967   4
   5  -4  10 30.6917 5.90004   3
   5   3 -10 21.6872 4.99685   5
   5   3 -10 22.9179 4.84668   1
  -5  -3  10 39.1538 8.66208   3
   4   3 -10 22.1637 4.20938   1
   4   3 -10 24.5138 6.32984   5
  -4  -3  10 36.7605 7.27574   3
   3   3 -10 330.562 10.5229   1
   3   3 -10 336.157 10.7537   5
  -3  -3  10 327.537 11.2418   3
   2   3 -10 424.794 11.8602   5
   2   3 -10 417.386 11.2140   1
  -2  -3  10 411.834 12.3390   3
   1   3 -10 28.2095 5.17342   5
   1   3 -10 24.0807 4.34954   1
  -1  -3  10 35.2597 5.74404   3
  -1  -3  10 22.4034 3.93273   2
   0   3 -10 48.0075 4.04028   1
   0   3 -10 37.9755 4.79377   5
   0  -3  10 40.8020 5.88085   3
   0  -3  10 36.9848 4.80447   2
  -1   3 -10 26.5556 4.23798   5
   1  -3  10 23.3354 5.60357   3
   1  -3  10 23.2054 4.61140   2
  -2   3 -10 279.456 10.1371   3
  -2   3 -10 276.144 8.38452   5
   2  -3  10 290.146 10.2499   3
   2  -3  10 271.733 9.18053   2
   2  -3  10 256.384 7.96843   4
  -3   3 -10 127.338 5.72800   5
  -3   3 -10 134.826 8.00191   3
   3  -3  10 128.932 7.46625   2
   3  -3  10 133.597 7.83240   3
   3  -3  10 132.108 6.91200   4
  -4   3 -10 21.8485 4.79880   3
   4  -3  10 43.7386 7.53146   3
   4  -3  10 35.9095 6.64307   2
   4  -3  10 30.0084 5.69131   4
  -5   3 -10 4.45690 4.69272   3
   5  -3  10 0.25924 4.68726   3
   5  -3  10 8.66498 4.55648   4
   5  -3  10 5.73090 4.63605   2
   5   2 -10 16.7369 4.20859   1
   5   2 -10 12.6405 4.61757   5
  -5  -2  10 20.5822 4.61592   3
   4   2 -10 11.3953 3.58235   1
   4   2 -10 5.59596 3.45337   5
  -4  -2  10 10.4029 4.08876   3
   3   2 -10 115.173 6.93690   1
   3   2 -10 117.197 6.86465   5
  -3  -2  10 111.680 7.52648   3
   2   2 -10 365.017 10.7325   5
   2   2 -10 372.501 10.2992   1
  -2  -2  10 379.816 11.3146   3
  -2  -2  10 356.457 8.53211   2
   1   2 -10 14.1797 3.09657   5
   1   2 -10 12.2786 2.61490   1
  -1  -2  10 11.7583 2.46684   2
  -1  -2  10 16.6378 3.49444   3
   0   2 -10 6.25446 2.12225   1
   0   2 -10 4.82716 2.52494   5
   0  -2  10 7.91263 3.12143   3
   0  -2  10 6.72271 2.58761   2
  -1   2 -10 75.6151 3.80227   1
  -1   2 -10 69.4745 4.85002   5
   1  -2  10 70.2028 3.93156   4
   1  -2  10 70.2194 5.07458   2
   1  -2  10 66.2605 6.10714   3
  -2   2 -10 320.285 9.05541   5
  -2   2 -10 330.016 10.7678   3
   2  -2  10 333.495 10.8624   3
   2  -2  10 330.649 8.73597   4
   2  -2  10 356.547 10.1601   2
  -3   2 -10 7.58851 2.55222   5
  -3   2 -10 5.16394 3.57583   3
   3  -2  10 7.50331 3.51570   2
   3  -2  10 6.95320 3.17611   4
   3  -2  10 7.76109 3.48716   3
  -4   2 -10 35.4717 6.60580   3
   4  -2  10 52.7043 6.81733   2
   4  -2  10 47.1236 5.99396   4
   4  -2  10 53.7329 6.63202   3
  -5   2 -10 2.81760 4.27634   3
   5  -2  10 4.89192 4.12924   4
   5  -2  10 -1.8008 3.69381   3
   5  -2  10 4.10855 4.21109   2
   6   1 -10 9.64583 5.26005   5
   6   1 -10 22.7208 5.05532   1
  -6  -1  10 15.1394 4.89908   3
   5   1 -10 15.8170 4.25837   1
   5   1 -10 14.3770 4.31576   5
  -5  -1  10 18.4811 4.47462   3
   4   1 -10 89.0716 6.43670   1
   4   1 -10 86.6240 6.82844   5
  -4  -1  10 83.4323 7.10533   3
   3   1 -10 48.5966 5.23347   5
   3   1 -10 45.8263 5.33110   1
  -3  -1  10 46.8366 5.47210   3
   2   1 -10 118.592 6.52364   5
   2   1 -10 131.316 6.09015   1
  -2  -1  10 123.744 5.16029   2
  -2  -1  10 133.084 7.28819   3
   1   1 -10 290.565 8.96422   5
   1   1 -10 293.700 8.20696   1
  -1  -1  10 296.742 9.61160   3
  -1  -1  10 307.133 8.02965   2
   0   1 -10 192.510 5.95814   1
   0   1 -10 184.940 6.75864   5
   0  -1  10 181.797 6.57090   2
   0  -1  10 178.970 7.56747   3
  -1   1 -10 14.7886 3.68615   5
   1  -1  10 25.7285 4.58795   3
   1  -1  10 16.0661 3.94865   2
   1  -1  10 12.8744 2.92888   4
  -2   1 -10 265.182 8.03962   5
  -2   1 -10 275.941 9.39069   3
   2  -1  10 276.060 9.49342   3
   2  -1  10 267.703 7.61439   4
   2  -1  10 286.392 8.99286   2
  -3   1 -10 119.442 5.55915   5
  -3   1 -10 116.504 7.31872   3
   3  -1  10 131.370 7.43718   3
   3  -1  10 122.339 6.43080   4
   3  -1  10 131.102 7.34101   2
  -4   1 -10 26.5306 6.07414   3
   4  -1  10 33.9223 6.30175   3
   4  -1  10 21.3746 3.85981   4
   4  -1  10 27.2834 6.14035   2
  -5   1 -10 -2.0385 4.47876   3
   5  -1  10 0.90124 3.92389   4
   5  -1  10 -4.5528 3.71153   2
   5  -1  10 0.98161 4.06049   3
  -6   1 -10 35.8797 9.44108   3
   6  -1  10 44.6548 9.78823   4
   6  -1  10 38.5005 7.57069   2
   6   0 -10 4.09483 4.40759   1
   6   0 -10 -0.3038 4.69124   5
  -6   0  10 3.11548 4.55332   3
   5   0 -10 67.0574 7.14794   1
   5   0 -10 56.4009 7.01970   5
  -5   0  10 65.6912 7.27286   3
   4   0 -10 2.80841 3.39902   1
   4   0 -10 1.37705 3.13635   5
  -4   0  10 9.76147 3.37442   3
   3   0 -10 101.391 6.14059   1
   3   0 -10 105.230 6.30292   5
  -3   0  10 109.283 6.94454   3
  -3   0  10 99.8958 4.81692   2
   2   0 -10 9.90780 2.64159   1
   2   0 -10 10.2530 2.85531   5
  -2   0  10 8.69730 3.23573   3
  -2   0  10 13.5743 3.55375   2
   1   0 -10 112.137 5.26431   1
   1   0 -10 117.729 5.86976   5
  -1   0  10 117.100 5.18087   2
  -1   0  10 115.298 6.23869   3
   0   0 -10 9.76840 2.13983   1
   0   0 -10 10.0564 2.47885   5
   0   0  10 7.19607 1.53710   4
   0   0  10 16.1000 3.72221   2
  -1   0 -10 78.9038 3.76017   1
  -1   0 -10 80.1972 4.72563   5
   1   0  10 70.1039 4.70414   2
   1   0  10 68.1374 5.30140   3
   1   0  10 68.9344 3.77784   4
  -2   0 -10 3.32838 2.75827   3
  -2   0 -10 2.07668 2.24231   5
   2   0  10 2.53256 2.15029   4
   2   0  10 3.69183 2.75415   2
   2   0  10 5.86464 2.78736   3
  -3   0 -10 167.838 7.84838   3
  -3   0 -10 166.603 6.35639   5
   3   0  10 163.310 7.08071   4
   3   0  10 162.470 7.73471   3
   3   0  10 182.153 7.84501   2
  -4   0 -10 207.528 9.21054   3
   4   0  10 214.732 9.08070   2
   4   0  10 220.143 9.23867   3
   4   0  10 211.012 8.35976   4
  -5   0 -10 12.8363 4.65306   3
   5   0  10 34.7612 6.74759   3
   5   0  10 27.2620 6.75757   2
   5   0  10 15.1044 4.28574   4
  -6   0 -10 23.3124 5.66265   3
   6   0  10 32.0630 7.57736   2
   6   0  10 23.7056 5.45074   4
   6  -1 -10 -0.9602 4.22479   1
   6  -1 -10 -1.3175 4.14650   5
  -6   1  10 -0.5949 4.47939   3
   5  -1 -10 1.87269 3.68845   1
   5  -1 -10 0.54275 3.57831   5
  -5   1  10 -0.6514 3.70318   3
   4  -1 -10 56.2993 6.12067   1
   4  -1 -10 50.1477 5.97065   5
  -4   1  10 59.5979 6.33317   3
   3  -1 -10 267.356 8.87715   1
   3  -1 -10 253.609 9.03745   5
  -3   1  10 252.722 9.39210   3
  -3   1  10 256.226 7.47568   2
   2  -1 -10 112.593 5.97192   5
  -2   1  10 111.717 5.12428   2
  -2   1  10 112.092 6.23719   3
   1  -1 -10 271.294 7.79875   1
   1  -1 -10 261.951 8.17049   5
  -1   1  10 269.763 7.68150   2
  -1   1  10 250.037 8.40929   3
   0  -1 -10 78.3341 4.88589   5
   0  -1 -10 87.9603 4.26148   1
   0   1  10 80.6742 4.84273   2
   0   1  10 75.2032 5.23196   3
   0   1  10 81.4676 3.30569   4
  -1  -1 -10 261.186 6.47096   1
  -1  -1 -10 256.279 7.77398   5
   1   1  10 258.725 8.43964   3
   1   1  10 257.225 8.01229   2
   1   1  10 260.390 6.62795   4
  -2  -1 -10 110.979 6.04024   3
  -2  -1 -10 108.304 5.48037   5
   2   1  10 106.996 4.87872   4
   2   1  10 109.675 5.73962   2
   2   1  10 110.460 5.98588   3
  -3  -1 -10 75.2420 5.79961   3
  -3  -1 -10 70.7055 4.89017   5
   3   1  10 77.6354 5.78451   3
   3   1  10 78.1268 5.44966   4
   3   1  10 79.3786 6.41314   2
  -4  -1 -10 318.148 8.63149   5
  -4  -1 -10 315.661 10.6769   3
   4   1  10 311.021 9.84240   4
   4   1  10 315.099 10.5597   2
   4   1  10 309.039 10.5006   3
  -5  -1 -10 180.827 9.26106   3
   5   1  10 180.662 9.09959   3
   5   1  10 177.738 9.32793   2
   5   1  10 200.151 9.38898   4
  -6  -1 -10 47.8464 8.39454   3
   6   1  10 58.3164 9.04704   4
   6   1  10 42.8741 8.14468   2
   6  -2 -10 28.4326 7.27899   1
   6  -2 -10 25.5361 5.05436   5
  -6   2  10 31.1408 7.68931   3
   5  -2 -10 0.19434 3.79047   1
   5  -2 -10 2.98815 3.84350   5
  -5   2  10 2.09730 3.37644   3
   4  -2 -10 372.874 11.1950   5
   4  -2 -10 372.232 11.4980   1
  -4   2  10 376.101 11.5640   3
  -4   2  10 339.488 9.67745   2
   3  -2 -10 805.841 17.8767   1
   3  -2 -10 789.659 17.8792   5
  -3   2  10 807.464 18.1394   3
  -3   2  10 802.169 16.6087   2
   2  -2 -10 275.019 8.35391   1
   2  -2 -10 255.893 8.52696   5
  -2   2  10 242.146 7.68843   2
  -2   2  10 253.397 8.41373   3
   1  -2 -10 3.29578 2.29766   1
   1  -2 -10 0.75058 2.37259   5
  -1   2  10 2.34395 1.48500   4
  -1   2  10 1.38662 2.15556   2
  -1   2  10 -0.8983 2.17691   3
   0  -2 -10 27.6635 3.81759   5
   0  -2 -10 25.3780 3.43532   1
   0   2  10 37.1210 3.95394   2
   0   2  10 24.4416 2.86194   4
   0   2  10 34.8279 4.25493   3
  -1  -2 -10 76.1877 3.82366   1
  -1  -2 -10 65.5407 4.68101   5
   1   2  10 68.9155 4.97647   3
   1   2  10 72.5500 3.93861   4
   1   2  10 75.1058 4.88686   2
  -2  -2 -10 168.944 6.91793   3
  -2  -2 -10 173.146 6.47105   5
   2   2  10 176.355 6.30796   4
   2   2  10 189.050 7.04831   3
   2   2  10 173.717 7.20142   2
  -3  -2 -10 129.832 6.45317   3
  -3  -2 -10 123.666 6.00643   5
   3   2  10 116.357 6.55702   2
   3   2  10 133.724 6.46454   3
   3   2  10 124.560 6.09351   4
  -4  -2 -10 10.6787 2.78556   5
  -4  -2 -10 8.64574 3.34674   3
   4   2  10 6.54900 3.23927   3
   4   2  10 10.8745 3.64743   2
   4   2  10 6.41478 3.19408   4
  -5  -2 -10 184.588 8.77295   3
   5   2  10 195.983 9.33604   4
   5   2  10 195.321 8.90409   2
  -6  -2 -10 1.54773 4.18529   3
   6   2  10 2.28687 4.35883   2
   6   2  10 2.44069 4.97672   4
   6  -3 -10 5.94632 4.17181   5
   6  -3 -10 7.51523 4.55942   1
  -6   3  10 6.35834 4.65981   3
   5  -3 -10 38.2181 6.82136   1
   5  -3 -10 49.1906 6.68898   5
  -5   3  10 32.7201 6.62543   3
   4  -3 -10 15.8007 3.92743   1
   4  -3 -10 12.5071 3.58331   5
  -4   3  10 9.74168 3.44386   2
  -4   3  10 14.8424 3.77788   3
   3  -3 -10 228.420 8.65758   5
   3  -3 -10 230.707 8.93740   1
  -3   3  10 220.814 7.96507   2
  -3   3  10 241.219 8.53895   3
   2  -3 -10 213.793 7.75892   5
   2  -3 -10 204.497 7.54386   1
  -2   3  10 219.203 7.52281   2
  -2   3  10 211.046 7.61016   3
   1  -3 -10 364.774 9.50372   1
   1  -3 -10 353.322 9.93390   5
  -1   3  10 375.227 9.84537   2
  -1   3  10 363.729 8.16153   4
  -1   3  10 360.761 9.83174   3
   0  -3 -10 16.9806 3.75801   5
   0  -3 -10 14.5170 2.40291   1
   0   3  10 14.9996 2.94419   4
   0   3  10 18.3298 3.88716   2
   0   3  10 21.2130 3.62526   3
  -1  -3 -10 594.423 12.2704   1
  -1  -3 -10 596.166 13.6889   5
   1   3  10 598.641 12.6736   4
   1   3  10 608.684 13.5393   3
   1   3  10 592.288 13.9432   2
  -2  -3 -10 1.39906 1.79578   1
  -2  -3 -10 2.84742 2.49889   5
  -2  -3 -10 -0.7884 2.50423   3
   2   3  10 1.83785 2.35486   3
   2   3  10 -0.5482 2.09069   4
   2   3  10 -1.2063 2.44438   2
  -3  -3 -10 118.658 6.06655   5
  -3  -3 -10 129.621 6.62560   3
   3   3  10 130.999 6.11894   4
   3   3  10 121.852 6.78673   2
   3   3  10 124.082 6.33438   3
  -4  -3 -10 59.8350 5.34018   5
  -4  -3 -10 74.9870 6.17287   3
   4   3  10 50.4746 5.75525   4
   4   3  10 55.0180 5.85708   3
   4   3  10 60.0079 5.95374   2
  -5  -3 -10 40.2109 6.22425   3
   5   3  10 35.7325 6.84576   4
   5   3  10 37.7249 6.19047   2
  -6  -3 -10 28.3737 7.17899   3
   6   3  10 27.6228 5.75785   4
   6   3  10 25.4065 5.12350   2
   6  -4 -10 97.5243 8.73039   5
   6  -4 -10 104.452 8.87839   1
  -6   4  10 107.562 9.00636   3
   5  -4 -10 11.4724 4.27785   1
   5  -4 -10 10.6427 3.88334   5
  -5   4  10 5.49168 4.10092   3
  -5   4  10 9.36811 4.22441   2
   4  -4 -10 43.5043 5.83214   5
   4  -4 -10 47.1007 6.42258   1
  -4   4  10 49.9565 5.92698   3
  -4   4  10 38.6343 6.08061   2
   3  -4 -10 1.46489 2.85904   5
   3  -4 -10 1.89400 3.14555   1
  -3   4  10 0.07414 2.81892   3
  -3   4  10 7.29567 3.09261   2
   2  -4 -10 294.657 9.16386   1
   2  -4 -10 302.912 9.62398   5
  -2   4  10 302.438 9.07504   3
  -2   4  10 300.671 9.00443   2
  -2   4  10 294.782 7.57424   4
   1  -4 -10 26.9831 4.38252   5
   1  -4 -10 26.7340 4.13046   1
  -1   4  10 26.1833 3.49785   4
  -1   4  10 16.9549 4.30748   2
  -1   4  10 31.4229 3.82627   3
   0  -4 -10 12.0276 2.80620   5
   0  -4 -10 11.0408 2.58048   1
   0   4  10 14.2830 3.78727   3
   0   4  10 10.9698 2.86351   2
   0   4  10 10.5378 2.33043   4
  -1  -4 -10 3.32775 2.48030   5
  -1  -4 -10 0.41149 2.06732   1
   1   4  10 1.88572 2.27826   3
   1   4  10 -1.3377 2.24537   4
   1   4  10 -1.0400 2.55521   2
  -2  -4 -10 432.889 10.7320   3
  -2  -4 -10 417.618 11.1194   5
  -2  -4 -10 433.631 9.61775   1
   2   4  10 431.125 10.6402   3
   2   4  10 437.569 11.8981   2
   2   4  10 434.666 10.9867   4
  -3  -4 -10 37.3133 4.99308   3
  -3  -4 -10 32.8447 4.58175   5
   3   4  10 28.1344 4.54738   3
   3   4  10 24.3488 4.89401   4
   3   4  10 29.4655 5.15189   2
  -4  -4 -10 12.8811 3.67399   3
  -4  -4 -10 20.1925 5.07078   5
   4   4  10 28.3039 5.14954   3
   4   4  10 18.4237 3.80333   2
   4   4  10 15.3122 3.67675   4
  -5  -4 -10 9.45124 3.66568   5
  -5  -4 -10 7.94968 3.68506   3
   5   4  10 12.6373 4.23506   2
   5   4  10 10.5569 4.43559   4
  -6  -4 -10 -4.5075 4.11213   3
   6   4  10 5.86393 5.36938   4
   6   4  10 11.0258 4.35115   2
   5  -5 -10 6.01982 4.17314   1
   5  -5 -10 2.58722 4.01915   5
  -5   5  10 5.43288 4.08509   2
  -5   5  10 7.55156 4.37127   3
   4  -5 -10 27.9095 6.17006   5
   4  -5 -10 22.0439 4.23281   1
  -4   5  10 27.8693 6.50646   2
  -4   5  10 15.5594 3.68737   3
   3  -5 -10 26.5856 5.54050   5
   3  -5 -10 25.5633 5.72487   1
  -3   5  10 29.0214 5.33370   3
  -3   5  10 27.2724 5.21318   2
  -3   5  10 25.6009 4.24088   4
   2  -5 -10 79.4691 5.99441   1
   2  -5 -10 70.6034 5.80408   5
  -2   5  10 64.2372 4.72347   4
  -2   5  10 81.0111 5.37854   3
  -2   5  10 74.7623 5.68021   2
   1  -5 -10 4.81793 2.95613   5
   1  -5 -10 5.30344 2.82677   1
  -1   5  10 6.00559 2.81498   2
  -1   5  10 7.98399 2.53974   3
  -1   5  10 4.39992 2.34825   4
   0  -5 -10 20.6279 4.15676   1
   0  -5 -10 20.1797 4.24982   5
   0   5  10 17.8820 4.07653   4
   0   5  10 18.2387 4.79734   2
   0   5  10 16.6468 3.70971   3
  -1  -5 -10 58.4449 5.24829   5
  -1  -5 -10 69.6039 4.64546   1
   1   5  10 65.7520 5.06059   4
   1   5  10 57.8957 4.33123   3
   1   5  10 58.9874 5.20311   2
  -2  -5 -10 68.3769 5.40235   5
  -2  -5 -10 65.6372 4.53756   1
  -2  -5 -10 75.2182 4.81765   3
   2   5  10 76.8555 5.28587   4
   2   5  10 77.1162 4.61802   3
   2   5  10 70.7711 6.08433   2
  -3  -5 -10 159.504 6.62012   3
  -3  -5 -10 173.136 7.15073   5
   3   5  10 172.069 6.43098   3
   3   5  10 160.044 7.89617   2
   3   5  10 175.932 7.69474   4
  -4  -5 -10 0.03521 2.98209   3
  -4  -5 -10 10.9952 3.32379   5
   4   5  10 9.46822 3.64933   2
   4   5  10 7.57396 3.75080   4
  -5  -5 -10 49.9479 6.17663   5
   5   5  10 52.7288 8.10690   4
   5   5  10 39.3174 7.07820   2
   6   5  10 24.8491 5.81585   4
   6   5  10 14.6837 4.80236   2
   5  -6 -10 2.62422 4.84605   1
   5  -6 -10 12.9990 4.48539   5
  -5   6  10 10.1851 4.60354   2
  -5   6  10 10.6547 4.43401   3
   4  -6 -10 52.7037 6.95589   5
   4  -6 -10 50.6981 7.04154   1
  -4   6  10 43.9827 6.56145   2
  -4   6  10 35.9729 6.25405   3
   3  -6 -10 282.791 10.1900   5
   3  -6 -10 277.196 10.1137   1
  -3   6  10 295.079 10.1911   2
  -3   6  10 284.658 9.46942   3
  -3   6  10 266.946 8.93886   4
   2  -6 -10 465.589 12.8759   1
   2  -6 -10 471.933 12.8856   5
  -2   6  10 465.719 11.6088   4
  -2   6  10 455.472 11.5548   3
  -2   6  10 469.834 12.7699   2
   1  -6 -10 52.2921 5.66794   5
   1  -6 -10 50.0418 5.26110   1
  -1   6  10 56.9125 4.44737   3
  -1   6  10 51.4580 5.94443   2
  -1   6  10 54.4896 5.31408   4
   0  -6 -10 44.1684 4.95335   1
   0  -6 -10 41.2356 5.64560   5
   0   6  10 37.4287 5.95430   2
   0   6  10 46.8621 5.29110   4
   0   6  10 44.3908 4.00626   3
  -1  -6 -10 10.0341 2.93689   1
  -1  -6 -10 4.50874 3.31108   5
   1   6  10 5.73709 2.20570   3
   1   6  10 6.90769 2.90571   4
   1   6  10 8.69053 3.26961   2
  -2  -6 -10 2.75674 2.54711   1
  -2  -6 -10 0.38158 2.45915   3
  -2  -6 -10 9.59511 3.48835   5
   2   6  10 8.36954 2.50512   3
   2   6  10 5.77663 3.13515   2
   2   6  10 2.91051 2.94867   4
  -3  -6 -10 240.811 8.97317   5
   3   6  10 246.437 9.48962   2
   3   6  10 245.001 9.34555   4
  -4  -6 -10 23.7509 4.04706   5
   4   6  10 39.0865 6.58349   2
   4   6  10 27.7545 5.01046   4
  -5  -6 -10 4.83602 3.71029   5
   5   6  10 0.88655 4.10704   2
   5   6  10 -4.4558 4.49063   4
   5  -7 -10 -3.6427 4.73245   5
   5  -7 -10 5.18624 4.42205   1
  -5   7  10 -7.6883 4.45311   3
  -5   7  10 0.19695 4.91227   2
   4  -7 -10 7.00446 3.60079   4
   4  -7 -10 1.66431 4.06424   1
   4  -7 -10 -0.4356 4.01450   5
  -4   7  10 7.78490 3.78316   3
  -4   7  10 -0.3523 4.15873   2
  -4   7  10 -3.7963 3.94834   4
   3  -7 -10 16.9163 4.20227   1
   3  -7 -10 18.2187 4.20816   5
  -3   7  10 25.2698 6.13031   4
  -3   7  10 21.8032 3.86481   3
  -3   7  10 15.5049 4.29958   2
   2  -7 -10 76.3547 6.68157   1
   2  -7 -10 73.3294 6.81405   5
  -2   7  10 76.0635 5.63057   3
  -2   7  10 71.4272 6.94931   2
  -2   7  10 74.0779 6.39533   4
   1  -7 -10 535.496 14.0523   1
   1  -7 -10 545.363 14.2130   5
  -1   7  10 542.916 13.2847   4
  -1   7  10 528.879 11.8111   3
  -1   7  10 525.855 13.9799   2
   0  -7 -10 74.4319 5.81484   5
   0  -7 -10 81.7803 5.91982   1
   0   7  10 79.6292 5.87009   4
   0   7  10 78.0209 6.67952   2
  -1  -7 -10 99.5109 6.65637   5
  -1  -7 -10 101.554 6.31903   1
   1   7  10 94.1364 6.18248   4
   1   7  10 85.9693 6.35579   2
  -2  -7 -10 74.2037 6.28806   5
  -2  -7 -10 65.3357 5.70169   1
   2   7  10 87.6964 6.38766   4
   2   7  10 75.8461 6.59383   2
  -3  -7 -10 49.0137 6.35700   5
  -3  -7 -10 38.4562 5.68340   1
   3   7  10 48.6352 6.80885   4
   3   7  10 45.2696 6.32860   2
  -4  -7 -10 251.487 9.96022   5
   4   7  10 262.396 10.6786   2
   4   7  10 245.711 11.2431   4
  -5  -7 -10 7.85675 4.42957   5
   5   7  10 6.85729 4.46196   2
   5   7  10 5.61535 5.31774   4
   4  -8 -10 6.85410 4.72958   5
   4  -8 -10 7.35792 4.79988   1
   4  -8 -10 12.3688 4.16820   4
  -4   8  10 14.6959 3.98149   3
  -4   8  10 12.4026 4.29345   4
  -4   8  10 7.34881 5.15226   2
   3  -8 -10 109.786 8.28956   5
   3  -8 -10 96.2281 7.78956   1
  -3   8  10 97.2968 7.33053   4
  -3   8  10 108.914 9.17587   2
   2  -8 -10 38.5054 6.45578   5
   2  -8 -10 36.4856 6.70424   1
  -2   8  10 31.8791 5.05326   2
  -2   8  10 25.9449 6.36107   4
   1  -8 -10 47.4826 6.18877   1
   1  -8 -10 48.9384 6.37591   5
  -1   8  10 54.5461 6.80673   2
  -1   8  10 50.6977 6.33939   4
   0  -8 -10 233.641 9.22385   1
   0  -8 -10 225.743 9.24693   5
   0   8  10 230.028 9.02358   4
   0   8  10 218.763 9.31076   2
  -1  -8 -10 5.71842 3.23843   5
  -1  -8 -10 6.40268 3.39047   1
   1   8  10 13.3569 3.79309   2
   1   8  10 9.89591 3.65185   4
  -2  -8 -10 59.2499 6.20907   1
  -2  -8 -10 47.9361 6.33588   5
   2   8  10 49.7081 6.85192   4
   2   8  10 68.5893 6.58620   2
  -3  -8 -10 298.981 10.9292   5
  -3  -8 -10 282.408 9.91501   1
   3   8  10 287.941 11.0644   2
   3   8  10 303.196 11.6238   4
  -4  -8 -10 26.9698 6.94182   5
   4   8  10 27.1326 5.33611   4
   4   8  10 54.1672 7.77269   2
   3  -9 -10 -1.4966 4.24869   1
   3  -9 -10 3.65436 4.65825   5
  -3   9  10 -1.9305 5.18209   2
  -3   9  10 3.59915 4.20078   4
   2  -9 -10 46.4194 7.25562   1
   2  -9 -10 52.1484 7.79726   5
  -2   9  10 48.6117 6.76696   4
  -2   9  10 31.7063 5.74093   2
   1  -9 -10 144.071 8.62582   1
   1  -9 -10 142.121 8.45844   5
  -1   9  10 145.028 8.02635   4
  -1   9  10 133.323 8.79769   2
   0  -9 -10 5.01725 3.93687   1
   0  -9 -10 8.75492 3.85129   5
   0   9  10 7.38311 3.96235   4
   0   9  10 13.7110 4.14838   2
  -1  -9 -10 23.6437 4.48612   1
  -1  -9 -10 32.9292 6.54789   5
   1   9  10 29.2291 7.18970   4
   1   9  10 29.7200 6.45502   2
  -2  -9 -10 2.06487 3.62802   1
  -2  -9 -10 -0.0553 4.00081   5
   2   9  10 0.70548 3.92172   2
   2   9  10 1.99155 4.26836   4
  -3  -9 -10 -1.6612 3.97379   5
  -3  -9 -10 -3.0141 3.58536   1
   3   9  10 4.68194 4.87859   4
   3   9  10 -2.0539 4.15589   2
  -4  -9 -10 260.293 10.9556   5
   4   9  10 247.706 12.5871   4
   4   9  10 258.231 11.6101   2
   2 -10 -10 0.22299 5.03870   5
   2 -10 -10 0.14794 4.34017   1
  -2  10  10 2.26590 4.92418   4
  -2  10  10 -0.8997 4.84450   2
   1 -10 -10 3.41089 4.19231   5
   1 -10 -10 6.09365 4.27932   1
  -1  10  10 2.55706 4.49816   2
  -1  10  10 5.59733 4.65248   4
   0 -10 -10 136.262 9.15546   1
   0 -10 -10 110.638 8.68161   5
   0  10  10 124.707 9.42798   4
   0  10  10 127.423 9.03275   2
  -1 -10 -10 7.27826 4.25794   1
  -1 -10 -10 4.08753 4.08265   5
   1  10  10 9.04836 5.12699   4
   1  10  10 11.0163 4.45078   2
  -2 -10 -10 1.83404 4.34496   1
  -2 -10 -10 8.90188 4.18729   5
   2  10  10 1.77354 4.27136   2
   2  10  10 6.09686 4.78982   4
  -3 -10 -10 22.3230 4.82270   5
  -3 -10 -10 34.4495 7.64064   1
   3  10  10 31.7427 8.05159   2
   3  10  10 24.3141 5.95900   4
   1 -11 -10 33.8999 7.67361   1
   1 -11 -10 37.2535 9.28907   5
  -1  11  10 68.3091 10.2016   4
   0 -11 -10 0.02409 4.71329   5
   0 -11 -10 -9.7147 4.13978   1
   0  11  10 3.29019 5.34138   4
   0  11  10 0.79297 4.69323   2
  -1 -11 -10 6.31273 4.42536   5
  -1 -11 -10 5.89618 4.67905   1
   1  11  10 1.99601 4.74464   2
   1  11  10 1.37370 5.73458   4
   2   6 -11 72.4261 8.18648   5
   2   6 -11 100.772 8.29254   1
  -2  -6  11 77.4395 10.5060   3
   1   6 -11 70.5504 7.16435   1
   1   6 -11 88.8679 7.90018   5
  -1  -6  11 66.8294 9.75404   3
   0   6 -11 38.5099 7.24137   5
   0  -6  11 22.4022 5.74019   3
  -1   6 -11 0.33710 3.95027   5
  -1   6 -11 4.51261 4.53486   3
   1  -6  11 9.44145 4.00080   2
   1  -6  11 1.48245 5.27447   3
  -2   6 -11 18.3165 4.99284   3
   2  -6  11 4.33639 4.30551   2
   2  -6  11 8.32020 5.51617   3
   3   5 -11 33.9067 5.38657   5
   3   5 -11 46.1482 8.35227   1
  -3  -5  11 50.7932 9.81457   3
   2   5 -11 7.83241 3.96458   1
   2   5 -11 12.8456 4.12029   5
  -2  -5  11 7.46743 4.94423   3
   1   5 -11 4.77834 3.71164   5
   1   5 -11 0.78601 3.67995   1
  -1  -5  11 3.11347 4.80412   3
   0   5 -11 153.488 8.31826   5
   0  -5  11 165.093 10.2767   3
   0  -5  11 140.384 7.15500   2
  -1   5 -11 3.20410 3.34779   5
  -1   5 -11 2.28871 3.79604   3
   1  -5  11 1.10032 4.26897   3
   1  -5  11 9.08850 3.64747   2
  -2   5 -11 20.3388 3.85026   5
  -2   5 -11 21.8231 5.06700   3
   2  -5  11 20.1336 5.05680   3
   2  -5  11 27.4197 6.43267   2
  -3   5 -11 2.87425 4.89881   3
   3  -5  11 0.57191 5.21615   2
   3  -5  11 10.7232 5.16906   3
   4   4 -11 10.5844 4.38686   5
   4   4 -11 11.7836 4.62844   1
  -4  -4  11 6.23669 5.79881   3
   3   4 -11 152.118 8.63641   1
   3   4 -11 125.246 7.95477   5
  -3  -4  11 142.509 9.90353   3
   2   4 -11 88.9513 7.10203   5
   2   4 -11 91.8012 6.69897   1
  -2  -4  11 93.2480 8.41382   3
   1   4 -11 52.3524 6.33580   5
   1   4 -11 58.7783 5.98809   1
  -1  -4  11 63.0030 7.67211   3
   0   4 -11 5.48048 3.45196   5
   0   4 -11 2.73442 2.85888   1
   0  -4  11 -0.2690 3.77060   3
   0  -4  11 4.19883 3.33363   2
  -1   4 -11 24.8587 5.39118   5
   1  -4  11 26.0968 5.77678   2
   1  -4  11 23.6559 4.78307   3
  -2   4 -11 25.3427 4.70378   3
  -2   4 -11 37.5536 5.44876   5
   2  -4  11 32.3115 6.05438   2
   2  -4  11 35.1770 7.24394   3
  -3   4 -11 12.7603 4.27247   3
   3  -4  11 14.6543 4.45552   3
   3  -4  11 6.63642 4.63970   2
  -4   4 -11 -2.9964 4.25349   3
   4  -4  11 1.07858 5.24101   2
   4  -4  11 7.98764 4.68043   3
   4  -4  11 15.0863 4.37304   4
   4   3 -11 19.4406 4.76839   5
   4   3 -11 17.3801 4.47765   1
  -4  -3  11 40.7712 7.76647   3
   3   3 -11 20.5297 4.39564   5
   3   3 -11 21.8959 4.17005   1
  -3  -3  11 19.6445 4.68225   3
   2   3 -11 218.076 8.78313   5
   2   3 -11 205.268 8.76383   1
  -2  -3  11 214.690 9.95072   3
   1   3 -11 27.9024 5.10975   1
   1   3 -11 20.9138 3.80986   5
  -1  -3  11 18.6872 4.11798   3
  -1  -3  11 14.1772 3.09168   2
   0   3 -11 12.3976 2.80752   1
   0   3 -11 11.8138 3.30240   5
   0  -3  11 11.9533 3.80892   3
   0  -3  11 6.90002 3.45279   2
  -1   3 -11 30.8824 5.26019   5
   1  -3  11 35.7583 6.41531   3
   1  -3  11 39.1708 5.70006   2
  -2   3 -11 266.587 10.5860   3
  -2   3 -11 251.619 8.69111   5
   2  -3  11 252.960 9.43592   2
   2  -3  11 261.262 10.5636   3
  -3   3 -11 59.3363 7.74563   3
   3  -3  11 66.0609 7.60826   3
   3  -3  11 55.0891 6.95907   2
   3  -3  11 56.2490 6.46372   4
  -4   3 -11 1.10738 4.55625   3
   4  -3  11 8.45119 4.60306   2
   4  -3  11 1.21256 4.58220   3
   4  -3  11 5.80746 3.70918   4
   5   2 -11 1.31509 5.01658   5
   5   2 -11 -4.6219 4.08564   1
  -5  -2  11 3.99747 4.77293   3
   4   2 -11 7.54286 4.04081   5
   4   2 -11 7.85406 3.76249   1
  -4  -2  11 3.03881 3.96018   3
   3   2 -11 166.936 8.16414   5
   3   2 -11 153.101 7.95360   1
  -3  -2  11 137.851 8.70533   3
   2   2 -11 1.70936 3.06723   5
   2   2 -11 -1.2175 2.96276   1
  -2  -2  11 0.12431 3.25589   3
   1   2 -11 252.961 8.92644   5
   1   2 -11 268.999 8.47935   1
  -1  -2  11 245.097 7.78800   2
  -1  -2  11 276.181 10.0455   3
   0   2 -11 255.067 8.80065   5
   0   2 -11 255.585 7.40551   1
   0  -2  11 252.181 8.52270   2
   0  -2  11 232.035 9.32777   3
  -1   2 -11 2.86267 2.60268   5
   1  -2  11 -0.2636 2.83659   2
   1  -2  11 2.88945 3.30516   3
  -2   2 -11 279.146 8.66208   5
  -2   2 -11 266.561 10.1496   3
   2  -2  11 236.470 7.68043   4
   2  -2  11 270.403 9.51994   2
   2  -2  11 278.243 10.4038   3
  -3   2 -11 14.8244 3.29356   5
  -3   2 -11 16.9034 4.32270   3
   3  -2  11 9.74881 4.19505   2
   3  -2  11 7.91218 3.57998   4
   3  -2  11 11.3713 3.87298   3
  -4   2 -11 -0.5593 4.29356   3
   4  -2  11 -1.2828 4.28244   2
   4  -2  11 2.25559 4.05570   3
   4  -2  11 1.14313 3.43143   4
  -5   2 -11 4.41212 5.30643   3
   5  -2  11 -1.2591 4.26702   2
   5  -2  11 -1.2425 4.77223   3
   5  -2  11 2.93968 4.53849   4
   5   1 -11 82.9050 8.24359   1
   5   1 -11 68.6275 8.47922   5
  -5  -1  11 76.5334 8.62090   3
   4   1 -11 89.7304 7.68796   5
   4   1 -11 85.1520 7.24897   1
  -4  -1  11 87.3599 8.07644   3
   3   1 -11 -1.1014 3.03376   1
   3   1 -11 0.87534 3.26666   5
  -3  -1  11 -2.9681 3.24733   3
   2   1 -11 128.923 6.80232   5
   2   1 -11 122.104 6.45716   1
  -2  -1  11 136.533 7.57349   3
  -2  -1  11 122.272 5.69609   2
   1   1 -11 18.3952 3.28314   1
   1   1 -11 27.5014 5.08893   5
  -1  -1  11 31.2367 5.48354   3
  -1  -1  11 34.9142 4.47314   2
   0   1 -11 63.5416 5.37797   5
   0   1 -11 64.6212 4.39583   1
   0  -1  11 64.3929 5.53342   2
   0  -1  11 55.4787 6.38964   3
  -1   1 -11 1.50474 2.53062   5
   1  -1  11 1.91356 3.33583   3
   1  -1  11 -2.8019 2.53161   2
  -2   1 -11 4.07899 2.87022   5
  -2   1 -11 -2.5033 3.36590   3
   2  -1  11 1.95819 3.43290   3
   2  -1  11 3.72704 2.41442   4
   2  -1  11 2.01485 3.27311   2
  -3   1 -11 253.974 8.20435   5
  -3   1 -11 257.409 10.2224   3
   3  -1  11 261.883 10.0673   2
   3  -1  11 244.669 8.74677   4
   3  -1  11 234.659 9.96626   3
  -4   1 -11 77.3040 8.12617   3
   4  -1  11 72.9447 7.95179   2
   4  -1  11 85.0613 6.71760   4
   4  -1  11 70.6103 7.38945   3
  -5   1 -11 8.68628 5.42875   3
   5  -1  11 13.0990 4.62744   3
   5  -1  11 13.7990 4.66535   4
   5  -1  11 21.2298 5.04229   2
   5   0 -11 0.63431 4.39485   5
   5   0 -11 1.34975 4.06478   1
  -5   0  11 7.48336 4.57157   3
   4   0 -11 30.1424 5.94175   1
   4   0 -11 19.7457 4.36239   5
  -4   0  11 14.5152 4.27489   3
   3   0 -11 4.28584 3.13856   1
   3   0 -11 6.04209 3.26455   5
  -3   0  11 8.48111 3.60165   3
   2   0 -11 906.476 19.8017   5
   2   0 -11 911.309 19.1551   1
  -2   0  11 898.435 18.0981   2
  -2   0  11 930.942 20.3530   3
   1   0 -11 1087.64 21.2723   1
   1   0 -11 1086.77 22.4344   5
  -1   0  11 1082.67 21.3205   2
  -1   0  11 1089.65 23.0972   3
   0   0 -11 3.96406 2.57004   5
   0   0 -11 1.23850 2.28747   1
   0   0  11 4.79260 3.07124   3
   0   0  11 3.70546 2.73857   2
  -1   0 -11 37.3623 4.59274   5
   1   0  11 34.6264 3.47520   4
   1   0  11 43.4573 4.87674   2
   1   0  11 48.0838 5.78402   3
  -2   0 -11 7.92797 2.83689   5
  -2   0 -11 7.46611 3.43514   3
   2   0  11 11.2072 3.55543   2
   2   0  11 7.03880 3.67264   3
   2   0  11 11.7527 2.60723   4
  -3   0 -11 1.50867 2.78369   5
  -3   0 -11 3.29194 3.52267   3
   3   0  11 4.46910 3.48191   2
   3   0  11 0.31012 3.10018   4
   3   0  11 -2.8713 3.23946   3
  -4   0 -11 121.296 8.69586   3
   4   0  11 127.140 8.20544   2
   4   0  11 137.110 8.31145   3
   4   0  11 109.550 6.92220   4
  -5   0 -11 6.70083 5.03882   3
   5   0  11 -0.2687 4.03247   4
   5   0  11 -2.3208 3.95848   3
   5   0  11 -4.6188 3.96719   2
   5  -1 -11 98.8193 8.50788   5
   5  -1 -11 87.6767 7.67556   1
  -5   1  11 111.268 8.60350   3
   4  -1 -11 0.83921 3.43362   1
   4  -1 -11 3.54662 3.70365   5
  -4   1  11 5.30782 3.83493   3
   3  -1 -11 3.45102 3.19108   1
   3  -1 -11 9.90396 3.35328   5
  -3   1  11 2.19264 2.73078   2
  -3   1  11 7.44329 3.41138   3
   2  -1 -11 72.8610 5.81099   5
   2  -1 -11 64.7263 5.47362   1
  -2   1  11 75.9318 6.59493   3
  -2   1  11 70.6971 5.10800   2
   1  -1 -11 7.24671 2.96056   5
   1  -1 -11 9.22288 2.88853   1
  -1   1  11 9.61127 2.85048   2
  -1   1  11 10.4188 3.10932   3
   0  -1 -11 498.785 11.1805   1
   0  -1 -11 493.313 12.4830   5
   0   1  11 500.537 12.1651   2
   0   1  11 476.418 12.7083   3
  -1  -1 -11 -2.2040 2.28006   5
  -1  -1 -11 -0.7700 1.91169   1
   1   1  11 2.35687 2.48536   2
   1   1  11 1.98098 2.82373   3
   1   1  11 -0.7457 2.00110   4
  -2  -1 -11 79.3538 6.23169   3
  -2  -1 -11 73.9255 5.37600   5
   2   1  11 64.5527 4.96116   4
   2   1  11 83.7035 6.15567   3
   2   1  11 72.4924 6.10870   2
  -3  -1 -11 166.872 7.19579   5
  -3  -1 -11 175.502 8.18326   3
   3   1  11 169.105 8.17935   2
   3   1  11 170.741 8.13271   3
   3   1  11 165.824 7.31550   4
  -4  -1 -11 106.583 7.86011   5
  -4  -1 -11 105.074 7.91851   3
   4   1  11 109.925 7.23189   4
   4   1  11 117.691 7.95238   2
   4   1  11 101.057 7.79806   3
  -5  -1 -11 66.5708 8.22457   3
   5   1  11 79.1803 7.70729   2
   5   1  11 78.0618 7.92810   4
   5   1  11 81.2391 7.99501   3
   5  -2 -11 -3.7127 3.91434   1
   5  -2 -11 0.42502 4.55002   5
  -5   2  11 0.95732 3.98772   3
   4  -2 -11 166.677 8.40091   1
   4  -2 -11 171.704 8.74604   5
  -4   2  11 174.356 8.98437   3
   3  -2 -11 136.741 7.12590   1
   3  -2 -11 123.517 7.26284   5
  -3   2  11 125.664 7.32345   3
  -3   2  11 122.404 6.60115   2
   2  -2 -11 99.2325 6.30462   5
   2  -2 -11 96.5171 6.10007   1
  -2   2  11 87.4404 6.43716   3
  -2   2  11 88.0986 5.82862   2
   1  -2 -11 -1.1490 2.51978   1
   1  -2 -11 -1.4806 2.55835   5
  -1   2  11 -5.0286 2.50088   2
  -1   2  11 2.14807 2.71430   3
   0  -2 -11 -2.7189 2.10586   1
   0  -2 -11 -1.8856 2.48987   5
   0   2  11 1.91072 2.60725   3
   0   2  11 -0.3764 2.39373   2
   0   2  11 4.02082 1.85825   4
  -1  -2 -11 6.10841 2.02269   1
  -1  -2 -11 11.1905 2.81051   5
   1   2  11 6.60114 2.91853   3
   1   2  11 7.42364 2.96836   2
   1   2  11 8.40584 2.30235   4
  -2  -2 -11 3.30522 2.68469   5
  -2  -2 -11 5.63845 2.93550   3
   2   2  11 2.60534 2.37641   4
   2   2  11 6.51539 2.97695   3
   2   2  11 7.95330 3.21337   2
  -3  -2 -11 163.619 7.60327   3
  -3  -2 -11 147.434 7.02303   5
   3   2  11 150.545 7.87603   2
   3   2  11 170.184 7.36299   4
   3   2  11 165.202 7.59176   3
  -4  -2 -11 168.283 7.56285   5
  -4  -2 -11 190.269 8.50189   3
   4   2  11 189.239 8.55132   3
   4   2  11 188.741 8.80970   2
   4   2  11 190.859 8.33631   4
  -5  -2 -11 16.0825 4.35582   3
   5   2  11 17.8333 4.67896   4
   5   2  11 11.8756 4.46186   3
   5   2  11 9.46146 4.32272   2
   5  -3 -11 30.6034 7.63056   1
   5  -3 -11 18.0951 4.97223   5
  -5   3  11 21.4522 4.76178   3
   4  -3 -11 13.1219 4.17409   5
   4  -3 -11 35.5306 6.61042   1
  -4   3  11 25.3063 6.43307   2
  -4   3  11 24.5168 6.34948   3
   3  -3 -11 5.23405 3.42209   5
   3  -3 -11 -2.9053 3.15167   1
  -3   3  11 1.39702 3.27977   3
  -3   3  11 2.88386 3.39105   2
   2  -3 -11 54.7649 5.51816   5
   2  -3 -11 61.4605 5.49269   1
  -2   3  11 66.1262 5.41654   2
  -2   3  11 59.9989 5.68603   3
   1  -3 -11 21.8637 4.82775   5
   1  -3 -11 27.4848 4.41341   1
  -1   3  11 32.6023 4.87793   3
  -1   3  11 34.2284 4.66757   2
   0  -3 -11 75.5154 5.64743   5
   0  -3 -11 85.0006 5.00891   1
   0   3  11 85.6335 5.71063   3
   0   3  11 73.5547 4.28227   4
   0   3  11 80.2945 5.54227   2
  -1  -3 -11 52.1430 5.03937   5
  -1  -3 -11 44.9254 4.02964   1
   1   3  11 47.5256 5.31989   3
   1   3  11 44.2282 4.35222   4
   1   3  11 45.1506 5.15208   2
  -2  -3 -11 0.84013 2.83375   3
  -2  -3 -11 -2.9528 2.64524   5
   2   3  11 3.17205 2.90306   3
   2   3  11 -1.0590 2.79849   4
   2   3  11 1.48958 3.03819   2
  -3  -3 -11 21.6005 3.46086   5
  -3  -3 -11 23.1448 5.24841   3
   3   3  11 21.1074 5.47165   3
   3   3  11 22.2650 5.02144   4
   3   3  11 16.5093 3.82913   2
  -4  -3 -11 101.485 6.71485   5
  -4  -3 -11 91.6139 7.11055   3
   4   3  11 116.908 7.02057   4
   4   3  11 123.900 7.47458   3
   4   3  11 107.829 7.27478   2
  -5  -3 -11 233.985 9.61832   3
   5   3  11 241.603 10.7649   4
   5   3  11 233.273 10.4542   2
   5  -4 -11 19.1651 5.05169   5
   5  -4 -11 13.1626 4.94243   1
  -5   4  11 14.6614 4.60778   3
   4  -4 -11 1.52958 3.72471   1
   4  -4 -11 18.2139 4.33287   5
  -4   4  11 9.92148 3.91706   2
  -4   4  11 10.9871 4.21317   3
   3  -4 -11 350.229 11.1021   5
   3  -4 -11 322.074 10.9631   1
  -3   4  11 340.150 10.7531   3
  -3   4  11 343.825 10.4574   2
   2  -4 -11 39.8006 5.10121   1
   2  -4 -11 43.1481 5.58156   5
  -2   4  11 35.1412 5.38761   3
  -2   4  11 34.6128 5.36455   2
   1  -4 -11 314.877 9.38155   1
   1  -4 -11 317.808 10.1377   5
  -1   4  11 306.786 9.43013   3
  -1   4  11 309.057 8.09142   4
  -1   4  11 306.853 9.59269   2
   0  -4 -11 124.184 6.89310   5
   0  -4 -11 133.123 6.00934   1
   0   4  11 135.292 6.42532   3
   0   4  11 116.463 5.50811   4
   0   4  11 131.363 6.75704   2
  -1  -4 -11 155.023 7.26089   5
  -1  -4 -11 160.665 6.06560   1
   1   4  11 150.068 6.34023   4
   1   4  11 155.919 7.83682   2
   1   4  11 161.983 6.88780   3
  -2  -4 -11 63.3791 5.38963   5
  -2  -4 -11 60.4828 5.69036   3
   2   4  11 53.7008 5.32180   3
   2   4  11 50.8243 5.75198   2
   2   4  11 56.6537 5.64659   4
  -3  -4 -11 6.55708 3.39813   3
  -3  -4 -11 -0.5064 3.00152   5
   3   4  11 3.65229 3.04413   4
   3   4  11 -1.0407 3.24805   2
   3   4  11 0.47897 3.04302   3
  -4  -4 -11 16.8810 4.01658   3
  -4  -4 -11 24.8420 5.62648   5
   4   4  11 10.0393 3.96415   4
   4   4  11 17.8184 4.18134   2
   4   4  11 17.2578 3.72605   3
  -5  -4 -11 6.43451 3.93728   3
   5   4  11 9.89280 4.41740   2
   5   4  11 5.77204 4.68938   4
   5  -5 -11 92.3708 9.09523   5
   5  -5 -11 96.2586 8.80312   1
  -5   5  11 77.7402 8.35767   3
  -5   5  11 93.0475 8.05431   2
   4  -5 -11 87.3933 8.07899   5
   4  -5 -11 92.0972 7.70492   1
  -4   5  11 96.9833 7.57781   3
  -4   5  11 91.2053 7.32162   2
   3  -5 -11 17.1421 4.06223   1
   3  -5 -11 24.5714 6.16944   5
  -3   5  11 19.7801 4.13629   2
  -3   5  11 16.9175 4.08404   3
   2  -5 -11 317.804 10.3392   1
   2  -5 -11 323.593 10.5068   5
  -2   5  11 336.544 10.5663   2
  -2   5  11 324.924 9.97168   3
   1  -5 -11 18.1647 3.59823   5
   1  -5 -11 13.3581 3.22703   1
  -1   5  11 24.7595 4.41505   4
  -1   5  11 15.2416 3.16895   3
  -1   5  11 12.5334 3.77102   2
   0  -5 -11 6.48203 2.83311   1
   0  -5 -11 6.40145 3.07660   5
   0   5  11 6.92765 2.66029   4
   0   5  11 2.53128 3.27656   2
   0   5  11 1.70441 2.37686   3
  -1  -5 -11 38.0910 5.63160   5
  -1  -5 -11 27.9272 4.43739   1
   1   5  11 19.9369 4.46568   3
   1   5  11 29.1500 5.45005   2
   1   5  11 23.7789 5.15354   4
  -2  -5 -11 45.0653 4.96143   3
  -2  -5 -11 54.4730 5.82329   5
  -2  -5 -11 57.2377 4.38507   1
   2   5  11 53.6875 5.81601   4
   2   5  11 52.9386 5.99557   2
   2   5  11 48.4396 4.76375   3
  -3  -5 -11 7.30246 3.25607   3
  -3  -5 -11 7.83391 3.32989   5
   3   5  11 5.59709 3.30703   4
   3   5  11 12.5497 3.75713   2
   3   5  11 21.3748 5.12192   3
  -4  -5 -11 45.1964 6.11511   5
  -4  -5 -11 34.2242 5.81471   3
   4   5  11 59.6146 7.33475   4
   4   5  11 41.7493 5.77369   3
   4   5  11 58.3428 6.70561   2
  -5  -5 -11 -4.7709 3.57545   5
   5   5  11 -0.5394 4.32657   2
   5   5  11 -3.2421 4.86816   4
   5  -6 -11 61.2931 8.47106   1
   4  -6 -11 8.96362 4.70531   5
   4  -6 -11 12.6642 3.96765   1
  -4   6  11 6.96554 4.14599   2
  -4   6  11 14.0739 4.09036   3
   3  -6 -11 33.2573 6.88583   5
   3  -6 -11 30.1239 6.06629   1
  -3   6  11 24.3641 4.34812   3
  -3   6  11 32.2231 6.45946   2
   2  -6 -11 143.462 7.85690   1
   2  -6 -11 157.032 8.20631   5
  -2   6  11 146.714 7.18030   4
  -2   6  11 136.507 7.19694   3
  -2   6  11 142.244 7.89960   2
   1  -6 -11 295.006 9.85431   1
   1  -6 -11 303.375 10.4296   5
  -1   6  11 315.497 10.6289   2
  -1   6  11 296.867 9.25564   4
  -1   6  11 302.007 9.20223   3
   0  -6 -11 40.0518 5.54953   5
   0  -6 -11 33.3488 5.21227   1
   0   6  11 40.4007 5.67886   4
   0   6  11 40.0727 4.60716   3
   0   6  11 43.7601 6.04848   2
  -1  -6 -11 14.3169 3.54868   5
  -1  -6 -11 7.08239 3.04050   1
   1   6  11 1.51370 3.21755   2
   1   6  11 3.24052 2.38738   3
   1   6  11 4.07808 3.22631   4
  -2  -6 -11 237.149 7.94857   1
  -2  -6 -11 256.535 9.45844   5
   2   6  11 258.815 9.55876   2
   2   6  11 269.184 9.43614   4
  -3  -6 -11 10.2112 3.56953   5
   3   6  11 14.1070 3.82097   4
   3   6  11 9.06131 3.96802   2
  -4  -6 -11 70.3735 7.18836   5
   4   6  11 65.1416 7.67205   2
   4   6  11 66.0307 7.96830   4
  -5  -6 -11 27.5897 7.27098   5
   5   6  11 31.2430 7.70595   2
   5   6  11 25.7621 6.16734   4
   4  -7 -11 4.74275 4.95909   5
   4  -7 -11 1.93915 4.44896   1
  -4   7  11 3.66307 4.26461   3
  -4   7  11 7.19175 5.03857   2
   3  -7 -11 20.1784 4.49056   1
   3  -7 -11 17.5585 5.08127   5
  -3   7  11 9.12582 3.55554   4
  -3   7  11 11.7726 4.67292   2
  -3   7  11 19.3511 4.07066   3
   2  -7 -11 138.263 8.15462   1
   2  -7 -11 150.860 8.44820   5
  -2   7  11 131.061 8.31144   2
  -2   7  11 134.884 7.75250   4
  -2   7  11 133.345 7.10123   3
   1  -7 -11 27.8877 6.26206   5
   1  -7 -11 18.2356 3.98088   1
  -1   7  11 14.6268 3.90817   2
  -1   7  11 17.4139 3.97957   4
   0  -7 -11 55.3436 5.95395   5
   0  -7 -11 55.2425 6.36482   1
   0   7  11 34.4042 6.32364   2
   0   7  11 49.2312 6.11302   4
  -1  -7 -11 -5.8490 3.13137   5
  -1  -7 -11 0.83766 3.20837   1
   1   7  11 -7.4774 3.28638   4
   1   7  11 3.47132 3.66533   2
  -2  -7 -11 41.0350 5.95210   5
  -2  -7 -11 43.9492 5.91536   1
   2   7  11 56.2288 6.31254   2
   2   7  11 44.2994 6.16352   4
  -3  -7 -11 121.993 8.05157   5
   3   7  11 128.779 8.69659   4
   3   7  11 118.840 8.46765   2
  -4  -7 -11 66.9723 7.96828   5
   4   7  11 53.7939 8.87244   4
   4   7  11 57.3218 7.35613   2
   3  -8 -11 3.34919 4.98988   5
   3  -8 -11 8.42254 4.45545   1
  -3   8  11 6.25249 5.10860   2
  -3   8  11 -4.6943 4.06911   4
   2  -8 -11 20.9162 5.05034   5
   2  -8 -11 28.7360 6.85108   1
  -2   8  11 32.2859 6.29104   4
  -2   8  11 16.3047 5.12925   2
   1  -8 -11 19.2504 4.37504   5
   1  -8 -11 13.2084 4.18559   1
  -1   8  11 22.4957 4.07949   4
  -1   8  11 34.3798 7.19431   2
   0  -8 -11 29.3703 5.96243   5
   0  -8 -11 35.9797 6.69616   1
   0   8  11 39.2853 7.19077   2
   0   8  11 28.9155 6.37549   4
  -1  -8 -11 18.2608 4.10683   5
  -1  -8 -11 23.9106 6.03258   1
   1   8  11 24.1499 6.33033   4
   1   8  11 25.2178 4.66131   2
  -2  -8 -11 9.36078 3.59526   1
  -2  -8 -11 2.57441 3.73326   5
   2   8  11 3.34269 3.99604   4
   2   8  11 0.22834 4.05132   2
  -3  -8 -11 38.9438 7.32699   5
   3   8  11 40.2101 7.70380   2
   3   8  11 23.5815 5.64123   4
  -4  -8 -11 34.1671 5.83799   5
   4   8  11 30.1253 6.59632   4
   4   8  11 38.9153 8.20182   2
   3  -9 -11 39.6395 9.16610   5
   3  -9 -11 42.8628 8.46972   1
  -3   9  11 46.3261 8.14970   4
  -3   9  11 42.2982 9.97564   2
   2  -9 -11 56.8070 8.48696   5
   2  -9 -11 61.2815 7.81692   1
  -2   9  11 49.5929 7.37768   4
  -2   9  11 36.7888 8.34519   2
   1  -9 -11 133.123 8.95621   1
   1  -9 -11 125.661 8.97206   5
  -1   9  11 112.944 9.07667   2
  -1   9  11 133.454 8.21958   4
   0  -9 -11 51.3056 7.50240   1
   0  -9 -11 51.6647 6.96905   5
   0   9  11 72.7870 7.26829   4
   0   9  11 45.1544 7.71863   2
  -1  -9 -11 0.81400 3.66548   5
  -1  -9 -11 2.43316 3.98085   1
   1   9  11 5.75930 4.42315   4
   1   9  11 2.49017 4.29868   2
  -2  -9 -11 6.42638 4.21109   5
  -2  -9 -11 6.87684 4.12659   1
   2   9  11 -1.6781 4.81061   4
   2   9  11 3.14146 4.33941   2
  -3  -9 -11 1.43130 4.20616   5
   3   9  11 3.53864 5.43903   4
   3   9  11 0.83775 4.68160   2
   1 -10 -11 15.7253 4.85787   1
   1 -10 -11 18.4364 5.42731   5
  -1  10  11 16.6279 5.16913   2
  -1  10  11 13.8689 5.20390   4
   0 -10 -11 181.268 10.0239   5
   0 -10 -11 163.255 10.1468   1
   0  10  11 166.530 10.0324   2
   0  10  11 179.633 10.6280   4
  -1 -10 -11 141.577 9.59842   5
  -1 -10 -11 131.271 9.71615   1
   1  10  11 136.379 10.0086   2
   1  10  11 122.683 10.5954   4
  -2 -10 -11 71.3388 8.56885   5
  -2 -10 -11 57.6701 8.38247   1
   2  10  11 57.0182 9.97141   4
   2  10  11 76.4237 8.91945   2
   2   5 -12 28.7219 5.19498   5
   2   5 -12 27.9441 5.15874   1
  -2  -5  12 54.4898 10.0239   3
   1   5 -12 3.11448 4.07300   5
   1   5 -12 3.71661 3.83587   1
  -1  -5  12 -2.2937 5.18683   3
   0   5 -12 45.4796 7.84078   5
   0  -5  12 64.5288 9.41997   3
  -1   5 -12 56.8635 8.55335   3
  -1   5 -12 52.8419 7.82375   5
   1  -5  12 37.4846 9.19778   3
   1  -5  12 48.2444 7.09977   2
  -2   5 -12 12.5220 5.87163   5
  -2   5 -12 15.5843 5.23276   3
   2  -5  12 12.0751 4.82288   2
   2  -5  12 3.05098 4.92148   3
   3   4 -12 -0.0966 4.09954   5
   3   4 -12 1.81416 4.58039   1
  -3  -4  12 -8.5093 5.26487   3
   2   4 -12 74.1094 7.15489   1
   2   4 -12 71.0495 7.60563   5
  -2  -4  12 92.9334 9.66772   3
   1   4 -12 48.3852 6.66466   1
   1   4 -12 44.2625 6.85041   5
  -1  -4  12 39.2263 8.21656   3
   0   4 -12 38.8824 7.10566   5
   0  -4  12 44.5405 6.17950   2
   0  -4  12 48.7604 8.17180   3
  -1   4 -12 33.0864 6.58986   5
   1  -4  12 37.9691 7.85776   3
   1  -4  12 50.4730 6.37480   2
  -2   4 -12 1.79833 3.45566   5
  -2   4 -12 -1.6123 4.15321   3
   2  -4  12 -8.0884 3.93494   2
   2  -4  12 -3.3670 4.12411   3
  -3   4 -12 58.1759 8.49953   3
   3  -4  12 65.6275 8.68423   3
   3  -4  12 55.9158 9.42378   2
   4   3 -12 30.9290 7.56080   5
   4   3 -12 15.2883 4.83379   1
  -4  -3  12 17.4620 5.75821   3
   3   3 -12 77.1933 7.70028   1
   3   3 -12 78.4816 7.62678   5
  -3  -3  12 57.1075 8.85295   3
   2   3 -12 23.4179 4.38508   5
   2   3 -12 33.9282 6.04153   1
  -2  -3  12 41.2430 7.41372   3
   1   3 -12 10.3742 3.49671   1
   1   3 -12 10.1089 3.76392   5
  -1  -3  12 11.3230 4.44905   3
   0   3 -12 37.4466 6.12118   5
   0  -3  12 35.3275 6.35736   2
   0  -3  12 28.6222 6.76327   3
  -1   3 -12 7.05544 3.30465   5
   1  -3  12 1.60011 3.46916   2
   1  -3  12 0.49770 4.15510   3
  -2   3 -12 42.5840 7.36296   3
  -2   3 -12 48.6633 5.94926   5
   2  -3  12 51.9117 7.88503   3
   2  -3  12 45.1423 7.19441   2
  -3   3 -12 4.58257 4.64587   3
   3  -3  12 1.60347 4.65734   3
   3  -3  12 9.40025 4.69254   2
   4   2 -12 15.1308 4.20698   1
   4   2 -12 14.6586 4.79412   5
  -4  -2  12 12.7829 4.92558   3
   3   2 -12 12.6153 4.13748   1
   3   2 -12 -0.0809 3.55706   5
  -3  -2  12 5.34386 4.30828   3
   2   2 -12 217.027 9.15683   5
   2   2 -12 214.681 8.45071   1
  -2  -2  12 199.096 10.1978   3
   1   2 -12 2.79972 3.08559   1
   1   2 -12 1.17149 3.31695   5
  -1  -2  12 -1.4090 3.40384   2
  -1  -2  12 -3.2490 3.50649   3
   0   2 -12 32.6033 5.61217   5
   0  -2  12 27.3204 5.89992   2
   0  -2  12 25.1726 6.28927   3
  -1   2 -12 209.330 8.28653   5
   1  -2  12 215.560 9.79788   3
   1  -2  12 215.488 8.58513   2
  -2   2 -12 41.2160 7.49016   3
  -2   2 -12 51.7143 6.33977   5
   2  -2  12 50.9216 6.97744   3
   2  -2  12 56.0482 6.96207   2
  -3   2 -12 96.8455 8.83594   3
   3  -2  12 95.4486 8.29630   3
   3  -2  12 99.3123 9.01927   2
  -4   2 -12 3.67767 5.38314   3
   4  -2  12 6.62317 5.37383   2
   4  -2  12 3.88146 4.76328   3
   4  -2  12 10.1809 4.26335   4
   4   1 -12 -2.8633 4.16776   1
   4   1 -12 -3.0322 4.33484   5
  -4  -1  12 1.75530 4.50364   3
   3   1 -12 4.47463 3.95994   5
   3   1 -12 4.53369 3.96179   1
  -3  -1  12 9.35153 4.47716   3
   2   1 -12 0.40794 3.18318   5
   2   1 -12 6.82504 3.76379   1
  -2  -1  12 10.5381 4.02856   3
   1   1 -12 208.722 7.86598   1
   1   1 -12 205.442 8.40891   5
  -1  -1  12 201.233 8.07568   2
  -1  -1  12 200.486 9.33173   3
   0   1 -12 2.06322 2.38129   1
   0   1 -12 10.3137 3.34615   5
   0  -1  12 8.90926 3.85703   3
   0  -1  12 10.7593 3.33903   2
  -1   1 -12 -0.7988 2.82172   5
   1  -1  12 -5.3577 3.31982   3
   1  -1  12 1.11635 3.08976   2
  -2   1 -12 18.3986 3.56592   5
  -2   1 -12 16.6903 4.18337   3
   2  -1  12 29.8570 6.41866   2
   2  -1  12 25.3364 4.63724   3
  -3   1 -12 55.9993 8.17019   3
  -3   1 -12 45.5514 6.14329   5
   3  -1  12 49.7183 7.27169   3
   3  -1  12 51.6900 6.10063   4
   3  -1  12 47.6099 7.57477   2
  -4   1 -12 2.55631 4.83343   3
   4  -1  12 5.78495 3.72742   4
   4  -1  12 -0.1278 5.18985   2
   4  -1  12 4.04590 3.99614   3
   5   0 -12 36.4426 8.56217   5
   5   0 -12 28.6544 5.24574   1
  -5   0  12 30.9241 5.81454   3
   4   0 -12 56.4489 7.86601   5
   4   0 -12 56.1519 7.48477   1
  -4   0  12 82.2956 8.18456   3
   3   0 -12 38.0685 6.60310   5
   3   0 -12 46.4168 6.40926   1
  -3   0  12 48.2701 7.13918   3
   2   0 -12 36.7166 5.81855   5
   2   0 -12 41.7856 5.80997   1
  -2   0  12 39.6784 5.63922   2
  -2   0  12 41.8308 6.72192   3
   1   0 -12 313.340 10.3626   5
   1   0 -12 335.847 9.83451   1
  -1   0  12 345.706 11.2085   3
  -1   0  12 312.190 9.85731   2
   0   0 -12 133.175 7.09160   5
   0   0 -12 145.771 5.94919   1
   0   0  12 135.898 7.98708   3
   0   0  12 136.602 7.05684   2
  -1   0 -12 10.2600 3.49691   5
   1   0  12 0.82883 3.22882   2
   1   0  12 1.94577 3.42449   3
  -2   0 -12 -5.3495 3.52158   3
  -2   0 -12 1.89017 2.93008   5
   2   0  12 -1.4042 3.55407   3
   2   0  12 -4.1046 3.44662   2
  -3   0 -12 183.711 7.91839   5
  -3   0 -12 186.970 9.85796   3
   3   0  12 180.443 8.21612   4
   3   0  12 183.607 9.41171   3
   3   0  12 191.384 9.70185   2
  -4   0 -12 111.492 9.41653   3
   4   0  12 114.956 7.48670   4
   4   0  12 104.579 8.69415   3
   4   0  12 93.0570 8.80914   2
  -5   0 -12 -0.1069 5.49623   3
   5   0  12 1.45130 4.60226   4
   5   0  12 6.21758 4.75149   2
   5   0  12 4.32475 4.57463   3
   5  -1 -12 226.189 11.0201   1
   5  -1 -12 226.335 11.4441   5
  -5   1  12 213.914 11.4897   3
   4  -1 -12 0.84459 4.11514   5
   4  -1 -12 4.38947 4.20026   1
  -4   1  12 -1.6705 3.95886   3
   3  -1 -12 81.7316 7.22616   1
   3  -1 -12 102.576 7.32863   5
  -3   1  12 104.343 7.93942   3
   2  -1 -12 76.8548 6.14227   5
   2  -1 -12 66.9053 6.26593   1
  -2   1  12 79.8244 6.08480   2
  -2   1  12 73.6851 6.89516   3
   1  -1 -12 61.2717 6.04712   5
   1  -1 -12 72.3898 5.95389   1
  -1   1  12 75.3709 6.07656   2
  -1   1  12 70.9427 6.55062   3
   0  -1 -12 154.865 7.41784   5
   0  -1 -12 148.818 6.16539   1
   0   1  12 149.702 7.02335   2
   0   1  12 160.412 8.05965   3
  -1  -1 -12 138.977 7.19175   5
   1   1  12 142.542 7.68862   3
   1   1  12 127.822 7.04410   2
  -2  -1 -12 44.2188 6.29644   3
  -2  -1 -12 60.0443 5.92791   5
   2   1  12 69.1381 6.65738   2
   2   1  12 66.1767 6.69467   3
   2   1  12 63.2372 5.49068   4
  -3  -1 -12 0.74712 3.32194   5
  -3  -1 -12 7.64892 4.02037   3
   3   1  12 6.13911 3.91804   3
   3   1  12 10.3897 4.31228   2
   3   1  12 10.3305 3.74299   4
  -4  -1 -12 309.165 12.3073   3
   4   1  12 301.362 10.5600   4
   4   1  12 291.303 11.7528   3
   4   1  12 292.778 11.7023   2
  -5  -1 -12 -3.1987 4.91572   3
   5   1  12 1.99241 4.56276   2
   5   1  12 0.14953 4.35982   3
   5   1  12 3.50404 4.63961   4
   5  -2 -12 0.75066 4.51520   1
   5  -2 -12 -1.0033 5.21958   5
  -5   2  12 -1.4450 4.56875   3
   4  -2 -12 33.5487 7.48005   5
   4  -2 -12 33.4747 6.51725   1
  -4   2  12 38.6145 7.16855   3
   3  -2 -12 -0.1226 3.64472   1
   3  -2 -12 0.96554 3.55140   5
  -3   2  12 0.47900 3.68289   3
  -3   2  12 -2.9855 3.32001   2
   2  -2 -12 27.4217 5.33812   5
   2  -2 -12 24.6844 5.64014   1
  -2   2  12 35.8965 5.64012   2
  -2   2  12 38.4727 6.10811   3
   1  -2 -12 374.794 11.3027   5
   1  -2 -12 369.930 10.5250   1
  -1   2  12 363.833 10.6341   2
  -1   2  12 377.853 11.7152   3
   0  -2 -12 199.967 8.42309   5
   0  -2 -12 218.476 7.15650   1
   0   2  12 215.168 8.20120   2
   0   2  12 209.405 8.65787   3
  -1  -2 -12 21.0701 5.24584   5
   1   2  12 18.9030 3.71623   2
   1   2  12 18.3880 3.76047   3
  -2  -2 -12 -0.9482 3.32640   3
  -2  -2 -12 3.24380 3.07515   5
   2   2  12 3.23639 3.06816   4
   2   2  12 0.38212 3.61722   3
   2   2  12 4.05866 3.44061   2
  -3  -2 -12 37.8899 5.88595   5
  -3  -2 -12 34.0206 5.98383   3
   3   2  12 31.2510 6.43362   2
   3   2  12 38.5731 6.14714   4
   3   2  12 34.3248 6.06099   3
  -4  -2 -12 199.520 8.63353   5
  -4  -2 -12 194.536 9.44932   3
   4   2  12 181.665 9.46196   3
   4   2  12 193.811 9.89603   2
   4   2  12 216.614 9.01534   4
  -5  -2 -12 14.8408 4.94897   3
   5   2  12 10.1971 5.15062   2
   5   2  12 14.4790 5.10060   4
   5   2  12 32.5582 8.36449   3
   5  -3 -12 132.707 9.44472   1
   5  -3 -12 145.112 10.5553   5
  -5   3  12 162.154 9.91437   3
   4  -3 -12 1.46217 4.16586   1
   4  -3 -12 -1.3310 4.23348   5
  -4   3  12 -3.2915 3.99043   3
   3  -3 -12 51.0448 6.81961   1
   3  -3 -12 55.8554 6.71957   5
  -3   3  12 54.5136 6.45788   2
  -3   3  12 45.7872 6.93382   3
   2  -3 -12 11.2658 3.56122   5
   2  -3 -12 18.2424 3.94955   1
  -2   3  12 15.0513 3.56174   2
  -2   3  12 11.8657 3.73935   3
   1  -3 -12 147.230 7.30652   5
   1  -3 -12 140.464 6.99363   1
  -1   3  12 163.989 7.28703   2
  -1   3  12 146.774 7.81065   3
   0  -3 -12 508.419 12.1617   1
   0  -3 -12 519.794 13.4811   5
   0   3  12 518.711 13.2983   3
   0   3  12 505.149 13.3567   2
  -1  -3 -12 47.7682 5.59133   5
   1   3  12 47.0525 5.66468   3
   1   3  12 45.7318 4.83367   4
   1   3  12 60.7639 6.25716   2
  -2  -3 -12 10.8701 3.54180   3
  -2  -3 -12 20.8059 5.42809   5
   2   3  12 12.5412 3.57584   3
   2   3  12 3.51413 3.32194   4
   2   3  12 11.1397 3.62375   2
  -3  -3 -12 -0.7024 3.39976   3
  -3  -3 -12 -5.9584 3.50345   5
   3   3  12 5.87360 3.41009   4
   3   3  12 4.95771 3.85584   2
   3   3  12 1.80961 3.61214   3
  -4  -3 -12 35.6552 6.70287   3
  -4  -3 -12 44.9245 6.41158   5
   4   3  12 36.7313 4.99637   3
   4   3  12 43.1286 7.15839   2
   4   3  12 40.3436 6.35869   4
  -5  -3 -12 40.2432 7.77348   3
   5   3  12 19.3250 5.35318   2
   5   3  12 29.1158 5.57311   3
   5   3  12 19.4941 5.57425   4
   4  -4 -12 188.358 10.1007   5
   4  -4 -12 188.794 9.80638   1
  -4   4  12 182.744 9.97877   3
  -4   4  12 178.520 8.99483   2
   3  -4 -12 78.5245 7.51881   5
   3  -4 -12 66.8148 7.13574   1
  -3   4  12 78.8706 7.02928   3
  -3   4  12 72.5451 6.92544   2
   2  -4 -12 -0.0176 3.13545   1
   2  -4 -12 0.80163 3.29720   5
  -2   4  12 2.87603 3.33017   3
  -2   4  12 -1.1019 3.22549   2
   1  -4 -12 0.32635 3.21009   5
   1  -4 -12 -0.9582 3.03855   1
  -1   4  12 0.15743 3.05401   2
  -1   4  12 -0.2166 3.24395   3
   0  -4 -12 6.58608 2.90034   1
   0  -4 -12 2.93068 3.04928   5
   0   4  12 10.0894 2.47568   4
   0   4  12 5.42043 3.15661   3
   0   4  12 9.43936 3.51659   2
  -1  -4 -12 371.175 9.50131   1
  -1  -4 -12 368.202 11.1222   5
   1   4  12 337.311 9.88497   4
   1   4  12 351.474 10.5288   3
   1   4  12 357.721 11.4467   2
  -2  -4 -12 6.30338 3.33214   5
  -2  -4 -12 6.87609 3.50600   3
   2   4  12 5.70039 3.60127   2
   2   4  12 7.29095 3.52419   3
   2   4  12 3.02306 3.54382   4
  -3  -4 -12 14.6093 3.72012   5
  -3  -4 -12 12.1831 3.94609   3
   3   4  12 15.4646 3.68587   4
   3   4  12 11.3563 4.02696   2
   3   4  12 24.4670 5.72480   3
  -4  -4 -12 24.5105 5.96368   5
  -4  -4 -12 16.3961 4.26353   3
   4   4  12 38.5508 6.48151   3
   4   4  12 15.3483 4.34159   2
   4   4  12 29.5165 6.55599   4
  -5  -4 -12 97.4317 8.28484   3
   5   4  12 102.315 9.71276   4
   5   4  12 97.8847 8.96424   2
   4  -5 -12 -0.5252 4.49207   5
   4  -5 -12 4.13606 4.32921   1
  -4   5  12 -0.2713 4.42296   3
  -4   5  12 5.58074 4.02469   2
   3  -5 -12 14.8332 4.89975   5
   3  -5 -12 17.2496 4.36888   1
  -3   5  12 18.3329 4.26387   2
  -3   5  12 13.2449 3.91760   3
   2  -5 -12 5.72944 3.66876   1
   2  -5 -12 12.6451 3.86562   5
  -2   5  12 12.6959 3.76046   3
  -2   5  12 4.42615 3.77918   2
   1  -5 -12 198.809 8.82679   5
   1  -5 -12 192.769 8.31994   1
  -1   5  12 198.876 8.78156   2
  -1   5  12 195.048 8.37624   3
   0  -5 -12 -2.2593 3.11855   5
   0  -5 -12 3.93788 3.06036   1
   0   5  12 -2.6666 3.12138   4
   0   5  12 0.32373 3.61791   2
   0   5  12 0.18220 3.13944   3
  -1  -5 -12 34.1732 5.66295   5
  -1  -5 -12 40.9048 5.50180   1
   1   5  12 42.5382 6.24615   2
   1   5  12 32.4688 5.79286   4
   1   5  12 38.2591 5.60367   3
  -2  -5 -12 -4.4273 3.34228   5
  -2  -5 -12 0.13892 3.23693   3
   2   5  12 -4.0214 3.27266   4
   2   5  12 -1.2441 3.10807   3
   2   5  12 -2.2078 3.58674   2
  -3  -5 -12 4.51906 3.58615   3
  -3  -5 -12 -2.2760 3.47409   5
   3   5  12 4.91582 4.15052   2
   3   5  12 4.06857 3.43770   3
   3   5  12 3.90099 3.61007   4
  -4  -5 -12 7.33439 4.07005   5
   4   5  12 -0.6169 4.20219   2
   4   5  12 -1.0293 4.21640   4
   4  -6 -12 3.13675 5.35715   5
   4  -6 -12 3.76476 4.68453   1
  -4   6  12 -3.2786 4.65160   3
  -4   6  12 0.34644 4.54085   2
   3  -6 -12 -1.7455 3.86527   1
   3  -6 -12 4.28292 4.63450   5
  -3   6  12 0.49973 3.67442   3
  -3   6  12 -3.1606 3.93150   2
   2  -6 -12 63.2071 7.12522   1
   2  -6 -12 59.8126 7.63049   5
  -2   6  12 61.4435 6.35593   3
  -2   6  12 65.2538 7.76847   2
   1  -6 -12 73.8114 7.08327   5
   1  -6 -12 73.8662 6.69317   1
  -1   6  12 65.2072 6.56931   3
  -1   6  12 68.2252 6.07733   4
  -1   6  12 72.9231 7.61299   2
   0  -6 -12 2.83070 3.57391   5
   0  -6 -12 0.39527 3.29688   1
   0   6  12 3.06430 3.05851   3
   0   6  12 -3.2960 3.57698   2
   0   6  12 2.68984 3.51327   4
  -1  -6 -12 135.532 7.95546   5
  -1  -6 -12 124.292 7.46025   1
   1   6  12 134.207 8.18921   2
   1   6  12 134.522 7.61727   4
  -2  -6 -12 -3.5963 3.39087   5
   2   6  12 1.98967 3.81176   2
   2   6  12 6.58959 3.54088   4
  -3  -6 -12 2.40553 4.03514   5
   3   6  12 0.76869 3.82962   4
   3   6  12 8.74143 4.42473   2
  -4  -6 -12 42.6572 7.04112   5
   4   6  12 34.4822 8.33400   4
   4   6  12 29.9017 5.53263   2
   3  -7 -12 1.63161 4.18755   1
   3  -7 -12 -4.6004 4.51810   5
  -3   7  12 3.79422 3.72786   3
  -3   7  12 3.43760 5.03613   2
   2  -7 -12 125.873 9.02205   5
   2  -7 -12 127.727 8.53288   1
  -2   7  12 138.036 9.55139   3
  -2   7  12 137.507 9.18682   2
   1  -7 -12 42.6409 7.26344   5
   1  -7 -12 33.0781 6.78169   1
  -1   7  12 43.0256 7.66743   2
   0  -7 -12 255.685 10.4556   5
   0  -7 -12 241.632 9.43721   1
   0   7  12 251.736 9.69083   4
   0   7  12 262.625 10.5278   2
  -1  -7 -12 5.63423 3.74882   5
  -1  -7 -12 6.28534 3.54483   1
   1   7  12 1.84294 3.99064   2
   1   7  12 9.79901 3.63357   4
  -2  -7 -12 18.1830 4.26483   5
   2   7  12 20.2861 4.07020   4
   2   7  12 19.2539 4.45567   2
  -3  -7 -12 7.43700 4.37086   5
   3   7  12 2.10090 4.66992   2
   3   7  12 -0.8147 4.55234   4
  -4  -7 -12 56.0962 8.90106   5
   4   7  12 68.6569 9.93905   4
   4   7  12 73.4472 8.98340   2
   3  -8 -12 7.10849 5.76437   5
   3  -8 -12 -7.3373 4.33808   1
  -3   8  12 0.25083 5.79296   2
   2  -8 -12 16.6922 4.93610   1
   2  -8 -12 16.6690 5.30280   5
  -2   8  12 9.68717 4.18685   4
  -2   8  12 16.9270 5.29562   2
   1  -8 -12 153.621 8.95030   5
   1  -8 -12 154.333 9.18917   1
  -1   8  12 148.052 9.66402   2
  -1   8  12 151.895 8.45095   4
   0  -8 -12 46.6569 7.11144   5
   0  -8 -12 66.4933 7.26293   1
   0   8  12 44.6007 8.05814   2
   0   8  12 49.6374 6.80753   4
  -1  -8 -12 -0.9945 3.67636   5
  -1  -8 -12 2.37842 3.80408   1
   1   8  12 8.19591 4.15353   2
   1   8  12 7.32994 3.85291   4
  -2  -8 -12 50.0634 7.11734   5
  -2  -8 -12 55.4292 8.77737   1
   2   8  12 47.2659 8.05717   4
   2   8  12 45.3350 8.12229   2
  -3  -8 -12 42.0779 7.75964   5
   3   8  12 50.4520 8.03836   2
   3   8  12 45.3244 9.15042   4
   2  -9 -12 -1.2021 4.64419   1
   2  -9 -12 -6.8225 4.94850   5
  -2   9  12 3.18154 5.44563   2
  -2   9  12 -0.3363 4.62022   4
   1  -9 -12 7.51597 4.60771   5
   1  -9 -12 0.81241 4.59388   1
  -1   9  12 0.65704 4.31880   4
  -1   9  12 4.46472 5.37175   2
   0  -9 -12 110.000 9.04400   1
   0  -9 -12 115.984 8.65088   5
   0   9  12 98.7222 8.44952   4
   0   9  12 96.3746 8.98698   2
  -1  -9 -12 20.8892 5.00895   1
  -1  -9 -12 16.6573 5.07477   5
   1   9  12 16.5943 5.26135   2
   1   9  12 12.4196 5.07590   4
  -2  -9 -12 33.9223 7.31003   1
  -2  -9 -12 23.2475 5.15805   5
   2   9  12 24.9759 5.73965   4
   2   9  12 36.8332 8.47242   2
   1   4 -13 22.5575 4.80725   5
  -1  -4  13 38.2535 9.00449   3
   0   4 -13 161.504 9.22170   5
   0  -4  13 156.882 10.7990   3
  -1   4 -13 56.0370 7.86341   5
  -1   4 -13 46.4157 7.75824   3
   1  -4  13 47.7089 8.43063   3
   1  -4  13 57.4448 7.87603   2
   2   3 -13 2.55235 4.06245   5
   2   3 -13 0.77502 4.12602   1
  -2  -3  13 1.52420 4.72350   3
   1   3 -13 5.08799 3.86828   5
  -1  -3  13 7.70728 4.81783   3
   0   3 -13 42.0042 6.88653   5
   0  -3  13 39.6098 8.27761   3
   0  -3  13 27.9513 6.78894   2
  -1   3 -13 99.4924 7.70997   5
   1  -3  13 110.671 7.90683   2
   1  -3  13 95.6377 9.40617   3
  -2   3 -13 20.4118 5.25597   3
  -2   3 -13 15.8129 4.25839   5
   2  -3  13 18.2789 5.09901   2
   2  -3  13 12.0984 5.04674   3
   3   2 -13 3.27141 4.13595   5
   3   2 -13 7.90232 4.74621   1
  -3  -2  13 3.10013 4.75764   3
   2   2 -13 0.73803 3.90947   5
   2   2 -13 4.82788 4.06621   1
  -2  -2  13 7.74650 4.65568   3
   1   2 -13 20.2601 4.09649   5
   1   2 -13 34.2685 5.77277   1
  -1  -2  13 40.2370 7.72082   3
   0   2 -13 7.08206 3.63626   5
   0  -2  13 1.35650 4.57055   3
   0  -2  13 4.14510 3.83570   2
  -1   2 -13 6.08097 3.70224   5
   1  -2  13 -4.8579 3.53485   2
   1  -2  13 7.20960 4.43237   3
  -2   2 -13 189.386 8.84717   5
  -2   2 -13 188.608 10.5851   3
   2  -2  13 192.502 10.5804   3
   2  -2  13 181.389 9.98738   2
  -3   2 -13 13.8817 5.52958   3
   3  -2  13 9.32076 5.50988   2
   3  -2  13 8.46677 4.83536   3
   3   1 -13 9.64828 4.56856   1
   3   1 -13 31.9163 7.07477   5
  -3  -1  13 12.5317 5.11502   3
   2   1 -13 63.5283 7.05464   1
   2   1 -13 77.2315 7.19944   5
  -2  -1  13 65.8764 8.28178   3
   1   1 -13 189.345 8.74532   5
   1   1 -13 162.363 7.56512   1
  -1  -1  13 174.828 9.64854   3
  -1  -1  13 177.241 8.49637   2
   0   1 -13 152.552 8.07266   5
   0  -1  13 154.569 9.19674   3
   0  -1  13 154.497 7.88512   2
  -1   1 -13 36.5512 6.07184   5
   1  -1  13 33.3015 6.78057   3
   1  -1  13 40.6596 6.31616   2
  -2   1 -13 10.7710 4.87189   3
  -2   1 -13 11.9127 3.69987   5
   2  -1  13 14.6321 4.62457   3
   2  -1  13 9.02912 4.67464   2
  -3   1 -13 3.87931 5.36284   3
   3  -1  13 -0.4508 5.00217   2
   3  -1  13 5.03732 4.59311   3
   4   0 -13 -1.6164 4.38669   5
   4   0 -13 -7.5371 4.21255   1
  -4   0  13 2.27510 4.78053   3
   3   0 -13 4.96500 3.82419   5
   3   0 -13 -1.5190 3.90810   1
  -3   0  13 10.2340 4.52340   3
   2   0 -13 106.100 7.41217   5
  -2   0  13 103.141 8.65800   3
   1   0 -13 -0.8034 3.19132   5
   1   0 -13 2.28611 3.48741   1
  -1   0  13 3.28285 3.65193   2
  -1   0  13 2.98437 3.99818   3
   0   0 -13 5.08842 3.55169   5
   0   0  13 10.5438 4.22129   3
   0   0  13 5.97260 3.39044   2
  -1   0 -13 66.6578 6.73906   5
   1   0  13 66.7013 7.19725   3
   1   0  13 65.1836 6.95673   2
  -2   0 -13 149.310 9.47782   3
  -2   0 -13 155.559 7.69263   5
   2   0  13 165.483 8.99451   2
   2   0  13 151.028 9.12379   3
  -3   0 -13 23.1773 4.23802   5
  -3   0 -13 22.7573 5.56082   3
   3   0  13 29.1573 5.61588   2
   3   0  13 28.1022 7.51032   3
  -4   0 -13 7.49283 5.75278   3
   4   0  13 2.29261 5.04232   2
   4   0  13 2.39623 4.51103   4
   4   0  13 -1.6229 4.44143   3
   4  -1 -13 16.7955 5.27591   5
   4  -1 -13 13.1318 4.89460   1
  -4   1  13 11.0420 5.04409   3
   3  -1 -13 16.8573 4.41139   5
   3  -1 -13 13.8565 4.45969   1
  -3   1  13 11.4848 4.55109   3
   2  -1 -13 5.03933 3.86181   5
   2  -1 -13 5.62573 3.37858   1
  -2   1  13 2.74586 3.64135   3
  -2   1  13 -0.4053 3.81323   2
   1  -1 -13 381.684 11.1717   1
   1  -1 -13 400.786 12.2207   5
  -1   1  13 397.801 12.7631   3
  -1   1  13 380.226 11.4990   2
   0  -1 -13 27.3842 5.92693   5
   0   1  13 42.3775 6.87093   3
   0   1  13 36.8675 5.70583   2
  -1  -1 -13 63.5010 6.78818   5
   1   1  13 61.7770 7.18359   3
   1   1  13 59.1673 6.79885   2
  -2  -1 -13 -1.1363 3.48231   5
  -2  -1 -13 -0.5057 3.91355   3
   2   1  13 7.32105 4.35106   3
   2   1  13 -2.6870 4.25666   2
  -3  -1 -13 66.6816 8.61810   3
  -3  -1 -13 91.2196 6.89858   5
   3   1  13 81.4790 8.08963   3
   3   1  13 70.4108 8.60336   2
   3   1  13 57.8368 7.81216   4
  -4  -1 -13 5.18067 5.15767   3
   4   1  13 -0.0232 5.06070   2
   4   1  13 -8.1902 4.48222   3
   4   1  13 1.57512 4.29040   4
   4  -2 -13 0.50518 4.24832   1
   4  -2 -13 -4.9563 4.82588   5
  -4   2  13 4.21244 4.51753   3
   3  -2 -13 10.1957 4.38006   1
   3  -2 -13 8.82268 3.82460   5
  -3   2  13 0.32035 4.01870   3
   2  -2 -13 12.1196 4.11101   5
   2  -2 -13 15.1632 3.90967   1
  -2   2  13 11.3618 3.78278   2
  -2   2  13 28.8269 7.02640   3
   1  -2 -13 16.9189 3.85992   5
   1  -2 -13 16.7466 3.79199   1
  -1   2  13 23.8360 5.98299   2
  -1   2  13 40.1229 6.49923   3
   0  -2 -13 34.8816 5.27649   1
   0  -2 -13 41.3709 6.09716   5
   0   2  13 43.5822 6.71846   3
   0   2  13 43.5099 6.19563   2
  -1  -2 -13 23.3810 6.07574   5
   1   2  13 24.5129 6.13847   3
   1   2  13 17.4614 4.37394   2
  -2  -2 -13 -2.4234 3.48208   3
  -2  -2 -13 1.19747 3.45533   5
   2   2  13 -0.8783 3.75025   3
   2   2  13 -1.1388 3.93078   2
  -3  -2 -13 112.328 8.56006   3
  -3  -2 -13 111.365 7.58003   5
   3   2  13 109.741 7.93494   4
   3   2  13 119.565 8.47901   3
   3   2  13 115.258 8.96013   2
  -4  -2 -13 33.3164 8.73776   3
   4   2  13 16.3739 4.75941   4
   4   2  13 29.2347 7.70039   2
   4   2  13 18.6652 5.44727   3
   4  -3 -13 164.004 10.8234   5
   4  -3 -13 172.538 10.0799   1
  -4   3  13 144.386 9.70636   3
   3  -3 -13 31.9114 7.52035   1
   3  -3 -13 37.2511 7.36327   5
  -3   3  13 32.5032 6.72807   2
  -3   3  13 19.6347 5.03290   3
   2  -3 -13 16.2517 4.09537   1
   2  -3 -13 13.8688 4.16249   5
  -2   3  13 16.6543 3.84579   2
  -2   3  13 17.3984 4.40099   3
   1  -3 -13 48.7321 6.35573   5
   1  -3 -13 46.1496 6.04728   1
  -1   3  13 41.6578 6.07399   2
  -1   3  13 52.3377 6.65932   3
   0  -3 -13 94.5939 7.15297   5
   0  -3 -13 76.8635 6.13618   1
   0   3  13 110.520 7.19363   3
   0   3  13 88.0877 7.15988   2
  -1  -3 -13 197.135 8.79110   5
   1   3  13 209.701 9.04831   3
   1   3  13 200.339 9.46064   2
  -2  -3 -13 14.3883 3.88961   5
  -2  -3 -13 10.9406 3.72288   3
   2   3  13 15.7862 4.04602   3
   2   3  13 14.1577 3.58430   4
   2   3  13 11.7275 4.37938   2
  -3  -3 -13 1.46057 3.70701   3
  -3  -3 -13 5.69095 3.84487   5
   3   3  13 3.48509 3.82421   4
   3   3  13 3.18863 3.99467   3
   3   3  13 3.02103 4.20260   2
  -4  -3 -13 58.6225 7.08308   5
  -4  -3 -13 55.3332 8.13358   3
   4   3  13 52.2474 7.66340   4
   4   3  13 60.2369 7.94024   2
   4   3  13 52.6473 8.07696   3
   4  -4 -13 118.097 10.3401   5
   4  -4 -13 95.9427 8.76309   1
  -4   4  13 114.822 9.31417   3
   3  -4 -13 -1.5930 4.26566   1
   3  -4 -13 4.67288 4.67243   5
  -3   4  13 -4.4453 4.16160   3
  -3   4  13 2.04425 3.93032   2
   2  -4 -13 48.1044 6.69288   1
   2  -4 -13 61.9265 7.16355   5
  -2   4  13 65.3059 6.52274   2
  -2   4  13 51.7928 7.26864   3
   1  -4 -13 9.19907 3.97175   5
   1  -4 -13 1.82489 3.74920   1
  -1   4  13 6.92220 3.76967   2
  -1   4  13 4.53502 3.50774   3
   0  -4 -13 219.154 9.24194   5
   0  -4 -13 225.689 8.38963   1
   0   4  13 216.766 9.66966   2
   0   4  13 215.163 9.31968   3
  -1  -4 -13 -2.0229 3.48483   5
   1   4  13 0.22916 4.04098   2
   1   4  13 -0.2997 3.48428   3
  -2  -4 -13 8.42454 3.80810   5
  -2  -4 -13 10.1683 3.82039   3
   2   4  13 13.9159 4.68778   2
   2   4  13 1.38010 3.68984   4
   2   4  13 10.0514 4.30950   3
  -3  -4 -13 103.105 7.55167   5
  -3  -4 -13 103.063 7.60903   3
   3   4  13 101.137 7.54118   3
   3   4  13 93.0247 7.88190   2
   3   4  13 94.9372 7.30091   4
  -4  -4 -13 3.44756 4.11392   5
  -4  -4 -13 2.82304 4.34425   3
   4   4  13 -1.9252 4.36164   2
   4   4  13 6.62761 4.27459   3
   4   4  13 7.00428 4.51257   4
   3  -5 -13 9.55424 4.59817   1
   3  -5 -13 7.15529 4.94512   5
  -3   5  13 7.85643 4.42001   3
  -3   5  13 2.28321 4.40161   2
   2  -5 -13 16.1270 4.65610   5
   2  -5 -13 32.0135 6.96184   1
  -2   5  13 20.9059 4.63037   2
  -2   5  13 27.5624 6.72546   3
   1  -5 -13 101.767 7.26566   1
   1  -5 -13 90.1769 7.80301   5
  -1   5  13 89.7714 7.45533   3
  -1   5  13 75.4873 7.59509   2
   0  -5 -13 340.768 10.4849   1
   0  -5 -13 332.583 11.4235   5
   0   5  13 350.917 10.7553   3
   0   5  13 339.506 11.9657   2
  -1  -5 -13 144.466 8.10385   5
   1   5  13 134.029 7.72629   3
   1   5  13 149.317 7.82074   4
   1   5  13 156.671 9.33088   2
  -2  -5 -13 11.0807 4.04347   3
  -2  -5 -13 6.89798 3.99177   5
   2   5  13 5.07476 4.42248   2
   2   5  13 6.63808 4.02805   4
   2   5  13 7.84302 3.70776   3
  -3  -5 -13 15.4121 4.56482   5
   3   5  13 9.84971 4.50171   2
   3   5  13 11.5848 4.12550   4
  -4  -5 -13 22.7841 4.94140   5
   4   5  13 21.9620 5.38053   4
   4   5  13 34.4228 7.70303   2
   3  -6 -13 45.9257 9.27411   5
   3  -6 -13 47.5687 7.69833   1
  -3   6  13 39.3350 7.97696   3
  -3   6  13 32.3447 8.29958   2
   2  -6 -13 5.49166 4.27125   1
   2  -6 -13 10.8062 4.73622   5
  -2   6  13 1.73476 3.84235   3
  -2   6  13 4.58978 5.10023   2
   1  -6 -13 -0.8944 3.72243   1
   1  -6 -13 -5.1957 3.88122   5
  -1   6  13 -0.6439 3.34245   3
  -1   6  13 1.52008 4.40604   2
   0  -6 -13 5.22966 3.78230   1
   0  -6 -13 1.21120 3.95747   5
   0   6  13 -2.9151 3.72616   3
   0   6  13 -0.7990 4.53763   2
  -1  -6 -13 273.839 10.8014   5
   1   6  13 278.961 11.4271   2
   1   6  13 255.831 10.1403   4
  -2  -6 -13 151.101 8.84988   5
   2   6  13 140.298 9.40507   2
   2   6  13 165.437 8.42875   4
  -3  -6 -13 3.84299 4.49265   5
   3   6  13 -9.6356 4.45737   2
   3   6  13 -6.3220 4.22868   4
   2  -7 -13 94.2197 8.66791   1
   2  -7 -13 114.014 9.76939   5
  -2   7  13 119.113 9.98292   2
   1  -7 -13 39.6211 7.29628   1
   1  -7 -13 28.2654 7.42086   5
  -1   7  13 34.4732 8.32504   2
   0  -7 -13 10.4093 4.67263   5
   0  -7 -13 30.1418 6.82763   1
   0   7  13 2.99886 4.34660   2
   0   7  13 9.86208 4.47432   4
  -1  -7 -13 7.96644 3.99436   5
  -1  -7 -13 1.15830 3.96695   1
   1   7  13 4.32662 4.61874   2
   1   7  13 1.32855 3.84144   4
  -2  -7 -13 -5.9970 3.75301   5
   2   7  13 5.54691 4.77816   2
   2   7  13 3.15006 4.28809   4
  -3  -7 -13 63.4458 8.50444   5
   3   7  13 36.2567 5.93864   4
   3   7  13 44.5683 8.08304   2
   1  -8 -13 4.00192 4.42351   5
   1  -8 -13 4.78469 4.80191   1
  -1   8  13 5.01748 5.53729   2
   0  -8 -13 17.5344 4.98054   1
   0  -8 -13 14.4197 5.08027   5
   0   8  13 19.7341 4.63967   4
   0   8  13 20.5670 5.71150   2
  -1  -8 -13 10.1567 4.76666   5
  -1  -8 -13 5.55219 4.32371   1
   1   8  13 6.30549 4.78858   2
   1   8  13 11.5248 4.41177   4
  -2  -8 -13 46.6520 7.81559   5
   2   8  13 37.3207 8.44583   4
   2   8  13 28.6610 7.57212   2
   1   2 -14 28.6398 7.26187   5
  -1  -2  14 47.1433 9.19575   3
   0  -2  14 33.9427 8.89640   3
   0  -2  14 32.7795 7.17701   2
  -1   2 -14 151.478 9.39193   5
   1  -2  14 159.673 9.73627   2
   1  -2  14 155.375 10.1126   3
   2   1 -14 4.51079 4.32768   1
   2   1 -14 5.46789 4.44788   5
  -2  -1  14 4.39458 5.01736   3
   1   1 -14 2.74115 3.89170   5
  -1  -1  14 1.80560 4.53938   3
   0   1 -14 56.0169 7.18867   5
   0  -1  14 33.8404 7.78604   3
   0  -1  14 36.1236 7.01717   2
  -1   1 -14 262.789 11.0089   5
   1  -1  14 253.016 10.7717   2
   1  -1  14 273.316 12.0096   3
  -2   1 -14 62.1636 7.90257   5
  -2   1 -14 59.6424 10.0347   3
   2  -1  14 47.4782 8.52489   3
   2  -1  14 63.7337 9.81312   2
   2   0 -14 31.7047 7.54144   5
   2   0 -14 30.0371 7.07252   1
  -2   0  14 19.1162 5.12559   3
   1   0 -14 -0.0380 3.78128   5
  -1   0  14 -3.2449 3.92070   2
  -1   0  14 6.22812 4.18400   3
   0   0 -14 38.5641 6.84776   5
   0   0  14 29.7650 4.73746   2
   0   0  14 25.1529 5.18503   3
  -1   0 -14 9.62574 4.25123   5
   1   0  14 13.5895 4.65877   2
   1   0  14 15.4966 4.85500   3
  -2   0 -14 60.3243 7.67144   5
  -2   0 -14 76.0517 9.65053   3
   2   0  14 69.7849 8.31364   3
   2   0  14 70.8082 9.30500   2
   3  -1 -14 3.42074 4.82535   1
   3  -1 -14 0.17491 4.34012   5
  -3   1  14 3.47769 4.57768   3
   2  -1 -14 77.4428 8.20044   5
   2  -1 -14 74.1122 7.68782   1
  -2   1  14 80.6368 8.77216   3
   1  -1 -14 7.58863 3.97554   5
   1  -1 -14 3.80661 3.98750   1
  -1   1  14 7.49476 3.92095   2
  -1   1  14 -1.6306 4.12126   3
   0  -1 -14 34.1414 6.58665   5
   0   1  14 27.5822 6.68890   2
   0   1  14 59.0079 7.98119   3
  -1  -1 -14 4.70434 4.00491   5
   1   1  14 8.91669 4.39917   2
   1   1  14 -2.4779 4.30393   3
  -2  -1 -14 -0.5729 4.16417   5
  -2  -1 -14 -0.5566 4.95968   3
   2   1  14 2.62071 4.57325   3
   2   1  14 3.07688 5.17398   2
  -3  -1 -14 73.1324 10.1978   3
  -3  -1 -14 63.3629 7.68526   5
   3   1  14 67.3293 9.82082   2
   3   1  14 38.2820 8.28419   3
   3  -2 -14 12.0946 5.30967   1
   3  -2 -14 15.4614 4.86021   5
  -3   2  14 10.3243 4.96101   3
   2  -2 -14 44.3515 7.58575   1
   2  -2 -14 42.4495 7.67045   5
  -2   2  14 36.3559 5.84017   3
  -2   2  14 36.1707 6.85910   2
   1  -2 -14 -2.2895 3.65990   5
   1  -2 -14 3.54050 3.83893   1
  -1   2  14 -0.0839 4.53527   3
  -1   2  14 3.44732 3.79770   2
   0  -2 -14 32.6923 6.58248   5
   0   2  14 37.2146 6.73550   2
   0   2  14 43.2312 7.67723   3
  -1  -2 -14 10.7555 4.42671   5
   1   2  14 12.9966 4.59881   3
   1   2  14 7.93824 4.81869   2
  -2  -2 -14 141.885 8.72806   5
  -2  -2 -14 140.777 9.57835   3
   2   2  14 134.554 9.61450   2
   2   2  14 156.587 9.96904   3
  -3  -2 -14 -3.1864 4.68314   3
  -3  -2 -14 4.97461 4.42024   5
   3   2  14 5.85789 4.97361   3
   3   2  14 -3.8561 5.41302   2
   3  -3 -14 2.14645 4.94361   1
   3  -3 -14 5.24806 4.73175   5
  -3   3  14 3.53446 4.86418   3
   2  -3 -14 53.0950 7.20279   1
   2  -3 -14 40.3829 7.78561   5
  -2   3  14 56.6094 6.80039   2
  -2   3  14 79.0393 8.92370   3
   1  -3 -14 15.6230 4.14368   5
   1  -3 -14 17.2484 3.94660   1
  -1   3  14 10.0593 4.07477   2
  -1   3  14 12.6455 4.52032   3
   0  -3 -14 133.396 8.27287   5
   0   3  14 144.968 9.27352   3
   0   3  14 146.028 8.80828   2
  -1  -3 -14 23.7521 4.63306   5
   1   3  14 35.2933 7.95204   2
   1   3  14 27.6857 7.21625   3
  -2  -3 -14 60.7638 7.67162   5
  -2  -3 -14 71.8873 7.84054   3
   2   3  14 69.3157 8.29334   2
   2   3  14 56.5519 7.96271   3
  -3  -3 -14 68.7993 8.19878   5
  -3  -3 -14 71.1312 8.29883   3
   3   3  14 51.7374 8.70708   3
   3   3  14 76.3127 9.26188   2
   3  -4 -14 39.8054 8.75696   5
   3  -4 -14 45.6509 8.67628   1
   2  -4 -14 7.37383 4.64745   5
   2  -4 -14 6.05973 4.36735   1
  -2   4  14 12.2824 4.93711   3
  -2   4  14 5.43849 4.28242   2
   1  -4 -14 0.59255 4.43027   5
   1  -4 -14 -0.1754 3.73167   1
  -1   4  14 -0.8516 4.12907   3
  -1   4  14 6.42563 4.40530   2
   0  -4 -14 86.0944 7.64068   5
   0   4  14 85.1651 8.45013   2
   0   4  14 80.4868 7.58102   3
  -1  -4 -14 124.087 8.40416   5
   1   4  14 121.556 9.44975   2
   1   4  14 136.948 8.53285   3
  -2  -4 -14 10.9552 4.50111   5
  -2  -4 -14 10.8913 4.02829   3
   2   4  14 4.66114 5.13174   2
   2   4  14 4.84179 4.34365   3
  -3  -4 -14 1.98044 4.83184   5
  -3  -4 -14 -0.0138 4.49849   3
   3   4  14 4.29895 4.86794   2
   3   4  14 2.38009 4.18963   4
   3   4  14 5.89690 4.56442   3
   2  -5 -14 32.7405 7.40666   5
   2  -5 -14 23.6367 5.31572   1
  -2   5  14 27.5581 5.49418   2
  -2   5  14 48.3567 8.47575   3
   1  -5 -14 -1.7298 4.21282   5
   1  -5 -14 0.41774 4.05409   1
  -1   5  14 5.59430 4.92951   2
  -1   5  14 2.32210 4.22605   3
   0  -5 -14 13.4135 6.49657   1
   0  -5 -14 4.47409 4.28297   5
   0   5  14 14.8953 4.40305   3
   0   5  14 12.8693 5.31801   2
  -1  -5 -14 38.1976 7.07285   5
   1   5  14 50.2762 6.72946   3
   1   5  14 32.0442 5.88471   2
  -2  -5 -14 12.6218 4.62359   5
   2   5  14 3.97209 5.61307   2
   2  -6 -14 -4.0897 4.99898   1
   2  -6 -14 4.89747 4.87769   5
  -2   6  14 -2.6621 5.55136   2
  -2   6  14 6.27526 4.80835   3
   1  -6 -14 4.86433 4.53641   5
   1  -6 -14 1.42664 4.32912   1
  -1   6  14 5.67743 5.44034   2
  -1   6  14 7.46624 4.61484   3
   0  -6 -14 31.4814 7.57944   5
   0  -6 -14 34.6148 6.66377   1
   0   6  14 19.6460 5.44847   2
  -1  -6 -14 11.4852 4.55202   5
   1   6  14 13.7561 5.70301   2
  -2  -6 -14 66.7187 7.92725   5
   2   6  14 63.6452 9.21986   2
   2   6  14 47.2965 7.87238   4
   0  -7 -14 41.7969 8.49185   5
   0  -7 -14 44.6155 7.83222   1
   0   7  14 42.0105 9.49655   2
  -1  -7 -14 45.8980 7.96101   5
   1   7  14 45.8340 9.09552   2
   1  -1 -15 -1.4478 4.63035   5
   0  -1 -15 16.2046 4.91562   5
   0   1  15 13.8162 5.25325   2
   0   1  15 16.6659 5.28668   3
  -1  -1 -15 4.51771 4.71426   5
   1   1  15 2.22472 5.65106   2
   1   1  15 1.55829 4.86445   3
   1  -2 -15 8.45982 4.63092   5
  -1   2  15 1.08454 4.85085   3
  -1   2  15 3.50900 4.69108   2
   0  -2 -15 18.1843 5.07147   5
   0   2  15 12.7428 5.09782   3
   0   2  15 12.6923 4.94339   2
  -1  -2 -15 8.02556 4.72943   5
   1   2  15 5.77458 4.77709   3
   1   2  15 1.66864 5.42224   2
   1  -3 -15 37.1937 7.85140   5
  -1   3  15 36.7657 8.26299   2
  -1   3  15 47.6977 9.28524   3
   0  -3 -15 2.96081 4.48463   5
   0   3  15 6.66631 5.20912   2
   0   3  15 0.51270 5.01448   3
  -1  -3 -15 -0.5460 4.27812   5
   1   3  15 1.31015 5.65103   2
   1   3  15 2.51222 5.03767   3
   0  -4 -15 -0.4025 4.34364   5
   0   4  15 6.78734 5.11662   3
   0   4  15 1.63362 5.64131   2
  -1  -4 -15 49.5320 8.18710   5
   1   4  15 73.6117 8.89006   3
   1   4  15 71.4840 9.81365   2
   0   0   0    0.00    0.00   0

 _exptl_absorpt_process_details
)
 SADABS 2016/2: Krause, L., Herbst-Irmer, R., Sheldrick G.M. & Stalke D.,
 J. Appl. Cryst. 48 (2015) 3-10
)
 _exptl_absorpt_correction_type   numerical
 _exptl_absorpt_correction_T_max  0.9014
 _exptl_absorpt_correction_T_min  0.7824
 _exptl_special_details
)
 The following wavelength and cell were deduced by SADABS from the
 direction cosines etc. They are given here for emergency use only:
 CELL 0.71088    6.768   10.352   12.168   78.889   89.445   88.146
)
;
_shelx_hkl_checksum              58268
_olex2_submission_special_instructions 'No special instructions were received'
loop_
_space_group_symop_operation_xyz
'x, y, z'
'-x, -y, -z'
loop_
_atom_site_label
_atom_site_type_symbol
_atom_site_fract_x
_atom_site_fract_y
_atom_site_fract_z
_atom_site_U_iso_or_equiv
_atom_site_adp_type
_atom_site_occupancy
_atom_site_site_symmetry_order
_atom_site_calc_flag
_atom_site_refinement_flags_posn
_atom_site_refinement_flags_adp
_atom_site_refinement_flags_occupancy
_atom_site_disorder_assembly
_atom_site_disorder_group
Cr1 Cr 0.17052(5) 0.31946(3) 0.79506(3) 0.02681(9) Uani 1 1 d . . . . .
Cl1 Cl -0.06257(8) 0.44832(6) 0.67760(5) 0.04010(14) Uani 1 1 d . . . . .
Cl2 Cl -0.01599(9) 0.33902(6) 0.95136(5) 0.04356(15) Uani 1 1 d . . . . .
Cl3 Cl 0.41017(8) 0.18888(5) 0.89863(4) 0.03732(13) Uani 1 1 d . . . . .
Cl4 Cl 0.36767(9) 0.85104(6) 0.83611(5) 0.04714(16) Uani 1 1 d . . . . .
Cl5B Cl 0.7151(11) 0.1639(7) 0.4608(7) 0.0843(18) Uani 0.45 1 d . . P A 2
Cl6 Cl -0.16696(11) -0.14605(7) 0.66819(7) 0.0630(2) Uani 1 1 d . . . . .
N1 N 0.3222(2) 0.48516(17) 0.81155(14) 0.0313(4) Uani 1 1 d . . . . .
N2 N 0.5097(3) 0.4857(2) 0.84940(17) 0.0382(4) Uani 1 1 d . . . . .
H2 H 0.575(4) 0.416(3) 0.863(2) 0.041(7) Uiso 1 1 d . . . . .
N3 N 0.3334(2) 0.30287(17) 0.65074(14) 0.0303(4) Uani 1 1 d . . . . .
N4 N 0.2889(3) 0.3728(2) 0.54835(16) 0.0398(5) Uani 1 1 d . . . . .
H4 H 0.194(5) 0.424(3) 0.543(2) 0.059(9) Uiso 1 1 d . . . . .
N5 N 0.0204(2) 0.15174(17) 0.78300(14) 0.0316(4) Uani 1 1 d . . . . .
N6 N -0.0887(3) 0.0891(2) 0.86886(17) 0.0401(5) Uani 1 1 d . . . . .
H6 H -0.108(4) 0.122(3) 0.922(2) 0.055(9) Uiso 1 1 d . . . . .
C1 C 0.2530(3) 0.6083(2) 0.80312(19) 0.0343(5) Uani 1 1 d . . . . .
H1 H 0.129(4) 0.631(2) 0.7805(19) 0.036(6) Uiso 1 1 d . . . . .
C2 C 0.3963(3) 0.6860(2) 0.83456(18) 0.0337(5) Uani 1 1 d . . . . .
C3 C 0.5577(4) 0.6054(2) 0.8638(2) 0.0402(5) Uani 1 1 d . . . . .
H3 H 0.684(4) 0.621(3) 0.889(2) 0.055(8) Uiso 1 1 d . . . . .
C4 C 0.4933(4) 0.2315(3) 0.6346(2) 0.0464(6) Uani 1 1 d . . . . .
H4A H 0.543(4) 0.180(3) 0.687(2) 0.048(8) Uiso 1 1 d . . . . .
C5 C 0.5464(4) 0.2570(3) 0.52315(19) 0.0472(6) Uani 1 1 d . . . . .
C6 C 0.4149(4) 0.3468(3) 0.4704(2) 0.0439(6) Uani 1 1 d . . . . .
H6A H 0.410(4) 0.387(3) 0.402(2) 0.052(8) Uiso 1 1 d . . . . .
C7 C 0.0097(3) 0.0804(2) 0.7042(2) 0.0363(5) Uani 1 1 d . . . . .
H7 H 0.073(3) 0.101(2) 0.637(2) 0.036(6) Uiso 1 1 d . . . . .
C8 C -0.1085(3) -0.0268(2) 0.7409(2) 0.0368(5) Uani 1 1 d . . . . .
C9 C -0.1688(4) -0.0184(2) 0.8460(2) 0.0421(6) Uani 1 1 d . . . . .
H9 H -0.240(4) -0.070(3) 0.896(2) 0.046(7) Uiso 1 1 d . . . . .
Cl5A Cl 0.7600(9) 0.2081(6) 0.4637(6) 0.0736(12) Uani 0.55 1 d . . P A 1
loop_
_atom_site_aniso_label
_atom_site_aniso_U_11
_atom_site_aniso_U_22
_atom_site_aniso_U_33
_atom_site_aniso_U_23
_atom_site_aniso_U_13
_atom_site_aniso_U_12
Cr1 0.02490(17) 0.02846(17) 0.02677(18) -0.00457(13) 0.00225(13) -0.00150(12)
Cl1 0.0305(3) 0.0437(3) 0.0448(3) -0.0066(2) -0.0063(2) 0.0079(2)
Cl2 0.0452(3) 0.0487(3) 0.0407(3) -0.0180(3) 0.0155(3) -0.0081(3)
Cl3 0.0380(3) 0.0403(3) 0.0301(3) 0.0013(2) -0.0032(2) 0.0031(2)
Cl4 0.0490(3) 0.0343(3) 0.0585(4) -0.0091(3) -0.0079(3) -0.0051(2)
Cl5B 0.081(4) 0.124(5) 0.0417(13) -0.012(3) 0.013(2) 0.056(3)
Cl6 0.0621(4) 0.0562(4) 0.0814(5) -0.0373(4) 0.0175(4) -0.0216(3)
N1 0.0269(9) 0.0344(9) 0.0329(9) -0.0064(7) -0.0004(7) -0.0027(7)
N2 0.0291(10) 0.0368(11) 0.0475(12) -0.0056(9) -0.0033(8) 0.0008(8)
N3 0.0293(9) 0.0350(9) 0.0247(9) -0.0011(7) 0.0003(7) 0.0003(7)
N4 0.0412(11) 0.0448(11) 0.0297(10) 0.0000(8) -0.0021(8) 0.0125(9)
N5 0.0295(9) 0.0330(9) 0.0314(9) -0.0037(7) 0.0026(7) -0.0043(7)
N6 0.0422(11) 0.0448(11) 0.0339(11) -0.0078(9) 0.0078(9) -0.0136(9)
C1 0.0306(12) 0.0345(11) 0.0375(12) -0.0064(9) -0.0026(9) -0.0009(9)
C2 0.0360(12) 0.0329(11) 0.0319(11) -0.0050(9) 0.0008(9) -0.0066(9)
C3 0.0318(12) 0.0426(13) 0.0457(14) -0.0056(10) -0.0041(10) -0.0092(10)
C4 0.0410(14) 0.0628(16) 0.0296(12) 0.0022(11) 0.0017(10) 0.0201(12)
C5 0.0408(13) 0.0686(17) 0.0294(12) -0.0057(11) 0.0052(10) 0.0151(12)
C6 0.0452(14) 0.0577(15) 0.0249(12) 0.0004(11) 0.0029(10) 0.0055(11)
C7 0.0353(12) 0.0372(12) 0.0367(13) -0.0077(10) 0.0044(10) -0.0035(9)
C8 0.0299(11) 0.0326(11) 0.0490(14) -0.0103(10) -0.0008(10) -0.0014(9)
C9 0.0377(13) 0.0417(13) 0.0450(14) -0.0024(11) 0.0056(11) -0.0126(10)
Cl5A 0.0543(16) 0.122(4) 0.0373(11) -0.0030(19) 0.0140(11) 0.0340(16)
loop_
_atom_type_symbol
_atom_type_description
_atom_type_scat_dispersion_real
_atom_type_scat_dispersion_imag
_atom_type_scat_source
C C 0.0033 0.0016 'International Tables Vol C Tables 4.2.6.8 and 6.1.1.4'
H H 0.0000 0.0000 'International Tables Vol C Tables 4.2.6.8 and 6.1.1.4'
Cl Cl 0.1484 0.1585 'International Tables Vol C Tables 4.2.6.8 and 6.1.1.4'
Cr Cr 0.3209 0.6236 'International Tables Vol C Tables 4.2.6.8 and 6.1.1.4'
N N 0.0061 0.0033 'International Tables Vol C Tables 4.2.6.8 and 6.1.1.4'
loop_
_geom_angle_atom_site_label_1
_geom_angle_atom_site_label_2
_geom_angle_atom_site_label_3
_geom_angle
_geom_angle_site_symmetry_1
_geom_angle_site_symmetry_3
Cl2 Cr1 Cl1 91.00(3) . .
Cl3 Cr1 Cl1 175.71(2) . .
Cl3 Cr1 Cl2 93.20(3) . .
N1 Cr1 Cl1 91.11(6) . .
N1 Cr1 Cl2 89.70(5) . .
N1 Cr1 Cl3 89.77(6) . .
N1 Cr1 N3 90.85(7) . .
N3 Cr1 Cl1 87.67(5) . .
N3 Cr1 Cl2 178.57(5) . .
N3 Cr1 Cl3 88.12(5) . .
N5 Cr1 Cl1 90.09(6) . .
N5 Cr1 Cl2 89.35(5) . .
N5 Cr1 Cl3 89.10(6) . .
N5 Cr1 N1 178.48(7) . .
N5 Cr1 N3 90.13(7) . .
N2 N1 Cr1 125.61(14) . .
C1 N1 Cr1 128.59(15) . .
C1 N1 N2 105.20(18) . .
N1 N2 H2 118.9(18) . .
C3 N2 N1 111.51(19) . .
C3 N2 H2 129.5(18) . .
N4 N3 Cr1 123.25(14) . .
C4 N3 Cr1 132.39(15) . .
C4 N3 N4 104.36(18) . .
N3 N4 H4 118(2) . .
C6 N4 N3 112.3(2) . .
C6 N4 H4 130(2) . .
N6 N5 Cr1 121.21(14) . .
C7 N5 Cr1 133.26(15) . .
C7 N5 N6 105.48(18) . .
N5 N6 H6 120(2) . .
C9 N6 N5 112.1(2) . .
C9 N6 H6 128(2) . .
N1 C1 H1 120.7(15) . .
N1 C1 C2 110.3(2) . .
C2 C1 H1 128.9(15) . .
C1 C2 Cl4 125.35(18) . .
C3 C2 Cl4 128.46(17) . .
C3 C2 C1 106.2(2) . .
N2 C3 C2 106.8(2) . .
N2 C3 H3 120.9(17) . .
C2 C3 H3 132.3(17) . .
N3 C4 H4A 119.7(19) . .
N3 C4 C5 110.3(2) . .
C5 C4 H4A 129.9(19) . .
C4 C5 Cl5B 125.4(3) . .
C4 C5 Cl5A 127.9(3) . .
C6 C5 Cl5B 126.5(3) . .
C6 C5 C4 106.6(2) . .
C6 C5 Cl5A 124.6(3) . .
N4 C6 C5 106.4(2) . .
N4 C6 H6A 123.2(19) . .
C5 C6 H6A 130.3(19) . .
N5 C7 H7 123.1(14) . .
N5 C7 C8 109.7(2) . .
C8 C7 H7 127.2(14) . .
C7 C8 Cl6 126.85(19) . .
C9 C8 Cl6 126.60(18) . .
C9 C8 C7 106.5(2) . .
N6 C9 C8 106.2(2) . .
N6 C9 H9 121.1(17) . .
C8 C9 H9 132.6(17) . .
loop_
_geom_bond_atom_site_label_1
_geom_bond_atom_site_label_2
_geom_bond_distance
_geom_bond_site_symmetry_2
Cr1 Cl1 2.3472(9) .
Cr1 Cl2 2.3228(9) .
Cr1 Cl3 2.3051(9) .
Cr1 N1 2.0781(18) .
Cr1 N3 2.1079(18) .
Cr1 N5 2.0771(18) .
CL5Bb C5 1.741(9) .
Cl4 C2 1.724(2) .
Cl6 C8 1.716(2) .
N1 N2 1.358(3) .
N1 C1 1.334(3) .
N2 H2 0.83(3) .
N2 C3 1.341(3) .
N3 N4 1.350(3) .
N3 C4 1.331(3) .
N4 H4 0.81(3) .
N4 C6 1.337(3) .
N5 N6 1.353(3) .
N5 C7 1.328(3) .
N6 H6 0.80(3) .
N6 C9 1.336(3) .
C1 H1 0.90(2) .
C1 C2 1.387(3) .
C2 C3 1.365(3) .
C3 H3 0.94(3) .
C4 H4A 0.82(3) .
C4 C5 1.384(3) .
C5 C6 1.344(3) .
C5 Cl5A 1.724(7) .
C6 H6A 0.85(3) .
C7 H7 0.91(2) .
C7 C8 1.394(3) .
C8 C9 1.363(3) .
C9 H9 0.89(3) .
