#------------------------------------------------------------------------------
#$Date: 2021-11-19 01:13:10 +0200 (Fri, 19 Nov 2021) $
#$Revision: 270749 $
#$URL: file:///home/coder/svn-repositories/cod/cif/1/56/53/1565322.cif $
#------------------------------------------------------------------------------
#
# This file is available in the Crystallography Open Database (COD),
# http://www.crystallography.net/
#
# All data on this site have been placed in the public domain by the
# contributors.
#
data_1565322
loop_
_publ_author_name
'Wei, Xiao'
'Li, Bao'
'Yang, Zhiqiang'
'Zhong, RongLin'
'Wang, Yufei'
'Chen, yanan'
'Ding, Zeyang'
'Men, Guangwen'
'Yang, Zairan'
'Zhang, Houyu'
'Yang, Bing'
'Xu, Weiqing'
'Jiang, Shimei'
_publ_section_title
;
 Programmable photoresponsive materials based on a single molecule via
 distinct topochemical reactions
;
_journal_name_full               'Chemical Science'
_journal_paper_doi               10.1039/D1SC04053G
_journal_year                    2021
_chemical_formula_moiety         'C21 H11 F6 N'
_chemical_formula_sum            'C21 H11 F6 N'
_chemical_formula_weight         391.31
_space_group_crystal_system      triclinic
_space_group_IT_number           2
_space_group_name_Hall           '-P 1'
_space_group_name_H-M_alt        'P -1'
_atom_sites_solution_hydrogens   geom
_audit_creation_method           SHELXL-2014/7
_audit_update_record
;
2021-07-23 deposited with the CCDC.	2021-11-11 downloaded from the CCDC.
;
_cell_angle_alpha                94.944(4)
_cell_angle_beta                 94.830(4)
_cell_angle_gamma                110.235(4)
_cell_formula_units_Z            2
_cell_length_a                   7.8885(8)
_cell_length_b                   9.5215(10)
_cell_length_c                   12.4914(13)
_cell_measurement_reflns_used    8360
_cell_measurement_temperature    99(2)
_cell_measurement_theta_max      27.50
_cell_measurement_theta_min      2.90
_cell_volume                     870.50(16)
_computing_cell_refinement       'Bruker D8 Venture'
_computing_data_collection       'Bruker D8 Venture'
_computing_data_reduction        'Bruker D8 Venture'
_computing_molecular_graphics    'Bruker SHELXTL'
_computing_publication_material  'Bruker SHELXTL'
_computing_structure_refinement  'SHELXL-2014/7 (Sheldrick, 2015)'
_computing_structure_solution    'SHELXT-2014/7 (Sheldrick, 2015)'
_diffrn_ambient_temperature      99(2)
_diffrn_measured_fraction_theta_full 0.998
_diffrn_measured_fraction_theta_max 0.997
_diffrn_measurement_device_type  'D8 VENTURE PHOTON II'
_diffrn_measurement_method       'phi and omega scans'
_diffrn_radiation_type           MoK\a
_diffrn_radiation_wavelength     0.71073
_diffrn_reflns_av_R_equivalents  0.0361
_diffrn_reflns_av_unetI/netI     0.0234
_diffrn_reflns_Laue_measured_fraction_full 0.998
_diffrn_reflns_Laue_measured_fraction_max 0.997
_diffrn_reflns_limit_h_max       10
_diffrn_reflns_limit_h_min       -10
_diffrn_reflns_limit_k_max       12
_diffrn_reflns_limit_k_min       -12
_diffrn_reflns_limit_l_max       16
_diffrn_reflns_limit_l_min       -16
_diffrn_reflns_number            26410
_diffrn_reflns_point_group_measured_fraction_full 0.998
_diffrn_reflns_point_group_measured_fraction_max 0.997
_diffrn_reflns_theta_full        25.242
_diffrn_reflns_theta_max         27.501
_diffrn_reflns_theta_min         2.904
_diffrn_source                   'fine-focus sealed tube'
_exptl_absorpt_coefficient_mu    0.133
_exptl_absorpt_correction_T_max  0.987
_exptl_absorpt_correction_T_min  0.983
_exptl_absorpt_correction_type   multi-scan
_exptl_absorpt_process_details   'SADABS; Bruker, 2014'
_exptl_crystal_colour            colorless
_exptl_crystal_density_diffrn    1.493
_exptl_crystal_description       block
_exptl_crystal_F_000             396
_exptl_crystal_size_max          0.130
_exptl_crystal_size_mid          0.120
_exptl_crystal_size_min          0.100
_refine_diff_density_max         0.292
_refine_diff_density_min         -0.206
_refine_diff_density_rms         0.035
_refine_ls_extinction_coef       0.015(4)
_refine_ls_extinction_expression Fc^*^=kFc[1+0.001xFc^2^\l^3^/sin(2\q)]^-1/4^
_refine_ls_extinction_method     'SHELXL-2014/7 (Sheldrick 2014'
_refine_ls_goodness_of_fit_ref   1.024
_refine_ls_hydrogen_treatment    constr
_refine_ls_matrix_type           full
_refine_ls_number_parameters     259
_refine_ls_number_reflns         3988
_refine_ls_number_restraints     0
_refine_ls_restrained_S_all      1.024
_refine_ls_R_factor_all          0.0906
_refine_ls_R_factor_gt           0.0536
_refine_ls_shift/su_max          0.000
_refine_ls_shift/su_mean         0.000
_refine_ls_structure_factor_coef Fsqd
_refine_ls_weighting_details
'w=1/[\s^2^(Fo^2^)+(0.0531P)^2^+0.3774P] where P=(Fo^2^+2Fc^2^)/3'
_refine_ls_weighting_scheme      calc
_refine_ls_wR_factor_gt          0.1274
_refine_ls_wR_factor_ref         0.1554
_reflns_Friedel_coverage         0.000
_reflns_number_gt                2510
_reflns_number_total             3988
_reflns_threshold_expression     'I > 2\s(I)'
_cod_data_source_file            d1sc04053g4.cif
_cod_data_source_block           mo_WX0919_2_0m
_cod_database_code               1565322
_shelx_shelxl_version_number     2014/7
_shelx_space_group_comment
;
The symmetry employed for this shelxl refinement is uniquely defined
by the following loop, which should always be used as a source of
symmetry information in preference to the above space-group names.
They are only intended as comments.
;
_shelx_estimated_absorpt_t_min   0.983
_shelx_estimated_absorpt_t_max   0.987
_shelx_res_file
;

    mo_WX0919_2_0m.res created by SHELXL-2014/7


TITL mo_WX0919_2_0m in P-1
CELL 0.71073 7.8885 9.5215 12.4914 94.944 94.83 110.235
ZERR 2 0.0008 0.001 0.0013 0.004 0.004 0.004
LATT 1
SFAC C H F N
UNIT 42 22 12 2

L.S. 4
PLAN  20
SIZE 0.1 0.12 0.13
TEMP -174.11
BOND $h
HTAB
fmap 2
acta
REM <olex2.extras>
REM <HklSrc "%.\\mo_WX0919_2_0m.hkl">
REM </olex2.extras>

WGHT    0.053100    0.377400
EXTI    0.015214
FVAR       0.28710   0.94222   0.92243
PART 1
AFIX  66
C6    1   -0.010929   -0.134991   -0.229849    21.00000    0.05101    0.05529 =
         0.04874    0.00142    0.00886    0.02062
C1    1   -0.096486   -0.283990   -0.212337    21.00000    0.05014    0.05466 =
         0.05543   -0.00427    0.00787    0.01933
C2    1   -0.218322   -0.386645   -0.293963    21.00000    0.06107    0.06066 =
         0.06977   -0.00848    0.00305    0.01767
AFIX  43
H2    2   -0.276795   -0.488480   -0.281994    21.00000   -1.20000
AFIX  65
C3    1   -0.254602   -0.340302   -0.393102    21.00000    0.06684    0.08001 =
         0.06707   -0.01849   -0.00523    0.02639
AFIX  43
H3    2   -0.337871   -0.410463   -0.448890    21.00000   -1.20000
AFIX  65
C4    1   -0.169046   -0.191302   -0.410616    21.00000    0.07843    0.09439 =
         0.05760   -0.00021   -0.00343    0.03604
AFIX  43
H4    2   -0.193843   -0.159629   -0.478373    21.00000   -1.20000
AFIX  65
C5    1   -0.047210   -0.088646   -0.328991    21.00000    0.07212    0.06968 =
         0.06331    0.00856    0.00545    0.02477
AFIX  43
H5    2    0.011263    0.013189   -0.340961    21.00000   -1.20000
AFIX   0
C7    1    0.113482   -0.032362   -0.144908    21.00000    0.05299    0.04695 =
         0.05715    0.00405    0.00926    0.01569
AFIX  43
H7    2    0.171219    0.069786   -0.156375    21.00000   -1.20000
AFIX   0
C8    1    0.152672   -0.076632   -0.046660    21.00000    0.05139    0.05360 =
         0.04739    0.00105    0.00974    0.01848
C9    1    0.061308   -0.227154   -0.029542    21.00000    0.06206    0.05898 =
         0.05152    0.00903    0.00653    0.01362
AFIX  43
H9    2    0.083989   -0.259088    0.038457    21.00000   -1.20000
AFIX   0
C10   1   -0.059452   -0.327797   -0.109403    21.00000    0.06259    0.04981 =
         0.06663    0.00798    0.00939    0.01118
AFIX  43
H10   2   -0.119750   -0.428730   -0.096041    21.00000   -1.20000
AFIX   0
PART 0
C11   1    0.282192    0.039230    0.035347    11.00000    0.05611    0.05501 =
         0.05313   -0.00055    0.00975    0.01641
PART 1
AFIX  43
H11   2    0.297221    0.140370    0.025126    21.00000   -1.20000
AFIX  43
PART 2
H11A  2    0.289453    0.141306    0.044903   -21.00000   -1.20000
AFIX   0
PART 0
C12   1    0.382153    0.023281    0.122354    11.00000    0.05035    0.05406 =
         0.05081   -0.00057    0.01017    0.01535
C13   1    0.377898   -0.123712    0.144199    11.00000    0.06491    0.05912 =
         0.07294    0.00007   -0.00640    0.01387
C14   1    0.507156    0.151606    0.199971    11.00000    0.04507    0.05315 =
         0.04866    0.00023    0.00999    0.01320
C15   1    0.576288    0.296615    0.170532    11.00000    0.05401    0.06032 =
         0.05201    0.00913    0.01187    0.01500
AFIX  43
H15   2    0.545736    0.314332    0.099014    11.00000   -1.20000
AFIX   0
C16   1    0.689187    0.414913    0.244920    11.00000    0.05262    0.05033 =
         0.06302    0.00605    0.01325    0.00973
C17   1    0.737776    0.391829    0.348863    11.00000    0.05018    0.05385 =
         0.05833    0.00043    0.00625    0.00801
AFIX  43
H17   2    0.816239    0.473557    0.399321    11.00000   -1.20000
AFIX   0
C18   1    0.670804    0.248505    0.378360    11.00000    0.04770    0.05457 =
         0.05278    0.00245    0.00597    0.01223
C19   1    0.557016    0.129232    0.304643    11.00000    0.04875    0.05035 =
         0.05453    0.00516    0.00925    0.01159
AFIX  43
H19   2    0.512513    0.030871    0.325954    11.00000   -1.20000
AFIX   0
C20   1    0.761280    0.570835    0.213843    11.00000    0.08183    0.06267 =
         0.07640    0.01424    0.00349    0.00733
C21   1    0.713731    0.224028    0.492195    11.00000    0.06555    0.06461 =
         0.06175    0.00674   -0.00213    0.00991
PART 1
F1    3    0.694817    0.585052    0.117041    31.00000    0.16860    0.07756 =
         0.08853    0.03236   -0.01208    0.00600
F2    3    0.940765    0.623989    0.218206    31.00000    0.08163    0.09268 =
         0.17482    0.05464    0.02753   -0.00641
F3    3    0.724947    0.670113    0.281969    31.00000    0.17269    0.06051 =
         0.12967    0.01025    0.03575    0.03862
PART 0
F4    3    0.870973    0.322083    0.540094    11.00000    0.08677    0.10419 =
         0.08239    0.01210   -0.02730   -0.00778
F5    3    0.589196    0.236817    0.553797    11.00000    0.10322    0.14387 =
         0.05940    0.01443    0.01961    0.03816
F6    3    0.718903    0.088235    0.500834    11.00000    0.14216    0.08078 =
         0.08429    0.01716   -0.01690    0.03766
N1    4    0.380926   -0.237881    0.163172    11.00000    0.11323    0.06578 =
         0.13974    0.00844   -0.03138    0.02455
PART 2
AFIX 116
C5A   1   -0.157517   -0.405169   -0.178088   -21.00000   10.06000
AFIX  43
H5A   2   -0.149552   -0.460028   -0.119021   -21.00000   -1.20000
AFIX 115
C4A   1   -0.273037   -0.477551   -0.272168   -21.00000   10.06000
AFIX  43
H4A   2   -0.344024   -0.581881   -0.277401   -21.00000   -1.20000
AFIX 115
C3A   1   -0.284691   -0.397283   -0.358591   -21.00000   10.06000
AFIX  43
H3A   2   -0.363644   -0.446754   -0.422890   -21.00000   -1.20000
AFIX 115
C2A   1   -0.180826   -0.244633   -0.350935   -21.00000   10.06000
AFIX  43
H2A   2   -0.188792   -0.189774   -0.410002   -21.00000   -1.20000
AFIX 115
C1A   1   -0.065305   -0.172249   -0.256856   -21.00000   10.06000
C6A   1   -0.053649   -0.252515   -0.170432   -21.00000   10.06000
C7A   1    0.061868   -0.180137   -0.076350   -21.00000   10.06000
AFIX  43
H7A   2    0.069831   -0.234999   -0.017285   -21.00000   -1.20000
AFIX 115
C8A   1    0.165735   -0.027487   -0.068692   -21.00000   10.06000
C9A   1    0.154084    0.052784   -0.155114   -21.00000   10.06000
AFIX  43
H9A   2    0.225072    0.157114   -0.149879   -21.00000   -1.20000
AFIX 115
C10A  1    0.038565   -0.019595   -0.249194   -21.00000   10.06000
AFIX  43
H10A  2    0.030603    0.035267   -0.308259   -21.00000   -1.20000
AFIX   0
F1A   3    0.859293    0.558448    0.122918   -31.00000   10.08000
F2A   3    0.860545    0.663414    0.281577   -31.00000   10.08000
F3A   3    0.631849    0.597933    0.176666   -31.00000   10.08000
HKLF 4

REM  mo_WX0919_2_0m in P-1
REM R1 =  0.0536 for    2510 Fo > 4sig(Fo)  and  0.0906 for all    3988 data
REM    259 parameters refined using      0 restraints

END

WGHT      0.0527      0.3807

REM No hydrogen bonds found for HTAB generation

REM Highest difference peak  0.292,  deepest hole -0.206,  1-sigma level  0.035
Q1    1   0.7708  0.5165  0.0853  11.00000  0.05    0.29
Q2    1   0.5704  0.1362  0.2394  11.00000  0.05    0.18
Q3    1   0.6054  0.1370  0.5220  11.00000  0.05    0.17
Q4    1   0.5670  0.5476  0.1316  11.00000  0.05    0.16
Q5    1   0.8637  0.1964  0.4995  11.00000  0.05    0.15
Q6    1   0.5765  0.2033  0.1746  11.00000  0.05    0.15
Q7    1   0.4726  0.0920  0.1636  11.00000  0.05    0.14
Q8    1   0.7216  0.3107  0.5748  11.00000  0.05    0.14
Q9    1   0.6587  0.3174  0.3727  11.00000  0.05    0.13
Q10   1   0.5118  0.2170  0.1948  11.00000  0.05    0.13
Q11   1   0.6700  0.1798  0.3272  11.00000  0.05    0.13
Q12   1   0.6953  0.3644  0.2009  11.00000  0.05    0.12
Q13   1   0.0889 -0.0429 -0.0840  11.00000  0.05    0.12
Q14   1   0.2751 -0.2220  0.2054  11.00000  0.05    0.12
Q15   1   0.3450  0.0035 -0.0230  11.00000  0.05    0.12
Q16   1   0.6971  0.4886  0.2430  11.00000  0.05    0.12
Q17   1   0.3501  0.1168  0.0021  11.00000  0.05    0.11
Q18   1   0.1191  0.0467 -0.3366  11.00000  0.05    0.10
Q19   1   0.6234  0.4870  0.0370  11.00000  0.05    0.10
Q20   1   0.4243  0.0513  0.0586  11.00000  0.05    0.10
;
_shelx_res_checksum              52926
_shelx_hkl_file
;
  -2   0   0   80.07    1.81
  -2   0   0   77.95    1.82
  -2   0   0   79.86    1.81
  -2   0   0   78.40    1.80
  -2   0   0   77.56    1.81
  -2   0   0   79.31    1.81
   2   0   0   78.50    1.80
   2   0   0   79.93    1.81
   2   0   0   80.54    1.82
   2   0   0   78.54    1.82
   2   0   0   78.09    1.82
  -3   0   0   48.77    1.23
  -3   0   0   49.41    1.23
  -3   0   0   50.10    1.24
  -3   0   0   50.71    1.23
  -3   0   0   48.54    1.25
   3   0   0   49.35    1.22
   3   0   0   50.75    1.25
   3   0   0   51.47    1.26
   3   0   0   51.36    1.23
  -4   0   0    0.07    0.07
  -4   0   0    0.03    0.08
  -4   0   0    0.15    0.07
  -4   0   0    0.00    0.06
  -4   0   0    0.20    0.12
  -4   0   0    0.08    0.07
  -4   0   0    0.12    0.09
   4   0   0   -0.02    0.06
   4   0   0    0.05    0.08
   4   0   0    0.00    0.08
  -5   0   0   10.21    0.47
  -5   0   0    9.78    0.43
  -5   0   0   10.33    0.43
  -5   0   0   10.08    0.47
  -5   0   0   10.19    0.44
  -5   0   0   10.89    0.46
   5   0   0   10.26    0.43
   5   0   0   10.28    0.47
   5   0   0   10.46    0.47
  -6   0   0    5.27    0.35
  -6   0   0    5.57    0.36
  -6   0   0    5.64    0.40
  -6   0   0    4.98    0.37
  -6   0   0    5.55    0.36
  -6   0   0    4.99    0.33
   6   0   0    5.98    0.36
   6   0   0    5.28    0.37
   6   0   0    5.35    0.37
  -7   0   0    0.76    0.19
  -7   0   0    1.19    0.30
  -7   0   0    0.98    0.18
  -7   0   0    0.75    0.17
  -7   0   0    0.94    0.14
   7   0   0    0.83    0.18
   7   0   0    0.86    0.20
  -8   0   0    0.16    0.16
  -8   0   0   -0.08    0.13
  -8   0   0    0.07    0.11
  -8   0   0   -0.09    0.09
   8   0   0    0.03    0.11
   8   0   0   -0.04    0.17
  -9   0   0    0.18    0.17
  -9   0   0    0.19    0.15
   9   0   0    0.07    0.16
   9   0   0    0.13    0.15
   9  -1   0    0.04    0.15
  -9   1   0   -0.04    0.13
  -9   1   0    0.10    0.10
  -9   1   0    0.25    0.19
   8  -1   0   -0.01    0.13
   8  -1   0    0.01    0.13
  -8   1   0    0.19    0.11
  -8   1   0    0.00    0.11
  -8   1   0   -0.01    0.14
   7  -1   0    0.49    0.15
   7  -1   0    0.55    0.15
  -7   1   0    0.69    0.26
  -7   1   0    0.55    0.14
  -7   1   0    0.77    0.14
  -7   1   0    0.54    0.14
  -7   1   0    0.82    0.19
  -7   1   0    0.76    0.16
   6  -1   0   17.37    0.63
   6  -1   0   17.13    0.67
   6  -1   0   16.57    0.66
  -6   1   0   16.70    0.63
  -6   1   0   17.23    0.57
  -6   1   0   16.21    0.62
  -6   1   0   16.90    0.64
  -6   1   0   15.94    0.65
  -6   1   0   17.75    0.66
  -6   1   0   17.34    0.63
  -6   1   0   16.67    0.65
   5  -1   0   11.59    0.47
   5  -1   0   11.91    0.49
   5  -1   0   11.52    0.49
  -5   1   0   11.79    0.48
  -5   1   0   11.58    0.48
  -5   1   0   11.58    0.47
  -5   1   0   11.43    0.47
  -5   1   0   11.36    0.48
  -5   1   0   11.46    0.47
  -5   1   0   11.65    0.45
   4  -1   0    0.64    0.11
   4  -1   0    0.62    0.11
   4  -1   0    0.52    0.10
   4  -1   0    0.50    0.11
   4  -1   0    0.58    0.11
  -4   1   0    0.53    0.12
  -4   1   0    0.79    0.12
  -4   1   0    0.72    0.12
  -4   1   0    0.70    0.11
  -4   1   0    0.58    0.10
  -4   1   0    0.46    0.09
  -4   1   0    0.49    0.11
   3  -1   0   87.59    2.05
   3  -1   0   89.29    2.04
   3  -1   0   87.03    2.05
   3  -1   0   86.35    2.04
   3  -1   0   89.18    2.04
  -3   1   0   86.32    2.04
  -3   1   0   86.47    2.04
  -3   1   0   87.44    2.04
  -3   1   0   85.02    2.03
  -3   1   0   87.21    2.05
  -3   1   0   86.05    2.01
   1  -1   0   66.58    1.55
  -1  -1   0    2.26    0.13
  -1  -1   0    2.41    0.09
  -1  -1   0    2.35    0.13
  -1  -1   0    2.41    0.10
  -1  -1   0    2.28    0.12
   1   1   0    2.30    0.12
   1   1   0    2.31    0.12
   1   1   0    2.42    0.09
   1   1   0    2.47    0.10
   1   1   0    2.50    0.12
   1   1   0    2.42    0.13
  -2  -1   0   21.30    0.58
  -2  -1   0   20.26    0.54
  -2  -1   0   21.38    0.51
  -2  -1   0   20.57    0.54
  -2  -1   0   19.86    0.58
  -2  -1   0   20.45    0.54
   2   1   0   21.26    0.54
   2   1   0   20.07    0.53
   2   1   0   20.43    0.57
   2   1   0   21.52    0.57
   2   1   0   21.80    0.55
   2   1   0   21.39    0.57
  -3  -1   0   29.96    0.80
  -3  -1   0   29.55    0.80
  -3  -1   0   28.24    0.74
  -3  -1   0   29.70    0.75
  -3  -1   0   29.42    0.82
  -3  -1   0   29.33    0.71
  -3  -1   0   28.62    0.77
  -3  -1   0   29.94    0.84
   3   1   0   28.51    0.80
   3   1   0   28.41    0.73
   3   1   0   29.93    0.81
   3   1   0   29.52    0.74
   3   1   0   30.13    0.78
   3   1   0   29.29    0.81
  -4  -1   0   25.03    0.80
  -4  -1   0   24.84    0.69
  -4  -1   0   25.57    0.77
  -4  -1   0   25.98    0.76
  -4  -1   0   25.20    0.74
  -4  -1   0   25.94    0.66
  -4  -1   0   25.31    0.69
  -4  -1   0   25.40    1.03
  -4  -1   0   27.08    0.78
   4   1   0   27.20    0.75
   4   1   0   27.28    0.98
   4   1   0   25.97    0.77
  -5  -1   0    0.43    0.12
  -5  -1   0    0.50    0.13
  -5  -1   0    0.52    0.12
  -5  -1   0    0.45    0.11
  -5  -1   0    0.49    0.11
  -5  -1   0    0.25    0.08
  -5  -1   0    0.36    0.12
  -5  -1   0    0.32    0.07
  -5  -1   0    0.31    0.13
   5   1   0    0.47    0.12
   5   1   0    0.46    0.13
   5   1   0    0.37    0.11
   5   1   0    0.44    0.11
  -6  -1   0    0.47    0.15
  -6  -1   0    0.72    0.23
  -6  -1   0    0.48    0.09
  -6  -1   0    0.51    0.13
  -6  -1   0    0.39    0.14
  -6  -1   0    0.36    0.14
  -6  -1   0    0.51    0.17
   6   1   0    0.37    0.12
   6   1   0    0.33    0.14
  -7  -1   0    0.59    0.16
  -7  -1   0    0.49    0.18
  -7  -1   0    0.48    0.26
  -7  -1   0    0.73    0.21
   7   1   0    0.35    0.13
   7   1   0    0.27    0.14
  -8  -1   0    0.58    0.17
  -8  -1   0    0.65    0.21
   8   1   0    0.80    0.20
   8   1   0    0.71    0.18
  -9  -1   0   -0.01    0.15
  -9  -1   0    0.15    0.19
   9   1   0    0.31    0.18
   9   1   0    0.14    0.15
 -10   2   0   -0.26    0.12
   9  -2   0    0.20    0.17
  -9   2   0    0.04    0.11
  -9   2   0    0.24    0.13
  -9   2   0    0.08    0.16
   8  -2   0    3.97    0.39
   8  -2   0    3.65    0.38
  -8   2   0    3.79    0.35
  -8   2   0    4.21    0.37
  -8   2   0    4.19    0.31
   7  -2   0    0.75    0.18
   7  -2   0    0.71    0.16
   7  -2   0    0.60    0.16
  -7   2   0    0.81    0.15
  -7   2   0    0.77    0.14
  -7   2   0    0.42    0.13
  -7   2   0    0.74    0.16
  -7   2   0    0.49    0.15
  -7   2   0    0.71    0.16
  -7   2   0    0.59    0.19
  -7   2   0    0.68    0.16
   6  -2   0    0.20    0.11
   6  -2   0    0.10    0.10
   6  -2   0    0.25    0.11
   6  -2   0    0.14    0.10
   6  -2   0    0.18    0.11
  -6   2   0    0.22    0.09
  -6   2   0    0.48    0.14
  -6   2   0    0.16    0.08
  -6   2   0    0.30    0.11
  -6   2   0    0.10    0.11
  -6   2   0    0.36    0.19
  -6   2   0    0.25    0.12
  -6   2   0    0.27    0.11
   5  -2   0   11.82    0.47
   5  -2   0   11.09    0.47
   5  -2   0   11.40    0.47
   5  -2   0   11.41    0.48
   5  -2   0   10.98    0.46
  -5   2   0   10.73    0.46
  -5   2   0   10.60    0.44
  -5   2   0   11.13    0.43
  -5   2   0   11.07    0.47
  -5   2   0   11.02    0.42
  -5   2   0   11.01    0.43
  -5   2   0   11.16    0.46
   4  -2   0    2.34    0.21
   4  -2   0    1.81    0.21
   4  -2   0    2.27    0.21
   4  -2   0    2.24    0.20
   4  -2   0    2.09    0.20
  -4   2   0    2.23    0.21
  -4   2   0    2.08    0.19
  -4   2   0    2.26    0.19
  -4   2   0    1.97    0.19
  -4   2   0    2.04    0.18
  -4   2   0    2.06    0.19
  -4   2   0    2.04    0.18
   3  -2   0    0.13    0.06
   3  -2   0    0.13    0.07
   3  -2   0    0.04    0.07
   3  -2   0    0.09    0.06
  -3   2   0    0.18    0.07
  -3   2   0    0.07    0.06
  -3   2   0    0.09    0.06
  -3   2   0    0.07    0.07
  -3   2   0    0.05    0.05
  -3   2   0    0.10    0.07
  -3   2   0   -0.05    0.06
   2  -2   0   24.71    0.65
   2  -2   0   24.59    0.64
   2  -2   0   24.52    0.60
   2  -2   0   24.56    0.65
   2  -2   0   24.60    0.65
  -2   2   0   24.96    0.65
  -2   2   0   24.95    0.60
  -2   2   0   25.35    0.60
  -2   2   0   24.41    0.63
  -2   2   0   25.14    0.65
  -2   2   0   24.83    0.63
   1  -2   0  151.73    3.38
   1  -2   0  151.34    3.38
   1  -2   0  153.24    3.39
   1  -2   0  154.65    3.36
   1  -2   0  151.37    3.39
  -1   2   0  153.92    3.39
  -1   2   0  150.83    3.38
  -1   2   0  156.68    3.36
  -1   2   0  154.40    3.39
  -1   2   0  151.84    3.38
   0  -2   0   94.51    2.14
   0  -2   0   92.01    2.10
   0  -2   0   92.97    2.12
   0  -2   0   93.27    2.14
   0  -2   0   95.61    2.11
   0   2   0   94.49    2.14
   0   2   0   91.05    2.12
   0   2   0   97.44    2.10
   0   2   0   96.00    2.14
  -1  -2   0  206.55    4.69
  -1  -2   0  216.76    4.64
  -1  -2   0  207.55    4.69
  -1  -2   0  212.96    4.71
  -1  -2   0  209.04    4.70
   1   2   0  208.81    4.69
   1   2   0  211.81    4.70
   1   2   0  209.00    4.69
   1   2   0  217.38    4.63
   1   2   0  218.68    4.65
  -2  -2   0   53.64    1.25
  -2  -2   0   54.76    1.37
  -2  -2   0   53.70    1.32
  -2  -2   0   54.85    1.24
  -2  -2   0   53.91    1.31
  -2  -2   0   52.33    1.31
   2   2   0   52.60    1.30
   2   2   0   55.22    1.26
   2   2   0   55.03    1.24
   2   2   0   52.53    1.33
   2   2   0   53.56    1.31
   2   2   0   56.42    1.31
  -3  -2   0    0.03    0.07
  -3  -2   0    0.18    0.11
  -3  -2   0    0.24    0.07
  -3  -2   0    0.21    0.09
  -3  -2   0    0.16    0.09
  -3  -2   0    0.14    0.04
  -3  -2   0    0.13    0.09
   3   2   0    0.12    0.07
   3   2   0    0.15    0.07
   3   2   0    0.09    0.08
   3   2   0    0.15    0.07
   3   2   0    0.21    0.08
   3   2   0    0.18    0.08
  -4  -2   0    9.89    0.45
  -4  -2   0    9.73    0.38
  -4  -2   0   10.35    0.32
  -4  -2   0    9.44    0.48
  -4  -2   0   10.08    0.49
  -4  -2   0    9.90    0.39
   4   2   0   10.72    0.45
   4   2   0   10.78    0.39
   4   2   0   10.11    0.43
   4   2   0    9.95    0.37
   4   2   0   10.05    0.37
   4   2   0    9.88    0.43
  -5  -2   0    5.10    0.39
  -5  -2   0    5.16    0.29
  -5  -2   0    4.89    0.29
  -5  -2   0    5.16    0.29
  -5  -2   0    4.78    0.34
  -5  -2   0    5.04    0.32
  -5  -2   0    5.15    0.36
  -5  -2   0    5.30    0.23
   5   2   0    4.94    0.26
   5   2   0    4.85    0.33
   5   2   0    5.14    0.35
   5   2   0    5.42    0.35
   5   2   0    5.12    0.26
  -6  -2   0    1.62    0.22
  -6  -2   0    1.24    0.22
  -6  -2   0    1.33    0.19
  -6  -2   0    1.13    0.25
  -6  -2   0    1.06    0.22
  -6  -2   0    1.13    0.19
   6   2   0    1.35    0.19
   6   2   0    1.13    0.19
   6   2   0    0.98    0.19
  -7  -2   0    0.12    0.13
  -7  -2   0   -0.02    0.15
   7   2   0    0.28    0.15
   7   2   0    0.06    0.12
  -8  -2   0   -0.08    0.13
  -8  -2   0    0.12    0.17
   8   2   0    0.16    0.13
   8   2   0   -0.18    0.11
 -10   3   0    0.02    0.14
 -10   3   0    0.16    0.13
 -10   3   0   -0.23    0.10
  -9   3   0    0.08    0.14
  -9   3   0    0.00    0.12
  -9   3   0   -0.03    0.11
  -8   3   0    0.39    0.13
  -8   3   0    0.58    0.15
  -8   3   0    0.38    0.12
   7  -3   0    0.07    0.11
   7  -3   0    0.11    0.11
  -7   3   0    0.12    0.12
  -7   3   0    0.06    0.12
  -7   3   0    0.10    0.10
  -7   3   0    0.08    0.10
  -7   3   0    0.00    0.11
  -7   3   0    0.18    0.11
  -7   3   0   -0.03    0.12
  -7   3   0    0.32    0.11
   6  -3   0    0.04    0.10
   6  -3   0    0.20    0.12
   6  -3   0    0.05    0.10
  -6   3   0    0.09    0.08
  -6   3   0    0.14    0.10
  -6   3   0    0.07    0.09
  -6   3   0    0.06    0.09
  -6   3   0    0.07    0.11
  -6   3   0    0.17    0.09
  -6   3   0    0.12    0.08
  -6   3   0    0.09    0.09
   5  -3   0   -0.02    0.09
   5  -3   0    0.07    0.09
   5  -3   0   -0.01    0.09
  -5   3   0   -0.08    0.07
  -5   3   0    0.03    0.07
  -5   3   0   -0.06    0.08
  -5   3   0    0.06    0.08
  -5   3   0   -0.11    0.08
  -5   3   0    0.02    0.06
  -5   3   0    0.02    0.08
   4  -3   0    0.04    0.08
   4  -3   0   -0.06    0.07
   4  -3   0    0.07    0.09
  -4   3   0    0.19    0.09
  -4   3   0   -0.04    0.06
  -4   3   0   -0.02    0.05
  -4   3   0    0.04    0.11
  -4   3   0    0.01    0.14
   3  -3   0   25.10    0.71
   3  -3   0   26.05    0.70
   3  -3   0   24.28    0.63
   3  -3   0   20.84    0.62
   3  -3   0   25.45    0.70
  -3   3   0   24.98    0.64
  -3   3   0   26.30    0.71
  -3   3   0   25.71    0.68
  -3   3   0   25.42    0.64
  -3   3   0   24.90    0.70
   2  -3   0  117.76    2.69
   2  -3   0  122.89    2.71
   2  -3   0  118.37    2.70
   2  -3   0  117.29    2.70
   2  -3   0  117.50    2.74
  -2   3   0  121.75    2.71
  -2   3   0  120.93    2.73
  -2   3   0  121.45    2.71
  -2   3   0  119.84    2.71
  -2   3   0  121.93    2.71
   1  -3   0  201.01    4.44
   1  -3   0  196.80    4.45
   1  -3   0  197.77    4.45
   1  -3   0  202.68    4.45
  -1   3   0  194.72    4.43
  -1   3   0  205.02    4.46
  -1   3   0  202.60    4.38
  -1   3   0  197.40    4.45
  -1   3   0  202.27    4.43
   0  -3   0   98.33    2.32
   0  -3   0  101.53    2.29
   0  -3   0   97.69    2.27
   0  -3   0   99.50    2.32
   0  -3   0  100.06    2.30
   0   3   0   99.92    2.30
   0   3   0  102.17    2.27
   0   3   0  100.16    2.32
   0   3   0  103.52    2.33
  -1  -3   0    0.05    0.08
  -1  -3   0   -0.03    0.09
  -1  -3   0    0.06    0.04
  -1  -3   0   -0.05    0.07
  -1  -3   0    0.07    0.07
   1   3   0    0.11    0.06
   1   3   0    0.12    0.04
   1   3   0    0.05    0.07
   1   3   0    0.08    0.08
  -2  -3   0   -0.01    0.07
  -2  -3   0    0.00    0.04
  -2  -3   0   -0.12    0.07
  -2  -3   0   -0.06    0.07
  -2  -3   0   -0.01    0.10
   2   3   0    0.00    0.04
   2   3   0    0.01    0.07
   2   3   0   -0.02    0.08
   2   3   0    0.01    0.04
   2   3   0   -0.03    0.07
  -3  -3   0    3.82    0.25
  -3  -3   0    3.84    0.34
  -3  -3   0    4.10    0.18
  -3  -3   0    4.28    0.31
  -3  -3   0    3.60    0.27
   3   3   0    3.58    0.27
   3   3   0    3.98    0.24
   3   3   0    3.76    0.25
   3   3   0    3.81    0.25
   3   3   0    4.27    0.20
  -4  -3   0   13.09    0.54
  -4  -3   0   12.55    0.50
  -4  -3   0   12.73    0.58
  -4  -3   0   12.54    0.39
  -4  -3   0   13.12    0.53
  -4  -3   0   11.96    0.48
   4   3   0   11.72    0.51
   4   3   0   12.47    0.51
   4   3   0   11.97    0.46
   4   3   0   12.56    0.50
   4   3   0   12.89    0.47
  -5  -3   0    9.61    0.54
  -5  -3   0    9.44    0.44
  -5  -3   0    9.56    0.50
  -5  -3   0    9.40    0.44
  -5  -3   0    9.74    0.49
   5   3   0    9.42    0.41
   5   3   0    8.50    0.47
   5   3   0    9.45    0.47
   5   3   0    8.91    0.48
   5   3   0    8.82    0.40
  -6  -3   0   13.35    0.62
  -6  -3   0   12.15    0.59
  -6  -3   0   12.26    0.66
  -6  -3   0   12.23    0.53
   6   3   0   11.81    0.47
   6   3   0   12.70    0.60
   6   3   0   11.73    0.60
   6   3   0   11.44    0.47
   6   3   0   12.08    0.61
  -7  -3   0   -0.13    0.16
  -7  -3   0    0.06    0.14
  -7  -3   0   -0.01    0.15
  -7  -3   0    0.03    0.13
   7   3   0    0.11    0.14
   7   3   0    0.07    0.13
  -8  -3   0    0.03    0.16
  -8  -3   0    0.28    0.18
   8   3   0    0.11    0.17
   8   3   0   -0.08    0.09
 -10   4   0   -0.10    0.11
 -10   4   0    0.14    0.13
  -9   4   0    0.15    0.12
  -9   4   0    0.03    0.12
  -9   4   0   -0.03    0.12
   8  -4   0    0.24    0.14
   8  -4   0    0.22    0.12
  -8   4   0    0.29    0.12
  -8   4   0    0.20    0.13
  -8   4   0    0.17    0.12
   7  -4   0   -0.06    0.09
   7  -4   0   -0.04    0.11
  -7   4   0   -0.06    0.09
  -7   4   0    0.01    0.12
  -7   4   0    0.13    0.18
  -7   4   0   -0.01    0.09
  -7   4   0    0.03    0.08
  -7   4   0    0.01    0.11
   6  -4   0    0.07    0.09
   6  -4   0    0.02    0.10
   6  -4   0   -0.09    0.09
  -6   4   0   -0.03    0.07
  -6   4   0    0.01    0.07
  -6   4   0   -0.15    0.07
  -6   4   0    0.00    0.09
  -6   4   0   -0.06    0.09
  -6   4   0   -0.17    0.08
   5  -4   0   12.72    0.52
   5  -4   0   12.87    0.51
   5  -4   0   12.37    0.50
  -5   4   0   12.19    0.47
  -5   4   0   12.50    0.50
  -5   4   0   11.58    0.47
  -5   4   0   12.25    0.51
   4  -4   0    2.38    0.23
   4  -4   0    3.07    0.24
   4  -4   0    2.41    0.16
   4  -4   0    2.83    0.34
  -4   4   0    2.24    0.24
  -4   4   0    2.88    0.23
  -4   4   0    2.65    0.17
  -4   4   0    2.71    0.23
  -4   4   0    3.10    0.19
  -4   4   0    3.10    0.21
   3  -4   0    0.07    0.08
   3  -4   0    0.13    0.09
   3  -4   0    0.11    0.07
   3  -4   0    0.15    0.08
   3  -4   0    0.08    0.06
   3  -4   0    0.13    0.08
  -3   4   0    0.08    0.05
  -3   4   0    0.18    0.08
  -3   4   0    0.14    0.08
  -3   4   0    0.04    0.06
  -3   4   0    0.09    0.06
   2  -4   0    4.83    0.25
   2  -4   0    4.83    0.26
   2  -4   0    5.22    0.26
  -2   4   0    5.16    0.26
  -2   4   0    4.93    0.25
  -2   4   0    5.42    0.26
  -2   4   0    4.90    0.24
  -2   4   0    5.10    0.22
   1  -4   0   16.83    0.55
   1  -4   0   17.50    0.54
   1  -4   0   17.52    0.53
   1  -4   0   17.40    0.48
   1  -4   0   16.93    0.55
  -1   4   0   17.38    0.55
  -1   4   0   17.97    0.52
  -1   4   0   17.06    0.52
  -1   4   0   17.91    0.56
   0  -4   0   41.39    1.04
   0  -4   0   40.69    1.02
   0  -4   0   40.90    1.06
   0  -4   0   39.01    1.07
   0   4   0   41.44    1.00
   0   4   0   40.68    1.08
   0   4   0   39.18    1.07
   0   4   0   39.72    1.04
  -1  -4   0    2.00    0.15
  -1  -4   0    1.75    0.20
  -1  -4   0    2.14    0.22
  -1  -4   0    1.72    0.21
  -1  -4   0    1.77    0.20
   1   4   0    1.84    0.14
   1   4   0    1.80    0.20
   1   4   0    1.94    0.20
   1   4   0    1.81    0.19
  -2  -4   0   12.65    0.50
  -2  -4   0   13.19    0.61
  -2  -4   0   12.50    0.40
  -2  -4   0   12.32    0.50
  -2  -4   0   12.66    0.50
   2   4   0   13.50    0.50
   2   4   0   13.56    0.40
   2   4   0   12.98    0.49
   2   4   0   13.53    0.44
   2   4   0   12.88    0.50
  -3  -4   0    0.44    0.14
  -3  -4   0    0.29    0.12
  -3  -4   0    0.18    0.11
  -3  -4   0    0.24    0.07
  -3  -4   0    0.35    0.13
   3   4   0    0.40    0.12
   3   4   0    0.33    0.11
   3   4   0    0.39    0.16
   3   4   0    0.32    0.12
  -4  -4   0   39.70    1.14
  -4  -4   0   40.61    1.18
  -4  -4   0   40.27    1.16
  -4  -4   0   40.21    1.24
  -4  -4   0   38.51    0.99
  -4  -4   0   38.31    1.16
   4   4   0   38.29    1.11
   4   4   0   38.04    1.17
   4   4   0   38.43    1.13
   4   4   0   38.97    1.12
  -5  -4   0    3.66    0.35
  -5  -4   0    3.75    0.40
  -5  -4   0    2.74    0.35
  -5  -4   0    3.49    0.34
  -5  -4   0    3.74    0.39
   5   4   0    2.94    0.45
   5   4   0    2.94    0.29
   5   4   0    3.28    0.30
   5   4   0    3.10    0.34
   5   4   0    3.18    0.31
  -6  -4   0    0.33    0.27
  -6  -4   0    0.37    0.17
  -6  -4   0    0.33    0.16
   6   4   0    0.53    0.13
   6   4   0    0.44    0.14
   6   4   0    0.44    0.15
   6   4   0    0.28    0.14
  -7  -4   0    0.03    0.18
  -7  -4   0   -0.13    0.15
  -7  -4   0   -0.08    0.14
  -7  -4   0    0.10    0.17
   7   4   0    0.15    0.12
   7   4   0   -0.09    0.12
   7   4   0   -0.15    0.11
 -10   5   0   -0.03    0.13
 -10   5   0   -0.09    0.11
 -10   5   0   -0.21    0.12
   9  -5   0    0.07    0.13
  -9   5   0   -0.10    0.11
  -9   5   0    0.08    0.12
   8  -5   0    0.05    0.12
   8  -5   0    0.09    0.14
  -8   5   0    0.14    0.11
  -8   5   0    0.01    0.10
   7  -5   0    1.39    0.22
  -7   5   0    1.14    0.22
  -7   5   0    1.36    0.22
  -7   5   0    2.05    0.27
  -7   5   0    1.47    0.22
   6  -5   0   -0.02    0.10
   6  -5   0    0.07    0.09
  -6   5   0   -0.06    0.08
  -6   5   0    0.10    0.10
  -6   5   0    0.10    0.09
   5  -5   0    0.11    0.09
   5  -5   0    0.06    0.10
   5  -5   0    0.18    0.11
  -5   5   0    0.05    0.10
  -5   5   0    0.14    0.09
  -5   5   0    0.11    0.09
  -5   5   0    0.06    0.16
  -5   5   0    0.00    0.07
  -5   5   0    0.09    0.08
   4  -5   0    5.00    0.30
   4  -5   0    4.86    0.29
   4  -5   0    4.65    0.30
   4  -5   0    4.94    0.27
   4  -5   0    4.96    0.30
  -4   5   0    4.75    0.28
  -4   5   0    4.88    0.30
  -4   5   0    4.76    0.26
  -4   5   0    4.86    0.27
  -4   5   0    4.73    0.28
  -4   5   0    4.47    0.26
   3  -5   0    2.07    0.21
   3  -5   0    1.82    0.22
   3  -5   0    1.89    0.18
   3  -5   0    1.78    0.20
  -3   5   0    1.38    0.22
  -3   5   0    2.00    0.18
  -3   5   0    1.97    0.20
  -3   5   0    1.76    0.20
  -3   5   0    1.78    0.17
   2  -5   0   16.61    0.75
   2  -5   0   17.51    0.59
   2  -5   0   18.38    0.59
  -2   5   0   18.15    0.60
  -2   5   0   18.97    0.58
  -2   5   0   18.21    0.60
  -2   5   0   17.61    0.57
  -2   5   0   17.85    0.51
   1  -5   0   35.40    1.02
   1  -5   0   37.89    1.00
   1  -5   0   37.10    0.93
   1  -5   0   34.81    1.25
   1  -5   0   35.69    0.98
  -1   5   0   35.70    0.98
  -1   5   0   34.97    1.01
  -1   5   0   37.36    0.96
  -1   5   0   37.41    1.03
   0  -5   0    0.84    0.14
   0  -5   0    1.10    0.15
   0  -5   0    0.98    0.19
   0  -5   0    0.78    0.12
   0  -5   0    0.89    0.17
   0   5   0    1.14    0.18
   0   5   0    1.17    0.19
   0   5   0    1.26    0.17
   0   5   0    1.09    0.14
  -1  -5   0    4.36    0.29
  -1  -5   0    4.24    0.24
  -1  -5   0    4.22    0.30
  -1  -5   0    4.04    0.34
  -1  -5   0    4.18    0.30
   1   5   0    4.42    0.22
   1   5   0    3.85    0.28
   1   5   0    4.53    0.29
   1   5   0    4.01    0.29
   1   5   0    4.27    0.20
  -2  -5   0    5.21    0.36
  -2  -5   0    4.88    0.36
  -2  -5   0    5.49    0.50
  -2  -5   0    4.73    0.25
  -2  -5   0    4.80    0.34
   2   5   0    5.08    0.24
   2   5   0    5.06    0.33
   2   5   0    4.56    0.33
   2   5   0    5.10    0.26
   2   5   0    5.35    0.32
  -3  -5   0    3.95    0.24
  -3  -5   0    4.44    0.36
  -3  -5   0    4.48    0.39
  -3  -5   0    4.11    0.38
   3   5   0    4.02    0.32
   3   5   0    4.14    0.28
   3   5   0    4.22    0.34
   3   5   0    4.23    0.32
   3   5   0    4.02    0.24
  -4  -5   0    8.95    0.56
  -4  -5   0    8.62    0.51
  -4  -5   0    9.40    0.72
  -4  -5   0    9.42    0.53
  -4  -5   0    8.47    0.36
  -4  -5   0    8.52    0.47
   4   5   0    8.21    0.59
   4   5   0    8.42    0.44
   4   5   0    8.29    0.45
   4   5   0    8.94    0.56
  -5  -5   0    0.10    0.17
  -5  -5   0    0.21    0.17
  -5  -5   0    0.09    0.15
  -5  -5   0    0.05    0.26
  -5  -5   0    0.09    0.23
   5   5   0    0.42    0.14
   5   5   0    0.14    0.10
   5   5   0    0.15    0.13
  -6  -5   0    0.16    0.16
  -6  -5   0    0.02    0.16
  -6  -5   0    0.05    0.16
   6   5   0    0.21    0.15
   6   5   0    0.17    0.15
   6   5   0    0.23    0.13
  -7  -5   0    0.05    0.23
  -7  -5   0   -0.09    0.16
  -7  -5   0   -0.03    0.15
   7   5   0   -0.16    0.10
   7   5   0   -0.19    0.13
   7   5   0    0.09    0.16
  10  -6   0    0.08    0.17
 -10   6   0   -0.23    0.11
 -10   6   0    0.10    0.12
   9  -6   0    0.19    0.17
   9  -6   0    0.04    0.13
  -9   6   0    0.02    0.11
  -9   6   0    0.06    0.10
   8  -6   0    1.05    0.22
   8  -6   0    1.52    0.34
  -8   6   0    1.04    0.18
   7  -6   0    0.11    0.12
   7  -6   0    0.04    0.11
  -7   6   0    0.04    0.10
  -7   6   0   -0.07    0.09
  -7   6   0    0.03    0.11
   6  -6   0    0.23    0.12
   6  -6   0    0.18    0.13
  -6   6   0    0.16    0.13
  -6   6   0    0.29    0.12
  -6   6   0    0.34    0.12
  -6   6   0    0.17    0.10
  -6   6   0    0.31    0.10
  -6   6   0    0.29    0.11
  -6   6   0    0.25    0.11
   5  -6   0    0.03    0.10
   5  -6   0    0.14    0.10
   5  -6   0    0.09    0.10
  -5   6   0   -0.07    0.08
  -5   6   0    0.12    0.08
  -5   6   0    0.16    0.10
  -5   6   0    0.08    0.09
  -5   6   0    0.09    0.10
  -5   6   0    0.02    0.09
   4  -6   0    3.49    0.27
   4  -6   0    3.60    0.29
   4  -6   0    3.48    0.26
   4  -6   0    3.43    0.25
  -4   6   0    3.16    0.24
  -4   6   0    3.45    0.27
  -4   6   0    3.71    0.28
  -4   6   0    3.45    0.27
  -4   6   0    3.48    0.26
  -4   6   0    3.39    0.22
   3  -6   0    9.40    0.42
   3  -6   0   10.17    0.45
   3  -6   0    9.33    0.44
  -3   6   0   10.10    0.42
  -3   6   0    9.40    0.38
  -3   6   0   10.34    0.45
  -3   6   0    9.57    0.42
  -3   6   0   10.06    0.43
   2  -6   0    0.07    0.11
   2  -6   0    0.31    0.15
   2  -6   0    0.24    0.10
   2  -6   0    0.18    0.10
  -2   6   0    0.09    0.11
  -2   6   0    0.28    0.08
  -2   6   0    0.21    0.14
  -2   6   0    0.19    0.08
  -2   6   0    0.11    0.08
   1  -6   0    4.16    0.33
   1  -6   0    4.31    0.25
   1  -6   0    4.42    0.27
   1  -6   0    3.82    0.29
   1  -6   0    4.46    0.32
  -1   6   0    3.62    0.28
  -1   6   0    4.14    0.31
  -1   6   0    4.50    0.26
  -1   6   0    4.02    0.28
   0  -6   0   10.37    0.42
   0  -6   0   10.79    0.48
   0  -6   0   10.50    0.48
   0  -6   0   10.73    0.50
   0  -6   0   11.39    0.45
   0   6   0    9.84    0.45
   0   6   0   11.01    0.49
   0   6   0   10.21    0.47
  -1  -6   0    0.01    0.10
  -1  -6   0    0.24    0.13
  -1  -6   0    0.10    0.13
  -1  -6   0    0.08    0.08
  -1  -6   0    0.01    0.13
   1   6   0    0.06    0.09
   1   6   0    0.25    0.09
   1   6   0    0.27    0.11
   1   6   0    0.19    0.06
   1   6   0    0.25    0.13
  -2  -6   0   18.96    0.75
  -2  -6   0   19.04    0.74
  -2  -6   0   18.82    0.73
  -2  -6   0   17.48    0.61
  -2  -6   0   19.12    0.75
   2   6   0   19.65    0.73
   2   6   0   18.07    0.67
   2   6   0   18.86    0.60
   2   6   0   18.69    0.72
   2   6   0   19.55    0.72
  -3  -6   0    9.14    0.41
  -3  -6   0    9.78    0.54
  -3  -6   0    9.63    0.55
  -3  -6   0   10.11    0.55
  -3  -6   0    9.06    0.56
   3   6   0    9.19    0.43
   3   6   0    8.83    0.51
   3   6   0    9.37    0.50
   3   6   0    9.49    0.41
   3   6   0   10.36    0.51
  -4  -6   0    1.15    0.20
  -4  -6   0    1.15    0.25
  -4  -6   0    1.73    0.27
  -4  -6   0    1.06    0.23
  -4  -6   0    0.98    0.14
  -4  -6   0    1.61    0.27
   4   6   0    0.99    0.17
   4   6   0    1.25    0.23
  -5  -6   0   -0.36    0.18
  -5  -6   0   -0.06    0.16
  -5  -6   0    0.08    0.17
  -5  -6   0   -0.28    0.16
   5   6   0   -0.05    0.07
   5   6   0    0.20    0.16
   5   6   0    0.00    0.27
  -6  -6   0    0.40    0.20
  -6  -6   0   -0.05    0.17
  -6  -6   0   -0.40    0.16
   6   6   0    0.61    0.18
   6   6   0    0.07    0.18
   6   6   0    0.43    0.14
   9  -7   0    0.41    0.18
   9  -7   0    0.27    0.17
  -9   7   0    0.45    0.17
  -9   7   0    1.09    0.27
   8  -7   0    2.54    0.35
   8  -7   0    1.60    0.26
  -8   7   0    2.84    0.33
  -8   7   0    2.33    0.33
   7  -7   0    0.30    0.14
   7  -7   0    0.18    0.15
  -7   7   0    0.20    0.13
  -7   7   0    0.15    0.13
  -7   7   0    0.08    0.11
  -7   7   0    0.24    0.12
  -7   7   0    0.20    0.11
   6  -7   0   -0.03    0.11
   6  -7   0   -0.11    0.09
   6  -7   0    0.07    0.12
   6  -7   0   -0.06    0.11
  -6   7   0   -0.01    0.11
  -6   7   0   -0.02    0.11
  -6   7   0   -0.12    0.09
  -6   7   0   -0.13    0.08
  -6   7   0   -0.06    0.10
  -6   7   0    0.03    0.12
   5  -7   0    0.45    0.15
   5  -7   0    0.51    0.15
   5  -7   0    0.56    0.14
  -5   7   0    0.30    0.12
  -5   7   0    0.56    0.14
  -5   7   0    0.45    0.14
  -5   7   0    0.63    0.16
  -5   7   0    0.28    0.12
  -5   7   0    0.53    0.10
   4  -7   0    1.19    0.19
   4  -7   0    1.79    0.26
   4  -7   0    1.39    0.25
   4  -7   0    0.91    0.16
  -4   7   0    0.76    0.15
  -4   7   0    1.05    0.16
  -4   7   0    0.99    0.13
  -4   7   0    1.36    0.21
  -4   7   0    0.89    0.14
  -4   7   0    1.38    0.21
   3  -7   0    3.24    0.29
   3  -7   0    3.05    0.32
   3  -7   0    2.98    0.28
  -3   7   0    3.27    0.28
  -3   7   0    3.46    0.35
  -3   7   0    2.97    0.21
  -3   7   0    3.66    0.30
  -3   7   0    3.30    0.29
   2  -7   0    3.62    0.29
   2  -7   0    3.96    0.30
   2  -7   0    3.93    0.32
   2  -7   0    3.98    0.41
  -2   7   0    3.51    0.31
  -2   7   0    3.57    0.30
  -2   7   0    3.99    0.32
  -2   7   0    3.86    0.28
   1  -7   0    3.26    0.33
   1  -7   0    3.25    0.25
   1  -7   0    3.40    0.31
   1  -7   0    3.51    0.34
   1  -7   0    2.97    0.26
  -1   7   0    3.56    0.26
  -1   7   0    3.53    0.30
  -1   7   0    3.33    0.30
  -1   7   0    3.41    0.31
   0  -7   0    0.19    0.17
   0  -7   0    0.41    0.15
   0  -7   0    0.25    0.15
   0  -7   0    0.24    0.11
   0  -7   0    0.08    0.12
   0   7   0    0.59    0.17
   0   7   0    0.32    0.10
   0   7   0    0.34    0.15
   0   7   0    0.16    0.11
  -1  -7   0   25.80    0.91
  -1  -7   0   25.32    0.91
  -1  -7   0   25.28    0.92
  -1  -7   0   23.27    0.80
  -1  -7   0   25.51    0.88
   1   7   0   24.20    0.87
   1   7   0   26.04    0.91
   1   7   0   25.19    0.72
   1   7   0   24.91    0.76
   1   7   0   25.26    0.89
  -2  -7   0   15.18    0.69
  -2  -7   0   14.46    0.57
  -2  -7   0   15.69    0.72
  -2  -7   0   15.32    0.69
  -2  -7   0   15.26    0.69
   2   7   0   15.69    0.68
   2   7   0   14.16    0.53
   2   7   0   14.44    0.52
  -3  -7   0    0.05    0.11
  -3  -7   0    0.29    0.20
  -3  -7   0    0.38    0.16
  -3  -7   0    0.30    0.16
  -3  -7   0    0.60    0.22
   3   7   0    0.33    0.10
   3   7   0    0.29    0.10
   3   7   0    0.55    0.19
  -4  -7   0    0.44    0.24
  -4  -7   0    0.09    0.18
  -4  -7   0    0.30    0.12
  -4  -7   0    0.27    0.20
  -4  -7   0    0.18    0.17
   4   7   0    0.37    0.11
   4   7   0    0.55    0.19
  -5  -7   0    0.01    0.17
  -5  -7   0   -0.04    0.18
  -5  -7   0    0.02    0.19
   5   7   0   -0.24    0.13
   5   7   0   -0.14    0.16
   5   7   0    0.11    0.10
   9  -8   0   -0.04    0.17
   9  -8   0    0.26    0.18
  -9   8   0   -0.11    0.12
  -9   8   0    0.50    0.16
   8  -8   0    0.52    0.19
   8  -8   0    0.09    0.14
  -8   8   0    0.47    0.17
  -8   8   0    0.10    0.16
   7  -8   0    0.70    0.18
   7  -8   0    0.68    0.23
   7  -8   0    0.54    0.17
  -7   8   0    0.69    0.17
  -7   8   0    0.86    0.19
  -7   8   0    0.68    0.16
  -7   8   0    0.89    0.21
  -7   8   0    1.17    0.20
   6  -8   0    0.21    0.14
   6  -8   0    0.28    0.14
   6  -8   0    0.16    0.17
   6  -8   0    0.10    0.12
  -6   8   0    0.12    0.22
  -6   8   0    0.11    0.12
  -6   8   0    0.04    0.15
  -6   8   0    0.17    0.09
  -6   8   0    0.05    0.12
  -6   8   0    0.28    0.15
   5  -8   0    0.10    0.11
   5  -8   0    0.12    0.12
   5  -8   0    0.15    0.17
  -5   8   0   -0.04    0.12
  -5   8   0    0.20    0.13
  -5   8   0   -0.26    0.12
  -5   8   0    0.13    0.10
  -5   8   0    0.09    0.10
  -5   8   0    0.06    0.09
   4  -8   0   -0.03    0.09
   4  -8   0    0.23    0.14
   4  -8   0   -0.07    0.15
  -4   8   0    0.24    0.11
  -4   8   0    0.03    0.12
  -4   8   0    0.14    0.15
  -4   8   0   -0.12    0.09
  -4   8   0    0.05    0.10
  -4   8   0    0.09    0.09
   3  -8   0    2.44    0.32
   3  -8   0    2.45    0.29
   3  -8   0    2.56    0.29
  -3   8   0    2.61    0.27
  -3   8   0    2.71    0.31
  -3   8   0    2.31    0.28
  -3   8   0    2.64    0.31
  -3   8   0    2.69    0.20
   2  -8   0    0.85    0.17
   2  -8   0    1.67    0.28
   2  -8   0    0.96    0.21
   2  -8   0    0.60    0.16
  -2   8   0    1.13    0.22
  -2   8   0    0.97    0.17
  -2   8   0    1.49    0.25
  -2   8   0    0.61    0.15
   1  -8   0    0.11    0.14
   1  -8   0   -0.22    0.14
   1  -8   0   -0.12    0.14
   1  -8   0    0.10    0.16
  -1   8   0   -0.13    0.10
  -1   8   0   -0.11    0.13
  -1   8   0   -0.09    0.10
   0  -8   0    0.05    0.15
   0  -8   0    0.52    0.21
   0  -8   0    0.06    0.12
   0  -8   0    0.63    0.22
   0  -8   0   -0.04    0.15
   0   8   0   -0.02    0.11
   0   8   0    0.28    0.15
   0   8   0    0.39    0.21
   0   8   0    0.20    0.10
  -1  -8   0    4.23    0.39
  -1  -8   0    3.31    0.31
  -1  -8   0    4.67    0.55
  -1  -8   0    4.09    0.43
  -1  -8   0    4.08    0.42
   1   8   0    4.76    0.39
   1   8   0    4.34    0.29
   1   8   0    3.61    0.30
   1   8   0    3.98    0.39
  -2  -8   0    1.15    0.22
  -2  -8   0    1.15    0.18
  -2  -8   0    2.13    0.36
  -2  -8   0    2.16    0.33
  -2  -8   0    2.01    0.40
   2   8   0    1.50    0.21
   2   8   0    2.17    0.30
   2   8   0    1.67    0.20
  -3  -8   0    0.76    0.16
  -3  -8   0    0.72    0.29
  -3  -8   0    1.03    0.23
  -3  -8   0    0.87    0.24
   3   8   0    1.17    0.23
   3   8   0    0.73    0.13
   3   8   0    0.68    0.14
  -4  -8   0    0.22    0.20
  -4  -8   0   -0.07    0.27
  -4  -8   0    0.18    0.21
  -4  -8   0   -0.26    0.15
   4   8   0    0.09    0.09
   4   8   0   -0.02    0.15
   9  -9   0   -0.16    0.14
   9  -9   0    0.02    0.17
  -9   9   0    0.00    0.13
   8  -9   0    0.05    0.15
   8  -9   0    0.42    0.18
  -8   9   0    0.23    0.15
  -8   9   0    0.16    0.17
  -8   9   0    0.03    0.15
  -8   9   0    0.05    0.16
   7  -9   0    0.10    0.12
   7  -9   0   -0.10    0.13
   7  -9   0   -0.62    0.25
   7  -9   0   -0.16    0.17
  -7   9   0    0.23    0.24
  -7   9   0   -0.06    0.14
  -7   9   0    0.08    0.15
  -7   9   0   -0.04    0.15
  -7   9   0    0.02    0.13
   6  -9   0    0.28    0.14
   6  -9   0   -0.03    0.16
   6  -9   0    0.30    0.15
  -6   9   0    0.34    0.19
  -6   9   0   -0.02    0.16
  -6   9   0    0.13    0.11
  -6   9   0    0.10    0.17
  -6   9   0    0.30    0.19
  -6   9   0    0.03    0.15
   5  -9   0    0.05    0.18
   5  -9   0    0.37    0.17
   5  -9   0    0.23    0.12
  -5   9   0    0.14    0.14
  -5   9   0    0.34    0.15
  -5   9   0    0.19    0.17
  -5   9   0    0.10    0.10
  -5   9   0    0.40    0.20
   4  -9   0    0.03    0.15
   4  -9   0   -0.06    0.09
   4  -9   0   -0.17    0.17
  -4   9   0   -0.10    0.11
  -4   9   0    0.09    0.15
  -4   9   0   -0.04    0.09
  -4   9   0   -0.08    0.08
  -4   9   0   -0.11    0.15
   3  -9   0    0.00    0.12
   3  -9   0    0.07    0.17
  -3   9   0    0.10    0.16
  -3   9   0    0.21    0.17
  -3   9   0    0.04    0.10
  -3   9   0   -0.06    0.12
   2  -9   0   -0.13    0.11
   2  -9   0    0.11    0.19
   2  -9   0    0.04    0.14
   2  -9   0   -0.14    0.10
   2  -9   0    0.51    0.21
  -2   9   0    0.10    0.14
  -2   9   0    0.25    0.17
  -2   9   0    0.10    0.10
  -2   9   0   -0.15    0.11
   1  -9   0   -0.04    0.17
   1  -9   0   -0.03    0.13
   1  -9   0    0.01    0.11
   1  -9   0   -0.18    0.19
   1  -9   0   -0.19    0.13
  -1   9   0   -0.01    0.15
  -1   9   0    0.07    0.09
  -1   9   0    0.02    0.12
  -1   9   0    0.10    0.15
   0  -9   0    0.80    0.18
   0  -9   0    0.73    0.23
   0  -9   0    0.59    0.19
   0  -9   0    0.98    0.26
   0   9   0    1.20    0.26
   0   9   0    0.82    0.15
   0   9   0    0.76    0.11
  -1  -9   0    0.04    0.18
  -1  -9   0   -0.20    0.28
  -1  -9   0   -0.29    0.20
  -1  -9   0    0.00    0.14
   1   9   0    0.07    0.09
   1   9   0   -0.03    0.14
   1   9   0    0.03    0.07
  -2  -9   0    0.33    0.21
  -2  -9   0   -0.05    0.17
  -2  -9   0    0.19    0.17
   2   9   0   -0.08    0.16
   2   9   0    0.11    0.08
   2   9   0    0.13    0.10
  -3  -9   0    1.14    0.30
  -3  -9   0    0.82    0.23
  -3  -9   0    0.50    0.22
  -3  -9   0    0.50    0.22
   3   9   0    0.97    0.25
   3   9   0    0.85    0.15
   3   9   0    0.89    0.15
   8 -10   0   -0.17    0.15
   8 -10   0    0.08    0.23
  -8  10   0   -0.06    0.17
  -8  10   0    0.16    0.14
  -8  10   0    0.29    0.17
   7 -10   0    0.30    0.15
   7 -10   0    0.01    0.21
   7 -10   0    0.14    0.14
  -7  10   0   -0.37    0.14
  -7  10   0   -0.05    0.12
  -7  10   0   -0.14    0.14
  -7  10   0   -0.48    0.24
   6 -10   0    0.31    0.16
   6 -10   0    0.02    0.12
   6 -10   0    0.08    0.20
  -6  10   0    0.06    0.11
  -6  10   0    0.17    0.12
  -6  10   0   -0.02    0.16
  -6  10   0   -0.02    0.19
  -6  10   0   -0.11    0.15
   5 -10   0    0.13    0.21
   5 -10   0    0.29    0.13
   5 -10   0    0.07    0.19
  -5  10   0   -0.01    0.19
  -5  10   0    0.13    0.26
  -5  10   0    0.17    0.13
  -5  10   0   -0.03    0.10
  -5  10   0    0.12    0.18
  -5  10   0   -0.10    0.11
   4 -10   0    0.06    0.10
   4 -10   0   -0.04    0.20
  -4  10   0   -0.19    0.08
  -4  10   0    0.13    0.17
  -4  10   0   -0.01    0.16
   3 -10   0    2.02    0.36
  -3  10   0    2.46    0.48
  -3  10   0    2.19    0.34
  -3  10   0    2.54    0.30
   2 -10   0    0.40    0.17
   2 -10   0    0.95    0.25
  -2  10   0    0.68    0.23
  -2  10   0    0.66    0.15
  -2  10   0    0.76    0.22
   1 -10   0    0.35    0.19
   1 -10   0    0.19    0.13
   1 -10   0   -0.09    0.19
  -1  10   0    0.12    0.10
  -1  10   0    0.23    0.21
   0 -10   0   -0.01    0.16
   0 -10   0    0.22    0.20
   0 -10   0    0.15    0.14
   0  10   0   -0.05    0.34
   0  10   0   -0.13    0.09
   0  10   0    0.00    0.09
  -1 -10   0   -0.06    0.16
  -1 -10   0    0.04    0.23
  -1 -10   0   -0.01    0.16
   1  10   0    0.12    0.21
   1  10   0    0.02    0.07
   1  10   0   -0.15    0.08
  -2 -10   0   -0.14    0.16
  -2 -10   0    0.56    0.21
  -2 -10   0   -0.06    0.26
   2  10   0    0.03    0.10
   2  10   0   -0.02    0.17
   2  10   0   -0.10    0.07
   7 -11   0   -0.05    0.26
   7 -11   0   -0.24    0.16
   7 -11   0    0.03    0.15
  -7  11   0    0.09    0.20
  -7  11   0    0.27    0.20
  -7  11   0   -0.16    0.13
  -7  11   0    0.38    0.15
   6 -11   0   -0.07    0.13
   6 -11   0   -0.15    0.15
   6 -11   0    0.14    0.26
  -6  11   0    0.00    0.19
  -6  11   0   -0.24    0.11
  -6  11   0   -0.02    0.21
  -6  11   0    0.06    0.13
   5 -11   0    0.26    0.17
   5 -11   0    0.05    0.12
   5 -11   0    0.41    0.25
  -5  11   0    0.22    0.14
  -5  11   0    0.36    0.40
  -5  11   0    0.54    0.21
  -5  11   0    0.31    0.12
   4 -11   0    0.01    0.12
   4 -11   0    0.01    0.22
  -4  11   0   -0.01    0.15
  -4  11   0    0.09    0.21
  -4  11   0   -0.07    0.10
   3 -11   0    0.49    0.26
  -3  11   0    0.32    0.20
  -3  11   0    0.33    0.13
   2 -11   0   -0.05    0.22
   2 -11   0    0.21    0.14
   2 -11   0   -0.16    0.11
  -2  11   0   -0.04    0.09
  -2  11   0    0.12    0.18
   1 -11   0   -0.01    0.24
   1 -11   0    0.47    0.20
   1 -11   0    0.09    0.13
  -1  11   0    0.10    0.17
  -1  11   0    0.04    0.10
   0 -11   0    3.88    0.50
   0 -11   0    2.48    0.40
   0 -11   0    3.19    0.37
   0  11   0    3.07    0.43
   0  11   0    2.73    0.30
  -1 -11   0    0.32    0.29
  -1 -11   0   -0.26    0.17
  -1 -11   0    0.34    0.19
   1  11   0   -0.01    0.18
   1  11   0    0.08    0.10
   5 -12   0    0.00    0.14
   5 -12   0    0.14    0.27
   5 -12   0   -0.10    0.19
  -5  12   0    0.33    0.22
  -5  12   0   -0.19    0.12
   4 -12   0    0.24    0.25
   4 -12   0   -0.07    0.13
  -4  12   0   -0.01    0.14
  -4  12   0   -0.10    0.17
   3 -12   0   -0.06    0.24
  -3  12   0    0.35    0.22
  -3  12   0    0.08    0.12
   2 -12   0    1.26    0.36
  -2  12   0    1.27    0.30
  -2  12  -1   -0.13    0.11
   2 -12   1    0.00    0.25
  -3  12  -1    0.10    0.21
  -3  12  -1    0.23    0.14
   3 -12   1    0.64    0.30
  -4  12  -1   -0.03    0.14
  -4  12  -1    0.02    0.20
   4 -12   1   -0.14    0.12
   4 -12   1   -0.08    0.23
  -5  12  -1    0.05    0.14
  -5  12  -1    0.21    0.20
   5 -12   1   -0.03    0.17
   5 -12   1    0.41    0.27
   1  11  -1   -0.01    0.09
   1  11  -1    0.42    0.22
  -1 -11   1    0.00    0.18
  -1 -11   1    0.14    0.18
  -1 -11   1   -0.01    0.25
   0  11  -1    0.05    0.10
   0  11  -1    0.20    0.18
   0 -11   1    0.08    0.26
   0 -11   1   -0.24    0.14
   0 -11   1   -0.28    0.15
  -1  11  -1    0.92    0.23
  -1  11  -1    0.25    0.12
   1 -11   1    0.43    0.25
   1 -11   1    0.43    0.18
   1 -11   1    0.21    0.15
  -2  11  -1    0.16    0.14
  -2  11  -1    0.60    0.22
   2 -11   1    0.12    0.22
  -3  11  -1    0.77    0.22
  -3  11  -1    0.29    0.13
   3 -11   1    0.43    0.23
  -4  11  -1    0.12    0.21
  -4  11  -1    0.30    0.18
  -4  11  -1    0.12    0.10
   4 -11   1   -0.01    0.23
  -5  11  -1    0.28    0.18
  -5  11  -1    0.19    0.13
  -5  11  -1   -0.28    0.14
  -5  11  -1   -0.10    0.23
   5 -11   1   -0.26    0.11
   5 -11   1    0.25    0.24
   5 -11   1   -0.26    0.15
  -6  11  -1   -0.09    0.10
  -6  11  -1    0.09    0.10
  -6  11  -1   -0.17    0.19
   6 -11   1   -0.03    0.18
   6 -11   1    0.20    0.14
   6 -11   1   -0.15    0.24
  -7  11  -1   -0.26    0.22
  -7  11  -1    0.05    0.13
   7 -11   1    0.57    0.26
   7 -11   1   -0.18    0.16
   7 -11   1   -0.28    0.24
   2  10  -1    1.45    0.20
   2  10  -1    2.79    0.40
   2  10  -1    1.72    0.24
  -2 -10   1    1.17    0.25
  -2 -10   1    1.85    0.36
  -2 -10   1    1.37    0.27
   1  10  -1    0.36    0.12
  -1 -10   1    0.28    0.23
  -1 -10   1    0.06    0.16
  -1 -10   1    0.20    0.18
   0  10  -1    0.77    0.31
   0  10  -1    0.13    0.10
   0 -10   1    0.26    0.17
   0 -10   1    0.22    0.21
   0 -10   1    0.20    0.15
  -1  10  -1    0.17    0.16
  -1  10  -1    0.11    0.10
   1 -10   1   -0.02    0.21
   1 -10   1    0.15    0.19
   1 -10   1    0.18    0.13
  -2  10  -1    0.45    0.22
  -2  10  -1    0.37    0.13
  -2  10  -1    0.62    0.20
   2 -10   1    0.45    0.16
   2 -10   1    0.39    0.13
   2 -10   1    0.73    0.23
  -3  10  -1    0.18    0.18
  -3  10  -1    0.04    0.10
  -3  10  -1    0.29    0.26
   3 -10   1   -0.04    0.17
  -4  10  -1    0.24    0.13
  -4  10  -1    0.49    0.25
  -4  10  -1    0.50    0.21
   4 -10   1    0.38    0.23
  -5  10  -1   -0.10    0.17
  -5  10  -1   -0.03    0.18
  -5  10  -1    0.01    0.09
  -5  10  -1    0.09    0.12
  -5  10  -1    0.00    0.10
   5 -10   1   -0.05    0.20
   5 -10   1    0.33    0.13
   5 -10   1   -0.10    0.15
  -6  10  -1    0.14    0.19
  -6  10  -1    0.01    0.12
  -6  10  -1   -0.06    0.17
  -6  10  -1    0.32    0.15
  -6  10  -1    0.11    0.10
   6 -10   1    0.26    0.16
   6 -10   1    0.08    0.13
   6 -10   1    0.12    0.21
  -7  10  -1    0.15    0.13
  -7  10  -1   -0.22    0.20
  -7  10  -1    0.21    0.14
  -7  10  -1    0.40    0.18
   7 -10   1    0.27    0.16
   7 -10   1    0.00    0.15
   7 -10   1    0.35    0.21
  -8  10  -1    0.82    0.19
  -8  10  -1    0.20    0.19
  -8  10  -1    0.44    0.18
   8 -10   1    0.39    0.21
   8 -10   1    0.47    0.19
   3   9  -1    0.25    0.19
   3   9  -1    0.21    0.09
   3   9  -1    0.19    0.09
  -3  -9   1    0.15    0.18
  -3  -9   1    0.07    0.18
  -3  -9   1    0.35    0.24
  -3  -9   1    0.04    0.15
   2   9  -1    0.03    0.16
   2   9  -1    0.07    0.09
   2   9  -1    0.13    0.07
  -2  -9   1    0.19    0.16
  -2  -9   1    0.34    0.24
  -2  -9   1   -0.16    0.14
  -2  -9   1    0.49    0.17
   1   9  -1   -0.20    0.13
   1   9  -1   -0.02    0.05
   1   9  -1    0.01    0.08
  -1  -9   1   -0.29    0.20
  -1  -9   1   -0.11    0.28
  -1  -9   1    0.06    0.14
  -1  -9   1   -0.05    0.12
   0   9  -1    0.04    0.09
   0   9  -1    0.12    0.17
   0  -9   1   -0.02    0.12
   0  -9   1    0.01    0.16
   0  -9   1   -0.06    0.14
   0  -9   1   -0.06    0.17
   0  -9   1    0.10    0.13
  -1   9  -1   -0.09    0.13
  -1   9  -1    0.12    0.09
  -1   9  -1    0.22    0.16
  -1   9  -1   -0.15    0.10
   1  -9   1   -0.12    0.12
   1  -9   1   -0.26    0.17
   1  -9   1    0.05    0.12
   1  -9   1    0.08    0.13
   1  -9   1   -0.27    0.17
  -2   9  -1    0.71    0.20
  -2   9  -1    0.41    0.15
  -2   9  -1    0.62    0.18
  -2   9  -1    0.42    0.14
   2  -9   1    0.62    0.16
   2  -9   1    0.59    0.21
   2  -9   1    0.57    0.18
  -3   9  -1   -0.04    0.14
  -3   9  -1    0.57    0.18
  -3   9  -1    0.55    0.18
  -3   9  -1    0.17    0.11
   3  -9   1    0.25    0.14
   3  -9   1    0.33    0.20
  -4   9  -1   -0.11    0.09
  -4   9  -1   -0.08    0.15
  -4   9  -1    0.06    0.15
  -4   9  -1   -0.16    0.09
  -4   9  -1   -0.03    0.07
  -4   9  -1   -0.07    0.12
   4  -9   1   -0.38    0.18
  -5   9  -1    0.06    0.11
  -5   9  -1    0.01    0.16
  -5   9  -1    0.08    0.14
  -5   9  -1   -0.04    0.08
  -5   9  -1    0.05    0.11
  -5   9  -1    0.09    0.16
   5  -9   1    0.18    0.12
   5  -9   1   -0.17    0.17
   5  -9   1   -0.05    0.12
  -6   9  -1    0.10    0.16
  -6   9  -1   -0.03    0.10
  -6   9  -1   -0.06    0.11
  -6   9  -1   -0.29    0.16
  -6   9  -1    0.06    0.13
   6  -9   1    0.08    0.13
   6  -9   1    0.00    0.13
   6  -9   1   -0.14    0.16
  -7   9  -1    0.00    0.14
  -7   9  -1   -0.27    0.14
  -7   9  -1   -0.14    0.11
  -7   9  -1    0.09    0.14
  -7   9  -1    0.14    0.17
   7  -9   1   -0.18    0.15
   7  -9   1    0.04    0.18
   7  -9   1    0.13    0.14
   7  -9   1   -0.17    0.29
  -8   9  -1    0.04    0.15
  -8   9  -1    0.13    0.16
  -8   9  -1    0.14    0.15
   8  -9   1    0.29    0.19
   8  -9   1    0.20    0.22
  -9   9  -1    0.02    0.13
   9  -9   1    0.08    0.17
   9  -9   1   -0.02    0.14
   4   8  -1    1.39    0.26
   4   8  -1    1.04    0.17
  -4  -8   1    1.70    0.32
  -4  -8   1    0.89    0.24
  -4  -8   1    1.14    0.26
  -4  -8   1    1.02    0.31
  -4  -8   1    0.82    0.17
   3   8  -1    0.56    0.13
   3   8  -1    0.30    0.10
   3   8  -1    0.38    0.18
  -3  -8   1    0.38    0.17
  -3  -8   1    0.50    0.23
  -3  -8   1    0.18    0.14
  -3  -8   1    0.50    0.21
  -3  -8   1    0.53    0.24
   2   8  -1    0.04    0.14
   2   8  -1   -0.06    0.05
   2   8  -1   -0.08    0.07
  -2  -8   1    0.01    0.20
  -2  -8   1    0.14    0.14
  -2  -8   1    0.06    0.14
  -2  -8   1    0.20    0.37
  -2  -8   1   -0.03    0.11
   1   8  -1   -0.01    0.08
   1   8  -1    0.01    0.05
   1   8  -1    0.04    0.17
  -1  -8   1   -0.15    0.13
  -1  -8   1    0.08    0.11
  -1  -8   1    0.02    0.19
  -1  -8   1   -0.02    0.17
  -1  -8   1    0.04    0.14
   0   8  -1    4.16    0.37
   0   8  -1    4.34    0.30
   0  -8   1    3.72    0.34
   0  -8   1    3.95    0.32
   0  -8   1    4.33    0.42
   0  -8   1    3.79    0.40
   0  -8   1    3.98    0.38
  -1   8  -1    2.02    0.29
  -1   8  -1    1.69    0.23
  -1   8  -1    2.11    0.29
  -1   8  -1    1.99    0.29
   1  -8   1    1.22    0.23
   1  -8   1    2.09    0.30
   1  -8   1    1.52    0.22
   1  -8   1    1.81    0.30
  -2   8  -1    0.82    0.17
  -2   8  -1    1.52    0.22
  -2   8  -1    1.04    0.21
  -2   8  -1    1.37    0.23
   2  -8   1    1.16    0.24
   2  -8   1    1.39    0.19
   2  -8   1    0.90    0.20
   2  -8   1    0.87    0.16
   2  -8   1    0.78    0.16
  -3   8  -1    0.22    0.11
  -3   8  -1    0.25    0.13
  -3   8  -1    0.42    0.15
  -3   8  -1    0.20    0.12
  -3   8  -1    0.18    0.09
  -3   8  -1    0.32    0.08
   3  -8   1    0.36    0.17
   3  -8   1    0.37    0.14
   3  -8   1    0.16    0.18
  -4   8  -1   -0.09    0.06
  -4   8  -1   -0.04    0.10
  -4   8  -1   -0.01    0.13
  -4   8  -1    0.01    0.10
  -4   8  -1    0.07    0.12
  -4   8  -1    0.07    0.11
   4  -8   1   -0.01    0.14
   4  -8   1   -0.04    0.12
   4  -8   1    0.04    0.09
   4  -8   1    0.08    0.10
  -5   8  -1   -0.04    0.10
  -5   8  -1   -0.10    0.09
  -5   8  -1   -0.04    0.13
  -5   8  -1   -0.14    0.10
  -5   8  -1   -0.07    0.07
  -5   8  -1    0.07    0.14
   5  -8   1   -0.05    0.12
   5  -8   1    0.07    0.10
   5  -8   1   -0.21    0.13
   5  -8   1   -0.06    0.12
   5  -8   1    0.00    0.12
  -6   8  -1    0.11    0.12
  -6   8  -1   -0.27    0.14
  -6   8  -1   -0.04    0.14
  -6   8  -1    0.04    0.13
  -6   8  -1    0.08    0.14
  -6   8  -1    0.14    0.10
   6  -8   1   -0.01    0.13
   6  -8   1   -0.02    0.09
   6  -8   1    0.28    0.15
  -7   8  -1    0.13    0.12
  -7   8  -1    0.25    0.14
  -7   8  -1    0.15    0.12
  -7   8  -1    0.01    0.12
   7  -8   1    0.16    0.13
   7  -8   1    0.06    0.16
  -8   8  -1    0.65    0.19
  -8   8  -1    0.60    0.16
   8  -8   1    0.79    0.20
   8  -8   1    0.94    0.22
  -9   8  -1    0.08    0.13
   9  -8   1    0.13    0.16
   9  -8   1   -0.05    0.16
   5   7  -1    0.07    0.10
   5   7  -1    0.29    0.19
   5   7  -1    0.22    0.16
  -5  -7   1    0.27    0.18
  -5  -7   1    0.40    0.22
  -5  -7   1    0.33    0.25
  -5  -7   1    0.10    0.18
   4   7  -1    0.05    0.15
   4   7  -1   -0.03    0.08
  -4  -7   1    0.22    0.19
  -4  -7   1   -0.04    0.11
  -4  -7   1    0.06    0.19
  -4  -7   1   -0.09    0.16
  -4  -7   1    0.06    0.21
   3   7  -1    0.18    0.15
   3   7  -1    0.11    0.09
   3   7  -1    0.13    0.08
  -3  -7   1    0.19    0.17
  -3  -7   1    0.08    0.14
  -3  -7   1    0.01    0.10
  -3  -7   1    0.07    0.15
  -3  -7   1    0.12    0.19
   2   7  -1    1.13    0.24
   2   7  -1    0.96    0.14
   2   7  -1    0.90    0.18
   2   7  -1    0.93    0.13
  -2  -7   1    0.57    0.18
  -2  -7   1    1.20    0.24
  -2  -7   1    0.56    0.18
  -2  -7   1    0.73    0.15
  -2  -7   1    1.19    0.24
   1   7  -1    3.41    0.34
   1   7  -1    3.58    0.26
   1   7  -1    2.83    0.31
   1   7  -1    3.82    0.32
   1   7  -1    3.38    0.20
  -1  -7   1    2.80    0.37
  -1  -7   1    3.14    0.35
  -1  -7   1    3.71    0.38
  -1  -7   1    2.88    0.29
  -1  -7   1    4.41    0.37
   0   7  -1    5.89    0.40
   0   7  -1    5.71    0.36
   0   7  -1    5.94    0.23
   0   7  -1    6.13    0.38
   0   7  -1    5.82    0.32
   0  -7   1    6.00    0.36
   0  -7   1    5.81    0.34
   0  -7   1    6.26    0.43
   0  -7   1    5.93    0.43
   0  -7   1    6.04    0.39
  -1   7  -1    2.97    0.28
  -1   7  -1    2.65    0.26
  -1   7  -1    2.87    0.24
  -1   7  -1    2.89    0.29
   1  -7   1    2.68    0.28
   1  -7   1    2.63    0.25
   1  -7   1    2.84    0.32
   1  -7   1    2.61    0.31
   1  -7   1    2.92    0.23
  -2   7  -1    0.07    0.11
  -2   7  -1    0.07    0.08
  -2   7  -1    0.05    0.11
  -2   7  -1    0.05    0.10
   2  -7   1    0.12    0.11
   2  -7   1    0.10    0.10
   2  -7   1    0.06    0.09
  -3   7  -1    3.28    0.23
  -3   7  -1    3.64    0.29
  -3   7  -1    3.52    0.30
  -3   7  -1    3.32    0.28
  -3   7  -1    3.30    0.19
  -3   7  -1    3.29    0.29
   3  -7   1    3.45    0.29
   3  -7   1    3.40    0.29
   3  -7   1    3.79    0.33
  -4   7  -1    5.07    0.34
  -4   7  -1    5.36    0.33
  -4   7  -1    5.68    0.35
  -4   7  -1    4.82    0.26
  -4   7  -1    5.19    0.36
  -4   7  -1    4.87    0.31
   4  -7   1    4.86    0.32
   4  -7   1    5.48    0.36
   4  -7   1    5.78    0.33
   4  -7   1    4.73    0.34
   4  -7   1    5.24    0.35
  -5   7  -1    0.67    0.14
  -5   7  -1    0.90    0.17
  -5   7  -1    0.72    0.12
  -5   7  -1    1.15    0.18
  -5   7  -1    0.58    0.15
  -5   7  -1    0.65    0.14
   5  -7   1    0.94    0.18
   5  -7   1    0.79    0.16
   5  -7   1    0.78    0.15
   5  -7   1    0.95    0.20
   5  -7   1    0.91    0.18
  -6   7  -1    0.01    0.10
  -6   7  -1    0.04    0.10
  -6   7  -1    0.03    0.12
  -6   7  -1    0.12    0.12
  -6   7  -1    0.05    0.12
  -6   7  -1    0.00    0.12
  -6   7  -1    0.09    0.09
   6  -7   1   -0.02    0.11
   6  -7   1   -0.06    0.11
   6  -7   1   -0.01    0.11
  -7   7  -1    0.14    0.11
  -7   7  -1    0.10    0.11
  -7   7  -1    0.02    0.12
  -7   7  -1    0.02    0.12
   7  -7   1   -0.07    0.11
   7  -7   1    0.15    0.14
  -8   7  -1    1.24    0.21
   8  -7   1    1.06    0.23
   8  -7   1    1.06    0.21
  -9   7  -1    0.26    0.14
   9  -7   1    0.60    0.19
   9  -7   1    0.57    0.21
   6   6  -1   -0.26    0.15
   6   6  -1    0.15    0.17
  -6  -6   1   -0.13    0.16
  -6  -6   1   -0.13    0.16
  -6  -6   1    0.10    0.23
  -6  -6   1   -0.14    0.15
   5   6  -1   -0.02    0.28
   5   6  -1    0.21    0.11
   5   6  -1   -0.06    0.11
  -5  -6   1   -0.16    0.10
  -5  -6   1    0.13    0.16
  -5  -6   1    0.05    0.20
  -5  -6   1   -0.01    0.18
  -5  -6   1    0.09    0.20
   4   6  -1    1.41    0.25
   4   6  -1    0.86    0.16
  -4  -6   1    1.30    0.27
  -4  -6   1    1.33    0.25
  -4  -6   1    1.01    0.20
  -4  -6   1    0.94    0.15
  -4  -6   1    1.26    0.26
   3   6  -1    1.18    0.22
   3   6  -1    0.72    0.14
   3   6  -1    0.50    0.20
   3   6  -1    0.95    0.21
   3   6  -1    0.72    0.12
  -3  -6   1    0.52    0.17
  -3  -6   1    0.95    0.22
  -3  -6   1    0.59    0.13
  -3  -6   1    0.57    0.18
  -3  -6   1    0.79    0.22
   2   6  -1    1.14    0.19
   2   6  -1    1.46    0.22
   2   6  -1    0.92    0.12
   2   6  -1    0.76    0.15
   2   6  -1    0.82    0.13
  -2  -6   1    0.80    0.21
  -2  -6   1    1.05    0.21
  -2  -6   1    0.56    0.12
  -2  -6   1    0.81    0.20
  -2  -6   1    0.60    0.18
   1   6  -1    1.21    0.16
   1   6  -1    0.78    0.14
   1   6  -1    1.05    0.18
   1   6  -1    1.35    0.23
   1   6  -1    1.16    0.13
  -1  -6   1    0.78    0.15
  -1  -6   1    1.50    0.23
  -1  -6   1    1.01    0.20
  -1  -6   1    0.75    0.15
  -1  -6   1    0.64    0.11
   0   6  -1    1.47    0.22
   0   6  -1    1.41    0.17
   0   6  -1    1.40    0.22
   0   6  -1    1.07    0.14
   0  -6   1    1.36    0.19
   0  -6   1    1.13    0.20
   0  -6   1    1.15    0.17
   0  -6   1    1.01    0.14
   0  -6   1    0.93    0.16
  -1   6  -1   14.59    0.50
  -1   6  -1   13.85    0.53
  -1   6  -1   14.48    0.57
  -1   6  -1   13.93    0.55
   1  -6   1   13.10    0.51
   1  -6   1   14.09    0.47
   1  -6   1   14.32    0.58
   1  -6   1   15.39    0.57
   1  -6   1   13.85    0.55
  -2   6  -1   74.09    1.82
  -2   6  -1   69.22    1.79
  -2   6  -1   72.65    1.76
  -2   6  -1   69.65    1.77
  -2   6  -1   71.14    1.67
   2  -6   1   66.55    1.78
   2  -6   1   72.55    1.81
   2  -6   1   70.30    1.79
  -3   6  -1    8.38    0.40
  -3   6  -1    8.23    0.35
  -3   6  -1    7.82    0.39
  -3   6  -1    8.61    0.39
  -3   6  -1    7.78    0.29
  -3   6  -1    8.33    0.39
   3  -6   1    8.22    0.40
   3  -6   1    7.87    0.38
   3  -6   1    7.87    0.40
  -4   6  -1   -0.04    0.06
  -4   6  -1   -0.01    0.10
  -4   6  -1    0.01    0.08
  -4   6  -1   -0.09    0.09
  -4   6  -1    0.03    0.10
  -4   6  -1    0.01    0.08
   4  -6   1    0.11    0.09
   4  -6   1    0.06    0.08
   4  -6   1    0.04    0.11
   4  -6   1    0.25    0.10
   4  -6   1    0.03    0.08
  -5   6  -1    0.42    0.12
  -5   6  -1    0.54    0.13
  -5   6  -1    0.39    0.12
  -5   6  -1    0.59    0.13
  -5   6  -1    0.48    0.11
  -5   6  -1    0.54    0.12
   5  -6   1    0.44    0.13
   5  -6   1    0.55    0.13
   5  -6   1    0.61    0.16
   5  -6   1    0.27    0.10
   5  -6   1    0.49    0.12
  -6   6  -1    0.25    0.10
  -6   6  -1    0.28    0.11
  -6   6  -1    0.33    0.12
  -6   6  -1    0.33    0.11
  -6   6  -1    0.40    0.15
  -6   6  -1    0.16    0.11
   6  -6   1    0.30    0.13
   6  -6   1    0.39    0.14
  -7   6  -1    1.83    0.25
  -7   6  -1    1.49    0.20
  -7   6  -1    2.14    0.28
   7  -6   1    2.16    0.30
   7  -6   1    1.55    0.23
  -8   6  -1    0.60    0.15
   8  -6   1    0.25    0.23
   8  -6   1    0.60    0.17
  -9   6  -1    0.05    0.12
  -9   6  -1    0.17    0.14
   9  -6   1    0.18    0.15
   9  -6   1    0.33    0.17
 -10   6  -1   -0.13    0.13
  10  -6   1   -0.01    0.17
   7   5  -1   -0.15    0.16
   7   5  -1    0.09    0.16
   7   5  -1   -0.07    0.09
  -7  -5   1    0.29    0.18
  -7  -5   1   -0.37    0.15
  -7  -5   1   -0.31    0.18
   6   5  -1    0.11    0.14
   6   5  -1    0.21    0.15
   6   5  -1    0.00    0.10
  -6  -5   1   -0.14    0.16
  -6  -5   1   -0.20    0.09
  -6  -5   1    0.14    0.17
  -6  -5   1    0.05    0.19
   5   5  -1    4.44    0.34
   5   5  -1    3.70    0.32
   5   5  -1    3.96    0.38
  -5  -5   1    3.87    0.38
  -5  -5   1    4.06    0.44
  -5  -5   1    4.87    0.59
  -5  -5   1    4.29    0.43
  -5  -5   1    3.74    0.27
   4   5  -1   32.72    1.03
   4   5  -1   31.11    1.09
   4   5  -1   31.84    0.99
  -4  -5   1   33.95    1.15
  -4  -5   1   33.26    1.07
  -4  -5   1   35.35    1.09
  -4  -5   1   32.36    0.92
   3   5  -1   17.63    0.65
   3   5  -1   16.62    0.54
   3   5  -1   16.54    0.62
   3   5  -1   16.33    0.65
   3   5  -1   16.78    0.60
  -3  -5   1   18.16    0.90
  -3  -5   1   17.11    0.70
  -3  -5   1   17.23    0.67
  -3  -5   1   14.30    0.67
  -3  -5   1   16.87    0.67
   2   5  -1    0.38    0.08
   2   5  -1    0.29    0.11
   2   5  -1    0.66    0.16
   2   5  -1    0.34    0.08
   2   5  -1    0.49    0.13
  -2  -5   1    0.20    0.08
  -2  -5   1    0.30    0.13
  -2  -5   1    0.16    0.13
  -2  -5   1    0.23    0.12
  -2  -5   1    0.56    0.17
   1   5  -1    4.23    0.22
   1   5  -1    3.77    0.19
   1   5  -1    3.65    0.28
   1   5  -1    3.67    0.26
   1   5  -1    3.73    0.27
  -1  -5   1    4.24    0.30
  -1  -5   1    3.75    0.22
  -1  -5   1    3.80    0.30
  -1  -5   1    4.22    0.28
  -1  -5   1    3.92    0.33
   0   5  -1    7.64    0.52
   0   5  -1    7.04    0.30
   0   5  -1    7.11    0.36
   0   5  -1    7.28    0.34
   0  -5   1    6.29    0.30
   0  -5   1    6.73    0.42
   0  -5   1    7.00    0.38
   0  -5   1    7.06    0.32
   0  -5   1    7.41    0.38
  -1   5  -1   82.73    1.91
  -1   5  -1   76.97    1.95
  -1   5  -1   79.95    2.04
  -1   5  -1   81.32    1.97
   1  -5   1   80.47    2.27
   1  -5   1   76.08    1.92
   1  -5   1   78.79    1.86
   1  -5   1   81.20    1.98
   1  -5   1   81.42    1.95
  -2   5  -1   41.68    1.13
  -2   5  -1   41.45    1.12
  -2   5  -1   43.75    1.07
  -2   5  -1   44.58    1.12
  -2   5  -1   45.07    1.16
   2  -5   1   42.98    1.15
   2  -5   1   40.31    1.36
  -3   5  -1    0.48    0.12
  -3   5  -1    0.41    0.07
  -3   5  -1    0.46    0.15
  -3   5  -1    0.41    0.10
  -3   5  -1    0.59    0.12
  -3   5  -1    0.34    0.10
   3  -5   1    0.50    0.12
   3  -5   1    0.46    0.11
   3  -5   1    0.48    0.11
   3  -5   1    0.48    0.13
  -4   5  -1    9.39    0.39
  -4   5  -1    9.09    0.36
  -4   5  -1    9.14    0.39
  -4   5  -1    8.46    0.35
  -4   5  -1    9.47    0.40
   4  -5   1    9.06    0.41
   4  -5   1    8.63    0.36
   4  -5   1    9.50    0.41
   4  -5   1    8.92    0.40
   4  -5   1    8.98    0.41
  -5   5  -1    6.12    0.42
  -5   5  -1    5.24    0.25
  -5   5  -1    5.30    0.29
  -5   5  -1    5.30    0.34
  -5   5  -1    5.08    0.32
  -5   5  -1    4.97    0.33
   5  -5   1    5.59    0.35
   5  -5   1    5.17    0.35
  -6   5  -1    0.99    0.16
  -6   5  -1    1.09    0.15
  -6   5  -1    0.87    0.16
  -6   5  -1    0.90    0.18
   6  -5   1    1.05    0.19
   6  -5   1    0.91    0.16
  -7   5  -1    0.83    0.16
  -7   5  -1    0.78    0.15
  -7   5  -1    0.96    0.18
   7  -5   1    0.81    0.19
   7  -5   1    1.19    0.21
  -8   5  -1    0.10    0.10
  -8   5  -1    0.13    0.14
  -8   5  -1    0.04    0.11
   8  -5   1    0.04    0.15
   8  -5   1   -0.04    0.11
  -9   5  -1   -0.13    0.12
  -9   5  -1   -0.21    0.09
   9  -5   1   -0.11    0.10
   9  -5   1   -0.11    0.12
 -10   5  -1   -0.28    0.12
 -10   5  -1   -0.10    0.12
 -10   5  -1    0.07    0.14
   7   4  -1    0.16    0.10
   7   4  -1    0.23    0.16
  -7  -4   1   -0.21    0.15
   6   4  -1    9.79    0.46
   6   4  -1   10.43    0.59
   6   4  -1    9.19    0.46
   6   4  -1    9.27    0.51
   6   4  -1    9.07    0.80
  -6  -4   1   10.38    0.52
  -6  -4   1    9.73    0.42
  -6  -4   1   10.35    0.77
  -6  -4   1   10.61    0.64
  -6  -4   1    9.95    0.59
  -6  -4   1    9.84    0.50
   5   4  -1    2.60    0.28
   5   4  -1    2.95    0.33
   5   4  -1    2.92    0.28
   5   4  -1    2.62    0.29
   5   4  -1    2.43    0.31
  -5  -4   1    3.00    0.34
  -5  -4   1    2.52    0.37
  -5  -4   1    2.78    0.32
  -5  -4   1    3.54    0.39
  -5  -4   1    2.41    0.25
  -5  -4   1    2.84    0.32
   4   4  -1    0.74    0.15
   4   4  -1    1.06    0.18
   4   4  -1    0.70    0.14
   4   4  -1    1.20    0.19
  -4  -4   1    1.06    0.21
  -4  -4   1    1.10    0.19
  -4  -4   1    0.97    0.22
  -4  -4   1    0.79    0.11
  -4  -4   1    1.18    0.20
   3   4  -1   -0.06    0.07
   3   4  -1    0.00    0.09
   3   4  -1   -0.03    0.06
   3   4  -1   -0.03    0.08
  -3  -4   1    0.03    0.10
  -3  -4   1   -0.09    0.09
  -3  -4   1   -0.06    0.10
  -3  -4   1   -0.04    0.05
  -3  -4   1   -0.03    0.10
   2   4  -1    7.24    0.29
   2   4  -1    7.25    0.36
   2   4  -1    7.47    0.28
   2   4  -1    6.81    0.34
   2   4  -1    7.18    0.35
  -2  -4   1    7.12    0.29
  -2  -4   1    6.70    0.36
  -2  -4   1    7.02    0.35
  -2  -4   1    7.32    0.52
   1   4  -1   32.47    0.80
   1   4  -1   31.16    0.90
   1   4  -1   32.99    0.92
   1   4  -1   31.77    0.89
   1   4  -1   32.67    0.83
  -1  -4   1   30.23    0.90
  -1  -4   1   33.27    0.93
  -1  -4   1   32.95    0.90
  -1  -4   1   33.12    0.91
  -1  -4   1   31.40    0.83
   0   4  -1   20.02    0.64
   0   4  -1   20.96    0.57
   0   4  -1   19.46    0.63
   0   4  -1   20.49    0.61
   0  -4   1   20.15    0.59
   0  -4   1   19.88    0.57
   0  -4   1   19.75    0.65
   0  -4   1   20.78    0.62
  -1   4  -1    0.52    0.09
  -1   4  -1    0.45    0.11
  -1   4  -1    0.44    0.10
  -1   4  -1    0.42    0.06
  -1   4  -1    0.24    0.06
  -1   4  -1    0.34    0.07
   1  -4   1    0.41    0.09
   1  -4   1    0.37    0.07
   1  -4   1    0.30    0.08
   1  -4   1    0.39    0.11
   1  -4   1    0.30    0.10
  -2   4  -1   44.13    1.14
  -2   4  -1   46.59    1.16
  -2   4  -1   45.65    1.07
  -2   4  -1   45.50    1.11
  -2   4  -1   46.45    1.15
  -2   4  -1   45.15    1.15
   2  -4   1   45.77    1.15
   2  -4   1   45.19    1.16
   2  -4   1   44.16    1.14
  -3   4  -1    0.64    0.11
  -3   4  -1    0.42    0.09
  -3   4  -1    0.41    0.07
  -3   4  -1    0.40    0.10
  -3   4  -1    0.44    0.10
   3  -4   1    0.41    0.10
   3  -4   1    0.49    0.10
   3  -4   1    0.42    0.09
   3  -4   1    0.33    0.09
   3  -4   1    0.52    0.10
  -4   4  -1    0.06    0.08
  -4   4  -1    0.02    0.08
  -4   4  -1    0.12    0.08
  -4   4  -1    0.12    0.08
  -4   4  -1    0.00    0.08
  -4   4  -1    0.02    0.07
   4  -4   1    0.11    0.14
   4  -4   1    0.07    0.08
   4  -4   1    0.09    0.10
   4  -4   1    0.07    0.06
   4  -4   1    0.07    0.07
  -5   4  -1    0.81    0.12
  -5   4  -1    0.79    0.14
  -5   4  -1    0.76    0.15
  -5   4  -1    0.85    0.16
  -5   4  -1    0.84    0.14
   5  -4   1    1.06    0.16
   5  -4   1    1.05    0.17
  -6   4  -1    6.59    0.37
  -6   4  -1    6.99    0.36
  -6   4  -1    6.42    0.36
  -6   4  -1    6.27    0.38
  -6   4  -1    6.19    0.37
  -6   4  -1    6.85    0.31
  -6   4  -1    6.08    0.35
   6  -4   1    6.12    0.40
   6  -4   1    6.58    0.39
  -7   4  -1   -0.17    0.11
  -7   4  -1    0.01    0.09
  -7   4  -1    0.02    0.09
  -7   4  -1    0.07    0.10
  -7   4  -1    0.09    0.15
   7  -4   1   -0.04    0.10
   7  -4   1   -0.03    0.11
  -8   4  -1   -0.03    0.12
  -8   4  -1   -0.06    0.10
  -8   4  -1   -0.18    0.10
   8  -4   1   -0.11    0.11
   8  -4   1   -0.03    0.12
  -9   4  -1   -0.05    0.12
  -9   4  -1   -0.15    0.10
  -9   4  -1   -0.13    0.13
 -10   4  -1    0.23    0.15
 -10   4  -1   -0.20    0.10
 -10   4  -1   -0.11    0.13
   8   3  -1    0.64    0.18
   8   3  -1    0.20    0.13
  -8  -3   1    0.36    0.17
  -8  -3   1    0.73    0.19
  -8  -3   1    0.40    0.18
   7   3  -1    0.93    0.21
   7   3  -1    1.04    0.22
  -7  -3   1    1.22    0.22
  -7  -3   1    1.45    0.27
  -7  -3   1    1.43    0.22
   6   3  -1    0.24    0.13
   6   3  -1    0.10    0.11
   6   3  -1    0.13    0.13
   6   3  -1   -0.04    0.11
   6   3  -1    0.25    0.12
  -6  -3   1    0.05    0.13
  -6  -3   1    0.04    0.16
  -6  -3   1    0.13    0.16
  -6  -3   1    0.08    0.09
  -6  -3   1    0.29    0.15
  -6  -3   1    0.10    0.14
   5   3  -1    0.64    0.14
   5   3  -1    0.41    0.13
   5   3  -1    0.60    0.14
   5   3  -1    0.46    0.15
   5   3  -1    0.80    0.16
   5   3  -1    0.71    0.15
  -5  -3   1    0.50    0.16
  -5  -3   1    0.48    0.13
  -5  -3   1    0.48    0.10
  -5  -3   1    0.71    0.16
  -5  -3   1    0.67    0.14
  -5  -3   1    0.49    0.13
  -5  -3   1    0.60    0.17
   4   3  -1    2.27    0.21
   4   3  -1    2.39    0.21
   4   3  -1    2.10    0.24
   4   3  -1    1.87    0.22
   4   3  -1    2.31    0.19
   4   3  -1    2.26    0.23
  -4  -3   1    2.03    0.25
  -4  -3   1    2.36    0.27
  -4  -3   1    2.06    0.28
  -4  -3   1    2.05    0.25
  -4  -3   1    2.16    0.22
  -4  -3   1    2.26    0.17
   3   3  -1    5.90    0.30
   3   3  -1    5.87    0.32
   3   3  -1    6.02    0.25
   3   3  -1    5.83    0.30
   3   3  -1    6.10    0.29
  -3  -3   1    6.01    0.25
  -3  -3   1    5.99    0.38
  -3  -3   1    5.90    0.31
  -3  -3   1    5.74    0.33
  -3  -3   1    6.16    0.36
   2   3  -1    5.61    0.28
   2   3  -1    5.89    0.29
   2   3  -1    5.86    0.29
   2   3  -1    5.84    0.25
   2   3  -1    5.81    0.23
  -2  -3   1    5.61    0.30
  -2  -3   1    5.91    0.23
  -2  -3   1    5.77    0.30
  -2  -3   1    5.37    0.28
  -2  -3   1    5.96    0.31
   1   3  -1   77.24    1.84
   1   3  -1   78.47    1.87
   1   3  -1   77.55    1.86
   1   3  -1   82.00    1.79
   1   3  -1   78.97    1.80
  -1  -3   1   79.22    1.87
  -1  -3   1   77.09    1.80
  -1  -3   1   76.01    1.86
  -1  -3   1   78.74    1.88
  -1  -3   1   78.53    1.85
   0   3  -1   27.49    0.71
   0   3  -1   27.16    0.72
   0   3  -1   28.45    0.75
   0   3  -1   27.95    0.70
   0   3  -1   26.67    0.74
   0  -3   1   27.99    0.74
   0  -3   1   28.04    0.76
   0  -3   1   26.55    0.70
   0  -3   1   27.96    0.72
   0  -3   1   27.42    0.75
  -1   3  -1   10.14    0.35
  -1   3  -1    9.77    0.34
  -1   3  -1   10.30    0.33
  -1   3  -1    9.69    0.29
  -1   3  -1    9.97    0.34
   1  -3   1   10.28    0.35
   1  -3   1    9.92    0.34
   1  -3   1    9.81    0.35
   1  -3   1    9.78    0.28
   1  -3   1    9.64    0.32
  -2   3  -1    0.35    0.07
  -2   3  -1    0.51    0.08
  -2   3  -1    0.51    0.09
  -2   3  -1    0.51    0.09
  -2   3  -1    0.39    0.06
   2  -3   1    0.51    0.09
   2  -3   1    0.37    0.08
   2  -3   1    0.42    0.08
   2  -3   1    0.40    0.09
  -3   3  -1    8.69    0.34
  -3   3  -1    9.11    0.29
  -3   3  -1    8.61    0.33
  -3   3  -1    9.00    0.29
  -3   3  -1    9.17    0.34
  -3   3  -1    8.54    0.32
   3  -3   1    9.44    0.35
   3  -3   1    8.73    0.32
   3  -3   1    9.13    0.34
   3  -3   1    8.83    0.35
   3  -3   1    8.73    0.28
  -4   3  -1   15.20    0.51
  -4   3  -1   15.28    0.61
  -4   3  -1   15.67    0.59
  -4   3  -1   15.99    0.51
  -4   3  -1   15.13    0.59
   4  -3   1   15.82    0.55
   4  -3   1   15.66    0.53
   4  -3   1   16.00    0.55
  -5   3  -1   10.08    0.45
  -5   3  -1   10.55    0.45
  -5   3  -1   10.74    0.45
  -5   3  -1   10.13    0.44
  -5   3  -1   10.76    0.43
  -5   3  -1   10.98    0.42
   5  -3   1   11.03    0.47
   5  -3   1   10.98    0.45
   5  -3   1   10.56    0.47
  -6   3  -1    0.03    0.10
  -6   3  -1   -0.07    0.08
  -6   3  -1    0.01    0.07
  -6   3  -1   -0.05    0.08
  -6   3  -1    0.11    0.08
  -6   3  -1   -0.11    0.09
  -6   3  -1   -0.03    0.09
  -6   3  -1    0.04    0.09
   6  -3   1   -0.04    0.09
   6  -3   1    0.06    0.11
   6  -3   1    0.01    0.10
  -7   3  -1    1.99    0.27
  -7   3  -1    1.88    0.31
  -7   3  -1    2.26    0.26
  -7   3  -1    1.32    0.21
  -7   3  -1    2.26    0.28
  -7   3  -1    1.25    0.17
  -7   3  -1    1.89    0.23
  -7   3  -1    1.61    0.22
   7  -3   1    1.48    0.23
   7  -3   1    2.18    0.29
  -8   3  -1    0.18    0.13
  -8   3  -1    0.05    0.10
  -8   3  -1    0.39    0.15
   8  -3   1    0.11    0.12
  -9   3  -1    0.15    0.15
  -9   3  -1    0.13    0.11
  -9   3  -1    0.04    0.12
 -10   3  -1    0.04    0.11
 -10   3  -1   -0.18    0.13
   8   2  -1    0.44    0.15
   8   2  -1    0.91    0.20
  -8  -2   1    0.61    0.18
  -8  -2   1    0.22    0.20
   7   2  -1    3.01    0.34
   7   2  -1    3.08    0.38
  -7  -2   1    3.99    0.40
  -7  -2   1    2.75    0.25
  -7  -2   1    3.26    0.26
  -7  -2   1    4.35    0.44
   6   2  -1    5.49    0.39
   6   2  -1    5.72    0.39
   6   2  -1    5.98    0.43
   6   2  -1    5.83    0.35
  -6  -2   1    5.93    0.32
  -6  -2   1    6.37    0.41
  -6  -2   1    5.59    0.28
  -6  -2   1    5.79    0.45
  -6  -2   1    5.57    0.39
  -6  -2   1    6.00    0.42
  -6  -2   1    6.21    0.32
   5   2  -1    4.81    0.26
   5   2  -1    5.15    0.34
   5   2  -1    4.93    0.35
   5   2  -1    5.20    0.30
   5   2  -1    5.68    0.35
   5   2  -1    5.02    0.26
  -5  -2   1    5.24    0.32
  -5  -2   1    5.01    0.38
  -5  -2   1    5.37    0.35
  -5  -2   1    4.91    0.35
  -5  -2   1    5.27    0.29
  -5  -2   1    5.32    0.30
  -5  -2   1    5.00    0.24
  -5  -2   1    5.42    0.32
   4   2  -1    0.15    0.09
   4   2  -1    0.10    0.08
   4   2  -1    0.07    0.07
   4   2  -1    0.14    0.09
   4   2  -1    0.05    0.07
   4   2  -1    0.10    0.09
  -4  -2   1    0.18    0.06
  -4  -2   1   -0.04    0.06
  -4  -2   1    0.22    0.20
  -4  -2   1   -0.02    0.09
  -4  -2   1    0.13    0.10
  -4  -2   1    0.04    0.11
  -4  -2   1    0.10    0.09
   3   2  -1    5.26    0.26
   3   2  -1    4.89    0.27
   3   2  -1    4.98    0.24
   3   2  -1    4.96    0.24
   3   2  -1    4.97    0.24
  -3  -2   1    5.23    0.27
  -3  -2   1    5.12    0.28
  -3  -2   1    5.04    0.21
  -3  -2   1    5.00    0.25
  -3  -2   1    5.29    0.25
  -3  -2   1    5.03    0.31
   2   2  -1    9.60    0.30
   2   2  -1    9.78    0.33
   2   2  -1    9.71    0.34
   2   2  -1    9.40    0.34
   2   2  -1    9.63    0.35
  -2  -2   1    9.66    0.35
  -2  -2   1    9.64    0.30
  -2  -2   1    9.24    0.35
  -2  -2   1    9.27    0.34
  -2  -2   1    9.74    0.38
  -2  -2   1    9.61    0.32
   1   2  -1    0.57    0.10
   1   2  -1    0.63    0.08
   1   2  -1    0.54    0.09
   1   2  -1    0.52    0.08
   1   2  -1    0.59    0.08
   1   2  -1    0.72    0.11
  -1  -2   1    0.41    0.07
  -1  -2   1    0.53    0.09
  -1  -2   1    0.51    0.10
  -1  -2   1    0.64    0.08
  -1  -2   1    0.42    0.08
  -1  -2   1    0.41    0.05
   0   2  -1  443.15   10.50
   0  -2   1  431.33   10.49
  -1   2  -1   14.83    0.40
  -1   2  -1   14.47    0.36
  -1   2  -1   14.13    0.40
  -1   2  -1   14.78    0.39
  -1   2  -1   14.81    0.35
   1  -2   1   14.51    0.35
   1  -2   1   14.35    0.39
   1  -2   1   14.08    0.40
   1  -2   1   14.51    0.40
  -2   2  -1   20.04    0.53
  -2   2  -1   19.85    0.50
  -2   2  -1   20.14    0.51
  -2   2  -1   19.29    0.53
  -2   2  -1   20.04    0.50
  -2   2  -1   19.94    0.54
   2  -2   1   19.64    0.54
   2  -2   1   20.03    0.54
   2  -2   1   20.03    0.50
   2  -2   1   17.57    0.49
   2  -2   1   19.92    0.52
   2  -2   1   19.41    0.53
  -3   2  -1   40.98    1.05
  -3   2  -1   41.06    1.02
  -3   2  -1   40.80    1.03
  -3   2  -1   41.04    1.04
  -3   2  -1   41.49    1.05
  -3   2  -1   41.53    1.05
   3  -2   1   41.14    1.06
   3  -2   1   41.50    1.04
   3  -2   1   40.68    1.05
  -4   2  -1    0.94    0.18
  -4   2  -1    1.11    0.14
  -4   2  -1    0.74    0.11
  -4   2  -1    0.82    0.12
  -4   2  -1    0.92    0.17
  -4   2  -1    1.09    0.18
   4  -2   1    0.77    0.12
   4  -2   1    0.85    0.13
   4  -2   1    0.82    0.13
   4  -2   1    0.64    0.11
  -5   2  -1    0.24    0.08
  -5   2  -1    0.19    0.10
  -5   2  -1    0.36    0.12
  -5   2  -1    0.21    0.09
  -5   2  -1    0.19    0.09
  -5   2  -1    0.35    0.09
  -5   2  -1    0.30    0.13
   5  -2   1    0.21    0.11
   5  -2   1    0.20    0.10
   5  -2   1    0.19    0.10
   5  -2   1    0.23    0.10
  -6   2  -1    1.19    0.19
  -6   2  -1    1.12    0.17
  -6   2  -1    1.26    0.20
  -6   2  -1    0.95    0.17
  -6   2  -1    0.67    0.14
  -6   2  -1    1.04    0.14
  -6   2  -1    0.83    0.15
  -6   2  -1    1.00    0.15
   6  -2   1    0.83    0.17
   6  -2   1    0.74    0.16
   6  -2   1    0.79    0.14
  -7   2  -1    0.46    0.14
  -7   2  -1    0.58    0.15
  -7   2  -1    0.56    0.16
  -7   2  -1    0.33    0.12
  -7   2  -1    0.64    0.17
  -7   2  -1    0.47    0.14
  -7   2  -1    0.38    0.13
   7  -2   1    0.44    0.14
   7  -2   1    0.48    0.14
  -8   2  -1    0.04    0.12
  -8   2  -1    0.11    0.10
  -8   2  -1    0.16    0.15
   8  -2   1    0.01    0.14
   8  -2   1    0.22    0.12
  -9   2  -1    0.17    0.10
  -9   2  -1    0.09    0.14
  -9   2  -1   -0.03    0.12
   9  -2   1   -0.18    0.13
   9  -2   1    0.03    0.13
   9   1  -1    0.11    0.17
  -9  -1   1   -0.12    0.16
  -9  -1   1   -0.15    0.15
  -9  -1   1   -0.05    0.09
   8   1  -1    1.37    0.24
   8   1  -1    1.21    0.21
  -8  -1   1    2.25    0.52
  -8  -1   1    1.61    0.24
   7   1  -1    0.55    0.15
   7   1  -1    0.61    0.16
   7   1  -1    0.75    0.20
  -7  -1   1    0.97    0.20
  -7  -1   1    0.84    0.13
  -7  -1   1    0.68    0.15
  -7  -1   1    0.67    0.19
   6   1  -1   11.84    0.50
   6   1  -1   11.67    0.54
   6   1  -1   11.26    0.55
  -6  -1   1   10.43    0.49
  -6  -1   1   11.83    0.57
  -6  -1   1   10.71    0.41
  -6  -1   1   11.97    0.51
  -6  -1   1   10.52    0.62
  -6  -1   1   10.94    0.51
   5   1  -1    0.09    0.08
   5   1  -1    0.09    0.09
   5   1  -1    0.11    0.08
   5   1  -1    0.02    0.08
  -5  -1   1   -0.01    0.06
  -5  -1   1   -0.02    0.10
  -5  -1   1   -0.03    0.07
  -5  -1   1   -0.01    0.10
  -5  -1   1    0.07    0.09
  -5  -1   1    0.06    0.08
  -5  -1   1    0.01    0.07
  -5  -1   1   -0.01    0.09
  -5  -1   1    0.12    0.09
   4   1  -1    3.77    0.27
   4   1  -1    3.69    0.24
   4   1  -1    3.31    0.18
   4   1  -1    3.63    0.24
   4   1  -1    3.46    0.30
  -4  -1   1    3.86    0.27
  -4  -1   1    3.36    0.20
  -4  -1   1    3.24    0.23
  -4  -1   1    3.70    0.25
  -4  -1   1    3.60    0.31
  -4  -1   1    3.76    0.24
  -4  -1   1    3.23    0.20
   3   1  -1   30.89    0.84
   3   1  -1   31.86    0.82
   3   1  -1   30.12    0.81
   3   1  -1   30.28    0.76
   3   1  -1   30.72    0.77
  -3  -1   1   30.02    0.77
  -3  -1   1   30.27    0.81
  -3  -1   1   30.57    0.81
  -3  -1   1   30.73    0.78
  -3  -1   1   30.85    0.87
  -3  -1   1   29.71    0.79
  -3  -1   1   31.49    0.83
   2   1  -1    0.24    0.06
   2   1  -1    0.23    0.06
   2   1  -1    0.43    0.08
   2   1  -1    0.34    0.07
   2   1  -1    0.22    0.06
   2   1  -1    0.26    0.07
  -2  -1   1    0.32    0.05
  -2  -1   1    0.31    0.06
  -2  -1   1    0.27    0.07
  -2  -1   1    0.26    0.08
  -2  -1   1    0.31    0.06
  -2  -1   1    0.32    0.08
   1   1  -1   23.03    0.55
   1   1  -1   23.29    0.56
   1   1  -1   22.37    0.56
   1   1  -1   23.17    0.59
   1   1  -1   23.05    0.57
   1   1  -1   23.03    0.57
  -1  -1   1   22.85    0.56
  -1  -1   1   22.49    0.57
  -1  -1   1   21.50    0.56
  -1  -1   1   22.71    0.55
  -1  -1   1   22.93    0.57
  -1  -1   1   23.12    0.59
  -1   1  -1    0.71    0.07
  -1   1  -1    0.75    0.07
  -1   1  -1    0.77    0.07
  -1   1  -1    0.79    0.07
  -1   1  -1    0.77    0.06
   1  -1   1    0.71    0.06
   1  -1   1    0.67    0.06
   1  -1   1    0.77    0.06
   1  -1   1    0.67    0.07
   1  -1   1    0.66    0.08
  -2   1  -1   30.34    0.78
  -2   1  -1   30.56    0.74
  -2   1  -1   31.47    0.77
  -2   1  -1   31.23    0.78
  -2   1  -1   30.90    0.76
  -2   1  -1   30.18    0.77
   2  -1   1   31.16    0.77
   2  -1   1   29.37    0.74
   2  -1   1   31.76    0.78
   2  -1   1   32.32    0.78
  -3   1  -1   21.44    0.57
  -3   1  -1   20.95    0.62
  -3   1  -1   22.31    0.61
  -3   1  -1   21.40    0.62
  -3   1  -1   21.87    0.62
  -3   1  -1   21.81    0.63
   3  -1   1   22.06    0.63
   3  -1   1   21.94    0.63
   3  -1   1   21.84    0.62
   3  -1   1   21.97    0.64
  -4   1  -1    0.81    0.12
  -4   1  -1    0.63    0.17
  -4   1  -1    0.65    0.13
  -4   1  -1    0.66    0.11
  -4   1  -1    0.71    0.09
  -4   1  -1    0.66    0.11
   4  -1   1    0.74    0.13
   4  -1   1    0.71    0.11
   4  -1   1    0.64    0.11
  -5   1  -1    3.57    0.21
  -5   1  -1    3.49    0.27
  -5   1  -1    3.65    0.28
  -5   1  -1    3.32    0.27
  -5   1  -1    3.79    0.26
  -5   1  -1    3.41    0.27
  -5   1  -1    3.48    0.25
   5  -1   1    3.49    0.27
   5  -1   1    3.62    0.28
   5  -1   1    3.44    0.28
  -6   1  -1    8.63    0.45
  -6   1  -1    8.62    0.43
  -6   1  -1    8.07    0.41
  -6   1  -1    9.11    0.45
  -6   1  -1    8.61    0.45
  -6   1  -1    9.52    0.46
  -6   1  -1    9.41    0.47
  -6   1  -1    9.65    0.37
   6  -1   1    9.28    0.47
   6  -1   1    9.38    0.47
  -7   1  -1    0.14    0.14
  -7   1  -1    0.25    0.12
  -7   1  -1    0.11    0.09
  -7   1  -1    0.02    0.13
  -7   1  -1    0.29    0.14
   7  -1   1    0.16    0.12
   7  -1   1   -0.05    0.10
  -8   1  -1   -0.16    0.13
  -8   1  -1   -0.10    0.08
  -8   1  -1   -0.12    0.10
   8  -1   1   -0.12    0.12
   8  -1   1   -0.13    0.17
  -9   1  -1   -0.25    0.12
  -9   1  -1   -0.10    0.15
   9  -1   1    0.12    0.15
   9  -1   1   -0.04    0.14
   9   0  -1    0.36    0.17
  -9   0   1    0.25    0.14
  -9   0   1    0.20    0.17
  -9   0   1   -0.08    0.13
  -9   0   1    0.18    0.11
   8   0  -1   -0.04    0.10
   8   0  -1   -0.15    0.14
  -8   0   1    0.03    0.10
  -8   0   1   -0.06    0.12
  -8   0   1    0.15    0.17
   7   0  -1    5.48    0.41
   7   0  -1    4.96    0.40
   7   0  -1    4.99    0.37
  -7   0   1    5.66    0.37
  -7   0   1    6.06    0.44
  -7   0   1    4.39    0.37
   6   0  -1   10.29    0.49
   6   0  -1    9.98    0.46
   6   0  -1    9.60    0.48
  -6   0   1    9.59    0.49
  -6   0   1    9.20    0.45
  -6   0   1    8.97    0.45
  -6   0   1    9.07    0.49
  -6   0   1    9.41    0.45
  -6   0   1    9.31    0.45
   5   0  -1    2.97    0.26
   5   0  -1    2.95    0.25
   5   0  -1    3.01    0.27
  -5   0   1    2.99    0.28
  -5   0   1    3.10    0.24
  -5   0   1    2.65    0.25
  -5   0   1    2.85    0.24
  -5   0   1    2.41    0.23
  -5   0   1    2.78    0.24
   4   0  -1   19.75    0.61
   4   0  -1   19.55    0.63
   4   0  -1   19.48    0.63
  -4   0   1   19.11    0.61
  -4   0   1   18.86    0.66
  -4   0   1   19.32    0.63
  -4   0   1   18.80    0.60
  -4   0   1   18.67    0.62
  -4   0   1   19.70    0.58
  -4   0   1   18.78    0.68
   3   0  -1   31.24    0.80
   3   0  -1   31.60    0.85
   3   0  -1   32.76    0.85
   3   0  -1   32.39    0.84
  -3   0   1   31.22    0.83
  -3   0   1   31.44    0.85
  -3   0   1   30.50    0.83
  -3   0   1   31.72    0.83
  -3   0   1   31.98    0.80
  -3   0   1   31.03    0.85
  -3   0   1   32.03    0.85
   2   0  -1  163.78    3.58
   2   0  -1  162.16    3.65
   2   0  -1  163.01    3.61
   2   0  -1  168.33    3.65
   2   0  -1  165.99    3.64
   2   0  -1  164.54    3.65
   2   0  -1  167.05    3.63
  -2   0   1  165.43    3.65
  -2   0   1  157.63    3.59
  -2   0   1  162.25    3.64
  -2   0   1  162.31    3.63
  -2   0   1  161.24    3.65
  -2   0   1  163.60    3.60
  -2   0   1  164.56    3.64
  -2   0   1  166.51    3.65
   1   0  -1   12.01    0.34
   1   0  -1   11.18    0.30
   1   0  -1   11.46    0.30
   1   0  -1   11.81    0.30
  -1   0   1   12.33    0.38
  -1   0   1   11.96    0.33
  -1   0   1   12.44    0.35
  -1   0  -1   87.89    2.00
  -1   0  -1   91.64    2.01
  -1   0  -1   91.63    2.03
  -1   0  -1   89.96    1.99
  -1   0  -1   92.78    2.02
   1   0   1   87.40    1.99
   1   0   1   88.89    2.02
   1   0   1   93.35    2.00
   1   0   1   89.30    1.99
  -2   0  -1   37.79    0.88
  -2   0  -1   37.51    0.92
  -2   0  -1   37.56    0.92
  -2   0  -1   36.52    0.90
  -2   0  -1   37.73    0.93
  -2   0  -1   38.38    0.94
  -2   0  -1   37.61    0.92
   2   0   1   39.41    0.94
   2   0   1   38.33    0.93
   2   0   1   37.72    0.87
   2   0   1   38.05    0.94
  -3   0  -1    4.85    0.25
  -3   0  -1    4.97    0.23
  -3   0  -1    4.76    0.23
  -3   0  -1    4.93    0.25
  -3   0  -1    4.47    0.23
   3   0   1    4.96    0.25
   3   0   1    5.10    0.25
   3   0   1    4.68    0.25
  -4   0  -1    0.71    0.12
  -4   0  -1    0.78    0.13
  -4   0  -1    0.60    0.11
  -4   0  -1    0.74    0.12
  -4   0  -1    0.70    0.13
   4   0   1    0.78    0.14
   4   0   1    0.83    0.15
   4   0   1    0.84    0.13
  -5   0  -1    3.52    0.29
  -5   0  -1    3.84    0.29
  -5   0  -1    3.71    0.26
  -5   0  -1    3.74    0.27
  -5   0  -1    4.13    0.28
  -5   0  -1    3.76    0.21
   5   0   1    3.94    0.29
  -6   0  -1    9.51    0.45
  -6   0  -1    9.75    0.49
  -6   0  -1    9.13    0.48
  -6   0  -1    9.63    0.46
  -6   0  -1    9.41    0.49
  -6   0  -1    9.45    0.51
  -6   0  -1    9.70    0.35
   6   0   1   10.03    0.49
   6   0   1    9.81    0.48
  -7   0  -1   -0.08    0.12
  -7   0  -1   -0.17    0.12
  -7   0  -1   -0.29    0.20
  -7   0  -1    0.16    0.12
   7   0   1   -0.02    0.12
   7   0   1   -0.02    0.10
  -8   0  -1    0.15    0.15
  -8   0  -1    0.20    0.13
   8   0   1    0.13    0.20
   8   0   1   -0.10    0.09
  -9   0  -1    0.49    0.20
   9   0   1    0.66    0.18
   9   0   1    0.71    0.19
   9  -1  -1    0.96    0.25
  -9   1   1    0.62    0.19
  -9   1   1    0.60    0.15
  -9   1   1    0.58    0.14
   8  -1  -1    5.62    0.41
   8  -1  -1    5.31    0.45
  -8   1   1    5.82    0.39
  -8   1   1    5.30    0.43
  -8   1   1    5.34    0.35
   7  -1  -1   -0.07    0.10
   7  -1  -1    0.00    0.11
   7  -1  -1    0.06    0.10
  -7   1   1   -0.07    0.13
  -7   1   1   -0.24    0.15
  -7   1   1   -0.08    0.11
  -7   1   1   -0.10    0.09
  -7   1   1   -0.01    0.12
  -7   1   1    0.00    0.13
   6  -1  -1    0.33    0.13
   6  -1  -1    0.49    0.13
   6  -1  -1    0.32    0.11
  -6   1   1    0.27    0.13
  -6   1   1    0.66    0.13
  -6   1   1    0.37    0.12
  -6   1   1    0.41    0.11
  -6   1   1    0.53    0.14
  -6   1   1    0.51    0.14
  -6   1   1    0.48    0.11
   5  -1  -1    5.18    0.33
   5  -1  -1    5.98    0.34
   5  -1  -1    5.96    0.34
  -5   1   1    5.75    0.32
  -5   1   1    5.79    0.32
  -5   1   1    5.90    0.33
  -5   1   1    5.43    0.33
  -5   1   1    5.72    0.32
  -5   1   1    5.68    0.33
  -5   1   1    5.91    0.29
   4  -1  -1    3.00    0.23
   4  -1  -1    2.89    0.22
   4  -1  -1    2.80    0.22
   4  -1  -1    3.08    0.23
  -4   1   1    2.97    0.24
  -4   1   1    2.93    0.22
  -4   1   1    3.06    0.23
  -4   1   1    2.97    0.22
  -4   1   1    2.89    0.22
  -4   1   1    2.72    0.21
  -4   1   1    2.92    0.19
   3  -1  -1    2.00    0.17
   3  -1  -1    2.20    0.17
   3  -1  -1    2.06    0.17
   3  -1  -1    2.05    0.18
   3  -1  -1    2.05    0.17
  -3   1   1    2.15    0.17
  -3   1   1    2.07    0.17
  -3   1   1    2.03    0.17
  -3   1   1    1.88    0.16
  -3   1   1    1.97    0.16
  -3   1   1    2.06    0.14
   2  -1  -1  344.61    7.55
   2  -1  -1  340.04    7.54
  -2   1   1  344.96    7.55
  -2   1   1  346.98    7.55
  -2   1   1  348.26    7.55
   1  -1  -1  181.78    4.05
   1  -1  -1  188.99    4.03
   1  -1  -1  183.53    4.04
   1  -1  -1  184.87    4.05
  -1   1   1  187.20    4.05
  -1   1   1  182.94    4.04
   0  -1  -1   38.36    0.90
   0  -1  -1   38.89    0.92
   0   1   1   39.43    0.90
  -1  -1  -1  258.74    5.68
  -1  -1  -1  267.39    5.70
  -1  -1  -1  259.80    5.68
  -1  -1  -1  256.86    5.68
   1   1   1  262.21    5.70
   1   1   1  251.91    5.68
  -2  -1  -1   12.24    0.39
  -2  -1  -1   11.33    0.35
  -2  -1  -1   11.82    0.35
  -2  -1  -1   11.92    0.36
  -2  -1  -1   12.11    0.40
   2   1   1   12.30    0.38
   2   1   1   11.54    0.35
   2   1   1   11.32    0.39
   2   1   1   11.75    0.35
   2   1   1   11.74    0.36
  -3  -1  -1    1.02    0.14
  -3  -1  -1    1.36    0.18
  -3  -1  -1    1.18    0.14
  -3  -1  -1    1.14    0.16
   3   1   1    1.08    0.13
   3   1   1    1.30    0.15
   3   1   1    1.25    0.17
   3   1   1    1.24    0.13
   3   1   1    1.48    0.16
  -4  -1  -1  110.87    2.54
  -4  -1  -1  109.93    2.63
  -4  -1  -1  109.47    2.66
  -4  -1  -1  111.86    2.60
  -4  -1  -1  117.22    2.65
   4   1   1  106.70    2.51
   4   1   1  116.11    2.86
   4   1   1  104.88    2.51
   4   1   1  110.62    2.67
   4   1   1  111.37    2.65
  -5  -1  -1    0.05    0.10
  -5  -1  -1    0.13    0.08
  -5  -1  -1    0.06    0.09
  -5  -1  -1    0.07    0.11
  -5  -1  -1    0.15    0.10
  -5  -1  -1    0.17    0.10
   5   1   1    0.22    0.09
   5   1   1    0.06    0.07
  -6  -1  -1    0.18    0.12
  -6  -1  -1    0.03    0.12
  -6  -1  -1    0.22    0.14
  -6  -1  -1   -0.13    0.16
  -6  -1  -1    0.08    0.16
   6   1   1    0.02    0.12
   6   1   1    0.20    0.11
  -7  -1  -1    0.11    0.12
  -7  -1  -1    0.10    0.15
   7   1   1   -0.02    0.13
   7   1   1    0.08    0.10
  -8  -1  -1    0.05    0.14
  -8  -1  -1    0.22    0.19
   8   1   1    0.00    0.11
   8   1   1    0.35    0.14
  -9  -1  -1    0.16    0.18
   9   1   1    0.39    0.23
   9   1   1    0.20    0.14
  10  -2  -1    0.06    0.17
 -10   2   1   -0.15    0.13
 -10   2   1   -0.23    0.14
 -10   2   1   -0.10    0.10
   9  -2  -1    0.02    0.12
  -9   2   1   -0.03    0.11
  -9   2   1   -0.08    0.11
  -9   2   1    0.02    0.14
   8  -2  -1    0.29    0.15
   8  -2  -1    0.37    0.17
  -8   2   1    0.42    0.16
  -8   2   1    0.25    0.12
  -8   2   1    0.34    0.12
   7  -2  -1    3.63    0.35
   7  -2  -1    3.87    0.33
  -7   2   1    3.68    0.30
  -7   2   1    4.29    0.33
  -7   2   1    3.74    0.35
  -7   2   1    3.54    0.39
  -7   2   1    4.00    0.31
  -7   2   1    2.90    0.31
   6  -2  -1    0.70    0.16
   6  -2  -1    0.67    0.14
   6  -2  -1    0.60    0.14
  -6   2   1    0.78    0.15
  -6   2   1    0.52    0.15
  -6   2   1    0.79    0.17
  -6   2   1    0.61    0.14
  -6   2   1    0.71    0.13
  -6   2   1    0.77    0.16
  -6   2   1    0.75    0.16
  -6   2   1    0.71    0.12
   5  -2  -1   11.58    0.48
   5  -2  -1   11.09    0.48
   5  -2  -1   11.76    0.47
  -5   2   1   11.32    0.47
  -5   2   1   11.46    0.47
  -5   2   1   11.41    0.47
  -5   2   1   11.20    0.41
  -5   2   1   11.92    0.43
  -5   2   1   11.04    0.45
  -5   2   1   10.97    0.46
   4  -2  -1   38.69    1.04
   4  -2  -1   39.14    1.04
   4  -2  -1   37.61    1.04
   4  -2  -1   39.85    1.06
  -4   2   1   39.25    1.05
  -4   2   1   39.19    1.09
  -4   2   1   38.45    0.98
  -4   2   1   38.11    1.03
  -4   2   1   37.51    1.06
  -4   2   1   39.79    1.05
   3  -2  -1   83.35    1.94
   3  -2  -1   83.02    1.96
   3  -2  -1   81.34    1.95
  -3   2   1   81.92    1.95
  -3   2   1   84.06    1.96
  -3   2   1   84.32    1.94
  -3   2   1   82.72    1.94
  -3   2   1   81.83    1.87
  -3   2   1   83.56    1.95
   2  -2  -1 1000.00   22.38
   1  -2  -1  218.06    4.93
   1  -2  -1  225.23    4.94
   1  -2  -1  220.15    4.90
   1  -2  -1  222.11    4.91
  -1   2   1  228.64    4.94
  -1   2   1  225.05    4.91
  -1   2   1  227.18    4.94
  -1   2   1  229.02    4.94
   0  -2  -1    3.04    0.16
   0  -2  -1    2.86    0.13
   0  -2  -1    2.44    0.16
   0   2   1    2.63    0.16
   0   2   1    2.73    0.17
   0   2   1    2.94    0.13
  -1  -2  -1    0.82    0.12
  -1  -2  -1    1.04    0.08
  -1  -2  -1    0.99    0.14
  -1  -2  -1    1.07    0.14
   1   2   1    0.91    0.13
   1   2   1    0.86    0.13
   1   2   1    0.91    0.13
   1   2   1    1.08    0.07
  -2  -2  -1    0.03    0.08
  -2  -2  -1    0.08    0.06
  -2  -2  -1    0.17    0.06
  -2  -2  -1    0.03    0.07
  -2  -2  -1    0.07    0.07
   2   2   1    0.06    0.06
   2   2   1    0.06    0.05
   2   2   1    0.07    0.08
   2   2   1    0.15    0.08
  -3  -2  -1   29.55    0.85
  -3  -2  -1   29.86    0.86
  -3  -2  -1   29.51    0.81
  -3  -2  -1   29.40    0.81
  -3  -2  -1   28.96    0.78
   3   2   1   29.57    0.80
   3   2   1   30.76    0.84
   3   2   1   30.32    0.83
   3   2   1   29.12    0.94
   3   2   1   29.71    0.80
  -4  -2  -1    6.88    0.31
  -4  -2  -1    6.69    0.37
  -4  -2  -1    7.54    0.34
  -4  -2  -1    7.43    0.39
  -4  -2  -1    7.15    0.33
   4   2   1    6.91    0.30
   4   2   1    7.36    0.37
   4   2   1    6.67    0.37
   4   2   1    7.49    0.32
   4   2   1    7.38    0.36
  -5  -2  -1    3.00    0.34
  -5  -2  -1    3.57    0.28
  -5  -2  -1    2.97    0.25
  -5  -2  -1    3.41    0.31
  -5  -2  -1    2.82    0.28
  -5  -2  -1    3.33    0.25
   5   2   1    3.18    0.27
   5   2   1    3.51    0.31
   5   2   1    2.86    0.28
   5   2   1    3.18    0.22
   5   2   1    3.06    0.22
  -6  -2  -1    0.39    0.13
  -6  -2  -1    0.13    0.13
  -6  -2  -1    0.18    0.13
  -6  -2  -1    0.26    0.12
  -6  -2  -1    0.32    0.16
  -6  -2  -1    0.07    0.13
  -6  -2  -1    0.12    0.12
   6   2   1    0.19    0.11
   6   2   1    0.14    0.13
  -7  -2  -1    0.26    0.13
  -7  -2  -1    0.28    0.15
  -7  -2  -1    0.09    0.17
  -7  -2  -1   -0.11    0.23
   7   2   1    0.03    0.14
   7   2   1    0.24    0.12
  -8  -2  -1    0.09    0.16
  -8  -2  -1   -0.09    0.14
   8   2   1   -0.09    0.12
   8   2   1    0.09    0.13
 -10   3   1    0.23    0.12
 -10   3   1    0.31    0.16
  -9   3   1    0.06    0.11
  -9   3   1   -0.12    0.11
  -9   3   1    0.15    0.11
   8  -3  -1    2.77    0.32
  -8   3   1    3.14    0.30
  -8   3   1    2.64    0.30
  -8   3   1    2.86    0.30
   7  -3  -1    0.70    0.18
   7  -3  -1    0.56    0.15
  -7   3   1    0.50    0.16
  -7   3   1    0.56    0.14
  -7   3   1    0.59    0.14
  -7   3   1    0.48    0.12
  -7   3   1    0.16    0.20
  -7   3   1    0.34    0.14
  -7   3   1    0.47    0.23
  -7   3   1    0.47    0.19
   6  -3  -1    0.29    0.13
   6  -3  -1    0.51    0.13
   6  -3  -1    0.58    0.14
  -6   3   1    0.48    0.12
  -6   3   1    0.53    0.13
  -6   3   1    0.35    0.12
  -6   3   1    0.57    0.12
  -6   3   1    0.45    0.12
  -6   3   1    0.49    0.13
  -6   3   1    0.54    0.11
  -6   3   1    0.72    0.13
   5  -3  -1    7.14    0.37
   5  -3  -1    6.35    0.36
   5  -3  -1    6.15    0.36
  -5   3   1    6.72    0.36
  -5   3   1    7.04    0.37
  -5   3   1    6.81    0.35
  -5   3   1    7.08    0.37
  -5   3   1    7.10    0.29
  -5   3   1    6.84    0.34
  -5   3   1    6.46    0.34
   4  -3  -1    7.37    0.35
   4  -3  -1    7.76    0.36
   4  -3  -1    7.67    0.34
  -4   3   1    7.34    0.33
  -4   3   1    7.16    0.32
  -4   3   1    6.68    0.45
  -4   3   1    7.53    0.35
  -4   3   1    7.55    0.47
   3  -3  -1    9.69    0.32
   3  -3  -1   10.08    0.32
   3  -3  -1   10.34    0.36
   3  -3  -1   10.34    0.38
   3  -3  -1   10.30    0.38
  -3   3   1   10.01    0.33
  -3   3   1    9.96    0.33
  -3   3   1   10.25    0.38
  -3   3   1   10.39    0.35
  -3   3   1   10.06    0.36
  -3   3   1    9.93    0.37
   2  -3  -1    0.09    0.06
   2  -3  -1    0.05    0.07
   2  -3  -1    0.25    0.06
  -2   3   1    0.04    0.05
  -2   3   1    0.05    0.06
  -2   3   1    0.05    0.07
  -2   3   1    0.08    0.07
  -2   3   1    0.08    0.08
   1  -3  -1    1.47    0.10
   1  -3  -1    1.14    0.14
   1  -3  -1    1.70    0.15
   1  -3  -1    1.32    0.16
   1  -3  -1    1.58    0.14
  -1   3   1    1.67    0.14
  -1   3   1    1.43    0.15
  -1   3   1    1.41    0.13
  -1   3   1    1.42    0.15
   0  -3  -1    0.92    0.11
   0  -3  -1    1.05    0.14
   0  -3  -1    0.51    0.11
   0  -3  -1    0.64    0.12
   0   3   1    0.86    0.12
   0   3   1    0.73    0.11
   0   3   1    0.81    0.10
   0   3   1    0.76    0.12
  -1  -3  -1    0.10    0.08
  -1  -3  -1    0.13    0.10
  -1  -3  -1    0.10    0.04
  -1  -3  -1    0.07    0.06
   1   3   1    0.10    0.08
   1   3   1    0.07    0.04
   1   3   1    0.12    0.08
   1   3   1    0.05    0.06
  -2  -3  -1    1.02    0.14
  -2  -3  -1    1.51    0.11
  -2  -3  -1    1.29    0.17
  -2  -3  -1    1.46    0.19
   2   3   1    1.54    0.14
   2   3   1    1.54    0.11
   2   3   1    1.55    0.17
   2   3   1    1.23    0.18
   2   3   1    1.50    0.17
  -3  -3  -1   14.21    0.51
  -3  -3  -1   13.52    0.50
  -3  -3  -1   14.10    0.52
  -3  -3  -1   13.89    0.54
  -3  -3  -1   13.64    0.42
   3   3   1   13.70    0.53
   3   3   1   13.75    0.49
   3   3   1   13.06    0.55
   3   3   1   13.76    0.49
  -4  -3  -1    1.96    0.28
  -4  -3  -1    2.14    0.23
  -4  -3  -1    2.30    0.19
  -4  -3  -1    2.11    0.24
  -4  -3  -1    2.17    0.28
  -4  -3  -1    1.85    0.23
   4   3   1    1.92    0.21
   4   3   1    1.96    0.21
   4   3   1    1.67    0.23
   4   3   1    2.16    0.21
   4   3   1    1.98    0.23
  -5  -3  -1    3.11    0.25
  -5  -3  -1    2.98    0.35
  -5  -3  -1    3.37    0.31
  -5  -3  -1    3.46    0.34
  -5  -3  -1    3.07    0.29
   5   3   1    2.81    0.25
   5   3   1    2.98    0.30
   5   3   1    2.91    0.25
   5   3   1    3.24    0.29
   5   3   1    2.76    0.31
  -6  -3  -1    0.39    0.23
  -6  -3  -1    0.29    0.14
  -6  -3  -1    0.41    0.16
  -6  -3  -1    0.25    0.18
  -6  -3  -1    0.15    0.15
   6   3   1   -0.01    0.13
   6   3   1    0.45    0.14
   6   3   1    0.16    0.14
   6   3   1    0.25    0.15
   6   3   1    0.18    0.13
  -7  -3  -1   -0.01    0.13
  -7  -3  -1   -0.22    0.13
  -7  -3  -1   -0.06    0.15
  -7  -3  -1   -0.09    0.11
   7   3   1   -0.07    0.13
   7   3   1    0.06    0.10
  -8  -3  -1   -0.06    0.16
  -8  -3  -1    0.23    0.19
  -8  -3  -1    0.34    0.15
   8   3   1    0.27    0.15
   8   3   1   -0.10    0.16
 -10   4   1    0.46    0.16
 -10   4   1    0.57    0.16
  -9   4   1    0.29    0.12
  -9   4   1    0.11    0.12
  -9   4   1    0.48    0.15
   8  -4  -1    0.23    0.16
   8  -4  -1    0.02    0.11
  -8   4   1    0.03    0.10
  -8   4   1    0.17    0.11
  -8   4   1    0.18    0.12
   7  -4  -1   -0.05    0.09
   7  -4  -1   -0.16    0.10
   7  -4  -1   -0.07    0.11
  -7   4   1    0.01    0.08
  -7   4   1   -0.01    0.11
  -7   4   1    0.09    0.12
  -7   4   1    0.07    0.14
  -7   4   1   -0.07    0.10
  -7   4   1    0.06    0.10
   6  -4  -1    0.09    0.09
   6  -4  -1   -0.06    0.09
   6  -4  -1    0.08    0.11
  -6   4   1    0.15    0.10
  -6   4   1   -0.03    0.10
  -6   4   1    0.09    0.08
  -6   4   1    0.03    0.09
  -6   4   1    0.10    0.10
   5  -4  -1    0.31    0.13
   5  -4  -1    0.09    0.10
   5  -4  -1    0.15    0.11
  -5   4   1    0.18    0.10
  -5   4   1    0.35    0.11
  -5   4   1    0.34    0.10
  -5   4   1    0.23    0.09
  -5   4   1    0.31    0.10
   4  -4  -1   29.02    0.83
   4  -4  -1   29.95    0.77
   4  -4  -1   29.38    0.77
   4  -4  -1   28.53    0.85
  -4   4   1   29.56    0.79
  -4   4   1   30.03    0.94
  -4   4   1   29.70    0.91
  -4   4   1   30.64    0.79
  -4   4   1   30.18    0.84
  -4   4   1   28.92    0.78
   3  -4  -1    0.74    0.12
   3  -4  -1    0.94    0.13
   3  -4  -1    0.67    0.10
  -3   4   1    1.01    0.14
  -3   4   1    0.92    0.13
  -3   4   1    0.78    0.11
  -3   4   1    0.63    0.09
  -3   4   1    0.60    0.10
   2  -4  -1   30.33    0.84
   2  -4  -1   31.30    0.80
   2  -4  -1   31.43    0.82
   2  -4  -1   30.25    0.85
   2  -4  -1   31.19    0.85
  -2   4   1   32.04    0.85
  -2   4   1   31.46    0.81
  -2   4   1   30.59    0.79
  -2   4   1   31.45    0.85
   1  -4  -1   29.59    0.79
   1  -4  -1   29.41    0.80
   1  -4  -1   28.69    0.82
   1  -4  -1   28.78    0.82
  -1   4   1   29.88    0.83
  -1   4   1   31.02    0.79
  -1   4   1   28.79    0.79
  -1   4   1   29.09    0.82
   0  -4  -1    0.11    0.05
   0  -4  -1   -0.03    0.09
   0  -4  -1    0.11    0.11
   0  -4  -1    0.09    0.08
   0   4   1    0.14    0.11
   0   4   1    0.11    0.07
   0   4   1    0.12    0.09
   0   4   1    0.10    0.05
  -1  -4  -1    4.38    0.29
  -1  -4  -1    4.24    0.27
  -1  -4  -1    4.46    0.21
  -1  -4  -1    4.18    0.28
   1   4   1    4.54    0.20
   1   4   1    3.90    0.26
   1   4   1    4.23    0.43
   1   4   1    4.13    0.41
  -2  -4  -1    4.94    0.32
  -2  -4  -1    5.07    0.30
  -2  -4  -1    5.11    0.22
  -2  -4  -1    5.29    0.32
   2   4   1    5.05    0.30
   2   4   1    4.99    0.25
   2   4   1    5.06    0.31
   2   4   1    5.21    0.21
   2   4   1    5.32    0.31
  -3  -4  -1    9.19    0.46
  -3  -4  -1    8.64    0.30
  -3  -4  -1    9.17    0.44
  -3  -4  -1    8.72    0.41
  -3  -4  -1    8.77    0.42
  -3  -4  -1    8.69    0.46
   3   4   1    8.75    0.39
   3   4   1    9.18    0.41
   3   4   1    8.45    0.44
   3   4   1    9.30    0.42
  -4  -4  -1    0.00    0.14
  -4  -4  -1    0.02    0.11
  -4  -4  -1    0.26    0.12
  -4  -4  -1    0.02    0.15
  -4  -4  -1   -0.22    0.13
   4   4   1    0.02    0.12
   4   4   1    0.18    0.09
   4   4   1    0.00    0.13
   4   4   1    0.01    0.10
  -5  -4  -1    1.07    0.20
  -5  -4  -1    1.20    0.23
  -5  -4  -1    1.33    0.25
  -5  -4  -1    1.06    0.25
   5   4   1    1.30    0.21
   5   4   1    0.96    0.19
   5   4   1    1.35    0.20
   5   4   1    1.29    0.21
  -6  -4  -1    0.15    0.17
  -6  -4  -1   -0.02    0.14
  -6  -4  -1    0.73    0.21
  -6  -4  -1    0.16    0.18
   6   4   1    0.13    0.14
   6   4   1    0.05    0.11
   6   4   1    0.22    0.13
   6   4   1    0.37    0.19
  -7  -4  -1   -0.15    0.18
  -7  -4  -1   -0.14    0.14
  -7  -4  -1   -0.07    0.13
  -7  -4  -1   -0.17    0.15
   7   4   1    0.17    0.14
   7   4   1    0.03    0.10
   7   4   1   -0.24    0.11
 -10   5   1   -0.08    0.14
 -10   5   1   -0.16    0.12
   9  -5  -1    0.05    0.15
  -9   5   1   -0.03    0.10
  -9   5   1    0.13    0.13
   8  -5  -1    0.85    0.19
   8  -5  -1    0.80    0.18
   8  -5  -1    0.78    0.18
  -8   5   1    0.89    0.18
  -8   5   1    0.70    0.28
  -8   5   1    0.90    0.16
   7  -5  -1    0.78    0.20
   7  -5  -1    0.10    0.12
   7  -5  -1    0.42    0.14
  -7   5   1    0.21    0.14
  -7   5   1    0.35    0.13
  -7   5   1    0.30    0.12
   6  -5  -1    0.17    0.13
   6  -5  -1    0.29    0.13
   6  -5  -1    0.17    0.10
  -6   5   1    0.36    0.12
  -6   5   1    0.33    0.14
  -6   5   1    0.33    0.10
  -6   5   1    0.41    0.13
   5  -5  -1    0.09    0.10
   5  -5  -1    0.00    0.09
   5  -5  -1    0.13    0.10
   5  -5  -1    0.06    0.08
   5  -5  -1    0.07    0.08
  -5   5   1    0.06    0.11
  -5   5   1    0.16    0.09
  -5   5   1    0.02    0.07
  -5   5   1   -0.01    0.08
  -5   5   1    0.02    0.09
  -5   5   1   -0.02    0.08
  -5   5   1    0.10    0.09
   4  -5  -1    2.71    0.25
   4  -5  -1    2.15    0.20
   4  -5  -1    2.57    0.22
   4  -5  -1    2.06    0.22
   4  -5  -1    2.27    0.21
  -4   5   1    2.25    0.33
  -4   5   1    2.44    0.21
  -4   5   1    2.32    0.24
  -4   5   1    2.05    0.21
  -4   5   1    2.69    0.22
  -4   5   1    2.41    0.21
   3  -5  -1   18.69    0.61
   3  -5  -1   18.57    0.64
   3  -5  -1   19.03    0.62
   3  -5  -1   19.36    0.56
   3  -5  -1   19.17    0.59
  -3   5   1   19.03    0.58
  -3   5   1   19.56    0.59
  -3   5   1   21.52    0.85
  -3   5   1   19.84    0.63
  -3   5   1   19.86    0.62
   2  -5  -1   47.49    1.27
   2  -5  -1   47.72    1.15
   2  -5  -1   49.19    1.23
   2  -5  -1   47.39    1.26
  -2   5   1   48.84    1.24
  -2   5   1   46.18    1.20
  -2   5   1   45.43    1.14
  -2   5   1   47.21    1.25
  -2   5   1   48.24    1.26
   1  -5  -1   -0.06    0.08
   1  -5  -1    0.16    0.12
   1  -5  -1    0.04    0.07
   1  -5  -1    0.20    0.09
   1  -5  -1    0.02    0.12
  -1   5   1    0.11    0.07
  -1   5   1    0.02    0.12
  -1   5   1    0.15    0.12
  -1   5   1    0.18    0.08
   0  -5  -1    4.18    0.44
   0  -5  -1    3.52    0.35
   0  -5  -1    4.04    0.29
   0  -5  -1    3.75    0.25
   0  -5  -1    3.59    0.22
   0   5   1    3.53    0.26
   0   5   1    3.90    0.27
   0   5   1    3.85    0.21
   0   5   1    3.56    0.25
  -1  -5  -1    5.14    0.34
  -1  -5  -1    5.27    0.39
  -1  -5  -1    4.90    0.26
  -1  -5  -1    5.19    0.34
  -1  -5  -1    5.30    0.47
   1   5   1    5.04    0.31
   1   5   1    5.42    0.33
   1   5   1    4.82    0.31
   1   5   1    5.39    0.24
  -2  -5  -1   35.55    1.21
  -2  -5  -1   38.38    1.11
  -2  -5  -1   39.14    1.15
  -2  -5  -1   37.97    1.13
  -2  -5  -1   37.01    0.98
   2   5   1   39.63    1.05
   2   5   1   37.98    0.96
   2   5   1   38.39    1.11
   2   5   1   36.40    1.11
   2   5   1   38.04    1.11
  -3  -5  -1    5.50    0.42
  -3  -5  -1    5.01    0.41
  -3  -5  -1    5.48    0.41
  -3  -5  -1    5.18    0.40
  -3  -5  -1    4.93    0.26
  -3  -5  -1    5.18    0.34
   3   5   1    4.64    0.30
   3   5   1    5.34    0.35
   3   5   1    4.90    0.24
   3   5   1    5.73    0.39
   3   5   1    4.14    0.33
  -4  -5  -1   18.02    0.74
  -4  -5  -1   19.26    0.78
  -4  -5  -1   17.99    0.71
  -4  -5  -1   19.39    0.82
  -4  -5  -1   19.97    0.79
   4   5   1   17.47    0.74
   4   5   1   18.38    0.70
   4   5   1   17.77    0.70
   4   5   1   18.46    0.69
  -5  -5  -1    0.23    0.16
  -5  -5  -1    0.10    0.17
  -5  -5  -1    0.19    0.14
  -5  -5  -1    0.07    0.18
   5   5   1    0.31    0.12
   5   5   1    0.29    0.14
   5   5   1    0.29    0.13
  -6  -5  -1    0.46    0.23
  -6  -5  -1    0.03    0.15
  -6  -5  -1    0.34    0.19
  -6  -5  -1   -0.17    0.16
   6   5   1    0.01    0.15
   6   5   1    0.05    0.13
   6   5   1   -0.03    0.08
  -7  -5  -1    0.18    0.17
  -7  -5  -1    0.02    0.18
  -7  -5  -1   -0.04    0.17
   7   5   1   -0.22    0.15
   7   5   1    0.13    0.16
   7   5   1    0.20    0.13
  10  -6  -1    0.04    0.16
 -10   6   1   -0.24    0.10
   9  -6  -1    0.39    0.17
  -9   6   1    0.27    0.15
  -9   6   1    0.46    0.15
   8  -6  -1    0.20    0.18
   8  -6  -1    0.00    0.12
  -8   6   1    0.03    0.12
   7  -6  -1   -0.07    0.11
   7  -6  -1    0.00    0.11
   7  -6  -1   -0.10    0.11
  -7   6   1   -0.19    0.12
  -7   6   1   -0.03    0.09
  -7   6   1   -0.10    0.10
  -7   6   1   -0.14    0.16
   6  -6  -1    0.65    0.17
   6  -6  -1    0.32    0.14
   6  -6  -1    0.61    0.14
  -6   6   1    0.41    0.15
  -6   6   1    0.63    0.13
  -6   6   1    0.51    0.15
  -6   6   1    0.50    0.15
  -6   6   1    0.55    0.12
  -6   6   1    0.63    0.14
  -6   6   1    0.53    0.12
   5  -6  -1    0.65    0.14
   5  -6  -1    0.69    0.14
   5  -6  -1    0.65    0.14
   5  -6  -1    0.58    0.16
   5  -6  -1    0.33    0.11
  -5   6   1    0.55    0.11
  -5   6   1    0.44    0.13
  -5   6   1    0.45    0.11
  -5   6   1    0.83    0.15
  -5   6   1    0.68    0.15
  -5   6   1    0.50    0.12
   4  -6  -1   10.58    0.45
   4  -6  -1   12.70    0.59
   4  -6  -1   11.19    0.43
  -4   6   1   11.53    0.49
  -4   6   1   11.06    0.49
  -4   6   1   10.29    0.43
  -4   6   1   10.76    0.46
  -4   6   1   10.94    0.47
   3  -6  -1    0.46    0.09
   3  -6  -1    0.22    0.13
   3  -6  -1    0.31    0.15
   3  -6  -1    0.30    0.13
   3  -6  -1    0.46    0.10
  -3   6   1    0.43    0.14
  -3   6   1    0.12    0.08
  -3   6   1    0.33    0.13
  -3   6   1    0.33    0.11
  -3   6   1    0.24    0.09
   2  -6  -1    2.01    0.22
   2  -6  -1    1.94    0.27
   2  -6  -1    1.91    0.24
  -2   6   1    2.04    0.25
  -2   6   1    2.17    0.21
  -2   6   1    2.79    0.23
  -2   6   1    1.94    0.25
   1  -6  -1    0.01    0.07
   1  -6  -1    0.06    0.10
   1  -6  -1    0.09    0.10
   1  -6  -1   -0.02    0.07
  -1   6   1    0.05    0.12
  -1   6   1    0.06    0.08
  -1   6   1    0.03    0.08
  -1   6   1   -0.08    0.10
   0  -6  -1    0.66    0.11
   0  -6  -1    0.78    0.17
   0  -6  -1    0.64    0.14
   0  -6  -1    1.10    0.16
   0  -6  -1    0.92    0.19
   0   6   1    1.19    0.22
   0   6   1    1.06    0.16
   0   6   1    0.72    0.13
   0   6   1    1.15    0.22
  -1  -6  -1    9.95    0.51
  -1  -6  -1   10.35    0.51
  -1  -6  -1    9.58    0.49
  -1  -6  -1   10.23    0.49
  -1  -6  -1   10.63    0.49
   1   6   1   10.13    0.49
   1   6   1    9.49    0.47
   1   6   1   10.06    0.38
   1   6   1   10.29    0.49
  -2  -6  -1   43.78    1.29
  -2  -6  -1   43.48    1.27
  -2  -6  -1   40.98    1.20
  -2  -6  -1   41.33    1.27
  -2  -6  -1   41.09    1.28
   2   6   1   41.70    1.26
   2   6   1   43.01    1.27
   2   6   1   42.52    1.26
   2   6   1   42.15    1.14
   2   6   1   42.14    1.09
  -3  -6  -1   11.41    0.58
  -3  -6  -1   10.60    0.51
  -3  -6  -1   12.18    0.61
  -3  -6  -1   10.16    0.42
  -3  -6  -1   10.78    0.60
  -3  -6  -1   10.96    0.58
   3   6   1   11.52    0.56
   3   6   1   10.55    0.54
   3   6   1   10.76    0.56
   3   6   1   11.12    0.48
   3   6   1   10.94    0.40
  -4  -6  -1    0.16    0.14
  -4  -6  -1    0.18    0.17
  -4  -6  -1    0.18    0.16
  -4  -6  -1   -0.11    0.18
  -4  -6  -1   -0.08    0.18
   4   6   1    0.00    0.13
   4   6   1    0.12    0.09
  -5  -6  -1    0.03    0.15
  -5  -6  -1    0.01    0.17
  -5  -6  -1   -0.29    0.14
   5   6   1    0.10    0.10
   5   6   1   -0.18    0.10
   5   6   1   -0.04    0.14
  -6  -6  -1   -0.14    0.16
  -6  -6  -1    0.05    0.19
  -6  -6  -1   -0.15    0.25
   6   6   1    0.08    0.17
   6   6   1    0.18    0.16
   6   6   1   -0.17    0.08
   9  -7  -1    0.55    0.20
   9  -7  -1    0.63    0.19
  -9   7   1    0.26    0.14
  -9   7   1    0.33    0.13
   8  -7  -1   -0.17    0.13
   8  -7  -1    0.00    0.15
  -8   7   1   -0.06    0.12
  -8   7   1    0.15    0.11
   7  -7  -1    0.12    0.16
   7  -7  -1    0.03    0.11
  -7   7   1    0.10    0.11
  -7   7   1   -0.03    0.10
  -7   7   1    0.10    0.12
  -7   7   1    0.06    0.13
  -7   7   1   -0.08    0.11
   6  -7  -1    2.80    0.26
   6  -7  -1    2.76    0.33
   6  -7  -1    2.83    0.27
   6  -7  -1    2.48    0.29
  -6   7   1    2.50    0.26
  -6   7   1    2.69    0.26
  -6   7   1    2.18    0.28
  -6   7   1    2.63    0.29
  -6   7   1    2.62    0.31
  -6   7   1    2.84    0.28
   5  -7  -1    3.92    0.30
   5  -7  -1    4.11    0.30
   5  -7  -1    4.12    0.32
   5  -7  -1    3.92    0.33
  -5   7   1    3.84    0.28
  -5   7   1    3.56    0.31
  -5   7   1    4.03    0.31
  -5   7   1    4.38    0.32
  -5   7   1    3.70    0.33
  -5   7   1    3.38    0.28
   4  -7  -1   19.50    0.69
   4  -7  -1   19.59    0.63
  -4   7   1   19.97    0.71
  -4   7   1   19.81    0.70
  -4   7   1   19.07    0.65
  -4   7   1   18.72    0.63
  -4   7   1   19.05    0.71
   3  -7  -1   11.60    0.52
   3  -7  -1   12.61    0.55
   3  -7  -1   12.50    0.55
  -3   7   1   13.97    0.54
  -3   7   1   12.19    0.51
  -3   7   1   13.52    0.56
  -3   7   1   13.45    0.65
  -3   7   1   11.98    0.42
   2  -7  -1    1.05    0.20
   2  -7  -1    0.74    0.14
   2  -7  -1    0.92    0.17
   2  -7  -1    1.10    0.19
  -2   7   1    1.42    0.20
  -2   7   1    1.53    0.24
  -2   7   1    1.18    0.21
  -2   7   1    1.01    0.16
   1  -7  -1    8.94    0.48
   1  -7  -1    7.66    0.44
   1  -7  -1    7.88    0.37
   1  -7  -1    7.95    0.40
   1  -7  -1    8.62    0.47
  -1   7   1    8.39    0.39
  -1   7   1    8.23    0.46
  -1   7   1    7.65    0.45
  -1   7   1    7.52    0.41
   0  -7  -1    4.07    0.30
   0  -7  -1    3.77    0.40
   0  -7  -1    4.44    0.37
   0  -7  -1    4.84    0.41
   0  -7  -1    4.34    0.35
   0   7   1    4.70    0.37
   0   7   1    4.20    0.28
   0   7   1    4.84    0.38
   0   7   1    4.30    0.36
  -1  -7  -1    0.39    0.16
  -1  -7  -1    0.38    0.17
  -1  -7  -1    0.49    0.21
  -1  -7  -1    0.38    0.17
  -1  -7  -1    0.23    0.12
   1   7   1    0.37    0.11
   1   7   1    0.41    0.19
   1   7   1    0.55    0.20
   1   7   1    0.73    0.19
  -2  -7  -1   17.26    0.76
  -2  -7  -1   18.23    0.76
  -2  -7  -1   18.16    0.78
  -2  -7  -1   18.79    0.77
  -2  -7  -1   16.80    0.62
   2   7   1   17.39    0.61
   2   7   1   17.33    0.58
   2   7   1   18.18    0.75
  -3  -7  -1    0.65    0.19
  -3  -7  -1    0.84    0.20
  -3  -7  -1    0.68    0.23
  -3  -7  -1    0.51    0.13
  -3  -7  -1    0.59    0.16
  -3  -7  -1    0.76    0.24
   3   7   1    0.53    0.10
   3   7   1    0.64    0.13
   3   7   1    0.54    0.20
  -4  -7  -1    0.39    0.20
  -4  -7  -1    0.39    0.21
  -4  -7  -1    0.31    0.19
  -4  -7  -1    0.02    0.24
  -4  -7  -1    0.33    0.24
   4   7   1    0.35    0.11
   4   7   1    0.51    0.18
  -5  -7  -1    0.11    0.20
  -5  -7  -1    0.01    0.17
  -5  -7  -1    0.07    0.19
   5   7   1   -0.04    0.16
   5   7   1    0.17    0.15
   9  -8  -1   -0.06    0.14
   9  -8  -1    0.20    0.16
  -9   8   1   -0.07    0.13
   8  -8  -1    0.24    0.16
   8  -8  -1    0.36    0.16
  -8   8   1    0.05    0.13
  -8   8   1    0.34    0.13
  -8   8   1    0.04    0.14
   7  -8  -1    1.98    0.40
   7  -8  -1    1.84    0.28
   7  -8  -1    1.42    0.21
  -7   8   1    1.56    0.22
  -7   8   1    1.32    0.21
  -7   8   1    1.44    0.25
  -7   8   1    2.12    0.28
  -7   8   1    1.17    0.18
   6  -8  -1    2.61    0.31
   6  -8  -1    2.11    0.28
   6  -8  -1    2.51    0.33
  -6   8   1    1.49    0.19
  -6   8   1    2.08    0.29
  -6   8   1    2.32    0.29
  -6   8   1    2.13    0.29
  -6   8   1    2.25    0.33
  -6   8   1    1.70    0.29
   5  -8  -1    0.69    0.17
   5  -8  -1    0.72    0.15
   5  -8  -1    0.69    0.18
  -5   8   1    0.46    0.15
  -5   8   1    0.66    0.13
  -5   8   1    0.84    0.21
  -5   8   1    0.69    0.19
  -5   8   1    0.52    0.14
  -5   8   1    0.53    0.15
   4  -8  -1    0.22    0.11
   4  -8  -1    0.25    0.17
  -4   8   1    0.09    0.09
  -4   8   1    0.28    0.12
  -4   8   1    0.29    0.16
  -4   8   1    0.27    0.15
  -4   8   1   -0.07    0.10
   3  -8  -1   -0.05    0.15
   3  -8  -1    0.19    0.15
   3  -8  -1    0.22    0.11
   3  -8  -1    0.10    0.12
  -3   8   1    0.16    0.11
  -3   8   1    0.07    0.11
  -3   8   1    0.28    0.16
  -3   8   1    0.13    0.15
   2  -8  -1    0.40    0.18
   2  -8  -1    0.50    0.20
   2  -8  -1    0.21    0.12
   2  -8  -1    0.11    0.15
   2  -8  -1    0.33    0.11
  -2   8   1    0.37    0.13
  -2   8   1    0.44    0.17
  -2   8   1    0.33    0.12
  -2   8   1    0.57    0.17
   1  -8  -1    8.50    0.46
   1  -8  -1    8.74    0.55
   1  -8  -1    9.16    0.54
   1  -8  -1    9.13    0.54
   1  -8  -1    8.90    0.57
  -1   8   1    9.39    0.44
  -1   8   1    8.93    0.52
  -1   8   1    8.12    0.48
  -1   8   1    9.62    0.53
   0  -8  -1    9.00    0.49
   0  -8  -1    8.11    0.46
   0  -8  -1    9.40    0.80
   0  -8  -1    9.56    0.57
   0  -8  -1    9.42    0.55
   0   8   1    8.68    0.42
   0   8   1    9.78    0.54
   0   8   1    9.14    0.51
   0   8   1    9.33    0.53
  -1  -8  -1   -0.07    0.14
  -1  -8  -1   -0.17    0.31
  -1  -8  -1    0.29    0.19
  -1  -8  -1   -0.02    0.11
  -1  -8  -1   -0.02    0.15
   1   8   1    0.36    0.17
   1   8   1    0.11    0.07
   1   8   1   -0.01    0.08
   1   8   1    0.26    0.22
  -2  -8  -1    1.21    0.24
  -2  -8  -1    2.30    0.36
  -2  -8  -1    1.47    0.19
  -2  -8  -1    1.52    0.25
  -2  -8  -1    1.30    0.27
   2   8   1    2.17    0.30
   2   8   1    1.87    0.21
   2   8   1    1.65    0.20
  -3  -8  -1    0.50    0.22
  -3  -8  -1    0.12    0.25
  -3  -8  -1    0.43    0.13
  -3  -8  -1    0.32    0.16
  -3  -8  -1    0.93    0.25
  -3  -8  -1    0.40    0.19
   3   8   1    0.78    0.21
   3   8   1    0.52    0.12
   3   8   1    0.42    0.10
  -4  -8  -1    0.12    0.20
  -4  -8  -1   -0.22    0.17
  -4  -8  -1   -0.01    0.17
   4   8   1   -0.21    0.15
   4   8   1    0.02    0.09
   9  -9  -1    0.38    0.20
   9  -9  -1    0.15    0.18
  -9   9   1   -0.01    0.15
  -9   9   1   -0.18    0.15
   8  -9  -1    0.15    0.16
   8  -9  -1    0.20    0.15
  -8   9   1   -0.19    0.16
  -8   9   1    0.14    0.15
  -8   9   1   -0.09    0.16
  -8   9   1    0.01    0.16
   7  -9  -1   -0.15    0.13
   7  -9  -1    0.13    0.14
   7  -9  -1   -0.30    0.17
  -7   9   1    0.11    0.16
  -7   9   1   -0.08    0.12
  -7   9   1   -0.26    0.14
  -7   9   1   -0.07    0.15
  -7   9   1   -0.10    0.12
   6  -9  -1   -0.08    0.10
   6  -9  -1   -0.13    0.21
   6  -9  -1    0.16    0.18
  -6   9   1   -0.08    0.12
  -6   9   1   -0.34    0.15
  -6   9   1   -0.16    0.15
  -6   9   1    0.00    0.11
  -6   9   1   -0.09    0.15
  -6   9   1    0.00    0.18
   5  -9  -1    0.04    0.18
   5  -9  -1    0.15    0.12
   5  -9  -1    0.18    0.14
  -5   9   1   -0.09    0.10
  -5   9   1   -0.20    0.12
  -5   9   1    0.09    0.16
  -5   9   1   -0.08    0.10
  -5   9   1    0.06    0.15
   4  -9  -1    2.50    0.37
   4  -9  -1    1.96    0.25
  -4   9   1    2.75    0.31
  -4   9   1    2.75    0.34
  -4   9   1    2.94    0.36
   3  -9  -1    2.61    0.37
   3  -9  -1    3.05    0.35
   3  -9  -1    2.72    0.38
  -3   9   1    2.84    0.37
  -3   9   1    2.95    0.31
  -3   9   1    2.90    0.36
   2  -9  -1    0.47    0.20
   2  -9  -1    0.04    0.13
   2  -9  -1   -0.19    0.10
   2  -9  -1    0.11    0.14
   2  -9  -1    0.12    0.20
  -2   9   1    0.05    0.09
  -2   9   1   -0.08    0.11
  -2   9   1    0.30    0.18
  -2   9   1   -0.08    0.12
   1  -9  -1    0.25    0.17
   1  -9  -1    0.43    0.22
   1  -9  -1    0.27    0.21
   1  -9  -1    0.24    0.17
   1  -9  -1    0.14    0.14
  -1   9   1    0.20    0.16
  -1   9   1    0.04    0.09
  -1   9   1    0.07    0.18
  -1   9   1   -0.14    0.13
   0  -9  -1    0.83    0.26
   0  -9  -1    0.18    0.21
   0  -9  -1    0.70    0.18
   0   9   1    0.69    0.22
   0   9   1    0.81    0.15
  -1  -9  -1    0.04    0.13
  -1  -9  -1    0.09    0.21
  -1  -9  -1    0.19    0.15
  -1  -9  -1    0.26    0.17
   1   9   1    0.26    0.16
   1   9   1    0.27    0.10
   1   9   1    0.14    0.08
  -2  -9  -1    0.60    0.17
  -2  -9  -1    0.87    0.22
  -2  -9  -1    0.79    0.27
  -2  -9  -1    0.89    0.26
   2   9   1    1.15    0.25
   2   9   1    0.71    0.13
   2   9   1    0.71    0.13
  -3  -9  -1   -0.03    0.21
  -3  -9  -1   -0.03    0.20
  -3  -9  -1   -0.08    0.14
  -3  -9  -1   -0.03    0.19
   3   9   1   -0.07    0.14
   3   9   1    0.03    0.09
   3   9   1   -0.02    0.08
   8 -10  -1   -0.04    0.17
   8 -10  -1    0.11    0.14
  -8  10   1   -0.10    0.14
  -8  10   1   -0.01    0.16
   7 -10  -1   -0.05    0.15
   7 -10  -1    0.13    0.20
   7 -10  -1   -0.04    0.12
  -7  10   1    0.04    0.20
  -7  10   1   -0.27    0.14
  -7  10   1   -0.31    0.13
  -7  10   1   -0.18    0.13
   6 -10  -1    0.15    0.15
   6 -10  -1    0.25    0.13
   6 -10  -1    0.17    0.21
  -6  10   1   -0.26    0.18
  -6  10   1   -0.14    0.12
  -6  10   1    0.18    0.15
  -6  10   1   -0.04    0.16
   5 -10  -1   -0.03    0.11
   5 -10  -1    0.06    0.21
  -5  10   1   -0.15    0.18
  -5  10   1    0.14    0.17
  -5  10   1   -0.06    0.11
   4 -10  -1    0.31    0.13
   4 -10  -1    0.52    0.22
  -4  10   1    0.62    0.23
  -4  10   1    0.52    0.21
  -4  10   1    0.49    0.26
  -4  10   1    0.29    0.19
   3 -10  -1    0.12    0.20
  -3  10   1   -0.07    0.10
  -3  10   1    0.00    0.31
  -3  10   1   -0.14    0.18
   2 -10  -1   -0.11    0.13
   2 -10  -1   -0.09    0.21
   2 -10  -1   -0.11    0.10
  -2  10   1    0.00    0.10
   1 -10  -1   -0.12    0.12
   1 -10  -1    0.15    0.17
   1 -10  -1    0.06    0.22
  -1  10   1    0.01    0.09
   0 -10  -1   -0.01    0.21
   0 -10  -1   -0.09    0.15
   0 -10  -1    0.07    0.14
   0 -10  -1   -0.27    0.18
   0  10   1   -0.04    0.09
   0  10   1    0.03    0.07
   0  10   1    0.18    0.25
  -1 -10  -1    0.72    0.22
  -1 -10  -1    0.39    0.19
  -1 -10  -1    0.07    0.18
  -1 -10  -1    0.47    0.26
   1  10   1    0.48    0.13
   1  10   1    0.35    0.10
   1  10   1    0.79    0.24
  -2 -10  -1    0.42    0.22
  -2 -10  -1    1.08    0.21
  -2 -10  -1    0.84    0.23
  -2 -10  -1    1.27    0.32
   2  10   1    0.81    0.15
   2  10   1    0.90    0.29
   2  10   1    0.78    0.14
   7 -11  -1   -0.15    0.17
   7 -11  -1   -0.04    0.14
   7 -11  -1   -0.39    0.24
  -7  11   1    0.01    0.17
  -7  11   1   -0.28    0.12
  -7  11   1    0.01    0.14
   6 -11  -1   -0.15    0.15
   6 -11  -1   -0.35    0.23
   6 -11  -1   -0.12    0.12
  -6  11   1   -0.16    0.12
  -6  11   1    0.08    0.17
  -6  11   1   -0.23    0.21
   5 -11  -1   -0.17    0.11
   5 -11  -1   -0.07    0.21
  -5  11   1   -0.02    0.11
  -5  11   1   -0.10    0.12
  -5  11   1    0.04    0.18
   4 -11  -1   -0.08    0.11
   4 -11  -1   -0.17    0.21
  -4  11   1    0.20    0.21
  -4  11   1    0.00    0.15
  -4  11   1    0.01    0.11
   3 -11  -1    0.22    0.24
  -3  11   1    0.61    0.22
  -3  11   1    0.18    0.14
   2 -11  -1    0.35    0.17
  -2  11   1    0.17    0.12
  -2  11   1    0.01    0.20
   1 -11  -1    0.48    0.26
   1 -11  -1    0.33    0.19
   1 -11  -1    0.06    0.15
  -1  11   1    0.02    0.18
  -1  11   1    0.08    0.10
   0 -11  -1    1.37    0.31
   0 -11  -1    0.74    0.20
   0 -11  -1    0.98    0.26
   0  11   1    1.38    0.22
   0  11   1    0.95    0.13
   0  11   1    1.60    0.31
   5 -12  -1    0.11    0.27
   5 -12  -1    0.20    0.13
  -5  12   1    0.13    0.20
  -5  12   1    0.15    0.14
  -5  12   1   -0.11    0.11
   4 -12  -1    0.00    0.12
   4 -12  -1   -0.43    0.23
  -4  12   1    0.27    0.20
  -4  12   1   -0.16    0.13
   3 -12  -1   -0.33    0.25
  -3  12   1    0.44    0.23
  -3  12   1   -0.05    0.12
   2 -12  -1    0.27    0.20
   2 -12  -1    0.06    0.28
  -2  12   1    0.38    0.25
  -2  12  -2    0.07    0.13
  -2  12  -2   -0.21    0.21
   2 -12   2   -0.15    0.14
   2 -12   2    0.05    0.24
  -3  12  -2   -0.08    0.11
  -3  12  -2   -0.30    0.18
   3 -12   2    0.08    0.27
  -4  12  -2    0.49    0.23
  -4  12  -2    0.45    0.18
   4 -12   2    0.14    0.18
   4 -12   2    0.61    0.28
  -5  12  -2    0.71    0.22
  -5  12  -2   -0.44    0.20
  -5  12  -2    0.04    0.14
   5 -12   2    0.01    0.27
   5 -12   2   -0.21    0.14
   5 -12   2   -0.13    0.16
   1  11  -2    2.18    0.37
   1  11  -2    0.93    0.18
  -1 -11   2    1.46    0.35
  -1 -11   2    0.99    0.24
  -1 -11   2    1.04    0.25
   0  11  -2    0.55    0.22
   0  11  -2    0.21    0.12
   0 -11   2    0.10    0.16
   0 -11   2    0.65    0.26
   0 -11   2    0.35    0.19
  -1  11  -2    0.37    0.18
  -1  11  -2    0.05    0.11
   1 -11   2   -0.14    0.12
   1 -11   2    0.12    0.14
   1 -11   2   -0.20    0.22
  -2  11  -2    0.26    0.13
  -2  11  -2    0.51    0.21
   2 -11   2    0.32    0.22
  -3  11  -2    0.52    0.20
  -3  11  -2    0.13    0.11
   3 -11   2   -0.03    0.21
  -4  11  -2    0.10    0.13
  -4  11  -2    0.53    0.22
  -4  11  -2    0.27    0.20
  -4  11  -2    0.16    0.12
   4 -11   2    0.04    0.16
   4 -11   2    0.38    0.25
  -5  11  -2    0.27    0.19
  -5  11  -2    0.52    0.25
  -5  11  -2    0.26    0.12
  -5  11  -2    0.01    0.14
   5 -11   2    0.23    0.15
   5 -11   2    0.37    0.25
   5 -11   2    0.01    0.15
  -6  11  -2   -0.27    0.18
  -6  11  -2    0.27    0.20
  -6  11  -2   -0.04    0.14
   6 -11   2   -0.08    0.25
   6 -11   2    0.30    0.15
   6 -11   2    0.17    0.16
  -7  11  -2    0.10    0.14
  -7  11  -2    0.04    0.12
  -7  11  -2    0.52    0.22
  -7  11  -2   -0.11    0.21
   7 -11   2    0.27    0.17
   7 -11   2    0.05    0.24
   7 -11   2    0.32    0.21
   2  10  -2    0.67    0.15
   2  10  -2    1.36    0.30
  -2 -10   2    0.79    0.22
  -2 -10   2    1.04    0.30
  -2 -10   2    0.85    0.22
   1  10  -2   -0.01    0.10
  -1 -10   2    0.14    0.25
  -1 -10   2    0.16    0.16
  -1 -10   2   -0.15    0.14
   0  10  -2    0.14    0.22
   0  10  -2   -0.17    0.07
   0 -10   2   -0.05    0.15
   0 -10   2    0.03    0.14
   0 -10   2    0.31    0.25
  -1  10  -2    2.41    0.40
  -1  10  -2    1.55    0.22
   1 -10   2    1.97    0.29
   1 -10   2    2.97    0.40
   1 -10   2    3.09    0.44
  -2  10  -2    0.14    0.18
  -2  10  -2    0.07    0.11
  -2  10  -2    0.30    0.20
   2 -10   2    0.13    0.19
   2 -10   2    0.08    0.11
  -3  10  -2    0.54    0.14
  -3  10  -2    1.00    0.28
  -3  10  -2    0.70    0.32
   3 -10   2    0.70    0.25
  -4  10  -2    0.15    0.34
  -4  10  -2    0.19    0.11
  -4  10  -2    0.29    0.17
  -4  10  -2    0.21    0.19
   4 -10   2    0.33    0.21
   4 -10   2    0.26    0.17
  -5  10  -2    0.39    0.21
  -5  10  -2    0.52    0.20
  -5  10  -2    0.21    0.12
  -5  10  -2    0.07    0.13
   5 -10   2    0.11    0.21
   5 -10   2    0.39    0.15
   5 -10   2    0.09    0.16
  -6  10  -2   -0.33    0.25
  -6  10  -2   -0.18    0.09
  -6  10  -2   -0.17    0.15
  -6  10  -2    0.20    0.18
  -6  10  -2    0.14    0.13
   6 -10   2    0.14    0.17
   6 -10   2    0.34    0.15
   6 -10   2   -0.08    0.21
  -7  10  -2    0.20    0.13
  -7  10  -2    0.40    0.18
  -7  10  -2    0.13    0.14
  -7  10  -2   -0.16    0.19
   7 -10   2    0.18    0.24
   7 -10   2    0.32    0.22
   7 -10   2    0.20    0.19
  -8  10  -2   -0.04    0.19
  -8  10  -2    0.29    0.17
  -8  10  -2   -0.18    0.15
  -8  10  -2   -0.13    0.14
   8 -10   2   -0.16    0.18
   8 -10   2    0.10    0.16
   4   9  -2    0.52    0.25
  -4  -9   2    0.18    0.23
  -4  -9   2    0.22    0.21
   3   9  -2    0.49    0.13
   3   9  -2    0.25    0.10
   3   9  -2    0.84    0.25
  -3  -9   2    0.36    0.20
  -3  -9   2   -0.13    0.16
  -3  -9   2    0.61    0.28
  -3  -9   2    0.27    0.18
   2   9  -2    0.04    0.09
   2   9  -2    0.19    0.17
  -2  -9   2   -0.05    0.15
  -2  -9   2    0.13    0.21
  -2  -9   2   -0.26    0.13
   1   9  -2    0.34    0.19
   1   9  -2    0.30    0.11
  -1  -9   2   -0.18    0.19
  -1  -9   2    0.15    0.14
  -1  -9   2    0.37    0.16
   0   9  -2    1.17    0.27
   0   9  -2    0.70    0.14
   0  -9   2    0.72    0.24
   0  -9   2    0.44    0.15
   0  -9   2    0.52    0.18
   0  -9   2    0.63    0.21
   0  -9   2    0.59    0.18
  -1   9  -2    2.63    0.36
  -1   9  -2    2.56    0.28
  -1   9  -2    2.98    0.36
   1  -9   2    2.86    0.33
   1  -9   2    2.43    0.36
   1  -9   2    2.10    0.30
   1  -9   2    2.79    0.37
   1  -9   2    2.82    0.29
  -2   9  -2    1.57    0.25
  -2   9  -2    0.98    0.17
  -2   9  -2    0.74    0.16
  -2   9  -2    1.03    0.22
   2  -9   2    0.87    0.24
   2  -9   2    0.86    0.19
   2  -9   2    0.94    0.15
  -3   9  -2    2.67    0.23
  -3   9  -2    2.82    0.35
  -3   9  -2    2.67    0.29
  -3   9  -2    2.88    0.33
   3  -9   2    2.44    0.36
   3  -9   2    2.02    0.30
  -4   9  -2    0.13    0.16
  -4   9  -2    0.08    0.09
  -4   9  -2   -0.02    0.12
  -4   9  -2    0.12    0.18
  -4   9  -2    0.32    0.13
   4  -9   2   -0.21    0.19
   4  -9   2    0.15    0.14
  -5   9  -2   -0.02    0.08
  -5   9  -2   -0.07    0.13
  -5   9  -2    0.16    0.11
  -5   9  -2    0.12    0.16
  -5   9  -2    0.00    0.16
  -5   9  -2   -0.09    0.12
   5  -9   2   -0.15    0.17
   5  -9   2    0.04    0.14
   5  -9   2   -0.04    0.11
  -6   9  -2    1.17    0.16
  -6   9  -2    1.07    0.22
  -6   9  -2    1.62    0.26
  -6   9  -2    1.97    0.28
  -6   9  -2    1.28    0.20
  -6   9  -2    2.19    0.30
   6  -9   2    1.32    0.23
   6  -9   2    1.24    0.24
   6  -9   2    1.89    0.28
  -7   9  -2    1.70    0.25
  -7   9  -2    1.00    0.21
  -7   9  -2    1.29    0.18
   7  -9   2    1.70    0.25
   7  -9   2    1.42    0.25
   7  -9   2    0.93    0.23
  -8   9  -2   -0.28    0.14
  -8   9  -2    0.34    0.15
  -8   9  -2    0.23    0.16
  -8   9  -2    0.33    0.17
   8  -9   2   -0.18    0.14
   8  -9   2    0.02    0.14
   9  -9   2   -0.03    0.16
   5   8  -2    0.49    0.20
  -5  -8   2    0.10    0.22
  -5  -8   2    0.08    0.28
  -5  -8   2    0.01    0.23
  -5  -8   2   -0.25    0.18
   4   8  -2    2.56    0.35
   4   8  -2    1.27    0.18
  -4  -8   2    1.87    0.27
  -4  -8   2    1.54    0.26
  -4  -8   2    1.52    0.33
  -4  -8   2    1.66    0.32
  -4  -8   2    1.36    0.26
   3   8  -2    0.33    0.10
   3   8  -2    0.23    0.10
   3   8  -2    0.42    0.19
  -3  -8   2    0.67    0.24
  -3  -8   2   -0.06    0.23
  -3  -8   2    0.24    0.18
  -3  -8   2    0.40    0.16
  -3  -8   2    0.15    0.17
   2   8  -2    0.16    0.09
   2   8  -2    0.15    0.08
   2   8  -2    0.10    0.15
  -2  -8   2    0.27    0.17
  -2  -8   2    0.32    0.19
  -2  -8   2    0.07    0.12
  -2  -8   2    0.30    0.32
  -2  -8   2    0.33    0.16
   1   8  -2    1.91    0.23
   1   8  -2    1.63    0.26
   1   8  -2    2.31    0.33
  -1  -8   2    1.51    0.24
  -1  -8   2    2.17    0.39
  -1  -8   2    2.16    0.34
  -1  -8   2    1.44    0.23
  -1  -8   2    1.20    0.18
   0   8  -2    0.53    0.27
   0   8  -2    0.62    0.19
   0   8  -2    0.38    0.11
   0  -8   2    0.54    0.18
   0  -8   2    0.36    0.15
   0  -8   2    0.54    0.21
   0  -8   2    0.47    0.17
   0  -8   2    0.30    0.12
  -1   8  -2    0.16    0.16
  -1   8  -2   -0.04    0.10
  -1   8  -2    0.10    0.08
  -1   8  -2   -0.03    0.13
   1  -8   2    0.03    0.11
   1  -8   2    0.09    0.14
   1  -8   2    0.03    0.18
   1  -8   2    0.19    0.14
   1  -8   2    0.13    0.13
  -2   8  -2    0.30    0.14
  -2   8  -2    0.15    0.16
  -2   8  -2    0.25    0.11
  -2   8  -2    0.34    0.16
   2  -8   2    0.28    0.10
   2  -8   2    0.22    0.13
   2  -8   2   -0.01    0.16
   2  -8   2    0.09    0.13
  -3   8  -2    2.57    0.24
  -3   8  -2    2.11    0.29
  -3   8  -2    2.13    0.29
  -3   8  -2    2.16    0.28
  -3   8  -2    2.10    0.25
   3  -8   2    1.39    0.20
   3  -8   2    1.68    0.27
   3  -8   2    1.54    0.23
  -4   8  -2    1.04    0.17
  -4   8  -2    0.88    0.15
  -4   8  -2    1.11    0.14
  -4   8  -2    1.35    0.24
  -4   8  -2    1.12    0.21
  -4   8  -2    0.75    0.15
   4  -8   2    1.04    0.21
   4  -8   2    1.02    0.18
   4  -8   2    1.14    0.22
  -5   8  -2    0.69    0.14
  -5   8  -2    0.51    0.18
  -5   8  -2    0.71    0.17
  -5   8  -2    0.99    0.21
  -5   8  -2    0.66    0.14
  -5   8  -2    0.47    0.14
   5  -8   2    0.75    0.20
   5  -8   2    1.00    0.23
   5  -8   2    0.66    0.16
   5  -8   2    0.29    0.17
   5  -8   2    0.84    0.18
  -6   8  -2    4.43    0.35
  -6   8  -2    3.34    0.34
  -6   8  -2    4.35    0.34
  -6   8  -2    3.43    0.29
  -6   8  -2    4.39    0.36
   6  -8   2    3.72    0.37
   6  -8   2    4.06    0.33
   6  -8   2    3.83    0.38
   6  -8   2    3.88    0.37
  -7   8  -2    0.08    0.13
  -7   8  -2    0.06    0.13
  -7   8  -2    0.05    0.11
  -7   8  -2   -0.14    0.09
  -7   8  -2   -0.09    0.09
   7  -8   2    0.10    0.19
   7  -8   2   -0.12    0.12
  -8   8  -2    0.52    0.16
  -8   8  -2    0.16    0.15
   8  -8   2    0.50    0.18
   8  -8   2    0.39    0.16
  -9   8  -2   -0.16    0.11
   9  -8   2    0.00    0.15
   9  -8   2    0.15    0.16
   5   7  -2    0.33    0.21
   5   7  -2    0.39    0.12
  -5  -7   2    0.23    0.25
  -5  -7   2    0.80    0.24
  -5  -7   2    0.60    0.22
  -5  -7   2    0.34    0.18
  -5  -7   2    0.27    0.15
   4   7  -2    1.91    0.30
   4   7  -2    2.01    0.25
  -4  -7   2    2.04    0.28
  -4  -7   2    1.91    0.32
  -4  -7   2    1.58    0.32
  -4  -7   2    1.37    0.28
  -4  -7   2    2.14    0.33
   3   7  -2    2.54    0.24
   3   7  -2    2.82    0.33
   3   7  -2    2.77    0.26
  -3  -7   2    2.90    0.36
  -3  -7   2    3.47    0.38
  -3  -7   2    2.95    0.38
  -3  -7   2    3.10    0.28
  -3  -7   2    3.25    0.40
   2   7  -2    0.05    0.07
   2   7  -2   -0.12    0.11
   2   7  -2   -0.05    0.06
   2   7  -2    0.02    0.13
  -2  -7   2   -0.11    0.08
  -2  -7   2    0.03    0.14
  -2  -7   2   -0.05    0.14
  -2  -7   2   -0.05    0.14
  -2  -7   2   -0.03    0.17
   1   7  -2    0.09    0.14
   1   7  -2    0.08    0.06
   1   7  -2    0.06    0.13
   1   7  -2   -0.11    0.08
   1   7  -2    0.03    0.08
  -1  -7   2   -0.25    0.12
  -1  -7   2    0.08    0.16
  -1  -7   2   -0.23    0.12
  -1  -7   2    0.15    0.14
  -1  -7   2    0.05    0.08
   0   7  -2    1.72    0.25
   0   7  -2    1.71    0.21
   0   7  -2    1.65    0.24
   0   7  -2    1.94    0.25
   0  -7   2    1.28    0.20
   0  -7   2    1.94    0.28
   0  -7   2    1.87    0.24
   0  -7   2    1.82    0.23
   0  -7   2    1.90    0.26
  -1   7  -2    0.19    0.09
  -1   7  -2    0.13    0.14
  -1   7  -2   -0.01    0.09
  -1   7  -2    0.33    0.14
   1  -7   2    0.11    0.16
   1  -7   2    0.19    0.12
   1  -7   2    0.10    0.08
   1  -7   2    0.16    0.09
   1  -7   2    0.07    0.11
  -2   7  -2    0.71    0.15
  -2   7  -2    0.82    0.19
  -2   7  -2    0.94    0.13
  -2   7  -2    0.88    0.18
  -2   7  -2    0.81    0.13
   2  -7   2    1.16    0.36
   2  -7   2    0.58    0.12
   2  -7   2    1.15    0.17
   2  -7   2    0.92    0.19
  -3   7  -2    1.81    0.25
  -3   7  -2    1.23    0.18
  -3   7  -2    1.14    0.16
  -3   7  -2    1.64    0.24
   3  -7   2    1.54    0.23
   3  -7   2    1.85    0.27
   3  -7   2    0.97    0.16
  -4   7  -2    1.27    0.20
  -4   7  -2    0.87    0.10
  -4   7  -2    0.67    0.14
  -4   7  -2    0.87    0.15
  -4   7  -2    0.94    0.15
  -4   7  -2    1.09    0.19
   4  -7   2    0.93    0.19
   4  -7   2    0.74    0.16
   4  -7   2    0.74    0.17
   4  -7   2    1.02    0.16
   4  -7   2    0.97    0.17
  -5   7  -2    2.01    0.28
  -5   7  -2    1.73    0.25
  -5   7  -2    1.11    0.17
  -5   7  -2    1.16    0.19
  -5   7  -2    1.67    0.19
  -5   7  -2    1.73    0.23
   5  -7   2    1.32    0.20
   5  -7   2    1.74    0.22
   5  -7   2    1.14    0.20
   5  -7   2    1.69    0.22
   5  -7   2    2.01    0.25
  -6   7  -2    0.29    0.24
  -6   7  -2    0.52    0.15
  -6   7  -2    0.39    0.14
  -6   7  -2    0.45    0.12
  -6   7  -2    0.40    0.13
  -6   7  -2    0.59    0.17
  -6   7  -2    0.72    0.16
   6  -7   2    0.48    0.18
   6  -7   2    0.65    0.17
   6  -7   2    0.53    0.14
   6  -7   2    0.67    0.15
  -7   7  -2    0.79    0.14
  -7   7  -2    0.68    0.16
   7  -7   2    0.87    0.20
   7  -7   2    0.87    0.20
  -8   7  -2    0.17    0.13
  -8   7  -2    0.23    0.19
   8  -7   2    0.34    0.27
   8  -7   2    0.06    0.13
  -9   7  -2   -0.16    0.18
   9  -7   2   -0.03    0.16
   9  -7   2   -0.05    0.15
   6   6  -2    0.68    0.20
   6   6  -2    0.51    0.17
   6   6  -2    0.54    0.15
  -6  -6   2    0.73    0.22
  -6  -6   2    0.37    0.25
  -6  -6   2    0.31    0.18
  -6  -6   2    0.48    0.20
   5   6  -2    1.62    0.26
   5   6  -2    3.11    0.42
   5   6  -2    2.29    0.26
  -5  -6   2    2.76    0.38
  -5  -6   2    2.19    0.27
  -5  -6   2    2.33    0.33
  -5  -6   2    2.92    0.41
  -5  -6   2    1.67    0.30
   4   6  -2    2.63    0.32
   4   6  -2    2.20    0.24
  -4  -6   2    2.70    0.36
  -4  -6   2    2.46    0.37
  -4  -6   2    2.11    0.30
  -4  -6   2    2.40    0.26
  -4  -6   2    1.74    0.25
   3   6  -2    3.34    0.26
   3   6  -2    3.97    0.34
   3   6  -2    4.22    0.34
   3   6  -2    3.13    0.25
  -3  -6   2    4.15    0.37
  -3  -6   2    3.49    0.28
  -3  -6   2    3.65    0.37
  -3  -6   2    3.38    0.39
  -3  -6   2    3.07    0.37
   2   6  -2    0.34    0.14
   2   6  -2    0.18    0.07
   2   6  -2    0.09    0.07
   2   6  -2    0.07    0.10
   2   6  -2    0.28    0.13
  -2  -6   2    0.16    0.15
  -2  -6   2   -0.04    0.13
  -2  -6   2    0.16    0.13
  -2  -6   2    0.12    0.09
  -2  -6   2    0.34    0.14
   1   6  -2    0.78    0.11
   1   6  -2    1.07    0.16
   1   6  -2    0.90    0.18
   1   6  -2    1.45    0.22
   1   6  -2    0.85    0.15
  -1  -6   2    1.02    0.17
  -1  -6   2    0.96    0.20
  -1  -6   2    0.98    0.21
  -1  -6   2    0.78    0.16
  -1  -6   2    1.27    0.18
   0   6  -2    4.94    0.27
   0   6  -2    4.80    0.33
   0   6  -2    5.06    0.34
   0   6  -2    4.89    0.31
   0  -6   2    4.54    0.36
   0  -6   2    5.66    0.36
   0  -6   2    5.46    0.31
   0  -6   2    4.50    0.28
   0  -6   2    4.78    0.33
  -1   6  -2    0.09    0.12
  -1   6  -2    0.03    0.10
  -1   6  -2    0.09    0.08
  -1   6  -2    0.14    0.08
   1  -6   2    0.04    0.10
   1  -6   2    0.08    0.08
   1  -6   2    0.10    0.13
   1  -6   2   -0.06    0.09
   1  -6   2   -0.06    0.07
  -2   6  -2    1.75    0.23
  -2   6  -2    1.78    0.24
  -2   6  -2    1.79    0.21
  -2   6  -2    1.51    0.16
  -2   6  -2    1.59    0.22
   2  -6   2    1.50    0.21
   2  -6   2    1.75    0.22
   2  -6   2    2.25    0.26
  -3   6  -2    4.86    0.33
  -3   6  -2    6.07    0.29
  -3   6  -2    5.94    0.34
  -3   6  -2    5.54    0.22
  -3   6  -2    5.32    0.31
  -3   6  -2    5.85    0.32
   3  -6   2    5.65    0.32
   3  -6   2    5.72    0.32
   3  -6   2    5.60    0.33
   3  -6   2    5.57    0.34
  -4   6  -2    6.04    0.34
  -4   6  -2    6.94    0.34
  -4   6  -2    6.27    0.28
  -4   6  -2    6.51    0.37
  -4   6  -2    6.75    0.35
  -4   6  -2    6.82    0.36
   4  -6   2    6.35    0.34
   4  -6   2    6.48    0.37
   4  -6   2    6.89    0.38
   4  -6   2    6.82    0.36
   4  -6   2    6.70    0.33
  -5   6  -2    0.57    0.13
  -5   6  -2    0.71    0.15
  -5   6  -2    0.77    0.15
  -5   6  -2    0.64    0.14
  -5   6  -2    0.66    0.12
   5  -6   2    0.72    0.14
   5  -6   2    0.51    0.14
   5  -6   2    0.40    0.12
   5  -6   2    0.57    0.16
   5  -6   2    0.74    0.14
  -6   6  -2    4.13    0.26
  -6   6  -2    2.99    0.30
  -6   6  -2    3.70    0.24
  -6   6  -2    3.19    0.26
  -6   6  -2    4.55    0.41
  -6   6  -2    3.89    0.31
   6  -6   2    3.76    0.34
   6  -6   2    3.14    0.33
  -7   6  -2    3.24    0.31
  -7   6  -2    2.66    0.27
  -7   6  -2    2.45    0.34
   7  -6   2    3.11    0.34
   7  -6   2    2.37    0.32
  -8   6  -2    0.06    0.10
   8  -6   2    0.07    0.14
   8  -6   2   -0.14    0.14
  -9   6  -2    0.08    0.13
  -9   6  -2    0.11    0.13
   9  -6   2    0.14    0.16
   9  -6   2    0.04    0.13
   7   5  -2    0.01    0.17
   7   5  -2    0.12    0.12
   7   5  -2    0.02    0.16
  -7  -5   2    0.02    0.15
  -7  -5   2   -0.20    0.16
  -7  -5   2    0.05    0.20
   6   5  -2    1.54    0.25
   6   5  -2    2.35    0.28
  -6  -5   2    1.47    0.26
  -6  -5   2    2.80    0.40
  -6  -5   2    1.50    0.18
  -6  -5   2    1.54    0.26
   5   5  -2    1.24    0.21
   5   5  -2    1.14    0.21
   5   5  -2    1.36    0.20
   5   5  -2    1.99    0.27
  -5  -5   2    1.23    0.22
  -5  -5   2    1.46    0.24
  -5  -5   2    1.94    0.35
  -5  -5   2    1.12    0.15
  -5  -5   2    1.64    0.26
   4   5  -2    6.88    0.63
   4   5  -2    6.51    0.40
   4   5  -2    5.67    0.41
   4   5  -2    5.96    0.36
  -4  -5   2    5.99    0.45
  -4  -5   2    6.25    0.33
  -4  -5   2    6.18    0.49
  -4  -5   2    6.58    0.43
  -4  -5   2    5.66    0.47
   3   5  -2    0.01    0.09
   3   5  -2    0.10    0.08
   3   5  -2    0.16    0.12
   3   5  -2    0.15    0.13
   3   5  -2    0.03    0.08
  -3  -5   2   -0.07    0.07
  -3  -5   2    0.01    0.12
  -3  -5   2    0.05    0.14
  -3  -5   2   -0.04    0.12
  -3  -5   2    0.13    0.23
   2   5  -2    0.70    0.13
   2   5  -2    1.08    0.13
   2   5  -2    1.17    0.19
   2   5  -2    1.14    0.19
   2   5  -2    1.08    0.15
  -2  -5   2    0.65    0.10
  -2  -5   2    1.06    0.21
  -2  -5   2    0.71    0.14
  -2  -5   2    0.71    0.15
  -2  -5   2    0.70    0.27
   1   5  -2    5.00    0.30
   1   5  -2    5.09    0.32
   1   5  -2    5.12    0.25
   1   5  -2    5.37    0.21
   1   5  -2    5.24    0.31
  -1  -5   2    5.35    0.34
  -1  -5   2    5.27    0.34
  -1  -5   2    5.44    0.32
  -1  -5   2    5.18    0.33
   0   5  -2    2.22    0.21
   0   5  -2    2.20    0.22
   0   5  -2    2.62    0.19
   0   5  -2    1.86    0.24
   0   5  -2    1.98    0.19
   0  -5   2    1.82    0.34
   0  -5   2    2.21    0.25
   0  -5   2    2.44    0.20
   0  -5   2    2.42    0.37
  -1   5  -2    0.78    0.15
  -1   5  -2    0.63    0.13
  -1   5  -2    0.55    0.09
  -1   5  -2    0.85    0.16
  -1   5  -2    0.62    0.10
   1  -5   2    0.61    0.14
   1  -5   2    0.74    0.13
   1  -5   2    0.70    0.17
   1  -5   2    0.57    0.10
  -2   5  -2   27.79    0.73
  -2   5  -2   27.50    0.77
  -2   5  -2   27.57    0.80
  -2   5  -2   26.35    0.69
  -2   5  -2   26.66    0.79
   2  -5   2   26.62    0.80
   2  -5   2   27.14    0.80
   2  -5   2   25.58    0.80
  -3   5  -2    2.79    0.23
  -3   5  -2    2.73    0.24
  -3   5  -2    2.75    0.19
  -3   5  -2    2.63    0.15
  -3   5  -2    2.74    0.22
   3  -5   2    2.52    0.22
   3  -5   2    2.76    0.22
   3  -5   2    2.57    0.23
   3  -5   2    2.87    0.21
  -4   5  -2    0.60    0.11
  -4   5  -2    0.84    0.14
  -4   5  -2    0.73    0.10
  -4   5  -2    1.06    0.15
   4  -5   2    0.75    0.14
   4  -5   2    1.02    0.15
   4  -5   2    0.77    0.14
   4  -5   2    0.81    0.14
   4  -5   2    0.95    0.14
  -5   5  -2    0.11    0.08
  -5   5  -2    0.02    0.08
  -5   5  -2   -0.02    0.06
  -5   5  -2    0.24    0.12
  -5   5  -2    0.20    0.10
  -5   5  -2    0.16    0.09
   5  -5   2    0.07    0.08
   5  -5   2    0.14    0.07
   5  -5   2    0.07    0.09
   5  -5   2    0.12    0.10
   5  -5   2    0.24    0.12
  -6   5  -2    3.90    0.32
  -6   5  -2    4.56    0.31
  -6   5  -2    3.85    0.32
  -6   5  -2    3.84    0.27
   6  -5   2    4.17    0.34
   6  -5   2    4.51    0.35
  -7   5  -2    2.28    0.26
  -7   5  -2    2.03    0.27
  -7   5  -2    2.32    0.22
  -7   5  -2    2.62    0.31
   7  -5   2    2.55    0.31
   7  -5   2    2.32    0.31
  -8   5  -2    0.11    0.11
  -8   5  -2    0.16    0.11
   8  -5   2    0.23    0.12
   8  -5   2    0.42    0.20
  -9   5  -2    0.24    0.13
  -9   5  -2   -0.02    0.11
  -9   5  -2   -0.11    0.13
   9  -5   2    0.10    0.15
 -10   5  -2   -0.36    0.15
   7   4  -2    0.79    0.18
   7   4  -2    0.96    0.23
   7   4  -2    1.11    0.19
  -7  -4   2    0.97    0.23
  -7  -4   2    0.57    0.14
  -7  -4   2    0.68    0.20
  -7  -4   2    1.02    0.23
   6   4  -2    1.07    0.24
   6   4  -2    1.22    0.18
   6   4  -2    0.90    0.19
   6   4  -2    1.82    0.27
   6   4  -2    1.16    0.20
   6   4  -2    1.44    0.21
  -6  -4   2    0.86    0.15
  -6  -4   2    1.24    0.32
  -6  -4   2    1.25    0.23
  -6  -4   2    0.88    0.21
  -6  -4   2    1.48    0.25
  -6  -4   2    1.17    0.22
   5   4  -2    7.23    0.37
   5   4  -2    6.79    0.43
   5   4  -2    6.94    0.41
   5   4  -2    7.18    0.45
   5   4  -2    7.52    0.40
   5   4  -2    7.61    0.41
  -5  -4   2    7.68    0.52
  -5  -4   2    7.78    0.49
  -5  -4   2    6.71    0.47
  -5  -4   2    7.15    0.43
  -5  -4   2    7.23    0.43
  -5  -4   2    6.92    0.35
   4   4  -2    6.88    0.39
   4   4  -2    8.00    0.32
   4   4  -2    7.30    0.37
   4   4  -2    6.89    0.37
   4   4  -2    7.50    0.39
  -4  -4   2    6.91    0.47
  -4  -4   2    7.30    0.41
  -4  -4   2    7.84    0.44
  -4  -4   2    7.16    0.39
  -4  -4   2    7.02    0.33
   3   4  -2    1.46    0.15
   3   4  -2    1.27    0.16
   3   4  -2    1.66    0.21
   3   4  -2    1.36    0.20
   3   4  -2    1.42    0.20
  -3  -4   2    1.22    0.17
  -3  -4   2    1.44    0.16
  -3  -4   2    1.07    0.18
  -3  -4   2    1.53    0.23
  -3  -4   2    1.18    0.18
   2   4  -2    1.39    0.19
   2   4  -2    1.29    0.18
   2   4  -2    1.29    0.20
   2   4  -2    1.24    0.14
   2   4  -2    1.40    0.14
  -2  -4   2    1.02    0.16
  -2  -4   2    1.41    0.15
  -2  -4   2    1.15    0.17
  -2  -4   2    0.92    0.17
  -2  -4   2    0.97    0.18
   1   4  -2   55.31    1.33
   1   4  -2   52.81    1.37
   1   4  -2   53.56    1.42
   1   4  -2   55.50    1.41
   1   4  -2   52.47    1.39
   1   4  -2   55.80    1.28
  -1  -4   2   53.57    1.33
  -1  -4   2   54.01    1.41
  -1  -4   2   55.68    1.39
  -1  -4   2   54.78    1.42
  -1  -4   2   56.66    1.40
   0   4  -2  367.64    8.24
   0   4  -2  370.37    8.21
   0   4  -2  382.68    8.26
   0   4  -2  369.97    8.20
   0  -4   2  376.25    8.20
   0  -4   2  363.35    8.19
   0  -4   2  372.50    8.26
   0  -4   2  363.62    8.25
   0  -4   2  384.93    8.24
  -1   4  -2   51.69    1.29
  -1   4  -2   51.70    1.30
  -1   4  -2   51.78    1.23
  -1   4  -2   52.33    1.31
  -1   4  -2   52.86    1.26
   1  -4   2   50.31    1.30
   1  -4   2   48.44    1.26
   1  -4   2   52.32    1.23
   1  -4   2   51.58    1.31
  -2   4  -2    4.74    0.24
  -2   4  -2    4.61    0.25
  -2   4  -2    4.40    0.18
  -2   4  -2    4.13    0.25
  -2   4  -2    4.48    0.17
  -2   4  -2    4.50    0.24
   2  -4   2    4.48    0.24
   2  -4   2    4.52    0.23
   2  -4   2    4.72    0.26
   2  -4   2    4.52    0.18
  -3   4  -2   11.63    0.41
  -3   4  -2   10.78    0.39
  -3   4  -2   10.64    0.35
  -3   4  -2   11.18    0.39
  -3   4  -2   10.86    0.40
   3  -4   2   10.73    0.38
   3  -4   2   11.24    0.42
   3  -4   2   11.58    0.41
   3  -4   2   11.25    0.39
  -4   4  -2    8.72    0.39
  -4   4  -2    9.13    0.34
  -4   4  -2    9.18    0.40
  -4   4  -2    9.03    0.33
  -4   4  -2    9.14    0.38
  -4   4  -2    9.04    0.35
  -4   4  -2    9.68    0.38
   4  -4   2   10.01    0.46
   4  -4   2    8.82    0.32
   4  -4   2    8.51    0.37
   4  -4   2    8.95    0.33
   4  -4   2   10.51    0.59
  -5   4  -2   14.99    0.68
  -5   4  -2   13.14    0.53
  -5   4  -2   13.39    0.54
  -5   4  -2   13.39    0.53
  -5   4  -2   13.27    0.49
   5  -4   2   14.04    0.56
   5  -4   2   14.09    0.57
   5  -4   2   14.01    0.53
  -6   4  -2    0.02    0.07
  -6   4  -2   -0.05    0.07
  -6   4  -2    0.14    0.09
  -6   4  -2    0.05    0.10
  -6   4  -2   -0.07    0.09
   6  -4   2    0.01    0.10
   6  -4   2   -0.11    0.09
   6  -4   2   -0.12    0.07
  -7   4  -2   -0.17    0.14
  -7   4  -2    0.03    0.09
  -7   4  -2   -0.06    0.15
  -7   4  -2   -0.17    0.11
   7  -4   2   -0.08    0.08
   7  -4   2   -0.02    0.11
   7  -4   2    0.03    0.10
  -8   4  -2    0.12    0.12
  -8   4  -2    0.13    0.10
  -8   4  -2   -0.16    0.11
   8  -4   2    0.04    0.12
  -9   4  -2   -0.15    0.12
  -9   4  -2   -0.13    0.12
  -9   4  -2   -0.04    0.10
   9  -4   2    0.08    0.12
 -10   4  -2   -0.06    0.14
   8   3  -2    0.40    0.19
  -8  -3   2    0.48    0.19
  -8  -3   2    0.55    0.20
  -8  -3   2    0.44    0.15
  -8  -3   2    0.71    0.18
   7   3  -2    0.36    0.14
   7   3  -2    0.44    0.16
   7   3  -2    0.75    0.18
   7   3  -2    0.36    0.14
  -7  -3   2    0.44    0.18
  -7  -3   2    0.20    0.11
  -7  -3   2    0.45    0.15
  -7  -3   2    0.40    0.17
  -7  -3   2    0.78    0.19
   6   3  -2   26.02    0.93
   6   3  -2   27.44    0.94
   6   3  -2   27.76    0.82
   6   3  -2   27.65    0.86
   6   3  -2   27.07    0.98
   6   3  -2   26.20    0.81
  -6  -3   2   26.89    0.86
  -6  -3   2   28.23    1.05
  -6  -3   2   26.36    0.79
  -6  -3   2   28.86    0.94
  -6  -3   2   27.07    0.86
  -6  -3   2   26.59    1.13
   5   3  -2    0.15    0.12
   5   3  -2   -0.06    0.10
   5   3  -2   -0.05    0.09
   5   3  -2   -0.03    0.09
   5   3  -2   -0.10    0.08
   5   3  -2    0.01    0.09
  -5  -3   2   -0.14    0.07
  -5  -3   2    0.02    0.10
  -5  -3   2   -0.04    0.11
  -5  -3   2    0.01    0.11
  -5  -3   2   -0.01    0.08
  -5  -3   2    0.09    0.10
  -5  -3   2    0.01    0.12
  -5  -3   2    0.05    0.13
   4   3  -2    2.22    0.23
   4   3  -2    2.21    0.24
   4   3  -2    2.36    0.23
   4   3  -2    2.10    0.20
   4   3  -2    2.05    0.19
   4   3  -2    1.95    0.21
  -4  -3   2    2.27    0.28
  -4  -3   2    2.16    0.20
  -4  -3   2    2.01    0.22
  -4  -3   2    2.15    0.17
  -4  -3   2    2.22    0.24
  -4  -3   2    2.46    0.27
   3   3  -2   21.46    0.67
   3   3  -2   18.97    0.85
   3   3  -2   22.65    0.68
   3   3  -2   22.26    0.67
   3   3  -2   22.68    0.63
  -3  -3   2   21.53    0.71
  -3  -3   2   21.69    0.62
  -3  -3   2   21.57    0.68
  -3  -3   2   22.22    0.65
  -3  -3   2   23.27    0.76
  -3  -3   2   22.89    0.69
   2   3  -2   26.25    0.80
   2   3  -2   28.17    0.73
   2   3  -2   27.48    0.77
   2   3  -2   27.50    0.70
   2   3  -2   27.83    0.78
   2   3  -2   28.07    0.73
   2   3  -2   26.70    0.77
  -2  -3   2   27.03    0.79
  -2  -3   2   27.97    0.82
  -2  -3   2   26.66    0.78
  -2  -3   2   26.78    0.72
  -2  -3   2   26.99    0.71
  -2  -3   2   27.60    0.77
   1   3  -2    3.93    0.23
   1   3  -2    4.13    0.23
   1   3  -2    4.22    0.24
   1   3  -2    3.89    0.17
   1   3  -2    3.92    0.22
   1   3  -2    3.85    0.19
  -1  -3   2    3.69    0.23
  -1  -3   2    3.85    0.20
  -1  -3   2    3.71    0.24
  -1  -3   2    3.97    0.25
  -1  -3   2    4.17    0.24
   0   3  -2   85.82    2.00
   0   3  -2   86.51    2.00
   0   3  -2   88.26    2.04
   0   3  -2   87.85    1.98
   0   3  -2   87.23    2.03
   0  -3   2   84.58    2.03
   0  -3   2   82.83    2.03
   0  -3   2   86.88    2.02
   0  -3   2   88.08    2.00
   0  -3   2   86.69    1.99
  -1   3  -2    1.89    0.16
  -1   3  -2    2.12    0.13
  -1   3  -2    1.89    0.16
  -1   3  -2    1.94    0.16
  -1   3  -2    2.14    0.14
   1  -3   2    1.89    0.17
   1  -3   2    1.74    0.15
   1  -3   2    2.10    0.13
   1  -3   2    2.06    0.14
  -2   3  -2    0.98    0.13
  -2   3  -2    0.92    0.08
  -2   3  -2    1.01    0.13
  -2   3  -2    1.01    0.12
  -2   3  -2    1.18    0.10
   2  -3   2    1.01    0.13
   2  -3   2    0.94    0.10
   2  -3   2    0.89    0.12
   2  -3   2    0.98    0.12
   2  -3   2    0.90    0.12
  -3   3  -2    2.22    0.16
  -3   3  -2    2.49    0.17
  -3   3  -2    2.36    0.15
  -3   3  -2    2.55    0.15
  -3   3  -2    2.37    0.18
  -3   3  -2    2.09    0.17
  -3   3  -2    2.35    0.14
   3  -3   2    2.48    0.19
   3  -3   2    2.09    0.16
   3  -3   2    2.35    0.15
   3  -3   2    2.39    0.16
   3  -3   2    2.49    0.18
   3  -3   2    2.28    0.19
  -4   3  -2    2.98    0.23
  -4   3  -2    3.59    0.21
  -4   3  -2    3.04    0.23
  -4   3  -2    3.37    0.34
  -4   3  -2    3.35    0.21
   4  -3   2    3.20    0.26
   4  -3   2    3.10    0.21
   4  -3   2    3.12    0.25
   4  -3   2    3.15    0.23
  -5   3  -2    0.75    0.14
  -5   3  -2    0.58    0.11
  -5   3  -2    0.58    0.12
  -5   3  -2    0.68    0.12
  -5   3  -2    0.44    0.09
  -5   3  -2    0.78    0.11
   5  -3   2    0.72    0.14
   5  -3   2    0.70    0.15
   5  -3   2    0.68    0.13
  -6   3  -2    0.98    0.15
  -6   3  -2    1.31    0.20
  -6   3  -2    1.22    0.20
  -6   3  -2    1.18    0.17
  -6   3  -2    1.16    0.18
  -6   3  -2    1.63    0.18
   6  -3   2    0.83    0.15
   6  -3   2    1.30    0.19
   6  -3   2    1.19    0.21
  -7   3  -2   -0.01    0.11
  -7   3  -2    0.04    0.08
  -7   3  -2    0.02    0.08
  -7   3  -2   -0.02    0.11
  -7   3  -2    0.05    0.12
  -7   3  -2   -0.07    0.10
   7  -3   2   -0.07    0.09
   7  -3   2    0.04    0.11
  -8   3  -2    0.53    0.13
  -8   3  -2    0.35    0.15
  -8   3  -2    0.41    0.16
   8  -3   2    0.21    0.16
   8  -3   2    0.01    0.10
  -9   3  -2    0.20    0.10
  -9   3  -2    0.17    0.15
  -9   3  -2    0.16    0.14
   9  -3   2    0.12    0.14
   8   2  -2    7.04    0.54
   8   2  -2    6.30    0.44
  -8  -2   2    6.37    0.53
  -8  -2   2    5.78    0.36
  -8  -2   2    6.52    0.50
   7   2  -2    0.23    0.12
   7   2  -2    0.15    0.12
   7   2  -2    0.09    0.14
  -7  -2   2   -0.02    0.13
  -7  -2   2    0.13    0.11
  -7  -2   2   -0.08    0.13
  -7  -2   2   -0.08    0.10
  -7  -2   2   -0.12    0.12
   6   2  -2    0.15    0.13
   6   2  -2    0.28    0.12
   6   2  -2    0.16    0.10
   6   2  -2    0.43    0.13
  -6  -2   2    0.26    0.16
  -6  -2   2    0.16    0.11
  -6  -2   2    0.32    0.12
  -6  -2   2    0.14    0.13
  -6  -2   2    0.07    0.16
  -6  -2   2    0.37    0.11
  -6  -2   2    0.32    0.13
   5   2  -2    2.05    0.22
   5   2  -2    2.08    0.20
   5   2  -2    1.84    0.23
   5   2  -2    2.10    0.24
   5   2  -2    2.28    0.27
   5   2  -2    2.03    0.20
  -5  -2   2    2.30    0.21
  -5  -2   2    2.09    0.26
  -5  -2   2    2.24    0.30
  -5  -2   2    2.29    0.22
  -5  -2   2    2.08    0.19
  -5  -2   2    2.12    0.26
  -5  -2   2    2.27    0.23
  -5  -2   2    2.19    0.23
   4   2  -2    2.02    0.22
   4   2  -2    1.64    0.18
   4   2  -2    1.95    0.20
   4   2  -2    1.68    0.20
   4   2  -2    1.65    0.18
   4   2  -2    1.71    0.23
  -4  -2   2    2.01    0.26
  -4  -2   2    1.77    0.17
  -4  -2   2    1.96    0.33
  -4  -2   2    1.72    0.19
  -4  -2   2    1.71    0.19
  -4  -2   2    1.92    0.20
  -4  -2   2    1.89    0.23
   3   2  -2    0.45    0.09
   3   2  -2    0.36    0.09
   3   2  -2    0.64    0.11
   3   2  -2    0.51    0.10
   3   2  -2    0.62    0.12
  -3  -2   2    0.60    0.11
  -3  -2   2    0.56    0.13
  -3  -2   2    0.57    0.10
  -3  -2   2    0.49    0.10
  -3  -2   2    0.38    0.07
  -3  -2   2    0.44    0.11
   2   2  -2  162.13    3.59
   2   2  -2  162.78    3.57
   2   2  -2  160.24    3.54
   2   2  -2  158.12    3.58
   2   2  -2  157.55    3.57
   2   2  -2  157.89    3.63
  -2  -2   2  155.50    3.59
  -2  -2   2  157.55    3.59
  -2  -2   2  159.10    3.55
  -2  -2   2  157.86    3.57
  -2  -2   2  158.49    3.56
  -2  -2   2  160.68    3.63
   1   2  -2   75.20    1.67
   1   2  -2   72.05    1.70
   1   2  -2   72.28    1.71
   1   2  -2   73.33    1.71
   1   2  -2   72.17    1.64
   1   2  -2   73.44    1.68
  -1  -2   2   72.95    1.64
  -1  -2   2   72.66    1.71
  -1  -2   2   72.79    1.68
  -1  -2   2   73.52    1.71
  -1  -2   2   71.17    1.67
  -1  -2   2   71.67    1.71
   0   2  -2    0.85    0.09
   0   2  -2    0.86    0.12
   0   2  -2    0.74    0.10
   0   2  -2    0.50    0.07
   0   2  -2    0.68    0.09
   0  -2   2    0.79    0.09
   0  -2   2    0.55    0.08
   0  -2   2    1.02    0.11
   0  -2   2    0.77    0.11
   0  -2   2    0.78    0.11
  -1   2  -2    2.72    0.15
  -1   2  -2    2.69    0.14
  -1   2  -2    2.67    0.13
  -1   2  -2    2.74    0.16
   1  -2   2    2.57    0.15
   1  -2   2    2.77    0.16
   1  -2   2    2.70    0.14
   1  -2   2    2.63    0.10
   1  -2   2    2.59    0.14
   1  -2   2    2.60    0.13
  -2   2  -2    4.60    0.21
  -2   2  -2    4.75    0.18
  -2   2  -2    4.93    0.20
  -2   2  -2    4.65    0.19
  -2   2  -2    4.56    0.19
  -2   2  -2    4.62    0.18
   2  -2   2    4.70    0.19
   2  -2   2    4.72    0.21
   2  -2   2    4.79    0.21
   2  -2   2    4.55    0.19
   2  -2   2    4.98    0.19
  -3   2  -2    7.18    0.33
  -3   2  -2    8.37    0.26
  -3   2  -2    7.56    0.31
  -3   2  -2    8.18    0.32
  -3   2  -2    8.31    0.30
  -3   2  -2    7.90    0.28
  -3   2  -2    8.00    0.31
   3  -2   2    8.23    0.31
   3  -2   2    7.98    0.29
   3  -2   2    8.02    0.33
   3  -2   2    8.25    0.34
  -4   2  -2   51.75    1.32
  -4   2  -2   49.21    1.32
  -4   2  -2   49.05    1.32
  -4   2  -2   53.05    1.37
  -4   2  -2   52.47    1.38
  -4   2  -2   51.07    1.24
   4  -2   2   51.90    1.33
   4  -2   2   52.38    1.36
   4  -2   2   52.15    1.33
  -5   2  -2    4.82    0.31
  -5   2  -2    5.12    0.31
  -5   2  -2    5.60    0.49
  -5   2  -2    5.57    0.30
  -5   2  -2    5.25    0.31
  -5   2  -2    5.45    0.25
  -5   2  -2    5.46    0.31
   5  -2   2    5.04    0.31
   5  -2   2    5.30    0.32
   5  -2   2    5.06    0.34
  -6   2  -2    0.09    0.10
  -6   2  -2   -0.05    0.08
  -6   2  -2   -0.04    0.09
  -6   2  -2   -0.10    0.09
  -6   2  -2    0.00    0.07
  -6   2  -2   -0.08    0.10
  -6   2  -2    0.06    0.09
   6  -2   2    0.03    0.09
   6  -2   2    0.09    0.10
   6  -2   2   -0.03    0.08
  -7   2  -2   -0.01    0.13
  -7   2  -2    0.06    0.11
  -7   2  -2    0.06    0.11
  -7   2  -2   -0.19    0.09
  -7   2  -2    0.04    0.07
  -7   2  -2   -0.05    0.12
   7  -2   2   -0.05    0.10
   7  -2   2    0.05    0.12
   7  -2   2   -0.01    0.10
  -8   2  -2    0.29    0.16
  -8   2  -2    0.08    0.15
  -8   2  -2   -0.01    0.13
   8  -2   2    0.07    0.13
   8  -2   2    0.11    0.13
  -9   2  -2   -0.19    0.12
  -9   2  -2    0.00    0.12
   9  -2   2   -0.11    0.11
   9   1  -2    0.42    0.20
  -9  -1   2    0.17    0.14
  -9  -1   2    0.20    0.16
  -9  -1   2    0.31    0.18
   8   1  -2    0.17    0.14
   8   1  -2    0.39    0.14
  -8  -1   2    0.26    0.12
  -8  -1   2    0.15    0.13
   7   1  -2   -0.01    0.10
   7   1  -2   -0.04    0.14
   7   1  -2    0.06    0.12
  -7  -1   2   -0.11    0.10
  -7  -1   2    0.20    0.14
  -7  -1   2   -0.20    0.11
  -7  -1   2   -0.03    0.12
   6   1  -2    0.16    0.12
   6   1  -2    0.16    0.10
   6   1  -2    0.14    0.12
   6   1  -2    0.31    0.13
  -6  -1   2    0.28    0.15
  -6  -1   2    0.27    0.16
  -6  -1   2    0.18    0.11
  -6  -1   2    0.17    0.10
  -6  -1   2    0.32    0.13
  -6  -1   2    0.16    0.09
   5   1  -2    0.09    0.08
   5   1  -2    0.16    0.10
   5   1  -2    0.03    0.09
   5   1  -2    0.12    0.09
  -5  -1   2    0.05    0.14
  -5  -1   2    0.25    0.10
  -5  -1   2    0.00    0.08
  -5  -1   2    0.02    0.11
  -5  -1   2   -0.03    0.09
  -5  -1   2    0.16    0.09
  -5  -1   2   -0.02    0.07
   4   1  -2   13.14    0.45
   4   1  -2   13.89    0.52
   4   1  -2   13.04    0.41
   4   1  -2   13.55    0.42
   4   1  -2   13.58    0.48
  -4  -1   2   12.67    0.42
  -4  -1   2   13.06    0.45
  -4  -1   2   12.85    0.46
  -4  -1   2   13.25    0.43
  -4  -1   2   13.24    0.51
  -4  -1   2   13.35    0.48
  -4  -1   2   13.19    0.61
   3   1  -2    0.86    0.12
   3   1  -2    0.80    0.11
   3   1  -2    0.90    0.12
   3   1  -2    0.92    0.13
   3   1  -2    0.71    0.10
   3   1  -2    0.74    0.11
   3   1  -2    1.06    0.14
  -3  -1   2    0.71    0.10
  -3  -1   2    0.83    0.13
  -3  -1   2    1.04    0.14
  -3  -1   2    0.98    0.11
  -3  -1   2    1.01    0.13
  -3  -1   2    0.93    0.12
   2   1  -2   33.94    0.87
   2   1  -2   34.80    0.84
   2   1  -2   34.13    0.90
   2   1  -2   35.28    0.86
   2   1  -2   35.05    0.86
   2   1  -2   35.81    0.88
  -2  -1   2   34.74    0.86
  -2  -1   2   34.21    0.84
  -2  -1   2   34.00    0.90
  -2  -1   2   34.23    0.86
  -2  -1   2   35.39    0.87
  -2  -1   2   34.27    0.84
  -2  -1   2   34.22    0.85
   1   1  -2  366.45    8.13
   1   1  -2  376.20    8.13
  -1  -1   2  376.50    8.10
  -1  -1   2  371.92    8.13
  -1  -1   2  370.17    8.13
   0   1  -2   64.26    1.45
   0   1  -2   61.58    1.43
   0   1  -2   63.40    1.45
   0   1  -2   66.30    1.43
   0  -1   2   61.72    1.45
   0  -1   2   62.13    1.43
   0  -1   2   62.20    1.45
   0  -1   2   64.71    1.43
  -1   1  -2  178.13    3.93
  -1   1  -2  175.61    3.94
  -1   1  -2  181.56    3.92
  -1   1  -2  182.54    3.94
  -1   1  -2  175.45    3.93
   1  -1   2  179.29    3.93
   1  -1   2  177.25    3.94
   1  -1   2  176.59    3.94
   1  -1   2  185.27    3.92
  -2   1  -2    1.59    0.11
  -2   1  -2    1.37    0.12
  -2   1  -2    1.59    0.12
  -2   1  -2    1.41    0.11
  -2   1  -2    1.59    0.10
  -2   1  -2    1.58    0.12
   2  -1   2    1.65    0.14
   2  -1   2    1.50    0.10
   2  -1   2    1.67    0.14
   2  -1   2    1.43    0.10
   2  -1   2    1.56    0.12
   2  -1   2    1.41    0.10
  -3   1  -2    7.31    0.30
  -3   1  -2    7.24    0.23
  -3   1  -2    7.05    0.29
  -3   1  -2    6.73    0.29
  -3   1  -2    7.00    0.30
   3  -1   2    7.23    0.30
   3  -1   2    7.57    0.32
   3  -1   2    7.21    0.29
  -4   1  -2    5.65    0.32
  -4   1  -2    5.56    0.29
  -4   1  -2    5.58    0.22
  -4   1  -2    5.44    0.30
  -4   1  -2    5.48    0.27
   4  -1   2    5.68    0.32
   4  -1   2    5.93    0.30
   4  -1   2    5.66    0.30
  -5   1  -2   14.40    0.56
  -5   1  -2   14.05    0.43
  -5   1  -2   14.38    0.53
  -5   1  -2   14.04    0.52
  -5   1  -2   15.40    0.57
  -5   1  -2   14.08    0.54
   5  -1   2   14.82    0.57
   5  -1   2   14.47    0.58
   5  -1   2   14.85    0.56
  -6   1  -2    5.92    0.38
  -6   1  -2    6.47    0.40
  -6   1  -2    6.15    0.27
  -6   1  -2    5.96    0.38
  -6   1  -2    6.36    0.36
  -6   1  -2    6.69    0.39
   6  -1   2    6.39    0.39
   6  -1   2    6.15    0.39
   6  -1   2    5.98    0.39
  -7   1  -2    3.15    0.36
  -7   1  -2    3.27    0.35
  -7   1  -2    2.91    0.20
  -7   1  -2    2.43    0.33
   7  -1   2    3.14    0.32
   7  -1   2    3.07    0.33
  -8   1  -2    0.28    0.15
  -8   1  -2    0.23    0.16
   8  -1   2    0.45    0.16
   8  -1   2    0.53    0.15
  -9   1  -2    0.10    0.16
   9  -1   2    0.19    0.14
   9  -1   2    0.19    0.14
   9   0  -2    0.44    0.17
   9   0  -2    0.52    0.17
  -9   0   2    0.56    0.19
  -9   0   2    0.55    0.15
  -9   0   2    0.50    0.16
  -9   0   2    0.58    0.15
   8   0  -2    0.02    0.14
   8   0  -2    0.10    0.13
  -8   0   2    0.08    0.12
  -8   0   2    0.21    0.16
   7   0  -2    1.26    0.20
   7   0  -2    1.21    0.21
  -7   0   2    0.57    0.16
  -7   0   2    1.25    0.22
  -7   0   2    1.37    0.27
  -7   0   2    0.98    0.15
   6   0  -2    1.37    0.20
   6   0  -2    1.29    0.20
  -6   0   2    1.08    0.19
  -6   0   2    1.46    0.22
  -6   0   2    1.10    0.18
  -6   0   2    0.98    0.15
  -6   0   2    1.52    0.23
   5   0  -2    1.63    0.22
   5   0  -2    1.98    0.24
   5   0  -2    2.14    0.22
  -5   0   2    2.40    0.21
  -5   0   2    1.85    0.23
  -5   0   2    2.08    0.20
  -5   0   2    1.99    0.22
  -5   0   2    2.16    0.25
   4   0  -2    1.75    0.16
   4   0  -2    1.76    0.20
   4   0  -2    1.68    0.20
   4   0  -2    1.59    0.19
  -4   0   2    1.68    0.21
  -4   0   2    1.60    0.15
  -4   0   2    1.61    0.18
  -4   0   2    1.56    0.18
  -4   0   2    1.83    0.17
  -4   0   2    1.71    0.20
  -4   0   2    1.57    0.16
  -4   0   2    1.68    0.22
   3   0  -2    6.67    0.28
   3   0  -2    6.46    0.22
   3   0  -2    6.57    0.24
   3   0  -2    6.51    0.29
   3   0  -2    6.52    0.29
   3   0  -2    6.74    0.26
  -3   0   2    6.80    0.29
  -3   0   2    6.39    0.23
  -3   0   2    6.71    0.24
  -3   0   2    6.23    0.23
  -3   0   2    6.39    0.29
  -3   0   2    6.57    0.28
  -3   0   2    6.40    0.26
   2   0  -2  334.70    7.25
   2   0  -2  335.06    7.29
   2   0  -2  336.46    7.29
   2   0  -2  333.47    7.25
   2   0  -2  327.61    7.24
  -2   0   2  327.02    7.25
  -2   0   2  328.49    7.27
  -2   0   2  331.91    7.29
  -2   0   2  333.26    7.26
  -2   0   2  329.36    7.25
  -2   0   2  337.87    7.29
   1   0  -2   16.18    0.41
   1   0  -2   16.39    0.43
   1   0  -2   16.30    0.43
   1   0  -2   16.45    0.39
   1   0  -2   16.58    0.43
  -1   0   2   16.99    0.43
  -1   0   2   16.21    0.41
  -1   0   2   16.32    0.43
  -1   0   2   15.74    0.42
   0   0  -2   41.39    0.99
   0   0  -2   40.60    0.97
   0   0  -2   42.08    0.96
   0   0   2   42.33    0.98
   0   0   2   42.61    0.97
  -1   0  -2   27.92    0.68
  -1   0  -2   28.55    0.66
  -1   0  -2   28.26    0.69
  -1   0  -2   28.25    0.69
   1   0   2   29.06    0.66
   1   0   2   28.03    0.69
   1   0   2   27.52    0.69
   1   0   2   27.74    0.68
  -2   0  -2    9.50    0.29
  -2   0  -2    9.05    0.32
  -2   0  -2    9.04    0.29
  -2   0  -2    9.50    0.29
   2   0   2    9.03    0.28
   2   0   2    9.17    0.28
   2   0   2    9.71    0.31
   2   0   2    9.41    0.30
   2   0   2    9.59    0.33
  -3   0  -2    3.66    0.20
  -3   0  -2    3.54    0.22
  -3   0  -2    3.39    0.17
  -3   0  -2    3.52    0.24
  -3   0  -2    3.47    0.18
  -3   0  -2    3.55    0.21
  -3   0  -2    3.57    0.20
   3   0   2    3.35    0.16
   3   0   2    3.26    0.21
   3   0   2    3.54    0.23
   3   0   2    3.43    0.21
  -4   0  -2   38.32    1.08
  -4   0  -2   38.30    0.96
  -4   0  -2   38.97    1.09
  -4   0  -2   38.55    1.07
  -4   0  -2   39.26    1.08
  -4   0  -2   38.19    1.11
   4   0   2   40.69    1.33
   4   0   2   39.48    1.11
   4   0   2   39.11    1.06
  -5   0  -2    0.31    0.12
  -5   0  -2    0.41    0.11
  -5   0  -2    0.38    0.11
  -5   0  -2    0.43    0.13
   5   0   2    0.23    0.11
   5   0   2    0.25    0.10
   5   0   2    0.40    0.12
  -6   0  -2    0.66    0.17
  -6   0  -2    0.63    0.15
  -6   0  -2    0.64    0.16
  -6   0  -2    0.48    0.13
   6   0   2    0.78    0.16
   6   0   2    0.43    0.12
  -7   0  -2    2.17    0.32
  -7   0  -2    2.62    0.35
  -7   0  -2    2.06    0.28
   7   0   2    2.78    0.32
   7   0   2    2.28    0.30
  -8   0  -2    0.03    0.15
  -8   0  -2   -0.21    0.12
   8   0   2    0.19    0.13
   8   0   2    0.19    0.28
  -9   0  -2    0.42    0.19
  -9   0  -2    0.81    0.22
   9   0   2    0.49    0.17
   9   0   2    0.67    0.21
   9  -1  -2    0.17    0.16
   9  -1  -2   -0.19    0.12
  -9   1   2    0.00    0.12
  -9   1   2    0.19    0.16
  -9   1   2    0.03    0.11
   8  -1  -2    0.28    0.14
   8  -1  -2    0.07    0.15
  -8   1   2    0.16    0.12
  -8   1   2    0.32    0.16
   7  -1  -2    0.02    0.11
   7  -1  -2    0.01    0.11
  -7   1   2   -0.03    0.12
  -7   1   2   -0.06    0.12
  -7   1   2    0.13    0.12
   6  -1  -2    0.02    0.10
   6  -1  -2    0.10    0.11
  -6   1   2   -0.06    0.10
  -6   1   2    0.08    0.08
  -6   1   2    0.12    0.11
  -6   1   2    0.09    0.12
  -6   1   2    0.08    0.10
  -6   1   2    0.02    0.08
  -6   1   2    0.11    0.08
   5  -1  -2    6.39    0.36
   5  -1  -2    5.69    0.33
   5  -1  -2    6.63    0.35
  -5   1   2    5.97    0.27
  -5   1   2    5.71    0.33
  -5   1   2    5.62    0.32
  -5   1   2    6.02    0.33
  -5   1   2    5.88    0.32
  -5   1   2    5.96    0.34
  -5   1   2    6.18    0.32
   4  -1  -2    0.89    0.14
   4  -1  -2    1.42    0.19
   4  -1  -2    1.12    0.16
  -4   1   2    1.26    0.18
  -4   1   2    1.13    0.15
  -4   1   2    1.19    0.20
  -4   1   2    1.30    0.17
  -4   1   2    1.34    0.23
  -4   1   2    1.04    0.14
  -4   1   2    0.94    0.14
   3  -1  -2   12.54    0.40
   3  -1  -2   12.54    0.43
   3  -1  -2   12.48    0.43
   3  -1  -2   12.28    0.41
  -3   1   2   12.69    0.38
  -3   1   2   13.06    0.40
  -3   1   2   12.61    0.35
  -3   1   2   12.77    0.43
  -3   1   2   12.26    0.42
  -3   1   2   12.55    0.42
  -3   1   2   12.62    0.40
   1  -1  -2  105.43    2.33
   1  -1  -2  106.63    2.36
   1  -1  -2  104.55    2.36
  -1   1   2  105.07    2.36
  -1   1   2  107.18    2.34
  -1   1   2  105.33    2.33
  -1   1   2  104.53    2.36
   0  -1  -2  268.27    5.84
   0  -1  -2  265.79    5.84
   0  -1  -2  270.88    5.82
   0   1   2  270.25    5.84
   0   1   2  253.45    5.83
   0   1   2  268.42    5.82
  -1  -1  -2    5.42    0.24
  -1  -1  -2    5.47    0.20
  -1  -1  -2    5.42    0.22
   1   1   2    5.71    0.21
   1   1   2    5.93    0.24
   1   1   2    5.39    0.22
  -2  -1  -2   10.16    0.35
  -2  -1  -2   10.05    0.37
  -2  -1  -2   10.13    0.34
  -2  -1  -2   10.40    0.34
   2   1   2   10.11    0.33
   2   1   2    9.88    0.37
   2   1   2    9.77    0.33
   2   1   2   10.29    0.35
   2   1   2    9.66    0.33
  -3  -1  -2   75.75    1.77
  -3  -1  -2   73.98    1.82
  -3  -1  -2   75.07    1.78
  -3  -1  -2   76.71    1.85
  -3  -1  -2   74.12    1.77
   3   1   2   77.58    1.83
   3   1   2   78.00    1.82
   3   1   2   75.02    1.80
   3   1   2   73.42    1.75
   3   1   2   72.27    1.75
   3   1   2   74.73    1.85
  -4  -1  -2   34.84    0.98
  -4  -1  -2   37.53    1.06
  -4  -1  -2   36.80    1.05
  -4  -1  -2   36.44    0.95
  -4  -1  -2   35.79    0.95
   4   1   2   35.76    0.92
   4   1   2   36.68    1.11
   4   1   2   35.31    0.92
   4   1   2   38.18    1.04
   4   1   2   35.72    1.04
  -5  -1  -2    0.05    0.09
  -5  -1  -2    0.06    0.09
  -5  -1  -2    0.08    0.10
  -5  -1  -2   -0.04    0.07
  -5  -1  -2    0.18    0.12
  -5  -1  -2    0.05    0.09
   5   1   2    0.06    0.10
   5   1   2    0.07    0.08
  -6  -1  -2    0.55    0.18
  -6  -1  -2    0.53    0.15
  -6  -1  -2    0.68    0.13
  -6  -1  -2    0.40    0.16
  -6  -1  -2    0.59    0.15
  -6  -1  -2    0.55    0.15
   6   1   2    0.57    0.15
   6   1   2    0.38    0.14
  -7  -1  -2   -0.24    0.15
  -7  -1  -2    0.01    0.14
  -7  -1  -2    0.09    0.13
   7   1   2    0.11    0.13
   7   1   2    0.03    0.12
  -8  -1  -2   -0.19    0.15
  -8  -1  -2    0.23    0.26
   8   1   2    0.07    0.16
   8   1   2    0.20    0.13
  10  -2  -2    0.10    0.17
 -10   2   2   -0.12    0.13
 -10   2   2   -0.07    0.11
 -10   2   2    0.12    0.16
   9  -2  -2   -0.12    0.11
   9  -2  -2   -0.17    0.11
  -9   2   2   -0.07    0.11
  -9   2   2   -0.03    0.10
  -9   2   2   -0.16    0.13
   8  -2  -2    0.97    0.20
   8  -2  -2    0.54    0.17
  -8   2   2    0.85    0.19
  -8   2   2    0.86    0.15
  -8   2   2    0.63    0.16
   7  -2  -2    1.11    0.21
   7  -2  -2    0.89    0.18
  -7   2   2    1.18    0.23
  -7   2   2    1.18    0.25
  -7   2   2    1.15    0.17
  -7   2   2    1.18    0.20
  -7   2   2    1.69    0.21
   6  -2  -2    0.92    0.16
   6  -2  -2    1.23    0.18
   6  -2  -2    1.05    0.18
  -6   2   2    1.22    0.18
  -6   2   2    0.81    0.14
  -6   2   2    0.78    0.13
  -6   2   2    1.33    0.20
  -6   2   2    1.10    0.17
  -6   2   2    1.28    0.18
  -6   2   2    1.33    0.19
   5  -2  -2    9.34    0.42
   5  -2  -2    8.87    0.42
  -5   2   2    9.49    0.34
  -5   2   2    8.98    0.42
  -5   2   2    9.51    0.42
  -5   2   2    9.63    0.43
  -5   2   2    9.08    0.42
  -5   2   2    9.65    0.38
  -5   2   2    9.18    0.40
   4  -2  -2  119.04    2.76
   4  -2  -2  118.66    2.77
   4  -2  -2  118.88    2.78
  -4   2   2  116.77    2.69
  -4   2   2  118.75    2.87
  -4   2   2  118.90    2.88
  -4   2   2  116.43    2.73
  -4   2   2  115.54    2.75
   3  -2  -2    2.39    0.19
   3  -2  -2    2.45    0.14
   3  -2  -2    2.57    0.20
   3  -2  -2    2.63    0.15
   3  -2  -2    2.02    0.13
  -3   2   2    2.44    0.18
  -3   2   2    2.33    0.18
  -3   2   2    2.72    0.18
  -3   2   2    2.37    0.15
  -3   2   2    2.64    0.16
  -3   2   2    2.34    0.15
   2  -2  -2   51.41    1.20
   2  -2  -2   49.86    1.16
   2  -2  -2   48.57    1.18
   2  -2  -2   49.88    1.18
   2  -2  -2   48.51    1.14
  -2   2   2   49.03    1.18
  -2   2   2   50.90    1.16
  -2   2   2   51.12    1.19
  -2   2   2   49.33    1.13
  -2   2   2   49.29    1.20
   1  -2  -2    1.46    0.13
   1  -2  -2    1.55    0.11
   1  -2  -2    1.55    0.14
   1  -2  -2    1.33    0.11
  -1   2   2    1.65    0.11
   0  -2  -2   32.18    0.83
   0  -2  -2   33.10    0.81
   0  -2  -2   33.14    0.84
   0   2   2   33.18    0.78
   0   2   2   30.96    0.83
   0   2   2   32.38    0.83
   0   2   2   31.97    0.81
  -1  -2  -2    4.82    0.19
  -1  -2  -2    4.62    0.23
  -1  -2  -2    4.49    0.23
  -1  -2  -2    5.03    0.24
   1   2   2    5.04    0.16
   1   2   2    4.57    0.23
   1   2   2    4.27    0.22
   1   2   2    4.57    0.23
  -2  -2  -2    7.02    0.29
  -2  -2  -2    7.12    0.25
  -2  -2  -2    6.72    0.30
  -2  -2  -2    7.06    0.33
  -2  -2  -2    7.06    0.30
   2   2   2    6.77    0.32
   2   2   2    7.00    0.30
   2   2   2    7.01    0.30
  -3  -2  -2   11.47    0.42
  -3  -2  -2   10.99    0.38
  -3  -2  -2   11.43    0.55
  -3  -2  -2   11.23    0.43
  -3  -2  -2   10.88    0.41
   3   2   2   10.75    0.46
   3   2   2   11.71    0.42
   3   2   2   11.26    0.41
   3   2   2   11.47    0.43
  -4  -2  -2    2.61    0.21
  -4  -2  -2    2.97    0.29
  -4  -2  -2    2.88    0.23
  -4  -2  -2    2.81    0.25
  -4  -2  -2    3.00    0.24
   4   2   2    2.74    0.24
   4   2   2    3.00    0.28
   4   2   2    2.75    0.21
   4   2   2    2.80    0.21
   4   2   2    2.72    0.24
  -5  -2  -2   -0.14    0.09
  -5  -2  -2    0.02    0.11
  -5  -2  -2    0.20    0.12
  -5  -2  -2    0.05    0.10
  -5  -2  -2    0.09    0.09
   5   2   2   -0.02    0.09
   5   2   2   -0.05    0.08
   5   2   2   -0.07    0.10
   5   2   2    0.12    0.10
   5   2   2   -0.09    0.07
  -6  -2  -2    0.01    0.12
  -6  -2  -2    0.03    0.11
  -6  -2  -2    0.05    0.17
  -6  -2  -2   -0.08    0.11
  -6  -2  -2   -0.13    0.10
  -6  -2  -2   -0.13    0.12
  -6  -2  -2   -0.06    0.11
   6   2   2    0.06    0.13
   6   2   2    0.02    0.07
   6   2   2    0.00    0.09
  -7  -2  -2    0.98    0.17
  -7  -2  -2    0.91    0.17
  -7  -2  -2    0.79    0.26
  -7  -2  -2    0.76    0.34
  -7  -2  -2    0.91    0.20
   7   2   2    0.50    0.18
   7   2   2    0.59    0.19
  -8  -2  -2    0.05    0.16
  -8  -2  -2    0.33    0.18
   8   2   2    0.03    0.16
   8   2   2    0.34    0.14
 -10   3   2    0.81    0.18
 -10   3   2    0.53    0.15
 -10   3   2    0.35    0.18
   9  -3  -2    0.55    0.19
  -9   3   2    0.71    0.14
  -9   3   2    0.60    0.15
  -9   3   2    0.46    0.15
   8  -3  -2    0.11    0.13
   8  -3  -2    0.12    0.13
  -8   3   2    0.29    0.17
  -8   3   2    0.28    0.13
  -8   3   2    0.28    0.12
   7  -3  -2    0.23    0.15
   7  -3  -2    0.36    0.16
  -7   3   2    0.06    0.12
  -7   3   2    0.44    0.13
  -7   3   2    0.37    0.16
  -7   3   2    0.37    0.10
  -7   3   2    0.17    0.10
  -7   3   2    0.29    0.11
  -7   3   2    0.31    0.12
   6  -3  -2    4.75    0.36
   6  -3  -2    5.15    0.35
  -6   3   2    5.46    0.33
  -6   3   2    5.07    0.27
  -6   3   2    5.32    0.35
  -6   3   2    4.95    0.33
  -6   3   2    5.14    0.33
  -6   3   2    5.20    0.34
  -6   3   2    5.81    0.30
  -6   3   2    5.29    0.35
   5  -3  -2    1.58    0.21
   5  -3  -2    1.36    0.19
  -5   3   2    1.84    0.20
  -5   3   2    1.57    0.17
  -5   3   2    1.64    0.23
  -5   3   2    1.18    0.16
  -5   3   2    1.65    0.21
  -5   3   2    1.55    0.20
   4  -3  -2   52.68    1.38
   4  -3  -2   52.64    1.34
   4  -3  -2   54.44    1.37
  -4   3   2   55.37    1.39
  -4   3   2   54.38    1.46
  -4   3   2   53.66    1.27
  -4   3   2   51.73    1.26
  -4   3   2   51.60    1.52
  -4   3   2   50.32    1.46
  -4   3   2   53.93    1.34
   3  -3  -2    2.02    0.16
   3  -3  -2    1.49    0.14
   3  -3  -2    1.71    0.18
   3  -3  -2    1.79    0.15
   3  -3  -2    2.04    0.18
  -3   3   2    1.76    0.14
  -3   3   2    1.78    0.16
  -3   3   2    1.78    0.16
  -3   3   2    1.87    0.15
  -3   3   2    1.68    0.13
  -3   3   2    1.55    0.16
  -3   3   2    2.05    0.19
   2  -3  -2    0.95    0.09
   2  -3  -2    0.89    0.12
   2  -3  -2    0.69    0.11
   2  -3  -2    0.97    0.14
   2  -3  -2    1.26    0.13
  -2   3   2    1.19    0.14
  -2   3   2    0.95    0.13
  -2   3   2    0.87    0.11
  -2   3   2    0.62    0.09
   1  -3  -2    6.19    0.21
   1  -3  -2    6.14    0.27
   1  -3  -2    5.90    0.27
  -1   3   2    6.06    0.24
  -1   3   2    6.14    0.27
  -1   3   2    6.15    0.28
  -1   3   2    6.64    0.26
   0  -3  -2   27.11    0.71
   0  -3  -2   27.51    0.74
   0  -3  -2   27.23    0.77
   0   3   2   29.13    0.71
   0   3   2   27.34    0.77
   0   3   2   27.50    0.75
   0   3   2   27.84    0.77
  -1  -3  -2    1.21    0.18
  -1  -3  -2    0.91    0.11
  -1  -3  -2    0.91    0.15
  -1  -3  -2    1.05    0.10
   1   3   2    1.05    0.15
   1   3   2    0.98    0.14
   1   3   2    0.73    0.10
   1   3   2    0.92    0.09
  -2  -3  -2   25.72    0.78
  -2  -3  -2   25.46    0.76
  -2  -3  -2   24.79    0.71
   2   3   2   24.39    0.77
   2   3   2   25.50    0.75
   2   3   2   25.14    0.76
  -3  -3  -2    1.17    0.14
  -3  -3  -2    1.63    0.24
  -3  -3  -2    1.48    0.20
  -3  -3  -2    1.11    0.17
   3   3   2    1.16    0.18
   3   3   2    0.87    0.12
   3   3   2    1.33    0.18
   3   3   2    0.99    0.15
  -4  -3  -2    0.58    0.12
  -4  -3  -2    0.51    0.14
  -4  -3  -2    0.71    0.15
  -4  -3  -2    0.57    0.13
  -4  -3  -2    0.65    0.15
   4   3   2    0.50    0.13
   4   3   2    0.47    0.13
   4   3   2    0.29    0.11
   4   3   2    0.49    0.11
   4   3   2    0.45    0.12
  -5  -3  -2   -0.11    0.11
  -5  -3  -2    0.13    0.12
  -5  -3  -2   -0.08    0.10
  -5  -3  -2   -0.11    0.12
  -5  -3  -2    0.07    0.16
  -5  -3  -2    0.07    0.10
   5   3   2   -0.25    0.11
   5   3   2    0.09    0.08
   5   3   2   -0.01    0.11
   5   3   2    0.09    0.11
   5   3   2    0.05    0.09
  -6  -3  -2   -0.10    0.14
  -6  -3  -2   -0.12    0.14
  -6  -3  -2    0.05    0.13
  -6  -3  -2    0.00    0.12
  -6  -3  -2   -0.04    0.12
   6   3   2   -0.12    0.12
   6   3   2    0.05    0.10
   6   3   2   -0.07    0.10
   6   3   2   -0.04    0.09
  -7  -3  -2    0.11    0.12
  -7  -3  -2    0.08    0.17
  -7  -3  -2    0.14    0.17
  -7  -3  -2   -0.23    0.18
  -7  -3  -2   -0.08    0.14
   7   3   2    0.09    0.14
   7   3   2   -0.06    0.10
  -8  -3  -2    0.22    0.22
  -8  -3  -2    0.16    0.16
  -8  -3  -2    0.27    0.17
  -8  -3  -2   -0.01    0.14
   8   3   2    0.33    0.15
   8   3   2    0.25    0.17
 -10   4   2   -0.15    0.11
   9  -4  -2   -0.16    0.12
   9  -4  -2   -0.17    0.11
  -9   4   2   -0.01    0.12
  -9   4   2   -0.15    0.10
  -9   4   2    0.04    0.12
   8  -4  -2    0.06    0.12
   8  -4  -2    0.25    0.15
  -8   4   2    0.13    0.10
  -8   4   2    0.29    0.13
  -8   4   2    0.06    0.11
  -8   4   2    0.01    0.17
   7  -4  -2    0.54    0.17
   7  -4  -2    0.55    0.16
  -7   4   2    0.47    0.11
  -7   4   2    0.55    0.15
  -7   4   2    0.65    0.16
  -7   4   2    0.26    0.11
  -7   4   2    0.71    0.12
   6  -4  -2    7.15    0.39
   6  -4  -2    6.21    0.40
   6  -4  -2    6.77    0.42
  -6   4   2    6.65    0.38
  -6   4   2    6.33    0.37
  -6   4   2    6.54    0.38
  -6   4   2    6.92    0.40
  -6   4   2    6.70    0.40
   5  -4  -2    3.27    0.28
   5  -4  -2    3.06    0.27
   5  -4  -2    3.42    0.27
  -5   4   2    3.48    0.21
  -5   4   2    3.56    0.27
  -5   4   2    3.28    0.24
  -5   4   2    3.33    0.27
  -5   4   2    3.30    0.21
  -5   4   2    3.24    0.19
  -5   4   2    3.45    0.26
  -5   4   2    3.45    0.29
   4  -4  -2   52.32    1.33
   4  -4  -2   58.59    1.52
   4  -4  -2   51.32    1.29
   4  -4  -2   52.29    1.37
   4  -4  -2   52.67    1.29
  -4   4   2   53.64    1.31
  -4   4   2   52.18    1.38
  -4   4   2   55.60    1.53
  -4   4   2   52.04    1.36
  -4   4   2   51.58    1.31
  -4   4   2   51.44    1.30
  -4   4   2   52.14    1.27
   3  -4  -2    1.14    0.17
   3  -4  -2    1.07    0.14
   3  -4  -2    0.98    0.14
  -3   4   2    1.10    0.16
  -3   4   2    1.26    0.18
  -3   4   2    1.60    0.16
  -3   4   2    1.02    0.14
  -3   4   2    1.06    0.15
   2  -4  -2    6.30    0.26
   2  -4  -2    6.18    0.27
   2  -4  -2    5.78    0.21
   2  -4  -2    5.85    0.29
   2  -4  -2    6.10    0.30
  -2   4   2    5.93    0.26
  -2   4   2    6.36    0.30
  -2   4   2    6.48    0.30
  -2   4   2    6.07    0.30
   1  -4  -2    8.04    0.33
   1  -4  -2    7.82    0.32
  -1   4   2    8.07    0.36
  -1   4   2    7.48    0.35
  -1   4   2    8.07    0.32
  -1   4   2    8.46    0.32
   0  -4  -2    1.15    0.14
   0  -4  -2    1.29    0.19
   0  -4  -2    0.85    0.15
   0  -4  -2    0.85    0.14
   0   4   2    1.10    0.13
   0   4   2    1.28    0.18
   0   4   2    1.16    0.17
   0   4   2    1.28    0.18
  -1  -4  -2    0.35    0.10
  -1  -4  -2    0.55    0.13
  -1  -4  -2    0.47    0.08
  -1  -4  -2    0.52    0.14
   1   4   2    0.54    0.07
   1   4   2    0.47    0.12
   1   4   2    0.68    0.15
   1   4   2    0.21    0.09
  -2  -4  -2   34.40    1.01
  -2  -4  -2   33.53    0.86
  -2  -4  -2   35.01    1.01
  -2  -4  -2   34.80    0.94
  -2  -4  -2   34.70    1.01
   2   4   2   33.70    1.01
   2   4   2   35.36    1.00
   2   4   2   34.49    1.00
   2   4   2   35.20    0.84
  -3  -4  -2    9.38    0.47
  -3  -4  -2    8.97    0.45
  -3  -4  -2    8.47    0.40
   3   4   2    8.73    0.41
   3   4   2    8.55    0.44
   3   4   2    8.68    0.42
   3   4   2    9.15    0.40
  -4  -4  -2    5.22    0.38
  -4  -4  -2    6.07    0.43
  -4  -4  -2    5.64    0.44
  -4  -4  -2    6.09    0.37
   4   4   2    6.02    0.36
   4   4   2    5.78    0.39
   4   4   2    5.57    0.35
   4   4   2    5.47    0.34
   4   4   2    5.33    0.35
  -5  -4  -2    0.18    0.17
  -5  -4  -2    0.21    0.16
  -5  -4  -2   -0.20    0.15
  -5  -4  -2    0.21    0.14
  -5  -4  -2   -0.01    0.13
   5   4   2    0.07    0.13
   5   4   2    0.20    0.11
   5   4   2    0.19    0.20
   5   4   2    0.23    0.13
   5   4   2    0.20    0.14
  -6  -4  -2    0.33    0.17
  -6  -4  -2    0.42    0.28
  -6  -4  -2    0.47    0.17
  -6  -4  -2    0.32    0.19
   6   4   2    0.35    0.13
   6   4   2    0.38    0.16
   6   4   2    0.60    0.17
  -7  -4  -2    0.18    0.20
  -7  -4  -2    0.26    0.17
  -7  -4  -2    0.16    0.16
  -7  -4  -2   -0.35    0.16
   7   4   2    0.09    0.15
   7   4   2   -0.11    0.10
   7   4   2    0.20    0.14
  10  -5  -2    0.08    0.19
 -10   5   2    0.04    0.13
   9  -5  -2    0.07    0.13
   9  -5  -2    0.01    0.12
  -9   5   2    0.12    0.11
  -9   5   2    0.21    0.14
   8  -5  -2   -0.03    0.11
   8  -5  -2   -0.13    0.12
  -8   5   2   -0.13    0.12
  -8   5   2    0.13    0.19
  -8   5   2   -0.01    0.12
   7  -5  -2    0.88    0.18
   7  -5  -2    0.81    0.20
   7  -5  -2    0.86    0.20
  -7   5   2    0.62    0.17
  -7   5   2    1.04    0.19
  -7   5   2    0.70    0.17
  -7   5   2    0.51    0.16
   6  -5  -2    0.94    0.18
   6  -5  -2    0.97    0.18
   6  -5  -2    0.92    0.16
  -6   5   2    0.83    0.14
  -6   5   2    1.01    0.17
  -6   5   2    0.80    0.17
  -6   5   2    0.85    0.16
  -6   5   2    1.34    0.19
  -6   5   2    1.29    0.20
   5  -5  -2    0.67    0.15
   5  -5  -2    0.60    0.13
   5  -5  -2    0.79    0.12
   5  -5  -2    0.81    0.16
   5  -5  -2    0.79    0.12
  -5   5   2    0.43    0.11
  -5   5   2    0.55    0.13
  -5   5   2    0.83    0.14
  -5   5   2    0.72    0.15
  -5   5   2    0.59    0.10
  -5   5   2    0.69    0.16
  -5   5   2    0.66    0.12
   4  -5  -2    3.75    0.25
   4  -5  -2    4.05    0.26
   4  -5  -2    3.97    0.25
   4  -5  -2    3.72    0.29
   4  -5  -2    4.47    0.29
  -4   5   2    3.92    0.23
  -4   5   2    3.89    0.25
  -4   5   2    4.48    0.31
  -4   5   2    4.46    0.27
  -4   5   2    4.15    0.25
   3  -5  -2    0.06    0.11
   3  -5  -2    0.05    0.07
   3  -5  -2   -0.01    0.10
   3  -5  -2    0.05    0.06
  -3   5   2    0.04    0.07
  -3   5   2    0.12    0.13
  -3   5   2    0.00    0.11
  -3   5   2    0.07    0.08
   2  -5  -2    5.03    0.29
   2  -5  -2    4.70    0.23
   2  -5  -2    4.81    0.32
  -2   5   2    4.89    0.27
  -2   5   2    4.92    0.31
  -2   5   2    5.33    0.29
  -2   5   2    4.64    0.43
   1  -5  -2    4.41    0.26
   1  -5  -2    4.24    0.29
   1  -5  -2    4.45    0.28
   1  -5  -2    4.46    0.31
  -1   5   2    4.67    0.28
  -1   5   2    4.83    0.32
  -1   5   2    4.83    0.26
  -1   5   2    4.30    0.30
   0  -5  -2    1.25    0.26
   0  -5  -2    0.97    0.18
   0  -5  -2    0.76    0.11
   0  -5  -2    0.69    0.14
   0   5   2    1.08    0.18
   0   5   2    1.24    0.19
   0   5   2    0.99    0.15
   0   5   2    0.80    0.12
  -1  -5  -2    0.02    0.06
  -1  -5  -2    0.03    0.09
  -1  -5  -2    0.03    0.10
  -1  -5  -2   -0.02    0.11
   1   5   2    0.07    0.05
   1   5   2    0.08    0.12
   1   5   2   -0.06    0.08
   1   5   2    0.00    0.09
  -2  -5  -2    5.52    0.27
  -2  -5  -2    5.96    0.37
  -2  -5  -2    6.07    0.40
  -2  -5  -2    5.50    0.40
   2   5   2    5.39    0.36
   2   5   2    5.56    0.36
   2   5   2    5.98    0.24
   2   5   2    5.36    0.35
  -3  -5  -2    3.26    0.36
  -3  -5  -2    3.00    0.34
  -3  -5  -2    2.91    0.27
  -3  -5  -2    2.76    0.34
   3   5   2    2.93    0.31
   3   5   2    2.76    0.28
   3   5   2    2.96    0.29
   3   5   2    2.86    0.26
  -4  -5  -2   -0.04    0.14
  -4  -5  -2    0.09    0.11
  -4  -5  -2   -0.08    0.15
  -4  -5  -2    0.12    0.13
   4   5   2   -0.02    0.15
   4   5   2    0.15    0.15
   4   5   2   -0.05    0.13
   4   5   2    0.17    0.09
  -5  -5  -2    0.19    0.27
  -5  -5  -2    0.07    0.14
  -5  -5  -2    0.06    0.15
  -5  -5  -2    0.05    0.16
  -5  -5  -2   -0.13    0.17
   5   5   2   -0.01    0.09
   5   5   2   -0.08    0.11
   5   5   2    0.06    0.13
  -6  -5  -2    0.10    0.18
  -6  -5  -2    0.02    0.16
  -6  -5  -2    0.58    0.21
  -6  -5  -2    0.32    0.22
   6   5   2    0.28    0.12
   6   5   2    0.52    0.17
   6   5   2    0.17    0.13
  10  -6  -2    0.05    0.17
 -10   6   2   -0.06    0.13
   9  -6  -2    0.12    0.16
   9  -6  -2    0.03    0.14
  -9   6   2    0.28    0.12
  -9   6   2    0.36    0.12
  -9   6   2    0.02    0.13
   8  -6  -2   -0.22    0.13
   8  -6  -2   -0.06    0.15
  -8   6   2   -0.08    0.11
  -8   6   2    0.00    0.10
   7  -6  -2    0.40    0.17
   7  -6  -2    0.69    0.17
   7  -6  -2    0.54    0.15
  -7   6   2    0.39    0.14
  -7   6   2    0.35    0.13
  -7   6   2    0.53    0.12
  -7   6   2    0.59    0.16
   6  -6  -2    0.10    0.10
   6  -6  -2    0.01    0.11
   6  -6  -2    0.24    0.14
   6  -6  -2    0.17    0.11
  -6   6   2    0.23    0.20
  -6   6   2    0.29    0.11
  -6   6   2    0.16    0.11
  -6   6   2    0.08    0.09
  -6   6   2   -0.01    0.10
  -6   6   2    0.25    0.12
  -6   6   2    0.20    0.12
   5  -6  -2    0.07    0.11
   5  -6  -2    0.21    0.12
   5  -6  -2    0.12    0.11
   5  -6  -2    0.17    0.10
   5  -6  -2    0.17    0.11
  -5   6   2   -0.02    0.10
  -5   6   2    0.11    0.10
  -5   6   2    0.21    0.10
  -5   6   2    0.15    0.09
  -5   6   2    0.23    0.12
  -5   6   2    0.06    0.08
  -5   6   2   -0.03    0.09
   4  -6  -2    6.95    0.37
   4  -6  -2    7.32    0.38
   4  -6  -2    6.70    0.32
  -4   6   2    7.03    0.38
  -4   6   2    6.89    0.38
  -4   6   2    7.29    0.34
  -4   6   2    7.58    0.41
   3  -6  -2    1.81    0.24
   3  -6  -2    1.60    0.23
   3  -6  -2    1.99    0.26
   3  -6  -2    1.86    0.16
   3  -6  -2    1.74    0.19
  -3   6   2    2.00    0.23
  -3   6   2    1.43    0.25
  -3   6   2    1.92    0.24
  -3   6   2    2.10    0.24
   2  -6  -2    0.41    0.11
   2  -6  -2    0.34    0.16
  -2   6   2    0.33    0.11
  -2   6   2    0.36    0.13
  -2   6   2    0.24    0.09
  -2   6   2    0.68    0.29
   1  -6  -2    5.78    0.37
   1  -6  -2    5.78    0.32
   1  -6  -2    5.78    0.36
   1  -6  -2    5.56    0.35
  -1   6   2    5.62    0.36
  -1   6   2    6.19    0.37
  -1   6   2    5.90    0.36
  -1   6   2    5.74    0.32
   0  -6  -2    0.65    0.17
   0  -6  -2    0.86    0.18
   0  -6  -2    0.66    0.14
   0  -6  -2    0.68    0.12
   0   6   2    0.86    0.15
   0   6   2    0.92    0.18
   0   6   2    0.93    0.19
   0   6   2    1.02    0.13
  -1  -6  -2    0.99    0.16
  -1  -6  -2    1.85    0.28
  -1  -6  -2    1.37    0.25
  -1  -6  -2    0.83    0.17
   1   6   2    1.10    0.24
   1   6   2    0.74    0.16
   1   6   2    1.51    0.25
   1   6   2    1.27    0.17
  -2  -6  -2    2.60    0.23
  -2  -6  -2    3.30    0.26
  -2  -6  -2    3.27    0.37
  -2  -6  -2    2.00    0.28
  -2  -6  -2    3.07    0.36
  -2  -6  -2    2.24    0.33
   2   6   2    2.70    0.23
   2   6   2    2.97    0.31
   2   6   2    2.19    0.31
   2   6   2    2.80    0.36
   2   6   2    2.83    0.20
  -3  -6  -2    0.04    0.14
  -3  -6  -2   -0.02    0.18
  -3  -6  -2    0.04    0.12
  -3  -6  -2    0.02    0.15
   3   6   2    0.04    0.06
   3   6   2   -0.05    0.08
   3   6   2    0.11    0.14
   3   6   2    0.04    0.13
  -4  -6  -2    0.04    0.16
  -4  -6  -2   -0.05    0.15
  -4  -6  -2   -0.44    0.19
  -4  -6  -2    0.03    0.15
   4   6   2    0.07    0.13
   4   6   2    0.08    0.09
  -5  -6  -2   -0.12    0.16
  -5  -6  -2    0.13    0.16
  -5  -6  -2    0.12    0.16
  -5  -6  -2   -0.12    0.21
   5   6   2   -0.05    0.08
   5   6   2   -0.13    0.11
   5   6   2   -0.05    0.13
  -6  -6  -2    0.11    0.20
  -6  -6  -2    0.40    0.20
  -6  -6  -2   -0.02    0.26
  -6  -6  -2    0.08    0.20
   6   6   2    0.31    0.23
   6   6   2    0.25    0.14
   6   6   2    0.10    0.11
   9  -7  -2    0.10    0.14
  -9   7   2   -0.02    0.12
  -9   7   2    0.07    0.12
  -9   7   2    0.06    0.10
   8  -7  -2   -0.11    0.22
   8  -7  -2    0.07    0.13
   8  -7  -2    0.25    0.17
  -8   7   2    0.01    0.10
  -8   7   2    0.06    0.15
   7  -7  -2    0.21    0.15
   7  -7  -2    0.13    0.14
   7  -7  -2    0.27    0.13
  -7   7   2    0.03    0.11
  -7   7   2    0.15    0.11
  -7   7   2    0.14    0.12
  -7   7   2    0.41    0.14
  -7   7   2   -0.01    0.12
   6  -7  -2    2.39    0.27
   6  -7  -2    2.34    0.27
   6  -7  -2    1.45    0.21
   6  -7  -2    2.10    0.25
   6  -7  -2    1.70    0.25
  -6   7   2    2.48    0.29
  -6   7   2    1.99    0.27
  -6   7   2    1.93    0.27
  -6   7   2    1.49    0.22
  -6   7   2    2.12    0.25
  -6   7   2    1.55    0.22
  -6   7   2    1.91    0.26
   5  -7  -2    5.20    0.35
   5  -7  -2    5.52    0.39
   5  -7  -2    5.53    0.36
   5  -7  -2    6.29    0.47
   5  -7  -2    5.41    0.36
  -5   7   2    5.43    0.36
  -5   7   2    5.16    0.33
  -5   7   2    5.13    0.36
  -5   7   2    5.40    0.34
  -5   7   2    5.40    0.38
   4  -7  -2   -0.02    0.13
   4  -7  -2    0.25    0.11
   4  -7  -2   -0.02    0.12
   4  -7  -2    0.06    0.08
  -4   7   2    0.05    0.10
  -4   7   2    0.09    0.14
  -4   7   2    0.14    0.10
  -4   7   2   -0.06    0.12
   3  -7  -2    0.16    0.08
   3  -7  -2    0.31    0.17
   3  -7  -2    0.56    0.11
   3  -7  -2    0.34    0.12
  -3   7   2    0.40    0.17
  -3   7   2    0.21    0.10
  -3   7   2    0.50    0.14
  -3   7   2    0.27    0.15
   2  -7  -2    3.71    0.36
   2  -7  -2    3.48    0.23
   2  -7  -2    3.69    0.33
   2  -7  -2    3.42    0.29
  -2   7   2    3.68    0.28
  -2   7   2    3.66    0.32
  -2   7   2    3.53    0.33
  -2   7   2    3.70    0.30
   1  -7  -2    3.57    0.36
   1  -7  -2    2.89    0.34
   1  -7  -2    2.83    0.27
   1  -7  -2    3.06    0.26
   1  -7  -2    2.82    0.31
  -1   7   2    2.86    0.29
  -1   7   2    3.31    0.26
  -1   7   2    3.24    0.32
  -1   7   2    3.12    0.33
   0  -7  -2   68.61    1.83
   0  -7  -2   70.19    1.95
   0  -7  -2   74.07    1.91
   0  -7  -2   74.89    1.98
   0  -7  -2   74.34    1.88
   0   7   2   73.31    1.79
   0   7   2   69.57    1.89
   0   7   2   74.05    1.97
   0   7   2   69.98    1.94
  -1  -7  -2    0.18    0.13
  -1  -7  -2    0.15    0.17
  -1  -7  -2    0.06    0.14
  -1  -7  -2    0.02    0.10
  -1  -7  -2    0.22    0.21
   1   7   2    0.02    0.17
   1   7   2    0.05    0.07
   1   7   2    0.12    0.13
   1   7   2    0.07    0.13
  -2  -7  -2    0.61    0.16
  -2  -7  -2    0.42    0.12
  -2  -7  -2    0.41    0.20
  -2  -7  -2    0.17    0.15
  -2  -7  -2    0.59    0.23
  -2  -7  -2    0.46    0.16
   2   7   2    0.46    0.11
   2   7   2    0.49    0.18
   2   7   2    0.42    0.12
  -3  -7  -2    2.02    0.27
  -3  -7  -2    1.51    0.27
  -3  -7  -2    1.98    0.25
  -3  -7  -2    1.40    0.26
  -3  -7  -2    1.47    0.24
   3   7   2    1.93    0.23
   3   7   2    2.18    0.33
   3   7   2    1.73    0.18
  -4  -7  -2    0.00    0.16
  -4  -7  -2   -0.01    0.17
  -4  -7  -2   -0.14    0.15
   4   7   2    0.06    0.08
   4   7   2   -0.17    0.12
  -5  -7  -2   -0.21    0.17
  -5  -7  -2    0.70    0.33
  -5  -7  -2   -0.07    0.17
  -5  -7  -2    0.40    0.22
   5   7   2    0.21    0.15
   5   7   2    0.42    0.17
   5   7   2    0.05    0.09
   9  -8  -2    0.10    0.16
  -9   8   2   -0.01    0.12
   8  -8  -2   -0.14    0.13
   8  -8  -2    0.06    0.13
  -8   8   2   -0.17    0.13
  -8   8   2    0.12    0.13
  -8   8   2   -0.02    0.13
   7  -8  -2    0.27    0.21
   7  -8  -2    0.24    0.14
   7  -8  -2   -0.10    0.16
   7  -8  -2   -0.01    0.24
  -7   8   2    0.02    0.12
  -7   8   2    0.00    0.16
  -7   8   2   -0.06    0.12
  -7   8   2    0.18    0.12
  -7   8   2    0.28    0.15
   6  -8  -2    2.91    0.32
   6  -8  -2    2.51    0.29
   6  -8  -2    2.71    0.34
   6  -8  -2    2.00    0.28
  -6   8   2    2.05    0.29
  -6   8   2    2.59    0.29
  -6   8   2    2.34    0.32
  -6   8   2    2.58    0.33
  -6   8   2    2.55    0.31
   5  -8  -2    0.47    0.17
   5  -8  -2    0.23    0.12
   5  -8  -2    0.64    0.20
   5  -8  -2    0.48    0.16
  -5   8   2    0.48    0.18
  -5   8   2    0.33    0.12
  -5   8   2    0.50    0.20
  -5   8   2    0.53    0.16
   4  -8  -2    0.96    0.14
   4  -8  -2    1.08    0.24
   4  -8  -2    1.00    0.22
  -4   8   2    1.09    0.23
  -4   8   2    0.79    0.15
  -4   8   2    0.98    0.17
  -4   8   2    1.69    0.27
   3  -8  -2    0.09    0.07
   3  -8  -2   -0.05    0.11
   3  -8  -2    0.23    0.17
  -3   8   2   -0.03    0.10
  -3   8   2    0.13    0.14
  -3   8   2    0.18    0.15
  -3   8   2    0.13    0.11
   2  -8  -2   15.10    0.54
   2  -8  -2   16.07    0.71
   2  -8  -2   15.15    0.64
   2  -8  -2   16.27    0.68
  -2   8   2   16.62    0.62
  -2   8   2   16.06    0.70
  -2   8   2   16.22    0.70
  -2   8   2   14.58    0.63
   1  -8  -2   13.90    0.58
   1  -8  -2   14.96    0.67
   1  -8  -2   12.53    0.59
   1  -8  -2   15.44    0.71
   1  -8  -2   14.82    0.94
  -1   8   2   14.25    0.67
  -1   8   2   14.85    0.58
  -1   8   2   14.49    0.73
  -1   8   2   15.04    0.69
   0  -8  -2    3.83    0.42
   0  -8  -2    3.56    0.41
   0  -8  -2    3.28    0.43
   0  -8  -2    3.08    0.34
   0  -8  -2    3.46    0.32
   0   8   2    3.48    0.36
   0   8   2    2.74    0.34
   0   8   2    3.10    0.37
   0   8   2    3.36    0.27
  -1  -8  -2    9.29    0.54
  -1  -8  -2    9.22    0.56
  -1  -8  -2    9.62    0.60
  -1  -8  -2    8.42    0.45
  -1  -8  -2    9.54    0.60
   1   8   2    9.66    0.41
   1   8   2    9.44    0.55
  -2  -8  -2    0.13    0.36
  -2  -8  -2    0.29    0.13
  -2  -8  -2    0.01    0.12
  -2  -8  -2    0.27    0.29
  -2  -8  -2    0.13    0.16
   2   8   2    0.30    0.16
   2   8   2    0.29    0.10
   2   8   2    0.18    0.08
  -3  -8  -2    0.13    0.25
  -3  -8  -2   -0.05    0.17
  -3  -8  -2   -0.20    0.15
  -3  -8  -2   -0.05    0.18
   3   8   2    0.05    0.08
   3   8   2   -0.04    0.14
   3   8   2    0.01    0.08
  -4  -8  -2   -0.12    0.17
  -4  -8  -2    0.05    0.20
  -4  -8  -2   -0.25    0.18
   4   8   2   -0.13    0.16
   4   8   2   -0.02    0.12
   9  -9  -2    0.12    0.16
   9  -9  -2    0.01    0.20
  -9   9   2    0.12    0.15
   8  -9  -2    0.19    0.15
   8  -9  -2    0.42    0.19
  -8   9   2    0.20    0.14
  -8   9   2    0.05    0.17
  -8   9   2    0.39    0.28
   7  -9  -2    0.09    0.12
   7  -9  -2    0.17    0.19
   7  -9  -2    0.15    0.17
  -7   9   2   -0.28    0.11
  -7   9   2    0.08    0.18
  -7   9   2   -0.21    0.13
  -7   9   2    0.34    0.16
  -7   9   2    0.26    0.15
   6  -9  -2   -0.06    0.17
   6  -9  -2    0.34    0.13
   6  -9  -2    0.48    0.19
  -6   9   2    0.06    0.12
  -6   9   2    0.04    0.14
  -6   9   2    0.42    0.17
  -6   9   2    0.29    0.18
   5  -9  -2    0.09    0.11
  -5   9   2    0.01    0.13
  -5   9   2   -0.04    0.11
  -5   9   2    0.32    0.16
  -5   9   2    0.18    0.17
   4  -9  -2    0.89    0.25
   4  -9  -2    0.48    0.12
  -4   9   2    0.28    0.15
  -4   9   2    0.74    0.22
  -4   9   2    1.25    0.26
  -4   9   2    0.62    0.16
   3  -9  -2    0.46    0.21
   3  -9  -2    0.16    0.16
   3  -9  -2    0.28    0.09
  -3   9   2    0.16    0.17
  -3   9   2    0.26    0.19
  -3   9   2    0.17    0.13
  -3   9   2    0.14    0.19
   2  -9  -2    0.10    0.13
   2  -9  -2   -0.07    0.18
   2  -9  -2   -0.13    0.15
  -2   9   2    0.11    0.24
  -2   9   2    0.07    0.10
  -2   9   2    0.21    0.18
   1  -9  -2    0.93    0.26
   1  -9  -2    0.43    0.21
   1  -9  -2    0.60    0.16
   1  -9  -2    0.56    0.18
  -1   9   2    0.98    0.23
  -1   9   2    0.83    0.23
  -1   9   2    0.55    0.14
   0  -9  -2    0.19    0.15
   0  -9  -2    0.26    0.14
   0  -9  -2    0.37    0.21
   0  -9  -2    0.12    0.16
   0   9   2    0.35    0.11
   0   9   2    0.55    0.22
  -1  -9  -2    0.61    0.18
  -1  -9  -2    0.56    0.19
  -1  -9  -2    0.40    0.15
  -1  -9  -2    0.59    0.24
   1   9   2    0.62    0.13
   1   9   2    1.02    0.26
   1   9   2    0.90    0.14
  -2  -9  -2    0.12    0.21
  -2  -9  -2   -0.29    0.13
  -2  -9  -2    0.07    0.14
  -2  -9  -2    0.01    0.18
  -2  -9  -2   -0.03    0.18
   2   9   2    0.08    0.09
   2   9   2    0.07    0.09
   2   9   2    0.05    0.16
  -3  -9  -2    0.29    0.22
  -3  -9  -2   -0.03    0.17
  -3  -9  -2    0.74    0.27
   3   9   2    0.30    0.17
   3   9   2    0.26    0.11
   3   9   2    0.35    0.10
   8 -10  -2   -0.18    0.15
   8 -10  -2    0.14    0.18
   8 -10  -2    0.15    0.23
  -8  10   2   -0.26    0.20
  -8  10   2   -0.34    0.14
  -8  10   2   -0.06    0.16
   7 -10  -2    0.49    0.15
   7 -10  -2   -0.21    0.21
   7 -10  -2    0.49    0.19
  -7  10   2    0.43    0.18
  -7  10   2    0.47    0.20
   6 -10  -2    0.01    0.15
   6 -10  -2    0.09    0.31
   6 -10  -2   -0.05    0.11
  -6  10   2   -0.04    0.22
  -6  10   2   -0.06    0.13
  -6  10   2   -0.18    0.18
  -6  10   2    0.31    0.19
   5 -10  -2   -0.18    0.10
   5 -10  -2   -0.03    0.19
  -5  10   2    0.21    0.20
  -5  10   2   -0.03    0.16
  -5  10   2    0.03    0.12
   4 -10  -2    0.29    0.19
  -4  10   2    0.01    0.19
  -4  10   2   -0.30    0.17
  -4  10   2   -0.22    0.13
  -4  10   2    0.13    0.14
   3 -10  -2   -0.09    0.21
   3 -10  -2   -0.01    0.14
  -3  10   2    0.12    0.19
  -3  10   2   -0.16    0.16
  -3  10   2   -0.09    0.11
   2 -10  -2    0.58    0.19
   2 -10  -2    0.89    0.26
   2 -10  -2    0.42    0.14
  -2  10   2    0.86    0.23
  -2  10   2    0.58    0.15
   1 -10  -2    0.96    0.23
   1 -10  -2    0.89    0.27
   1 -10  -2    0.73    0.18
  -1  10   2    1.75    0.33
  -1  10   2    0.67    0.14
   0 -10  -2    0.52    0.25
   0 -10  -2    0.35    0.18
   0 -10  -2    0.40    0.18
   0 -10  -2    0.45    0.18
   0  10   2    0.45    0.18
   0  10   2    0.20    0.11
  -1 -10  -2    0.70    0.26
  -1 -10  -2    0.79    0.19
  -1 -10  -2    0.52    0.22
  -1 -10  -2    0.78    0.23
   1  10   2    0.65    0.12
   1  10   2    0.50    0.13
   1  10   2    0.89    0.23
  -2 -10  -2   -0.36    0.17
  -2 -10  -2    0.20    0.25
  -2 -10  -2   -0.10    0.20
   2  10   2    0.17    0.09
   2  10   2   -0.13    0.16
   2  10   2   -0.11    0.08
   7 -11  -2    0.31    0.17
   7 -11  -2   -0.52    0.43
   7 -11  -2   -0.14    0.15
  -7  11   2    0.21    0.21
  -7  11   2   -0.14    0.21
  -7  11   2   -0.27    0.13
   6 -11  -2    0.11    0.13
   6 -11  -2   -0.10    0.22
   6 -11  -2   -0.11    0.14
  -6  11   2    0.33    0.19
  -6  11   2   -0.31    0.18
  -6  11   2   -0.06    0.12
  -6  11   2   -0.18    0.14
   5 -11  -2    0.24    0.23
   5 -11  -2   -0.01    0.12
  -5  11   2   -0.13    0.19
  -5  11   2   -0.32    0.13
  -5  11   2   -0.24    0.11
  -5  11   2    0.09    0.18
   4 -11  -2    0.42    0.25
   4 -11  -2    0.42    0.13
  -4  11   2    0.31    0.14
  -4  11   2    0.72    0.22
   3 -11  -2    0.31    0.16
   3 -11  -2    0.58    0.26
  -3  11   2    0.35    0.18
  -3  11   2    0.17    0.14
   2 -11  -2   -0.26    0.13
   2 -11  -2    0.00    0.20
   2 -11  -2    0.15    0.16
  -2  11   2    0.06    0.17
  -2  11   2   -0.10    0.09
   1 -11  -2    0.13    0.18
   1 -11  -2   -0.16    0.14
   1 -11  -2    0.04    0.24
  -1  11   2   -0.11    0.09
  -1  11   2    0.02    0.17
   0 -11  -2   -0.10    0.16
   0 -11  -2    0.24    0.24
   0 -11  -2   -0.21    0.17
   0  11   2    0.33    0.23
   0  11   2   -0.18    0.07
   4 -12  -2   -0.33    0.29
  -4  12   2   -0.19    0.11
  -4  12   2    0.52    0.22
   3 -12  -2    0.03    0.26
  -3  12   2    0.26    0.22
  -3  12   2    0.19    0.14
  -2  12  -3    0.62    0.25
  -2  12  -3   -0.03    0.13
   2 -12   3   -0.28    0.13
   2 -12   3    0.12    0.22
  -3  12  -3    0.20    0.21
  -3  12  -3   -0.24    0.11
   3 -12   3    0.04    0.24
  -4  12  -3   -0.09    0.20
  -4  12  -3    0.33    0.16
   4 -12   3   -0.38    0.23
   4 -12   3   -0.25    0.15
  -5  12  -3   -0.12    0.20
  -5  12  -3    0.30    0.21
   5 -12   3    0.00    0.14
   5 -12   3   -0.11    0.14
   5 -12   3    0.17    0.26
   1  11  -3    0.34    0.14
   1  11  -3    0.99    0.26
  -1 -11   3    0.62    0.31
  -1 -11   3    0.45    0.22
  -1 -11   3    0.06    0.20
   0  11  -3    0.13    0.11
   0  11  -3    0.02    0.20
   0 -11   3   -0.20    0.15
   0 -11   3   -0.06    0.22
   0 -11   3    0.13    0.16
  -1  11  -3    0.10    0.11
  -1  11  -3    0.20    0.16
   1 -11   3    0.03    0.13
   1 -11   3    0.42    0.26
  -2  11  -3    0.31    0.14
  -2  11  -3    0.51    0.22
   2 -11   3    0.24    0.14
   2 -11   3    0.56    0.25
  -3  11  -3    0.13    0.11
  -3  11  -3    0.15    0.17
   3 -11   3    0.09    0.22
  -4  11  -3    0.58    0.21
  -4  11  -3    0.76    0.25
  -4  11  -3    0.23    0.14
  -4  11  -3    0.31    0.14
   4 -11   3    0.67    0.28
   4 -11   3    0.37    0.18
  -5  11  -3   -0.08    0.17
  -5  11  -3    0.24    0.18
  -5  11  -3    0.01    0.11
  -5  11  -3    0.28    0.22
   5 -11   3   -0.22    0.13
   5 -11   3    0.01    0.23
   5 -11   3    0.29    0.15
  -6  11  -3   -0.03    0.13
  -6  11  -3   -0.05    0.19
  -6  11  -3    0.10    0.19
   6 -11   3   -0.10    0.25
   6 -11   3    0.09    0.14
   6 -11   3    0.20    0.15
  -7  11  -3    0.09    0.17
  -7  11  -3   -0.08    0.14
  -7  11  -3   -0.23    0.23
   7 -11   3    0.47    0.26
   7 -11   3   -0.02    0.14
   7 -11   3    0.05    0.17
   2  10  -3    0.47    0.21
   2  10  -3    0.13    0.13
  -2 -10   3    0.40    0.27
  -2 -10   3    0.56    0.20
  -2 -10   3   -0.08    0.18
   1  10  -3   -0.09    0.15
   1  10  -3    0.05    0.19
  -1 -10   3   -0.32    0.14
  -1 -10   3   -0.15    0.15
   0  10  -3    0.12    0.10
   0 -10   3    0.33    0.22
   0 -10   3    0.19    0.15
   0 -10   3   -0.18    0.13
  -1  10  -3    0.88    0.16
  -1  10  -3    1.69    0.43
   1 -10   3    0.99    0.27
   1 -10   3    0.70    0.16
  -2  10  -3    0.48    0.20
  -2  10  -3    0.41    0.31
  -2  10  -3    0.03    0.09
   2 -10   3    0.22    0.19
  -3  10  -3    0.36    0.13
  -3  10  -3    0.62    0.26
  -3  10  -3    0.45    0.25
   3 -10   3    0.91    0.25
  -4  10  -3    0.04    0.13
  -4  10  -3    0.31    0.21
  -4  10  -3    0.24    0.19
  -4  10  -3    0.15    0.14
   4 -10   3    0.04    0.14
   4 -10   3    0.01    0.20
  -5  10  -3    0.25    0.29
  -5  10  -3    0.07    0.16
  -5  10  -3   -0.01    0.18
  -5  10  -3    0.14    0.13
   5 -10   3    0.16    0.21
   5 -10   3    0.30    0.16
   5 -10   3    0.18    0.13
  -6  10  -3    1.04    0.13
  -6  10  -3    0.92    0.19
   6 -10   3    1.49    0.24
   6 -10   3    1.50    0.26
  -7  10  -3    4.73    0.49
  -7  10  -3    4.80    0.39
  -7  10  -3    3.37    0.39
   7 -10   3    3.55    0.45
   7 -10   3    3.21    0.41
   7 -10   3    4.76    0.42
  -8  10  -3   -0.06    0.14
  -8  10  -3    0.42    0.18
  -8  10  -3    0.24    0.15
  -8  10  -3    0.04    0.19
   8 -10   3    0.22    0.21
   8 -10   3    0.26    0.20
   4   9  -3    0.36    0.22
  -4  -9   3    0.38    0.19
  -4  -9   3    0.40    0.27
   3   9  -3    0.79    0.17
   3   9  -3    1.21    0.28
  -3  -9   3    1.06    0.25
  -3  -9   3    0.66    0.21
  -3  -9   3    1.13    0.31
   2   9  -3    0.15    0.09
   2   9  -3    0.22    0.15
  -2  -9   3   -0.04    0.20
  -2  -9   3   -0.02    0.15
  -2  -9   3    0.04    0.15
   1   9  -3    0.47    0.20
   1   9  -3    0.36    0.11
  -1  -9   3    0.27    0.16
  -1  -9   3    0.53    0.17
  -1  -9   3    0.25    0.23
   0   9  -3    0.10    0.10
   0   9  -3    0.05    0.15
   0  -9   3   -0.05    0.21
   0  -9   3   -0.03    0.11
   0  -9   3    0.14    0.14
   0  -9   3    0.16    0.20
   0  -9   3   -0.07    0.13
  -1   9  -3    0.49    0.14
  -1   9  -3    1.00    0.23
  -1   9  -3    0.64    0.22
   1  -9   3    0.58    0.16
   1  -9   3    0.15    0.22
   1  -9   3    0.50    0.20
   1  -9   3    0.25    0.15
  -2   9  -3    0.18    0.14
  -2   9  -3    0.73    0.22
  -2   9  -3    0.59    0.22
  -2   9  -3    0.42    0.13
   2  -9   3    0.26    0.14
   2  -9   3    0.45    0.16
   2  -9   3    0.77    0.26
  -3   9  -3    0.17    0.19
  -3   9  -3    0.23    0.11
  -3   9  -3    0.14    0.16
  -3   9  -3    0.16    0.11
   3  -9   3   -0.07    0.18
  -4   9  -3    0.85    0.23
  -4   9  -3    0.91    0.23
  -4   9  -3    0.78    0.15
  -4   9  -3    0.98    0.17
  -4   9  -3    0.43    0.16
   4  -9   3    0.86    0.25
   4  -9   3    0.64    0.20
  -5   9  -3    6.94    0.48
  -5   9  -3    6.78    0.45
  -5   9  -3    6.89    0.44
  -5   9  -3    7.59    0.48
  -5   9  -3    6.44    0.47
   5  -9   3    7.64    0.46
   5  -9   3    7.73    0.49
   5  -9   3    6.96    0.47
  -6   9  -3    0.01    0.09
  -6   9  -3    0.50    0.19
  -6   9  -3    0.05    0.16
  -6   9  -3    0.18    0.18
  -6   9  -3    0.19    0.15
   6  -9   3    0.01    0.14
   6  -9   3    0.35    0.18
   6  -9   3    0.24    0.17
  -7   9  -3    0.62    0.18
  -7   9  -3    0.17    0.14
  -7   9  -3    0.14    0.12
  -7   9  -3    0.35    0.17
   7  -9   3    0.15    0.20
   7  -9   3    0.09    0.17
   7  -9   3    0.52    0.19
  -8   9  -3    0.30    0.16
  -8   9  -3    0.03    0.11
  -8   9  -3    0.04    0.15
  -8   9  -3   -0.02    0.13
   8  -9   3    0.42    0.20
   8  -9   3    0.16    0.17
   5   8  -3    0.09    0.18
  -5  -8   3   -0.15    0.22
  -5  -8   3   -0.08    0.20
  -5  -8   3    0.27    0.29
  -5  -8   3    0.04    0.18
   4   8  -3    0.32    0.14
   4   8  -3    0.06    0.09
  -4  -8   3    0.08    0.16
  -4  -8   3   -0.02    0.15
  -4  -8   3   -0.15    0.15
  -4  -8   3   -0.16    0.26
  -4  -8   3    0.10    0.21
   3   8  -3    0.13    0.08
   3   8  -3    0.15    0.10
   3   8  -3    0.12    0.16
  -3  -8   3   -0.12    0.21
  -3  -8   3    0.35    0.22
  -3  -8   3   -0.20    0.14
  -3  -8   3    0.42    0.25
  -3  -8   3   -0.13    0.13
   2   8  -3    2.09    0.24
   2   8  -3    2.18    0.33
  -2  -8   3    2.42    0.34
  -2  -8   3    1.53    0.25
  -2  -8   3    2.08    0.33
  -2  -8   3    1.17    0.25
  -2  -8   3    1.64    0.28
   1   8  -3    0.15    0.14
   1   8  -3    0.01    0.09
   1   8  -3   -0.14    0.16
  -1  -8   3   -0.04    0.11
  -1  -8   3    0.14    0.20
  -1  -8   3   -0.07    0.14
  -1  -8   3   -0.05    0.12
   0   8  -3    1.55    0.22
   0   8  -3    1.40    0.26
   0   8  -3    1.06    0.37
   0  -8   3    1.24    0.26
   0  -8   3    0.75    0.15
   0  -8   3    0.92    0.19
   0  -8   3    1.11    0.19
   0  -8   3    1.20    0.28
  -1   8  -3    1.36    0.23
  -1   8  -3    1.12    0.16
  -1   8  -3    1.19    0.23
   1  -8   3    1.09    0.17
   1  -8   3    1.00    0.24
   1  -8   3    0.86    0.22
   1  -8   3    0.97    0.15
  -2   8  -3    1.38    0.21
  -2   8  -3    2.34    0.26
  -2   8  -3    1.60    0.26
  -2   8  -3    2.38    0.20
  -2   8  -3    1.90    0.28
   2  -8   3    2.05    0.32
   2  -8   3    2.21    0.22
   2  -8   3    2.42    0.29
   2  -8   3    1.62    0.29
  -3   8  -3    2.16    0.26
  -3   8  -3    2.34    0.29
  -3   8  -3    2.33    0.30
  -3   8  -3    1.99    0.30
  -3   8  -3    2.32    0.22
   3  -8   3    1.79    0.39
   3  -8   3    2.04    0.30
  -4   8  -3    0.23    0.16
  -4   8  -3   -0.01    0.13
  -4   8  -3    0.20    0.13
  -4   8  -3   -0.04    0.08
  -4   8  -3    0.14    0.10
   4  -8   3    0.11    0.17
   4  -8   3    0.17    0.13
   4  -8   3    0.42    0.15
  -5   8  -3   -0.02    0.07
  -5   8  -3    0.18    0.13
  -5   8  -3    0.16    0.12
  -5   8  -3    0.06    0.12
  -5   8  -3    0.03    0.15
  -5   8  -3    0.09    0.15
   5  -8   3    0.23    0.19
   5  -8   3    0.04    0.14
   5  -8   3   -0.05    0.16
   5  -8   3    0.19    0.13
   5  -8   3    0.04    0.13
  -6   8  -3    1.03    0.19
  -6   8  -3    1.10    0.21
  -6   8  -3    0.78    0.17
  -6   8  -3    0.81    0.13
  -6   8  -3    0.83    0.17
   6  -8   3    1.06    0.24
   6  -8   3    1.37    0.22
   6  -8   3    1.10    0.21
   6  -8   3    0.88    0.20
  -7   8  -3    0.55    0.14
  -7   8  -3    0.54    0.15
  -7   8  -3    1.12    0.19
  -7   8  -3    0.89    0.21
   7  -8   3    0.72    0.20
   7  -8   3    0.78    0.29
  -8   8  -3    0.02    0.14
  -8   8  -3    0.12    0.13
   8  -8   3    0.39    0.17
   8  -8   3    0.09    0.14
  -9   8  -3   -0.08    0.12
   9  -8   3    0.28    0.18
   9  -8   3    0.34    0.17
   5   7  -3    0.17    0.10
   5   7  -3    0.26    0.19
  -5  -7   3    0.28    0.22
  -5  -7   3   -0.26    0.14
  -5  -7   3    0.77    0.27
  -5  -7   3    0.17    0.17
  -5  -7   3    0.27    0.17
   4   7  -3    0.23    0.19
   4   7  -3    0.41    0.12
  -4  -7   3    0.19    0.17
  -4  -7   3    0.17    0.19
  -4  -7   3   -0.05    0.14
  -4  -7   3   -0.03    0.12
  -4  -7   3    0.10    0.20
   3   7  -3    0.19    0.15
   3   7  -3    0.13    0.08
   3   7  -3    0.18    0.10
  -3  -7   3   -0.10    0.11
  -3  -7   3    0.12    0.17
  -3  -7   3    0.32    0.16
  -3  -7   3    0.24    0.18
  -3  -7   3    0.16    0.16
   2   7  -3    7.32    0.31
   2   7  -3    6.41    0.43
   2   7  -3    6.97    0.37
   2   7  -3    7.96    0.49
  -2  -7   3    7.84    0.49
  -2  -7   3    6.64    0.39
  -2  -7   3    7.22    0.47
  -2  -7   3    7.35    0.50
  -2  -7   3    7.17    0.49
   1   7  -3    3.70    0.32
   1   7  -3    3.90    0.27
   1   7  -3    4.14    0.37
   1   7  -3    4.20    0.35
  -1  -7   3    3.76    0.30
  -1  -7   3    4.18    0.39
  -1  -7   3    4.03    0.39
  -1  -7   3    4.47    0.37
  -1  -7   3    3.64    0.34
   0   7  -3    0.25    0.14
   0   7  -3    0.27    0.11
   0   7  -3    0.27    0.09
   0   7  -3    0.27    0.15
   0  -7   3    0.31    0.10
   0  -7   3    0.39    0.18
   0  -7   3    0.23    0.14
   0  -7   3    0.27    0.14
   0  -7   3    0.39    0.13
  -1   7  -3    0.03    0.08
  -1   7  -3    0.01    0.09
  -1   7  -3    0.05    0.13
  -1   7  -3    0.01    0.14
  -1   7  -3    0.16    0.13
   1  -7   3    0.13    0.09
   1  -7   3    0.05    0.13
   1  -7   3    0.15    0.17
   1  -7   3    0.13    0.09
  -2   7  -3    0.01    0.12
  -2   7  -3    0.00    0.07
  -2   7  -3    0.12    0.10
  -2   7  -3   -0.03    0.07
  -2   7  -3   -0.12    0.06
  -2   7  -3    0.01    0.12
   2  -7   3    0.05    0.07
   2  -7   3   -0.04    0.13
   2  -7   3    0.02    0.08
   2  -7   3    0.00    0.12
  -3   7  -3    1.83    0.27
  -3   7  -3    1.97    0.26
  -3   7  -3    2.15    0.20
  -3   7  -3    1.53    0.22
  -3   7  -3    1.34    0.39
   3  -7   3    1.77    0.23
   3  -7   3    1.86    0.24
   3  -7   3    1.96    0.26
   3  -7   3    1.38    0.18
  -4   7  -3    4.16    0.34
  -4   7  -3    3.99    0.33
  -4   7  -3    4.25    0.32
  -4   7  -3    4.51    0.32
  -4   7  -3    4.11    0.21
  -4   7  -3    4.12    0.29
   4  -7   3    4.34    0.34
   4  -7   3    3.67    0.30
   4  -7   3    3.83    0.32
   4  -7   3    4.71    0.33
  -5   7  -3    1.07    0.17
  -5   7  -3    0.59    0.16
  -5   7  -3    1.29    0.21
  -5   7  -3    1.31    0.20
  -5   7  -3    1.07    0.18
  -5   7  -3    0.90    0.17
   5  -7   3    0.91    0.18
   5  -7   3    1.08    0.21
   5  -7   3    1.13    0.18
   5  -7   3    1.06    0.19
   5  -7   3    1.23    0.20
  -6   7  -3    5.37    0.39
  -6   7  -3    5.10    0.34
  -6   7  -3    5.20    0.31
  -6   7  -3    5.01    0.32
  -6   7  -3    5.09    0.36
  -6   7  -3    4.69    0.37
   6  -7   3    5.40    0.31
   6  -7   3    5.08    0.31
   6  -7   3    4.99    0.40
   6  -7   3    5.19    0.41
   6  -7   3    5.25    0.51
  -7   7  -3    0.72    0.15
  -7   7  -3    0.22    0.11
  -7   7  -3    0.50    0.14
  -7   7  -3    0.70    0.14
   7  -7   3    0.35    0.16
   7  -7   3    0.54    0.18
  -8   7  -3    0.48    0.22
  -8   7  -3    0.10    0.11
   8  -7   3    0.19    0.16
   8  -7   3    0.30    0.17
  -9   7  -3   -0.01    0.20
   9  -7   3    0.27    0.15
   9  -7   3    0.18    0.17
   6   6  -3   -0.13    0.14
   6   6  -3    0.35    0.20
  -6  -6   3    0.23    0.24
  -6  -6   3    0.11    0.17
  -6  -6   3    0.00    0.17
  -6  -6   3   -0.23    0.13
  -6  -6   3    0.12    0.18
   5   6  -3   -0.03    0.13
   5   6  -3    0.06    0.10
   5   6  -3    0.26    0.15
  -5  -6   3   -0.22    0.11
  -5  -6   3    0.17    0.14
  -5  -6   3    0.13    0.18
  -5  -6   3    0.02    0.19
  -5  -6   3    0.34    0.18
   4   6  -3    0.60    0.18
   4   6  -3    0.25    0.10
   4   6  -3    0.05    0.13
  -4  -6   3    0.24    0.17
  -4  -6   3    0.47    0.19
  -4  -6   3    0.54    0.13
  -4  -6   3    0.30    0.17
  -4  -6   3    0.31    0.16
   3   6  -3    7.20    0.44
   3   6  -3    6.87    0.40
   3   6  -3    6.75    0.43
   3   6  -3    6.95    0.36
   3   6  -3    6.61    0.43
  -3  -6   3    6.21    0.36
  -3  -6   3    6.91    0.47
  -3  -6   3    7.08    0.45
  -3  -6   3    6.81    0.46
  -3  -6   3    7.30    0.46
   2   6  -3    0.47    0.16
   2   6  -3    0.31    0.12
   2   6  -3    0.32    0.10
   2   6  -3    0.54    0.16
   2   6  -3    0.37    0.08
  -2  -6   3    0.54    0.18
  -2  -6   3    0.29    0.10
  -2  -6   3    0.06    0.14
  -2  -6   3    0.29    0.13
  -2  -6   3    0.44    0.17
   1   6  -3    3.50    0.24
   1   6  -3    3.44    0.30
   1   6  -3    3.83    0.32
   1   6  -3    3.34    0.28
  -1  -6   3    3.46    0.29
  -1  -6   3    3.42    0.30
  -1  -6   3    3.46    0.33
  -1  -6   3    3.10    0.25
  -1  -6   3    2.81    0.32
   0   6  -3   26.86    0.83
   0   6  -3   26.94    0.88
   0   6  -3   28.48    0.81
   0   6  -3   25.62    0.83
   0   6  -3   28.36    0.90
   0  -6   3   28.19    0.91
   0  -6   3   28.51    0.83
   0  -6   3   27.09    0.87
   0  -6   3   25.60    0.80
   0  -6   3   26.33    0.89
  -1   6  -3   18.24    0.59
  -1   6  -3   17.88    0.65
  -1   6  -3   17.41    0.62
  -1   6  -3   17.11    0.57
  -1   6  -3   18.76    0.66
   1  -6   3   17.84    0.76
   1  -6   3   16.19    0.59
   1  -6   3   17.02    0.64
   1  -6   3   17.83    0.57
  -2   6  -3    7.15    0.38
  -2   6  -3    7.71    0.36
  -2   6  -3    6.80    0.29
  -2   6  -3    7.39    0.39
  -2   6  -3    6.95    0.38
   2  -6   3    6.94    0.36
   2  -6   3    7.48    0.29
   2  -6   3    7.68    0.41
   2  -6   3    6.89    0.38
  -3   6  -3    2.72    0.22
  -3   6  -3    2.73    0.26
  -3   6  -3    3.06    0.24
  -3   6  -3    2.88    0.24
  -3   6  -3    3.08    0.28
   3  -6   3    3.09    0.25
   3  -6   3    2.72    0.26
   3  -6   3    2.94    0.24
   3  -6   3    2.72    0.27
  -4   6  -3    0.27    0.07
  -4   6  -3    0.45    0.12
  -4   6  -3    0.29    0.09
  -4   6  -3    0.29    0.12
  -4   6  -3    0.55    0.15
  -4   6  -3    0.44    0.13
   4  -6   3    0.22    0.10
   4  -6   3    0.42    0.14
   4  -6   3    0.34    0.11
   4  -6   3    0.31    0.12
   4  -6   3    0.47    0.13
  -5   6  -3    0.15    0.10
  -5   6  -3    0.17    0.10
  -5   6  -3    0.18    0.12
  -5   6  -3    0.06    0.07
  -5   6  -3   -0.11    0.08
   5  -6   3    0.00    0.09
   5  -6   3   -0.02    0.11
   5  -6   3    0.00    0.10
   5  -6   3    0.01    0.10
   5  -6   3   -0.03    0.10
  -6   6  -3    3.70    0.25
  -6   6  -3    2.65    0.39
  -6   6  -3    3.09    0.25
  -6   6  -3    2.25    0.36
  -6   6  -3    3.21    0.23
  -6   6  -3    3.14    0.29
   6  -6   3    3.16    0.30
   6  -6   3    2.84    0.32
   6  -6   3    3.46    0.33
  -7   6  -3    0.71    0.18
  -7   6  -3    0.64    0.14
  -7   6  -3    0.69    0.14
   7  -6   3    0.60    0.17
   7  -6   3    0.62    0.17
  -8   6  -3   -0.05    0.11
   8  -6   3    0.03    0.13
   8  -6   3    0.12    0.13
  -9   6  -3    0.14    0.13
  -9   6  -3    0.33    0.17
   9  -6   3    0.24    0.18
   9  -6   3    0.10    0.16
   7   5  -3   -0.02    0.17
   7   5  -3    0.09    0.15
  -7  -5   3   -0.17    0.12
  -7  -5   3   -0.05    0.17
  -7  -5   3    0.08    0.14
  -7  -5   3    0.11    0.17
  -7  -5   3   -0.17    0.40
   6   5  -3    0.79    0.19
   6   5  -3    0.61    0.15
   6   5  -3    0.58    0.14
   6   5  -3    0.61    0.18
  -6  -5   3    0.41    0.20
  -6  -5   3    0.60    0.20
  -6  -5   3    1.28    0.25
  -6  -5   3    0.86    0.24
  -6  -5   3    0.26    0.13
  -6  -5   3    0.61    0.18
   5   5  -3    0.80    0.16
   5   5  -3    0.88    0.20
   5   5  -3    1.14    0.20
   5   5  -3    0.55    0.16
  -5  -5   3    0.83    0.21
  -5  -5   3    0.95    0.22
  -5  -5   3    1.00    0.22
  -5  -5   3    0.59    0.18
  -5  -5   3    0.61    0.14
   4   5  -3    0.15    0.13
   4   5  -3    0.14    0.15
   4   5  -3   -0.05    0.08
   4   5  -3    0.06    0.08
   4   5  -3   -0.18    0.10
  -4  -5   3   -0.20    0.12
  -4  -5   3   -0.03    0.09
  -4  -5   3    0.14    0.15
  -4  -5   3   -0.07    0.13
  -4  -5   3    0.16    0.15
   3   5  -3    1.30    0.20
   3   5  -3    0.78    0.15
   3   5  -3    1.43    0.22
   3   5  -3    1.00    0.13
  -3  -5   3    1.10    0.21
  -3  -5   3    1.26    0.23
  -3  -5   3    0.82    0.19
  -3  -5   3    1.33    0.19
  -3  -5   3    0.79    0.17
   2   5  -3    0.91    0.15
   2   5  -3    1.18    0.13
   2   5  -3    1.53    0.23
   2   5  -3    1.36    0.20
   2   5  -3    1.27    0.16
  -2  -5   3    0.82    0.17
  -2  -5   3    0.99    0.13
  -2  -5   3    1.00    0.16
  -2  -5   3    0.93    0.16
  -2  -5   3    1.29    0.21
   1   5  -3    0.22    0.12
   1   5  -3    0.27    0.13
   1   5  -3    0.15    0.09
   1   5  -3    0.15    0.09
   1   5  -3    0.13    0.09
  -1  -5   3    0.14    0.13
  -1  -5   3    0.31    0.15
  -1  -5   3    0.15    0.08
  -1  -5   3    0.09    0.10
  -1  -5   3    0.18    0.11
   0   5  -3    0.63    0.12
   0   5  -3    0.63    0.12
   0   5  -3    0.68    0.14
   0   5  -3    0.78    0.15
   0   5  -3    0.56    0.11
   0  -5   3    0.45    0.12
   0  -5   3    0.83    0.17
   0  -5   3    0.68    0.12
   0  -5   3    0.51    0.14
   0  -5   3    0.46    0.10
  -1   5  -3    0.19    0.08
  -1   5  -3    0.21    0.08
  -1   5  -3    0.17    0.11
  -1   5  -3    0.25    0.11
  -1   5  -3    0.15    0.08
   1  -5   3    0.21    0.09
   1  -5   3    0.30    0.13
   1  -5   3    0.10    0.09
   1  -5   3    0.28    0.09
  -2   5  -3    4.10    0.43
  -2   5  -3    3.81    0.20
  -2   5  -3    3.68    0.37
  -2   5  -3    3.74    0.26
  -2   5  -3    3.89    0.26
   2  -5   3    3.85    0.20
   2  -5   3    3.85    0.26
   2  -5   3    3.74    0.23
   2  -5   3    3.95    0.27
   2  -5   3    3.79    0.24
  -3   5  -3    3.86    0.25
  -3   5  -3    2.95    0.32
  -3   5  -3    3.74    0.26
  -3   5  -3    3.72    0.17
  -3   5  -3    3.82    0.25
   3  -5   3    3.54    0.24
   3  -5   3    3.63    0.26
   3  -5   3    3.60    0.25
   3  -5   3    3.70    0.26
  -4   5  -3    2.52    0.23
  -4   5  -3    2.96    0.24
  -4   5  -3    2.56    0.23
  -4   5  -3    2.60    0.18
  -4   5  -3    2.89    0.23
   4  -5   3    2.88    0.26
   4  -5   3    2.61    0.21
   4  -5   3    2.56    0.24
   4  -5   3    2.66    0.25
   4  -5   3    2.56    0.22
  -5   5  -3    6.95    0.31
  -5   5  -3    7.14    0.33
  -5   5  -3    6.82    0.32
  -5   5  -3    6.77    0.37
  -5   5  -3    7.27    0.35
  -5   5  -3    6.58    0.37
   5  -5   3    6.33    0.29
   5  -5   3    7.27    0.41
   5  -5   3    6.70    0.39
   5  -5   3    6.88    0.37
   5  -5   3    7.40    0.49
   5  -5   3    6.80    0.29
  -6   5  -3    0.00    0.11
  -6   5  -3    0.17    0.08
  -6   5  -3   -0.11    0.09
  -6   5  -3    0.09    0.10
  -6   5  -3    0.02    0.09
  -6   5  -3   -0.05    0.07
   6  -5   3    0.01    0.09
   6  -5   3    0.00    0.11
   6  -5   3    0.26    0.13
  -7   5  -3   -0.01    0.14
  -7   5  -3   -0.28    0.12
  -7   5  -3    0.17    0.11
   7  -5   3    0.00    0.10
   7  -5   3    0.16    0.14
   7  -5   3    0.19    0.13
  -8   5  -3    0.97    0.17
  -8   5  -3    0.56    0.14
   8  -5   3    1.24    0.33
   8  -5   3    0.97    0.26
  -9   5  -3   -0.05    0.12
  -9   5  -3   -0.22    0.14
  -9   5  -3    0.11    0.11
   9  -5   3    0.09    0.14
   7   4  -3    0.55    0.16
   7   4  -3    0.29    0.17
   7   4  -3    0.75    0.19
  -7  -4   3    0.20    0.14
  -7  -4   3    0.55    0.22
  -7  -4   3    0.59    0.19
  -7  -4   3    0.27    0.18
  -7  -4   3    0.52    0.19
   6   4  -3    6.51    0.62
   6   4  -3    5.68    0.44
   6   4  -3    6.13    0.41
   6   4  -3    5.73    0.35
   6   4  -3    5.42    0.36
   6   4  -3    4.57    0.35
  -6  -4   3    6.22    0.41
  -6  -4   3    6.20    0.65
  -6  -4   3    5.82    0.40
  -6  -4   3    5.49    0.34
  -6  -4   3    5.59    0.45
  -6  -4   3    5.91    0.40
   5   4  -3    8.06    0.48
   5   4  -3    8.53    0.45
   5   4  -3    7.55    0.46
   5   4  -3    8.78    0.49
   5   4  -3    8.39    0.43
   5   4  -3    8.77    0.40
  -5  -4   3    8.55    0.49
  -5  -4   3    7.73    0.52
  -5  -4   3    8.07    0.46
  -5  -4   3    8.26    0.45
  -5  -4   3    8.36    0.42
  -5  -4   3    8.20    0.39
   4   4  -3    2.45    0.26
   4   4  -3    2.45    0.21
   4   4  -3    2.20    0.26
   4   4  -3    2.32    0.24
   4   4  -3    1.74    0.23
  -4  -4   3    2.08    0.32
  -4  -4   3    2.29    0.23
  -4  -4   3    2.48    0.22
  -4  -4   3    2.58    0.29
  -4  -4   3    2.65    0.31
  -4  -4   3    2.36    0.25
   3   4  -3    7.73    0.38
   3   4  -3    7.82    0.40
   3   4  -3    8.22    0.32
   3   4  -3    7.45    0.37
   3   4  -3    8.56    0.35
  -3  -4   3    7.93    0.33
  -3  -4   3    8.10    0.44
  -3  -4   3    7.93    0.34
  -3  -4   3    7.83    0.41
  -3  -4   3    7.36    0.40
  -3  -4   3    7.97    0.42
   2   4  -3    4.08    0.24
   2   4  -3    4.20    0.27
   2   4  -3    4.12    0.28
   2   4  -3    4.06    0.28
   2   4  -3    4.08    0.21
   2   4  -3    4.02    0.27
  -2  -4   3    4.32    0.30
  -2  -4   3    4.02    0.28
  -2  -4   3    3.87    0.29
  -2  -4   3    4.52    0.30
  -2  -4   3    3.99    0.19
   1   4  -3   65.09    1.54
   1   4  -3   62.70    1.57
   1   4  -3   62.44    1.60
   1   4  -3   62.54    1.70
   1   4  -3   63.79    1.61
  -1  -4   3   64.67    1.59
  -1  -4   3   61.98    1.61
  -1  -4   3   63.03    1.54
  -1  -4   3   63.30    1.63
  -1  -4   3   65.07    1.60
   0   4  -3   17.96    0.53
   0   4  -3   16.78    0.55
   0   4  -3   16.69    0.54
   0   4  -3   17.45    0.58
   0   4  -3   17.55    0.58
   0  -4   3   16.76    0.57
   0  -4   3   17.64    0.53
   0  -4   3   17.15    0.54
   0  -4   3   17.05    0.59
   0  -4   3   17.02    0.57
  -1   4  -3   57.74    1.45
  -1   4  -3   57.89    1.44
  -1   4  -3   57.76    1.43
  -1   4  -3   58.33    1.40
  -1   4  -3   57.44    1.38
   1  -4   3   55.43    1.44
   1  -4   3   56.91    1.40
   1  -4   3   57.63    1.37
   1  -4   3   57.73    1.45
  -2   4  -3    1.79    0.14
  -2   4  -3    1.71    0.18
  -2   4  -3    1.91    0.16
  -2   4  -3    1.56    0.18
   2  -4   3    1.83    0.16
   2  -4   3    1.80    0.16
   2  -4   3    1.60    0.17
   2  -4   3    1.66    0.19
   2  -4   3    1.74    0.14
  -3   4  -3   19.50    0.59
  -3   4  -3   18.86    0.59
  -3   4  -3   19.37    0.52
  -3   4  -3   19.46    0.53
  -3   4  -3   19.85    0.59
   3  -4   3   19.84    0.60
   3  -4   3   18.76    0.58
   3  -4   3   18.85    0.58
   3  -4   3   19.81    0.56
   3  -4   3   19.86    0.61
  -4   4  -3   58.39    1.51
  -4   4  -3   57.80    1.52
  -4   4  -3   58.36    1.41
  -4   4  -3   61.37    1.48
  -4   4  -3   59.08    1.52
  -4   4  -3   58.62    1.45
  -4   4  -3   60.66    1.46
  -4   4  -3   59.33    1.45
   4  -4   3   59.11    1.44
   4  -4   3   62.53    1.56
   4  -4   3   58.87    1.44
   4  -4   3   58.97    1.60
   4  -4   3   61.47    1.50
  -5   4  -3    0.00    0.08
  -5   4  -3    0.02    0.09
  -5   4  -3    0.03    0.08
  -5   4  -3   -0.04    0.06
  -5   4  -3   -0.02    0.07
  -5   4  -3    0.05    0.08
  -5   4  -3    0.03    0.08
   5  -4   3   -0.05    0.09
   5  -4   3   -0.03    0.07
   5  -4   3    0.02    0.07
   5  -4   3    0.05    0.10
  -6   4  -3    0.25    0.12
  -6   4  -3    0.13    0.09
  -6   4  -3    0.26    0.09
  -6   4  -3    0.14    0.11
  -6   4  -3    0.48    0.12
   6  -4   3    0.16    0.10
   6  -4   3    0.40    0.14
   6  -4   3    0.15    0.11
  -7   4  -3    0.10    0.14
  -7   4  -3    0.25    0.10
  -7   4  -3    0.04    0.10
   7  -4   3    0.34    0.16
   7  -4   3    0.33    0.14
   7  -4   3    0.12    0.12
  -8   4  -3    0.15    0.14
  -8   4  -3    0.19    0.14
  -8   4  -3    0.16    0.11
   8  -4   3    0.09    0.13
  -9   4  -3    0.50    0.18
  -9   4  -3    0.43    0.16
  -9   4  -3    0.42    0.13
   9  -4   3    0.64    0.20
   9  -4   3    0.49    0.17
   8   3  -3    4.37    0.46
   8   3  -3    4.16    0.36
  -8  -3   3    4.45    0.46
  -8  -3   3    4.72    0.48
  -8  -3   3    3.07    0.33
  -8  -3   3    4.77    0.37
   7   3  -3    0.21    0.12
   7   3  -3    0.35    0.14
   7   3  -3   -0.05    0.12
   7   3  -3    0.28    0.17
  -7  -3   3    0.26    0.14
  -7  -3   3   -0.07    0.14
  -7  -3   3    0.24    0.16
  -7  -3   3    0.06    0.14
  -7  -3   3    0.04    0.11
  -7  -3   3   -0.23    0.18
   6   3  -3    0.11    0.12
   6   3  -3    0.18    0.14
   6   3  -3    0.26    0.12
   6   3  -3    0.47    0.14
   6   3  -3    0.41    0.13
  -6  -3   3    0.15    0.15
  -6  -3   3    0.15    0.17
  -6  -3   3    0.57    0.16
  -6  -3   3    0.36    0.15
  -6  -3   3    0.20    0.13
  -6  -3   3    0.29    0.12
  -6  -3   3    0.03    0.11
   5   3  -3    3.22    0.26
   5   3  -3    3.17    0.26
   5   3  -3    3.12    0.28
   5   3  -3    3.60    0.32
   5   3  -3    2.87    0.28
   5   3  -3    3.38    0.26
  -5  -3   3    3.11    0.32
  -5  -3   3    2.74    0.27
  -5  -3   3    2.77    0.28
  -5  -3   3    3.16    0.35
  -5  -3   3    2.96    0.27
  -5  -3   3    2.71    0.23
  -5  -3   3    3.07    0.27
   4   3  -3    5.78    0.32
   4   3  -3    6.01    0.32
   4   3  -3    5.80    0.32
   4   3  -3    6.03    0.31
   4   3  -3    5.97    0.33
   4   3  -3    6.36    0.35
  -4  -3   3    5.75    0.28
  -4  -3   3    5.38    0.29
  -4  -3   3    5.77    0.32
  -4  -3   3    5.93    0.34
  -4  -3   3    5.69    0.32
  -4  -3   3    6.38    0.40
  -4  -3   3    6.22    0.36
   3   3  -3    0.34    0.11
   3   3  -3    0.34    0.09
   3   3  -3    0.46    0.13
   3   3  -3    0.39    0.10
   3   3  -3    0.50    0.13
   3   3  -3    0.42    0.10
  -3  -3   3    0.35    0.08
  -3  -3   3    0.44    0.13
  -3  -3   3    0.43    0.09
  -3  -3   3    0.52    0.12
  -3  -3   3    0.28    0.12
  -3  -3   3    0.43    0.13
   2   3  -3   21.24    0.76
   2   3  -3   21.90    0.74
   2   3  -3   22.58    0.64
   2   3  -3   22.26    0.68
   2   3  -3   22.29    0.65
  -2  -3   3   21.48    0.62
  -2  -3   3   21.77    0.68
  -2  -3   3   21.59    0.60
  -2  -3   3   21.50    0.68
  -2  -3   3   22.72    0.66
  -2  -3   3   22.37    0.70
   1   3  -3   15.91    0.52
   1   3  -3   15.51    0.51
   1   3  -3   15.53    0.48
   1   3  -3   15.93    0.47
   1   3  -3   15.34    0.51
  -1  -3   3   15.70    0.53
  -1  -3   3   16.02    0.42
  -1  -3   3   15.94    0.52
  -1  -3   3   15.38    0.50
  -1  -3   3   15.23    0.52
   0   3  -3    0.25    0.07
   0   3  -3    0.27    0.09
   0   3  -3    0.20    0.07
   0   3  -3    0.20    0.06
   0   3  -3    0.34    0.09
   0  -3   3    0.17    0.05
   0  -3   3    0.25    0.10
   0  -3   3    0.19    0.07
   0  -3   3    0.11    0.07
  -1   3  -3   76.59    1.86
  -1   3  -3   79.16    1.87
  -1   3  -3   80.32    1.82
  -1   3  -3   81.65    1.84
   1  -3   3   77.30    1.87
   1  -3   3   78.70    1.84
   1  -3   3   79.56    1.81
   1  -3   3   78.55    1.80
   1  -3   3   79.11    1.88
  -2   3  -3    0.45    0.10
  -2   3  -3    0.48    0.08
  -2   3  -3    0.48    0.07
  -2   3  -3    0.45    0.10
  -2   3  -3    0.73    0.11
   2  -3   3    0.57    0.08
   2  -3   3    0.37    0.06
   2  -3   3    0.50    0.09
   2  -3   3    0.39    0.08
   2  -3   3    0.41    0.11
   2  -3   3    0.35    0.09
  -3   3  -3    8.31    0.31
  -3   3  -3    7.86    0.29
  -3   3  -3    7.73    0.30
  -3   3  -3    7.95    0.31
  -3   3  -3    7.59    0.32
   3  -3   3    8.14    0.31
   3  -3   3    8.73    0.35
   3  -3   3    7.89    0.30
   3  -3   3    7.74    0.29
   3  -3   3    8.29    0.32
   3  -3   3    8.42    0.34
  -4   3  -3   14.01    0.44
  -4   3  -3   13.71    0.42
  -4   3  -3   13.47    0.50
  -4   3  -3   13.62    0.42
  -4   3  -3   13.88    0.63
  -4   3  -3   13.35    0.50
  -4   3  -3   13.78    0.45
   4  -3   3   14.08    0.49
   4  -3   3   13.20    0.46
   4  -3   3   13.59    0.55
   4  -3   3   13.66    0.59
  -5   3  -3    0.03    0.06
  -5   3  -3    0.00    0.08
  -5   3  -3    0.05    0.06
  -5   3  -3   -0.01    0.09
  -5   3  -3    0.00    0.07
   5  -3   3    0.07    0.08
   5  -3   3    0.08    0.10
   5  -3   3    0.05    0.09
  -6   3  -3    0.85    0.15
  -6   3  -3    0.74    0.12
  -6   3  -3    0.81    0.15
  -6   3  -3    0.71    0.14
   6  -3   3    0.65    0.14
   6  -3   3    0.66    0.16
  -7   3  -3    0.67    0.18
  -7   3  -3    0.52    0.16
  -7   3  -3    0.46    0.16
   7  -3   3    0.30    0.15
   7  -3   3    0.41    0.14
  -8   3  -3    0.00    0.12
  -8   3  -3    0.09    0.09
  -8   3  -3   -0.07    0.13
   8  -3   3   -0.14    0.20
   8  -3   3   -0.06    0.10
  -9   3  -3    1.69    0.26
  -9   3  -3    1.65    0.22
  -9   3  -3    1.16    0.22
   9  -3   3    1.35    0.24
   8   2  -3    0.61    0.21
   8   2  -3    0.80    0.19
  -8  -2   3    0.38    0.14
  -8  -2   3    0.45    0.18
  -8  -2   3    0.41    0.18
   7   2  -3    3.88    0.34
   7   2  -3    4.48    0.45
   7   2  -3    4.43    0.34
  -7  -2   3    4.29    0.29
  -7  -2   3    5.07    0.45
  -7  -2   3    3.92    0.36
  -7  -2   3    4.09    0.31
  -7  -2   3    4.37    0.39
  -7  -2   3    4.75    0.31
   6   2  -3   -0.03    0.12
   6   2  -3    0.13    0.12
   6   2  -3    0.03    0.10
   6   2  -3    0.04    0.10
   6   2  -3    0.12    0.12
  -6  -2   3    0.16    0.10
  -6  -2   3   -0.01    0.10
  -6  -2   3    0.11    0.13
  -6  -2   3    0.02    0.11
  -6  -2   3    0.14    0.11
  -6  -2   3    0.14    0.11
  -6  -2   3    0.18    0.15
   5   2  -3    2.90    0.29
   5   2  -3    2.88    0.22
   5   2  -3    3.01    0.24
   5   2  -3    2.96    0.23
   5   2  -3    3.15    0.26
  -5  -2   3    3.02    0.32
  -5  -2   3    3.24    0.24
  -5  -2   3    3.01    0.27
  -5  -2   3    2.81    0.24
  -5  -2   3    2.65    0.24
  -5  -2   3    2.94    0.24
  -5  -2   3    2.88    0.29
  -5  -2   3    3.20    0.49
   4   2  -3   25.06    0.74
   4   2  -3   26.23    0.75
   4   2  -3   26.33    0.81
   4   2  -3   25.61    0.76
   4   2  -3   25.92    0.77
  -4  -2   3   24.43    0.80
  -4  -2   3   26.52    0.79
  -4  -2   3   25.80    0.75
  -4  -2   3   25.85    0.76
  -4  -2   3   27.04    0.76
  -4  -2   3   25.97    0.77
  -4  -2   3   26.93    0.86
   3   2  -3   10.19    0.37
   3   2  -3    9.85    0.38
   3   2  -3   10.10    0.39
   3   2  -3   10.45    0.44
   3   2  -3   10.28    0.37
   3   2  -3   10.81    0.41
  -3  -2   3   10.10    0.38
  -3  -2   3    9.99    0.40
  -3  -2   3   10.07    0.37
  -3  -2   3   10.07    0.39
  -3  -2   3    9.84    0.35
  -3  -2   3   10.42    0.38
   2   2  -3   15.53    0.46
   2   2  -3   15.66    0.52
   2   2  -3   15.60    0.49
   2   2  -3   15.67    0.50
  -2  -2   3   15.34    0.50
  -2  -2   3   16.07    0.47
  -2  -2   3   15.42    0.47
  -2  -2   3   15.30    0.46
  -2  -2   3   16.13    0.53
  -2  -2   3   15.83    0.51
   1   2  -3  111.07    2.54
   1   2  -3  110.72    2.54
   1   2  -3  115.06    2.51
   1   2  -3  108.70    2.54
   1   2  -3  110.13    2.50
  -1  -2   3  108.61    2.50
  -1  -2   3  111.57    2.54
  -1  -2   3  106.45    2.54
  -1  -2   3  110.69    2.47
  -1  -2   3  112.23    2.55
  -1  -2   3  111.06    2.51
   0   2  -3    1.22    0.11
   0   2  -3    1.24    0.14
   0   2  -3    1.19    0.13
   0   2  -3    1.19    0.13
   0   2  -3    1.13    0.14
   0  -2   3    1.16    0.15
   0  -2   3    1.28    0.13
   0  -2   3    1.17    0.13
  -1   2  -3   34.82    0.85
  -1   2  -3   34.71    0.83
  -1   2  -3   34.65    0.89
  -1   2  -3   34.56    0.89
  -1   2  -3   36.66    0.85
   1  -2   3   36.40    0.86
   1  -2   3   34.29    0.89
   1  -2   3   35.42    0.84
   1  -2   3   34.83    0.85
   1  -2   3   33.83    0.88
  -2   2  -3    6.93    0.26
  -2   2  -3    6.84    0.27
  -2   2  -3    6.89    0.27
  -2   2  -3    7.06    0.27
  -2   2  -3    7.16    0.25
   2  -2   3    7.16    0.25
   2  -2   3    6.69    0.26
   2  -2   3    7.19    0.27
   2  -2   3    7.32    0.25
   2  -2   3    7.07    0.27
  -3   2  -3   17.81    0.51
  -3   2  -3   18.41    0.55
  -3   2  -3   18.02    0.50
  -3   2  -3   18.06    0.56
  -3   2  -3   17.69    0.50
   3  -2   3   18.08    0.50
   3  -2   3   18.23    0.56
   3  -2   3   17.61    0.51
   3  -2   3   19.01    0.58
   3  -2   3   18.29    0.50
   3  -2   3   18.30    0.54
  -4   2  -3    5.94    0.31
  -4   2  -3    5.89    0.30
  -4   2  -3    6.52    0.25
  -4   2  -3    6.37    0.25
  -4   2  -3    6.26    0.32
   4  -2   3    6.95    0.43
   4  -2   3    6.07    0.26
   4  -2   3    6.78    0.32
  -5   2  -3    0.24    0.07
  -5   2  -3    0.33    0.10
  -5   2  -3    0.18    0.09
  -5   2  -3    0.21    0.09
  -5   2  -3    0.05    0.11
  -5   2  -3    0.20    0.09
   5  -2   3    0.19    0.11
   5  -2   3    0.29    0.09
  -6   2  -3    0.26    0.11
  -6   2  -3    0.13    0.10
  -6   2  -3    0.53    0.13
  -6   2  -3    0.27    0.08
  -6   2  -3    0.27    0.12
  -6   2  -3    0.25    0.12
   6  -2   3    0.25    0.11
   6  -2   3    0.15    0.12
  -7   2  -3    0.86    0.18
  -7   2  -3    0.88    0.17
  -7   2  -3    0.74    0.11
  -7   2  -3    0.66    0.17
   7  -2   3    0.61    0.16
   7  -2   3    1.23    0.23
  -8   2  -3   -0.04    0.12
  -8   2  -3    0.09    0.13
   8  -2   3   -0.14    0.12
   8  -2   3   -0.09    0.12
  -9   2  -3    0.03    0.17
  -9   2  -3   -0.06    0.18
   9  -2   3    0.06    0.14
   9   1  -3   -0.10    0.16
   9   1  -3    0.37    0.16
  -9  -1   3   -0.16    0.17
  -9  -1   3    0.15    0.17
  -9  -1   3   -0.20    0.14
   8   1  -3    6.30    0.49
   8   1  -3    5.75    0.41
  -8  -1   3    5.38    0.36
  -8  -1   3    6.04    0.44
   7   1  -3    0.06    0.14
   7   1  -3    0.00    0.10
  -7  -1   3    0.08    0.12
  -7  -1   3    0.04    0.11
  -7  -1   3   -0.04    0.13
  -7  -1   3    0.06    0.14
   6   1  -3    0.32    0.14
   6   1  -3    0.40    0.14
   6   1  -3    0.15    0.09
  -6  -1   3    0.49    0.15
  -6  -1   3    0.20    0.11
  -6  -1   3    0.30    0.12
  -6  -1   3    0.35    0.11
  -6  -1   3    0.33    0.11
  -6  -1   3    0.35    0.12
   5   1  -3    0.87    0.15
   5   1  -3    1.05    0.18
   5   1  -3    0.98    0.14
   5   1  -3    0.87    0.12
   5   1  -3    1.13    0.14
  -5  -1   3    0.90    0.14
  -5  -1   3    0.84    0.14
  -5  -1   3    0.69    0.13
  -5  -1   3    1.00    0.16
  -5  -1   3    1.39    0.21
  -5  -1   3    0.84    0.17
  -5  -1   3    0.96    0.17
   4   1  -3    2.48    0.21
   4   1  -3    2.34    0.23
   4   1  -3    2.19    0.19
   4   1  -3    2.39    0.18
   4   1  -3    1.91    0.18
   4   1  -3    2.84    0.25
  -4  -1   3    2.22    0.20
  -4  -1   3    2.53    0.21
  -4  -1   3    2.38    0.30
  -4  -1   3    2.58    0.21
  -4  -1   3    2.27    0.19
  -4  -1   3    2.19    0.19
   3   1  -3    0.92    0.12
   3   1  -3    0.73    0.11
   3   1  -3    0.89    0.12
   3   1  -3    0.77    0.09
   3   1  -3    0.88    0.13
  -3  -1   3    0.58    0.11
  -3  -1   3    0.65    0.09
  -3  -1   3    0.96    0.14
  -3  -1   3    1.00    0.13
  -3  -1   3    1.01    0.12
  -3  -1   3    0.74    0.10
   2   1  -3    0.90    0.10
   2   1  -3    0.85    0.13
   2   1  -3    0.90    0.14
   2   1  -3    0.88    0.12
   2   1  -3    0.95    0.13
  -2  -1   3    0.88    0.12
  -2  -1   3    0.76    0.11
  -2  -1   3    0.80    0.12
  -2  -1   3    0.82    0.13
  -2  -1   3    0.81    0.11
  -2  -1   3    0.86    0.09
  -2  -1   3    0.86    0.12
   1   1  -3    3.77    0.20
   1   1  -3    3.70    0.19
   1   1  -3    3.78    0.16
  -1  -1   3    3.71    0.19
  -1  -1   3    3.88    0.20
  -1  -1   3    3.80    0.20
  -1  -1   3    3.70    0.17
   0   1  -3    0.74    0.10
   0   1  -3    0.76    0.11
   0   1  -3    0.85    0.10
   0   1  -3    0.74    0.10
   0  -1   3    0.74    0.09
   0  -1   3    0.64    0.09
   0  -1   3    0.73    0.11
   0  -1   3    0.72    0.09
  -1   1  -3  344.82    7.25
  -1   1  -3  329.23    7.26
  -1   1  -3  338.88    7.30
  -1   1  -3  334.81    7.29
   1  -1   3  327.29    7.29
   1  -1   3  322.07    7.29
  -2   1  -3    0.33    0.05
  -2   1  -3    0.49    0.07
  -2   1  -3    0.46    0.09
  -2   1  -3    0.40    0.08
  -2   1  -3    0.32    0.07
   2  -1   3    0.35    0.08
   2  -1   3    0.36    0.06
   2  -1   3    0.28    0.07
   2  -1   3    0.36    0.08
   2  -1   3    0.39    0.05
  -3   1  -3    1.10    0.15
  -3   1  -3    1.17    0.10
  -3   1  -3    1.20    0.13
  -3   1  -3    1.13    0.14
  -3   1  -3    1.28    0.13
  -3   1  -3    1.37    0.15
   3  -1   3    1.38    0.14
   3  -1   3    1.40    0.15
   3  -1   3    1.47    0.12
   3  -1   3    1.35    0.17
   3  -1   3    1.47    0.13
   3  -1   3    1.29    0.11
  -4   1  -3    0.44    0.10
  -4   1  -3    0.59    0.10
  -4   1  -3    0.47    0.10
  -4   1  -3    0.39    0.12
  -4   1  -3    0.58    0.10
  -4   1  -3    0.50    0.11
  -4   1  -3    0.60    0.12
   4  -1   3    0.55    0.19
   4  -1   3    0.52    0.15
   4  -1   3    0.34    0.09
  -5   1  -3    1.96    0.26
  -5   1  -3    2.11    0.21
  -5   1  -3    2.20    0.24
  -5   1  -3    2.11    0.23
  -5   1  -3    2.01    0.23
   5  -1   3    2.33    0.23
   5  -1   3    2.03    0.25
   5  -1   3    2.26    0.23
  -6   1  -3    0.56    0.15
  -6   1  -3    0.61    0.15
  -6   1  -3    0.46    0.13
  -6   1  -3    0.61    0.14
  -6   1  -3    0.51    0.14
   6  -1   3    0.56    0.16
   6  -1   3    0.62    0.14
   6  -1   3    0.35    0.11
  -7   1  -3    0.21    0.15
  -7   1  -3    0.14    0.13
   7  -1   3    0.18    0.13
   7  -1   3    0.02    0.11
   7  -1   3    0.09    0.13
  -8   1  -3    0.82    0.20
  -8   1  -3    0.82    0.21
   8  -1   3    0.66    0.17
   8  -1   3    0.99    0.21
  -9   1  -3    0.14    0.17
  -9   1  -3   -0.17    0.14
   9  -1   3    0.06    0.15
   9  -1   3    0.33    0.18
   9   0  -3   -0.07    0.13
   9   0  -3   -0.23    0.16
  -9   0   3    0.10    0.16
  -9   0   3    0.07    0.13
   8   0  -3    0.25    0.15
   8   0  -3    0.13    0.11
  -8   0   3    0.19    0.15
  -8   0   3    0.10    0.12
   7   0  -3    0.11    0.11
   7   0  -3   -0.07    0.10
  -7   0   3    0.22    0.12
  -7   0   3    0.10    0.12
  -7   0   3    0.15    0.12
  -7   0   3    0.07    0.13
  -7   0   3   -0.09    0.10
   6   0  -3    0.61    0.14
   6   0  -3    0.65    0.17
  -6   0   3    0.22    0.13
  -6   0   3    0.46    0.13
  -6   0   3    0.55    0.12
  -6   0   3    0.58    0.13
  -6   0   3    0.51    0.13
   5   0  -3    3.90    0.29
   5   0  -3    4.03    0.31
  -5   0   3    4.40    0.24
  -5   0   3    4.41    0.23
  -5   0   3    4.00    0.27
  -5   0   3    4.25    0.23
  -5   0   3    4.47    0.31
  -5   0   3    4.29    0.29
  -5   0   3    4.06    0.30
   4   0  -3   24.52    0.77
   4   0  -3   23.76    0.63
   4   0  -3   24.11    0.73
   4   0  -3   23.43    0.72
   4   0  -3   23.46    0.63
   4   0  -3   23.17    0.63
  -4   0   3   23.98    0.63
  -4   0   3   23.88    0.66
  -4   0   3   23.22    0.69
  -4   0   3   23.41    0.73
  -4   0   3   23.44    0.65
  -4   0   3   24.61    0.74
  -4   0   3   23.92    0.74
   3   0  -3    4.28    0.20
   3   0  -3    4.30    0.24
   3   0  -3    4.20    0.23
   3   0  -3    4.15    0.23
   3   0  -3    3.81    0.20
   3   0  -3    3.83    0.20
  -3   0   3    4.20    0.24
  -3   0   3    3.93    0.20
  -3   0   3    4.04    0.21
  -3   0   3    4.46    0.25
  -3   0   3    4.07    0.20
  -3   0   3    4.18    0.22
   2   0  -3   73.25    1.71
   2   0  -3   75.97    1.73
   2   0  -3   74.46    1.67
   2   0  -3   74.35    1.72
   2   0  -3   74.10    1.71
  -2   0   3   72.12    1.70
  -2   0   3   74.03    1.67
  -2   0   3   73.01    1.71
  -2   0   3   70.84    1.70
  -2   0   3   75.86    1.73
   1   0  -3  231.11    5.04
   1   0  -3  230.08    5.04
   1   0  -3  231.72    4.99
   1   0  -3  229.30    5.03
  -1   0   3  221.75    5.04
  -1   0   3  226.84    5.02
  -1   0   3  228.56    5.04
   0   0  -3  237.60    5.11
   0   0  -3  232.17    5.13
   0   0  -3  233.36    5.13
   0   0   3  232.47    5.14
   0   0   3  228.00    5.13
  -1   0  -3   12.46    0.38
  -1   0  -3   13.09    0.39
  -1   0  -3   12.73    0.32
   1   0   3   12.92    0.32
   1   0   3   11.93    0.38
   1   0   3   13.13    0.37
   1   0   3   12.22    0.39
  -2   0  -3    0.15    0.05
  -2   0  -3    0.19    0.08
  -2   0  -3    0.19    0.07
  -2   0  -3    0.17    0.08
  -2   0  -3    0.12    0.05
   2   0   3    0.14    0.07
   2   0   3    0.16    0.07
   2   0   3    0.10    0.07
   2   0   3    0.15    0.05
  -3   0  -3   13.07    0.46
  -3   0  -3   12.48    0.45
  -3   0  -3   13.00    0.42
  -3   0  -3   13.43    0.42
  -3   0  -3   14.25    0.51
  -3   0  -3   13.12    0.41
   3   0   3   13.89    0.48
   3   0   3   13.76    0.46
   3   0   3   12.20    0.40
   3   0   3   12.83    0.43
  -4   0  -3   35.48    0.99
  -4   0  -3   34.97    1.01
  -4   0  -3   36.12    0.93
  -4   0  -3   35.14    1.01
  -4   0  -3   36.53    0.93
  -4   0  -3   38.42    1.06
   4   0   3   34.94    0.90
   4   0   3   32.87    0.89
   4   0   3   36.78    0.99
   4   0   3   36.84    1.07
   4   0   3   37.99    1.03
  -5   0  -3    0.61    0.13
  -5   0  -3    0.56    0.14
  -5   0  -3    0.69    0.13
  -5   0  -3    0.84    0.15
   5   0   3    0.83    0.14
   5   0   3    0.91    0.17
   5   0   3    0.73    0.15
  -6   0  -3   -0.18    0.11
  -6   0  -3    0.03    0.11
  -6   0  -3    0.13    0.11
   6   0   3    0.08    0.10
   6   0   3    0.14    0.11
  -7   0  -3    0.00    0.12
  -7   0  -3   -0.18    0.13
   7   0   3   -0.05    0.09
   7   0   3   -0.14    0.09
  -8   0  -3    1.51    0.26
  -8   0  -3    1.50    0.32
   8   0   3    2.70    0.34
   8   0   3    2.19    0.39
  -9   0  -3    0.16    0.18
   9   0   3   -0.09    0.12
   9   0   3    0.14    0.15
   9  -1  -3    0.33    0.16
   9  -1  -3    0.18    0.14
  -9   1   3   -0.04    0.11
  -9   1   3    0.03    0.15
   8  -1  -3   -0.17    0.14
   8  -1  -3    0.12    0.12
  -8   1   3    0.04    0.10
  -8   1   3    0.05    0.13
   7  -1  -3    0.05    0.10
   7  -1  -3    0.12    0.13
  -7   1   3    0.06    0.10
  -7   1   3    0.19    0.09
  -7   1   3    0.04    0.12
  -7   1   3    0.04    0.12
   6  -1  -3    0.06    0.10
   6  -1  -3    0.08    0.11
  -6   1   3    0.12    0.10
  -6   1   3   -0.01    0.07
  -6   1   3    0.00    0.09
  -6   1   3   -0.09    0.09
  -6   1   3   -0.03    0.08
  -6   1   3   -0.02    0.10
   5  -1  -3    0.01    0.09
   5  -1  -3    0.10    0.10
  -5   1   3    0.07    0.08
  -5   1   3   -0.02    0.07
  -5   1   3    0.00    0.09
  -5   1   3    0.07    0.09
  -5   1   3    0.11    0.08
   4  -1  -3   64.18    1.60
   4  -1  -3   63.81    1.59
   4  -1  -3   64.00    1.55
   4  -1  -3   62.27    1.56
  -4   1   3   63.86    1.61
  -4   1   3   63.57    1.56
  -4   1   3   62.82    1.49
  -4   1   3   64.13    1.59
  -4   1   3   62.88    1.75
  -4   1   3   62.68    1.54
  -4   1   3   60.97    1.48
   3  -1  -3   10.85    0.34
   3  -1  -3   10.94    0.37
   3  -1  -3   10.82    0.34
   3  -1  -3   11.16    0.40
   3  -1  -3   11.12    0.39
   3  -1  -3   11.02    0.37
  -3   1   3   10.24    0.34
  -3   1   3   11.20    0.38
  -3   1   3   10.89    0.35
  -3   1   3   11.28    0.39
  -3   1   3   10.46    0.38
   2  -1  -3    4.53    0.21
   2  -1  -3    4.40    0.21
   2  -1  -3    4.56    0.21
   2  -1  -3    4.65    0.20
   2  -1  -3    4.73    0.21
  -2   1   3    4.59    0.22
  -2   1   3    4.23    0.21
  -2   1   3    4.42    0.21
  -2   1   3    4.48    0.20
   1  -1  -3   24.76    0.66
   1  -1  -3   25.24    0.60
   1  -1  -3   25.22    0.66
   1  -1  -3   25.11    0.63
  -1   1   3   26.07    0.64
  -1   1   3   24.37    0.66
  -1   1   3   25.27    0.67
  -1   1   3   25.34    0.61
   0  -1  -3    3.45    0.19
   0  -1  -3    3.56    0.17
   0  -1  -3    3.38    0.19
   0   1   3    3.46    0.17
   0   1   3    3.57    0.19
   0   1   3    3.40    0.18
  -1  -1  -3   41.28    1.03
  -1  -1  -3   41.40    1.03
  -1  -1  -3   41.25    1.04
  -1  -1  -3   40.38    0.97
   1   1   3   40.40    1.02
   1   1   3   40.53    1.03
   1   1   3   42.51    0.99
   1   1   3   41.53    1.04
  -2  -1  -3  373.60    8.32
  -2  -1  -3  387.93    8.37
  -2  -1  -3  375.26    8.31
  -2  -1  -3  371.03    8.32
   2   1   3  385.92    8.28
   2   1   3  377.94    8.32
   2   1   3  377.88    8.36
   2   1   3  377.33    8.31
  -3  -1  -3    0.12    0.07
  -3  -1  -3    0.14    0.10
  -3  -1  -3    0.21    0.08
  -3  -1  -3    0.05    0.08
  -3  -1  -3    0.05    0.09
   3   1   3    0.27    0.08
   3   1   3    0.21    0.08
   3   1   3    0.18    0.09
   3   1   3    0.19    0.09
   3   1   3    0.15    0.08
  -4  -1  -3    2.94    0.28
  -4  -1  -3    2.56    0.22
  -4  -1  -3    2.08    0.35
  -4  -1  -3    2.36    0.31
  -4  -1  -3    2.19    0.20
   4   1   3    2.63    0.24
   4   1   3    2.24    0.19
   4   1   3    2.95    0.25
   4   1   3    2.35    0.23
   4   1   3    2.35    0.19
  -5  -1  -3    0.21    0.12
  -5  -1  -3    0.50    0.13
  -5  -1  -3    0.41    0.14
  -5  -1  -3    0.60    0.14
  -5  -1  -3    0.57    0.12
  -5  -1  -3    0.25    0.10
   5   1   3    0.53    0.11
   5   1   3    0.54    0.12
   5   1   3    0.51    0.11
   5   1   3    0.30    0.11
  -6  -1  -3    0.04    0.11
  -6  -1  -3    0.24    0.12
  -6  -1  -3    0.20    0.10
  -6  -1  -3    0.22    0.13
  -6  -1  -3    0.20    0.14
   6   1   3    0.13    0.10
   6   1   3    0.21    0.13
  -7  -1  -3    3.57    0.36
  -7  -1  -3    4.49    0.46
  -7  -1  -3    4.31    0.43
   7   1   3    4.03    0.54
   7   1   3    4.82    0.39
  -8  -1  -3    0.78    0.23
  -8  -1  -3    0.49    0.18
   8   1   3    0.84    0.21
   8   1   3    0.44    0.16
  10  -2  -3    0.45    0.22
  10  -2  -3    0.57    0.21
   9  -2  -3    0.21    0.15
   9  -2  -3   -0.06    0.13
  -9   2   3    0.34    0.15
  -9   2   3    0.18    0.17
   8  -2  -3   -0.06    0.11
   8  -2  -3    0.32    0.14
  -8   2   3   -0.08    0.09
  -8   2   3    0.06    0.15
  -8   2   3   -0.11    0.12
   7  -2  -3   -0.03    0.11
   7  -2  -3   -0.05    0.11
   7  -2  -3   -0.04    0.09
  -7   2   3    0.14    0.12
  -7   2   3    0.10    0.19
  -7   2   3    0.01    0.12
   6  -2  -3    1.73    0.21
   6  -2  -3    2.31    0.25
   6  -2  -3    2.33    0.27
  -6   2   3    2.10    0.24
  -6   2   3    1.98    0.24
  -6   2   3    1.97    0.24
  -6   2   3    1.51    0.20
   5  -2  -3    8.25    0.41
   5  -2  -3    8.63    0.42
   5  -2  -3    8.14    0.41
  -5   2   3    7.49    0.38
  -5   2   3    7.85    0.39
  -5   2   3    7.95    0.36
  -5   2   3    8.19    0.39
  -5   2   3    7.84    0.36
   4  -2  -3  209.34    4.78
   4  -2  -3  213.33    4.79
   4  -2  -3  209.42    4.71
   4  -2  -3  215.84    4.76
  -4   2   3  208.54    4.67
  -4   2   3  211.93    4.76
  -4   2   3  212.96    4.70
  -4   2   3  210.91    4.68
  -4   2   3  205.95    4.97
  -4   2   3  210.67    4.80
   3  -2  -3    0.21    0.08
   3  -2  -3    0.18    0.09
   3  -2  -3    0.20    0.06
   3  -2  -3    0.13    0.08
   3  -2  -3    0.20    0.08
  -3   2   3    0.21    0.08
  -3   2   3    0.16    0.08
  -3   2   3    0.19    0.07
  -3   2   3    0.15    0.07
  -3   2   3    0.15    0.08
   2  -2  -3   20.91    0.59
   2  -2  -3   20.91    0.59
   2  -2  -3   20.95    0.55
  -2   2   3   21.27    0.55
  -2   2   3   21.60    0.58
  -2   2   3   21.56    0.60
  -2   2   3   21.71    0.54
  -2   2   3   21.79    0.60
   1  -2  -3    1.32    0.14
   1  -2  -3    1.48    0.12
   1  -2  -3    1.26    0.12
   1  -2  -3    1.51    0.15
  -1   2   3    1.24    0.14
  -1   2   3    1.43    0.15
  -1   2   3    1.36    0.11
   0  -2  -3   50.86    1.26
   0  -2  -3   49.53    1.25
   0  -2  -3   52.25    1.23
   0   2   3   51.78    1.23
   0   2   3   49.33    1.25
   0   2   3   51.05    1.26
  -1  -2  -3   17.96    0.56
  -1  -2  -3   18.11    0.56
  -1  -2  -3   18.18    0.56
  -1  -2  -3   18.27    0.49
   1   2   3   17.53    0.55
   1   2   3   17.89    0.56
   1   2   3   18.06    0.55
  -2  -2  -3  138.20    3.15
  -2  -2  -3  143.61    3.22
  -2  -2  -3  136.58    3.18
  -2  -2  -3  141.56    3.19
   2   2   3  137.99    3.22
   2   2   3  133.72    3.17
   2   2   3  136.11    3.17
  -3  -2  -3    7.97    0.39
  -3  -2  -3    7.56    0.35
  -3  -2  -3    7.25    0.30
  -3  -2  -3    7.79    0.35
  -3  -2  -3    7.65    0.44
   3   2   3    7.69    0.33
   3   2   3    7.33    0.34
   3   2   3    7.30    0.33
   3   2   3    7.72    0.34
   3   2   3    7.31    0.38
  -4  -2  -3   10.53    0.46
  -4  -2  -3   10.12    0.47
  -4  -2  -3   11.22    0.52
  -4  -2  -3   10.31    0.43
  -4  -2  -3   10.31    0.43
   4   2   3   10.26    0.41
   4   2   3   10.54    0.44
   4   2   3   10.72    0.46
   4   2   3   10.18    0.49
   4   2   3   10.53    0.41
  -5  -2  -3    0.09    0.10
  -5  -2  -3   -0.07    0.09
  -5  -2  -3   -0.01    0.11
  -5  -2  -3   -0.02    0.11
  -5  -2  -3   -0.06    0.08
   5   2   3    0.03    0.09
   5   2   3    0.06    0.09
   5   2   3   -0.08    0.09
   5   2   3    0.05    0.09
  -6  -2  -3    4.05    0.33
  -6  -2  -3    3.95    0.40
  -6  -2  -3    3.89    0.30
  -6  -2  -3    3.88    0.29
  -6  -2  -3    3.09    0.34
   6   2   3    3.49    0.24
   6   2   3    3.55    0.33
   6   2   3    3.30    0.33
  -7  -2  -3    0.51    0.15
  -7  -2  -3    0.08    0.17
  -7  -2  -3    0.43    0.16
  -7  -2  -3    0.07    0.19
  -7  -2  -3    0.19    0.19
   7   2   3    0.34    0.15
   7   2   3    0.12    0.12
  -8  -2  -3    0.39    0.21
  -8  -2  -3   -0.05    0.15
   8   2   3    0.20    0.13
   8   2   3   -0.07    0.13
  10  -3  -3    0.00    0.15
 -10   3   3    0.10    0.18
 -10   3   3   -0.28    0.14
   9  -3  -3    0.00    0.15
  -9   3   3   -0.09    0.11
  -9   3   3   -0.25    0.11
   8  -3  -3    0.00    0.12
   8  -3  -3    0.07    0.14
  -8   3   3    0.02    0.11
  -8   3   3    0.02    0.11
   7  -3  -3    0.14    0.12
   7  -3  -3    0.17    0.12
  -7   3   3    0.10    0.12
  -7   3   3    0.20    0.11
  -7   3   3    0.15    0.10
  -7   3   3    0.26    0.12
   6  -3  -3   22.07    0.79
   6  -3  -3   23.17    0.78
  -6   3   3   21.89    0.78
  -6   3   3   21.69    0.78
  -6   3   3   23.18    0.69
  -6   3   3   22.80    0.77
   5  -3  -3    1.19    0.18
   5  -3  -3    1.02    0.16
  -5   3   3    1.61    0.17
  -5   3   3    1.06    0.20
  -5   3   3    0.93    0.15
  -5   3   3    1.43    0.20
  -5   3   3    0.96    0.14
   4  -3  -3  266.26    6.13
   4  -3  -3  278.20    6.09
   4  -3  -3  270.40    6.00
   4  -3  -3  265.59    6.00
   4  -3  -3  266.32    5.99
  -4   3   3  276.25    6.06
  -4   3   3  273.43    5.98
  -4   3   3  271.47    6.02
  -4   3   3  276.22    6.02
  -4   3   3  274.22    6.15
   3  -3  -3    9.03    0.36
   3  -3  -3    8.62    0.33
   3  -3  -3    8.96    0.33
  -3   3   3    8.56    0.34
  -3   3   3    8.55    0.35
  -3   3   3    8.53    0.33
  -3   3   3    8.78    0.31
   2  -3  -3    8.18    0.26
   2  -3  -3    7.67    0.32
   2  -3  -3    7.96    0.30
   2  -3  -3    8.16    0.33
   2  -3  -3    8.21    0.27
  -2   3   3    8.24    0.27
  -2   3   3    8.15    0.33
   1  -3  -3   11.31    0.42
   1  -3  -3   10.62    0.40
   1  -3  -3   11.15    0.36
  -1   3   3   11.40    0.42
  -1   3   3   10.85    0.40
  -1   3   3   12.04    0.39
  -1   3   3   11.28    0.37
   0  -3  -3    0.09    0.09
   0  -3  -3    0.05    0.08
   0  -3  -3    0.19    0.07
   0   3   3    0.05    0.06
   0   3   3    0.08    0.09
   0   3   3    0.12    0.09
   0   3   3    0.14    0.06
  -1  -3  -3   51.62    1.30
  -1  -3  -3   49.83    1.31
  -1  -3  -3   50.53    1.31
  -1  -3  -3   49.59    1.20
   1   3   3   51.02    1.30
   1   3   3   51.68    1.17
   1   3   3   48.66    1.29
   1   3   3   49.72    1.30
  -2  -3  -3   67.97    1.69
  -2  -3  -3   68.27    1.72
  -2  -3  -3   65.82    1.62
  -2  -3  -3   68.90    1.71
   2   3   3   66.80    1.68
   2   3   3   65.82    1.67
   2   3   3   65.69    1.71
  -3  -3  -3   14.46    0.57
  -3  -3  -3   13.70    0.45
  -3  -3  -3   13.70    0.53
  -3  -3  -3   13.61    0.53
  -3  -3  -3   14.45    0.54
   3   3   3   14.05    0.52
   3   3   3   14.42    0.52
   3   3   3   13.59    0.51
   3   3   3   13.78    0.57
  -4  -3  -3   -0.01    0.13
  -4  -3  -3   -0.03    0.10
  -4  -3  -3   -0.05    0.11
  -4  -3  -3    0.00    0.08
  -4  -3  -3   -0.01    0.09
   4   3   3   -0.04    0.06
   4   3   3    0.14    0.11
   4   3   3   -0.02    0.10
   4   3   3    0.12    0.08
   4   3   3    0.11    0.09
  -5  -3  -3    0.49    0.15
  -5  -3  -3    0.58    0.13
  -5  -3  -3    0.55    0.18
  -5  -3  -3    0.74    0.18
  -5  -3  -3    0.56    0.17
   5   3   3    0.77    0.16
   5   3   3    0.69    0.15
   5   3   3    0.57    0.15
   5   3   3    0.65    0.16
   5   3   3    0.30    0.15
  -6  -3  -3    0.51    0.21
  -6  -3  -3    0.68    0.19
  -6  -3  -3    0.67    0.18
  -6  -3  -3    0.67    0.18
  -6  -3  -3    0.38    0.16
   6   3   3    0.99    0.21
   6   3   3    0.80    0.16
   6   3   3    0.70    0.17
   6   3   3    0.67    0.16
  -7  -3  -3    0.11    0.16
  -7  -3  -3    0.34    0.14
  -7  -3  -3    0.30    0.19
  -7  -3  -3   -0.11    0.14
  -7  -3  -3    0.17    0.17
   7   3   3    0.16    0.12
   7   3   3    0.00    0.14
  10  -4  -3   -0.08    0.15
 -10   4   3   -0.18    0.12
   9  -4  -3   -0.14    0.13
   9  -4  -3    0.25    0.13
  -9   4   3    0.00    0.12
  -9   4   3    0.09    0.12
   8  -4  -3    0.62    0.17
   8  -4  -3    0.89    0.21
  -8   4   3    0.96    0.16
  -8   4   3    0.64    0.17
  -8   4   3    0.62    0.19
   7  -4  -3    6.29    0.43
   7  -4  -3    5.94    0.42
  -7   4   3    6.11    0.44
  -7   4   3    7.08    0.44
  -7   4   3    6.93    0.34
  -7   4   3    6.45    0.42
  -7   4   3    6.41    0.41
   6  -4  -3    6.50    0.41
   6  -4  -3    5.87    0.41
  -6   4   3    6.16    0.36
  -6   4   3    5.81    0.40
  -6   4   3    6.72    0.42
  -6   4   3    5.75    0.37
   5  -4  -3    1.64    0.23
   5  -4  -3    1.72    0.23
   5  -4  -3    1.57    0.16
  -5   4   3    1.82    0.25
  -5   4   3    1.57    0.17
  -5   4   3    1.50    0.19
  -5   4   3    1.60    0.21
  -5   4   3    1.38    0.17
   4  -4  -3    3.98    0.35
   4  -4  -3    3.89    0.27
   4  -4  -3    3.94    0.24
   4  -4  -3    3.86    0.24
  -4   4   3    3.78    0.19
  -4   4   3    3.55    0.22
  -4   4   3    3.93    0.26
  -4   4   3    3.60    0.24
  -4   4   3    3.72    0.29
  -4   4   3    2.99    0.26
   3  -4  -3   12.04    0.38
   3  -4  -3   12.22    0.44
   3  -4  -3   10.78    0.48
   3  -4  -3   12.41    0.45
  -3   4   3   12.24    0.44
  -3   4   3   12.52    0.48
  -3   4   3   13.18    0.46
  -3   4   3   12.01    0.38
   2  -4  -3    0.90    0.12
   2  -4  -3    0.77    0.10
   2  -4  -3    0.77    0.09
   2  -4  -3    0.77    0.14
   2  -4  -3    1.00    0.15
  -2   4   3    1.04    0.14
  -2   4   3    1.13    0.17
  -2   4   3    0.80    0.13
  -2   4   3    0.88    0.14
   1  -4  -3   62.74    1.60
   1  -4  -3   62.55    1.60
   1  -4  -3   63.53    1.54
  -1   4   3   65.85    1.56
  -1   4   3   62.39    1.60
  -1   4   3   63.25    1.54
  -1   4   3   63.62    1.60
   0  -4  -3   36.36    1.04
   0  -4  -3   36.85    1.04
   0  -4  -3   37.24    1.01
   0   4   3   37.05    1.13
   0   4   3   38.08    0.95
   0   4   3   37.09    1.01
   0   4   3   38.07    1.05
  -1  -4  -3    1.37    0.21
  -1  -4  -3    1.27    0.14
  -1  -4  -3    1.10    0.17
  -1  -4  -3    1.20    0.19
   1   4   3    1.33    0.19
   1   4   3    1.39    0.18
   1   4   3    1.31    0.12
   1   4   3    0.98    0.14
  -2  -4  -3    8.34    0.41
  -2  -4  -3    8.38    0.43
  -2  -4  -3    8.89    0.44
  -2  -4  -3    8.56    0.35
   2   4   3    8.01    0.41
   2   4   3    8.08    0.42
   2   4   3    8.06    0.40
  -3  -4  -3    0.26    0.10
  -3  -4  -3    0.14    0.12
  -3  -4  -3    0.19    0.12
  -3  -4  -3    0.32    0.16
   3   4   3    0.24    0.13
   3   4   3    0.16    0.08
   3   4   3    0.11    0.10
   3   4   3    0.34    0.13
  -4  -4  -3   -0.02    0.14
  -4  -4  -3   -0.13    0.09
  -4  -4  -3    0.00    0.11
  -4  -4  -3   -0.11    0.14
   4   4   3   -0.03    0.12
   4   4   3    0.10    0.11
   4   4   3   -0.10    0.11
   4   4   3   -0.03    0.07
   4   4   3   -0.06    0.09
  -5  -4  -3    0.37    0.13
  -5  -4  -3    0.30    0.19
  -5  -4  -3    0.37    0.17
  -5  -4  -3    0.53    0.18
  -5  -4  -3    0.47    0.18
   5   4   3    0.32    0.11
   5   4   3    0.45    0.15
   5   4   3    0.68    0.16
   5   4   3    0.57    0.15
  -6  -4  -3    1.03    0.22
  -6  -4  -3    0.66    0.21
  -6  -4  -3    1.37    0.25
  -6  -4  -3    1.11    0.23
  -6  -4  -3    0.93    0.17
   6   4   3    1.07    0.19
   6   4   3    1.03    0.20
   6   4   3    0.77    0.16
  -7  -4  -3   -0.21    0.17
  -7  -4  -3    0.09    0.14
  -7  -4  -3    0.03    0.16
   7   4   3   -0.05    0.15
   7   4   3   -0.08    0.10
  10  -5  -3   -0.16    0.14
  10  -5  -3   -0.07    0.16
 -10   5   3    0.26    0.14
   9  -5  -3    0.20    0.16
   9  -5  -3    0.23    0.15
  -9   5   3    0.16    0.21
   8  -5  -3    0.17    0.14
   8  -5  -3    0.13    0.16
  -8   5   3    0.14    0.13
  -8   5   3    0.34    0.16
   7  -5  -3   -0.04    0.11
   7  -5  -3    0.01    0.13
  -7   5   3   -0.19    0.10
  -7   5   3   -0.15    0.11
  -7   5   3   -0.13    0.12
  -7   5   3    0.09    0.12
   6  -5  -3   12.26    0.57
   6  -5  -3   13.62    0.59
  -6   5   3   13.46    0.47
  -6   5   3   13.02    0.56
  -6   5   3   13.68    0.48
  -6   5   3   12.77    0.58
  -6   5   3   12.77    0.60
  -6   5   3   12.41    0.52
   5  -5  -3    0.16    0.10
   5  -5  -3    0.01    0.09
   5  -5  -3    0.12    0.09
   5  -5  -3    0.15    0.10
   5  -5  -3    0.10    0.09
  -5   5   3    0.14    0.10
  -5   5   3   -0.01    0.08
  -5   5   3    0.01    0.10
  -5   5   3    0.02    0.06
  -5   5   3    0.10    0.09
   4  -5  -3    0.78    0.15
   4  -5  -3    0.94    0.15
   4  -5  -3    0.35    0.18
   4  -5  -3    0.62    0.11
  -4   5   3    0.96    0.16
  -4   5   3    0.57    0.09
  -4   5   3    0.80    0.16
  -4   5   3    0.71    0.16
   3  -5  -3    7.33    0.37
   3  -5  -3    7.24    0.33
   3  -5  -3    7.59    0.33
   3  -5  -3    7.31    0.36
  -3   5   3    7.26    0.36
  -3   5   3    7.33    0.31
  -3   5   3    7.50    0.37
  -3   5   3    7.43    0.38
   2  -5  -3    8.64    0.33
   2  -5  -3    9.02    0.37
   2  -5  -3    8.71    0.42
   2  -5  -3    8.48    0.41
  -2   5   3    8.72    0.40
  -2   5   3    8.83    0.41
  -2   5   3    8.55    0.36
  -2   5   3    8.38    0.41
   1  -5  -3   -0.04    0.11
   1  -5  -3   -0.04    0.08
   1  -5  -3   -0.02    0.10
  -1   5   3    0.18    0.12
  -1   5   3    0.01    0.07
  -1   5   3    0.16    0.13
   0  -5  -3   -0.03    0.09
   0  -5  -3    0.03    0.11
   0  -5  -3    0.16    0.13
   0   5   3    0.01    0.07
   0   5   3    0.12    0.12
   0   5   3   -0.03    0.10
   0   5   3    0.07    0.06
  -1  -5  -3    2.01    0.27
  -1  -5  -3    1.81    0.27
  -1  -5  -3    1.65    0.16
  -1  -5  -3    1.93    0.25
   1   5   3    2.04    0.24
   1   5   3    1.60    0.23
   1   5   3    1.92    0.16
  -2  -5  -3    0.15    0.14
  -2  -5  -3    0.07    0.12
  -2  -5  -3    0.04    0.07
  -2  -5  -3    0.10    0.16
   2   5   3    0.13    0.05
   2   5   3   -0.06    0.11
   2   5   3    0.09    0.09
   2   5   3    0.14    0.15
  -3  -5  -3   -0.19    0.13
  -3  -5  -3    0.10    0.09
  -3  -5  -3    0.07    0.11
  -3  -5  -3    0.26    0.15
   3   5   3    0.19    0.18
   3   5   3    0.14    0.09
   3   5   3    0.01    0.12
  -4  -5  -3   -0.15    0.11
  -4  -5  -3   -0.18    0.16
  -4  -5  -3   -0.05    0.13
  -4  -5  -3    0.22    0.17
   4   5   3   -0.20    0.08
   4   5   3   -0.16    0.11
   4   5   3    0.01    0.14
   4   5   3   -0.05    0.08
  -5  -5  -3    0.24    0.20
  -5  -5  -3   -0.19    0.18
  -5  -5  -3    0.04    0.15
  -5  -5  -3    0.24    0.16
  -5  -5  -3    0.06    0.16
   5   5   3    0.16    0.13
   5   5   3    0.20    0.14
   5   5   3    0.08    0.08
  -6  -5  -3    0.54    0.20
  -6  -5  -3    0.40    0.20
  -6  -5  -3   -0.21    0.23
  -6  -5  -3    0.98    0.22
   6   5   3    0.59    0.19
   6   5   3    0.61    0.17
   6   5   3    0.38    0.17
  10  -6  -3    0.07    0.17
  10  -6  -3   -0.33    0.15
   9  -6  -3    0.19    0.14
   9  -6  -3    0.09    0.15
  -9   6   3    0.34    0.15
   8  -6  -3    0.57    0.26
   8  -6  -3    0.67    0.22
  -8   6   3    0.53    0.18
   7  -6  -3    0.01    0.12
   7  -6  -3    0.11    0.13
  -7   6   3   -0.02    0.11
  -7   6   3   -0.07    0.11
  -7   6   3    0.07    0.11
   6  -6  -3    5.35    0.40
   6  -6  -3    4.78    0.34
   6  -6  -3    4.55    0.30
   6  -6  -3    5.45    0.31
   6  -6  -3    4.99    0.37
  -6   6   3    5.18    0.31
  -6   6   3    5.41    0.41
  -6   6   3    4.92    0.29
  -6   6   3    4.98    0.36
  -6   6   3    5.36    0.34
   5  -6  -3    0.80    0.16
   5  -6  -3    0.98    0.19
   5  -6  -3    0.75    0.16
   5  -6  -3    0.97    0.17
   5  -6  -3    0.70    0.13
  -5   6   3    1.07    0.19
  -5   6   3    0.91    0.12
  -5   6   3    0.67    0.15
  -5   6   3    0.67    0.15
  -5   6   3    0.96    0.17
   4  -6  -3    3.51    0.30
   4  -6  -3    3.58    0.28
   4  -6  -3    3.34    0.28
   4  -6  -3    3.63    0.22
  -4   6   3    3.68    0.25
  -4   6   3    4.04    0.31
  -4   6   3    3.65    0.29
  -4   6   3    4.24    0.32
   3  -6  -3    0.16    0.10
   3  -6  -3    0.02    0.08
   3  -6  -3    0.13    0.13
   3  -6  -3    0.17    0.14
  -3   6   3    0.10    0.11
  -3   6   3    0.04    0.11
  -3   6   3    0.10    0.10
   2  -6  -3    4.59    0.35
   2  -6  -3    3.92    0.32
  -2   6   3    4.78    0.33
  -2   6   3    4.38    0.32
  -2   6   3    4.48    0.30
  -2   6   3    4.46    0.28
   1  -6  -3    0.13    0.12
   1  -6  -3    0.00    0.10
   1  -6  -3    0.13    0.15
  -1   6   3    0.08    0.12
  -1   6   3    0.10    0.08
  -1   6   3    0.02    0.12
  -1   6   3    0.11    0.08
   0  -6  -3   12.68    0.55
   0  -6  -3   12.68    0.58
   0   6   3   12.67    0.57
   0   6   3   12.73    0.54
   0   6   3   12.63    0.56
   0   6   3   12.99    0.46
  -1  -6  -3   27.60    0.95
  -1  -6  -3   25.04    0.80
  -1  -6  -3   28.41    0.92
  -1  -6  -3   27.44    0.77
   1   6   3   27.71    0.94
   1   6   3   27.54    0.93
   1   6   3   27.22    0.91
   1   6   3   28.37    0.76
  -2  -6  -3   18.36    0.74
  -2  -6  -3   18.94    0.75
  -2  -6  -3   17.63    0.61
  -2  -6  -3   17.39    0.76
   2   6   3   16.60    0.85
   2   6   3   18.22    0.54
   2   6   3   18.21    0.72
  -3  -6  -3    0.57    0.17
  -3  -6  -3    0.87    0.24
  -3  -6  -3    0.68    0.14
  -3  -6  -3    0.69    0.21
   3   6   3    0.87    0.21
   3   6   3    0.55    0.12
  -4  -6  -3    0.12    0.20
  -4  -6  -3   -0.06    0.13
  -4  -6  -3   -0.22    0.24
  -4  -6  -3   -0.39    0.18
   4   6   3    0.29    0.16
   4   6   3    0.20    0.10
  -5  -6  -3   -0.07    0.16
  -5  -6  -3    0.12    0.17
  -5  -6  -3    0.02    0.15
  -5  -6  -3    0.40    0.23
   5   6   3    0.02    0.14
   5   6   3   -0.06    0.14
   5   6   3    0.19    0.10
  -6  -6  -3    0.33    0.28
  -6  -6  -3    0.34    0.22
  -6  -6  -3   -0.11    0.20
  -6  -6  -3   -0.07    0.18
   6   6   3    0.03    0.14
   6   6   3    0.22    0.22
   9  -7  -3    0.52    0.21
   9  -7  -3    0.20    0.18
  -9   7   3    0.32    0.19
   8  -7  -3    0.11    0.15
   8  -7  -3    0.13    0.17
  -8   7   3    0.20    0.15
   7  -7  -3    0.49    0.17
   7  -7  -3    0.41    0.14
   7  -7  -3    0.40    0.17
  -7   7   3    0.52    0.15
  -7   7   3    0.32    0.11
  -7   7   3    0.52    0.16
  -7   7   3    0.37    0.16
  -7   7   3    0.52    0.17
   6  -7  -3    1.49    0.22
   6  -7  -3    1.39    0.23
   6  -7  -3    1.09    0.21
   6  -7  -3    1.80    0.27
  -6   7   3    1.95    0.26
  -6   7   3    1.51    0.24
  -6   7   3    1.86    0.24
  -6   7   3    1.09    0.17
  -6   7   3    1.55    0.24
  -6   7   3    1.25    0.22
   5  -7  -3    0.42    0.15
   5  -7  -3    0.58    0.15
   5  -7  -3    0.66    0.13
   5  -7  -3    0.53    0.18
   5  -7  -3    0.51    0.15
  -5   7   3    0.55    0.17
  -5   7   3    0.43    0.11
  -5   7   3    0.63    0.20
  -5   7   3    0.61    0.16
   4  -7  -3   -0.02    0.13
   4  -7  -3    0.11    0.08
   4  -7  -3    0.04    0.10
   4  -7  -3   -0.02    0.13
  -4   7   3   -0.05    0.11
  -4   7   3    0.00    0.08
  -4   7   3   -0.03    0.08
  -4   7   3   -0.06    0.14
   3  -7  -3    0.49    0.12
   3  -7  -3    0.55    0.14
   3  -7  -3    0.45    0.15
  -3   7   3    0.49    0.18
  -3   7   3    0.48    0.11
  -3   7   3    0.53    0.17
  -3   7   3    0.37    0.13
   2  -7  -3    0.37    0.18
   2  -7  -3    0.47    0.14
   2  -7  -3    0.23    0.15
  -2   7   3    0.41    0.15
  -2   7   3    0.49    0.13
  -2   7   3    0.41    0.18
  -2   7   3    0.42    0.11
   1  -7  -3    0.57    0.15
   1  -7  -3    0.45    0.17
   1  -7  -3    0.99    0.22
  -1   7   3    0.52    0.13
  -1   7   3    0.79    0.21
  -1   7   3    0.83    0.20
  -1   7   3    0.96    0.15
   0  -7  -3   19.70    0.84
   0  -7  -3   20.01    0.76
   0   7   3   19.92    0.76
   0   7   3   18.79    0.79
   0   7   3   20.98    0.66
   0   7   3   18.93    0.79
  -1  -7  -3    1.33    0.23
  -1  -7  -3    1.23    0.27
  -1  -7  -3    1.91    0.22
   1   7   3    1.31    0.18
   1   7   3    1.42    0.26
   1   7   3    1.45    0.25
  -2  -7  -3    0.08    0.11
  -2  -7  -3    0.25    0.16
  -2  -7  -3   -0.13    0.17
  -2  -7  -3    0.17    0.17
  -2  -7  -3   -0.31    0.17
   2   7   3    0.07    0.06
   2   7   3    0.07    0.13
  -3  -7  -3    0.22    0.16
  -3  -7  -3   -0.07    0.14
  -3  -7  -3   -0.01    0.12
  -3  -7  -3    0.12    0.24
   3   7   3    0.08    0.08
   3   7   3    0.06    0.14
  -4  -7  -3   -0.35    0.15
  -4  -7  -3   -0.31    0.14
  -4  -7  -3    0.00    0.17
  -4  -7  -3    0.12    0.27
  -4  -7  -3    0.02    0.17
   4   7   3    0.04    0.09
   4   7   3   -0.02    0.15
  -5  -7  -3    0.37    0.36
  -5  -7  -3    0.00    0.19
  -5  -7  -3   -0.15    0.20
  -5  -7  -3   -0.19    0.19
   5   7   3    0.21    0.16
   5   7   3    0.18    0.13
   5   7   3    0.05    0.10
   9  -8  -3    0.33    0.19
  -9   8   3   -0.05    0.15
   8  -8  -3    0.73    0.21
   8  -8  -3    0.52    0.19
  -8   8   3    1.18    0.19
  -8   8   3    0.60    0.19
  -8   8   3    0.77    0.18
  -8   8   3    0.27    0.14
   7  -8  -3   -0.08    0.13
   7  -8  -3   -0.12    0.16
   7  -8  -3    0.09    0.12
   7  -8  -3   -0.03    0.16
   7  -8  -3    0.00    0.14
  -7   8   3   -0.04    0.11
  -7   8   3    0.20    0.15
  -7   8   3   -0.07    0.14
  -7   8   3   -0.04    0.12
  -7   8   3   -0.13    0.11
   6  -8  -3    0.15    0.16
   6  -8  -3    0.33    0.13
   6  -8  -3    0.39    0.18
   6  -8  -3    0.14    0.13
   6  -8  -3    0.25    0.17
  -6   8   3    0.53    0.21
  -6   8   3    0.25    0.15
  -6   8   3    0.74    0.20
  -6   8   3    0.23    0.18
  -6   8   3    0.10    0.11
   5  -8  -3    3.82    0.35
   5  -8  -3    3.48    0.32
   5  -8  -3    3.81    0.27
   5  -8  -3    3.69    0.37
  -5   8   3    3.72    0.35
  -5   8   3    3.72    0.35
  -5   8   3    3.80    0.35
  -5   8   3    3.19    0.31
   4  -8  -3    0.01    0.15
   4  -8  -3   -0.17    0.15
   4  -8  -3    0.10    0.11
   4  -8  -3   -0.03    0.07
  -4   8   3   -0.04    0.13
  -4   8   3    0.05    0.11
  -4   8   3    0.25    0.18
  -4   8   3    0.00    0.10
   3  -8  -3    3.50    0.40
   3  -8  -3    3.52    0.36
  -3   8   3    4.10    0.34
  -3   8   3    3.33    0.36
  -3   8   3    3.98    0.37
  -3   8   3    3.54    0.34
   2  -8  -3    0.09    0.11
   2  -8  -3    0.00    0.15
   2  -8  -3   -0.13    0.18
   2  -8  -3    0.11    0.20
  -2   8   3    0.04    0.12
  -2   8   3    0.00    0.10
  -2   8   3    0.34    0.21
  -2   8   3    0.19    0.17
   1  -8  -3    4.34    0.45
   1  -8  -3    4.27    0.41
   1  -8  -3    3.70    0.33
   1  -8  -3    3.20    0.40
  -1   8   3    2.58    0.43
  -1   8   3    3.63    0.39
  -1   8   3    3.84    0.31
   0  -8  -3    4.75    0.47
   0  -8  -3    5.16    0.45
   0  -8  -3    4.94    0.38
   0  -8  -3    4.56    0.46
   0   8   3    4.61    0.42
   0   8   3    4.46    0.42
   0   8   3    4.35    0.40
   0   8   3    4.43    0.31
  -1  -8  -3    5.05    0.49
  -1  -8  -3    5.50    0.44
  -1  -8  -3    4.77    0.49
  -1  -8  -3    5.08    0.30
  -1  -8  -3    5.91    0.48
   1   8   3    5.23    0.31
   1   8   3    5.52    0.45
  -2  -8  -3    0.20    0.16
  -2  -8  -3    0.07    0.13
  -2  -8  -3    0.16    0.16
  -2  -8  -3    0.11    0.20
  -2  -8  -3   -0.27    0.23
   2   8   3    0.13    0.08
   2   8   3    0.04    0.15
   2   8   3    0.08    0.08
  -3  -8  -3    1.62    0.27
  -3  -8  -3    1.81    0.29
  -3  -8  -3    1.88    0.37
  -3  -8  -3    1.91    0.34
  -3  -8  -3    1.38    0.23
   3   8   3    1.95    0.24
   3   8   3    2.60    0.34
  -4  -8  -3    0.86    0.25
  -4  -8  -3    1.51    0.34
  -4  -8  -3    1.37    0.29
   4   8   3    1.85    0.31
   4   8   3    1.28    0.20
  -8   9   3    0.14    0.14
  -8   9   3    0.05    0.17
  -8   9   3    0.24    0.15
   7  -9  -3    1.21    0.22
   7  -9  -3    0.77    0.19
   7  -9  -3    0.71    0.17
  -7   9   3    0.75    0.19
  -7   9   3    1.02    0.25
  -7   9   3    0.90    0.34
   6  -9  -3    0.23    0.18
   6  -9  -3    0.04    0.15
   6  -9  -3   -0.03    0.10
  -6   9   3   -0.26    0.12
  -6   9   3    0.23    0.18
  -6   9   3   -0.18    0.11
  -6   9   3   -0.15    0.15
  -6   9   3    0.15    0.12
   5  -9  -3   -0.08    0.18
   5  -9  -3    0.00    0.09
  -5   9   3    0.01    0.12
  -5   9   3    0.18    0.13
  -5   9   3    0.37    0.15
  -5   9   3    0.24    0.17
   4  -9  -3    0.41    0.22
  -4   9   3    0.08    0.13
  -4   9   3    0.42    0.17
  -4   9   3    0.46    0.18
   3  -9  -3    4.54    0.44
   3  -9  -3    4.34    0.43
  -3   9   3    4.56    0.38
  -3   9   3    3.52    0.45
  -3   9   3    4.95    0.43
  -3   9   3    4.53    0.42
   2  -9  -3    8.79    0.58
   2  -9  -3    9.99    0.61
   2  -9  -3   10.38    0.57
  -2   9   3    8.67    0.53
  -2   9   3    9.40    0.49
  -2   9   3   10.01    0.59
  -2   9   3    9.79    0.59
   1  -9  -3    3.82    0.46
   1  -9  -3    4.52    0.38
   1  -9  -3    4.25    0.44
  -1   9   3    3.99    0.41
  -1   9   3    4.38    0.32
   0  -9  -3    0.47    0.19
   0  -9  -3    0.12    0.15
   0  -9  -3    0.48    0.26
   0   9   3    0.71    0.25
   0   9   3    0.49    0.12
  -1  -9  -3    0.48    0.14
  -1  -9  -3    0.57    0.24
  -1  -9  -3    0.58    0.20
  -1  -9  -3    0.75    0.20
   1   9   3    0.74    0.22
   1   9   3    0.54    0.11
  -2  -9  -3    0.24    0.18
  -2  -9  -3    1.10    0.28
  -2  -9  -3    0.47    0.21
  -2  -9  -3    0.18    0.15
   2   9   3    0.61    0.21
   2   9   3    0.54    0.12
   2   9   3    0.54    0.13
  -3  -9  -3    0.25    0.22
  -3  -9  -3    0.19    0.21
  -3  -9  -3    0.44    0.29
  -3  -9  -3    0.62    0.24
   3   9   3    0.07    0.12
   3   9   3    0.26    0.16
   8 -10  -3   -0.01    0.18
   8 -10  -3    0.01    0.15
   8 -10  -3    0.02    0.23
  -8  10   3   -0.15    0.15
  -8  10   3    0.13    0.20
  -8  10   3    0.03    0.21
   7 -10  -3    0.27    0.23
   7 -10  -3   -0.12    0.17
   7 -10  -3    0.06    0.13
  -7  10   3    0.25    0.18
  -7  10   3    0.06    0.14
  -7  10   3   -0.18    0.19
   6 -10  -3    0.31    0.19
   6 -10  -3    0.56    0.13
   6 -10  -3    0.36    0.23
  -6  10   3    0.33    0.20
  -6  10   3    0.45    0.16
  -6  10   3    0.33    0.15
  -6  10   3    0.33    0.21
   5 -10  -3    0.46    0.22
  -5  10   3    0.52    0.21
  -5  10   3    0.32    0.15
  -5  10   3    0.46    0.23
   4 -10  -3    0.11    0.23
  -4  10   3    0.32    0.18
  -4  10   3    0.26    0.15
  -4  10   3    0.21    0.23
   3 -10  -3    0.19    0.15
   3 -10  -3    0.19    0.21
  -3  10   3    0.39    0.20
  -3  10   3    0.36    0.21
   2 -10  -3    0.48    0.14
   2 -10  -3    0.38    0.26
   2 -10  -3    0.50    0.18
  -2  10   3    0.57    0.23
  -2  10   3    0.42    0.15
   1 -10  -3    0.04    0.14
   1 -10  -3   -0.13    0.22
   1 -10  -3   -0.10    0.14
  -1  10   3    0.00    0.09
  -1  10   3    0.09    0.16
   0 -10  -3    0.04    0.22
   0 -10  -3   -0.16    0.15
   0 -10  -3    0.06    0.17
   0  10   3    0.14    0.17
   0  10   3    0.13    0.10
  -1 -10  -3   -0.12    0.17
  -1 -10  -3    0.06    0.18
  -1 -10  -3   -0.02    0.18
  -1 -10  -3   -0.03    0.22
   1  10   3    0.04    0.17
   1  10   3   -0.01    0.08
   1  10   3   -0.14    0.08
   7 -11  -3    0.00    0.16
   7 -11  -3   -0.13    0.27
  -7  11   3   -0.05    0.20
   6 -11  -3    0.59    0.27
   6 -11  -3    0.32    0.20
  -6  11   3    0.25    0.28
  -6  11   3    0.20    0.16
  -6  11   3    0.46    0.21
   5 -11  -3   -0.06    0.22
  -5  11   3    0.01    0.18
  -5  11   3    0.12    0.15
  -5  11   3   -0.09    0.20
   4 -11  -3    0.29    0.23
  -4  11   3    0.30    0.20
   3 -11  -3    0.08    0.15
   3 -11  -3    0.41    0.24
  -3  11   3   -0.19    0.11
  -3  11   3   -0.05    0.16
   2 -11  -3    0.14    0.17
   2 -11  -3    0.12    0.24
   2 -11  -3    0.03    0.14
  -2  11   3    0.00    0.18
  -2  11   3    0.07    0.11
   1 -11  -3   -0.30    0.15
   1 -11  -3    0.12    0.27
   1 -11  -3    0.16    0.19
  -1  11   3    0.08    0.19
  -1  11   3    0.07    0.10
   0 -11  -3   -0.12    0.20
   0 -11  -3    0.38    0.20
   0  11   3    0.49    0.20
  -2  12  -4    0.23    0.21
  -2  12  -4    0.09    0.12
   2 -12   4    0.08    0.28
   2 -12   4   -0.33    0.14
  -3  12  -4   -0.06    0.13
  -3  12  -4    0.10    0.24
   3 -12   4    0.23    0.28
   3 -12   4    0.10    0.16
  -4  12  -4    0.24    0.16
  -4  12  -4    0.11    0.22
   4 -12   4    0.40    0.27
   4 -12   4    0.06    0.17
   1  11  -4    0.18    0.12
   1  11  -4    0.50    0.25
  -1 -11   4   -0.13    0.19
  -1 -11   4   -0.08    0.24
  -1 -11   4    0.27    0.19
   0  11  -4    0.14    0.22
   0  11  -4   -0.05    0.10
   0 -11   4    0.31    0.26
  -1  11  -4    0.37    0.18
  -1  11  -4   -0.03    0.11
   1 -11   4    0.41    0.27
   1 -11   4   -0.26    0.13
  -2  11  -4    0.29    0.14
  -2  11  -4    0.57    0.22
   2 -11   4    0.33    0.15
   2 -11   4    0.30    0.24
  -3  11  -4    0.10    0.13
  -3  11  -4    0.36    0.19
   3 -11   4   -0.08    0.12
   3 -11   4   -0.22    0.20
  -4  11  -4    0.09    0.17
  -4  11  -4    0.29    0.14
  -4  11  -4   -0.03    0.17
  -4  11  -4    0.29    0.21
   4 -11   4    0.12    0.23
  -5  11  -4    0.05    0.18
  -5  11  -4    0.37    0.35
  -5  11  -4   -0.04    0.13
  -5  11  -4    0.13    0.18
   5 -11   4    0.09    0.15
   5 -11   4    0.18    0.17
   5 -11   4    0.71    0.26
  -6  11  -4    0.71    0.25
  -6  11  -4    0.41    0.21
  -6  11  -4    0.48    0.18
   6 -11   4    0.72    0.21
   6 -11   4    0.27    0.19
   6 -11   4    0.99    0.29
   2  10  -4    0.07    0.17
   2  10  -4    0.10    0.12
  -2 -10   4    0.29    0.25
  -2 -10   4    0.05    0.16
  -2 -10   4   -0.15    0.17
   1  10  -4   -0.03    0.09
   1  10  -4    0.02    0.16
  -1 -10   4   -0.07    0.19
  -1 -10   4    0.17    0.16
  -1 -10   4    0.08    0.16
   0  10  -4    0.04    0.10
   0  10  -4    0.32    0.18
   0 -10   4    0.10    0.15
   0 -10   4    0.35    0.22
  -1  10  -4    0.39    0.22
  -1  10  -4    0.23    0.20
   1 -10   4    0.18    0.21
   1 -10   4    0.21    0.14
  -2  10  -4    0.31    0.21
  -2  10  -4    0.41    0.23
  -2  10  -4   -0.03    0.20
   2 -10   4    0.45    0.21
   2 -10   4    0.20    0.12
  -3  10  -4    0.64    0.22
  -3  10  -4    0.55    0.14
  -3  10  -4    0.97    0.24
  -3  10  -4    0.46    0.14
   3 -10   4    0.27    0.21
   3 -10   4    0.45    0.16
  -4  10  -4    0.96    0.17
  -4  10  -4    0.97    0.19
  -4  10  -4    0.94    0.25
  -4  10  -4    1.02    0.24
   4 -10   4    0.92    0.20
   4 -10   4    1.22    0.28
  -5  10  -4    0.70    0.19
  -5  10  -4    0.83    0.26
  -5  10  -4    0.65    0.15
  -5  10  -4    1.15    0.26
   5 -10   4    0.92    0.21
   5 -10   4    0.93    0.24
   5 -10   4    0.49    0.18
  -6  10  -4    1.50    0.27
  -6  10  -4    0.80    0.18
   6 -10   4    0.99    0.22
   6 -10   4    0.87    0.28
  -7  10  -4    0.43    0.36
  -7  10  -4    0.67    0.18
  -7  10  -4    0.47    0.15
   7 -10   4    0.22    0.15
   7 -10   4    0.51    0.22
   7 -10   4    0.10    0.16
  -8  10  -4    0.13    0.17
  -8  10  -4    0.28    0.19
   3   9  -4    0.09    0.10
   3   9  -4   -0.01    0.19
  -3  -9   4    0.02    0.17
  -3  -9   4   -0.41    0.17
  -3  -9   4   -0.23    0.17
   2   9  -4   -0.13    0.16
   2   9  -4    0.07    0.10
  -2  -9   4   -0.09    0.18
  -2  -9   4    0.34    0.16
  -2  -9   4    0.21    0.19
   1   9  -4    6.41    0.41
   1   9  -4    7.92    0.52
  -1  -9   4    7.91    0.80
  -1  -9   4    7.63    0.71
  -1  -9   4    6.98    0.48
   0   9  -4    0.28    0.17
   0   9  -4    0.16    0.12
   0  -9   4    0.11    0.14
   0  -9   4    0.32    0.21
   0  -9   4    0.10    0.13
  -1   9  -4    0.99    0.17
  -1   9  -4    1.62    0.27
  -1   9  -4    1.52    0.28
   1  -9   4    1.33    0.28
   1  -9   4    1.19    0.19
   1  -9   4    1.36    0.26
  -2   9  -4    3.27    0.36
  -2   9  -4    3.22    0.37
  -2   9  -4    2.96    0.31
   2  -9   4    2.70    0.27
   2  -9   4    2.86    0.46
   2  -9   4    3.03    0.41
  -3   9  -4    0.26    0.17
  -3   9  -4    0.22    0.12
  -3   9  -4    0.49    0.14
  -3   9  -4    0.63    0.20
  -3   9  -4    0.37    0.19
   3  -9   4    0.33    0.15
   3  -9   4    0.35    0.22
  -4   9  -4    1.41    0.27
  -4   9  -4    1.16    0.20
  -4   9  -4    1.65    0.27
  -4   9  -4    1.59    0.20
   4  -9   4    1.22    0.20
   4  -9   4    1.31    0.28
  -5   9  -4    0.01    0.12
  -5   9  -4    0.05    0.15
  -5   9  -4    0.10    0.18
  -5   9  -4   -0.09    0.16
   5  -9   4    0.05    0.19
   5  -9   4    0.05    0.15
   5  -9   4    0.12    0.12
  -6   9  -4    1.36    0.25
  -6   9  -4    1.43    0.26
  -6   9  -4    1.11    0.36
   6  -9   4    0.94    0.22
   6  -9   4    0.82    0.21
  -7   9  -4    2.57    0.44
  -7   9  -4    1.76    0.28
   7  -9   4    1.73    0.24
   7  -9   4    1.22    0.27
   7  -9   4    1.47    0.26
  -8   9  -4    0.20    0.14
  -8   9  -4    0.24    0.17
  -8   9  -4    0.24    0.16
   8  -9   4   -0.16    0.13
   8  -9   4    0.25    0.17
   4   8  -4    0.90    0.24
  -4  -8   4    0.62    0.25
  -4  -8   4    0.54    0.21
  -4  -8   4    0.79    0.21
  -4  -8   4    0.85    0.26
   3   8  -4    0.01    0.09
   3   8  -4    0.26    0.17
  -3  -8   4    0.14    0.19
  -3  -8   4    0.14    0.18
  -3  -8   4   -0.36    0.19
  -3  -8   4    0.25    0.20
  -3  -8   4   -0.05    0.14
   2   8  -4    0.16    0.15
   2   8  -4    0.03    0.09
  -2  -8   4   -0.08    0.14
  -2  -8   4   -0.25    0.12
  -2  -8   4    0.21    0.22
  -2  -8   4    0.21    0.17
  -2  -8   4    0.11    0.16
   1   8  -4    0.14    0.14
   1   8  -4   -0.03    0.09
   1   8  -4   -0.09    0.14
  -1  -8   4   -0.04    0.12
  -1  -8   4   -0.22    0.15
  -1  -8   4   -0.07    0.10
  -1  -8   4   -0.05    0.19
  -1  -8   4    0.05    0.11
   0   8  -4    1.94    0.30
   0   8  -4    1.73    0.27
   0   8  -4    2.30    0.25
   0  -8   4    2.32    0.35
   0  -8   4    1.89    0.28
   0  -8   4    1.87    0.31
   0  -8   4    1.36    0.21
   0  -8   4    1.31    0.20
  -1   8  -4    2.64    0.29
  -1   8  -4    3.08    0.28
  -1   8  -4    3.29    0.36
  -1   8  -4    2.62    0.34
   1  -8   4    2.78    0.42
   1  -8   4    3.28    0.29
   1  -8   4    2.71    0.39
   1  -8   4    2.89    0.39
  -2   8  -4    0.03    0.15
  -2   8  -4   -0.12    0.11
  -2   8  -4    0.03    0.09
  -2   8  -4   -0.11    0.14
  -2   8  -4    0.02    0.12
  -2   8  -4    0.08    0.09
   2  -8   4    0.07    0.10
   2  -8   4    0.15    0.15
   2  -8   4    0.03    0.18
  -3   8  -4    0.44    0.18
  -3   8  -4    0.70    0.22
  -3   8  -4    0.62    0.19
  -3   8  -4    0.55    0.12
  -3   8  -4    0.87    0.15
   3  -8   4    0.48    0.21
   3  -8   4    0.63    0.15
   3  -8   4    0.16    0.19
   3  -8   4    0.67    0.12
  -4   8  -4    6.18    0.42
  -4   8  -4    5.40    0.42
  -4   8  -4    6.09    0.44
  -4   8  -4    5.83    0.39
  -4   8  -4    5.93    0.37
   4  -8   4    5.20    0.41
   4  -8   4    5.73    0.45
   4  -8   4    5.50    0.42
   4  -8   4    5.82    0.39
  -5   8  -4    9.92    0.53
  -5   8  -4    9.95    0.52
  -5   8  -4    9.90    0.54
  -5   8  -4    9.56    0.50
  -5   8  -4   10.50    0.51
   5  -8   4    9.54    0.50
   5  -8   4    9.96    0.58
   5  -8   4    9.82    0.53
   5  -8   4   10.95    0.54
   5  -8   4    9.85    0.52
  -6   8  -4    0.23    0.12
  -6   8  -4    0.29    0.16
  -6   8  -4    0.42    0.16
  -6   8  -4    0.54    0.18
   6  -8   4    0.43    0.16
   6  -8   4    0.57    0.17
   6  -8   4    0.37    0.15
   6  -8   4    0.12    0.16
  -7   8  -4    0.32    0.15
  -7   8  -4    0.11    0.12
  -7   8  -4    0.31    0.15
   7  -8   4   -0.06    0.22
   7  -8   4   -0.01    0.10
  -8   8  -4   -0.12    0.12
   8  -8   4    0.04    0.14
   8  -8   4   -0.10    0.14
  -9   8  -4   -0.20    0.10
   9  -8   4    0.21    0.18
   9  -8   4    0.09    0.14
   5   7  -4    0.34    0.21
  -5  -7   4    0.22    0.17
  -5  -7   4    0.14    0.16
  -5  -7   4   -0.41    0.21
  -5  -7   4    0.37    0.19
  -5  -7   4    0.44    0.22
   4   7  -4    0.16    0.17
  -4  -7   4    0.24    0.22
  -4  -7   4   -0.04    0.13
  -4  -7   4   -0.07    0.17
  -4  -7   4    0.09    0.15
  -4  -7   4    0.21    0.18
   3   7  -4    0.12    0.16
   3   7  -4    0.08    0.10
  -3  -7   4    0.46    0.20
  -3  -7   4   -0.06    0.16
  -3  -7   4   -0.15    0.13
  -3  -7   4   -0.04    0.14
  -3  -7   4    0.11    0.17
   2   7  -4   -0.08    0.13
   2   7  -4   -0.11    0.09
   2   7  -4    0.01    0.09
  -2  -7   4   -0.02    0.14
  -2  -7   4    0.06    0.16
  -2  -7   4    0.15    0.15
  -2  -7   4   -0.01    0.11
  -2  -7   4    0.11    0.16
   1   7  -4    1.72    0.22
   1   7  -4    1.48    0.21
   1   7  -4    2.08    0.30
   1   7  -4    1.87    0.30
  -1  -7   4    1.44    0.19
  -1  -7   4    2.41    0.31
  -1  -7   4    1.67    0.23
  -1  -7   4    1.46    0.21
  -1  -7   4    1.44    0.26
   0   7  -4   16.86    0.69
   0   7  -4   16.53    0.60
   0   7  -4   16.71    0.63
   0   7  -4   15.31    0.63
   0   7  -4   17.19    0.70
   0  -7   4   17.66    0.70
   0  -7   4   15.78    0.68
   0  -7   4   16.51    0.72
   0  -7   4   17.22    0.63
   0  -7   4   15.29    0.61
  -1   7  -4    1.14    0.19
  -1   7  -4    1.21    0.21
  -1   7  -4    1.34    0.23
  -1   7  -4    1.04    0.16
  -1   7  -4    1.36    0.20
   1  -7   4    0.94    0.19
   1  -7   4    1.11    0.17
   1  -7   4    1.36    0.21
   1  -7   4    1.13    0.22
  -2   7  -4    2.01    0.27
  -2   7  -4    1.93    0.27
  -2   7  -4    2.29    0.20
  -2   7  -4    1.87    0.27
  -2   7  -4    2.38    0.25
   2  -7   4    1.69    0.23
   2  -7   4    1.92    0.26
   2  -7   4    2.50    0.22
   2  -7   4    2.00    0.29
  -3   7  -4    2.16    0.25
  -3   7  -4    2.33    0.19
  -3   7  -4    2.09    0.28
  -3   7  -4    2.27    0.29
  -3   7  -4    2.11    0.23
  -3   7  -4    1.93    0.27
   3  -7   4    2.02    0.27
   3  -7   4    1.77    0.26
   3  -7   4    2.09    0.25
   3  -7   4    2.25    0.26
  -4   7  -4    7.04    0.41
  -4   7  -4    6.67    0.41
  -4   7  -4    7.05    0.40
  -4   7  -4    6.20    0.36
  -4   7  -4    7.03    0.42
   4  -7   4    6.45    0.41
   4  -7   4    6.76    0.39
   4  -7   4    7.35    0.41
   4  -7   4    6.86    0.41
  -5   7  -4    0.24    0.11
  -5   7  -4    0.23    0.12
  -5   7  -4    0.31    0.14
  -5   7  -4    0.35    0.16
  -5   7  -4    0.25    0.13
   5  -7   4    0.59    0.16
   5  -7   4    0.25    0.15
   5  -7   4    0.29    0.13
   5  -7   4    0.23    0.14
   5  -7   4    0.21    0.13
  -6   7  -4    0.40    0.14
  -6   7  -4    0.03    0.10
  -6   7  -4    0.06    0.11
  -6   7  -4   -0.05    0.11
  -6   7  -4    0.08    0.12
   6  -7   4    0.10    0.12
   6  -7   4    0.20    0.13
   6  -7   4    0.19    0.13
   6  -7   4    0.24    0.15
   6  -7   4    0.18    0.11
  -7   7  -4    0.11    0.12
  -7   7  -4    0.05    0.11
  -7   7  -4    0.21    0.12
   7  -7   4   -0.03    0.13
   7  -7   4    0.03    0.14
  -8   7  -4    0.01    0.10
   8  -7   4   -0.08    0.12
   8  -7   4   -0.09    0.13
  -9   7  -4   -0.19    0.14
   9  -7   4   -0.13    0.13
   9  -7   4   -0.04    0.15
   6   6  -4    0.10    0.22
   6   6  -4    0.05    0.15
  -6  -6   4   -0.27    0.23
  -6  -6   4    0.08    0.16
  -6  -6   4    0.06    0.18
  -6  -6   4   -0.28    0.14
  -6  -6   4    0.09    0.19
   5   6  -4    0.75    0.19
   5   6  -4    0.67    0.19
  -5  -6   4    0.42    0.21
  -5  -6   4    0.48    0.19
  -5  -6   4    0.67    0.22
  -5  -6   4    0.77    0.23
   4   6  -4   -0.20    0.11
   4   6  -4    0.10    0.15
  -4  -6   4   -0.15    0.16
  -4  -6   4    0.11    0.16
  -4  -6   4    0.13    0.14
  -4  -6   4    0.19    0.11
  -4  -6   4    0.05    0.14
   3   6  -4    2.46    0.30
   3   6  -4    3.06    0.33
  -3  -6   4    2.73    0.35
  -3  -6   4    3.12    0.33
  -3  -6   4    2.37    0.32
  -3  -6   4    2.44    0.27
  -3  -6   4    2.49    0.35
   2   6  -4    3.64    0.34
   2   6  -4    3.25    0.29
   2   6  -4    3.22    0.32
   2   6  -4    3.02    0.29
   2   6  -4    3.16    0.25
  -2  -6   4    3.11    0.32
  -2  -6   4    3.06    0.35
  -2  -6   4    3.04    0.27
  -2  -6   4    2.96    0.32
  -2  -6   4    3.55    0.36
   1   6  -4    0.36    0.10
   1   6  -4    0.43    0.15
   1   6  -4    0.22    0.09
   1   6  -4    0.59    0.16
   1   6  -4    0.23    0.12
  -1  -6   4    0.30    0.13
  -1  -6   4    0.37    0.16
  -1  -6   4    0.35    0.15
  -1  -6   4    0.40    0.10
  -1  -6   4    0.40    0.13
   0   6  -4    4.97    0.29
   0   6  -4    4.73    0.32
   0   6  -4    4.41    0.33
   0   6  -4    4.51    0.34
   0   6  -4    4.81    0.31
   0  -6   4    4.68    0.35
   0  -6   4    4.62    0.30
   0  -6   4    5.01    0.33
   0  -6   4    4.78    0.36
   0  -6   4    4.68    0.35
  -1   6  -4    0.04    0.10
  -1   6  -4    0.08    0.12
  -1   6  -4   -0.03    0.07
  -1   6  -4   -0.06    0.07
  -1   6  -4   -0.10    0.08
   1  -6   4    0.08    0.09
   1  -6   4   -0.09    0.07
   1  -6   4    0.05    0.12
   1  -6   4   -0.12    0.10
  -2   6  -4   14.95    0.59
  -2   6  -4   15.88    0.56
  -2   6  -4   15.66    0.51
  -2   6  -4   15.77    0.84
  -2   6  -4   15.72    0.61
   2  -6   4   15.82    0.61
   2  -6   4   16.11    0.53
   2  -6   4   14.58    0.59
   2  -6   4   16.21    0.51
  -3   6  -4    1.77    0.25
  -3   6  -4    1.69    0.18
  -3   6  -4    1.83    0.21
  -3   6  -4    1.84    0.24
  -3   6  -4    1.77    0.25
   3  -6   4    1.89    0.26
   3  -6   4    1.90    0.23
   3  -6   4    1.97    0.23
   3  -6   4    1.88    0.22
   3  -6   4    2.03    0.19
  -4   6  -4    1.50    0.22
  -4   6  -4    1.53    0.23
  -4   6  -4    1.57    0.21
  -4   6  -4    1.69    0.22
   4  -6   4    1.37    0.20
   4  -6   4    1.19    0.18
   4  -6   4    1.10    0.17
   4  -6   4    1.14    0.18
  -5   6  -4    1.55    0.21
  -5   6  -4    0.98    0.16
  -5   6  -4    0.99    0.17
  -5   6  -4    0.93    0.16
   5  -6   4    1.24    0.21
   5  -6   4    1.26    0.21
   5  -6   4    0.88    0.16
   5  -6   4    1.22    0.18
   5  -6   4    1.39    0.20
  -6   6  -4    0.01    0.19
  -6   6  -4   -0.04    0.10
  -6   6  -4   -0.01    0.10
  -6   6  -4    0.06    0.10
  -6   6  -4    0.02    0.09
   6  -6   4    0.05    0.08
   6  -6   4   -0.03    0.11
   6  -6   4    0.09    0.10
   6  -6   4   -0.03    0.10
   6  -6   4   -0.01    0.10
  -7   6  -4   -0.30    0.13
  -7   6  -4   -0.04    0.09
   7  -6   4    0.07    0.13
   7  -6   4   -0.08    0.11
  -8   6  -4    0.00    0.10
  -8   6  -4    0.06    0.10
   8  -6   4   -0.19    0.12
   8  -6   4    0.11    0.15
  -9   6  -4   -0.03    0.10
  -9   6  -4   -0.17    0.12
  -9   6  -4   -0.24    0.14
   9  -6   4    0.37    0.14
   7   5  -4   -0.12    0.13
   7   5  -4    0.21    0.19
   7   5  -4    0.16    0.12
  -7  -5   4    0.35    0.22
  -7  -5   4    0.26    0.15
  -7  -5   4   -0.21    0.14
  -7  -5   4    0.25    0.21
   6   5  -4    0.28    0.11
   6   5  -4    0.56    0.18
   6   5  -4    0.28    0.14
  -6  -5   4    0.05    0.14
  -6  -5   4    0.11    0.15
  -6  -5   4    0.33    0.18
  -6  -5   4    0.25    0.15
  -6  -5   4    0.31    0.20
  -6  -5   4    0.25    0.16
   5   5  -4   -0.07    0.10
   5   5  -4   -0.14    0.09
   5   5  -4   -0.04    0.11
   5   5  -4    0.12    0.14
  -5  -5   4   -0.06    0.13
  -5  -5   4    0.19    0.12
  -5  -5   4    0.01    0.16
  -5  -5   4    0.04    0.11
  -5  -5   4   -0.10    0.13
  -5  -5   4   -0.01    0.15
   4   5  -4    5.29    0.37
   4   5  -4    4.25    0.35
   4   5  -4    5.28    0.30
   4   5  -4    5.08    0.35
  -4  -5   4    4.66    0.31
  -4  -5   4    4.47    0.42
  -4  -5   4    5.12    0.39
  -4  -5   4    4.79    0.40
  -4  -5   4    4.50    0.36
   3   5  -4    0.32    0.15
   3   5  -4    0.31    0.09
   3   5  -4    0.21    0.13
   3   5  -4    0.19    0.10
  -3  -5   4    0.42    0.15
  -3  -5   4    0.41    0.14
  -3  -5   4    0.46    0.18
  -3  -5   4    0.21    0.09
  -3  -5   4    0.15    0.14
   2   5  -4    3.34    0.27
   2   5  -4    3.25    0.30
   2   5  -4    3.21    0.28
   2   5  -4    2.99    0.28
   2   5  -4    2.92    0.23
  -2  -5   4    2.97    0.31
  -2  -5   4    2.92    0.31
  -2  -5   4    3.41    0.24
  -2  -5   4    3.50    0.31
  -2  -5   4    2.76    0.28
   1   5  -4    2.79    0.24
   1   5  -4    2.56    0.22
   1   5  -4    2.75    0.24
   1   5  -4    2.86    0.35
   1   5  -4    3.04    0.27
  -1  -5   4    2.65    0.26
  -1  -5   4    3.29    0.26
  -1  -5   4    2.52    0.22
  -1  -5   4    2.78    0.28
  -1  -5   4    2.78    0.28
   0   5  -4    0.03    0.17
   0   5  -4   -0.08    0.06
   0   5  -4    0.03    0.06
   0   5  -4    0.09    0.12
   0   5  -4    0.01    0.08
   0  -5   4    0.00    0.06
   0  -5   4    0.09    0.09
   0  -5   4    0.06    0.09
  -1   5  -4   22.68    0.68
  -1   5  -4   23.35    0.75
  -1   5  -4   23.32    0.73
  -1   5  -4   24.10    0.70
  -1   5  -4   23.27    0.77
   1  -5   4   22.18    0.74
   1  -5   4   23.96    0.76
   1  -5   4   23.11    0.67
   1  -5   4   23.28    0.70
  -2   5  -4    2.19    0.20
  -2   5  -4    2.43    0.23
  -2   5  -4    2.19    0.22
  -2   5  -4    2.16    0.18
  -2   5  -4    2.30    0.23
   2  -5   4    1.90    0.21
   2  -5   4    2.40    0.19
   2  -5   4    2.28    0.25
   2  -5   4    2.19    0.19
  -3   5  -4    3.08    0.25
  -3   5  -4    2.94    0.19
  -3   5  -4    2.84    0.25
  -3   5  -4    3.15    0.24
   3  -5   4    2.88    0.18
   3  -5   4    3.02    0.24
   3  -5   4    2.79    0.24
   3  -5   4    2.81    0.25
   3  -5   4    2.87    0.23
  -4   5  -4    1.40    0.21
  -4   5  -4    1.68    0.18
  -4   5  -4    1.39    0.20
  -4   5  -4    1.60    0.21
  -4   5  -4    1.53    0.20
   4  -5   4    1.72    0.22
   4  -5   4    1.68    0.19
   4  -5   4    1.84    0.18
   4  -5   4    1.51    0.20
   4  -5   4    1.69    0.21
   4  -5   4    1.57    0.22
  -5   5  -4    2.28    0.22
  -5   5  -4    2.17    0.23
  -5   5  -4    1.78    0.23
  -5   5  -4    1.97    0.22
  -5   5  -4    2.41    0.24
  -5   5  -4    1.98    0.19
  -5   5  -4    2.02    0.21
   5  -5   4    2.21    0.27
   5  -5   4    2.24    0.24
   5  -5   4    1.93    0.24
   5  -5   4    2.03    0.19
   5  -5   4    2.16    0.25
   5  -5   4    2.02    0.19
  -6   5  -4    0.05    0.11
  -6   5  -4    0.27    0.10
  -6   5  -4    0.04    0.12
  -6   5  -4    0.17    0.10
  -6   5  -4    0.15    0.09
  -6   5  -4    0.07    0.12
   6  -5   4    0.03    0.08
   6  -5   4    0.10    0.10
   6  -5   4    0.17    0.12
   6  -5   4   -0.05    0.10
  -7   5  -4    0.11    0.15
  -7   5  -4    0.28    0.10
  -7   5  -4    0.09    0.09
   7  -5   4    0.27    0.14
   7  -5   4    0.17    0.12
   7  -5   4    0.11    0.11
  -8   5  -4    0.14    0.11
   8  -5   4    0.07    0.13
   8  -5   4    0.07    0.12
  -9   5  -4    0.71    0.14
  -9   5  -4    1.12    0.19
  -9   5  -4    0.58    0.20
   9  -5   4    0.80    0.18
   9  -5   4    0.68    0.19
   7   4  -4    0.05    0.12
   7   4  -4    0.20    0.14
   7   4  -4   -0.05    0.13
  -7  -4   4   -0.10    0.12
  -7  -4   4   -0.15    0.16
  -7  -4   4    0.09    0.17
   6   4  -4    0.23    0.14
   6   4  -4    0.03    0.11
   6   4  -4    0.05    0.20
   6   4  -4   -0.14    0.19
  -6  -4   4    0.25    0.28
  -6  -4   4   -0.11    0.11
  -6  -4   4    0.21    0.15
  -6  -4   4    0.29    0.16
  -6  -4   4    0.06    0.13
  -6  -4   4   -0.05    0.14
   5   4  -4    1.14    0.19
   5   4  -4    1.74    0.24
   5   4  -4    1.67    0.21
   5   4  -4    1.11    0.19
   5   4  -4    1.72    0.26
  -5  -4   4    1.15    0.16
  -5  -4   4    1.77    0.23
  -5  -4   4    1.92    0.28
  -5  -4   4    1.28    0.17
  -5  -4   4    0.97    0.21
  -5  -4   4    1.44    0.23
  -5  -4   4    1.04    0.19
   4   4  -4    2.22    0.26
   4   4  -4    1.61    0.23
   4   4  -4    1.95    0.24
   4   4  -4    1.67    0.28
  -4  -4   4    1.60    0.21
  -4  -4   4    1.73    0.26
  -4  -4   4    1.45    0.19
  -4  -4   4    1.38    0.22
  -4  -4   4    1.82    0.25
  -4  -4   4    1.67    0.20
   3   4  -4    9.44    0.44
   3   4  -4    9.26    0.47
   3   4  -4    9.76    0.37
   3   4  -4    9.89    0.45
   3   4  -4   10.03    0.43
  -3  -4   4    9.31    0.46
  -3  -4   4    9.67    0.45
  -3  -4   4    9.69    0.40
  -3  -4   4    9.52    0.45
  -3  -4   4    9.52    0.38
  -3  -4   4   10.01    0.49
   2   4  -4    0.26    0.12
   2   4  -4    0.22    0.10
   2   4  -4    0.19    0.09
   2   4  -4    0.20    0.09
   2   4  -4    0.30    0.12
  -2  -4   4    0.16    0.07
  -2  -4   4    0.22    0.12
  -2  -4   4    0.35    0.13
  -2  -4   4    0.24    0.06
  -2  -4   4    0.22    0.12
  -2  -4   4    0.23    0.11
   1   4  -4    0.87    0.15
   1   4  -4    1.20    0.18
   1   4  -4    1.15    0.15
   1   4  -4    0.98    0.23
   1   4  -4    1.30    0.20
  -1  -4   4    1.08    0.15
  -1  -4   4    0.78    0.13
  -1  -4   4    0.92    0.14
  -1  -4   4    1.22    0.21
  -1  -4   4    1.33    0.19
   0   4  -4   10.22    0.43
   0   4  -4   10.02    0.40
   0   4  -4   10.72    0.38
   0   4  -4    9.87    0.39
   0   4  -4   10.22    0.43
   0  -4   4   10.49    0.40
   0  -4   4   10.61    0.43
   0  -4   4   10.21    0.43
   0  -4   4   10.42    0.44
  -1   4  -4    9.08    0.38
  -1   4  -4    9.40    0.40
  -1   4  -4    9.23    0.35
  -1   4  -4    9.16    0.39
  -1   4  -4    9.80    0.36
   1  -4   4    9.42    0.40
   1  -4   4    9.20    0.39
   1  -4   4    9.55    0.34
   1  -4   4    9.16    0.35
   1  -4   4    9.47    0.31
  -2   4  -4    0.96    0.13
  -2   4  -4    0.67    0.15
  -2   4  -4    0.77    0.14
  -2   4  -4    0.53    0.09
   2  -4   4    0.80    0.11
   2  -4   4    0.55    0.09
   2  -4   4    0.80    0.11
   2  -4   4    0.79    0.09
   2  -4   4    0.59    0.14
   2  -4   4    0.84    0.15
  -3   4  -4    0.54    0.12
  -3   4  -4    0.73    0.13
  -3   4  -4    0.45    0.10
  -3   4  -4    0.49    0.09
  -3   4  -4    0.60    0.10
   3  -4   4    0.38    0.10
   3  -4   4    0.35    0.10
   3  -4   4    0.50    0.13
   3  -4   4    0.47    0.09
   3  -4   4    0.64    0.15
  -4   4  -4    2.95    0.21
  -4   4  -4    3.17    0.24
  -4   4  -4    2.71    0.25
  -4   4  -4    3.57    0.37
  -4   4  -4    3.13    0.23
  -4   4  -4    3.17    0.22
  -4   4  -4    3.27    0.23
   4  -4   4    3.06    0.30
   4  -4   4    3.19    0.22
   4  -4   4    3.13    0.27
   4  -4   4    3.02    0.20
   4  -4   4    2.93    0.22
   4  -4   4    3.22    0.26
  -5   4  -4    3.48    0.27
  -5   4  -4    3.75    0.24
  -5   4  -4    3.85    0.25
  -5   4  -4    3.64    0.22
  -5   4  -4    3.73    0.28
  -5   4  -4    3.74    0.27
   5  -4   4    3.66    0.30
   5  -4   4    3.76    0.31
   5  -4   4    3.74    0.28
   5  -4   4    3.63    0.26
  -6   4  -4    1.93    0.21
  -6   4  -4    1.52    0.22
  -6   4  -4    1.39    0.20
   6  -4   4    1.84    0.26
   6  -4   4    2.14    0.27
   6  -4   4    1.36    0.21
  -7   4  -4    0.46    0.12
  -7   4  -4    0.64    0.17
   7  -4   4    0.54    0.16
   7  -4   4    0.74    0.17
  -8   4  -4    0.24    0.17
  -8   4  -4    0.12    0.10
   8  -4   4    0.51    0.18
   8  -4   4    0.31    0.14
  -9   4  -4    4.50    0.31
  -9   4  -4    4.53    0.40
  -9   4  -4    4.38    0.46
   9  -4   4    4.85    0.46
   9  -4   4    4.80    0.48
   8   3  -4    0.30    0.14
   8   3  -4    0.11    0.15
  -8  -3   4    0.13    0.16
  -8  -3   4    0.19    0.21
  -8  -3   4    0.44    0.15
  -8  -3   4   -0.09    0.16
  -8  -3   4    0.24    0.14
   7   3  -4    1.16    0.22
   7   3  -4    1.79    0.25
   7   3  -4    1.41    0.22
   7   3  -4    1.03    0.20
  -7  -3   4    1.15    0.17
  -7  -3   4    0.98    0.18
  -7  -3   4    1.22    0.24
  -7  -3   4    1.05    0.19
  -7  -3   4    1.66    0.25
  -7  -3   4    1.49    0.24
   6   3  -4    0.13    0.12
   6   3  -4    0.25    0.11
   6   3  -4    0.36    0.15
   6   3  -4    0.51    0.14
   6   3  -4    0.35    0.14
  -6  -3   4   -0.02    0.13
  -6  -3   4    0.05    0.11
  -6  -3   4    0.00    0.14
  -6  -3   4    0.29    0.15
  -6  -3   4    0.39    0.15
  -6  -3   4   -0.04    0.12
  -6  -3   4    0.06    0.11
   5   3  -4    1.89    0.22
   5   3  -4    1.51    0.20
   5   3  -4    1.59    0.21
   5   3  -4    1.29    0.17
   5   3  -4    1.82    0.23
  -5  -3   4    1.72    0.20
  -5  -3   4    1.13    0.17
  -5  -3   4    1.12    0.20
  -5  -3   4    1.80    0.24
  -5  -3   4    1.56    0.20
  -5  -3   4    1.89    0.25
  -5  -3   4    1.73    0.25
   4   3  -4    0.04    0.09
   4   3  -4    0.14    0.10
   4   3  -4   -0.02    0.09
   4   3  -4    0.07    0.10
   4   3  -4    0.10    0.13
   4   3  -4    0.08    0.08
  -4  -3   4   -0.10    0.11
  -4  -3   4   -0.02    0.08
  -4  -3   4    0.02    0.07
  -4  -3   4    0.06    0.08
  -4  -3   4    0.03    0.11
  -4  -3   4    0.01    0.11
   3   3  -4   -0.03    0.09
   3   3  -4    0.08    0.10
   3   3  -4   -0.01    0.10
   3   3  -4    0.31    0.09
  -3  -3   4   -0.02    0.09
  -3  -3   4    0.07    0.11
  -3  -3   4    0.04    0.10
  -3  -3   4    0.16    0.09
  -3  -3   4    0.12    0.07
  -3  -3   4    0.10    0.07
   2   3  -4   98.96    2.44
   2   3  -4   99.72    2.36
   2   3  -4  103.30    2.43
   2   3  -4  102.63    2.43
  -2  -3   4  100.56    2.38
  -2  -3   4  104.68    2.39
  -2  -3   4  102.18    2.46
  -2  -3   4  103.75    2.46
  -2  -3   4  101.54    2.34
  -2  -3   4   98.28    2.43
   1   3  -4   50.24    1.28
   1   3  -4   50.74    1.24
   1   3  -4   50.19    1.29
   1   3  -4   48.99    1.23
   1   3  -4   49.75    1.29
  -1  -3   4   49.51    1.17
  -1  -3   4   49.12    1.27
  -1  -3   4   49.41    1.29
  -1  -3   4   49.18    1.29
  -1  -3   4   50.49    1.25
  -1  -3   4   49.38    1.23
   0   3  -4    9.45    0.38
   0   3  -4    9.47    0.35
   0   3  -4    9.14    0.35
   0   3  -4    9.27    0.37
   0   3  -4    9.44    0.34
   0  -3   4    9.06    0.38
   0  -3   4    9.18    0.35
   0  -3   4    8.90    0.37
  -1   3  -4    1.30    0.18
  -1   3  -4    1.51    0.15
  -1   3  -4    1.70    0.14
  -1   3  -4    1.37    0.18
   1  -3   4    1.59    0.14
   1  -3   4    1.34    0.18
   1  -3   4    1.60    0.12
   1  -3   4    1.17    0.16
   1  -3   4    1.80    0.16
  -2   3  -4    8.03    0.30
  -2   3  -4    8.32    0.30
  -2   3  -4    8.44    0.31
  -2   3  -4    7.86    0.34
  -2   3  -4    8.41    0.35
   2  -3   4    7.88    0.33
   2  -3   4    8.28    0.31
   2  -3   4    8.33    0.31
   2  -3   4    8.20    0.28
   2  -3   4    8.73    0.32
   2  -3   4    7.98    0.34
  -3   3  -4   35.26    0.95
  -3   3  -4   35.55    0.92
  -3   3  -4   36.62    0.95
  -3   3  -4   35.22    0.94
  -3   3  -4   35.92    0.91
   3  -3   4   34.81    0.93
   3  -3   4   34.90    0.93
   3  -3   4   34.88    0.93
   3  -3   4   38.35    1.00
   3  -3   4   36.31    0.97
   3  -3   4   34.21    0.92
  -4   3  -4    0.57    0.11
  -4   3  -4    0.77    0.13
  -4   3  -4    0.63    0.13
  -4   3  -4    0.55    0.15
  -4   3  -4    0.63    0.13
  -4   3  -4    0.67    0.10
  -4   3  -4    0.76    0.12
   4  -3   4    1.00    0.13
   4  -3   4    0.53    0.12
   4  -3   4    0.67    0.11
   4  -3   4    0.72    0.11
   4  -3   4    0.61    0.11
   4  -3   4    0.81    0.16
  -5   3  -4    0.01    0.08
  -5   3  -4   -0.11    0.08
  -5   3  -4    0.02    0.06
  -5   3  -4    0.05    0.08
  -5   3  -4    0.07    0.08
   5  -3   4    0.02    0.08
   5  -3   4    0.04    0.10
   5  -3   4   -0.04    0.06
  -6   3  -4    0.04    0.07
  -6   3  -4   -0.01    0.12
  -6   3  -4   -0.13    0.09
  -6   3  -4   -0.01    0.10
   6  -3   4   -0.04    0.11
   6  -3   4    0.03    0.09
  -7   3  -4    1.00    0.13
  -7   3  -4    1.26    0.22
  -7   3  -4    0.88    0.19
  -7   3  -4    1.17    0.23
   7  -3   4    0.80    0.18
   7  -3   4    1.10    0.20
  -8   3  -4    0.36    0.18
  -8   3  -4    0.50    0.19
   8  -3   4    0.50    0.26
   8  -3   4    0.41    0.17
  -9   3  -4   -0.01    0.16
  -9   3  -4    0.40    0.16
   9  -3   4    0.15    0.14
   9  -3   4    0.25    0.13
   8   2  -4    1.92    0.30
   8   2  -4    2.26    0.30
  -8  -2   4    2.39    0.32
  -8  -2   4    2.63    0.35
  -8  -2   4    2.06    0.33
   7   2  -4    0.30    0.13
   7   2  -4    0.12    0.21
   7   2  -4    0.12    0.10
  -7  -2   4    0.16    0.12
  -7  -2   4   -0.03    0.11
  -7  -2   4    0.21    0.14
  -7  -2   4    0.16    0.14
  -7  -2   4    0.28    0.13
  -7  -2   4    0.23    0.16
   6   2  -4    0.21    0.13
   6   2  -4    0.57    0.14
   6   2  -4    0.59    0.14
   6   2  -4    0.32    0.11
   6   2  -4    0.67    0.15
  -6  -2   4    0.43    0.12
  -6  -2   4    0.43    0.16
  -6  -2   4    0.61    0.15
  -6  -2   4    0.60    0.16
  -6  -2   4    0.17    0.17
  -6  -2   4    0.38    0.13
  -6  -2   4    0.40    0.13
   5   2  -4    9.99    0.41
   5   2  -4    8.98    0.39
   5   2  -4    9.57    0.44
   5   2  -4    9.78    0.49
   5   2  -4    9.95    0.49
  -5  -2   4    9.53    0.42
  -5  -2   4    9.80    0.52
  -5  -2   4    9.54    0.42
  -5  -2   4    9.11    0.42
  -5  -2   4    9.87    0.45
  -5  -2   4   10.00    0.42
  -5  -2   4   10.19    0.43
   4   2  -4    0.34    0.11
   4   2  -4    0.45    0.10
   4   2  -4    0.29    0.10
   4   2  -4    0.11    0.11
   4   2  -4    0.42    0.13
  -4  -2   4    0.26    0.13
  -4  -2   4    0.32    0.12
  -4  -2   4    0.29    0.10
  -4  -2   4    0.25    0.13
  -4  -2   4    0.15    0.10
  -4  -2   4    0.29    0.08
  -4  -2   4    0.37    0.10
   3   2  -4   13.80    0.53
   3   2  -4   14.94    0.51
   3   2  -4   14.09    0.45
   3   2  -4   14.00    0.50
   3   2  -4   13.99    0.49
  -3  -2   4   14.05    0.46
  -3  -2   4   13.89    0.52
  -3  -2   4   13.91    0.64
  -3  -2   4   14.04    0.43
  -3  -2   4   14.46    0.48
  -3  -2   4   13.48    0.49
  -3  -2   4   12.78    0.53
   2   2  -4    0.03    0.05
   2   2  -4    0.07    0.08
   2   2  -4    0.05    0.07
   2   2  -4    0.01    0.08
  -2  -2   4    0.00    0.05
  -2  -2   4    0.02    0.08
  -2  -2   4    0.09    0.08
  -2  -2   4    0.05    0.05
  -2  -2   4    0.08    0.09
  -2  -2   4   -0.08    0.06
   1   2  -4    0.89    0.12
   1   2  -4    1.09    0.13
   1   2  -4    1.11    0.16
   1   2  -4    0.99    0.14
   1   2  -4    1.00    0.13
  -1  -2   4    1.11    0.15
  -1  -2   4    1.03    0.16
  -1  -2   4    0.97    0.12
  -1  -2   4    1.14    0.16
   0   2  -4    5.76    0.27
   0   2  -4    5.91    0.28
   0   2  -4    6.19    0.25
   0   2  -4    5.68    0.25
   0  -2   4    5.92    0.27
   0  -2   4    5.90    0.28
   0  -2   4    5.91    0.26
  -1   2  -4  303.25    6.74
  -1   2  -4  309.94    6.82
  -1   2  -4  302.14    6.78
  -1   2  -4  302.37    6.81
  -1   2  -4  313.75    6.77
   1  -2   4  321.15    6.79
   1  -2   4  299.72    6.82
   1  -2   4  314.48    6.74
   1  -2   4  308.95    6.77
   1  -2   4  308.98    6.83
  -2   2  -4   34.54    0.89
  -2   2  -4   33.48    0.87
  -2   2  -4   34.10    0.87
  -2   2  -4   34.22    0.89
  -2   2  -4   33.99    0.84
   2  -2   4   34.56    0.89
   2  -2   4   32.96    0.88
   2  -2   4   34.07    0.87
   2  -2   4   33.95    0.85
  -3   2  -4    8.44    0.32
  -3   2  -4    8.53    0.35
  -3   2  -4    8.37    0.33
  -3   2  -4    8.69    0.32
  -3   2  -4    8.66    0.29
   3  -2   4    8.55    0.32
   3  -2   4    8.10    0.32
   3  -2   4    8.53    0.33
   3  -2   4    9.37    0.38
   3  -2   4    8.50    0.30
  -4   2  -4    0.25    0.09
  -4   2  -4    0.26    0.09
  -4   2  -4    0.30    0.11
  -4   2  -4    0.30    0.07
  -4   2  -4    0.31    0.09
  -4   2  -4    0.19    0.09
   4  -2   4    0.28    0.14
   4  -2   4    0.31    0.09
   4  -2   4    0.28    0.08
   4  -2   4    0.28    0.10
   4  -2   4    0.37    0.07
  -5   2  -4    1.39    0.22
  -5   2  -4    1.36    0.18
  -5   2  -4    0.99    0.15
  -5   2  -4    1.12    0.18
  -5   2  -4    1.06    0.17
  -5   2  -4    1.12    0.14
   5  -2   4    1.10    0.18
   5  -2   4    0.73    0.13
  -6   2  -4   -0.05    0.11
  -6   2  -4   -0.14    0.09
  -6   2  -4   -0.08    0.10
  -6   2  -4   -0.02    0.12
  -6   2  -4   -0.01    0.09
  -6   2  -4    0.10    0.07
   6  -2   4    0.01    0.09
   6  -2   4   -0.11    0.10
  -7   2  -4    2.24    0.31
  -7   2  -4    2.59    0.32
  -7   2  -4    3.16    0.37
   7  -2   4    2.83    0.35
   7  -2   4    2.71    0.36
  -8   2  -4    3.31    0.41
   8  -2   4    2.67    0.35
   8  -2   4    2.44    0.35
  -9   2  -4   -0.09    0.16
  -9   2  -4   -0.14    0.14
   9  -2   4    0.06    0.13
   9   1  -4    0.18    0.14
   9   1  -4   -0.06    0.14
  -9  -1   4    0.21    0.19
   8   1  -4   -0.13    0.12
   8   1  -4   -0.21    0.11
  -8  -1   4    0.05    0.19
  -8  -1   4   -0.16    0.25
  -8  -1   4    0.05    0.12
   7   1  -4    0.54    0.15
   7   1  -4    0.58    0.18
  -7  -1   4    0.75    0.16
  -7  -1   4    0.49    0.15
  -7  -1   4    0.64    0.19
  -7  -1   4    0.68    0.14
  -7  -1   4    0.57    0.15
   6   1  -4    7.79    0.46
   6   1  -4    7.30    0.43
   6   1  -4    7.56    0.43
  -6  -1   4    7.22    0.42
  -6  -1   4    7.14    0.37
  -6  -1   4    7.63    0.51
  -6  -1   4    7.65    0.37
  -6  -1   4    7.56    0.37
  -6  -1   4    6.77    0.34
  -6  -1   4    6.98    0.39
  -6  -1   4    7.71    0.47
   5   1  -4    0.61    0.11
   5   1  -4    0.85    0.13
   5   1  -4    0.93    0.14
   5   1  -4    0.67    0.16
   5   1  -4    0.72    0.14
   5   1  -4    0.53    0.13
  -5  -1   4    0.52    0.16
  -5  -1   4    0.57    0.13
  -5  -1   4    0.45    0.11
  -5  -1   4    0.73    0.11
  -5  -1   4    0.74    0.13
  -5  -1   4    0.83    0.15
   4   1  -4   21.23    0.69
   4   1  -4   20.47    0.62
   4   1  -4   20.61    0.70
   4   1  -4   21.11    0.59
   4   1  -4   20.57    0.62
  -4  -1   4   20.27    0.63
  -4  -1   4   20.75    0.71
  -4  -1   4   20.57    0.62
  -4  -1   4   20.15    0.67
  -4  -1   4   21.53    0.59
  -4  -1   4   21.20    0.71
   3   1  -4    0.70    0.12
   3   1  -4    1.04    0.14
   3   1  -4    0.97    0.14
   3   1  -4    0.58    0.11
   3   1  -4    0.81    0.12
  -3  -1   4    0.75    0.09
  -3  -1   4    0.82    0.11
  -3  -1   4    0.78    0.13
  -3  -1   4    0.63    0.10
  -3  -1   4    0.85    0.14
  -3  -1   4    0.97    0.15
   2   1  -4    4.39    0.24
   2   1  -4    4.36    0.18
   2   1  -4    4.50    0.24
   2   1  -4    4.38    0.21
   2   1  -4    4.25    0.23
  -2  -1   4    4.17    0.23
  -2  -1   4    4.36    0.22
  -2  -1   4    4.16    0.24
  -2  -1   4    4.58    0.24
   1   1  -4    2.21    0.18
   1   1  -4    2.29    0.17
   1   1  -4    2.28    0.17
   1   1  -4    2.16    0.14
  -1  -1   4    2.57    0.18
  -1  -1   4    2.13    0.18
  -1  -1   4    2.17    0.17
  -1  -1   4    2.19    0.15
   0   1  -4   62.04    1.51
   0   1  -4   64.12    1.55
   0   1  -4   65.47    1.55
   0   1  -4   67.71    1.51
   0  -1   4   65.64    1.50
   0  -1   4   63.96    1.55
   0  -1   4   61.83    1.54
   0  -1   4   66.71    1.53
  -1   1  -4    7.70    0.29
  -1   1  -4    7.51    0.30
  -1   1  -4    7.87    0.31
  -1   1  -4    7.32    0.25
  -1   1  -4    7.98    0.26
   1  -1   4    7.67    0.25
   1  -1   4    7.52    0.30
   1  -1   4    7.52    0.30
  -2   1  -4   29.50    0.79
  -2   1  -4   30.79    0.73
  -2   1  -4   29.60    0.79
  -2   1  -4   29.74    0.74
  -2   1  -4   30.57    0.79
   2  -1   4   30.66    0.81
   2  -1   4   28.77    0.79
   2  -1   4   29.15    0.79
   2  -1   4   30.13    0.73
  -3   1  -4   22.48    0.64
  -3   1  -4   21.61    0.67
  -3   1  -4   22.84    0.63
  -3   1  -4   22.45    0.64
   3  -1   4   23.94    0.67
   3  -1   4   22.38    0.63
   3  -1   4   22.69    0.70
   3  -1   4   22.25    0.63
   3  -1   4   22.80    0.58
  -4   1  -4    2.51    0.19
  -4   1  -4    2.60    0.23
  -4   1  -4    2.99    0.28
  -4   1  -4    2.49    0.20
  -4   1  -4    2.15    0.21
  -4   1  -4    2.33    0.22
  -4   1  -4    2.88    0.21
   4  -1   4    2.67    0.24
   4  -1   4    2.46    0.18
   4  -1   4    2.39    0.20
   4  -1   4    2.93    0.23
   4  -1   4    2.91    0.18
  -5   1  -4    0.10    0.10
  -5   1  -4    0.08    0.08
  -5   1  -4    0.17    0.09
  -5   1  -4    0.04    0.08
  -5   1  -4    0.09    0.09
  -5   1  -4    0.15    0.10
  -5   1  -4    0.06    0.09
   5  -1   4    0.01    0.09
   5  -1   4    0.02    0.07
   5  -1   4    0.01    0.08
  -6   1  -4    0.68    0.15
  -6   1  -4    0.67    0.21
  -6   1  -4    0.46    0.14
  -6   1  -4    0.68    0.22
  -6   1  -4    0.68    0.15
   6  -1   4    0.65    0.14
   6  -1   4    0.53    0.16
   6  -1   4    0.59    0.16
  -7   1  -4    0.67    0.19
  -7   1  -4    1.02    0.21
   7  -1   4    1.26    0.22
   7  -1   4    0.93    0.19
   7  -1   4    0.95    0.22
  -8   1  -4    0.74    0.27
   8  -1   4    0.80    0.17
   8  -1   4    0.89    0.19
  -9   1  -4   -0.22    0.14
  -9   1  -4    0.03    0.16
   9  -1   4    0.11    0.16
   9   0  -4    0.00    0.15
   9   0  -4   -0.09    0.12
  -9   0   4   -0.22    0.15
  -9   0   4   -0.12    0.15
   8   0  -4    0.82    0.20
   8   0  -4    0.66    0.18
  -8   0   4    0.46    0.17
  -8   0   4    0.65    0.15
  -8   0   4    0.54    0.23
   7   0  -4    1.49    0.25
   7   0  -4    1.44    0.24
  -7   0   4    1.39    0.25
  -7   0   4    1.48    0.25
  -7   0   4    1.53    0.23
  -7   0   4    1.64    0.22
   6   0  -4    1.29    0.19
   6   0  -4    1.81    0.25
  -6   0   4    2.18    0.25
  -6   0   4    2.18    0.29
  -6   0   4    2.08    0.21
  -6   0   4    1.44    0.22
  -6   0   4    1.62    0.19
  -6   0   4    1.63    0.20
  -6   0   4    1.54    0.20
   5   0  -4    0.13    0.08
   5   0  -4   -0.04    0.09
   5   0  -4    0.13    0.08
   5   0  -4    0.06    0.10
   5   0  -4    0.18    0.10
  -5   0   4    0.11    0.09
  -5   0   4    0.11    0.09
  -5   0   4    0.05    0.10
  -5   0   4    0.07    0.08
  -5   0   4   -0.01    0.09
  -5   0   4    0.13    0.12
   4   0  -4   58.58    1.67
   4   0  -4   54.64    1.54
   4   0  -4   56.02    1.36
   4   0  -4   56.80    1.37
   4   0  -4   55.37    1.36
  -4   0   4   52.58    1.36
  -4   0   4   56.22    1.45
  -4   0   4   56.78    1.44
  -4   0   4   56.21    1.38
  -4   0   4   53.98    1.37
   3   0  -4   13.93    0.47
   3   0  -4   14.44    0.42
   3   0  -4   14.03    0.48
   3   0  -4   14.01    0.45
   3   0  -4   13.85    0.45
  -3   0   4   13.46    0.48
  -3   0   4   14.16    0.46
  -3   0   4   14.10    0.45
  -3   0   4   14.01    0.41
   2   0  -4    0.02    0.06
   2   0  -4   -0.04    0.07
   2   0  -4    0.01    0.05
   2   0  -4    0.07    0.05
   2   0  -4   -0.02    0.07
  -2   0   4   -0.01    0.07
  -2   0   4    0.01    0.06
  -2   0   4   -0.06    0.07
   1   0  -4    0.37    0.05
   1   0  -4    0.47    0.10
   1   0  -4    0.48    0.10
   1   0  -4    0.28    0.07
  -1   0   4    0.33    0.09
  -1   0   4    0.43    0.09
  -1   0   4    0.39    0.10
   0   0  -4    7.17    0.29
   0   0  -4    6.74    0.28
   0   0   4    7.12    0.27
   0   0   4    6.93    0.29
   0   0   4    6.77    0.28
  -1   0  -4  126.13    2.85
  -1   0  -4  124.55    2.85
  -1   0  -4  125.30    2.84
   1   0   4  126.93    2.86
   1   0   4  128.50    2.77
   1   0   4  118.42    2.84
  -2   0  -4    4.00    0.24
  -2   0  -4    4.10    0.28
  -2   0  -4    4.22    0.24
   2   0   4    3.92    0.23
   2   0   4    4.33    0.23
   2   0   4    4.28    0.19
   2   0   4    4.74    0.24
  -3   0  -4   12.97    0.45
  -3   0  -4   13.00    0.44
  -3   0  -4   12.90    0.51
  -3   0  -4   12.72    0.44
   3   0   4   13.72    0.46
   3   0   4   12.91    0.43
   3   0   4   12.87    0.43
   3   0   4   12.79    0.43
   3   0   4   13.44    0.48
  -4   0  -4    1.95    0.24
  -4   0  -4    2.34    0.23
  -4   0  -4    2.10    0.21
  -4   0  -4    2.10    0.26
  -4   0  -4    2.06    0.19
  -4   0  -4    2.14    0.21
   4   0   4    1.94    0.21
   4   0   4    2.13    0.23
   4   0   4    2.14    0.20
   4   0   4    2.15    0.21
   4   0   4    2.06    0.18
  -5   0  -4   18.15    0.58
  -5   0  -4   17.64    0.57
  -5   0  -4   19.46    0.72
  -5   0  -4   17.79    0.67
  -5   0  -4   17.89    0.65
  -5   0  -4   17.10    0.66
   5   0   4   19.47    0.71
   5   0   4   18.63    0.65
   5   0   4   19.14    0.69
   5   0   4   17.53    0.54
  -6   0  -4    0.54    0.14
  -6   0  -4    0.41    0.12
  -6   0  -4    0.24    0.14
  -6   0  -4    0.19    0.14
   6   0   4    0.31    0.12
   6   0   4    0.14    0.11
   6   0   4    0.27    0.13
  -7   0  -4    0.36    0.16
  -7   0  -4    0.23    0.15
   7   0   4    0.31    0.14
   7   0   4    0.33    0.14
  -8   0  -4    0.07    0.17
   8   0   4    0.04    0.12
   8   0   4    0.07    0.19
   9  -1  -4    0.04    0.14
   9  -1  -4    0.01    0.15
  -9   1   4   -0.02    0.15
   8  -1  -4   -0.13    0.11
   8  -1  -4   -0.36    0.19
  -8   1   4   -0.12    0.13
  -8   1   4   -0.08    0.12
   7  -1  -4    0.02    0.11
   7  -1  -4    0.04    0.11
  -7   1   4   -0.09    0.11
  -7   1   4    0.06    0.13
  -7   1   4   -0.02    0.12
  -7   1   4    0.05    0.12
   6  -1  -4    1.09    0.18
   6  -1  -4    1.19    0.17
   6  -1  -4    0.89    0.18
  -6   1   4    0.84    0.14
  -6   1   4    1.12    0.18
  -6   1   4    1.24    0.17
  -6   1   4    1.10    0.18
  -6   1   4    0.96    0.16
   5  -1  -4    9.06    0.41
   5  -1  -4    9.40    0.43
   5  -1  -4    9.57    0.44
   5  -1  -4    9.08    0.43
  -5   1   4    9.29    0.42
  -5   1   4    9.28    0.39
  -5   1   4    9.64    0.44
  -5   1   4   10.09    0.45
  -5   1   4    9.36    0.36
  -5   1   4    9.20    0.35
  -5   1   4    9.63    0.50
   4  -1  -4   89.36    2.09
   4  -1  -4   87.87    2.05
   4  -1  -4   88.23    2.12
   4  -1  -4   88.38    2.05
   4  -1  -4   89.23    2.15
  -4   1   4   90.60    2.11
  -4   1   4   88.63    2.15
  -4   1   4   90.80    2.17
  -4   1   4   84.63    2.05
  -4   1   4   88.71    2.07
  -4   1   4   84.23    2.19
   3  -1  -4    3.01    0.19
   3  -1  -4    3.03    0.20
   3  -1  -4    2.87    0.19
   3  -1  -4    2.86    0.20
   3  -1  -4    2.65    0.19
  -3   1   4    2.91    0.20
  -3   1   4    3.06    0.20
  -3   1   4    2.73    0.20
  -3   1   4    2.94    0.20
   2  -1  -4   64.47    1.53
   2  -1  -4   63.74    1.49
   2  -1  -4   62.14    1.52
   2  -1  -4   64.56    1.51
  -2   1   4   62.93    1.50
  -2   1   4   62.67    1.49
  -2   1   4   64.80    1.53
  -2   1   4   62.66    1.52
   1  -1  -4   13.97    0.42
   1  -1  -4   13.61    0.45
   1  -1  -4   13.90    0.38
  -1   1   4   13.56    0.44
  -1   1   4   14.30    0.43
  -1   1   4   13.94    0.37
  -1   1   4   14.20    0.45
   0  -1  -4   38.22    0.97
   0  -1  -4   38.05    0.94
   0  -1  -4   37.46    0.97
   0  -1  -4   37.36    0.94
   0   1   4   37.10    0.97
   0   1   4   36.32    0.96
  -1  -1  -4    0.74    0.12
  -1  -1  -4    0.71    0.10
  -1  -1  -4    0.80    0.13
   1   1   4    0.79    0.12
   1   1   4    0.81    0.11
   1   1   4    0.83    0.13
  -2  -1  -4    1.48    0.18
  -2  -1  -4    1.18    0.14
  -2  -1  -4    1.60    0.20
  -2  -1  -4    1.15    0.18
   2   1   4    1.45    0.16
   2   1   4    1.38    0.12
   2   1   4    1.40    0.16
   2   1   4    1.18    0.16
  -3  -1  -4    0.70    0.14
  -3  -1  -4    0.54    0.10
  -3  -1  -4    0.48    0.11
  -3  -1  -4    0.61    0.12
   3   1   4    0.61    0.10
   3   1   4    0.80    0.13
   3   1   4    0.71    0.12
   3   1   4    0.73    0.13
  -4  -1  -4   16.14    0.58
  -4  -1  -4   15.87    0.56
  -4  -1  -4   17.23    0.65
  -4  -1  -4   16.88    0.56
  -4  -1  -4   16.20    0.55
   4   1   4   16.59    0.57
   4   1   4   16.04    0.53
   4   1   4   16.71    0.61
   4   1   4   15.59    0.53
   4   1   4   16.16    0.60
  -5  -1  -4    0.88    0.17
  -5  -1  -4    1.22    0.19
  -5  -1  -4    1.22    0.18
  -5  -1  -4    0.91    0.16
  -5  -1  -4    1.34    0.19
  -5  -1  -4    1.28    0.17
   5   1   4    1.54    0.17
   5   1   4    0.76    0.14
   5   1   4    1.18    0.16
   5   1   4    1.05    0.18
  -6  -1  -4    0.64    0.18
  -6  -1  -4    0.75    0.16
  -6  -1  -4    0.56    0.15
  -6  -1  -4    1.02    0.17
  -6  -1  -4    1.05    0.17
   6   1   4    0.63    0.16
   6   1   4    0.72    0.18
  -7  -1  -4    2.69    0.25
  -7  -1  -4    2.72    0.39
  -7  -1  -4    2.12    0.28
  -7  -1  -4    2.28    0.25
   7   1   4    2.80    0.34
   7   1   4    2.37    0.32
  -8  -1  -4    0.21    0.19
  -8  -1  -4   -0.09    0.15
   8   1   4    0.24    0.13
   8   1   4    0.06    0.12
   9  -2  -4   -0.24    0.12
   9  -2  -4   -0.03    0.16
  -9   2   4   -0.09    0.13
   8  -2  -4    0.04    0.12
   8  -2  -4   -0.12    0.13
  -8   2   4   -0.12    0.11
  -8   2   4    0.00    0.11
   7  -2  -4    2.92    0.32
   7  -2  -4    2.39    0.29
   7  -2  -4    2.97    0.32
  -7   2   4    2.85    0.28
  -7   2   4    3.21    0.31
  -7   2   4    2.10    0.29
  -7   2   4    2.76    0.39
   6  -2  -4    4.08    0.33
   6  -2  -4    4.13    0.33
   6  -2  -4    4.18    0.31
  -6   2   4    3.93    0.32
  -6   2   4    4.27    0.30
  -6   2   4    4.16    0.32
  -6   2   4    4.16    0.32
   5  -2  -4    0.95    0.17
   5  -2  -4    0.86    0.15
   5  -2  -4    0.87    0.17
   5  -2  -4    0.98    0.14
  -5   2   4    1.21    0.15
  -5   2   4    0.94    0.15
  -5   2   4    1.04    0.15
  -5   2   4    1.35    0.20
  -5   2   4    0.78    0.14
  -5   2   4    1.20    0.15
   4  -2  -4   45.77    1.16
   4  -2  -4   45.83    1.17
   4  -2  -4   47.55    1.37
   4  -2  -4   48.29    1.22
   4  -2  -4   46.20    1.20
   4  -2  -4   48.27    1.25
  -4   2   4   47.90    1.19
  -4   2   4   46.86    1.42
  -4   2   4   46.36    1.18
  -4   2   4   47.36    1.23
  -4   2   4   47.49    1.19
   3  -2  -4    9.50    0.36
   3  -2  -4    9.87    0.36
   3  -2  -4    9.47    0.36
   3  -2  -4   10.23    0.39
   3  -2  -4    9.70    0.35
  -3   2   4   10.22    0.38
  -3   2   4    9.96    0.35
  -3   2   4   10.10    0.35
  -3   2   4   10.28    0.37
  -3   2   4    9.73    0.36
   2  -2  -4   12.13    0.43
   2  -2  -4   12.60    0.39
   2  -2  -4   12.50    0.43
  -2   2   4   12.92    0.40
  -2   2   4   13.22    0.45
  -2   2   4   13.51    0.40
  -2   2   4   12.92    0.44
   1  -2  -4   51.05    1.29
   1  -2  -4   52.69    1.25
   1  -2  -4   52.43    1.22
   1  -2  -4   50.73    1.29
  -1   2   4   53.41    1.31
  -1   2   4   50.84    1.29
  -1   2   4   51.38    1.23
   0  -2  -4    6.22    0.30
   0  -2  -4    6.48    0.30
   0  -2  -4    6.67    0.28
   0   2   4    6.79    0.29
   0   2   4    6.50    0.30
   0   2   4    6.77    0.31
  -1  -2  -4   19.47    0.60
  -1  -2  -4   18.45    0.50
  -1  -2  -4   18.09    0.59
  -1  -2  -4   19.05    0.60
   1   2   4   18.77    0.51
   1   2   4   18.30    0.59
   1   2   4   18.93    0.60
  -2  -2  -4    5.58    0.33
  -2  -2  -4    4.98    0.29
  -2  -2  -4    4.84    0.24
  -2  -2  -4    5.13    0.29
   2   2   4    5.25    0.31
   2   2   4    5.17    0.29
   2   2   4    5.09    0.25
   2   2   4    4.87    0.28
  -3  -2  -4   14.39    0.54
  -3  -2  -4   14.57    0.60
  -3  -2  -4   15.21    0.59
  -3  -2  -4   14.28    0.52
   3   2   4   13.88    0.57
   3   2   4   14.54    0.52
   3   2   4   15.28    0.50
   3   2   4   14.33    0.52
  -4  -2  -4    0.98    0.17
  -4  -2  -4    0.80    0.16
  -4  -2  -4    0.89    0.14
  -4  -2  -4    0.56    0.14
  -4  -2  -4    0.75    0.14
   4   2   4    0.82    0.15
   4   2   4    0.83    0.14
   4   2   4    0.68    0.12
   4   2   4    1.04    0.16
  -5  -2  -4    1.14    0.19
  -5  -2  -4    0.86    0.18
  -5  -2  -4    1.13    0.17
  -5  -2  -4    1.02    0.18
  -5  -2  -4    1.16    0.19
   5   2   4    1.58    0.20
   5   2   4    0.95    0.17
   5   2   4    1.41    0.19
   5   2   4    1.23    0.18
  -6  -2  -4    2.13    0.28
  -6  -2  -4    2.05    0.29
  -6  -2  -4    1.95    0.26
   6   2   4    1.87    0.21
   6   2   4    2.04    0.24
   6   2   4    2.15    0.30
  -7  -2  -4   -0.20    0.11
  -7  -2  -4   -0.22    0.14
  -7  -2  -4   -0.23    0.13
   7   2   4   -0.08    0.09
   7   2   4   -0.05    0.13
  -8  -2  -4   -0.08    0.17
  -8  -2  -4   -0.24    0.15
   8   2   4    0.03    0.13
   8   2   4    0.08    0.15
  10  -3  -4    0.13    0.16
 -10   3   4   -0.13    0.12
 -10   3   4   -0.09    0.14
   9  -3  -4   -0.02    0.15
  -9   3   4   -0.22    0.11
  -9   3   4   -0.22    0.12
   8  -3  -4    0.04    0.12
   8  -3  -4    0.16    0.13
  -8   3   4    0.24    0.14
   7  -3  -4    0.63    0.15
   7  -3  -4    0.52    0.15
  -7   3   4    0.48    0.16
  -7   3   4    0.90    0.16
  -7   3   4    0.94    0.20
   6  -3  -4    9.63    0.48
   6  -3  -4    8.70    0.48
  -6   3   4    9.31    0.48
  -6   3   4    9.57    0.42
  -6   3   4    8.84    0.46
  -6   3   4    9.31    0.47
   5  -3  -4    9.60    0.49
   5  -3  -4   11.38    0.49
   5  -3  -4   10.50    0.41
   5  -3  -4   10.51    0.37
   5  -3  -4   11.48    0.47
  -5   3   4   10.57    0.39
  -5   3   4   10.47    0.44
  -5   3   4   10.45    0.39
  -5   3   4   10.54    0.47
  -5   3   4    9.88    0.46
  -5   3   4   10.41    0.53
   4  -3  -4   33.07    0.91
   4  -3  -4   32.38    0.87
   4  -3  -4   33.81    0.98
   4  -3  -4   30.56    0.84
   4  -3  -4   30.52    0.92
  -4   3   4   31.67    0.88
  -4   3   4   31.88    0.87
  -4   3   4   32.57    0.93
  -4   3   4   33.14    0.89
  -4   3   4   31.88    0.84
   3  -3  -4   14.20    0.49
   3  -3  -4   13.91    0.43
   3  -3  -4   14.51    0.49
   3  -3  -4   14.80    0.50
  -3   3   4   14.46    0.43
  -3   3   4   14.18    0.49
  -3   3   4   14.39    0.44
  -3   3   4   14.09    0.48
  -3   3   4   15.06    0.50
   2  -3  -4    8.91    0.37
   2  -3  -4    9.23    0.32
   2  -3  -4    9.25    0.30
   2  -3  -4    9.16    0.38
  -2   3   4    9.53    0.38
  -2   3   4    8.99    0.30
  -2   3   4    9.40    0.37
   1  -3  -4   27.24    0.80
   1  -3  -4   27.25    0.79
   1  -3  -4   27.04    0.72
   1  -3  -4   27.23    0.72
  -1   3   4   27.44    0.80
  -1   3   4   27.44    0.73
  -1   3   4   26.82    0.79
   0  -3  -4   49.95    1.33
   0  -3  -4   53.47    1.30
   0  -3  -4   50.88    1.34
   0   3   4   51.83    1.25
   0   3   4   51.43    1.30
   0   3   4   51.98    1.34
   0   3   4   50.11    1.33
  -1  -3  -4    1.10    0.18
  -1  -3  -4    0.94    0.11
  -1  -3  -4    0.63    0.14
  -1  -3  -4    0.73    0.12
   1   3   4    1.06    0.11
   1   3   4    0.76    0.14
   1   3   4    0.96    0.16
   1   3   4    0.68    0.15
  -2  -3  -4    0.49    0.14
  -2  -3  -4    0.24    0.12
  -2  -3  -4    0.31    0.08
  -2  -3  -4    0.42    0.11
   2   3   4    0.48    0.13
   2   3   4    0.55    0.13
   2   3   4    0.31    0.10
  -3  -3  -4    3.45    0.29
  -3  -3  -4    3.45    0.22
  -3  -3  -4    3.44    0.29
  -3  -3  -4    3.66    0.25
  -3  -3  -4    3.95    0.33
   3   3   4    3.78    0.29
   3   3   4    3.60    0.27
   3   3   4    3.57    0.27
   3   3   4    3.47    0.30
  -4  -3  -4    0.99    0.16
  -4  -3  -4    1.26    0.19
  -4  -3  -4    1.29    0.21
  -4  -3  -4    1.03    0.18
  -4  -3  -4    0.89    0.19
   4   3   4    0.99    0.15
   4   3   4    1.45    0.21
   4   3   4    0.75    0.16
   4   3   4    0.90    0.14
   4   3   4    1.21    0.19
  -5  -3  -4    3.91    0.34
  -5  -3  -4    4.24    0.40
  -5  -3  -4    4.31    0.30
  -5  -3  -4    4.05    0.34
  -5  -3  -4    4.49    0.35
   5   3   4    4.15    0.48
   5   3   4    4.16    0.30
   5   3   4    4.70    0.35
   5   3   4    4.27    0.35
  -6  -3  -4    0.19    0.13
  -6  -3  -4   -0.15    0.15
  -6  -3  -4    0.14    0.13
   6   3   4    0.25    0.14
   6   3   4    0.24    0.11
   6   3   4   -0.05    0.16
   6   3   4   -0.04    0.12
  -7  -3  -4    0.07    0.18
  -7  -3  -4   -0.04    0.17
  -7  -3  -4   -0.01    0.13
  -7  -3  -4    0.12    0.17
  -7  -3  -4    0.19    0.17
   7   3   4    0.01    0.14
   7   3   4   -0.02    0.11
  10  -4  -4    0.24    0.18
 -10   4   4    0.00    0.12
   9  -4  -4   -0.24    0.13
   9  -4  -4    0.07    0.14
  -9   4   4    0.13    0.17
  -9   4   4    0.13    0.13
   8  -4  -4   -0.20    0.12
   8  -4  -4    0.11    0.15
  -8   4   4    0.12    0.13
  -8   4   4    0.14    0.13
  -8   4   4    0.08    0.12
   7  -4  -4   -0.01    0.12
   7  -4  -4    0.18    0.14
  -7   4   4    0.16    0.10
  -7   4   4    0.12    0.13
  -7   4   4   -0.05    0.10
  -7   4   4    0.22    0.13
  -7   4   4    0.12    0.12
   6  -4  -4   68.90    1.78
   6  -4  -4   66.59    1.80
  -6   4   4   64.27    1.78
  -6   4   4   69.59    1.82
  -6   4   4   64.92    1.62
  -6   4   4   64.26    1.78
  -6   4   4   64.50    1.73
  -6   4   4   68.59    1.64
   5  -4  -4    2.04    0.20
   5  -4  -4    1.87    0.23
   5  -4  -4    1.75    0.18
   5  -4  -4    1.91    0.25
   5  -4  -4    1.99    0.19
  -5   4   4    1.96    0.20
  -5   4   4    1.73    0.22
  -5   4   4    1.39    0.24
   4  -4  -4    2.07    0.23
   4  -4  -4    2.15    0.21
   4  -4  -4    1.83    0.16
   4  -4  -4    2.32    0.22
   4  -4  -4    2.28    0.23
  -4   4   4    2.00    0.21
  -4   4   4    1.97    0.16
  -4   4   4    2.35    0.21
   3  -4  -4    1.57    0.19
   3  -4  -4    1.62    0.20
   3  -4  -4    1.49    0.14
   3  -4  -4    1.41    0.21
   3  -4  -4    1.48    0.16
  -3   4   4    1.14    0.19
  -3   4   4    1.53    0.15
  -3   4   4    1.40    0.20
   2  -4  -4   17.75    0.52
   2  -4  -4   16.40    0.58
   2  -4  -4   17.46    0.51
   2  -4  -4   17.92    0.61
   2  -4  -4   17.77    0.53
  -2   4   4   17.55    0.53
  -2   4   4   18.09    0.60
  -2   4   4   16.70    0.59
  -2   4   4   17.79    0.62
   1  -4  -4    0.03    0.08
   1  -4  -4    0.02    0.11
   1  -4  -4   -0.04    0.11
  -1   4   4    0.02    0.07
  -1   4   4    0.06    0.11
  -1   4   4    0.03    0.10
  -1   4   4    0.13    0.07
   0  -4  -4    8.76    0.49
   0  -4  -4    9.16    0.54
   0  -4  -4    9.03    0.39
   0   4   4    9.64    0.42
   0   4   4    8.43    0.40
   0   4   4    7.92    0.54
   0   4   4    9.06    0.34
  -1  -4  -4    5.39    0.35
  -1  -4  -4    5.80    0.35
  -1  -4  -4    5.34    0.24
   1   4   4    5.01    0.32
   1   4   4    5.80    0.34
   1   4   4    5.67    0.33
   1   4   4    5.91    0.23
  -2  -4  -4    0.13    0.12
  -2  -4  -4    0.37    0.09
  -2  -4  -4    0.35    0.12
   2   4   4    0.16    0.10
   2   4   4    0.17    0.13
   2   4   4    0.25    0.13
  -3  -4  -4    4.46    0.36
  -3  -4  -4    4.61    0.29
  -3  -4  -4    4.82    0.38
   3   4   4    4.35    0.36
   3   4   4    4.71    0.32
   3   4   4    4.12    0.31
  -4  -4  -4    0.98    0.19
  -4  -4  -4    0.92    0.17
  -4  -4  -4    1.40    0.34
  -4  -4  -4    1.12    0.22
   4   4   4    1.29    0.21
   4   4   4    1.69    0.23
   4   4   4    1.71    0.23
   4   4   4    1.40    0.24
  -5  -4  -4    0.60    0.30
  -5  -4  -4    0.30    0.15
  -5  -4  -4    0.32    0.18
  -5  -4  -4    0.48    0.19
  -5  -4  -4    0.26    0.13
   5   4   4    0.30    0.12
   5   4   4    0.32    0.14
   5   4   4    0.47    0.15
  -6  -4  -4   -0.36    0.18
  -6  -4  -4    0.04    0.15
  -6  -4  -4    0.38    0.19
  -6  -4  -4   -0.02    0.14
  -6  -4  -4   -0.08    0.16
   6   4   4    0.06    0.12
   6   4   4    0.21    0.13
   6   4   4    0.19    0.14
  -7  -4  -4    0.25    0.21
  -7  -4  -4    0.37    0.20
  -7  -4  -4    0.07    0.22
  -7  -4  -4    0.37    0.18
  -7  -4  -4    0.16    0.21
   7   4   4    0.10    0.16
   7   4   4    0.36    0.16
   7   4   4    0.06    0.13
  10  -5  -4    0.02    0.16
  10  -5  -4   -0.18    0.14
 -10   5   4   -0.03    0.14
   9  -5  -4    0.62    0.23
   9  -5  -4    0.23    0.16
  -9   5   4    0.74    0.20
   8  -5  -4    8.86    0.53
   8  -5  -4    8.33    0.77
  -8   5   4    7.99    0.49
  -8   5   4    8.32    0.54
   7  -5  -4    2.87    0.33
   7  -5  -4    2.85    0.34
  -7   5   4    2.57    0.26
  -7   5   4    3.38    0.37
  -7   5   4    2.58    0.33
  -7   5   4    2.26    0.29
   6  -5  -4    8.05    0.45
   6  -5  -4    7.64    0.35
   6  -5  -4    7.63    0.45
  -6   5   4    7.33    0.38
  -6   5   4    7.12    0.44
  -6   5   4    6.96    0.47
  -6   5   4    7.46    0.43
  -6   5   4    8.16    0.39
  -6   5   4    7.62    0.36
   5  -5  -4    0.32    0.13
   5  -5  -4    0.27    0.13
   5  -5  -4    0.41    0.12
   5  -5  -4    0.26    0.11
  -5   5   4    0.30    0.12
  -5   5   4    0.23    0.12
  -5   5   4    0.27    0.12
  -5   5   4    0.27    0.14
  -5   5   4    0.22    0.09
   4  -5  -4    1.22    0.18
   4  -5  -4    1.11    0.17
   4  -5  -4    1.21    0.17
  -4   5   4    1.08    0.18
  -4   5   4    1.48    0.20
  -4   5   4    1.27    0.16
  -4   5   4    1.26    0.17
  -4   5   4    1.25    0.19
   3  -5  -4    0.06    0.09
   3  -5  -4    0.12    0.09
   3  -5  -4    0.17    0.13
   3  -5  -4    0.24    0.11
  -3   5   4    0.11    0.11
  -3   5   4    0.25    0.12
  -3   5   4    0.09    0.07
  -3   5   4    0.05    0.09
   2  -5  -4   28.87    0.78
   2  -5  -4   29.57    0.82
   2  -5  -4   28.24    0.76
   2  -5  -4   28.79    0.89
   2  -5  -4   27.82    0.88
  -2   5   4   28.84    0.82
  -2   5   4   29.48    0.91
  -2   5   4   29.06    0.90
  -2   5   4   29.73    0.98
   1  -5  -4    6.65    0.60
   1  -5  -4    6.35    0.37
   1  -5  -4    6.54    0.35
  -1   5   4    6.52    0.38
  -1   5   4    6.87    0.33
  -1   5   4    6.11    0.33
  -1   5   4    6.46    0.36
   0  -5  -4   16.41    0.59
   0  -5  -4   15.95    0.63
   0  -5  -4   16.07    0.63
   0   5   4   16.73    0.63
   0   5   4   15.48    0.59
   0   5   4   15.76    0.62
   0   5   4   16.04    0.51
  -1  -5  -4    0.01    0.06
  -1  -5  -4    0.10    0.13
  -1  -5  -4    0.01    0.10
  -1  -5  -4    0.02    0.12
   1   5   4   -0.05    0.08
   1   5   4   -0.04    0.10
   1   5   4    0.08    0.06
   1   5   4    0.20    0.12
  -2  -5  -4    0.38    0.16
  -2  -5  -4    0.25    0.18
  -2  -5  -4    0.29    0.13
  -2  -5  -4    0.31    0.10
   2   5   4    0.25    0.15
   2   5   4    0.20    0.11
   2   5   4    0.33    0.16
  -3  -5  -4    0.06    0.10
  -3  -5  -4    0.04    0.12
  -3  -5  -4    0.26    0.18
  -3  -5  -4    0.06    0.19
   3   5   4    0.01    0.14
   3   5   4    0.25    0.10
   3   5   4    0.33    0.15
  -4  -5  -4   -0.07    0.12
  -4  -5  -4   -0.15    0.17
  -4  -5  -4   -0.05    0.15
  -4  -5  -4   -0.08    0.12
   4   5   4    0.06    0.09
   4   5   4    0.06    0.10
  -5  -5  -4    0.42    0.19
  -5  -5  -4    0.20    0.16
  -5  -5  -4    0.34    0.21
  -5  -5  -4    0.00    0.15
   5   5   4    0.13    0.14
   5   5   4    0.34    0.14
   5   5   4    0.17    0.17
  -6  -5  -4   -0.29    0.16
  -6  -5  -4    0.01    0.18
  -6  -5  -4    0.13    0.19
  -6  -5  -4   -0.43    0.23
   6   5   4    0.21    0.15
   6   5   4    0.37    0.17
   6   5   4   -0.04    0.10
   9  -6  -4    0.15    0.15
   9  -6  -4    0.30    0.17
  -9   6   4    0.35    0.17
   8  -6  -4    0.26    0.24
   8  -6  -4   -0.07    0.15
  -8   6   4    0.05    0.20
  -8   6   4    0.01    0.12
   7  -6  -4    0.14    0.14
   7  -6  -4    0.28    0.14
  -7   6   4    0.16    0.12
  -7   6   4   -0.08    0.10
  -7   6   4    0.23    0.14
  -7   6   4    0.07    0.14
   6  -6  -4   -0.19    0.11
   6  -6  -4    0.15    0.12
   6  -6  -4    0.07    0.13
   6  -6  -4    0.05    0.12
  -6   6   4    0.06    0.11
  -6   6   4    0.09    0.14
  -6   6   4    0.14    0.13
  -6   6   4   -0.16    0.09
  -6   6   4    0.14    0.14
   5  -6  -4    0.01    0.12
   5  -6  -4    0.02    0.12
   5  -6  -4   -0.05    0.11
   5  -6  -4    0.10    0.10
  -5   6   4   -0.05    0.10
  -5   6   4   -0.03    0.11
  -5   6   4    0.04    0.09
  -5   6   4    0.03    0.08
  -5   6   4    0.05    0.12
   4  -6  -4    1.24    0.20
   4  -6  -4    1.05    0.17
   4  -6  -4    1.24    0.20
  -4   6   4    1.50    0.19
  -4   6   4    1.23    0.21
  -4   6   4    1.29    0.21
  -4   6   4    1.50    0.22
   3  -6  -4    0.67    0.12
   3  -6  -4    0.82    0.18
   3  -6  -4    0.73    0.13
   3  -6  -4    0.65    0.16
  -3   6   4    0.84    0.22
  -3   6   4    0.83    0.17
  -3   6   4    0.94    0.20
  -3   6   4    0.37    0.18
   2  -6  -4    0.26    0.09
   2  -6  -4    0.04    0.11
   2  -6  -4    0.20    0.15
   2  -6  -4    0.26    0.11
  -2   6   4    0.32    0.11
  -2   6   4    0.34    0.15
  -2   6   4    0.36    0.13
  -2   6   4    0.33    0.11
   1  -6  -4    4.80    0.37
   1  -6  -4    5.39    0.35
   1  -6  -4    5.17    0.38
  -1   6   4    4.37    0.33
  -1   6   4    5.02    0.33
  -1   6   4    4.94    0.29
  -1   6   4    4.52    0.35
   0  -6  -4    8.69    0.46
   0  -6  -4    8.25    0.51
   0  -6  -4    8.21    0.48
   0   6   4    8.82    0.49
   0   6   4    9.46    0.45
   0   6   4    9.34    0.39
   0   6   4    8.30    0.47
  -1  -6  -4    0.21    0.08
  -1  -6  -4   -0.22    0.16
  -1  -6  -4    0.17    0.13
  -1  -6  -4    0.01    0.18
   1   6   4    0.08    0.14
   1   6   4   -0.08    0.13
   1   6   4    0.08    0.10
   1   6   4    0.08    0.07
  -2  -6  -4    0.04    0.13
  -2  -6  -4    0.09    0.09
  -2  -6  -4   -0.24    0.15
  -2  -6  -4   -0.17    0.16
   2   6   4   -0.09    0.14
   2   6   4   -0.07    0.11
   2   6   4    0.03    0.05
  -3  -6  -4    0.67    0.20
  -3  -6  -4    0.32    0.16
  -3  -6  -4    0.25    0.17
  -3  -6  -4    0.15    0.12
   3   6   4    0.44    0.17
   3   6   4    0.43    0.12
  -4  -6  -4    0.24    0.15
  -4  -6  -4    0.46    0.23
  -4  -6  -4    0.83    0.23
  -4  -6  -4    0.13    0.15
   4   6   4    0.46    0.14
   4   6   4    0.59    0.18
   4   6   4    0.34    0.14
  -5  -6  -4   -0.24    0.16
  -5  -6  -4    0.07    0.17
  -5  -6  -4    0.39    0.22
  -5  -6  -4    0.39    0.22
   5   6   4   -0.27    0.12
   5   6   4    0.18    0.16
   5   6   4    0.03    0.08
   9  -7  -4    0.05    0.15
   9  -7  -4   -0.02    0.15
  -9   7   4   -0.15    0.13
   8  -7  -4    0.65    0.19
   8  -7  -4    0.26    0.17
  -8   7   4    0.41    0.14
  -8   7   4    0.22    0.15
  -8   7   4    0.68    0.15
   7  -7  -4    0.17    0.14
   7  -7  -4    0.00    0.11
   7  -7  -4    0.09    0.14
  -7   7   4    0.12    0.14
  -7   7   4    0.27    0.14
  -7   7   4    0.09    0.13
   6  -7  -4    3.39    0.35
   6  -7  -4    4.38    0.35
   6  -7  -4    3.99    0.38
   6  -7  -4    3.48    0.38
  -6   7   4    4.09    0.34
  -6   7   4    3.66    0.27
  -6   7   4    4.13    0.39
  -6   7   4    3.46    0.34
  -6   7   4    3.83    0.34
   5  -7  -4    0.59    0.12
   5  -7  -4    1.08    0.21
   5  -7  -4    0.52    0.17
   5  -7  -4    0.61    0.16
  -5   7   4    0.83    0.20
  -5   7   4    0.49    0.16
  -5   7   4    0.49    0.13
  -5   7   4    0.52    0.17
   4  -7  -4    0.26    0.15
   4  -7  -4    0.22    0.17
   4  -7  -4    0.56    0.13
  -4   7   4    0.34    0.16
  -4   7   4    0.41    0.11
  -4   7   4    0.28    0.14
  -4   7   4    0.57    0.19
   3  -7  -4    5.39    0.41
   3  -7  -4    4.50    0.36
   3  -7  -4    5.39    0.30
   3  -7  -4    5.47    0.36
  -3   7   4    5.39    0.39
  -3   7   4    4.71    0.35
  -3   7   4    4.74    0.38
  -3   7   4    4.99    0.34
   2  -7  -4    0.62    0.21
   2  -7  -4    0.85    0.20
   2  -7  -4    0.91    0.17
  -2   7   4    0.66    0.14
  -2   7   4    0.95    0.21
  -2   7   4    0.70    0.15
  -2   7   4    1.13    0.23
   1  -7  -4    0.46    0.15
   1  -7  -4    0.47    0.24
  -1   7   4    0.71    0.20
  -1   7   4    0.82    0.14
  -1   7   4    0.63    0.19
  -1   7   4    0.65    0.14
   0  -7  -4    3.86    0.38
   0  -7  -4    2.41    0.34
   0  -7  -4    3.38    0.38
   0   7   4    3.60    0.34
   0   7   4    3.76    0.26
   0   7   4    3.07    0.36
  -1  -7  -4    0.54    0.21
  -1  -7  -4   -0.05    0.20
  -1  -7  -4    0.17    0.15
   1   7   4    0.11    0.15
   1   7   4    0.24    0.16
   1   7   4    0.20    0.08
   1   7   4    0.12    0.13
  -2  -7  -4   -0.36    0.18
  -2  -7  -4   -0.01    0.19
  -2  -7  -4   -0.19    0.09
  -2  -7  -4   -0.07    0.12
   2   7   4    0.01    0.14
  -3  -7  -4   -0.17    0.14
  -3  -7  -4    0.06    0.14
  -3  -7  -4    0.14    0.25
  -3  -7  -4    0.35    0.38
  -3  -7  -4    0.63    0.21
   3   7   4    0.23    0.15
   3   7   4    0.07    0.09
  -4  -7  -4    0.38    0.20
  -4  -7  -4    0.71    0.23
  -4  -7  -4    0.31    0.21
  -4  -7  -4    1.56    0.33
  -4  -7  -4    1.08    0.27
   4   7   4    1.04    0.26
   4   7   4    0.75    0.17
   9  -8  -4    0.09    0.17
   9  -8  -4   -0.12    0.19
  -9   8   4    0.12    0.17
   8  -8  -4    0.17    0.16
   8  -8  -4    0.09    0.16
  -8   8   4    0.14    0.15
  -8   8   4   -0.01    0.13
  -8   8   4    0.16    0.14
   7  -8  -4    0.26    0.18
   7  -8  -4    0.27    0.15
   7  -8  -4    0.38    0.18
  -7   8   4    0.05    0.16
  -7   8   4    0.25    0.16
  -7   8   4    0.06    0.16
   6  -8  -4    0.12    0.16
   6  -8  -4    0.17    0.14
   6  -8  -4    0.20    0.15
  -6   8   4    0.12    0.11
  -6   8   4    0.05    0.13
  -6   8   4    0.23    0.17
  -6   8   4    0.33    0.17
   5  -8  -4    0.23    0.19
   5  -8  -4    0.37    0.19
   5  -8  -4    0.29    0.15
  -5   8   4    0.26    0.16
  -5   8   4    0.26    0.12
  -5   8   4    0.49    0.15
  -5   8   4   -0.06    0.17
   4  -8  -4    0.04    0.15
   4  -8  -4    0.11    0.11
   4  -8  -4    0.11    0.19
  -4   8   4    0.15    0.16
  -4   8   4   -0.03    0.11
  -4   8   4    0.04    0.16
  -4   8   4    0.09    0.11
   3  -8  -4    6.10    0.48
   3  -8  -4    5.36    0.41
  -3   8   4    5.99    0.44
  -3   8   4    5.74    0.46
  -3   8   4    4.99    0.38
  -3   8   4    6.08    0.40
   2  -8  -4   51.83    1.42
   2  -8  -4   51.97    1.51
   2  -8  -4   40.24    1.43
  -2   8   4   49.87    1.37
  -2   8   4   48.78    1.48
  -2   8   4   48.12    1.49
  -2   8   4   46.46    1.38
   1  -8  -4    8.61    0.51
   1  -8  -4    7.58    0.54
   1  -8  -4    8.27    0.56
  -1   8   4    8.69    0.43
  -1   8   4    7.03    0.52
  -1   8   4    8.26    0.52
  -1   8   4    8.10    0.50
   0  -8  -4   -0.09    0.20
   0  -8  -4   -0.01    0.23
   0  -8  -4    0.26    0.17
   0   8   4    0.14    0.13
   0   8   4    0.35    0.18
   0   8   4    0.17    0.09
  -1  -8  -4    0.06    0.15
  -1  -8  -4    0.31    0.20
  -1  -8  -4    0.34    0.17
  -1  -8  -4    0.16    0.11
  -1  -8  -4   -0.05    0.22
   1   8   4    0.31    0.10
   1   8   4    0.11    0.15
  -2  -8  -4    0.08    0.16
  -2  -8  -4   -0.09    0.15
  -2  -8  -4   -0.08    0.30
  -2  -8  -4    0.05    0.13
  -2  -8  -4    0.09    0.18
   2   8   4    0.05    0.15
   2   8   4   -0.06    0.07
   2   8   4    0.15    0.07
  -3  -8  -4    0.11    0.16
  -3  -8  -4   -0.03    0.20
  -3  -8  -4   -0.14    0.16
  -3  -8  -4   -0.01    0.16
   3   8   4   -0.13    0.14
   3   8   4    0.18    0.15
  -4  -8  -4   -0.07    0.21
  -4  -8  -4    0.45    0.26
   4   8   4    0.50    0.23
   8  -9  -4    0.01    0.22
   8  -9  -4    0.12    0.16
   8  -9  -4    0.13    0.17
  -8   9   4    0.29    0.16
  -8   9   4    0.04    0.18
  -8   9   4   -0.06    0.17
   7  -9  -4    0.43    0.18
   7  -9  -4    0.31    0.20
   7  -9  -4    0.66    0.17
  -7   9   4    0.63    0.39
  -7   9   4    0.63    0.20
  -7   9   4    0.47    0.18
   6  -9  -4   -0.08    0.13
   6  -9  -4   -0.07    0.14
   6  -9  -4   -0.16    0.18
  -6   9   4   -0.06    0.12
  -6   9   4   -0.08    0.16
  -6   9   4   -0.20    0.17
   5  -9  -4    2.90    0.30
   5  -9  -4    2.59    0.39
  -5   9   4    2.19    0.39
  -5   9   4    2.11    0.36
  -5   9   4    2.58    0.39
   4  -9  -4    5.48    0.36
   4  -9  -4    6.64    0.53
   4  -9  -4    7.14    0.47
  -4   9   4    6.19    0.45
  -4   9   4    5.09    0.42
  -4   9   4    6.80    0.49
  -4   9   4    6.34    0.47
   3  -9  -4    0.18    0.21
   3  -9  -4    0.30    0.16
  -3   9   4    0.22    0.14
  -3   9   4    0.22    0.19
  -3   9   4    0.05    0.13
   2  -9  -4    0.28    0.16
   2  -9  -4    0.17    0.14
   2  -9  -4    0.22    0.21
  -2   9   4    0.17    0.19
  -2   9   4    0.30    0.12
  -2   9   4    0.02    0.17
  -2   9   4    0.18    0.13
   1  -9  -4    1.44    0.24
   1  -9  -4    2.03    0.30
   1  -9  -4    1.90    0.32
  -1   9   4    1.92    0.25
  -1   9   4    1.91    0.32
   0  -9  -4   -0.12    0.31
   0  -9  -4   -0.06    0.19
   0  -9  -4    0.09    0.15
   0   9   4    0.33    0.17
   0   9   4    0.10    0.09
  -1  -9  -4    0.24    0.24
  -1  -9  -4    0.01    0.16
  -1  -9  -4    0.04    0.15
   1   9   4    0.12    0.09
   1   9   4    0.20    0.17
  -2  -9  -4    0.23    0.19
  -2  -9  -4    0.19    0.19
  -2  -9  -4    0.51    0.19
  -2  -9  -4    0.35    0.24
   2   9   4    0.33    0.12
   2   9   4    0.28    0.11
   2   9   4    0.46    0.22
   7 -10  -4    0.04    0.23
  -7  10   4   -0.04    0.18
  -7  10   4   -0.42    0.20
  -7  10   4    0.10    0.16
   6 -10  -4    0.63    0.21
   6 -10  -4    0.65    0.24
  -6  10   4    0.54    0.17
  -6  10   4    0.59    0.22
  -6  10   4    0.07    0.17
   5 -10  -4   -0.11    0.18
  -5  10   4    0.91    0.23
  -5  10   4   -0.05    0.14
  -5  10   4    0.31    0.18
   4 -10  -4    0.78    0.25
  -4  10   4    1.34    0.28
  -4  10   4    0.95    0.24
  -4  10   4    0.39    0.16
   3 -10  -4   -0.06    0.13
   3 -10  -4    0.20    0.22
  -3  10   4    0.04    0.13
  -3  10   4    0.24    0.19
   2 -10  -4    0.86    0.16
   2 -10  -4    1.00    0.31
   2 -10  -4    1.19    0.28
  -2  10   4    1.09    0.26
  -2  10   4    0.74    0.16
   1 -10  -4    0.09    0.20
   1 -10  -4    0.02    0.15
   1 -10  -4    0.25    0.18
  -1  10   4    0.17    0.18
  -1  10   4    0.13    0.10
   0 -10  -4    0.00    0.21
   0 -10  -4   -0.01    0.16
   0  10   4    0.08    0.17
   0  10   4   -0.08    0.08
  -1 -10  -4    0.66    0.30
  -1 -10  -4    0.29    0.20
  -1 -10  -4    0.08    0.20
   1  10   4    0.16    0.10
   1  10   4    0.73    0.24
   6 -11  -4   -0.27    0.14
   6 -11  -4    0.26    0.24
  -6  11   4   -0.20    0.18
  -6  11   4   -0.18    0.26
  -6  11   4   -0.09    0.17
   5 -11  -4    0.58    0.25
  -5  11   4    0.92    0.27
  -5  11   4    0.34    0.18
  -4  11   4    1.31    0.24
  -4  11   4    1.89    0.36
   3 -11  -4    0.09    0.14
   3 -11  -4   -0.39    0.34
  -3  11   4   -0.01    0.11
  -3  11   4   -0.05    0.16
   2 -11  -4    0.29    0.16
   2 -11  -4    0.34    0.19
  -2  11   4    0.48    0.22
  -2  11   4    0.12    0.12
   1 -11  -4    0.26    0.19
   1 -11  -4    0.23    0.27
   1 -11  -4    0.08    0.19
  -1  11   4    0.43    0.25
  -1  11   4    0.26    0.12
  -3  12  -5    0.19    0.23
   3 -12   5    0.21    0.26
  -4  12  -5   -0.17    0.19
   0  11  -5    0.03    0.10
   0  11  -5    0.19    0.21
   0 -11   5   -0.14    0.17
   0 -11   5    0.11    0.23
  -1  11  -5    0.22    0.13
  -1  11  -5    0.28    0.19
   1 -11   5   -0.30    0.15
   1 -11   5    0.00    0.21
  -2  11  -5    0.26    0.19
  -2  11  -5    0.00    0.10
   2 -11   5   -0.27    0.13
  -3  11  -5    0.27    0.15
  -3  11  -5    0.66    0.21
  -3  11  -5    0.04    0.11
   3 -11   5    0.02    0.14
   3 -11   5    0.24    0.25
  -4  11  -5   -0.01    0.23
  -4  11  -5    0.00    0.19
  -4  11  -5    0.30    0.15
   4 -11   5   -0.03    0.21
   4 -11   5    0.02    0.15
  -5  11  -5   -0.31    0.20
  -5  11  -5    0.13    0.19
  -5  11  -5    0.14    0.14
   5 -11   5    0.05    0.25
   5 -11   5   -0.02    0.14
   5 -11   5   -0.19    0.12
  -6  11  -5    0.43    0.21
  -6  11  -5   -0.16    0.16
  -6  11  -5   -0.20    0.22
   6 -11   5    0.02    0.17
   6 -11   5   -0.03    0.14
   6 -11   5    0.40    0.24
   2  10  -5    0.05    0.11
   2  10  -5    0.16    0.21
  -2 -10   5    0.21    0.25
  -2 -10   5    0.01    0.19
  -2 -10   5    0.32    0.18
   1  10  -5    0.20    0.18
   1  10  -5    0.03    0.11
  -1 -10   5   -0.25    0.26
  -1 -10   5    0.02    0.23
   0  10  -5    0.22    0.18
   0  10  -5    0.16    0.11
   0 -10   5    0.38    0.22
   0 -10   5   -0.04    0.16
  -1  10  -5    0.12    0.11
  -1  10  -5    0.08    0.17
   1 -10   5   -0.17    0.13
   1 -10   5    0.14    0.21
  -2  10  -5    0.61    0.22
  -2  10  -5    0.14    0.12
   2 -10   5    0.18    0.13
   2 -10   5    0.34    0.21
  -3  10  -5    0.39    0.19
  -3  10  -5   -0.13    0.10
  -3  10  -5    0.39    0.14
  -3  10  -5    0.20    0.19
   3 -10   5   -0.06    0.12
   3 -10   5   -0.01    0.20
   3 -10   5   -0.06    0.10
  -4  10  -5    0.09    0.14
  -4  10  -5    0.20    0.20
  -4  10  -5    0.14    0.13
  -4  10  -5    0.61    0.20
   4 -10   5    0.31    0.14
   4 -10   5    0.46    0.23
  -5  10  -5    0.22    0.19
  -5  10  -5    0.87    0.20
  -5  10  -5    0.15    0.29
  -5  10  -5    0.30    0.15
   5 -10   5    0.41    0.17
   5 -10   5    0.05    0.21
   5 -10   5    0.84    0.25
  -6  10  -5    0.31    0.16
  -6  10  -5    0.68    0.19
  -6  10  -5    0.60    0.20
   6 -10   5    0.80    0.26
   6 -10   5    0.23    0.17
   6 -10   5    0.48    0.17
  -7  10  -5    0.33    0.19
  -7  10  -5    0.30    0.22
  -7  10  -5    0.19    0.15
   7 -10   5    0.31    0.23
   7 -10   5    0.35    0.19
   7 -10   5    0.17    0.15
   3   9  -5    0.04    0.19
  -3  -9   5   -0.19    0.13
  -3  -9   5   -0.31    0.16
  -3  -9   5    0.38    0.22
   2   9  -5    0.06    0.18
   2   9  -5    0.00    0.15
  -2  -9   5    0.25    0.21
  -2  -9   5    0.32    0.16
  -2  -9   5   -0.04    0.17
   1   9  -5    0.72    0.24
   1   9  -5    0.22    0.12
  -1  -9   5    0.26    0.16
  -1  -9   5    0.35    0.28
  -1  -9   5    0.43    0.18
   0   9  -5    2.80    0.39
   0   9  -5    2.12    0.27
   0  -9   5    2.51    0.32
   0  -9   5    2.69    0.40
  -1   9  -5    0.89    0.22
  -1   9  -5    0.66    0.14
  -1   9  -5    0.23    0.19
   1  -9   5    0.94    0.26
   1  -9   5    0.47    0.15
  -2   9  -5   -0.09    0.16
  -2   9  -5   -0.10    0.10
  -2   9  -5    0.01    0.10
  -2   9  -5    0.13    0.10
   2  -9   5    0.04    0.19
   2  -9   5    0.01    0.12
  -3   9  -5    0.77    0.16
  -3   9  -5    0.55    0.21
  -3   9  -5    0.86    0.17
  -3   9  -5    0.79    0.15
  -3   9  -5    0.70    0.21
   3  -9   5    0.85    0.14
   3  -9   5    0.70    0.23
   3  -9   5    0.81    0.18
  -4   9  -5    1.98    0.25
  -4   9  -5    2.56    0.33
  -4   9  -5    3.08    0.38
  -4   9  -5    2.41    0.35
   4  -9   5    1.85    0.25
   4  -9   5    3.15    0.40
  -5   9  -5    8.15    0.51
  -5   9  -5    7.59    0.46
  -5   9  -5    8.09    0.50
  -5   9  -5    6.98    0.50
   5  -9   5    8.89    0.61
   5  -9   5    6.75    0.48
   5  -9   5    7.36    0.49
  -6   9  -5    0.00    0.14
  -6   9  -5    0.14    0.18
   6  -9   5   -0.03    0.16
   6  -9   5   -0.19    0.25
   6  -9   5    0.08    0.15
  -7   9  -5    0.15    0.14
  -7   9  -5    0.21    0.15
  -7   9  -5    0.07    0.17
   7  -9   5    0.12    0.15
   7  -9   5    0.30    0.19
   7  -9   5    0.03    0.15
  -8   9  -5    0.19    0.15
  -8   9  -5    0.11    0.15
  -8   9  -5    0.74    0.18
   8  -9   5   -0.16    0.13
   8  -9   5    0.30    0.18
   4   8  -5    0.09    0.17
  -4  -8   5    0.20    0.16
  -4  -8   5    0.32    0.21
  -4  -8   5   -0.13    0.18
  -4  -8   5    0.52    0.26
   3   8  -5    0.13    0.19
  -3  -8   5   -0.04    0.14
  -3  -8   5    0.00    0.19
  -3  -8   5   -0.04    0.14
  -3  -8   5   -0.32    0.18
   2   8  -5    0.57    0.15
   2   8  -5    0.76    0.22
  -2  -8   5    1.03    0.29
  -2  -8   5    0.65    0.17
  -2  -8   5    0.73    0.26
  -2  -8   5    0.56    0.17
  -2  -8   5    0.27    0.18
   1   8  -5    1.94    0.26
   1   8  -5    2.07    0.31
  -1  -8   5    1.55    0.24
  -1  -8   5    1.72    0.30
  -1  -8   5    2.09    0.32
  -1  -8   5    2.55    0.37
  -1  -8   5    1.23    0.21
   0   8  -5    0.86    0.21
   0   8  -5    0.60    0.13
   0   8  -5    0.71    0.21
   0   8  -5    0.33    0.13
   0   8  -5    0.53    0.15
   0  -8   5    0.71    0.18
   0  -8   5    0.71    0.24
   0  -8   5    0.63    0.21
   0  -8   5    0.46    0.15
  -1   8  -5    0.24    0.11
  -1   8  -5    0.24    0.18
  -1   8  -5    0.01    0.11
  -1   8  -5    0.30    0.18
   1  -8   5    0.26    0.12
   1  -8   5    0.07    0.18
   1  -8   5   -0.05    0.18
   1  -8   5    0.14    0.12
  -2   8  -5    2.51    0.36
  -2   8  -5    2.49    0.26
  -2   8  -5    2.88    0.29
  -2   8  -5    2.20    0.32
   2  -8   5    2.69    0.26
   2  -8   5    2.04    0.33
   2  -8   5    1.70    0.23
  -3   8  -5   25.31    0.93
  -3   8  -5   24.97    0.81
  -3   8  -5   24.41    0.90
  -3   8  -5   24.72    0.80
  -3   8  -5   25.32    0.86
  -3   8  -5   24.78    0.92
   3  -8   5   27.70    0.77
   3  -8   5   27.12    0.97
   3  -8   5   25.95    0.84
  -4   8  -5    1.70    0.28
  -4   8  -5    0.96    0.17
  -4   8  -5    1.08    0.19
  -4   8  -5    1.53    0.27
   4  -8   5    1.09    0.20
   4  -8   5    1.32    0.28
   4  -8   5    1.04    0.21
  -5   8  -5    1.41    0.22
  -5   8  -5    1.41    0.21
  -5   8  -5    2.51    0.33
  -5   8  -5    1.90    0.44
  -5   8  -5    2.05    0.29
   5  -8   5    1.64    0.24
   5  -8   5    1.83    0.27
   5  -8   5    1.78    0.25
   5  -8   5    1.67    0.26
  -6   8  -5    2.73    0.33
  -6   8  -5    3.13    0.33
  -6   8  -5    2.79    0.33
   6  -8   5    3.02    0.36
   6  -8   5    2.46    0.30
   6  -8   5    2.92    0.33
   6  -8   5    3.26    0.37
  -7   8  -5    0.27    0.16
  -7   8  -5    0.55    0.17
  -7   8  -5    0.09    0.12
   7  -8   5   -0.11    0.15
   7  -8   5    0.37    0.14
   7  -8   5    0.32    0.16
  -8   8  -5    0.15    0.13
   8  -8   5   -0.11    0.13
   8  -8   5    0.23    0.16
   5   7  -5    0.37    0.22
   5   7  -5    0.12    0.17
  -5  -7   5    0.22    0.18
  -5  -7   5    0.17    0.14
  -5  -7   5    0.42    0.31
  -5  -7   5    0.11    0.19
  -5  -7   5    0.39    0.21
   4   7  -5    4.21    0.42
  -4  -7   5    3.72    0.42
  -4  -7   5    3.97    0.46
  -4  -7   5    2.74    0.35
  -4  -7   5    3.91    0.44
  -4  -7   5    3.60    0.43
   3   7  -5    3.07    0.37
  -3  -7   5    3.05    0.38
  -3  -7   5    3.34    0.40
  -3  -7   5    2.92    0.39
  -3  -7   5    3.26    0.39
   2   7  -5    0.04    0.10
   2   7  -5   -0.19    0.10
   2   7  -5    0.11    0.16
  -2  -7   5   -0.24    0.15
  -2  -7   5    0.06    0.13
  -2  -7   5   -0.13    0.22
  -2  -7   5    0.09    0.13
  -2  -7   5   -0.04    0.16
   1   7  -5    0.38    0.23
   1   7  -5    0.42    0.20
   1   7  -5    0.37    0.12
   1   7  -5    0.39    0.16
   1   7  -5    0.28    0.13
  -1  -7   5    0.20    0.13
  -1  -7   5    0.43    0.13
  -1  -7   5    0.44    0.19
  -1  -7   5    0.17    0.16
  -1  -7   5    0.23    0.14
   0   7  -5    0.17    0.10
   0   7  -5    0.13    0.10
   0   7  -5    0.13    0.15
   0   7  -5    0.29    0.13
   0   7  -5    0.14    0.17
   0  -7   5    0.22    0.13
   0  -7   5    0.16    0.11
   0  -7   5    0.29    0.18
   0  -7   5    0.23    0.19
  -1   7  -5    0.11    0.15
  -1   7  -5    0.41    0.11
  -1   7  -5    0.32    0.11
  -1   7  -5    0.25    0.13
  -1   7  -5    0.24    0.17
   1  -7   5    0.38    0.13
   1  -7   5    0.17    0.19
   1  -7   5    0.44    0.12
   1  -7   5    0.09    0.19
  -2   7  -5    2.10    0.28
  -2   7  -5    2.06    0.28
  -2   7  -5    2.37    0.28
  -2   7  -5    2.26    0.28
  -2   7  -5    1.98    0.25
   2  -7   5    2.51    0.25
   2  -7   5    1.52    0.25
   2  -7   5    1.95    0.25
   2  -7   5    1.39    0.22
   2  -7   5    1.86    0.28
  -3   7  -5    2.83    0.29
  -3   7  -5    3.04    0.32
  -3   7  -5    2.59    0.23
  -3   7  -5    2.26    0.33
  -3   7  -5    2.24    0.31
   3  -7   5    2.58    0.28
   3  -7   5    2.38    0.31
   3  -7   5    2.69    0.29
   3  -7   5    2.29    0.31
   3  -7   5    3.05    0.24
  -4   7  -5    5.93    0.32
  -4   7  -5    6.26    0.38
  -4   7  -5    6.48    0.45
  -4   7  -5    5.94    0.36
  -4   7  -5    6.48    0.41
  -4   7  -5    6.58    0.42
   4  -7   5    6.90    0.41
   4  -7   5    6.04    0.38
   4  -7   5    5.93    0.39
   4  -7   5    6.52    0.41
  -5   7  -5    6.61    0.40
  -5   7  -5    6.44    0.39
  -5   7  -5    6.86    0.41
   5  -7   5    6.18    0.39
   5  -7   5    5.19    0.59
   5  -7   5    5.85    0.42
   5  -7   5    6.96    0.38
   5  -7   5    6.84    0.44
  -6   7  -5    0.00    0.12
  -6   7  -5    0.13    0.14
  -6   7  -5    0.01    0.14
  -6   7  -5   -0.06    0.10
   6  -7   5   -0.08    0.11
   6  -7   5   -0.07    0.12
   6  -7   5   -0.10    0.12
   6  -7   5    0.08    0.15
   6  -7   5    0.05    0.12
  -7   7  -5   -0.14    0.11
  -7   7  -5    0.02    0.10
  -7   7  -5   -0.08    0.11
   7  -7   5    0.01    0.20
   7  -7   5   -0.27    0.16
   7  -7   5    0.12    0.13
  -8   7  -5    0.40    0.13
   8  -7   5    0.58    0.21
   8  -7   5    0.20    0.16
  -9   7  -5   -0.22    0.16
   9  -7   5    0.24    0.17
   6   6  -5    0.02    0.12
   6   6  -5   -0.02    0.18
   6   6  -5    0.12    0.16
  -6  -6   5    0.09    0.17
  -6  -6   5    0.01    0.22
  -6  -6   5   -0.10    0.17
  -6  -6   5   -0.02    0.15
  -6  -6   5    0.06    0.19
   5   6  -5    0.58    0.20
   5   6  -5    0.61    0.20
   5   6  -5    0.50    0.13
  -5  -6   5    0.44    0.16
  -5  -6   5    0.54    0.21
  -5  -6   5    0.63    0.21
  -5  -6   5    0.79    0.23
  -5  -6   5    0.37    0.14
  -5  -6   5    0.19    0.16
   4   6  -5    0.00    0.12
   4   6  -5    0.25    0.17
  -4  -6   5    0.26    0.20
  -4  -6   5    0.19    0.17
  -4  -6   5    0.23    0.14
  -4  -6   5    0.47    0.19
  -4  -6   5   -0.19    0.14
   3   6  -5   -0.05    0.07
   3   6  -5   -0.11    0.09
   3   6  -5    0.16    0.14
  -3  -6   5   -0.12    0.15
  -3  -6   5   -0.05    0.13
  -3  -6   5   -0.01    0.10
  -3  -6   5   -0.04    0.12
  -3  -6   5    0.34    0.17
   2   6  -5    0.09    0.09
   2   6  -5   -0.03    0.14
   2   6  -5   -0.09    0.11
   2   6  -5    0.01    0.10
  -2  -6   5   -0.06    0.09
  -2  -6   5   -0.01    0.14
  -2  -6   5   -0.07    0.13
  -2  -6   5    0.05    0.12
  -2  -6   5    0.12    0.13
   1   6  -5    0.87    0.13
   1   6  -5    1.01    0.17
   1   6  -5    0.79    0.15
   1   6  -5    0.71    0.18
   1   6  -5    1.10    0.20
  -1  -6   5    0.69    0.15
  -1  -6   5    1.13    0.24
  -1  -6   5    0.85    0.13
  -1  -6   5    1.04    0.19
  -1  -6   5    1.09    0.21
   0   6  -5    0.26    0.10
   0   6  -5    0.28    0.15
   0   6  -5    0.28    0.15
   0   6  -5    0.44    0.12
   0   6  -5    0.10    0.09
   0  -6   5    0.30    0.12
   0  -6   5    0.25    0.09
   0  -6   5    0.16    0.14
   0  -6   5    0.20    0.13
  -1   6  -5    2.99    0.24
  -1   6  -5    3.51    0.31
  -1   6  -5    3.03    0.28
  -1   6  -5    3.24    0.25
  -1   6  -5    3.06    0.30
   1  -6   5    3.47    0.32
   1  -6   5    2.82    0.29
   1  -6   5    2.84    0.25
   1  -6   5    3.32    0.26
  -2   6  -5   13.89    0.57
  -2   6  -5   14.73    0.59
  -2   6  -5   13.66    0.56
  -2   6  -5   14.36    0.53
  -2   6  -5   13.90    0.49
   2  -6   5   14.45    0.49
   2  -6   5   12.40    0.52
   2  -6   5   13.44    0.58
   2  -6   5   13.52    0.56
   2  -6   5   14.28    0.49
  -3   6  -5    7.83    0.39
  -3   6  -5    7.95    0.35
  -3   6  -5    8.29    0.44
  -3   6  -5    7.94    0.42
  -3   6  -5    7.94    0.42
   3  -6   5    7.66    0.45
   3  -6   5    7.64    0.39
   3  -6   5    8.35    0.43
   3  -6   5    7.12    0.40
   3  -6   5    8.37    0.35
  -4   6  -5    8.48    0.43
  -4   6  -5    7.82    0.41
  -4   6  -5    7.84    0.34
  -4   6  -5    8.13    0.40
   4  -6   5    7.79    0.41
   4  -6   5    8.04    0.40
   4  -6   5    8.20    0.42
   4  -6   5    8.20    0.33
   4  -6   5    7.42    0.41
  -5   6  -5    0.46    0.16
  -5   6  -5    0.43    0.13
  -5   6  -5    0.28    0.11
  -5   6  -5    0.32    0.10
  -5   6  -5    0.21    0.12
   5  -6   5    0.38    0.13
   5  -6   5    0.35    0.13
   5  -6   5    0.48    0.15
   5  -6   5    0.21    0.12
   5  -6   5    0.50    0.17
   5  -6   5    0.37    0.15
  -6   6  -5   -0.15    0.10
  -6   6  -5   -0.02    0.11
  -6   6  -5   -0.04    0.08
  -6   6  -5   -0.12    0.17
  -6   6  -5    0.00    0.13
  -6   6  -5   -0.10    0.10
   6  -6   5    0.00    0.13
   6  -6   5   -0.13    0.09
   6  -6   5    0.03    0.08
   6  -6   5    0.06    0.12
   6  -6   5   -0.01    0.12
  -7   6  -5    0.52    0.13
  -7   6  -5    0.41    0.12
  -7   6  -5    0.34    0.21
  -7   6  -5    0.48    0.13
   7  -6   5    0.52    0.17
   7  -6   5    0.46    0.19
   7  -6   5    0.32    0.12
  -8   6  -5    0.15    0.11
  -8   6  -5    0.04    0.13
   8  -6   5   -0.03    0.12
   8  -6   5    0.04    0.13
  -9   6  -5   -0.13    0.13
  -9   6  -5    0.16    0.13
  -9   6  -5    0.32    0.15
  -9   6  -5    0.39    0.17
   9  -6   5    0.15    0.18
   7   5  -5   -0.12    0.15
   7   5  -5   -0.05    0.11
   7   5  -5   -0.13    0.17
  -7  -5   5    0.16    0.16
  -7  -5   5    0.22    0.23
  -7  -5   5   -0.19    0.21
   6   5  -5    0.15    0.15
   6   5  -5   -0.11    0.12
   6   5  -5    0.14    0.12
  -6  -5   5    0.08    0.18
  -6  -5   5   -0.05    0.14
  -6  -5   5    0.04    0.15
  -6  -5   5   -0.04    0.15
  -6  -5   5    0.01    0.12
   5   5  -5    2.20    0.26
   5   5  -5    2.92    0.32
   5   5  -5    1.84    0.30
  -5  -5   5    2.93    0.35
  -5  -5   5    2.57    0.27
  -5  -5   5    2.94    0.37
  -5  -5   5    2.20    0.30
  -5  -5   5    1.67    0.29
   4   5  -5    0.50    0.16
   4   5  -5    0.33    0.12
   4   5  -5    0.53    0.22
   4   5  -5    0.22    0.12
  -4  -5   5    0.02    0.15
  -4  -5   5    0.19    0.11
  -4  -5   5    0.17    0.11
  -4  -5   5    0.28    0.16
  -4  -5   5    0.24    0.14
   3   5  -5    0.32    0.18
   3   5  -5    0.13    0.10
   3   5  -5    0.24    0.14
   3   5  -5    0.20    0.12
  -3  -5   5    0.30    0.15
  -3  -5   5    0.29    0.15
  -3  -5   5    0.11    0.13
  -3  -5   5    0.48    0.14
  -3  -5   5    0.09    0.09
  -3  -5   5    0.18    0.08
   2   5  -5    2.83    0.24
   2   5  -5    2.70    0.25
   2   5  -5    2.99    0.30
   2   5  -5    2.93    0.27
   2   5  -5    2.72    0.27
  -2  -5   5    2.49    0.30
  -2  -5   5    2.78    0.24
  -2  -5   5    2.75    0.29
  -2  -5   5    2.46    0.16
  -2  -5   5    2.69    0.29
  -2  -5   5    2.53    0.28
   1   5  -5   11.03    0.48
   1   5  -5   11.52    0.51
   1   5  -5   11.01    0.44
   1   5  -5   10.72    0.45
   1   5  -5   11.05    0.51
  -1  -5   5   11.49    0.49
  -1  -5   5   11.35    0.53
  -1  -5   5   10.40    0.44
  -1  -5   5   10.62    0.49
   0   5  -5   11.17    0.50
   0   5  -5   12.10    0.47
   0   5  -5   11.79    0.45
   0   5  -5   11.53    0.51
   0   5  -5   11.39    0.47
   0  -5   5   10.75    0.49
   0  -5   5   12.03    0.52
   0  -5   5   11.34    0.45
   0  -5   5   11.41    0.53
  -1   5  -5    2.53    0.22
  -1   5  -5    2.34    0.25
  -1   5  -5    2.54    0.21
  -1   5  -5    2.45    0.26
  -1   5  -5    2.32    0.24
   1  -5   5    2.53    0.24
   1  -5   5    2.53    0.18
   1  -5   5    2.81    0.28
   1  -5   5    2.40    0.22
  -2   5  -5    0.59    0.15
  -2   5  -5    0.31    0.10
  -2   5  -5    0.31    0.10
  -2   5  -5    0.34    0.09
  -2   5  -5    0.51    0.15
   2  -5   5    0.34    0.13
   2  -5   5    0.31    0.09
   2  -5   5    0.45    0.10
   2  -5   5    0.39    0.12
   2  -5   5    0.41    0.10
  -3   5  -5    2.16    0.20
  -3   5  -5    1.93    0.23
  -3   5  -5    1.76    0.21
  -3   5  -5    2.27    0.24
   3  -5   5    1.98    0.21
   3  -5   5    2.09    0.17
   3  -5   5    2.05    0.22
   3  -5   5    2.36    0.25
   3  -5   5    2.20    0.22
  -4   5  -5    3.00    0.25
  -4   5  -5    2.29    0.23
  -4   5  -5    2.62    0.22
  -4   5  -5    2.70    0.24
   4  -5   5    3.24    0.22
   4  -5   5    2.54    0.25
   4  -5   5    2.79    0.26
   4  -5   5    2.60    0.25
   4  -5   5    2.56    0.23
   4  -5   5    2.74    0.23
  -5   5  -5    1.62    0.21
  -5   5  -5    1.68    0.23
  -5   5  -5    1.55    0.20
  -5   5  -5    1.67    0.23
  -5   5  -5    1.47    0.20
  -5   5  -5    1.21    0.18
  -5   5  -5    1.34    0.20
   5  -5   5    1.32    0.20
   5  -5   5    1.01    0.15
   5  -5   5    1.43    0.20
   5  -5   5    1.74    0.25
   5  -5   5    1.47    0.19
   5  -5   5    1.38    0.19
  -6   5  -5    0.36    0.14
  -6   5  -5    0.51    0.13
  -6   5  -5    0.41    0.11
  -6   5  -5    0.28    0.13
  -6   5  -5    0.28    0.11
  -6   5  -5    0.66    0.21
   6  -5   5    0.49    0.15
   6  -5   5    0.24    0.12
   6  -5   5    0.45    0.14
   6  -5   5    0.24    0.15
  -7   5  -5    0.09    0.10
  -7   5  -5    0.09    0.14
  -7   5  -5    0.21    0.12
   7  -5   5    0.22    0.15
   7  -5   5    0.04    0.10
  -8   5  -5    0.99    0.16
   8  -5   5    1.17    0.25
   8  -5   5    0.88    0.20
  -9   5  -5    1.26    0.24
  -9   5  -5    2.28    0.32
  -9   5  -5    1.15    0.17
   9  -5   5    1.49    0.27
   9  -5   5    1.43    0.26
   7   4  -5   -0.06    0.16
   7   4  -5    0.21    0.14
   7   4  -5    0.17    0.15
   7   4  -5    0.27    0.16
  -7  -4   5    0.75    0.22
  -7  -4   5    0.29    0.19
  -7  -4   5    0.07    0.15
  -7  -4   5    0.08    0.14
  -7  -4   5    0.35    0.17
   6   4  -5   -0.07    0.13
   6   4  -5    0.04    0.13
   6   4  -5   -0.09    0.10
  -6  -4   5   -0.21    0.15
  -6  -4   5   -0.27    0.11
  -6  -4   5   -0.04    0.14
  -6  -4   5   -0.09    0.14
  -6  -4   5   -0.28    0.13
  -6  -4   5    0.01    0.11
   5   4  -5    0.65    0.17
   5   4  -5    0.59    0.18
   5   4  -5    0.33    0.12
   5   4  -5    0.38    0.13
   5   4  -5    0.21    0.13
  -5  -4   5    0.53    0.16
  -5  -4   5    0.26    0.14
  -5  -4   5    0.36    0.13
  -5  -4   5    0.55    0.14
  -5  -4   5    0.29    0.11
  -5  -4   5    0.02    0.16
  -5  -4   5    0.26    0.17
   4   4  -5    0.03    0.11
   4   4  -5   -0.02    0.08
   4   4  -5   -0.10    0.14
   4   4  -5    0.05    0.10
   4   4  -5   -0.07    0.08
  -4  -4   5   -0.16    0.12
  -4  -4   5   -0.06    0.08
  -4  -4   5   -0.09    0.07
  -4  -4   5   -0.12    0.12
  -4  -4   5   -0.08    0.08
  -4  -4   5    0.06    0.12
  -4  -4   5   -0.06    0.10
   3   4  -5    1.66    0.23
   3   4  -5    1.70    0.25
   3   4  -5    1.70    0.21
   3   4  -5    1.72    0.25
  -3  -4   5    2.04    0.26
  -3  -4   5    1.69    0.20
  -3  -4   5    1.39    0.18
  -3  -4   5    1.57    0.18
  -3  -4   5    1.27    0.19
  -3  -4   5    1.83    0.25
   2   4  -5    7.51    0.36
   2   4  -5    7.54    0.39
   2   4  -5    7.39    0.38
   2   4  -5    7.44    0.35
   2   4  -5    7.86    0.41
  -2  -4   5    7.37    0.41
  -2  -4   5    8.13    0.41
  -2  -4   5    7.31    0.46
  -2  -4   5    7.23    0.34
  -2  -4   5    7.44    0.29
   1   4  -5    0.99    0.16
   1   4  -5    0.62    0.12
   1   4  -5    0.98    0.14
   1   4  -5    0.78    0.15
   1   4  -5    0.73    0.12
  -1  -4   5    0.72    0.15
  -1  -4   5    1.06    0.10
  -1  -4   5    0.83    0.16
  -1  -4   5    0.76    0.11
   0   4  -5    4.26    0.31
   0   4  -5    4.05    0.29
   0   4  -5    3.66    0.25
   0   4  -5    3.87    0.36
   0  -4   5    3.80    0.23
   0  -4   5    3.89    0.28
   0  -4   5    4.10    0.25
   0  -4   5    4.08    0.29
  -1   4  -5    5.55    0.31
  -1   4  -5    5.33    0.32
  -1   4  -5    5.24    0.29
  -1   4  -5    5.67    0.28
  -1   4  -5    5.70    0.27
   1  -4   5    5.51    0.23
   1  -4   5    5.64    0.27
   1  -4   5    5.42    0.31
   1  -4   5    5.55    0.28
   1  -4   5    5.44    0.32
  -2   4  -5    9.59    0.41
  -2   4  -5    9.99    0.37
  -2   4  -5    9.78    0.61
  -2   4  -5    9.64    0.36
   2  -4   5   10.04    0.38
   2  -4   5    9.90    0.44
   2  -4   5    9.54    0.31
   2  -4   5    9.36    0.41
   2  -4   5    8.79    0.39
   2  -4   5    9.64    0.35
  -3   4  -5   13.66    0.50
  -3   4  -5   13.62    0.46
  -3   4  -5   14.04    0.48
  -3   4  -5   14.24    0.51
  -3   4  -5   14.01    0.48
   3  -4   5   14.16    0.50
   3  -4   5   13.07    0.49
   3  -4   5   14.40    0.52
   3  -4   5   14.53    0.50
   3  -4   5   14.40    0.45
  -4   4  -5    1.68    0.21
  -4   4  -5    1.68    0.20
  -4   4  -5    1.77    0.19
  -4   4  -5    1.83    0.19
  -4   4  -5    2.12    0.21
  -4   4  -5    1.84    0.21
   4  -4   5    1.87    0.19
   4  -4   5    1.97    0.22
   4  -4   5    1.75    0.19
   4  -4   5    1.46    0.19
   4  -4   5    2.12    0.24
   4  -4   5    1.87    0.20
  -5   4  -5    0.42    0.12
  -5   4  -5    0.53    0.12
  -5   4  -5    0.52    0.13
  -5   4  -5    0.62    0.13
  -5   4  -5    0.91    0.15
  -5   4  -5    0.53    0.12
  -5   4  -5    0.76    0.14
   5  -4   5    0.61    0.12
   5  -4   5    0.63    0.12
   5  -4   5    0.52    0.14
   5  -4   5    0.52    0.16
   5  -4   5    0.52    0.12
   5  -4   5    0.70    0.13
  -6   4  -5    2.05    0.24
  -6   4  -5    1.58    0.21
  -6   4  -5    1.50    0.32
  -6   4  -5    1.22    0.19
  -6   4  -5    1.59    0.19
   6  -4   5    1.32    0.22
   6  -4   5    1.14    0.18
  -7   4  -5    0.61    0.12
  -7   4  -5    0.08    0.15
   7  -4   5    0.63    0.19
   7  -4   5    0.47    0.14
  -8   4  -5    1.68    0.24
  -8   4  -5    1.04    0.24
   8  -4   5    1.04    0.22
   8  -4   5    0.66    0.24
  -9   4  -5    0.08    0.11
  -9   4  -5    0.43    0.19
   9  -4   5    0.40    0.18
   9  -4   5    0.35    0.17
   8   3  -5    0.92    0.24
   8   3  -5    0.02    0.18
   8   3  -5    0.59    0.21
  -8  -3   5    0.87    0.19
  -8  -3   5    0.48    0.22
  -8  -3   5    0.36    0.15
  -8  -3   5    0.65    0.19
   7   3  -5    0.45    0.16
   7   3  -5    0.77    0.17
   7   3  -5    0.54    0.20
   7   3  -5    0.40    0.15
  -7  -3   5    0.55    0.21
  -7  -3   5    0.78    0.19
  -7  -3   5    0.37    0.15
  -7  -3   5    0.34    0.14
  -7  -3   5    0.23    0.15
  -7  -3   5    0.45    0.16
   6   3  -5    1.13    0.18
   6   3  -5    0.81    0.20
   6   3  -5    1.17    0.19
   6   3  -5    0.72    0.17
   6   3  -5    0.48    0.14
  -6  -3   5    0.90    0.20
  -6  -3   5    0.72    0.14
  -6  -3   5    0.74    0.16
  -6  -3   5    0.75    0.22
  -6  -3   5    0.81    0.17
  -6  -3   5    0.76    0.16
  -6  -3   5    1.06    0.16
   5   3  -5    1.17    0.18
   5   3  -5    1.55    0.21
   5   3  -5    1.38    0.19
   5   3  -5    1.20    0.17
   5   3  -5    1.15    0.21
   5   3  -5    1.65    0.23
  -5  -3   5    0.99    0.15
  -5  -3   5    1.64    0.23
  -5  -3   5    1.35    0.22
  -5  -3   5    0.98    0.16
  -5  -3   5    1.04    0.21
  -5  -3   5    0.83    0.15
  -5  -3   5    1.04    0.16
   4   3  -5    3.95    0.27
   4   3  -5    3.69    0.32
   4   3  -5    3.66    0.28
   4   3  -5    4.03    0.30
   4   3  -5    4.24    0.28
   4   3  -5    3.82    0.29
  -4  -3   5    4.40    0.35
  -4  -3   5    4.11    0.35
  -4  -3   5    4.27    0.30
  -4  -3   5    4.03    0.28
  -4  -3   5    4.34    0.28
  -4  -3   5    3.37    0.23
  -4  -3   5    3.97    0.31
   3   3  -5    1.29    0.18
   3   3  -5    1.56    0.21
   3   3  -5    1.51    0.21
   3   3  -5    1.69    0.22
  -3  -3   5    1.46    0.17
  -3  -3   5    1.14    0.15
  -3  -3   5    1.61    0.24
  -3  -3   5    1.43    0.14
  -3  -3   5    1.49    0.19
  -3  -3   5    1.33    0.20
  -3  -3   5    1.33    0.20
   2   3  -5    0.98    0.17
   2   3  -5    1.02    0.16
   2   3  -5    0.69    0.13
   2   3  -5    0.69    0.11
  -2  -3   5    0.66    0.10
  -2  -3   5    0.48    0.11
  -2  -3   5    0.63    0.09
  -2  -3   5    0.61    0.13
  -2  -3   5    0.71    0.15
  -2  -3   5    0.87    0.16
   1   3  -5   15.10    0.54
   1   3  -5   14.16    0.71
   1   3  -5   14.76    0.54
   1   3  -5   15.21    0.50
   1   3  -5   15.00    0.49
  -1  -3   5   14.74    0.52
  -1  -3   5   14.45    0.53
  -1  -3   5   14.26    0.53
   0   3  -5    0.39    0.09
   0   3  -5    0.49    0.13
   0   3  -5    0.43    0.12
   0   3  -5    0.47    0.09
   0   3  -5    0.37    0.09
   0  -3   5    0.49    0.10
   0  -3   5    0.26    0.11
   0  -3   5    0.49    0.12
   0  -3   5    0.44    0.08
  -1   3  -5   34.44    0.88
  -1   3  -5   32.82    0.89
  -1   3  -5   32.79    0.94
  -1   3  -5   34.35    0.95
   1  -3   5   33.45    0.82
   1  -3   5   35.09    0.89
   1  -3   5   32.35    0.93
   1  -3   5   33.63    0.88
   1  -3   5   33.68    0.95
  -2   3  -5   45.15    1.15
  -2   3  -5   47.22    1.21
  -2   3  -5   45.75    1.13
  -2   3  -5   44.72    1.20
  -2   3  -5   46.18    1.15
   2  -3   5   45.46    1.15
   2  -3   5   46.09    1.14
   2  -3   5   47.00    1.21
   2  -3   5   43.83    1.27
   2  -3   5   48.20    1.17
  -3   3  -5    1.14    0.16
  -3   3  -5    1.24    0.17
  -3   3  -5    1.02    0.13
  -3   3  -5    1.12    0.15
  -3   3  -5    0.88    0.12
   3  -3   5    1.05    0.14
   3  -3   5    1.22    0.17
   3  -3   5    0.72    0.12
   3  -3   5    1.32    0.17
   3  -3   5    0.97    0.14
   3  -3   5    1.12    0.15
  -4   3  -5    1.69    0.18
  -4   3  -5    1.48    0.23
  -4   3  -5    1.54    0.19
  -4   3  -5    1.74    0.17
  -4   3  -5    1.24    0.16
   4  -3   5    1.30    0.19
   4  -3   5    1.70    0.22
   4  -3   5    1.70    0.17
   4  -3   5    1.56    0.16
   4  -3   5    1.58    0.18
  -5   3  -5    2.75    0.26
  -5   3  -5    2.73    0.27
  -5   3  -5    2.95    0.21
  -5   3  -5    3.07    0.25
  -5   3  -5    2.92    0.23
  -5   3  -5    2.94    0.21
   5  -3   5    2.79    0.29
   5  -3   5    2.93    0.26
   5  -3   5    2.99    0.22
  -6   3  -5    0.88    0.30
  -6   3  -5    0.78    0.16
  -6   3  -5    0.67    0.16
   6  -3   5    0.65    0.15
   6  -3   5    0.96    0.18
  -7   3  -5    9.45    0.37
  -7   3  -5    8.79    0.58
  -7   3  -5    8.13    0.52
   7  -3   5    8.58    0.53
   7  -3   5    9.71    0.56
  -8   3  -5    0.43    0.26
   8  -3   5    0.29    0.17
   8  -3   5    0.26    0.15
  -9   3  -5    0.13    0.19
   9  -3   5    0.28    0.19
   9  -3   5    0.51    0.16
   8   2  -5    0.10    0.20
   8   2  -5    0.21    0.16
  -8  -2   5   -0.25    0.12
  -8  -2   5    0.03    0.14
  -8  -2   5    0.05    0.12
  -8  -2   5   -0.36    0.17
   7   2  -5    0.23    0.12
   7   2  -5   -0.04    0.11
   7   2  -5    0.09    0.18
  -7  -2   5    0.27    0.13
  -7  -2   5   -0.14    0.14
  -7  -2   5    0.12    0.11
  -7  -2   5    0.12    0.14
  -7  -2   5    0.05    0.14
  -7  -2   5   -0.28    0.23
   6   2  -5    0.06    0.09
   6   2  -5   -0.05    0.11
   6   2  -5    0.18    0.12
   6   2  -5    0.03    0.10
   6   2  -5    0.07    0.13
  -6  -2   5   -0.16    0.16
  -6  -2   5   -0.08    0.10
  -6  -2   5    0.10    0.10
  -6  -2   5   -0.03    0.12
  -6  -2   5   -0.01    0.12
  -6  -2   5   -0.12    0.08
  -6  -2   5    0.08    0.12
   5   2  -5    1.83    0.25
   5   2  -5    2.06    0.24
   5   2  -5    1.89    0.27
   5   2  -5    1.81    0.22
   5   2  -5    1.88    0.22
   5   2  -5    1.42    0.21
  -5  -2   5    2.05    0.30
  -5  -2   5    2.06    0.24
  -5  -2   5    1.95    0.23
  -5  -2   5    1.94    0.25
  -5  -2   5    1.91    0.22
  -5  -2   5    1.64    0.20
  -5  -2   5    1.91    0.25
   4   2  -5   26.42    0.79
   4   2  -5   26.34    0.79
   4   2  -5   26.12    0.79
   4   2  -5   26.16    0.83
   4   2  -5   25.96    0.74
   4   2  -5   24.75    0.85
  -4  -2   5   25.62    0.78
  -4  -2   5   26.30    0.75
  -4  -2   5   26.15    0.87
  -4  -2   5   24.78    0.72
  -4  -2   5   26.91    0.82
  -4  -2   5   25.54    0.80
  -4  -2   5   25.13    0.80
   3   2  -5    3.42    0.21
   3   2  -5    3.46    0.25
   3   2  -5    3.94    0.27
   3   2  -5    3.68    0.29
   3   2  -5    3.57    0.28
  -3  -2   5    3.62    0.27
  -3  -2   5    3.70    0.18
  -3  -2   5    3.86    0.29
  -3  -2   5    3.74    0.24
  -3  -2   5    3.32    0.23
  -3  -2   5    3.58    0.26
  -3  -2   5    3.74    0.24
   2   2  -5    7.41    0.29
   2   2  -5    8.11    0.35
  -2  -2   5    7.66    0.35
  -2  -2   5    6.84    0.36
  -2  -2   5    7.60    0.36
  -2  -2   5    7.85    0.36
   1   2  -5    3.56    0.20
   1   2  -5    3.52    0.23
   1   2  -5    3.56    0.23
   1   2  -5    3.88    0.25
  -1  -2   5    3.54    0.20
  -1  -2   5    3.21    0.24
  -1  -2   5    3.16    0.22
  -1  -2   5    3.14    0.23
   0   2  -5    1.69    0.19
   0   2  -5    2.19    0.18
   0   2  -5    1.74    0.21
   0   2  -5    1.98    0.17
   0  -2   5    1.80    0.21
   0  -2   5    1.69    0.19
   0  -2   5    2.20    0.19
   0  -2   5    2.13    0.15
  -1   2  -5  134.74    3.16
  -1   2  -5  136.44    3.06
  -1   2  -5  141.20    3.10
  -1   2  -5  139.80    3.13
  -1   2  -5  137.17    3.16
   1  -2   5  142.24    3.13
   1  -2   5  136.63    3.17
   1  -2   5  135.66    3.10
   1  -2   5  131.84    3.15
  -2   2  -5   54.00    1.27
  -2   2  -5   52.40    1.33
  -2   2  -5   52.71    1.29
  -2   2  -5   54.85    1.35
  -2   2  -5   52.02    1.31
   2  -2   5   54.12    1.34
   2  -2   5   53.82    1.28
   2  -2   5   51.01    1.33
  -3   2  -5    2.17    0.20
  -3   2  -5    1.89    0.18
  -3   2  -5    2.20    0.15
  -3   2  -5    1.97    0.19
  -3   2  -5    2.22    0.17
  -3   2  -5    2.14    0.20
   3  -2   5    1.97    0.15
   3  -2   5    2.41    0.23
   3  -2   5    2.16    0.18
   3  -2   5    2.27    0.19
   3  -2   5    2.10    0.21
  -4   2  -5    0.66    0.12
  -4   2  -5    0.49    0.11
  -4   2  -5    0.61    0.11
  -4   2  -5    0.73    0.15
  -4   2  -5    0.63    0.08
   4  -2   5    0.98    0.18
   4  -2   5    0.53    0.11
   4  -2   5    0.71    0.12
   4  -2   5    0.73    0.10
   4  -2   5    0.66    0.12
  -5   2  -5   -0.03    0.08
  -5   2  -5    0.13    0.06
  -5   2  -5    0.02    0.10
  -5   2  -5    0.05    0.10
  -5   2  -5    0.14    0.11
  -5   2  -5    0.07    0.10
  -5   2  -5    0.16    0.10
   5  -2   5    0.08    0.09
   5  -2   5    0.09    0.08
   5  -2   5    0.02    0.09
  -6   2  -5    0.77    0.17
  -6   2  -5    0.64    0.18
  -6   2  -5    0.59    0.20
  -6   2  -5    0.83    0.15
   6  -2   5    0.72    0.18
   6  -2   5    0.74    0.18
  -7   2  -5    5.41    0.48
  -7   2  -5    4.99    0.40
   7  -2   5    5.26    0.44
   7  -2   5    5.85    0.45
  -8   2  -5    0.53    0.20
   8  -2   5    0.67    0.21
   8  -2   5    0.39    0.15
  -9   2  -5    0.67    0.20
  -9   2  -5    0.48    0.19
   9  -2   5    0.39    0.18
   9   1  -5    0.41    0.20
   9   1  -5    0.60    0.17
  -9  -1   5    0.20    0.21
   8   1  -5    0.27    0.14
  -8  -1   5   -0.16    0.11
  -8  -1   5   -0.11    0.20
  -8  -1   5    0.26    0.14
  -8  -1   5    0.13    0.19
   7   1  -5    0.33    0.15
   7   1  -5    0.37    0.14
  -7  -1   5    0.22    0.15
  -7  -1   5    0.50    0.14
  -7  -1   5    0.26    0.13
  -7  -1   5    0.38    0.14
  -7  -1   5    0.18    0.15
   6   1  -5    6.73    0.41
   6   1  -5    7.13    0.34
   6   1  -5    6.46    0.34
   6   1  -5    7.69    0.46
   6   1  -5    6.89    0.34
  -6  -1   5    6.95    0.46
  -6  -1   5    7.16    0.39
  -6  -1   5    7.02    0.38
  -6  -1   5    7.28    0.38
  -6  -1   5    6.97    0.37
  -6  -1   5    6.85    0.46
  -6  -1   5    7.34    0.35
  -6  -1   5    7.49    0.47
   5   1  -5    0.19    0.10
   5   1  -5    0.17    0.10
   5   1  -5    0.20    0.10
   5   1  -5    0.05    0.10
   5   1  -5    0.12    0.10
  -5  -1   5    0.09    0.10
  -5  -1   5    0.00    0.10
  -5  -1   5    0.23    0.11
  -5  -1   5    0.09    0.12
  -5  -1   5    0.01    0.08
  -5  -1   5    0.09    0.07
   4   1  -5   12.23    0.47
   4   1  -5   11.64    0.44
   4   1  -5   12.22    0.40
   4   1  -5   13.26    0.47
   4   1  -5   12.84    0.50
   4   1  -5   11.97    0.51
  -4  -1   5   12.75    0.53
  -4  -1   5   12.10    0.46
  -4  -1   5   11.85    0.41
  -4  -1   5   12.67    0.49
  -4  -1   5   12.97    0.48
  -4  -1   5   12.11    0.40
   3   1  -5    0.97    0.15
   3   1  -5    0.86    0.15
   3   1  -5    0.91    0.12
   3   1  -5    0.73    0.12
   3   1  -5    0.77    0.12
  -3  -1   5    0.78    0.14
  -3  -1   5    0.86    0.15
  -3  -1   5    0.69    0.10
  -3  -1   5    0.71    0.13
  -3  -1   5    0.85    0.11
   2   1  -5   13.31    0.39
   2   1  -5   13.50    0.47
   2   1  -5   14.16    0.43
   2   1  -5   13.97    0.47
   2   1  -5   13.20    0.47
  -2  -1   5   12.99    0.46
  -2  -1   5   13.59    0.48
  -2  -1   5   13.64    0.45
  -2  -1   5   13.40    0.47
   1   1  -5    0.55    0.12
   1   1  -5    0.43    0.08
   1   1  -5    0.67    0.12
  -1  -1   5    0.61    0.12
  -1  -1   5    0.63    0.10
  -1  -1   5    0.50    0.09
  -1  -1   5    0.46    0.11
   0   1  -5   33.20    0.91
   0   1  -5   33.70    0.91
   0   1  -5   33.06    0.88
   0  -1   5   34.37    0.86
   0  -1   5   32.88    0.91
   0  -1   5   35.23    0.89
   0  -1   5   34.13    0.92
  -1   1  -5   24.04    0.68
  -1   1  -5   25.66    0.65
  -1   1  -5   24.11    0.71
  -1   1  -5   23.93    0.62
  -1   1  -5   23.94    0.70
   1  -1   5   23.40    0.70
   1  -1   5   24.59    0.71
   1  -1   5   24.38    0.63
  -2   1  -5    1.97    0.14
  -2   1  -5    1.84    0.13
  -2   1  -5    1.90    0.19
  -2   1  -5    1.93    0.16
  -2   1  -5    1.77    0.19
  -2   1  -5    1.75    0.18
   2  -1   5    1.82    0.12
   2  -1   5    1.81    0.18
   2  -1   5    1.77    0.18
   2  -1   5    2.01    0.17
  -3   1  -5    1.94    0.19
  -3   1  -5    1.97    0.19
  -3   1  -5    2.10    0.13
  -3   1  -5    1.97    0.16
   3  -1   5    2.16    0.19
   3  -1   5    1.93    0.30
   3  -1   5    1.96    0.18
   3  -1   5    2.01    0.13
   3  -1   5    2.19    0.21
  -4   1  -5    0.74    0.15
  -4   1  -5    0.60    0.13
  -4   1  -5    0.62    0.10
  -4   1  -5    0.63    0.13
  -4   1  -5    0.73    0.13
   4  -1   5    0.88    0.13
   4  -1   5    0.59    0.12
   4  -1   5    0.56    0.13
   4  -1   5    0.96    0.14
  -5   1  -5    0.13    0.10
  -5   1  -5    0.28    0.12
  -5   1  -5    0.35    0.13
  -5   1  -5    0.30    0.11
  -5   1  -5    0.30    0.10
  -5   1  -5    0.22    0.12
   5  -1   5    0.14    0.10
   5  -1   5    0.48    0.11
   5  -1   5    0.21    0.10
   5  -1   5    0.21    0.12
  -6   1  -5    3.24    0.30
  -6   1  -5    2.84    0.34
  -6   1  -5    3.44    0.26
  -6   1  -5    3.00    0.36
  -6   1  -5    3.09    0.23
  -6   1  -5    2.64    0.39
   6  -1   5    3.49    0.30
   6  -1   5    3.22    0.33
   6  -1   5    2.58    0.34
  -7   1  -5    1.85    0.29
   7  -1   5    2.78    0.31
   7  -1   5    1.87    0.27
   7  -1   5    2.53    0.32
  -8   1  -5    0.40    0.18
   8  -1   5    0.51    0.17
   9   0  -5   -0.11    0.14
   9   0  -5    0.03    0.15
  -9   0   5    0.01    0.14
   8   0  -5    0.08    0.12
   8   0  -5   -0.28    0.18
  -8   0   5   -0.06    0.13
   7   0  -5    2.45    0.32
   7   0  -5    2.85    0.32
  -7   0   5    2.31    0.22
  -7   0   5    1.59    0.24
  -7   0   5    1.76    0.23
  -7   0   5    2.50    0.45
  -7   0   5    2.64    0.23
   6   0  -5    2.29    0.28
   6   0  -5    2.40    0.29
   6   0  -5    2.14    0.28
  -6   0   5    2.16    0.29
  -6   0   5    2.68    0.31
  -6   0   5    2.06    0.24
  -6   0   5    2.03    0.23
  -6   0   5    1.48    0.20
  -6   0   5    2.44    0.22
   5   0  -5    0.00    0.09
   5   0  -5    0.06    0.09
   5   0  -5    0.04    0.09
   5   0  -5    0.00    0.10
   5   0  -5   -0.03    0.09
  -5   0   5    0.09    0.10
  -5   0   5   -0.01    0.09
  -5   0   5    0.07    0.09
  -5   0   5    0.08    0.09
  -5   0   5    0.10    0.10
   4   0  -5    5.16    0.28
   4   0  -5    5.12    0.28
   4   0  -5    5.01    0.25
   4   0  -5    4.43    0.30
   4   0  -5    5.53    0.31
   4   0  -5    5.76    0.46
  -4   0   5    4.87    0.44
  -4   0   5    5.26    0.25
  -4   0   5    5.02    0.28
  -4   0   5    5.14    0.30
  -4   0   5    5.66    0.48
   3   0  -5    1.60    0.19
   3   0  -5    1.57    0.18
   3   0  -5    1.68    0.18
   3   0  -5    1.62    0.17
   3   0  -5    1.74    0.14
  -3   0   5    1.78    0.21
  -3   0   5    1.47    0.18
  -3   0   5    1.27    0.19
   2   0  -5   17.76    0.46
   2   0  -5   18.31    0.52
   2   0  -5   16.97    0.55
   2   0  -5   17.65    0.56
   2   0  -5   17.59    0.55
  -2   0   5   18.43    0.57
  -2   0   5   18.27    0.55
  -2   0   5   17.84    0.57
   1   0  -5   27.98    0.76
   1   0  -5   28.18    0.68
   1   0  -5   27.16    0.78
   1   0  -5   27.69    0.79
  -1   0   5   28.87    0.77
  -1   0   5   29.28    0.80
   0   0  -5    3.89    0.22
   0   0  -5    4.53    0.25
   0   0   5    4.18    0.25
   0   0   5    4.14    0.20
   0   0   5    4.30    0.24
  -1   0  -5    0.26    0.09
  -1   0  -5    0.30    0.11
  -1   0  -5    0.37    0.12
   1   0   5    0.27    0.10
   1   0   5    0.28    0.10
   1   0   5    0.27    0.05
  -2   0  -5   12.38    0.45
  -2   0  -5   11.67    0.44
  -2   0  -5   12.39    0.48
   2   0   5   12.55    0.43
   2   0   5   11.35    0.43
   2   0   5   11.98    0.44
   2   0   5   12.35    0.33
   2   0   5   12.24    0.35
  -3   0  -5    3.46    0.28
  -3   0  -5    3.15    0.23
  -3   0  -5    2.79    0.35
   3   0   5    3.10    0.22
   3   0   5    3.01    0.21
   3   0   5    3.28    0.24
   3   0   5    3.37    0.19
  -4   0  -5    2.07    0.21
  -4   0  -5    1.95    0.22
  -4   0  -5    2.52    0.29
  -4   0  -5    2.06    0.20
  -4   0  -5    2.16    0.23
   4   0   5    2.06    0.21
   4   0   5    2.50    0.25
   4   0   5    2.38    0.21
   4   0   5    2.62    0.23
  -5   0  -5    0.14    0.11
  -5   0  -5    0.06    0.10
  -5   0  -5    0.16    0.12
  -5   0  -5    0.11    0.12
  -5   0  -5    0.12    0.11
  -5   0  -5    0.08    0.12
   5   0   5    0.07    0.09
   5   0   5    0.07    0.08
   5   0   5    0.06    0.10
   5   0   5    0.14    0.09
   5   0   5   -0.18    0.08
  -6   0  -5    9.70    0.51
  -6   0  -5   10.89    0.45
  -6   0  -5   10.94    0.60
  -6   0  -5   10.42    0.59
  -6   0  -5   10.77    0.44
   6   0   5   10.70    0.51
   6   0   5   10.09    0.54
   6   0   5   11.62    0.57
  -7   0  -5    0.06    0.15
  -7   0  -5   -0.22    0.10
   7   0   5    0.03    0.12
   7   0   5    0.24    0.13
  -8   0  -5    0.14    0.16
   8   0   5    0.14    0.18
   8   0   5    0.06    0.15
   9  -1  -5   -0.16    0.14
   9  -1  -5   -0.18    0.13
   8  -1  -5    0.18    0.16
   8  -1  -5    0.20    0.18
  -8   1   5    0.04    0.14
  -8   1   5    0.12    0.16
   7  -1  -5    0.10    0.13
   7  -1  -5   -0.02    0.11
  -7   1   5   -0.04    0.10
  -7   1   5   -0.02    0.12
  -7   1   5   -0.23    0.10
   6  -1  -5    7.55    0.43
   6  -1  -5    7.38    0.43
   6  -1  -5    7.26    0.37
   6  -1  -5    6.76    0.40
  -6   1   5    6.98    0.41
  -6   1   5    5.85    0.40
  -6   1   5    6.58    0.33
  -6   1   5    7.11    0.42
  -6   1   5    7.15    0.34
  -6   1   5    6.53    0.36
  -6   1   5    7.15    0.41
   5  -1  -5    0.90    0.15
   5  -1  -5    0.82    0.15
   5  -1  -5    0.94    0.16
   5  -1  -5    1.12    0.15
   5  -1  -5    1.03    0.16
   5  -1  -5    0.61    0.12
  -5   1   5    1.06    0.15
  -5   1   5    0.84    0.16
  -5   1   5    0.85    0.15
  -5   1   5    0.73    0.13
  -5   1   5    0.60    0.14
  -5   1   5    0.54    0.12
   4  -1  -5    3.05    0.23
   4  -1  -5    3.18    0.24
   4  -1  -5    2.88    0.25
   4  -1  -5    3.31    0.25
   4  -1  -5    3.28    0.22
   4  -1  -5    2.97    0.26
  -4   1   5    3.19    0.23
  -4   1   5    2.97    0.25
  -4   1   5    3.38    0.27
  -4   1   5    3.10    0.23
   3  -1  -5   27.34    0.72
   3  -1  -5   26.79    0.75
   3  -1  -5   25.90    0.75
   3  -1  -5   26.94    0.76
   3  -1  -5   27.19    0.76
  -3   1   5   27.63    0.77
  -3   1   5   25.90    0.76
  -3   1   5   26.65    0.74
  -3   1   5   26.63    0.75
   2  -1  -5   13.04    0.43
   2  -1  -5   12.81    0.45
   2  -1  -5   13.28    0.40
   2  -1  -5   13.19    0.46
  -2   1   5   12.86    0.45
  -2   1   5   12.99    0.39
  -2   1   5   13.27    0.47
  -2   1   5   13.44    0.44
   1  -1  -5    0.20    0.10
   1  -1  -5    0.19    0.06
   1  -1  -5    0.15    0.07
   1  -1  -5    0.25    0.10
  -1   1   5    0.28    0.11
  -1   1   5    0.23    0.09
  -1   1   5    0.19    0.08
   0  -1  -5    3.11    0.22
   0  -1  -5    3.36    0.21
   0  -1  -5    3.11    0.22
   0  -1  -5    3.14    0.21
   0   1   5    3.16    0.22
   0   1   5    3.24    0.22
  -1  -1  -5    0.36    0.12
  -1  -1  -5    0.31    0.08
  -1  -1  -5    0.32    0.11
   1   1   5    0.35    0.11
   1   1   5    0.27    0.11
   1   1   5    0.27    0.07
  -2  -1  -5    7.76    0.38
  -2  -1  -5    8.22    0.36
  -2  -1  -5    7.48    0.35
   2   1   5    7.71    0.32
   2   1   5    7.42    0.34
   2   1   5    7.52    0.27
   2   1   5    7.82    0.36
  -3  -1  -5    0.05    0.11
  -3  -1  -5   -0.08    0.08
  -3  -1  -5   -0.11    0.09
   3   1   5   -0.05    0.07
   3   1   5    0.02    0.09
   3   1   5    0.01    0.07
  -4  -1  -5    0.36    0.12
  -4  -1  -5    0.36    0.13
  -4  -1  -5    0.56    0.14
  -4  -1  -5    0.26    0.10
  -4  -1  -5    0.18    0.12
   4   1   5    0.43    0.12
   4   1   5    0.44    0.10
   4   1   5    0.33    0.12
   4   1   5    0.27    0.11
   4   1   5    0.34    0.12
  -5  -1  -5    2.55    0.27
  -5  -1  -5    2.83    0.26
  -5  -1  -5    2.66    0.28
  -5  -1  -5    2.35    0.34
  -5  -1  -5    3.01    0.28
  -5  -1  -5    3.26    0.32
   5   1   5    2.97    0.23
   5   1   5    3.08    0.26
   5   1   5    2.54    0.23
   5   1   5    2.64    0.29
   5   1   5    2.97    0.30
  -6  -1  -5    3.73    0.29
  -6  -1  -5    3.87    0.30
  -6  -1  -5    3.20    0.34
  -6  -1  -5    4.25    0.35
  -6  -1  -5    3.87    0.41
   6   1   5    4.18    0.35
   6   1   5    3.93    0.28
   6   1   5    4.21    0.36
  -7  -1  -5    0.01    0.13
  -7  -1  -5    0.25    0.13
  -7  -1  -5    0.09    0.15
  -7  -1  -5    0.40    0.22
   7   1   5    0.04    0.10
   7   1   5    0.37    0.14
  -8  -1  -5   -0.05    0.15
   8   1   5   -0.19    0.12
   8   1   5    0.01    0.14
   9  -2  -5   -0.12    0.16
   9  -2  -5    0.11    0.12
  -9   2   5    0.00    0.13
   8  -2  -5    0.65    0.27
   8  -2  -5    0.38    0.19
  -8   2   5    0.30    0.14
   7  -2  -5   -0.02    0.09
   7  -2  -5   -0.04    0.11
   7  -2  -5    0.00    0.10
  -7   2   5    0.08    0.13
  -7   2   5   -0.08    0.11
  -7   2   5   -0.04    0.11
   6  -2  -5    0.99    0.18
   6  -2  -5    1.02    0.16
   6  -2  -5    1.14    0.21
   6  -2  -5    1.10    0.19
  -6   2   5    0.96    0.17
  -6   2   5    1.01    0.19
  -6   2   5    0.81    0.17
  -6   2   5    1.07    0.17
  -6   2   5    0.89    0.17
  -6   2   5    1.11    0.17
   5  -2  -5    0.20    0.11
   5  -2  -5    0.08    0.09
   5  -2  -5    0.21    0.10
   5  -2  -5    0.11    0.11
   5  -2  -5    0.17    0.10
   5  -2  -5    0.34    0.12
  -5   2   5    0.13    0.09
  -5   2   5    0.14    0.10
  -5   2   5    0.18    0.09
  -5   2   5    0.20    0.10
  -5   2   5    0.13    0.09
  -5   2   5    0.21    0.10
   4  -2  -5   11.88    0.44
   4  -2  -5   11.34    0.43
   4  -2  -5   11.74    0.45
   4  -2  -5   11.34    0.43
   4  -2  -5   12.02    0.48
   4  -2  -5   11.43    0.42
  -4   2   5   11.73    0.43
  -4   2   5   10.98    0.43
  -4   2   5   11.75    0.52
  -4   2   5   11.31    0.43
  -4   2   5   11.74    0.51
   3  -2  -5   29.94    0.81
   3  -2  -5   29.88    0.91
   3  -2  -5   30.50    0.85
  -3   2   5   30.32    0.82
  -3   2   5   29.24    0.84
  -3   2   5   30.74    0.86
  -3   2   5   30.39    0.81
   2  -2  -5    2.12    0.20
   2  -2  -5    1.85    0.17
   2  -2  -5    1.79    0.19
  -2   2   5    1.91    0.15
  -2   2   5    1.73    0.20
  -2   2   5    1.82    0.18
  -2   2   5    1.96    0.20
   1  -2  -5    6.00    0.27
   1  -2  -5    6.31    0.25
   1  -2  -5    5.87    0.31
   1  -2  -5    5.87    0.31
  -1   2   5    5.73    0.30
  -1   2   5    6.41    0.32
  -1   2   5    5.88    0.26
   0  -2  -5  150.34    3.48
   0  -2  -5  151.58    3.54
   0  -2  -5  152.91    3.54
   0  -2  -5  158.76    3.50
   0   2   5  155.36    3.55
   0   2   5  152.73    3.50
   0   2   5  151.59    3.54
  -1  -2  -5   22.91    0.73
  -1  -2  -5   24.55    0.73
  -1  -2  -5   23.17    0.72
   1   2   5   23.13    0.72
   1   2   5   23.71    0.73
   1   2   5   22.09    0.74
   1   2   5   22.68    0.62
  -2  -2  -5    2.10    0.24
  -2  -2  -5    1.66    0.22
  -2  -2  -5    1.84    0.16
  -2  -2  -5    1.91    0.22
   2   2   5    1.78    0.23
   2   2   5    1.90    0.21
   2   2   5    2.13    0.18
   2   2   5    2.08    0.15
  -3  -2  -5   14.62    0.55
  -3  -2  -5   13.15    0.52
  -3  -2  -5   13.74    0.53
  -3  -2  -5   14.25    0.59
   3   2   5   13.39    0.52
   3   2   5   13.45    0.47
   3   2   5   13.33    0.52
   3   2   5   14.10    0.51
  -4  -2  -5    0.00    0.08
  -4  -2  -5    0.06    0.13
  -4  -2  -5   -0.12    0.08
  -4  -2  -5   -0.04    0.10
  -4  -2  -5   -0.14    0.10
   4   2   5    0.23    0.12
   4   2   5   -0.04    0.08
   4   2   5    0.05    0.09
   4   2   5   -0.03    0.09
  -5  -2  -5    3.66    0.29
  -5  -2  -5    2.90    0.29
  -5  -2  -5    3.56    0.32
  -5  -2  -5    3.47    0.39
  -5  -2  -5    3.34    0.30
   5   2   5    3.03    0.27
   5   2   5    3.42    0.32
   5   2   5    3.18    0.26
   5   2   5    3.93    0.32
  -6  -2  -5    0.13    0.14
  -6  -2  -5    0.19    0.15
  -6  -2  -5    0.34    0.16
  -6  -2  -5   -0.03    0.15
   6   2   5    0.29    0.12
   6   2   5    0.36    0.14
   6   2   5    0.30    0.12
   6   2   5    0.23    0.14
  -7  -2  -5   -0.29    0.14
  -7  -2  -5    0.36    0.15
  -7  -2  -5   -0.07    0.15
  -7  -2  -5    0.16    0.18
   7   2   5    0.23    0.13
   7   2   5    0.11    0.13
   9  -3  -5    0.17    0.18
  -9   3   5   -0.22    0.18
  -9   3   5   -0.21    0.13
   8  -3  -5   -0.08    0.19
   8  -3  -5    0.07    0.13
  -8   3   5   -0.08    0.10
   7  -3  -5    0.56    0.15
   7  -3  -5    0.19    0.14
  -7   3   5    0.19    0.12
  -7   3   5    0.55    0.15
  -7   3   5    0.15    0.14
   6  -3  -5   22.26    0.72
   6  -3  -5   23.58    0.79
   6  -3  -5   23.20    0.82
  -6   3   5   23.54    0.75
  -6   3   5   22.94    0.80
  -6   3   5   21.54    0.78
  -6   3   5   22.90    0.70
  -6   3   5   22.03    0.81
  -6   3   5   21.45    0.68
   5  -3  -5    0.11    0.09
   5  -3  -5    0.24    0.10
   5  -3  -5    0.34    0.11
   5  -3  -5    0.17    0.10
   5  -3  -5    0.16    0.10
  -5   3   5    0.18    0.10
  -5   3   5    0.26    0.11
  -5   3   5   -0.01    0.08
  -5   3   5    0.16    0.09
  -5   3   5    0.13    0.10
   4  -3  -5    3.21    0.27
   4  -3  -5    2.92    0.22
   4  -3  -5    3.29    0.24
   4  -3  -5    3.11    0.25
   4  -3  -5    3.08    0.24
  -4   3   5    3.07    0.24
  -4   3   5    3.04    0.21
  -4   3   5    3.11    0.23
  -4   3   5    3.43    0.25
  -4   3   5    2.67    0.23
   3  -3  -5    1.77    0.21
   3  -3  -5    1.89    0.19
   3  -3  -5    1.92    0.21
  -3   3   5    1.74    0.20
  -3   3   5    1.72    0.14
  -3   3   5    1.84    0.32
  -3   3   5    1.80    0.19
  -3   3   5    1.67    0.18
   2  -3  -5    0.31    0.07
   2  -3  -5    0.29    0.13
   2  -3  -5    0.26    0.12
   2  -3  -5    0.29    0.08
  -2   3   5    0.18    0.12
  -2   3   5    0.29    0.06
  -2   3   5    0.19    0.11
   1  -3  -5   26.29    0.91
   1  -3  -5   27.88    0.76
   1  -3  -5   28.30    0.76
   1  -3  -5   27.91    0.83
  -1   3   5   27.75    0.77
  -1   3   5   28.83    0.85
  -1   3   5   27.24    0.83
   0  -3  -5   33.89    1.00
   0  -3  -5   36.42    0.97
   0  -3  -5   35.06    1.02
   0   3   5   34.20    1.02
   0   3   5   35.41    0.98
   0   3   5   36.75    1.02
  -1  -3  -5    0.09    0.11
  -1  -3  -5    0.23    0.12
  -1  -3  -5    0.20    0.13
   1   3   5    0.20    0.06
   1   3   5    0.06    0.10
   1   3   5    0.15    0.08
   1   3   5    0.33    0.11
  -2  -3  -5    0.92    0.17
  -2  -3  -5    0.75    0.14
  -2  -3  -5    0.79    0.17
  -2  -3  -5    0.85    0.11
   2   3   5    1.09    0.19
   2   3   5    0.89    0.16
   2   3   5    0.74    0.13
  -3  -3  -5    0.64    0.15
  -3  -3  -5    0.85    0.17
  -3  -3  -5    0.79    0.17
  -3  -3  -5    0.36    0.10
   3   3   5    0.57    0.15
   3   3   5    0.85    0.18
   3   3   5    0.71    0.12
   3   3   5    0.65    0.14
  -4  -3  -5    0.74    0.14
  -4  -3  -5    0.63    0.18
  -4  -3  -5    0.53    0.16
  -4  -3  -5    0.76    0.19
  -4  -3  -5    0.69    0.14
   4   3   5    0.94    0.19
   4   3   5    0.80    0.16
   4   3   5    0.60    0.13
   4   3   5    0.99    0.18
  -5  -3  -5    0.02    0.12
  -5  -3  -5    0.08    0.15
  -5  -3  -5    0.23    0.12
  -5  -3  -5    0.58    0.19
  -5  -3  -5    0.62    0.19
   5   3   5    0.24    0.12
   5   3   5    0.15    0.10
   5   3   5    0.41    0.14
   5   3   5    0.18    0.12
  -6  -3  -5    0.85    0.21
  -6  -3  -5    1.12    0.21
  -6  -3  -5    1.03    0.24
  -6  -3  -5    1.06    0.19
   6   3   5    1.05    0.20
   6   3   5    0.73    0.17
   6   3   5    0.49    0.16
  -7  -3  -5    0.58    0.19
  -7  -3  -5   -0.27    0.14
  -7  -3  -5    0.06    0.16
   7   3   5   -0.10    0.14
   7   3   5    0.03    0.13
   7   3   5    0.10    0.12
   9  -4  -5    0.40    0.16
   9  -4  -5    0.21    0.17
  -9   4   5    0.06    0.13
  -9   4   5    0.29    0.15
   8  -4  -5    5.95    0.43
   8  -4  -5    5.36    0.62
  -8   4   5    4.55    0.43
  -8   4   5    4.95    0.36
  -8   4   5    4.54    0.45
   7  -4  -5    0.88    0.19
   7  -4  -5    0.52    0.18
  -7   4   5    0.68    0.18
  -7   4   5    0.62    0.23
  -7   4   5    0.46    0.15
  -7   4   5    0.68    0.16
   6  -4  -5    9.97    0.40
   6  -4  -5   10.68    0.53
   6  -4  -5    9.02    0.40
   6  -4  -5   10.44    0.51
   6  -4  -5    9.89    0.40
  -6   4   5    9.93    0.42
  -6   4   5    8.93    0.45
  -6   4   5    9.55    0.49
  -6   4   5   10.65    0.57
  -6   4   5    9.41    0.41
   5  -4  -5    1.56    0.21
   5  -4  -5    1.45    0.19
   5  -4  -5    2.12    0.25
   5  -4  -5    1.41    0.20
   5  -4  -5    1.71    0.23
  -5   4   5    1.40    0.19
  -5   4   5    1.74    0.21
  -5   4   5    1.42    0.20
  -5   4   5    1.23    0.18
   4  -4  -5    0.54    0.13
   4  -4  -5    0.36    0.13
   4  -4  -5    0.46    0.13
   4  -4  -5    0.50    0.10
  -4   4   5    0.46    0.09
  -4   4   5    0.51    0.10
  -4   4   5    0.49    0.12
  -4   4   5    0.50    0.14
  -4   4   5    0.71    0.15
   3  -4  -5    7.52    0.39
   3  -4  -5    8.08    0.30
   3  -4  -5    8.10    0.31
   3  -4  -5    7.53    0.37
   3  -4  -5    7.68    0.35
  -3   4   5    7.51    0.38
  -3   4   5    8.13    0.35
  -3   4   5    7.93    0.39
   2  -4  -5    1.48    0.21
   2  -4  -5    1.04    0.17
   2  -4  -5    1.19    0.18
   2  -4  -5    1.51    0.17
  -2   4   5    1.29    0.17
  -2   4   5    1.17    0.18
   1  -4  -5    7.05    0.33
   1  -4  -5    6.55    0.37
   1  -4  -5    6.43    0.31
   1  -4  -5    7.25    0.40
  -1   4   5    7.22    0.38
  -1   4   5    7.09    0.34
  -1   4   5    6.35    0.36
  -1   4   5    7.00    0.33
   0  -4  -5   45.86    1.27
   0  -4  -5   44.42    1.25
   0   4   5   42.03    1.55
   0   4   5   43.08    1.24
   0   4   5   47.61    1.15
   0   4   5   44.14    1.21
  -1  -4  -5    1.29    0.21
  -1  -4  -5    1.84    0.25
  -1  -4  -5    1.32    0.21
   1   4   5    1.33    0.23
   1   4   5    0.91    0.14
   1   4   5    1.30    0.13
   1   4   5    1.37    0.21
  -2  -4  -5    0.00    0.07
  -2  -4  -5    0.03    0.11
  -2  -4  -5   -0.15    0.13
  -2  -4  -5    0.12    0.13
   2   4   5   -0.04    0.11
   2   4   5    0.07    0.11
   2   4   5   -0.01    0.10
  -3  -4  -5    0.14    0.09
  -3  -4  -5    0.10    0.12
  -3  -4  -5    0.10    0.14
  -3  -4  -5    0.11    0.14
   3   4   5   -0.13    0.10
   3   4   5    0.01    0.11
  -4  -4  -5    6.22    0.42
  -4  -4  -5    5.41    0.35
  -4  -4  -5    6.48    0.43
  -4  -4  -5    6.30    0.47
  -4  -4  -5    5.12    0.30
   4   4   5    5.80    0.38
   4   4   5    5.39    0.35
   4   4   5    5.57    0.39
   4   4   5    6.10    0.39
  -5  -4  -5    0.11    0.18
  -5  -4  -5   -0.12    0.16
  -5  -4  -5   -0.04    0.15
  -5  -4  -5   -0.01    0.13
  -5  -4  -5   -0.02    0.11
   5   4   5    0.02    0.12
   5   4   5   -0.08    0.10
   5   4   5   -0.06    0.10
  -6  -4  -5    0.09    0.15
  -6  -4  -5   -0.08    0.19
  -6  -4  -5    0.37    0.17
  -6  -4  -5    0.44    0.16
   6   4   5   -0.11    0.09
   6   4   5    0.21    0.14
   6   4   5    0.15    0.13
   9  -5  -5    0.47    0.18
   9  -5  -5    0.34    0.16
  -9   5   5    0.35    0.16
   8  -5  -5    0.06    0.15
   8  -5  -5    0.03    0.14
  -8   5   5    0.19    0.14
  -8   5   5    0.04    0.15
   7  -5  -5    0.58    0.17
   7  -5  -5    0.98    0.21
  -7   5   5    1.12    0.19
  -7   5   5    0.93    0.18
  -7   5   5    0.39    0.28
  -7   5   5    0.91    0.20
  -7   5   5    1.25    0.19
  -7   5   5    0.80    0.27
   6  -5  -5   -0.06    0.11
   6  -5  -5   -0.15    0.12
   6  -5  -5    0.02    0.11
   6  -5  -5    0.15    0.13
  -6   5   5    0.00    0.16
  -6   5   5    0.05    0.11
  -6   5   5    0.01    0.13
  -6   5   5   -0.12    0.08
  -6   5   5   -0.02    0.11
  -6   5   5    0.15    0.13
   5  -5  -5    3.51    0.28
   5  -5  -5    3.33    0.27
   5  -5  -5    3.03    0.31
   5  -5  -5    3.52    0.30
  -5   5   5    3.33    0.28
  -5   5   5    3.40    0.29
  -5   5   5    3.34    0.34
  -5   5   5    3.24    0.21
  -5   5   5    3.06    0.27
   4  -5  -5    0.01    0.12
   4  -5  -5    0.13    0.12
   4  -5  -5    0.11    0.10
  -4   5   5    0.21    0.10
  -4   5   5    0.11    0.09
  -4   5   5    0.07    0.12
  -4   5   5    0.21    0.12
  -4   5   5    0.10    0.06
   3  -5  -5    6.30    0.38
   3  -5  -5    6.74    0.34
   3  -5  -5    6.44    0.32
   3  -5  -5    6.67    0.37
   3  -5  -5    6.91    0.29
  -3   5   5    6.40    0.31
  -3   5   5    6.61    0.39
  -3   5   5    6.37    0.36
  -3   5   5    6.94    0.39
   2  -5  -5   17.31    0.66
   2  -5  -5   18.90    0.59
   2  -5  -5   17.83    0.68
   2  -5  -5   17.57    0.56
   2  -5  -5   18.13    0.56
  -2   5   5   17.38    0.58
  -2   5   5   18.23    0.64
  -2   5   5   17.53    0.66
  -2   5   5   18.10    0.67
   1  -5  -5    0.28    0.13
   1  -5  -5    0.27    0.13
   1  -5  -5    0.23    0.16
  -1   5   5    0.20    0.15
  -1   5   5    0.23    0.10
  -1   5   5    0.16    0.09
  -1   5   5    0.31    0.14
   0  -5  -5    0.01    0.14
   0  -5  -5   -0.02    0.09
   0  -5  -5   -0.05    0.10
   0   5   5    0.05    0.09
   0   5   5    0.00    0.07
   0   5   5   -0.12    0.12
   0   5   5   -0.15    0.11
  -1  -5  -5    0.38    0.13
  -1  -5  -5    0.31    0.16
  -1  -5  -5    0.53    0.17
   1   5   5    0.25    0.12
   1   5   5    0.26    0.15
   1   5   5    0.40    0.16
   1   5   5    0.60    0.09
  -2  -5  -5    0.26    0.19
  -2  -5  -5    0.26    0.09
  -2  -5  -5    0.20    0.12
  -2  -5  -5    0.03    0.15
   2   5   5    0.19    0.14
   2   5   5    0.25    0.16
  -3  -5  -5    4.46    0.41
  -3  -5  -5    4.77    0.42
  -3  -5  -5    4.52    0.39
  -3  -5  -5    4.24    0.30
   3   5   5    4.89    0.37
   3   5   5    3.21    0.37
  -4  -5  -5   -0.17    0.10
  -4  -5  -5    0.10    0.19
  -4  -5  -5    0.25    0.20
  -4  -5  -5   -0.07    0.16
   4   5   5    0.16    0.12
   4   5   5    0.03    0.13
   4   5   5    0.20    0.11
  -5  -5  -5    0.04    0.17
  -5  -5  -5   -0.01    0.22
  -5  -5  -5    0.08    0.16
  -5  -5  -5    0.07    0.17
   5   5   5    0.05    0.14
   5   5   5    0.13    0.13
   5   5   5    0.07    0.10
  -6  -5  -5    0.25    0.19
  -6  -5  -5    0.13    0.21
  -6  -5  -5   -0.50    0.23
  -6  -5  -5   -0.18    0.18
   6   5   5    0.06    0.13
   6   5   5    0.14    0.18
   6   5   5   -0.14    0.15
   9  -6  -5    0.05    0.16
   9  -6  -5   -0.01    0.14
  -9   6   5    0.05    0.16
   8  -6  -5    6.63    0.63
   8  -6  -5    6.66    0.49
  -8   6   5    6.46    0.51
  -8   6   5    5.16    0.41
   7  -6  -5    0.79    0.19
   7  -6  -5    1.03    0.20
   7  -6  -5    1.10    0.18
  -7   6   5    1.26    0.20
  -7   6   5    1.29    0.21
  -7   6   5    1.00    0.16
  -7   6   5    0.84    0.20
   6  -6  -5    0.18    0.15
   6  -6  -5    0.30    0.15
   6  -6  -5    0.43    0.15
   6  -6  -5    0.35    0.15
  -6   6   5    0.25    0.14
  -6   6   5    0.45    0.17
  -6   6   5    0.14    0.13
  -6   6   5    0.15    0.12
   5  -6  -5    0.32    0.14
   5  -6  -5    0.23    0.13
   5  -6  -5    0.44    0.17
   5  -6  -5    0.20    0.14
  -5   6   5    0.39    0.17
  -5   6   5    0.31    0.13
  -5   6   5    0.22    0.11
  -5   6   5    0.42    0.16
   4  -6  -5    2.49    0.26
   4  -6  -5    2.64    0.28
   4  -6  -5    2.65    0.29
  -4   6   5    2.41    0.29
  -4   6   5    2.47    0.30
  -4   6   5    2.53    0.22
  -4   6   5    2.55    0.29
   3  -6  -5    0.38    0.14
   3  -6  -5    0.28    0.11
   3  -6  -5    0.07    0.10
   3  -6  -5    0.23    0.19
   3  -6  -5    0.16    0.08
  -3   6   5    0.35    0.14
  -3   6   5    0.21    0.12
  -3   6   5    0.20    0.15
   2  -6  -5    5.76    0.34
   2  -6  -5    4.97    0.27
   2  -6  -5    5.00    0.37
   2  -6  -5    4.99    0.39
   2  -6  -5    5.15    0.27
  -2   6   5    4.88    0.36
  -2   6   5    5.12    0.34
  -2   6   5    5.20    0.31
  -2   6   5    5.29    0.37
   1  -6  -5    0.11    0.17
   1  -6  -5    0.25    0.14
   1  -6  -5    0.07    0.10
  -1   6   5    0.01    0.08
  -1   6   5    0.13    0.09
  -1   6   5    0.05    0.12
  -1   6   5    0.11    0.14
   0  -6  -5   -0.07    0.15
   0  -6  -5    0.15    0.12
   0  -6  -5   -0.07    0.17
   0   6   5    0.27    0.16
   0   6   5    0.11    0.15
   0   6   5    0.05    0.15
   0   6   5    0.01    0.10
  -1  -6  -5   -0.23    0.15
  -1  -6  -5    0.08    0.18
  -1  -6  -5    0.30    0.14
   1   6   5    0.08    0.16
   1   6   5    0.24    0.17
   1   6   5    0.31    0.08
   1   6   5    0.36    0.16
  -2  -6  -5    1.57    0.28
  -2  -6  -5    1.96    0.31
  -2  -6  -5    1.43    0.21
  -2  -6  -5    1.65    0.25
   2   6   5    2.27    0.30
   2   6   5    1.45    0.22
  -3  -6  -5    0.02    0.10
  -3  -6  -5   -0.06    0.19
  -3  -6  -5    0.00    0.14
  -3  -6  -5   -0.10    0.16
   3   6   5   -0.16    0.13
   3   6   5   -0.02    0.07
  -4  -6  -5    0.20    0.15
  -4  -6  -5    0.55    0.21
  -4  -6  -5    0.16    0.16
   4   6   5    0.19    0.12
   4   6   5    0.26    0.16
   4   6   5    0.26    0.12
  -5  -6  -5    0.23    0.21
  -5  -6  -5    0.02    0.21
  -5  -6  -5    0.29    0.18
  -5  -6  -5    0.33    0.23
   5   6   5    0.26    0.17
   5   6   5    0.10    0.11
   5   6   5    0.41    0.16
   9  -7  -5    0.21    0.15
   9  -7  -5    0.30    0.17
  -9   7   5   -0.01    0.15
   8  -7  -5    0.32    0.17
   8  -7  -5    0.31    0.16
  -8   7   5    0.56    0.16
  -8   7   5    0.27    0.15
  -8   7   5    0.56    0.14
   7  -7  -5    0.00    0.16
   7  -7  -5   -0.11    0.15
   7  -7  -5    0.12    0.15
   7  -7  -5    0.12    0.14
  -7   7   5   -0.37    0.17
  -7   7   5    0.02    0.13
  -7   7   5   -0.12    0.12
   6  -7  -5   -0.08    0.15
   6  -7  -5    0.24    0.17
   6  -7  -5    0.09    0.13
   6  -7  -5   -0.23    0.13
  -6   7   5    0.00    0.15
  -6   7   5    0.15    0.14
  -6   7   5    0.05    0.12
  -6   7   5    0.15    0.16
   5  -7  -5    0.90    0.22
   5  -7  -5    0.42    0.14
   5  -7  -5    0.65    0.19
  -5   7   5    0.56    0.18
  -5   7   5    0.38    0.13
  -5   7   5    0.48    0.16
  -5   7   5    0.49    0.23
  -5   7   5    0.47    0.17
   4  -7  -5    0.01    0.30
   4  -7  -5   -0.02    0.10
   4  -7  -5   -0.26    0.14
   4  -7  -5    0.19    0.19
  -4   7   5   -0.02    0.14
  -4   7   5    0.21    0.17
  -4   7   5    0.00    0.09
  -4   7   5    0.14    0.12
   3  -7  -5    0.14    0.18
   3  -7  -5    0.06    0.10
   3  -7  -5   -0.02    0.08
   3  -7  -5   -0.04    0.09
  -3   7   5   -0.22    0.11
  -3   7   5    0.01    0.09
  -3   7   5    0.07    0.09
  -3   7   5   -0.05    0.13
   2  -7  -5    6.22    0.32
   2  -7  -5    7.13    0.41
   2  -7  -5    6.26    0.47
  -2   7   5    5.91    0.44
  -2   7   5    6.01    0.44
  -2   7   5    6.66    0.39
  -2   7   5    6.41    0.39
   1  -7  -5    1.09    0.18
   1  -7  -5    0.81    0.25
  -1   7   5    1.30    0.24
  -1   7   5    1.10    0.24
  -1   7   5    1.20    0.18
  -1   7   5    1.72    0.23
   0  -7  -5    3.41    0.59
   0  -7  -5    5.17    0.41
   0  -7  -5    4.76    0.46
   0   7   5    4.22    0.28
   0   7   5    4.51    0.41
   0   7   5    3.89    0.39
   0   7   5    4.50    0.40
  -1  -7  -5   -0.25    0.20
  -1  -7  -5   -0.06    0.13
  -1  -7  -5   -0.04    0.18
   1   7   5    0.04    0.13
   1   7   5    0.01    0.07
   1   7   5   -0.21    0.12
  -2  -7  -5    0.75    0.38
  -2  -7  -5    0.22    0.26
  -2  -7  -5    0.36    0.12
  -2  -7  -5    0.27    0.16
   2   7   5    0.46    0.19
  -3  -7  -5   -0.16    0.13
  -3  -7  -5    0.38    0.27
  -3  -7  -5    0.26    0.20
   3   7   5    0.16    0.16
   3   7   5    0.12    0.10
  -4  -7  -5    0.55    0.23
  -4  -7  -5    0.07    0.27
  -4  -7  -5    0.17    0.19
  -4  -7  -5    0.32    0.19
  -4  -7  -5    0.01    0.19
   4   7   5    0.32    0.12
   4   7   5    0.35    0.16
   4   7   5    0.57    0.20
   9  -8  -5    0.05    0.16
   9  -8  -5    0.17    0.18
  -9   8   5   -0.32    0.15
   8  -8  -5    0.19    0.15
   8  -8  -5    0.11    0.15
  -8   8   5   -0.09    0.14
  -8   8   5    0.39    0.20
  -8   8   5    0.23    0.16
   7  -8  -5   -0.15    0.17
   7  -8  -5    0.32    0.16
   7  -8  -5    0.10    0.15
  -7   8   5   -0.02    0.15
  -7   8   5    0.04    0.17
  -7   8   5    0.08    0.16
   6  -8  -5   -0.12    0.16
   6  -8  -5   -0.12    0.12
   6  -8  -5    0.04    0.16
  -6   8   5   -0.07    0.10
  -6   8   5    0.13    0.16
  -6   8   5   -0.17    0.23
  -6   8   5    0.08    0.15
   5  -8  -5    0.10    0.21
   5  -8  -5    0.06    0.12
  -5   8   5   -0.03    0.11
  -5   8   5    0.26    0.17
  -5   8   5    0.09    0.16
  -5   8   5    0.00    0.13
   4  -8  -5   -0.04    0.18
   4  -8  -5    0.10    0.12
   4  -8  -5    0.16    0.11
  -4   8   5    0.04    0.11
  -4   8   5   -0.04    0.16
  -4   8   5    0.16    0.17
  -4   8   5   -0.03    0.11
   3  -8  -5    0.18    0.22
   3  -8  -5    0.14    0.13
   3  -8  -5    0.25    0.10
   3  -8  -5    0.14    0.11
  -3   8   5    0.29    0.18
  -3   8   5    0.17    0.20
  -3   8   5    0.15    0.12
  -3   8   5    0.34    0.13
   2  -8  -5    7.29    0.47
   2  -8  -5    6.12    0.54
   2  -8  -5    5.07    0.53
  -2   8   5    6.64    0.41
  -2   8   5    6.78    0.44
  -2   8   5    6.23    0.51
  -2   8   5    5.62    0.82
   1  -8  -5    0.08    0.21
   1  -8  -5   -0.08    0.26
   1  -8  -5    0.27    0.15
  -1   8   5    0.14    0.13
  -1   8   5   -0.12    0.18
  -1   8   5    0.23    0.10
  -1   8   5    0.07    0.16
   0  -8  -5    0.01    0.18
   0  -8  -5   -0.26    0.32
   0  -8  -5   -0.19    0.13
   0   8   5    0.05    0.08
   0   8   5   -0.23    0.12
  -1  -8  -5    0.21    0.25
  -1  -8  -5    0.50    0.23
   1   8   5    0.43    0.09
   1   8   5    0.20    0.18
  -2  -8  -5    0.28    0.20
  -2  -8  -5    0.17    0.18
   2   8   5    0.38    0.20
  -3  -8  -5   -0.03    0.18
  -3  -8  -5   -0.15    0.17
  -3  -8  -5   -0.26    0.17
  -3  -8  -5   -0.05    0.22
   3   8   5    0.09    0.15
   3   8   5    0.18    0.11
   8  -9  -5   -0.20    0.14
   8  -9  -5   -0.04    0.18
   8  -9  -5    0.08    0.22
  -8   9   5    0.09    0.19
  -8   9   5   -0.19    0.15
  -8   9   5    0.19    0.17
   7  -9  -5   -0.19    0.20
   7  -9  -5    0.00    0.15
   7  -9  -5    0.26    0.17
  -7   9   5    0.45    0.21
  -7   9   5    0.13    0.14
  -7   9   5    0.14    0.18
   6  -9  -5   -0.27    0.20
   6  -9  -5    0.13    0.16
  -6   9   5    0.05    0.12
  -6   9   5   -0.12    0.19
  -6   9   5    0.14    0.16
   5  -9  -5    0.11    0.14
   5  -9  -5    0.37    0.20
  -5   9   5    0.06    0.15
  -5   9   5    0.01    0.12
  -5   9   5    0.07    0.19
  -5   9   5    0.06    0.18
   4  -9  -5    1.56    0.21
   4  -9  -5    2.70    0.35
  -4   9   5    2.36    0.41
  -4   9   5    1.45    0.21
  -4   9   5    2.50    0.34
  -4   9   5    1.77    0.31
   3  -9  -5    0.55    0.22
   3  -9  -5    0.28    0.15
  -3   9   5    0.16    0.12
  -3   9   5    0.20    0.20
  -3   9   5   -0.12    0.13
   2  -9  -5    0.23    0.23
   2  -9  -5    0.28    0.17
  -2   9   5    0.07    0.14
  -2   9   5    0.29    0.19
  -2   9   5    0.29    0.13
   1  -9  -5    0.90    0.20
   1  -9  -5    1.50    0.32
  -1   9   5    1.38    0.33
  -1   9   5    1.25    0.18
   0  -9  -5    0.34    0.22
   0  -9  -5    0.08    0.17
   0   9   5    0.35    0.11
   0   9   5    0.61    0.32
  -1  -9  -5    0.68    0.33
  -1  -9  -5    1.58    0.34
  -1  -9  -5    0.93    0.22
   1   9   5    0.90    0.13
  -2  -9  -5    0.92    0.31
  -2  -9  -5    0.47    0.22
  -2  -9  -5    0.55    0.22
   2   9   5    0.62    0.14
   2   9   5    0.88    0.24
   7 -10  -5   -0.29    0.18
   7 -10  -5    0.17    0.18
  -7  10   5   -0.14    0.14
  -7  10   5    0.20    0.19
   6 -10  -5    0.01    0.14
   6 -10  -5   -0.07    0.17
   6 -10  -5    0.55    0.26
  -6  10   5    0.19    0.22
  -6  10   5    0.04    0.13
  -6  10   5   -0.11    0.15
  -6  10   5    0.40    0.20
   5 -10  -5    0.80    0.27
   5 -10  -5    0.33    0.16
  -5  10   5    0.61    0.24
  -5  10   5    0.38    0.24
  -5  10   5    0.34    0.15
   4 -10  -5    7.81    0.51
   4 -10  -5    8.63    0.61
  -4  10   5    4.93    0.48
  -4  10   5    6.67    0.50
  -4  10   5    6.50    0.53
  -4  10   5    5.56    0.61
   3 -10  -5    3.54    0.43
   3 -10  -5    4.88    0.53
  -3  10   5    3.14    0.41
  -3  10   5    3.00    0.44
   2 -10  -5   -0.04    0.17
   2 -10  -5    0.20    0.15
   2 -10  -5   -0.10    0.42
  -2  10   5   -0.19    0.09
  -2  10   5    0.08    0.16
   1 -10  -5   -0.14    0.15
   1 -10  -5   -0.02    0.16
   1 -10  -5    0.11    0.22
  -1  10   5    0.19    0.11
  -1  10   5    0.27    0.20
   0 -10  -5    0.26    0.29
   0 -10  -5    0.18    0.19
   0 -10  -5    0.16    0.18
   0  10   5    0.54    0.21
   0  10   5    0.27    0.11
   5 -11  -5    0.13    0.23
  -5  11   5    0.06    0.20
  -5  11   5    0.00    0.16
   4 -11  -5    0.12    0.16
   4 -11  -5    0.33    0.25
  -4  11   5    0.14    0.20
  -4  11   5    0.00    0.14
   3 -11  -5    0.13    0.26
   3 -11  -5    0.24    0.17
  -3  11   5   -0.05    0.10
  -3  11   5    0.23    0.20
   2 -11  -5    0.10    0.18
   2 -11  -5   -0.02    0.24
   2 -11  -5   -0.08    0.16
  -2  11   5    0.09    0.21
   0  11  -6    0.32    0.24
   0  11  -6    0.39    0.15
   0 -11   6    0.39    0.26
   0 -11   6    0.10    0.19
  -1  11  -6    0.07    0.11
  -1  11  -6    0.24    0.22
   1 -11   6    0.12    0.25
   1 -11   6   -0.11    0.14
  -2  11  -6    0.13    0.12
  -2  11  -6   -0.17    0.19
   2 -11   6   -0.14    0.13
   2 -11   6   -0.16    0.13
   2 -11   6    0.25    0.24
  -3  11  -6    0.01    0.12
  -3  11  -6   -0.08    0.17
  -3  11  -6   -0.31    0.18
   3 -11   6   -0.21    0.12
   3 -11   6    0.09    0.23
   3 -11   6   -0.09    0.12
  -4  11  -6    0.55    0.24
  -4  11  -6    0.56    0.20
  -4  11  -6    0.35    0.15
   4 -11   6    0.53    0.19
   4 -11   6    0.47    0.29
  -5  11  -6   -0.47    0.20
  -5  11  -6   -0.05    0.12
  -5  11  -6    0.26    0.21
   5 -11   6    0.27    0.16
   5 -11   6    0.03    0.25
  -6  11  -6    0.06    0.19
  -6  11  -6    0.20    0.14
  -6  11  -6   -0.48    0.23
   6 -11   6    0.02    0.24
   6 -11   6    0.30    0.17
   6 -11   6   -0.03    0.17
   2  10  -6   -0.23    0.19
   2  10  -6   -0.04    0.10
  -2 -10   6   -0.04    0.25
  -2 -10   6   -0.30    0.18
   1  10  -6   -0.01    0.10
   1  10  -6    0.36    0.21
  -1 -10   6    0.03    0.16
  -1 -10   6   -0.44    0.20
   0  10  -6    0.45    0.24
   0  10  -6    0.10    0.11
   0 -10   6    0.04    0.16
   0 -10   6    0.06    0.23
  -1  10  -6    0.00    0.10
  -1  10  -6   -0.20    0.14
   1 -10   6   -0.02    0.22
   1 -10   6   -0.18    0.14
  -2  10  -6    0.05    0.13
  -2  10  -6    0.19    0.12
  -2  10  -6    0.04    0.11
  -2  10  -6   -0.05    0.16
   2 -10   6    0.22    0.20
   2 -10   6    0.05    0.13
   2 -10   6   -0.05    0.13
  -3  10  -6    0.07    0.16
  -3  10  -6    0.02    0.11
  -3  10  -6    0.11    0.13
  -3  10  -6    0.19    0.20
  -3  10  -6   -0.23    0.12
   3 -10   6    0.16    0.14
   3 -10   6    0.20    0.21
   3 -10   6   -0.08    0.10
  -4  10  -6    0.53    0.20
  -4  10  -6   -0.18    0.35
  -4  10  -6    0.30    0.14
  -4  10  -6    0.40    0.18
   4 -10   6    0.54    0.23
   4 -10   6    0.21    0.14
  -5  10  -6    0.11    0.13
  -5  10  -6   -0.32    0.21
  -5  10  -6    0.17    0.19
   5 -10   6   -0.04    0.12
   5 -10   6    0.05    0.19
  -6  10  -6    0.17    0.21
  -6  10  -6   -0.02    0.12
  -6  10  -6    0.52    0.20
   6 -10   6    0.08    0.16
   6 -10   6    0.58    0.33
   6 -10   6    0.12    0.15
  -7  10  -6    0.19    0.19
  -7  10  -6   -0.05    0.15
  -7  10  -6   -0.16    0.22
   7 -10   6   -0.09    0.15
   7 -10   6   -0.17    0.14
   7 -10   6   -0.20    0.19
   3   9  -6    0.33    0.20
  -3  -9   6    0.13    0.19
  -3  -9   6   -0.06    0.14
  -3  -9   6   -0.41    0.20
   2   9  -6   -0.15    0.16
   2   9  -6    0.10    0.11
  -2  -9   6    0.14    0.23
  -2  -9   6   -0.13    0.17
   1   9  -6    0.20    0.17
   1   9  -6    0.19    0.21
  -1  -9   6    0.02    0.21
  -1  -9   6    0.02    0.15
   0   9  -6    0.20    0.11
   0   9  -6    0.15    0.15
   0   9  -6    0.26    0.18
   0  -9   6    0.46    0.22
   0  -9   6    0.12    0.14
  -1   9  -6    0.06    0.21
  -1   9  -6    0.20    0.13
  -1   9  -6    0.06    0.10
  -1   9  -6    0.12    0.16
   1  -9   6   -0.07    0.12
   1  -9   6    0.10    0.19
  -2   9  -6    0.33    0.19
  -2   9  -6    0.08    0.11
  -2   9  -6    0.26    0.21
  -2   9  -6    0.14    0.12
   2  -9   6    0.28    0.13
   2  -9   6    0.15    0.18
   2  -9   6    0.08    0.13
  -3   9  -6    0.85    0.24
  -3   9  -6    1.08    0.24
  -3   9  -6    1.20    0.20
  -3   9  -6    0.93    0.16
  -3   9  -6    0.79    0.16
   3  -9   6    0.85    0.26
   3  -9   6    0.64    0.15
   3  -9   6    1.13    0.19
  -4   9  -6    1.12    0.24
  -4   9  -6    0.50    0.18
  -4   9  -6    0.65    0.18
  -4   9  -6    0.48    0.20
   4  -9   6    0.97    0.19
   4  -9   6    0.92    0.24
  -5   9  -6    0.03    0.12
  -5   9  -6   -0.32    0.17
  -5   9  -6    0.04    0.19
   5  -9   6    0.30    0.17
   5  -9   6   -0.04    0.14
   5  -9   6    0.05    0.18
  -6   9  -6    0.06    0.17
  -6   9  -6    0.13    0.16
  -6   9  -6    0.00    0.13
   6  -9   6    0.05    0.14
   6  -9   6    0.08    0.18
   6  -9   6    0.03    0.17
  -7   9  -6    0.36    0.20
  -7   9  -6    0.68    0.19
  -7   9  -6    0.01    0.12
   7  -9   6    0.05    0.14
   7  -9   6    0.40    0.18
   7  -9   6    0.56    0.18
  -8   9  -6    0.05    0.14
  -8   9  -6    0.16    0.18
   8  -9   6    0.05    0.19
   8  -9   6    0.07    0.16
   4   8  -6    0.40    0.22
  -4  -8   6    0.32    0.16
  -4  -8   6    0.53    0.25
  -4  -8   6    0.34    0.22
   3   8  -6    0.99    0.28
  -3  -8   6    0.50    0.23
  -3  -8   6    0.57    0.20
  -3  -8   6    0.77    0.32
  -3  -8   6    0.55    0.19
   2   8  -6    0.13    0.17
   2   8  -6    0.26    0.13
  -2  -8   6    0.36    0.16
  -2  -8   6    0.01    0.20
  -2  -8   6    0.16    0.15
  -2  -8   6    0.15    0.22
   1   8  -6    3.66    0.38
   1   8  -6    3.60    0.32
   1   8  -6    4.12    0.41
  -1  -8   6    4.04    0.45
  -1  -8   6    4.31    0.39
  -1  -8   6    4.21    0.46
   0   8  -6    0.05    0.09
   0   8  -6    0.19    0.13
   0   8  -6    0.24    0.17
   0   8  -6    0.24    0.18
   0  -8   6    0.13    0.14
   0  -8   6   -0.10    0.11
   0  -8   6    0.15    0.19
   0  -8   6    0.29    0.20
  -1   8  -6    0.75    0.15
  -1   8  -6    0.87    0.22
  -1   8  -6    0.75    0.16
  -1   8  -6    1.22    0.34
   1  -8   6    0.54    0.16
   1  -8   6    0.83    0.16
   1  -8   6    0.80    0.25
   1  -8   6    1.17    0.25
  -2   8  -6    5.09    0.43
  -2   8  -6    4.68    0.34
  -2   8  -6    4.61    0.42
  -2   8  -6    4.28    0.35
   2  -8   6    5.39    0.34
   2  -8   6    5.00    0.46
   2  -8   6    4.77    0.33
  -3   8  -6    0.88    0.18
  -3   8  -6    1.04    0.16
  -3   8  -6    1.48    0.25
  -3   8  -6    1.12    0.25
   3  -8   6    1.13    0.27
   3  -8   6    1.02    0.17
   3  -8   6    0.68    0.20
   3  -8   6    1.03    0.18
  -4   8  -6    5.70    0.44
  -4   8  -6    5.46    0.58
  -4   8  -6    4.75    0.39
  -4   8  -6    5.62    0.44
  -4   8  -6    4.70    0.39
  -4   8  -6    5.43    0.39
   4  -8   6    5.92    0.46
   4  -8   6    5.58    0.40
  -5   8  -6    1.66    0.28
  -5   8  -6    1.07    0.19
  -5   8  -6    2.29    0.32
  -5   8  -6    2.19    0.33
   5  -8   6    1.48    0.23
   5  -8   6    1.18    0.21
   5  -8   6    1.42    0.24
  -6   8  -6    0.30    0.15
  -6   8  -6    0.24    0.13
  -6   8  -6    0.19    0.16
   6  -8   6   -0.02    0.13
   6  -8   6    0.34    0.27
   6  -8   6    0.03    0.14
  -7   8  -6    0.12    0.15
  -7   8  -6    0.14    0.16
  -7   8  -6    0.47    0.17
   7  -8   6    0.09    0.13
   7  -8   6    0.05    0.13
   7  -8   6   -0.01    0.15
  -8   8  -6    0.12    0.14
  -8   8  -6   -0.03    0.13
   8  -8   6   -0.21    0.13
   8  -8   6    0.11    0.16
   5   7  -6    0.29    0.17
   5   7  -6    0.32    0.21
  -5  -7   6    0.23    0.15
  -5  -7   6    0.06    0.18
  -5  -7   6   -0.08    0.24
  -5  -7   6   -0.13    0.18
  -5  -7   6   -0.18    0.26
   4   7  -6    0.46    0.12
   4   7  -6    0.54    0.20
  -4  -7   6    0.66    0.47
  -4  -7   6    0.41    0.20
  -4  -7   6    0.22    0.19
  -4  -7   6    0.25    0.16
   3   7  -6   -0.07    0.08
   3   7  -6    0.20    0.16
  -3  -7   6    0.11    0.24
  -3  -7   6   -0.19    0.13
  -3  -7   6    0.21    0.15
  -3  -7   6    0.09    0.22
  -3  -7   6    0.30    0.20
   2   7  -6    4.43    0.34
   2   7  -6    4.98    0.43
   2   7  -6    4.70    0.42
   2   7  -6    3.78    0.36
  -2  -7   6    5.22    0.42
  -2  -7   6    3.93    0.36
  -2  -7   6    4.09    0.41
  -2  -7   6    4.70    0.42
  -2  -7   6    4.41    0.43
   1   7  -6   -0.08    0.12
   1   7  -6   -0.14    0.12
   1   7  -6    0.04    0.08
   1   7  -6   -0.19    0.13
   1   7  -6   -0.07    0.11
  -1  -7   6   -0.02    0.09
  -1  -7   6    0.16    0.14
  -1  -7   6   -0.08    0.16
  -1  -7   6   -0.05    0.15
   0   7  -6    1.38    0.29
   0   7  -6    0.89    0.18
   0   7  -6    1.04    0.18
   0   7  -6    1.14    0.16
   0   7  -6    1.45    0.28
   0  -7   6    1.07    0.23
   0  -7   6    1.50    0.20
   0  -7   6    1.14    0.25
  -1   7  -6    0.49    0.21
  -1   7  -6    0.54    0.13
  -1   7  -6    0.54    0.21
  -1   7  -6    0.66    0.14
  -1   7  -6    0.49    0.15
   1  -7   6    0.67    0.15
   1  -7   6    0.24    0.10
   1  -7   6    0.24    0.13
   1  -7   6    0.51    0.21
   1  -7   6    0.28    0.18
  -2   7  -6    3.82    0.32
  -2   7  -6    3.38    0.40
  -2   7  -6    4.32    0.31
  -2   7  -6    4.19    0.36
  -2   7  -6    3.28    0.40
   2  -7   6    2.99    0.43
   2  -7   6    4.16    0.32
   2  -7   6    3.63    0.37
   2  -7   6    3.93    0.36
   2  -7   6    3.51    0.32
  -3   7  -6   35.38    1.12
  -3   7  -6   34.44    1.03
  -3   7  -6   34.04    0.98
  -3   7  -6   33.46    1.09
   3  -7   6   34.62    1.21
   3  -7   6   30.80    1.24
   3  -7   6   33.32    1.00
   3  -7   6   32.52    1.07
   3  -7   6   35.03    0.98
  -4   7  -6    0.11    0.16
  -4   7  -6   -0.28    0.18
  -4   7  -6    0.03    0.12
  -4   7  -6    0.11    0.12
  -4   7  -6    0.23    0.15
   4  -7   6    0.22    0.19
   4  -7   6    0.32    0.17
   4  -7   6    0.08    0.19
   4  -7   6   -0.14    0.12
  -5   7  -6    0.46    0.17
  -5   7  -6    0.33    0.12
  -5   7  -6    0.37    0.15
  -5   7  -6    0.21    0.17
  -5   7  -6    0.18    0.20
   5  -7   6    0.23    0.14
   5  -7   6    0.26    0.15
   5  -7   6    0.09    0.15
   5  -7   6    0.18    0.15
   5  -7   6    0.20    0.12
  -6   7  -6   -0.04    0.09
  -6   7  -6   -0.08    0.11
  -6   7  -6   -0.09    0.14
  -6   7  -6   -0.11    0.14
   6  -7   6    0.04    0.12
   6  -7   6   -0.01    0.11
   6  -7   6    0.04    0.13
   6  -7   6    0.15    0.13
  -7   7  -6    0.51    0.15
  -7   7  -6    0.44    0.16
  -7   7  -6    0.25    0.13
   7  -7   6    0.29    0.17
   7  -7   6    0.34    0.19
  -8   7  -6    0.18    0.13
   8  -7   6    0.21    0.15
   6   6  -6    0.13    0.11
   6   6  -6    0.06    0.19
   6   6  -6   -0.04    0.16
  -6  -6   6   -0.23    0.15
  -6  -6   6    0.18    0.18
  -6  -6   6   -0.21    0.14
  -6  -6   6    0.26    0.24
  -6  -6   6   -0.16    0.17
   5   6  -6   -0.08    0.16
   5   6  -6   -0.02    0.11
   5   6  -6   -0.09    0.09
  -5  -6   6    0.15    0.15
  -5  -6   6    0.12    0.12
  -5  -6   6    0.41    0.19
  -5  -6   6    0.20    0.13
  -5  -6   6   -0.20    0.15
   4   6  -6    0.77    0.14
   4   6  -6    0.83    0.19
   4   6  -6    1.62    0.29
  -4  -6   6    0.76    0.17
  -4  -6   6    1.00    0.22
  -4  -6   6    1.00    0.27
  -4  -6   6    0.94    0.19
  -4  -6   6    0.78    0.22
   3   6  -6    3.79    0.38
   3   6  -6    2.58    0.36
   3   6  -6    2.65    0.31
  -3  -6   6    3.41    0.38
  -3  -6   6    3.78    0.36
  -3  -6   6    3.87    0.39
  -3  -6   6    3.74    0.39
  -3  -6   6    3.31    0.32
   2   6  -6   -0.14    0.11
   2   6  -6   -0.13    0.09
   2   6  -6   -0.03    0.14
   2   6  -6   -0.01    0.07
  -2  -6   6    0.09    0.10
  -2  -6   6   -0.07    0.11
  -2  -6   6    0.08    0.10
  -2  -6   6   -0.01    0.14
  -2  -6   6   -0.07    0.14
   1   6  -6    0.37    0.13
   1   6  -6    0.38    0.13
   1   6  -6    0.84    0.19
   1   6  -6    0.41    0.11
   1   6  -6    0.63    0.19
  -1  -6   6    0.44    0.19
  -1  -6   6    0.60    0.18
  -1  -6   6    0.62    0.13
  -1  -6   6    0.47    0.21
   0   6  -6   12.43    0.58
   0   6  -6   11.60    0.51
   0   6  -6   11.94    0.50
   0   6  -6   11.75    0.56
   0   6  -6   12.11    0.52
   0  -6   6   11.86    0.56
   0  -6   6   11.94    0.51
   0  -6   6   12.53    0.52
   0  -6   6   11.81    0.59
  -1   6  -6   18.69    0.72
  -1   6  -6   17.73    0.63
  -1   6  -6   17.79    0.70
  -1   6  -6   17.72    0.66
  -1   6  -6   18.17    0.63
   1  -6   6   17.06    0.54
   1  -6   6   18.46    0.63
   1  -6   6   17.44    0.69
   1  -6   6   16.59    0.62
   1  -6   6   17.34    0.73
  -2   6  -6    1.84    0.27
  -2   6  -6    2.78    0.25
  -2   6  -6    2.44    0.29
  -2   6  -6    2.11    0.27
  -2   6  -6    2.15    0.25
   2  -6   6    1.80    0.24
   2  -6   6    2.02    0.26
   2  -6   6    2.15    0.44
   2  -6   6    1.88    0.22
   2  -6   6    2.47    0.31
  -3   6  -6    0.41    0.12
  -3   6  -6    0.32    0.14
  -3   6  -6    0.61    0.18
   3  -6   6    0.45    0.15
   3  -6   6    0.31    0.10
   3  -6   6    0.67    0.19
   3  -6   6    0.32    0.15
   3  -6   6    0.28    0.12
  -4   6  -6    0.18    0.13
  -4   6  -6    0.11    0.14
  -4   6  -6    0.18    0.19
  -4   6  -6    0.22    0.12
   4  -6   6    0.11    0.13
   4  -6   6    0.29    0.13
   4  -6   6    0.00    0.07
   4  -6   6    0.19    0.11
   4  -6   6    0.05    0.12
  -5   6  -6    0.20    0.12
  -5   6  -6    0.05    0.11
  -5   6  -6   -0.07    0.10
  -5   6  -6    0.23    0.12
  -5   6  -6    0.15    0.13
  -5   6  -6   -0.04    0.14
   5  -6   6   -0.01    0.12
   5  -6   6    0.03    0.12
   5  -6   6    0.11    0.11
   5  -6   6    0.10    0.11
   5  -6   6    0.12    0.12
   5  -6   6    0.07    0.09
  -6   6  -6    0.03    0.12
  -6   6  -6    0.21    0.12
  -6   6  -6    0.25    0.13
  -6   6  -6    0.09    0.14
  -6   6  -6   -0.01    0.10
   6  -6   6    0.22    0.12
   6  -6   6    0.10    0.12
   6  -6   6    0.21    0.11
   6  -6   6    0.13    0.13
   6  -6   6    0.09    0.13
   6  -6   6    0.11    0.13
  -7   6  -6    0.38    0.13
  -7   6  -6    0.34    0.13
  -7   6  -6    0.55    0.15
  -7   6  -6    0.34    0.14
   7  -6   6    0.26    0.19
   7  -6   6    0.22    0.14
   7  -6   6    0.29    0.15
   7  -6   6    0.27    0.16
  -8   6  -6    0.63    0.16
  -8   6  -6    0.44    0.15
   8  -6   6    0.58    0.17
   8  -6   6    1.27    0.27
  -9   6  -6    0.17    0.16
  -9   6  -6   -0.23    0.12
   9  -6   6    0.12    0.17
   9  -6   6   -0.09    0.14
   7   5  -6    0.07    0.14
   7   5  -6   -0.04    0.17
  -7  -5   6    0.10    0.18
  -7  -5   6   -0.47    0.23
  -7  -5   6   -0.25    0.20
  -7  -5   6   -0.26    0.14
   6   5  -6    0.99    0.24
   6   5  -6    0.98    0.19
   6   5  -6    1.22    0.24
   6   5  -6    1.31    0.22
  -6  -5   6    1.15    0.21
  -6  -5   6    0.95    0.17
  -6  -5   6    1.00    0.22
  -6  -5   6    1.23    0.24
  -6  -5   6    0.94    0.25
   5   5  -6    5.14    0.34
   5   5  -6    5.06    0.48
   5   5  -6    5.91    0.54
  -5  -5   6    5.29    0.41
  -5  -5   6    4.92    0.45
  -5  -5   6    4.21    0.31
  -5  -5   6    5.22    0.43
  -5  -5   6    4.62    0.37
  -5  -5   6    4.96    0.58
  -5  -5   6    5.56    0.37
   4   5  -6   -0.18    0.09
   4   5  -6    0.07    0.09
   4   5  -6   -0.08    0.13
  -4  -5   6    0.01    0.15
  -4  -5   6   -0.10    0.14
  -4  -5   6    0.04    0.14
  -4  -5   6    0.03    0.13
  -4  -5   6   -0.08    0.10
  -4  -5   6    0.05    0.08
  -4  -5   6   -0.01    0.13
   3   5  -6    0.16    0.20
   3   5  -6   -0.04    0.09
   3   5  -6    0.00    0.16
   3   5  -6   -0.08    0.12
  -3  -5   6   -0.03    0.08
  -3  -5   6    0.05    0.13
  -3  -5   6   -0.01    0.10
  -3  -5   6   -0.02    0.11
  -3  -5   6   -0.08    0.07
  -3  -5   6   -0.05    0.12
   2   5  -6    0.29    0.10
   2   5  -6    0.41    0.17
   2   5  -6    0.32    0.12
   2   5  -6    0.37    0.15
   2   5  -6    0.26    0.10
  -2  -5   6    0.25    0.10
  -2  -5   6    0.41    0.13
  -2  -5   6    0.31    0.07
  -2  -5   6    0.36    0.15
  -2  -5   6    0.21    0.16
   1   5  -6    0.46    0.11
   1   5  -6    0.44    0.12
   1   5  -6    0.49    0.11
   1   5  -6    0.89    0.19
   1   5  -6    0.72    0.19
  -1  -5   6    0.54    0.15
  -1  -5   6    0.41    0.11
  -1  -5   6    0.66    0.16
  -1  -5   6    0.51    0.16
   0   5  -6    1.36    0.22
   0   5  -6    1.44    0.20
   0   5  -6    0.77    0.13
   0   5  -6    1.52    0.22
   0   5  -6    1.36    0.22
   0  -5   6    1.06    0.17
   0  -5   6    1.32    0.22
   0  -5   6    1.09    0.19
   0  -5   6    0.89    0.13
  -1   5  -6    3.37    0.28
  -1   5  -6    3.19    0.25
  -1   5  -6    3.62    0.25
  -1   5  -6    3.37    0.30
  -1   5  -6    3.76    0.30
   1  -5   6    3.17    0.25
   1  -5   6    3.35    0.32
   1  -5   6    3.30    0.28
   1  -5   6    3.30    0.19
  -2   5  -6    0.06    0.07
  -2   5  -6    0.18    0.12
  -2   5  -6    0.19    0.16
  -2   5  -6    0.11    0.11
   2  -5   6    0.29    0.13
   2  -5   6    0.11    0.08
   2  -5   6    0.14    0.08
   2  -5   6    0.00    0.10
   2  -5   6    0.16    0.10
  -3   5  -6    1.75    0.24
  -3   5  -6    1.71    0.21
  -3   5  -6    1.74    0.23
  -3   5  -6    1.17    0.24
   3  -5   6    1.45    0.15
   3  -5   6    1.54    0.20
   3  -5   6    1.40    0.21
   3  -5   6    1.69    0.21
   3  -5   6    1.69    0.20
  -4   5  -6    0.71    0.13
  -4   5  -6    1.07    0.18
  -4   5  -6    0.51    0.12
  -4   5  -6    1.00    0.17
   4  -5   6    0.67    0.16
   4  -5   6    0.61    0.12
   4  -5   6    0.81    0.16
   4  -5   6    0.77    0.15
   4  -5   6    0.93    0.17
   4  -5   6    0.54    0.12
  -5   5  -6    3.79    0.30
  -5   5  -6    3.79    0.28
  -5   5  -6    3.39    0.27
  -5   5  -6    3.58    0.28
  -5   5  -6    3.28    0.29
  -5   5  -6    3.56    0.29
   5  -5   6    3.43    0.31
   5  -5   6    3.50    0.33
   5  -5   6    3.65    0.30
   5  -5   6    3.45    0.28
   5  -5   6    2.88    0.25
   5  -5   6    3.38    0.29
  -6   5  -6    0.20    0.14
  -6   5  -6    0.40    0.12
  -6   5  -6    0.64    0.16
  -6   5  -6    0.41    0.12
  -6   5  -6    0.28    0.14
  -6   5  -6    0.50    0.16
   6  -5   6    0.35    0.13
   6  -5   6    0.28    0.14
   6  -5   6    0.42    0.13
   6  -5   6    0.45    0.15
  -7   5  -6    0.30    0.15
  -7   5  -6   -0.07    0.11
  -7   5  -6    0.13    0.11
  -7   5  -6   -0.03    0.13
   7  -5   6   -0.12    0.11
  -8   5  -6    0.87    0.22
  -8   5  -6    0.90    0.16
  -8   5  -6    0.75    0.19
   8  -5   6    0.69    0.19
   8  -5   6    1.15    0.32
  -9   5  -6    0.15    0.16
   9  -5   6    0.09    0.17
   9  -5   6    0.07    0.14
   7   4  -6    0.11    0.13
   7   4  -6    0.04    0.12
   7   4  -6    0.05    0.16
   7   4  -6    0.22    0.18
  -7  -4   6    0.09    0.13
  -7  -4   6    0.00    0.17
  -7  -4   6    0.25    0.14
  -7  -4   6   -0.14    0.29
   6   4  -6    0.20    0.15
   6   4  -6    0.00    0.13
   6   4  -6   -0.03    0.12
   6   4  -6    0.35    0.16
  -6  -4   6    0.21    0.11
  -6  -4   6   -0.05    0.13
  -6  -4   6   -0.12    0.15
  -6  -4   6    0.43    0.19
  -6  -4   6    0.10    0.17
  -6  -4   6   -0.06    0.13
  -6  -4   6    0.53    0.23
   5   4  -6    0.01    0.13
   5   4  -6    0.03    0.10
   5   4  -6   -0.06    0.15
   5   4  -6    0.02    0.09
   5   4  -6   -0.09    0.10
  -5  -4   6    0.05    0.11
  -5  -4   6    0.01    0.14
  -5  -4   6    0.00    0.11
  -5  -4   6   -0.04    0.14
  -5  -4   6    0.03    0.14
  -5  -4   6    0.10    0.09
   4   4  -6    0.92    0.15
   4   4  -6    0.71    0.14
   4   4  -6    1.02    0.20
   4   4  -6    1.25    0.20
  -4  -4   6    0.78    0.12
  -4  -4   6    0.76    0.18
  -4  -4   6    0.69    0.18
  -4  -4   6    0.74    0.15
  -4  -4   6    0.62    0.12
  -4  -4   6    0.79    0.14
  -4  -4   6    1.04    0.20
   3   4  -6    0.07    0.08
   3   4  -6    0.00    0.12
   3   4  -6    0.01    0.09
   3   4  -6   -0.03    0.12
  -3  -4   6    0.15    0.12
  -3  -4   6    0.12    0.07
  -3  -4   6   -0.01    0.13
  -3  -4   6    0.08    0.09
  -3  -4   6    0.13    0.13
  -3  -4   6   -0.02    0.07
  -3  -4   6    0.07    0.10
   2   4  -6    0.11    0.08
   2   4  -6   -0.12    0.10
   2   4  -6    0.14    0.11
   2   4  -6    0.14    0.11
  -2  -4   6    0.16    0.12
  -2  -4   6    0.09    0.08
  -2  -4   6   -0.03    0.11
  -2  -4   6    0.03    0.06
  -2  -4   6    0.16    0.11
   1   4  -6   15.63    0.85
   1   4  -6   14.65    0.57
   1   4  -6   14.78    0.52
   1   4  -6   14.93    0.56
   1   4  -6   15.25    0.54
  -1  -4   6   14.30    0.52
  -1  -4   6   15.32    0.56
  -1  -4   6   14.51    0.58
  -1  -4   6   14.99    0.59
  -1  -4   6   14.80    0.43
   0   4  -6    3.17    0.23
   0   4  -6    3.00    0.24
   0   4  -6    3.17    0.25
   0   4  -6    2.88    0.26
   0   4  -6    2.86    0.28
   0  -4   6    3.19    0.38
   0  -4   6    3.20    0.22
   0  -4   6    2.95    0.26
  -1   4  -6    7.80    0.39
  -1   4  -6    7.24    0.39
  -1   4  -6    7.51    0.33
   1  -4   6    6.82    0.33
   1  -4   6    7.24    0.26
   1  -4   6    7.22    0.39
   1  -4   6    7.09    0.37
   1  -4   6    7.47    0.35
  -2   4  -6   26.71    0.83
  -2   4  -6   26.98    0.80
  -2   4  -6   27.23    0.80
  -2   4  -6   27.96    0.85
   2  -4   6   27.96    0.85
   2  -4   6   24.69    0.82
   2  -4   6   27.64    0.75
   2  -4   6   27.09    0.78
   2  -4   6   26.74    0.70
   2  -4   6   28.42    0.79
  -3   4  -6    0.10    0.09
  -3   4  -6   -0.11    0.08
  -3   4  -6    0.07    0.11
  -3   4  -6   -0.06    0.07
   3  -4   6   -0.02    0.10
   3  -4   6   -0.01    0.07
   3  -4   6   -0.07    0.07
   3  -4   6    0.03    0.07
   3  -4   6   -0.01    0.08
  -4   4  -6    2.01    0.22
  -4   4  -6    1.83    0.21
  -4   4  -6    1.61    0.19
  -4   4  -6    1.47    0.18
  -4   4  -6    1.43    0.20
  -4   4  -6    1.42    0.20
   4  -4   6    1.57    0.20
   4  -4   6    1.79    0.20
   4  -4   6    1.74    0.19
   4  -4   6    1.71    0.24
   4  -4   6    1.75    0.20
   4  -4   6    1.58    0.21
  -5   4  -6    0.97    0.17
  -5   4  -6    0.83    0.18
  -5   4  -6    0.79    0.12
  -5   4  -6    0.50    0.13
  -5   4  -6    0.76    0.14
  -5   4  -6    0.98    0.17
  -5   4  -6    1.03    0.17
   5  -4   6    0.77    0.15
   5  -4   6    0.67    0.16
   5  -4   6    0.95    0.16
   5  -4   6    0.99    0.16
   5  -4   6    0.90    0.15
  -6   4  -6    0.28    0.14
  -6   4  -6    0.39    0.14
  -6   4  -6    0.45    0.15
  -6   4  -6    0.52    0.11
  -6   4  -6    0.62    0.13
  -6   4  -6    0.42    0.15
   6  -4   6    0.20    0.13
   6  -4   6    0.43    0.16
   6  -4   6    0.60    0.15
  -7   4  -6    4.58    0.39
  -7   4  -6    5.20    0.37
  -7   4  -6    4.90    0.32
   7  -4   6    4.55    0.44
   7  -4   6    5.69    0.42
  -8   4  -6    0.56    0.20
  -8   4  -6    0.19    0.11
   8  -4   6    0.23    0.17
   8  -4   6    0.22    0.14
  -9   4  -6    0.19    0.17
   9  -4   6    0.08    0.15
   9  -4   6    0.03    0.13
   8   3  -6   -0.27    0.13
   8   3  -6    0.01    0.22
   8   3  -6    0.07    0.18
  -8  -3   6    0.10    0.14
  -8  -3   6   -0.11    0.18
  -8  -3   6   -0.19    0.17
   7   3  -6    0.08    0.15
   7   3  -6    0.51    0.17
   7   3  -6    0.36    0.19
   7   3  -6    0.53    0.15
  -7  -3   6    0.12    0.20
  -7  -3   6    0.24    0.18
  -7  -3   6    0.35    0.20
  -7  -3   6    0.52    0.16
  -7  -3   6    0.51    0.19
   6   3  -6    0.06    0.11
   6   3  -6    0.00    0.10
   6   3  -6    0.47    0.16
   6   3  -6    0.10    0.13
   6   3  -6    0.25    0.14
  -6  -3   6    0.30    0.16
  -6  -3   6    0.20    0.16
  -6  -3   6    0.24    0.16
  -6  -3   6    0.29    0.12
  -6  -3   6    0.22    0.15
  -6  -3   6    0.15    0.12
  -6  -3   6    0.22    0.11
   5   3  -6    0.15    0.09
   5   3  -6    0.27    0.12
   5   3  -6    0.24    0.15
   5   3  -6    0.17    0.11
   5   3  -6    0.54    0.17
   5   3  -6    0.02    0.13
  -5  -3   6    0.19    0.10
  -5  -3   6    0.26    0.15
  -5  -3   6    0.06    0.10
  -5  -3   6    0.25    0.11
  -5  -3   6    0.09    0.14
  -5  -3   6    0.46    0.16
  -5  -3   6    0.23    0.11
   4   3  -6    0.55    0.16
   4   3  -6    0.55    0.16
   4   3  -6    0.48    0.11
   4   3  -6    0.46    0.14
   4   3  -6    0.70    0.16
  -4  -3   6    0.76    0.18
  -4  -3   6    0.72    0.14
  -4  -3   6    0.55    0.09
  -4  -3   6    0.36    0.12
  -4  -3   6    0.35    0.14
  -4  -3   6    0.66    0.16
  -4  -3   6    0.48    0.11
   3   3  -6   12.95    0.46
   3   3  -6   13.30    0.54
   3   3  -6   12.78    0.53
   3   3  -6   12.65    0.55
  -3  -3   6   13.62    0.51
  -3  -3   6   12.61    0.49
  -3  -3   6   13.09    0.57
  -3  -3   6   12.50    0.48
  -3  -3   6   13.16    0.56
  -3  -3   6   12.64    0.53
   2   3  -6   18.72    0.65
   2   3  -6   17.00    0.62
   2   3  -6   17.90    0.56
   2   3  -6   18.21    0.64
  -2  -3   6   17.14    0.58
  -2  -3   6   18.37    0.65
  -2  -3   6   18.05    0.55
  -2  -3   6   17.44    0.64
  -2  -3   6   18.60    0.67
   1   3  -6    1.42    0.17
   1   3  -6    1.16    0.17
   1   3  -6    1.52    0.19
   1   3  -6    1.67    0.18
   1   3  -6    1.56    0.20
  -1  -3   6    1.54    0.25
  -1  -3   6    1.40    0.20
  -1  -3   6    1.56    0.16
  -1  -3   6    1.93    0.37
   0   3  -6   13.00    0.51
   0   3  -6   12.67    0.45
   0   3  -6   12.60    0.52
   0  -3   6   12.71    0.51
   0  -3   6   12.16    0.44
   0  -3   6   12.62    0.47
  -1   3  -6    0.62    0.14
  -1   3  -6    0.43    0.14
  -1   3  -6    0.44    0.10
  -1   3  -6    0.49    0.09
   1  -3   6    0.56    0.14
   1  -3   6    0.41    0.09
   1  -3   6    0.51    0.11
   1  -3   6    0.58    0.14
  -2   3  -6   -0.01    0.05
  -2   3  -6    0.14    0.11
  -2   3  -6   -0.02    0.06
  -2   3  -6   -0.04    0.09
  -2   3  -6    0.06    0.08
   2  -3   6    0.12    0.07
   2  -3   6    0.10    0.11
   2  -3   6    0.10    0.10
  -3   3  -6   12.55    0.46
  -3   3  -6   12.45    0.43
  -3   3  -6   12.77    0.46
  -3   3  -6   12.31    0.48
  -3   3  -6   12.92    0.43
  -3   3  -6   13.08    0.49
   3  -3   6   12.76    0.48
   3  -3   6   12.33    0.47
   3  -3   6   12.15    0.43
   3  -3   6   12.99    0.45
  -4   3  -6    0.06    0.07
  -4   3  -6    0.03    0.08
  -4   3  -6   -0.03    0.11
  -4   3  -6    0.11    0.10
  -4   3  -6    0.02    0.09
  -4   3  -6    0.09    0.10
   4  -3   6   -0.03    0.08
   4  -3   6    0.04    0.09
   4  -3   6    0.01    0.09
   4  -3   6    0.12    0.07
   4  -3   6    0.14    0.08
  -5   3  -6    1.44    0.18
  -5   3  -6    1.49    0.19
  -5   3  -6    1.41    0.23
  -5   3  -6    1.05    0.18
  -5   3  -6    1.10    0.16
  -5   3  -6    1.09    0.17
  -5   3  -6    1.03    0.16
   5  -3   6    1.09    0.17
   5  -3   6    1.26    0.19
   5  -3   6    1.09    0.15
   5  -3   6    1.11    0.18
   5  -3   6    1.14    0.16
  -6   3  -6    6.37    0.42
  -6   3  -6    6.73    0.30
  -6   3  -6    6.30    0.43
  -6   3  -6    6.30    0.35
  -6   3  -6    6.00    0.49
  -6   3  -6    6.47    0.34
  -6   3  -6    5.88    0.39
   6  -3   6    6.48    0.46
   6  -3   6    6.70    0.43
  -7   3  -6    7.42    0.50
  -7   3  -6    8.59    0.59
   7  -3   6    8.30    0.51
   7  -3   6    8.63    0.54
  -8   3  -6    0.99    0.24
   8  -3   6    0.83    0.21
   8  -3   6    0.93    0.21
  -9   3  -6    0.64    0.21
   9  -3   6    0.45    0.21
   9  -3   6    0.26    0.17
   8   2  -6   -0.04    0.13
   8   2  -6   -0.08    0.13
  -8  -2   6   -0.11    0.16
  -8  -2   6    0.06    0.20
  -8  -2   6   -0.07    0.14
  -8  -2   6    0.02    0.12
   7   2  -6    0.07    0.13
   7   2  -6    0.15    0.11
   7   2  -6   -0.17    0.12
   7   2  -6   -0.12    0.11
  -7  -2   6   -0.01    0.11
  -7  -2   6   -0.05    0.12
  -7  -2   6   -0.06    0.12
  -7  -2   6   -0.10    0.12
  -7  -2   6   -0.05    0.26
   6   2  -6    0.02    0.09
   6   2  -6    0.02    0.11
   6   2  -6    0.15    0.11
   6   2  -6    0.05    0.10
   6   2  -6   -0.16    0.12
  -6  -2   6   -0.16    0.16
  -6  -2   6    0.27    0.15
  -6  -2   6    0.02    0.11
  -6  -2   6    0.03    0.13
  -6  -2   6    0.04    0.12
  -6  -2   6   -0.08    0.11
  -6  -2   6    0.00    0.13
   5   2  -6    0.16    0.11
   5   2  -6    0.07    0.08
   5   2  -6    0.21    0.13
   5   2  -6    0.11    0.12
   5   2  -6    0.17    0.13
   5   2  -6    0.09    0.10
  -5  -2   6    0.22    0.10
  -5  -2   6    0.15    0.10
  -5  -2   6    0.11    0.11
  -5  -2   6    0.14    0.13
  -5  -2   6    0.17    0.11
  -5  -2   6    0.02    0.11
   4   2  -6    3.80    0.28
   4   2  -6    3.14    0.26
   4   2  -6    2.79    0.30
   4   2  -6    3.11    0.22
   4   2  -6    3.00    0.26
  -4  -2   6    3.19    0.24
  -4  -2   6    3.21    0.26
  -4  -2   6    3.04    0.32
  -4  -2   6    3.02    0.27
  -4  -2   6    3.14    0.20
  -4  -2   6    3.53    0.26
  -4  -2   6    3.30    0.29
   3   2  -6    1.08    0.16
   3   2  -6    1.26    0.19
   3   2  -6    0.99    0.17
   3   2  -6    1.07    0.21
   3   2  -6    1.11    0.16
  -3  -2   6    1.19    0.18
  -3  -2   6    0.91    0.18
  -3  -2   6    1.35    0.18
  -3  -2   6    0.92    0.13
  -3  -2   6    0.91    0.16
   2   2  -6    0.46    0.13
   2   2  -6    0.33    0.08
   2   2  -6    0.36    0.11
   2   2  -6    0.28    0.09
  -2  -2   6    0.32    0.11
  -2  -2   6    0.31    0.13
  -2  -2   6    0.29    0.11
  -2  -2   6    0.36    0.08
   1   2  -6   34.30    0.96
   1   2  -6   33.93    0.88
   1   2  -6   30.91    1.17
  -1  -2   6   34.23    0.93
  -1  -2   6   34.45    0.98
  -1  -2   6   32.72    0.96
   0   2  -6    1.47    0.16
   0   2  -6    0.88    0.16
   0   2  -6    1.21    0.17
   0   2  -6    1.21    0.19
   0  -2   6    0.92    0.16
   0  -2   6    1.13    0.14
   0  -2   6    1.01    0.13
   0  -2   6    1.06    0.18
  -1   2  -6    5.03    0.27
  -1   2  -6    5.08    0.25
  -1   2  -6    4.68    0.29
  -1   2  -6    4.96    0.20
  -1   2  -6    4.89    0.30
   1  -2   6    4.33    0.32
   1  -2   6    5.14    0.30
   1  -2   6    4.50    0.23
   1  -2   6    4.85    0.28
  -2   2  -6   39.95    1.10
  -2   2  -6   42.01    1.20
  -2   2  -6   39.22    1.16
  -2   2  -6   41.50    1.05
  -2   2  -6   42.14    1.04
  -2   2  -6   41.38    1.00
   2  -2   6   41.49    1.03
   2  -2   6   41.45    1.11
   2  -2   6   40.25    1.10
  -3   2  -6    7.76    0.36
  -3   2  -6    7.85    0.30
  -3   2  -6    8.35    0.37
  -3   2  -6    7.58    0.30
  -3   2  -6    7.78    0.36
   3  -2   6    7.83    0.36
   3  -2   6    7.76    0.30
   3  -2   6    8.43    0.39
   3  -2   6    7.38    0.35
  -4   2  -6    0.67    0.13
  -4   2  -6    0.69    0.11
  -4   2  -6    0.68    0.09
  -4   2  -6    0.81    0.14
  -4   2  -6    0.93    0.16
  -4   2  -6    0.77    0.15
   4  -2   6    0.78    0.11
   4  -2   6    0.72    0.14
   4  -2   6    0.65    0.13
   4  -2   6    0.55    0.11
   4  -2   6    0.78    0.15
  -5   2  -6    6.88    0.28
  -5   2  -6    7.50    0.48
  -5   2  -6    7.02    0.37
  -5   2  -6    6.99    0.40
  -5   2  -6    6.96    0.35
  -5   2  -6    6.52    0.35
  -5   2  -6    7.12    0.40
   5  -2   6    6.85    0.41
   5  -2   6    6.68    0.33
   5  -2   6    6.76    0.30
   5  -2   6    6.52    0.33
   5  -2   6    6.99    0.43
  -6   2  -6    5.66    0.33
  -6   2  -6    5.07    0.46
  -6   2  -6    5.43    0.40
  -6   2  -6    5.53    0.32
  -6   2  -6    5.75    0.40
  -6   2  -6    5.21    0.36
   6  -2   6    5.11    0.39
   6  -2   6    5.24    0.42
  -7   2  -6    3.96    0.43
  -7   2  -6    4.04    0.36
   7  -2   6    4.10    0.39
   7  -2   6    3.80    0.38
  -8   2  -6    0.22    0.17
   8  -2   6    0.06    0.14
   8   1  -6    0.14    0.14
   8   1  -6    0.19    0.15
  -8  -1   6    0.14    0.12
  -8  -1   6    0.06    0.16
  -8  -1   6    0.05    0.13
   7   1  -6   -0.07    0.11
   7   1  -6   -0.01    0.13
  -7  -1   6   -0.22    0.10
  -7  -1   6    0.11    0.12
  -7  -1   6    0.01    0.12
  -7  -1   6   -0.09    0.12
  -7  -1   6   -0.13    0.13
   6   1  -6    0.10    0.15
   6   1  -6    0.25    0.12
   6   1  -6    0.24    0.15
   6   1  -6    0.12    0.12
   6   1  -6    0.20    0.13
  -6  -1   6    0.07    0.14
  -6  -1   6    0.47    0.12
  -6  -1   6    0.16    0.14
  -6  -1   6   -0.05    0.16
  -6  -1   6    0.22    0.13
  -6  -1   6    0.23    0.11
   5   1  -6    0.54    0.14
   5   1  -6    0.39    0.14
   5   1  -6    0.75    0.15
   5   1  -6    0.57    0.14
   5   1  -6    0.36    0.12
  -5  -1   6    0.47    0.15
  -5  -1   6    0.55    0.16
  -5  -1   6    0.53    0.11
  -5  -1   6    0.70    0.16
  -5  -1   6    0.49    0.15
  -5  -1   6    0.40    0.12
   4   1  -6    0.02    0.09
   4   1  -6   -0.11    0.08
   4   1  -6   -0.04    0.10
   4   1  -6   -0.06    0.07
  -4  -1   6    0.00    0.10
  -4  -1   6   -0.05    0.08
  -4  -1   6    0.02    0.06
  -4  -1   6    0.06    0.11
  -4  -1   6   -0.09    0.10
   3   1  -6    2.50    0.16
   3   1  -6    2.72    0.24
   3   1  -6    2.90    0.25
   3   1  -6    2.87    0.22
   3   1  -6    2.45    0.23
  -3  -1   6    2.55    0.24
  -3  -1   6    2.85    0.26
  -3  -1   6    2.35    0.21
  -3  -1   6    2.66    0.25
   2   1  -6    0.04    0.09
   2   1  -6   -0.04    0.05
   2   1  -6    0.09    0.09
   2   1  -6   -0.01    0.06
   2   1  -6    0.01    0.08
  -2  -1   6   -0.01    0.10
  -2  -1   6    0.02    0.10
  -2  -1   6    0.00    0.06
  -2  -1   6    0.09    0.08
   1   1  -6   23.71    0.70
   1   1  -6   23.39    0.72
   1   1  -6   24.70    0.74
  -1  -1   6   23.92    0.74
  -1  -1   6   24.09    0.71
  -1  -1   6   24.37    0.68
  -1  -1   6   21.93    0.71
   0   1  -6  321.84    7.29
   0   1  -6  334.71    7.31
   0   1  -6  316.96    7.25
   0  -1   6  344.10    7.28
   0  -1   6  313.99    7.29
   0  -1   6  330.28    7.22
   0  -1   6  332.99    7.32
  -1   1  -6   70.57    1.74
  -1   1  -6   71.29    1.75
   1  -1   6   68.39    1.74
   1  -1   6   69.70    1.65
   1  -1   6   72.13    1.75
  -2   1  -6   23.17    0.67
  -2   1  -6   24.34    0.75
  -2   1  -6   23.44    0.73
  -2   1  -6   23.11    0.71
   2  -1   6   24.63    0.74
   2  -1   6   24.36    0.63
   2  -1   6   24.67    0.71
   2  -1   6   22.95    0.72
  -3   1  -6    7.35    0.34
  -3   1  -6    7.71    0.27
  -3   1  -6    7.03    0.28
  -3   1  -6    7.54    0.36
  -3   1  -6    7.05    0.35
   3  -1   6    7.03    0.34
   3  -1   6    7.41    0.26
   3  -1   6    7.72    0.43
   3  -1   6    7.31    0.35
  -4   1  -6    3.44    0.27
  -4   1  -6    3.57    0.27
  -4   1  -6    3.16    0.25
  -4   1  -6    3.10    0.21
  -4   1  -6    3.61    0.34
   4  -1   6    3.42    0.25
   4  -1   6    3.54    0.27
   4  -1   6    3.25    0.28
   4  -1   6    3.20    0.24
  -5   1  -6   31.09    1.04
  -5   1  -6   30.22    0.88
  -5   1  -6   29.49    0.86
  -5   1  -6   29.88    0.96
  -5   1  -6   28.39    0.93
  -5   1  -6   30.23    0.88
   5  -1   6   31.59    1.01
   5  -1   6   28.01    0.84
   5  -1   6   29.91    0.97
  -6   1  -6    1.06    0.21
  -6   1  -6    0.81    0.20
  -6   1  -6    1.32    0.20
  -6   1  -6    1.58    0.23
   6  -1   6    0.98    0.20
   6  -1   6    1.26    0.22
  -7   1  -6    0.51    0.14
  -7   1  -6    0.53    0.22
  -7   1  -6    0.33    0.13
   7  -1   6    0.20    0.14
   7  -1   6    0.24    0.14
  -8   1  -6    0.11    0.18
   8  -1   6    0.03    0.14
   8  -1   6    0.01    0.14
   9   0  -6    0.18    0.16
   9   0  -6    0.07    0.17
  -9   0   6   -0.07    0.16
   8   0  -6   -0.08    0.14
   8   0  -6   -0.04    0.12
  -8   0   6   -0.02    0.14
  -8   0   6   -0.05    0.14
   7   0  -6    0.29    0.13
   7   0  -6   -0.01    0.11
  -7   0   6    0.11    0.11
  -7   0   6   -0.05    0.10
  -7   0   6    0.18    0.11
  -7   0   6    0.03    0.13
   6   0  -6   17.85    0.58
   6   0  -6   17.10    0.58
   6   0  -6   17.40    0.69
   6   0  -6   16.63    0.69
   6   0  -6   17.17    0.69
  -6   0   6   17.21    0.81
  -6   0   6   17.91    0.62
  -6   0   6   15.76    0.90
  -6   0   6   16.64    0.60
  -6   0   6   17.48    0.70
  -6   0   6   16.10    0.59
   5   0  -6    0.05    0.10
   5   0  -6    0.03    0.09
   5   0  -6   -0.14    0.09
   5   0  -6    0.11    0.10
   5   0  -6    0.00    0.09
  -5   0   6   -0.05    0.07
  -5   0   6    0.00    0.09
  -5   0   6   -0.06    0.10
  -5   0   6    0.11    0.10
   4   0  -6    1.50    0.20
   4   0  -6    1.43    0.16
   4   0  -6    1.45    0.21
   4   0  -6    1.29    0.19
   4   0  -6    1.52    0.22
  -4   0   6    1.20    0.17
  -4   0   6    1.24    0.17
  -4   0   6    1.69    0.22
   3   0  -6   27.04    0.76
   3   0  -6   25.64    0.67
   3   0  -6   26.37    0.78
   3   0  -6   25.44    0.77
   3   0  -6   25.40    0.78
  -3   0   6   24.83    0.77
  -3   0   6   25.67    0.78
  -3   0   6   26.57    0.89
   2   0  -6    0.06    0.07
   2   0  -6    0.09    0.06
   2   0  -6    0.25    0.18
   2   0  -6    0.10    0.10
  -2   0   6    0.06    0.09
  -2   0   6    0.24    0.12
  -2   0   6    0.17    0.12
   1   0  -6   42.56    1.15
   1   0  -6   42.73    1.11
   1   0  -6   43.48    1.15
  -1   0   6   44.71    1.17
  -1   0   6   40.51    1.14
  -1   0   6   45.65    1.13
   0   0  -6   15.11    0.53
   0   0  -6   15.67    0.54
   0   0  -6   15.20    0.50
   0   0   6   15.83    0.52
   0   0   6   15.63    0.47
   0   0   6   15.31    0.54
   0   0   6   14.56    0.52
  -1   0  -6    0.11    0.11
  -1   0  -6    0.27    0.11
  -1   0  -6    0.06    0.09
   1   0   6    0.29    0.12
   1   0   6    0.12    0.05
   1   0   6    0.22    0.12
  -2   0  -6    0.11    0.09
  -2   0  -6    0.03    0.12
  -2   0  -6    0.11    0.10
   2   0   6    0.17    0.10
   2   0   6    0.11    0.08
   2   0   6    0.18    0.10
   2   0   6    0.18    0.04
  -3   0  -6   22.54    0.72
  -3   0  -6   22.35    0.71
  -3   0  -6   22.81    0.77
   3   0   6   21.93    0.62
   3   0   6   20.56    0.68
   3   0   6   22.05    0.80
   3   0   6   22.53    0.71
  -4   0  -6    0.74    0.15
  -4   0  -6    0.98    0.17
  -4   0  -6    0.80    0.15
  -4   0  -6    0.54    0.14
   4   0   6    0.67    0.11
   4   0   6    0.82    0.16
   4   0   6    0.52    0.13
   4   0   6    0.48    0.13
   4   0   6    0.64    0.14
  -5   0  -6    3.23    0.29
  -5   0  -6    3.05    0.29
  -5   0  -6    2.85    0.27
  -5   0  -6    2.07    0.28
   5   0   6    2.91    0.25
   5   0   6    2.42    0.28
   5   0   6    2.85    0.25
   5   0   6    2.71    0.31
   5   0   6    2.93    0.24
  -6   0  -6    0.08    0.13
  -6   0  -6    0.09    0.14
  -6   0  -6    0.06    0.14
  -6   0  -6    0.17    0.13
   6   0   6    0.03    0.12
   6   0   6    0.17    0.11
   6   0   6    0.18    0.10
   6   0   6    0.02    0.12
   6   0   6    0.24    0.12
  -7   0  -6   -0.11    0.12
  -7   0  -6    0.17    0.12
  -7   0  -6   -0.01    0.16
   7   0   6    0.22    0.12
   7   0   6    0.02    0.11
  -8   0  -6    0.13    0.15
   8   0   6    0.20    0.17
   8   0   6    0.03    0.11
   9  -1  -6   -0.14    0.12
   9  -1  -6    0.04    0.14
  -9   1   6   -0.32    0.14
   8  -1  -6    1.30    0.23
   8  -1  -6    1.90    0.29
   7  -1  -6   -0.03    0.12
   7  -1  -6   -0.02    0.12
  -7   1   6   -0.19    0.12
  -7   1   6    0.10    0.13
  -7   1   6    0.24    0.11
  -7   1   6    0.10    0.11
   6  -1  -6    1.06    0.19
   6  -1  -6    1.37    0.21
   6  -1  -6    1.31    0.20
   6  -1  -6    1.88    0.22
   6  -1  -6    1.44    0.22
   6  -1  -6    1.49    0.20
  -6   1   6    1.53    0.21
  -6   1   6    0.99    0.24
  -6   1   6    1.78    0.21
  -6   1   6    1.37    0.20
  -6   1   6    1.61    0.23
   5  -1  -6   -0.11    0.10
   5  -1  -6    0.12    0.09
   5  -1  -6   -0.01    0.09
   5  -1  -6   -0.01    0.09
   5  -1  -6    0.02    0.09
   5  -1  -6    0.14    0.10
  -5   1   6    0.02    0.08
  -5   1   6    0.02    0.09
  -5   1   6    0.10    0.09
  -5   1   6    0.14    0.09
  -5   1   6   -0.09    0.09
  -5   1   6    0.20    0.12
   4  -1  -6    4.65    0.26
   4  -1  -6    5.03    0.32
   4  -1  -6    4.58    0.28
   4  -1  -6    4.36    0.27
   4  -1  -6    4.84    0.29
  -4   1   6    4.83    0.30
  -4   1   6    4.87    0.29
  -4   1   6    4.64    0.27
   3  -1  -6    0.31    0.13
   3  -1  -6    0.28    0.12
   3  -1  -6    0.24    0.08
   3  -1  -6    0.13    0.07
   3  -1  -6    0.25    0.10
  -3   1   6    0.24    0.08
  -3   1   6    0.53    0.23
  -3   1   6    0.35    0.12
  -3   1   6    0.25    0.11
   2  -1  -6   10.83    0.44
   2  -1  -6   10.85    0.35
   2  -1  -6   10.34    0.59
   2  -1  -6   10.99    0.41
  -2   1   6   11.32    0.34
  -2   1   6   11.40    0.42
  -2   1   6   10.87    0.44
  -2   1   6   11.25    0.45
   1  -1  -6   12.35    0.44
   1  -1  -6   12.48    0.40
   1  -1  -6   12.21    0.47
   1  -1  -6   12.10    0.47
  -1   1   6   12.70    0.45
  -1   1   6   13.10    0.48
   0  -1  -6   15.93    0.52
   0  -1  -6   14.37    0.54
   0  -1  -6   15.63    0.52
   0  -1  -6   15.99    0.56
   0   1   6   16.27    0.56
  -1  -1  -6   24.20    0.74
  -1  -1  -6   23.74    0.74
  -1  -1  -6   23.29    0.74
  -1  -1  -6   22.86    0.70
   1   1   6   23.16    0.61
   1   1   6   24.61    0.65
   1   1   6   24.44    0.75
   1   1   6   22.36    0.72
  -2  -1  -6   13.43    0.52
  -2  -1  -6   14.75    0.56
  -2  -1  -6   13.84    0.53
   2   1   6   14.02    0.48
   2   1   6   13.87    0.53
  -3  -1  -6    4.03    0.29
  -3  -1  -6    4.69    0.34
  -3  -1  -6    4.55    0.32
   3   1   6    4.03    0.28
   3   1   6    4.52    0.23
   3   1   6    4.50    0.29
   3   1   6    4.24    0.29
  -4  -1  -6    2.50    0.34
  -4  -1  -6    2.93    0.27
  -4  -1  -6    3.14    0.28
   4   1   6    3.08    0.27
   4   1   6    3.06    0.25
   4   1   6    3.07    0.26
   4   1   6    2.37    0.29
   4   1   6    3.03    0.24
  -5  -1  -6   -0.12    0.14
  -5  -1  -6    0.22    0.14
  -5  -1  -6    0.24    0.13
  -5  -1  -6    0.15    0.14
  -5  -1  -6    0.14    0.11
  -5  -1  -6    0.22    0.14
   5   1   6    0.21    0.11
   5   1   6    0.30    0.13
   5   1   6    0.07    0.11
   5   1   6    0.18    0.11
   5   1   6    0.31    0.13
  -6  -1  -6   -0.28    0.12
  -6  -1  -6    0.15    0.14
  -6  -1  -6   -0.03    0.13
  -6  -1  -6   -0.13    0.11
   6   1   6   -0.05    0.10
   6   1   6   -0.08    0.10
   6   1   6    0.04    0.10
  -7  -1  -6    0.52    0.16
  -7  -1  -6    0.50    0.17
  -7  -1  -6    0.52    0.20
   7   1   6    0.45    0.14
   7   1   6    0.69    0.17
  -8  -1  -6    0.18    0.13
  -8  -1  -6    0.24    0.18
   8   1   6    0.07    0.14
   8   1   6   -0.03    0.15
   9  -2  -6    0.39    0.19
   9  -2  -6    0.30    0.15
  -9   2   6    0.13    0.14
   8  -2  -6    0.02    0.22
   8  -2  -6   -0.06    0.13
  -8   2   6   -0.01    0.12
   7  -2  -6    0.59    0.17
   7  -2  -6    0.72    0.16
   7  -2  -6    0.72    0.16
   7  -2  -6    0.88    0.20
  -7   2   6    0.71    0.18
  -7   2   6    0.83    0.19
  -7   2   6    0.73    0.15
  -7   2   6    0.90    0.16
   6  -2  -6    1.87    0.24
   6  -2  -6    1.59    0.23
   6  -2  -6    2.13    0.28
   6  -2  -6    1.78    0.27
   6  -2  -6    2.16    0.22
   6  -2  -6    1.46    0.21
  -6   2   6    1.50    0.20
  -6   2   6    1.66    0.21
  -6   2   6    2.11    0.27
  -6   2   6    1.63    0.22
  -6   2   6    1.49    0.22
   5  -2  -6    0.15    0.10
   5  -2  -6    0.20    0.11
   5  -2  -6    0.36    0.12
   5  -2  -6    0.24    0.12
   5  -2  -6    0.42    0.13
   5  -2  -6    0.30    0.13
  -5   2   6    0.35    0.13
  -5   2   6    0.28    0.11
  -5   2   6    0.16    0.11
  -5   2   6    0.10    0.10
  -5   2   6    0.21    0.12
   4  -2  -6    0.09    0.09
   4  -2  -6    0.17    0.10
   4  -2  -6    0.09    0.11
   4  -2  -6    0.11    0.10
   4  -2  -6    0.15    0.10
  -4   2   6    0.02    0.08
  -4   2   6    0.42    0.12
  -4   2   6    0.07    0.10
  -4   2   6    0.11    0.11
  -4   2   6    0.16    0.09
   3  -2  -6    4.74    0.27
   3  -2  -6    4.48    0.29
   3  -2  -6    4.45    0.28
  -3   2   6    4.45    0.29
  -3   2   6    4.50    0.25
  -3   2   6    4.24    0.27
  -3   2   6    4.52    0.29
   2  -2  -6    6.74    0.35
   2  -2  -6    6.78    0.34
   2  -2  -6    6.78    0.31
  -2   2   6    6.90    0.32
  -2   2   6    6.98    0.37
  -2   2   6    6.71    0.26
  -2   2   6    6.75    0.34
   1  -2  -6    0.32    0.08
   1  -2  -6    0.30    0.23
   1  -2  -6    0.40    0.09
   1  -2  -6    0.17    0.12
  -1   2   6    0.31    0.13
  -1   2   6    0.54    0.15
   0  -2  -6   -0.04    0.10
   0  -2  -6   -0.02    0.07
   0  -2  -6   -0.15    0.10
   0   2   6    0.03    0.09
   0   2   6    0.12    0.10
  -1  -2  -6    0.49    0.13
  -1  -2  -6    0.49    0.14
  -1  -2  -6    0.55    0.14
   1   2   6    0.49    0.08
   1   2   6    0.46    0.12
   1   2   6    0.68    0.15
  -2  -2  -6   10.53    0.47
  -2  -2  -6   11.00    0.49
  -2  -2  -6   10.30    0.46
   2   2   6   10.62    0.40
   2   2   6   10.70    0.47
   2   2   6   10.31    0.35
   2   2   6   10.05    0.45
  -3  -2  -6    7.06    0.44
  -3  -2  -6    7.20    0.39
  -3  -2  -6    7.04    0.40
   3   2   6    6.93    0.41
   3   2   6    6.91    0.37
   3   2   6    6.97    0.31
   3   2   6    7.30    0.38
  -4  -2  -6    3.81    0.29
  -4  -2  -6    4.04    0.29
  -4  -2  -6    4.32    0.34
  -4  -2  -6    3.91    0.33
  -4  -2  -6    4.10    0.40
   4   2   6    3.88    0.29
   4   2   6    3.98    0.31
   4   2   6    4.01    0.28
   4   2   6    4.17    0.30
  -5  -2  -6    3.65    0.33
  -5  -2  -6    4.31    0.32
  -5  -2  -6    4.37    0.42
  -5  -2  -6    3.90    0.35
  -5  -2  -6    4.16    0.34
   5   2   6    4.42    0.35
   5   2   6    4.45    0.33
   5   2   6    3.84    0.31
   5   2   6    4.24    0.30
  -6  -2  -6   -0.24    0.15
  -6  -2  -6    0.23    0.15
  -6  -2  -6    0.02    0.14
  -6  -2  -6   -0.25    0.15
   6   2   6   -0.09    0.11
   6   2   6    0.07    0.10
   6   2   6    0.25    0.13
  -7  -2  -6    0.38    0.15
  -7  -2  -6    0.30    0.17
  -7  -2  -6   -0.13    0.17
   7   2   6    0.43    0.16
   7   2   6    0.21    0.13
   9  -3  -6    0.39    0.17
   9  -3  -6    0.08    0.15
  -9   3   6    0.06    0.14
   8  -3  -6    0.25    0.15
   8  -3  -6    0.19    0.15
  -8   3   6    0.16    0.14
   7  -3  -6   -0.05    0.12
   7  -3  -6   -0.09    0.11
   7  -3  -6    0.05    0.12
  -7   3   6   -0.13    0.11
  -7   3   6    0.13    0.11
  -7   3   6    0.00    0.12
  -7   3   6   -0.04    0.11
  -7   3   6    0.09    0.11
   6  -3  -6    6.18    0.34
   6  -3  -6    6.93    0.43
   6  -3  -6    6.74    0.34
   6  -3  -6    7.12    0.40
   6  -3  -6    6.27    0.38
  -6   3   6    6.42    0.36
  -6   3   6    5.79    0.38
  -6   3   6    6.62    0.41
  -6   3   6    6.45    0.35
  -6   3   6    6.93    0.38
   5  -3  -6    2.84    0.29
   5  -3  -6    3.34    0.26
   5  -3  -6    3.37    0.26
   5  -3  -6    3.70    0.28
   5  -3  -6    3.15    0.39
  -5   3   6    3.35    0.25
  -5   3   6    3.11    0.26
  -5   3   6    3.34    0.27
  -5   3   6    3.44    0.26
  -5   3   6    3.29    0.26
   4  -3  -6    0.27    0.11
   4  -3  -6    0.20    0.09
   4  -3  -6    0.41    0.13
   4  -3  -6    0.38    0.16
   4  -3  -6    0.23    0.11
  -4   3   6    0.21    0.09
  -4   3   6    0.37    0.10
  -4   3   6    0.26    0.12
  -4   3   6    0.41    0.09
  -4   3   6    0.27    0.11
   3  -3  -6    6.69    0.31
   3  -3  -6    6.58    0.35
   3  -3  -6    6.73    0.36
  -3   3   6    6.96    0.26
  -3   3   6    6.74    0.31
  -3   3   6    6.68    0.32
  -3   3   6    6.70    0.35
  -3   3   6    6.87    0.37
   2  -3  -6    6.00    0.35
   2  -3  -6    6.48    0.27
   2  -3  -6    6.13    0.30
   2  -3  -6    6.75    0.37
  -2   3   6    6.40    0.36
  -2   3   6    6.69    0.27
  -2   3   6    6.18    0.35
  -2   3   6    6.27    0.27
   1  -3  -6    4.94    0.32
   1  -3  -6    5.02    0.28
   1  -3  -6    5.01    0.34
   1  -3  -6    5.36    0.27
  -1   3   6    4.97    0.33
  -1   3   6    5.06    0.28
  -1   3   6    5.46    0.40
   0  -3  -6    5.37    0.30
   0  -3  -6    5.41    0.34
   0  -3  -6    5.27    0.35
   0  -3  -6    5.95    0.32
   0   3   6    4.57    0.46
   0   3   6    5.24    0.34
   0   3   6    5.61    0.36
  -1  -3  -6    0.56    0.16
  -1  -3  -6    0.29    0.11
  -1  -3  -6    0.51    0.16
   1   3   6    0.53    0.11
   1   3   6    0.45    0.08
   1   3   6    0.45    0.13
  -2  -3  -6    3.61    0.30
  -2  -3  -6    3.77    0.32
  -2  -3  -6    3.62    0.33
   2   3   6    3.85    0.32
   2   3   6    3.73    0.28
   2   3   6    3.64    0.30
  -3  -3  -6    0.06    0.14
  -3  -3  -6   -0.08    0.15
  -3  -3  -6    0.01    0.08
  -3  -3  -6    0.10    0.13
   3   3   6    0.09    0.08
   3   3   6    0.17    0.11
   3   3   6    0.21    0.12
   3   3   6    0.12    0.12
  -4  -3  -6    4.42    0.36
  -4  -3  -6    4.36    0.53
  -4  -3  -6    3.17    0.27
  -4  -3  -6    3.50    0.39
  -4  -3  -6    3.71    0.29
   4   3   6    4.24    0.33
   4   3   6    3.74    0.32
   4   3   6    3.77    0.29
   4   3   6    3.99    0.32
  -5  -3  -6    0.10    0.15
  -5  -3  -6    0.35    0.12
  -5  -3  -6    0.37    0.16
  -5  -3  -6    0.59    0.27
  -5  -3  -6    0.20    0.22
   5   3   6    0.44    0.13
   5   3   6    0.27    0.13
   5   3   6    0.42    0.15
  -6  -3  -6   -0.14    0.13
  -6  -3  -6   -0.27    0.21
   6   3   6   -0.13    0.11
   6   3   6    0.07    0.10
   6   3   6    0.07    0.12
  -7  -3  -6   -0.03    0.18
  -7  -3  -6    0.21    0.22
  -7  -3  -6    0.10    0.17
   7   3   6    0.28    0.17
   7   3   6    0.43    0.16
   7   3   6    0.23    0.15
   9  -4  -6    0.27    0.19
   9  -4  -6   -0.02    0.14
  -9   4   6    0.02    0.13
  -9   4   6    0.21    0.15
   8  -4  -6    0.08    0.14
   8  -4  -6    0.25    0.14
  -8   4   6   -0.13    0.13
  -8   4   6   -0.04    0.12
   7  -4  -6    0.46    0.15
   7  -4  -6    0.38    0.17
   7  -4  -6    0.40    0.13
  -7   4   6    0.49    0.16
  -7   4   6    0.34    0.14
  -7   4   6    0.27    0.12
  -7   4   6    0.33    0.15
   6  -4  -6    0.93    0.18
   6  -4  -6    1.15    0.18
   6  -4  -6    0.68    0.17
   6  -4  -6    0.69    0.19
   6  -4  -6    0.99    0.17
  -6   4   6    1.49    0.21
  -6   4   6    1.03    0.18
  -6   4   6    1.04    0.15
  -6   4   6    0.93    0.16
  -6   4   6    0.82    0.16
   5  -4  -6    0.09    0.10
   5  -4  -6   -0.13    0.10
   5  -4  -6   -0.02    0.08
   5  -4  -6   -0.22    0.10
   5  -4  -6   -0.07    0.10
  -5   4   6    0.03    0.10
  -5   4   6   -0.17    0.08
  -5   4   6    0.00    0.07
  -5   4   6    0.15    0.11
  -5   4   6   -0.03    0.09
   4  -4  -6   -0.03    0.11
   4  -4  -6    0.08    0.08
   4  -4  -6    0.13    0.11
   4  -4  -6    0.12    0.11
  -4   4   6    0.09    0.11
  -4   4   6    0.21    0.09
  -4   4   6    0.05    0.05
  -4   4   6    0.12    0.12
  -4   4   6    0.09    0.08
   3  -4  -6    0.67    0.17
   3  -4  -6    0.59    0.11
   3  -4  -6    0.43    0.14
  -3   4   6    0.80    0.17
  -3   4   6    0.46    0.10
  -3   4   6    0.52    0.14
   2  -4  -6   98.41    2.25
   2  -4  -6   97.78    2.40
   2  -4  -6   93.83    2.38
   2  -4  -6   96.41    2.27
  -2   4   6   99.58    2.41
  -2   4   6   94.27    2.39
  -2   4   6   94.66    2.27
   1  -4  -6    0.33    0.14
   1  -4  -6    0.17    0.09
   1  -4  -6    0.16    0.09
   1  -4  -6    0.27    0.13
  -1   4   6    0.28    0.13
  -1   4   6    0.20    0.09
  -1   4   6    0.25    0.09
   0  -4  -6    2.01    0.25
   0  -4  -6    2.00    0.27
   0  -4  -6    1.23    0.20
   0   4   6    1.40    0.21
   0   4   6    1.65    0.23
   0   4   6    1.02    0.15
   0   4   6    1.61    0.18
  -1  -4  -6    0.08    0.12
  -1  -4  -6    0.11    0.10
  -1  -4  -6    0.15    0.15
   1   4   6    0.09    0.13
   1   4   6    0.09    0.09
   1   4   6    0.15    0.11
   1   4   6    0.21    0.07
  -2  -4  -6    0.13    0.11
  -2  -4  -6    0.29    0.17
  -2  -4  -6    0.21    0.07
  -2  -4  -6    0.36    0.17
   2   4   6    0.18    0.14
   2   4   6    0.49    0.16
   2   4   6    0.20    0.13
  -3  -4  -6    6.47    0.44
  -3  -4  -6    6.25    0.33
  -3  -4  -6    5.81    0.42
  -3  -4  -6    6.56    0.44
  -3  -4  -6    6.36    0.45
   3   4   6    6.06    0.46
   3   4   6    6.34    0.41
   3   4   6    6.45    0.34
   3   4   6    6.53    0.42
  -4  -4  -6    0.06    0.14
  -4  -4  -6    0.07    0.13
  -4  -4  -6   -0.06    0.10
  -4  -4  -6   -0.04    0.15
   4   4   6    0.08    0.10
   4   4   6    0.04    0.07
   4   4   6   -0.05    0.14
  -5  -4  -6   -0.35    0.17
  -5  -4  -6    0.10    0.15
  -5  -4  -6   -0.10    0.12
  -5  -4  -6    0.02    0.14
  -5  -4  -6    0.12    0.18
   5   4   6    0.03    0.13
   5   4   6   -0.03    0.11
   5   4   6    0.08    0.10
  -6  -4  -6   -0.13    0.16
  -6  -4  -6    0.14    0.23
  -6  -4  -6    0.14    0.19
  -6  -4  -6    0.32    0.17
   6   4   6    0.16    0.12
   6   4   6   -0.02    0.15
   6   4   6   -0.10    0.12
   9  -5  -6    0.16    0.16
   9  -5  -6    0.10    0.14
  -9   5   6   -0.14    0.14
   8  -5  -6   11.02    0.61
   8  -5  -6   11.06    0.59
  -8   5   6    9.28    0.54
  -8   5   6    9.87    0.44
  -8   5   6   11.30    0.65
   7  -5  -6    0.20    0.15
   7  -5  -6    0.19    0.12
   7  -5  -6    0.31    0.14
  -7   5   6    0.10    0.14
  -7   5   6    0.12    0.11
  -7   5   6    0.29    0.16
  -7   5   6    0.52    0.16
   6  -5  -6    0.21    0.15
   6  -5  -6    0.23    0.12
   6  -5  -6    0.16    0.13
   6  -5  -6   -0.15    0.12
  -6   5   6    0.18    0.13
  -6   5   6    0.06    0.13
  -6   5   6    0.01    0.08
  -6   5   6    0.09    0.13
  -6   5   6    0.04    0.09
  -6   5   6   -0.01    0.12
   5  -5  -6    2.53    0.29
   5  -5  -6    2.19    0.30
   5  -5  -6    2.37    0.28
   5  -5  -6    2.58    0.26
   5  -5  -6    2.37    0.22
  -5   5   6    2.10    0.26
  -5   5   6    2.67    0.34
  -5   5   6    2.44    0.26
  -5   5   6    2.16    0.19
   4  -5  -6    4.86    0.36
   4  -5  -6    5.30    0.34
   4  -5  -6    4.44    0.32
   4  -5  -6    4.74    0.27
  -4   5   6    4.74    0.37
  -4   5   6    4.57    0.30
  -4   5   6    4.81    0.34
   3  -5  -6    0.60    0.12
   3  -5  -6    0.30    0.13
   3  -5  -6    0.48    0.10
   3  -5  -6    0.28    0.16
   3  -5  -6    0.36    0.12
  -3   5   6    0.46    0.10
  -3   5   6    0.52    0.17
  -3   5   6    0.36    0.11
  -3   5   6    0.42    0.14
   2  -5  -6    0.01    0.10
   2  -5  -6    0.15    0.09
   2  -5  -6    0.12    0.12
   2  -5  -6    0.15    0.15
  -2   5   6    0.01    0.11
  -2   5   6    0.16    0.14
  -2   5   6    0.09    0.09
  -2   5   6    0.08    0.08
   1  -5  -6    0.37    0.17
   1  -5  -6    0.38    0.11
   1  -5  -6    0.63    0.19
   1  -5  -6    0.30    0.10
  -1   5   6    0.35    0.11
  -1   5   6    0.33    0.14
  -1   5   6    0.44    0.15
  -1   5   6    0.37    0.11
   0  -5  -6    1.73    0.26
   0  -5  -6    1.51    0.27
   0  -5  -6    1.63    0.25
   0   5   6    1.22    0.21
   0   5   6    1.64    0.23
   0   5   6    1.84    0.19
   0   5   6    1.07    0.16
  -1  -5  -6    0.60    0.20
  -1  -5  -6    0.48    0.14
  -1  -5  -6    0.49    0.18
   1   5   6    0.43    0.16
   1   5   6    0.50    0.14
   1   5   6    0.46    0.17
  -2  -5  -6    0.90    0.19
  -2  -5  -6    1.19    0.17
  -2  -5  -6    0.83    0.22
  -2  -5  -6    0.87    0.22
   2   5   6    1.11    0.23
   2   5   6    0.52    0.17
  -3  -5  -6    1.32    0.22
  -3  -5  -6    1.40    0.27
  -3  -5  -6    1.13    0.15
  -3  -5  -6    1.79    0.29
   3   5   6    1.45    0.24
  -4  -5  -6    0.29    0.14
  -4  -5  -6    0.40    0.19
  -4  -5  -6    0.25    0.17
  -4  -5  -6    0.67    0.23
   4   5   6    0.27    0.16
   4   5   6    0.35    0.14
  -5  -5  -6    0.53    0.21
  -5  -5  -6    0.41    0.18
  -5  -5  -6    0.61    0.20
  -5  -5  -6    0.18    0.25
   5   5   6    0.21    0.17
   5   5   6    0.20    0.13
   5   5   6    0.30    0.13
   9  -6  -6    0.42    0.18
   9  -6  -6    0.66    0.20
  -9   6   6    0.14    0.17
   8  -6  -6    1.00    0.23
   8  -6  -6    0.93    0.22
  -8   6   6    1.33    0.22
  -8   6   6    1.86    0.27
  -8   6   6    1.28    0.26
  -8   6   6    1.22    0.22
   7  -6  -6    0.18    0.16
   7  -6  -6    0.23    0.13
   7  -6  -6    0.42    0.18
   7  -6  -6    0.38    0.18
  -7   6   6    0.15    0.15
  -7   6   6    0.06    0.11
  -7   6   6    0.24    0.18
  -7   6   6    0.35    0.15
   6  -6  -6    0.53    0.20
   6  -6  -6    0.56    0.23
   6  -6  -6    0.42    0.16
   6  -6  -6    0.41    0.15
  -6   6   6    0.24    0.14
  -6   6   6    0.46    0.18
  -6   6   6    0.78    0.19
  -6   6   6    0.52    0.17
   5  -6  -6    0.46    0.18
   5  -6  -6    0.59    0.26
   5  -6  -6    0.51    0.16
  -5   6   6    0.48    0.15
  -5   6   6    0.83    0.17
  -5   6   6    0.41    0.16
  -5   6   6    0.79    0.19
   4  -6  -6    9.02    0.36
   4  -6  -6    9.77    0.39
   4  -6  -6    8.96    0.45
   4  -6  -6    9.71    0.50
   4  -6  -6    8.95    0.47
  -4   6   6    8.75    0.44
  -4   6   6    9.82    0.51
  -4   6   6    8.87    0.38
  -4   6   6    9.33    0.49
  -4   6   6    9.34    0.51
   3  -6  -6    1.57    0.23
   3  -6  -6    1.73    0.22
   3  -6  -6    1.23    0.21
   3  -6  -6    1.06    0.14
   3  -6  -6    1.56    0.25
  -3   6   6    1.70    0.21
  -3   6   6    1.59    0.25
  -3   6   6    1.17    0.18
  -3   6   6    1.49    0.26
   2  -6  -6    0.14    0.15
   2  -6  -6    0.06    0.11
   2  -6  -6   -0.12    0.08
   2  -6  -6   -0.09    0.14
   2  -6  -6    0.07    0.09
  -2   6   6   -0.02    0.09
  -2   6   6   -0.03    0.14
  -2   6   6   -0.07    0.09
  -2   6   6   -0.03    0.12
   1  -6  -6    1.08    0.17
   1  -6  -6    1.23    0.23
   1  -6  -6    1.09    0.22
  -1   6   6    1.31    0.27
  -1   6   6    1.62    0.22
  -1   6   6    1.27    0.22
  -1   6   6    0.92    0.16
   0  -6  -6    0.51    0.15
   0  -6  -6    0.54    0.22
   0  -6  -6    0.36    0.17
   0   6   6    0.53    0.22
   0   6   6    0.54    0.15
   0   6   6    0.52    0.19
   0   6   6    0.64    0.12
  -1  -6  -6    1.18    0.20
  -1  -6  -6    1.62    0.29
  -1  -6  -6    1.22    0.25
   1   6   6    1.14    0.21
   1   6   6    1.35    0.25
   1   6   6    1.70    0.17
   1   6   6    1.46    0.28
  -2  -6  -6    2.79    0.34
  -2  -6  -6    3.59    0.41
  -2  -6  -6    3.26    0.39
   2   6   6    3.47    0.35
  -3  -6  -6   -0.22    0.10
  -3  -6  -6    0.13    0.18
  -3  -6  -6    0.25    0.21
  -3  -6  -6   -0.22    0.12
   3   6   6    0.07    0.13
  -4  -6  -6    0.40    0.21
  -4  -6  -6    0.30    0.17
  -4  -6  -6    0.55    0.16
  -4  -6  -6    0.71    0.31
   4   6   6    0.18    0.16
   4   6   6    0.05    0.10
   4   6   6    0.10    0.12
  -5  -6  -6    0.66    0.36
  -5  -6  -6   -0.31    0.16
  -5  -6  -6    0.13    0.21
   5   6   6    0.02    0.12
   5   6   6    0.08    0.18
   5   6   6   -0.12    0.13
   9  -7  -6    0.29    0.19
  -9   7   6   -0.14    0.14
   8  -7  -6    0.02    0.16
   8  -7  -6    0.13    0.14
  -8   7   6    0.26    0.15
  -8   7   6    0.17    0.16
  -8   7   6   -0.09    0.14
   7  -7  -6    0.06    0.20
   7  -7  -6   -0.02    0.14
   7  -7  -6   -0.35    0.16
  -7   7   6    0.06    0.15
  -7   7   6    0.05    0.13
  -7   7   6    0.03    0.15
   6  -7  -6    0.25    0.15
   6  -7  -6    0.25    0.15
   6  -7  -6    0.48    0.17
  -6   7   6    0.16    0.14
  -6   7   6    0.19    0.17
  -6   7   6    0.32    0.18
  -6   7   6    0.21    0.16
   5  -7  -6    1.34    0.25
   5  -7  -6    0.96    0.24
   5  -7  -6    1.07    0.19
  -5   7   6    1.34    0.35
  -5   7   6    0.90    0.22
  -5   7   6    0.96    0.20
  -5   7   6    1.18    0.23
   4  -7  -6    4.87    0.35
   4  -7  -6    4.64    0.42
   4  -7  -6    4.42    0.39
   4  -7  -6    5.13    0.51
  -4   7   6    5.07    0.32
  -4   7   6    5.02    0.41
  -4   7   6    4.69    0.40
  -4   7   6    5.05    0.41
   3  -7  -6    0.34    0.17
   3  -7  -6    0.34    0.13
   3  -7  -6    0.57    0.13
   3  -7  -6    0.46    0.21
  -3   7   6    0.53    0.16
  -3   7   6    0.43    0.12
  -3   7   6    0.40    0.19
  -3   7   6    0.53    0.18
   2  -7  -6    3.43    0.41
   2  -7  -6    3.42    0.40
   2  -7  -6    4.86    0.37
   2  -7  -6    3.94    0.28
   2  -7  -6    4.49    0.27
  -2   7   6    4.31    0.34
  -2   7   6    3.90    0.41
  -2   7   6    3.76    0.41
  -2   7   6    3.64    0.32
   1  -7  -6    0.23    0.18
   1  -7  -6    0.14    0.18
   1  -7  -6    0.39    0.15
  -1   7   6    0.52    0.13
  -1   7   6    0.73    0.25
  -1   7   6    0.36    0.19
  -1   7   6    0.16    0.13
   0  -7  -6    0.10    0.19
   0  -7  -6    0.03    0.14
   0  -7  -6   -0.31    0.16
   0   7   6   -0.29    0.14
   0   7   6   -0.12    0.11
   0   7   6   -0.07    0.13
   0   7   6    0.02    0.08
  -1  -7  -6    0.71    0.25
  -1  -7  -6   -0.20    0.20
  -1  -7  -6    0.30    0.17
   1   7   6    0.37    0.10
   1   7   6    0.59    0.19
  -2  -7  -6   -0.20    0.23
  -2  -7  -6   -0.02    0.14
  -2  -7  -6   -0.03    0.19
   2   7   6    0.37    0.17
  -3  -7  -6   -0.33    0.24
  -3  -7  -6   -0.03    0.14
  -3  -7  -6    0.05    0.16
  -3  -7  -6    0.01    0.19
   3   7   6    0.29    0.17
   3   7   6    0.10    0.09
  -4  -7  -6    1.81    0.35
  -4  -7  -6    0.77    0.22
  -4  -7  -6    0.28    0.24
   4   7   6    0.87    0.17
   4   7   6    1.23    0.23
   4   7   6    1.07    0.27
   8  -8  -6   -0.15    0.14
   8  -8  -6    0.29    0.18
   8  -8  -6    0.42    0.21
  -8   8   6    0.01    0.18
  -8   8   6    0.00    0.15
  -8   8   6    0.14    0.17
   7  -8  -6    0.21    0.17
   7  -8  -6    0.29    0.21
   7  -8  -6    0.08    0.19
  -7   8   6    0.21    0.14
  -7   8   6    0.34    0.19
   6  -8  -6    0.89    0.24
   6  -8  -6    0.50    0.21
   6  -8  -6    0.80    0.19
  -6   8   6    0.78    0.20
  -6   8   6    0.61    0.22
   5  -8  -6    1.11    0.27
   5  -8  -6    0.65    0.16
  -5   8   6    1.28    0.26
  -5   8   6    0.55    0.16
  -5   8   6    0.39    0.16
  -5   8   6    0.39    0.13
  -5   8   6    0.62    0.22
   4  -8  -6    0.48    0.14
   4  -8  -6    0.73    0.16
   4  -8  -6    0.97    0.29
  -4   8   6    0.74    0.22
  -4   8   6    0.85    0.22
  -4   8   6    0.71    0.18
  -4   8   6    0.52    0.14
   3  -8  -6    0.98    0.14
   3  -8  -6    1.09    0.27
   3  -8  -6    1.11    0.17
   3  -8  -6    1.00    0.18
  -3   8   6    1.30    0.29
  -3   8   6    1.09    0.18
  -3   8   6    0.80    0.15
  -3   8   6    0.90    0.24
   2  -8  -6    0.50    0.13
   2  -8  -6    0.50    0.24
   2  -8  -6    0.57    0.18
  -2   8   6    1.03    0.26
  -2   8   6    0.81    0.24
  -2   8   6    0.58    0.25
  -2   8   6    0.74    0.16
   1  -8  -6   -0.03    0.13
   1  -8  -6   -0.04    0.22
  -1   8   6    0.18    0.10
  -1   8   6    0.03    0.17
  -1   8   6   -0.05    0.13
   0  -8  -6    0.93    0.28
   0  -8  -6    0.71    0.19
   0   8   6    0.76    0.14
   0   8   6    0.86    0.24
  -1  -8  -6   -0.05    0.21
  -1  -8  -6    0.01    0.17
   1   8   6   -0.08    0.06
   1   8   6    0.04    0.15
  -2  -8  -6    1.07    0.24
  -2  -8  -6    1.80    0.32
   2   8   6    1.19    0.28
  -3  -8  -6    0.03    0.18
  -3  -8  -6    0.17    0.25
  -3  -8  -6   -0.15    0.18
   3   8   6    0.16    0.17
   8  -9  -6   -0.17    0.24
   8  -9  -6   -0.27    0.15
   8  -9  -6   -0.24    0.19
  -8   9   6   -0.01    0.16
  -8   9   6   -0.18    0.15
   7  -9  -6   -0.05    0.16
   7  -9  -6    0.04    0.16
   7  -9  -6    0.35    0.22
  -7   9   6   -0.28    0.20
  -7   9   6   -0.07    0.14
  -7   9   6    0.05    0.17
   6  -9  -6   -0.18    0.20
   6  -9  -6    0.21    0.14
   6  -9  -6    0.49    0.20
  -6   9   6   -0.06    0.18
  -6   9   6   -0.09    0.15
  -6   9   6   -0.08    0.12
  -6   9   6    0.03    0.18
   5  -9  -6    0.13    0.15
   5  -9  -6    0.58    0.23
  -5   9   6    0.10    0.14
  -5   9   6   -0.04    0.13
  -5   9   6    0.09    0.20
  -5   9   6    0.41    0.19
   4  -9  -6    9.85    0.63
   4  -9  -6    7.86    0.44
   4  -9  -6    8.88    0.51
  -4   9   6    9.39    0.59
  -4   9   6    9.19    0.82
  -4   9   6    8.16    0.49
  -4   9   6    7.62    0.58
   3  -9  -6    5.55    0.52
   3  -9  -6    4.43    0.41
  -3   9   6    4.46    0.44
  -3   9   6    4.82    0.52
  -3   9   6    4.60    0.39
   2  -9  -6    0.08    0.14
   2  -9  -6    0.04    0.21
   2  -9  -6    0.24    0.12
  -2   9   6   -0.02    0.09
  -2   9   6   -0.02    0.19
   1  -9  -6   -0.02    0.17
   1  -9  -6    0.20    0.24
  -1   9   6   -0.05    0.09
  -1   9   6    0.23    0.17
   0  -9  -6   -0.05    0.15
   0  -9  -6   -0.07    0.20
   0   9   6   -0.09    0.08
   0   9   6    0.16    0.17
  -1  -9  -6    0.14    0.24
  -1  -9  -6   -0.18    0.17
   1   9   6   -0.01    0.15
   1   9   6    0.01    0.09
   7 -10  -6    0.15    0.16
   7 -10  -6    0.41    0.27
  -7  10   6   -0.06    0.14
  -7  10   6    0.19    0.21
  -7  10   6   -0.23    0.22
   6 -10  -6    0.72    0.28
   6 -10  -6    0.28    0.16
  -6  10   6    0.82    0.26
  -6  10   6    0.18    0.14
  -6  10   6    0.15    0.16
  -6  10   6   -0.19    0.42
   5 -10  -6    0.42    0.26
   5 -10  -6    0.39    0.15
  -5  10   6    0.20    0.15
  -5  10   6    0.59    0.22
  -5  10   6    0.10    0.19
  -5  10   6    0.15    0.16
   4 -10  -6    0.59    0.17
   4 -10  -6    0.51    0.26
  -4  10   6    0.35    0.24
  -4  10   6    0.20    0.28
  -4  10   6    0.24    0.14
   3 -10  -6    0.03    0.26
   3 -10  -6   -0.15    0.15
  -3  10   6    0.13    0.15
  -3  10   6    0.20    0.21
   2 -10  -6    0.25    0.24
   2 -10  -6    0.18    0.14
   2 -10  -6   -0.12    0.15
   2 -10  -6   -0.11    0.16
  -2  10   6   -0.08    0.10
  -2  10   6   -0.01    0.17
   1 -10  -6    0.45    0.27
   1 -10  -6    0.05    0.17
   1 -10  -6   -0.21    0.15
  -1  10   6    0.11    0.11
  -1  10   6    0.34    0.19
   0 -10  -6    0.01    0.18
   0 -10  -6    0.27    0.28
   0 -10  -6   -0.01    0.17
   0  10   6    0.05    0.09
   0  10   6    0.35    0.19
   4 -11  -6   -0.34    0.29
   4 -11  -6    0.32    0.17
  -4  11   6    0.38    0.22
   3 -11  -6    0.24    0.25
   3 -11  -6    0.00    0.17
  -3  11   6    0.05    0.20
  -1  11  -7   -0.10    0.11
  -1  11  -7    0.16    0.23
   1 -11   7   -0.08    0.22
   1 -11   7    0.07    0.11
   1 -11   7   -0.34    0.14
  -2  11  -7    0.33    0.14
  -2  11  -7    0.69    0.24
   2 -11   7    0.09    0.15
   2 -11   7    0.25    0.26
   2 -11   7    0.50    0.16
  -3  11  -7    0.51    0.21
  -3  11  -7    0.67    0.16
  -3  11  -7    0.53    0.25
   3 -11   7    0.26    0.16
   3 -11   7    0.77    0.17
   3 -11   7    0.41    0.27
  -4  11  -7    0.03    0.21
  -4  11  -7   -0.21    0.10
   4 -11   7   -0.39    0.21
   4 -11   7   -0.09    0.13
  -5  11  -7   -0.21    0.19
  -5  11  -7   -0.12    0.12
  -5  11  -7   -0.24    0.23
   5 -11   7   -0.03    0.16
   5 -11   7   -0.04    0.24
   1  10  -7    0.02    0.19
   1  10  -7    0.12    0.12
  -1 -10   7    0.23    0.19
  -1 -10   7    0.34    0.23
   0  10  -7    0.18    0.12
   0  10  -7    0.09    0.17
   0 -10   7   -0.01    0.21
   0 -10   7    0.07    0.17
  -1  10  -7    0.30    0.14
  -1  10  -7    0.37    0.17
  -1  10  -7    0.87    0.25
   1 -10   7    0.33    0.29
   1 -10   7    0.43    0.15
   1 -10   7    0.52    0.18
  -2  10  -7    0.38    0.13
  -2  10  -7    0.35    0.19
  -2  10  -7    0.39    0.16
   2 -10   7    0.03    0.12
   2 -10   7    0.38    0.15
   2 -10   7    0.34    0.24
  -3  10  -7    0.47    0.29
  -3  10  -7    0.01    0.12
  -3  10  -7    0.18    0.19
  -3  10  -7    0.17    0.16
  -3  10  -7   -0.01    0.12
   3 -10   7    0.14    0.11
   3 -10   7   -0.05    0.21
   3 -10   7    0.08    0.12
  -4  10  -7    0.48    0.22
  -4  10  -7    0.43    0.21
  -4  10  -7    0.32    0.14
   4 -10   7    0.48    0.23
   4 -10   7    0.40    0.15
  -5  10  -7    0.41    0.20
  -5  10  -7    0.12    0.22
  -5  10  -7   -0.13    0.13
   5 -10   7    0.02    0.21
   5 -10   7   -0.05    0.15
  -6  10  -7    0.18    0.20
  -6  10  -7    0.42    0.18
  -6  10  -7   -0.16    0.12
   6 -10   7    0.06    0.16
   6 -10   7   -0.16    0.14
   6 -10   7    0.00    0.19
   3   9  -7    0.32    0.33
  -3  -9   7   -0.10    0.18
  -3  -9   7   -0.17    0.21
   2   9  -7    0.30    0.12
   2   9  -7    0.71    0.36
  -2  -9   7    0.25    0.19
  -2  -9   7    0.34    0.22
   1   9  -7    0.32    0.23
   1   9  -7    0.17    0.11
  -1  -9   7    0.11    0.16
  -1  -9   7   -0.01    0.20
   0   9  -7    0.09    0.11
   0   9  -7   -0.16    0.12
   0   9  -7    0.13    0.17
   0  -9   7    0.01    0.14
   0  -9   7    0.22    0.21
  -1   9  -7    0.33    0.14
  -1   9  -7    0.44    0.20
  -1   9  -7    0.33    0.24
   1  -9   7    0.41    0.13
   1  -9   7    0.21    0.20
   1  -9   7    0.06    0.14
  -2   9  -7   -0.04    0.23
  -2   9  -7    0.65    0.33
  -2   9  -7   -0.05    0.18
  -2   9  -7    0.23    0.13
   2  -9   7    0.28    0.21
   2  -9   7    0.14    0.13
   2  -9   7    0.15    0.12
  -3   9  -7    0.47    0.37
  -3   9  -7    0.47    0.26
  -3   9  -7    0.57    0.15
  -3   9  -7    0.86    0.31
   3  -9   7    0.41    0.15
   3  -9   7    0.84    0.24
   3  -9   7    0.68    0.15
  -4   9  -7    0.28    0.12
  -4   9  -7    0.25    0.15
  -4   9  -7   -0.03    0.13
  -4   9  -7    0.47    0.22
  -4   9  -7    0.12    0.15
   4  -9   7    0.49    0.23
   4  -9   7    0.30    0.14
  -5   9  -7   -0.06    0.11
  -5   9  -7   -0.30    0.15
  -5   9  -7    0.08    0.16
   5  -9   7    0.02    0.13
   5  -9   7    0.15    0.17
  -6   9  -7   -0.04    0.15
  -6   9  -7   -0.07    0.19
  -6   9  -7   -0.09    0.14
   6  -9   7    0.11    0.15
   6  -9   7    0.10    0.13
   6  -9   7    0.07    0.15
  -7   9  -7    0.24    0.18
  -7   9  -7    0.07    0.14
  -7   9  -7   -0.35    0.23
   7  -9   7   -0.10    0.17
   7  -9   7   -0.12    0.15
   7  -9   7    0.03    0.12
   4   8  -7   -0.14    0.16
  -4  -8   7    0.10    0.14
  -4  -8   7   -0.05    0.20
  -4  -8   7   -0.18    0.12
  -4  -8   7   -0.05    0.19
   3   8  -7    0.32    0.19
  -3  -8   7    0.17    0.21
  -3  -8   7    0.00    0.19
   2   8  -7   -0.05    0.10
   2   8  -7    0.08    0.17
  -2  -8   7   -0.01    0.16
  -2  -8   7    0.02    0.20
   1   8  -7    0.72    0.17
   1   8  -7    0.39    0.13
   1   8  -7    0.83    0.22
  -1  -8   7    0.46    0.17
  -1  -8   7    0.93    0.27
   0   8  -7    0.21    0.18
   0   8  -7   -0.09    0.14
   0   8  -7    0.12    0.11
   0   8  -7   -0.07    0.23
   0  -8   7   -0.03    0.13
   0  -8   7    0.15    0.17
   0  -8   7    0.46    0.27
  -1   8  -7    6.47    0.41
  -1   8  -7    6.58    0.49
  -1   8  -7    5.81    0.40
  -1   8  -7    6.61    0.50
   1  -8   7    6.98    0.53
   1  -8   7    7.03    0.42
   1  -8   7    6.20    0.62
   1  -8   7    6.17    0.50
  -2   8  -7    2.29    0.34
  -2   8  -7    1.31    0.19
  -2   8  -7    1.51    0.22
  -2   8  -7    1.67    0.28
   2  -8   7    1.51    0.21
   2  -8   7    1.87    0.32
   2  -8   7    1.37    0.18
  -3   8  -7    0.50    0.14
  -3   8  -7    0.38    0.15
  -3   8  -7    0.66    0.21
  -3   8  -7    0.86    0.23
   3  -8   7    0.53    0.20
   3  -8   7    0.45    0.13
   3  -8   7    0.61    0.15
  -4   8  -7   -0.08    0.17
  -4   8  -7    0.10    0.16
  -4   8  -7    0.01    0.10
  -4   8  -7    0.12    0.12
   4  -8   7    0.02    0.12
   4  -8   7    0.06    0.17
  -5   8  -7    0.03    0.11
  -5   8  -7    0.63    0.20
  -5   8  -7    0.53    0.20
  -5   8  -7    0.14    0.12
   5  -8   7    0.15    0.12
   5  -8   7    0.07    0.16
   5  -8   7    0.14    0.13
  -6   8  -7    0.12    0.24
  -6   8  -7    0.14    0.11
   6  -8   7    0.45    0.17
   6  -8   7    0.26    0.17
   6  -8   7    0.20    0.16
  -7   8  -7   -0.08    0.13
  -7   8  -7    0.17    0.15
  -7   8  -7   -0.05    0.18
   7  -8   7   -0.02    0.12
   7  -8   7    0.15    0.15
   7  -8   7   -0.18    0.12
  -8   8  -7    0.05    0.15
  -8   8  -7    0.43    0.16
   8  -8   7   -0.25    0.16
   8  -8   7   -0.10    0.14
   5   7  -7    0.43    0.23
   5   7  -7    0.59    0.16
  -5  -7   7    0.49    0.26
  -5  -7   7    0.51    0.23
  -5  -7   7    0.89    0.28
  -5  -7   7    0.48    0.15
  -5  -7   7    0.68    0.18
   4   7  -7    0.26    0.18
   4   7  -7    0.28    0.11
  -4  -7   7    0.23    0.15
  -4  -7   7    0.39    0.24
  -4  -7   7    0.22    0.20
  -4  -7   7    0.03    0.11
  -4  -7   7    0.23    0.17
   3   7  -7    0.38    0.20
  -3  -7   7    0.44    0.22
  -3  -7   7    0.34    0.23
  -3  -7   7    0.30    0.27
   2   7  -7    0.10    0.11
   2   7  -7   -0.04    0.14
   2   7  -7    0.02    0.17
  -2  -7   7    0.18    0.17
  -2  -7   7    0.09    0.16
  -2  -7   7    0.20    0.19
   1   7  -7    0.46    0.23
   1   7  -7    0.30    0.12
   1   7  -7    0.08    0.10
   1   7  -7    0.37    0.22
   1   7  -7    0.25    0.15
  -1  -7   7    0.47    0.15
  -1  -7   7    0.04    0.12
  -1  -7   7    0.14    0.20
  -1  -7   7    0.35    0.21
   0   7  -7    0.40    0.14
   0   7  -7    0.24    0.20
   0   7  -7    0.16    0.26
   0   7  -7    0.45    0.13
   0   7  -7    0.24    0.12
   0  -7   7    0.38    0.21
   0  -7   7    0.35    0.15
   0  -7   7    0.14    0.11
   0  -7   7    0.30    0.20
  -1   7  -7   12.76    0.62
  -1   7  -7   13.13    0.57
  -1   7  -7   13.07    0.57
  -1   7  -7   14.34    0.68
  -1   7  -7   12.90    0.64
   1  -7   7   14.33    0.58
   1  -7   7   12.88    0.66
   1  -7   7   13.54    0.48
   1  -7   7   14.12    0.69
  -2   7  -7    5.65    0.40
  -2   7  -7    6.42    0.47
  -2   7  -7    6.48    0.48
  -2   7  -7    6.35    0.46
  -2   7  -7    6.09    0.38
   2  -7   7    5.60    0.42
   2  -7   7    5.76    0.34
   2  -7   7    6.76    0.49
   2  -7   7    6.26    0.39
  -3   7  -7   18.15    0.75
  -3   7  -7   17.27    0.65
  -3   7  -7   17.07    0.68
  -3   7  -7   18.15    0.74
   3  -7   7   19.66    0.77
   3  -7   7   17.92    0.65
   3  -7   7   15.22    0.69
   3  -7   7   17.97    0.74
   3  -7   7   18.76    0.65
  -4   7  -7    3.26    0.30
  -4   7  -7    4.42    0.39
  -4   7  -7    4.33    0.39
  -4   7  -7    4.41    0.35
   4  -7   7    4.34    0.37
   4  -7   7    4.32    0.38
   4  -7   7    3.61    0.33
   4  -7   7    3.45    0.35
  -5   7  -7   -0.14    0.10
  -5   7  -7   -0.06    0.14
  -5   7  -7    0.10    0.11
  -5   7  -7   -0.08    0.14
   5  -7   7    0.18    0.14
   5  -7   7    0.04    0.14
   5  -7   7   -0.06    0.10
   5  -7   7    0.15    0.12
   5  -7   7    0.04    0.13
   5  -7   7   -0.10    0.14
  -6   7  -7    1.48    0.21
  -6   7  -7    1.33    0.19
  -6   7  -7    1.85    0.27
  -6   7  -7    1.16    0.17
  -6   7  -7    1.50    0.24
   6  -7   7    1.45    0.25
   6  -7   7    1.07    0.17
   6  -7   7    1.58    0.25
   6  -7   7    1.38    0.23
   6  -7   7    1.61    0.36
   6  -7   7    1.74    0.26
  -7   7  -7    0.33    0.13
  -7   7  -7    0.83    0.19
  -7   7  -7    0.14    0.13
  -7   7  -7    0.77    0.17
   7  -7   7    0.40    0.20
   7  -7   7    0.57    0.20
   7  -7   7    0.36    0.15
  -8   7  -7   -0.05    0.15
  -8   7  -7    0.02    0.13
   8  -7   7    0.02    0.15
   8  -7   7    0.00    0.14
   6   6  -7   -0.21    0.17
   6   6  -7   -0.02    0.13
  -6  -6   7    0.13    0.15
  -6  -6   7   -0.21    0.18
  -6  -6   7    0.00    0.25
  -6  -6   7    0.25    0.22
   5   6  -7    1.74    0.29
   5   6  -7    1.03    0.21
   5   6  -7    0.93    0.17
  -5  -6   7    0.66    0.15
  -5  -6   7    0.98    0.19
  -5  -6   7    0.82    0.21
  -5  -6   7    1.29    0.27
  -5  -6   7    1.38    0.28
   4   6  -7   -0.15    0.13
   4   6  -7    0.17    0.18
   4   6  -7    0.16    0.11
  -4  -6   7    0.24    0.19
  -4  -6   7    0.06    0.10
  -4  -6   7   -0.19    0.18
  -4  -6   7   -0.03    0.10
  -4  -6   7    0.19    0.20
   3   6  -7    1.98    0.29
  -3  -6   7    1.39    0.19
  -3  -6   7    1.46    0.20
  -3  -6   7    1.55    0.29
  -3  -6   7    1.36    0.25
  -3  -6   7    1.59    0.28
   2   6  -7    0.00    0.14
   2   6  -7    0.07    0.12
   2   6  -7    0.08    0.09
   2   6  -7   -0.09    0.09
  -2  -6   7    0.07    0.17
  -2  -6   7   -0.06    0.13
  -2  -6   7   -0.09    0.09
   1   6  -7   -0.16    0.14
   1   6  -7    0.06    0.09
   1   6  -7    0.15    0.12
   1   6  -7    0.08    0.18
   1   6  -7    0.18    0.11
  -1  -6   7    0.17    0.15
  -1  -6   7   -0.11    0.17
  -1  -6   7    0.02    0.15
  -1  -6   7    0.19    0.13
   0   6  -7    5.73    0.38
   0   6  -7    5.70    0.38
   0   6  -7    5.74    0.44
   0   6  -7    5.55    0.42
   0   6  -7    6.03    0.37
   0  -6   7    6.01    0.37
   0  -6   7    5.20    0.44
   0  -6   7    5.98    0.39
   0  -6   7    5.02    0.40
  -1   6  -7   35.27    1.04
  -1   6  -7   34.38    1.03
  -1   6  -7   35.22    1.12
  -1   6  -7   33.59    1.06
  -1   6  -7   33.02    1.11
   1  -6   7   36.11    1.14
   1  -6   7   35.12    1.03
   1  -6   7   34.30    1.12
   1  -6   7   35.26    0.91
   1  -6   7   33.35    1.03
  -2   6  -7   40.66    1.24
  -2   6  -7   41.89    1.27
  -2   6  -7   41.20    1.18
  -2   6  -7   45.69    1.31
  -2   6  -7   41.91    1.19
   2  -6   7   43.77    1.18
   2  -6   7   39.57    1.19
   2  -6   7   43.91    1.29
   2  -6   7   39.83    1.25
   2  -6   7   42.72    1.12
  -3   6  -7    0.83    0.16
  -3   6  -7    1.52    0.24
  -3   6  -7    1.12    0.17
  -3   6  -7    1.32    0.25
   3  -6   7    1.54    0.24
   3  -6   7    1.19    0.19
   3  -6   7    0.88    0.20
   3  -6   7    1.15    0.18
   3  -6   7    1.12    0.20
  -4   6  -7    3.32    0.29
  -4   6  -7    3.37    0.33
  -4   6  -7    2.25    0.28
  -4   6  -7    3.15    0.32
   4  -6   7    2.90    0.23
   4  -6   7    3.46    0.30
   4  -6   7    3.27    0.31
   4  -6   7    3.09    0.31
   4  -6   7    2.67    0.29
  -5   6  -7    0.61    0.15
  -5   6  -7    1.33    0.22
  -5   6  -7    1.00    0.21
  -5   6  -7    0.79    0.15
  -5   6  -7    0.78    0.15
   5  -6   7    0.83    0.17
   5  -6   7    0.82    0.17
   5  -6   7    1.03    0.21
   5  -6   7    0.76    0.17
   5  -6   7    0.79    0.15
   5  -6   7    0.86    0.35
  -6   6  -7    0.40    0.17
  -6   6  -7    0.42    0.13
  -6   6  -7    0.46    0.17
  -6   6  -7    0.26    0.13
  -6   6  -7    0.09    0.15
   6  -6   7    0.43    0.14
   6  -6   7    0.27    0.14
   6  -6   7    0.30    0.18
   6  -6   7    0.61    0.17
   6  -6   7    0.43    0.15
   6  -6   7    0.26    0.14
  -7   6  -7    0.40    0.16
  -7   6  -7    0.79    0.17
  -7   6  -7    0.41    0.14
  -7   6  -7    0.28    0.14
   7  -6   7    0.35    0.16
   7  -6   7    0.35    0.17
   7  -6   7    0.40    0.28
  -8   6  -7   -0.12    0.10
   8  -6   7   -0.08    0.19
   8  -6   7    0.19    0.18
   6   5  -7    0.25    0.16
   6   5  -7    0.28    0.13
   6   5  -7    0.36    0.16
   6   5  -7    0.40    0.21
  -6  -5   7    0.48    0.20
  -6  -5   7    0.09    0.21
  -6  -5   7    0.34    0.20
  -6  -5   7    0.12    0.12
   5   5  -7    0.30    0.18
   5   5  -7    0.12    0.12
   5   5  -7    0.32    0.20
   5   5  -7   -0.07    0.20
  -5  -5   7    0.04    0.16
  -5  -5   7    0.16    0.13
  -5  -5   7    0.25    0.15
  -5  -5   7    0.18    0.10
  -5  -5   7    0.24    0.17
  -5  -5   7   -0.32    0.17
   4   5  -7    1.99    0.30
   4   5  -7    1.54    0.20
   4   5  -7    1.21    0.19
  -4  -5   7    1.27    0.19
  -4  -5   7    1.36    0.24
  -4  -5   7    1.16    0.19
  -4  -5   7    1.29    0.25
  -4  -5   7    1.68    0.28
  -4  -5   7    1.45    0.19
   3   5  -7    0.81    0.17
   3   5  -7    0.48    0.14
   3   5  -7    0.86    0.22
  -3  -5   7    1.12    0.21
  -3  -5   7    0.70    0.18
  -3  -5   7    0.71    0.21
  -3  -5   7    0.49    0.17
   2   5  -7    0.53    0.19
   2   5  -7    0.51    0.16
   2   5  -7    0.43    0.13
   2   5  -7    0.39    0.12
  -2  -5   7    0.32    0.12
  -2  -5   7    0.71    0.17
  -2  -5   7    0.51    0.16
  -2  -5   7    0.39    0.08
  -2  -5   7    0.44    0.18
   1   5  -7   23.27    0.82
   1   5  -7   22.72    0.76
   1   5  -7   24.44    0.85
   1   5  -7   22.96    0.80
   1   5  -7   22.22    0.75
  -1  -5   7   22.23    0.75
  -1  -5   7   24.58    0.80
  -1  -5   7   22.42    0.83
  -1  -5   7   22.50    0.84
   0   5  -7    1.80    0.23
   0   5  -7    2.31    0.29
   0   5  -7    2.00    0.24
   0   5  -7    2.20    0.26
   0   5  -7    2.11    0.27
   0  -5   7    2.34    0.31
   0  -5   7    2.08    0.27
   0  -5   7    2.13    0.27
   0  -5   7    1.82    0.23
  -1   5  -7    9.69    0.45
  -1   5  -7    9.95    0.47
  -1   5  -7   11.02    0.52
  -1   5  -7    9.96    0.44
  -1   5  -7   10.47    0.49
   1  -5   7    9.94    0.44
   1  -5   7    9.24    0.48
   1  -5   7   10.18    0.50
   1  -5   7   11.09    0.47
  -2   5  -7    0.18    0.13
  -2   5  -7    0.30    0.12
  -2   5  -7    0.23    0.09
  -2   5  -7    0.06    0.11
   2  -5   7    0.23    0.09
   2  -5   7    0.22    0.10
   2  -5   7    0.23    0.13
   2  -5   7    0.33    0.14
   2  -5   7    0.33    0.12
   2  -5   7    0.23    0.06
  -3   5  -7    0.07    0.12
  -3   5  -7   -0.19    0.10
  -3   5  -7   -0.08    0.09
  -3   5  -7   -0.09    0.07
   3  -5   7   -0.07    0.05
   3  -5   7   -0.03    0.08
   3  -5   7   -0.02    0.11
   3  -5   7    0.04    0.08
   3  -5   7    0.02    0.10
  -4   5  -7    1.09    0.19
  -4   5  -7    1.05    0.16
  -4   5  -7    0.71    0.14
  -4   5  -7    0.97    0.15
  -4   5  -7    1.28    0.22
   4  -5   7    0.88    0.18
   4  -5   7    1.04    0.18
   4  -5   7    0.89    0.13
   4  -5   7    0.79    0.15
   4  -5   7    1.12    0.20
   4  -5   7    1.05    0.16
  -5   5  -7    1.72    0.22
  -5   5  -7    2.35    0.28
  -5   5  -7    2.01    0.24
  -5   5  -7    1.61    0.21
  -5   5  -7    1.75    0.25
  -5   5  -7    2.03    0.28
   5  -5   7    1.71    0.22
   5  -5   7    2.29    0.31
   5  -5   7    1.63    0.24
   5  -5   7    1.85    0.25
   5  -5   7    1.81    0.24
  -6   5  -7   -0.19    0.14
  -6   5  -7   -0.09    0.13
  -6   5  -7    0.00    0.11
  -6   5  -7    0.04    0.10
  -6   5  -7    0.18    0.14
  -6   5  -7   -0.02    0.13
   6  -5   7    0.08    0.14
   6  -5   7    0.13    0.12
   6  -5   7    0.06    0.11
   6  -5   7    0.09    0.13
   6  -5   7    0.10    0.13
  -7   5  -7    0.73    0.15
  -7   5  -7    0.43    0.15
  -7   5  -7    0.27    0.15
  -7   5  -7   -0.10    0.16
  -7   5  -7    0.11    0.11
   7  -5   7    0.48    0.19
   7  -5   7    0.56    0.16
  -8   5  -7    0.07    0.17
  -8   5  -7   -0.16    0.14
  -8   5  -7   -0.14    0.10
   8  -5   7    0.20    0.15
   8  -5   7   -0.14    0.13
   7   4  -7    0.29    0.17
   7   4  -7    0.38    0.19
   7   4  -7    0.53    0.17
   7   4  -7    0.52    0.21
  -7  -4   7    0.45    0.24
  -7  -4   7    0.55    0.16
  -7  -4   7    0.36    0.18
  -7  -4   7    0.01    0.22
   6   4  -7    0.98    0.20
   6   4  -7    0.52    0.16
   6   4  -7    0.93    0.22
   6   4  -7    1.10    0.23
  -6  -4   7    0.43    0.12
  -6  -4   7    0.60    0.21
  -6  -4   7    0.70    0.21
  -6  -4   7    1.05    0.23
  -6  -4   7    0.53    0.22
  -6  -4   7    0.63    0.17
   5   4  -7    0.24    0.13
   5   4  -7   -0.10    0.10
   5   4  -7    0.09    0.11
   5   4  -7    0.09    0.15
  -5  -4   7    0.13    0.12
  -5  -4   7    0.01    0.09
  -5  -4   7    0.07    0.11
  -5  -4   7    0.18    0.17
  -5  -4   7   -0.04    0.12
  -5  -4   7    0.04    0.15
  -5  -4   7   -0.01    0.14
   4   4  -7    0.13    0.20
   4   4  -7    0.03    0.09
   4   4  -7    0.05    0.09
   4   4  -7   -0.16    0.13
  -4  -4   7   -0.12    0.09
  -4  -4   7    0.00    0.09
  -4  -4   7   -0.02    0.13
  -4  -4   7    0.07    0.13
  -4  -4   7    0.07    0.15
   3   4  -7    1.72    0.26
   3   4  -7    1.45    0.24
   3   4  -7    1.74    0.22
   3   4  -7    1.53    0.22
  -3  -4   7    1.64    0.22
  -3  -4   7    1.38    0.23
  -3  -4   7    1.41    0.23
  -3  -4   7    1.72    0.24
  -3  -4   7    1.35    0.22
   2   4  -7    3.05    0.29
   2   4  -7    3.11    0.25
   2   4  -7    3.16    0.30
   2   4  -7    2.84    0.30
  -2  -4   7    2.82    0.21
  -2  -4   7    2.96    0.29
  -2  -4   7    2.86    0.32
  -2  -4   7    2.80    0.24
  -2  -4   7    3.24    0.31
   1   4  -7    0.16    0.12
   1   4  -7    0.02    0.09
   1   4  -7    0.01    0.08
   1   4  -7    0.17    0.11
   1   4  -7    0.15    0.09
  -1  -4   7    0.13    0.11
  -1  -4   7   -0.08    0.11
  -1  -4   7    0.10    0.12
  -1  -4   7    0.04    0.07
   0   4  -7    3.31    0.27
   0   4  -7    2.99    0.24
   0   4  -7    3.18    0.29
   0   4  -7    3.31    0.28
   0   4  -7    3.14    0.25
   0  -4   7    3.06    0.27
   0  -4   7    3.11    0.30
   0  -4   7    2.95    0.28
  -1   4  -7    0.24    0.14
  -1   4  -7    0.17    0.09
  -1   4  -7    0.21    0.09
  -1   4  -7    0.34    0.12
   1  -4   7    0.18    0.10
   1  -4   7    0.23    0.12
   1  -4   7    0.21    0.14
   1  -4   7    0.23    0.07
  -2   4  -7    1.99    0.23
  -2   4  -7    2.22    0.27
  -2   4  -7    1.81    0.24
  -2   4  -7    1.93    0.21
   2  -4   7    1.99    0.25
   2  -4   7    1.61    0.22
   2  -4   7    2.13    0.20
   2  -4   7    2.06    0.24
  -3   4  -7    1.25    0.21
  -3   4  -7    1.37    0.21
  -3   4  -7    1.45    0.19
  -3   4  -7    1.12    0.18
  -3   4  -7    1.47    0.22
   3  -4   7    1.34    0.16
   3  -4   7    1.45    0.18
   3  -4   7    1.36    0.21
   3  -4   7    1.35    0.20
  -4   4  -7    1.06    0.19
  -4   4  -7    1.21    0.19
  -4   4  -7    0.73    0.13
  -4   4  -7    0.72    0.12
  -4   4  -7    0.91    0.16
  -4   4  -7    0.98    0.15
   4  -4   7    1.30    0.20
   4  -4   7    0.96    0.14
   4  -4   7    1.12    0.19
   4  -4   7    0.92    0.17
   4  -4   7    0.95    0.14
  -5   4  -7    1.18    0.19
  -5   4  -7    1.11    0.19
  -5   4  -7    0.92    0.13
  -5   4  -7    1.02    0.17
  -5   4  -7    1.01    0.19
  -5   4  -7    0.88    0.16
   5  -4   7    0.98    0.19
   5  -4   7    1.13    0.18
   5  -4   7    0.80    0.15
   5  -4   7    1.08    0.19
   5  -4   7    1.02    0.16
  -6   4  -7    1.09    0.19
  -6   4  -7    1.85    0.25
  -6   4  -7    1.24    0.21
  -6   4  -7    1.02    0.15
  -6   4  -7    0.82    0.16
  -6   4  -7    1.07    0.18
   6  -4   7    1.31    0.18
   6  -4   7    1.16    0.22
   6  -4   7    1.17    0.18
   6  -4   7    1.14    0.18
   6  -4   7    1.41    0.19
  -7   4  -7    0.88    0.14
  -7   4  -7    1.07    0.18
  -7   4  -7    1.27    0.19
  -7   4  -7    0.75    0.17
  -7   4  -7    0.92    0.38
   7  -4   7    0.86    0.19
   7  -4   7    0.80    0.21
  -8   4  -7   -0.12    0.16
   8  -4   7    0.21    0.15
   8  -4   7    0.05    0.13
  -8  -3   7    0.02    0.13
  -8  -3   7    0.04    0.19
   7   3  -7    0.79    0.19
   7   3  -7    1.25    0.22
   7   3  -7    0.74    0.20
   7   3  -7    0.82    0.17
  -7  -3   7    1.27    0.22
  -7  -3   7    1.52    0.26
  -7  -3   7    0.92    0.16
  -7  -3   7    0.69    0.16
  -7  -3   7    0.73    0.22
   6   3  -7    0.03    0.10
   6   3  -7    0.24    0.15
   6   3  -7    0.12    0.12
   6   3  -7   -0.18    0.09
  -6  -3   7    0.24    0.26
  -6  -3   7   -0.17    0.14
  -6  -3   7   -0.06    0.10
  -6  -3   7   -0.04    0.10
  -6  -3   7   -0.02    0.14
   5   3  -7   -0.21    0.12
   5   3  -7    0.21    0.14
   5   3  -7    0.07    0.09
   5   3  -7    0.03    0.10
   5   3  -7    0.13    0.11
  -5  -3   7    0.15    0.15
  -5  -3   7    0.05    0.09
  -5  -3   7    0.22    0.13
  -5  -3   7   -0.06    0.12
  -5  -3   7    0.12    0.15
  -5  -3   7    0.20    0.09
  -5  -3   7   -0.02    0.09
   4   3  -7    2.31    0.29
   4   3  -7    2.42    0.23
   4   3  -7    2.81    0.28
   4   3  -7    2.28    0.26
   4   3  -7    2.22    0.33
  -4  -3   7    2.14    0.24
  -4  -3   7    2.27    0.32
  -4  -3   7    2.47    0.31
  -4  -3   7    2.54    0.43
  -4  -3   7    2.19    0.24
   3   3  -7    0.61    0.15
   3   3  -7    0.71    0.17
   3   3  -7    0.79    0.19
  -3  -3   7    0.79    0.17
  -3  -3   7    0.45    0.10
  -3  -3   7    0.71    0.19
  -3  -3   7    0.78    0.18
  -3  -3   7    0.58    0.11
   2   3  -7    0.67    0.12
   2   3  -7    0.99    0.21
   2   3  -7    0.74    0.15
   2   3  -7    0.70    0.15
  -2  -3   7    0.79    0.18
  -2  -3   7    0.66    0.14
  -2  -3   7    0.87    0.19
  -2  -3   7    0.66    0.15
   1   3  -7    6.96    0.60
   1   3  -7    6.14    0.34
   1   3  -7    6.80    0.37
   1   3  -7    5.37    0.36
  -1  -3   7    6.21    0.35
  -1  -3   7    6.36    0.36
  -1  -3   7    6.45    0.39
   0   3  -7   33.57    1.01
   0   3  -7   36.61    1.05
   0   3  -7   33.66    0.98
   0   3  -7   35.66    0.96
   0  -3   7   31.67    1.00
   0  -3   7   35.13    0.97
   0  -3   7   33.70    0.94
   0  -3   7   34.31    1.30
  -1   3  -7    0.22    0.12
  -1   3  -7    0.08    0.09
  -1   3  -7    0.22    0.12
   1  -3   7    0.14    0.11
   1  -3   7    0.25    0.11
   1  -3   7    0.05    0.11
   1  -3   7    0.14    0.07
  -2   3  -7   29.39    0.89
  -2   3  -7   29.07    0.81
  -2   3  -7   28.50    0.88
  -2   3  -7   27.97    0.77
  -2   3  -7   28.47    0.83
   2  -3   7   26.46    0.86
   2  -3   7   28.36    0.80
   2  -3   7   29.55    0.89
  -3   3  -7    0.48    0.12
  -3   3  -7    1.06    0.19
  -3   3  -7    0.67    0.11
  -3   3  -7    0.55    0.09
  -3   3  -7    0.73    0.15
  -3   3  -7    0.76    0.15
   3  -3   7    0.80    0.15
   3  -3   7    0.62    0.11
   3  -3   7    0.68    0.15
  -4   3  -7   -0.09    0.10
  -4   3  -7   -0.08    0.10
  -4   3  -7   -0.15    0.07
  -4   3  -7    0.08    0.10
  -4   3  -7    0.01    0.07
  -4   3  -7   -0.02    0.10
   4  -3   7    0.04    0.07
   4  -3   7    0.01    0.08
   4  -3   7    0.00    0.07
   4  -3   7   -0.05    0.11
   4  -3   7   -0.04    0.10
  -5   3  -7    0.17    0.13
  -5   3  -7    0.20    0.11
  -5   3  -7   -0.23    0.12
  -5   3  -7    0.15    0.08
  -5   3  -7   -0.21    0.11
  -5   3  -7   -0.17    0.14
   5  -3   7   -0.03    0.09
   5  -3   7   -0.02    0.11
   5  -3   7   -0.13    0.12
   5  -3   7    0.07    0.09
   5  -3   7   -0.13    0.12
  -6   3  -7    2.51    0.28
  -6   3  -7    2.14    0.26
  -6   3  -7    2.42    0.33
  -6   3  -7    3.00    0.40
  -6   3  -7    2.52    0.28
  -6   3  -7    2.37    0.23
  -6   3  -7    2.70    0.32
   6  -3   7    2.72    0.32
   6  -3   7    2.36    0.33
  -7   3  -7    0.36    0.16
  -7   3  -7    0.55    0.25
   7  -3   7    0.49    0.17
   7  -3   7    0.65    0.18
  -8   3  -7    0.29    0.16
   8  -3   7    0.11    0.13
   8  -3   7    0.32    0.13
   8   2  -7   -0.02    0.13
   8   2  -7    0.22    0.14
  -8  -2   7    0.05    0.16
  -8  -2   7   -0.01    0.17
  -8  -2   7    0.14    0.15
   7   2  -7    0.16    0.15
   7   2  -7   -0.14    0.13
   7   2  -7    0.14    0.12
  -7  -2   7   -0.21    0.10
  -7  -2   7    0.05    0.14
  -7  -2   7    0.11    0.16
  -7  -2   7    0.03    0.14
   6   2  -7    0.02    0.12
   6   2  -7    0.14    0.15
   6   2  -7    0.05    0.11
   6   2  -7    0.14    0.14
  -6  -2   7    0.14    0.13
  -6  -2   7   -0.04    0.13
  -6  -2   7   -0.04    0.08
  -6  -2   7    0.00    0.13
  -6  -2   7    0.17    0.14
  -6  -2   7    0.14    0.14
   5   2  -7    0.55    0.16
   5   2  -7    0.61    0.16
   5   2  -7    0.47    0.15
   5   2  -7    0.33    0.12
   5   2  -7    0.76    0.18
   5   2  -7    0.38    0.10
  -5  -2   7    0.62    0.19
  -5  -2   7    0.64    0.16
  -5  -2   7    0.26    0.15
  -5  -2   7    0.44    0.11
  -5  -2   7    0.53    0.13
  -5  -2   7    0.70    0.17
   4   2  -7    0.27    0.13
   4   2  -7    0.05    0.07
   4   2  -7    0.16    0.10
   4   2  -7    0.15    0.11
   4   2  -7    0.06    0.10
  -4  -2   7    0.05    0.10
  -4  -2   7    0.04    0.13
  -4  -2   7   -0.06    0.12
  -4  -2   7    0.10    0.09
  -4  -2   7    0.12    0.10
   3   2  -7    6.69    0.38
   3   2  -7    6.78    0.39
   3   2  -7    7.58    0.40
   3   2  -7    7.33    0.36
   3   2  -7    7.18    0.31
  -3  -2   7    7.18    0.41
  -3  -2   7    7.12    0.38
  -3  -2   7    7.40    0.41
  -3  -2   7    6.87    0.36
   2   2  -7   -0.01    0.12
   2   2  -7   -0.03    0.10
   2   2  -7    0.06    0.09
   2   2  -7    0.00    0.07
  -2  -2   7   -0.01    0.07
  -2  -2   7   -0.02    0.10
  -2  -2   7   -0.12    0.11
  -2  -2   7    0.02    0.10
   1   2  -7   10.36    0.45
   1   2  -7    8.98    0.42
   1   2  -7    9.57    0.41
  -1  -2   7    8.83    0.52
  -1  -2   7    9.69    0.43
  -1  -2   7    8.97    0.37
  -1  -2   7    9.23    0.46
   0   2  -7    4.52    0.32
   0   2  -7    3.93    0.36
   0   2  -7    4.29    0.27
   0  -2   7    4.15    0.42
   0  -2   7    4.11    0.23
   0  -2   7    3.94    0.29
   0  -2   7    3.95    0.28
  -1   2  -7    3.39    0.28
  -1   2  -7    3.27    0.26
  -1   2  -7    3.41    0.17
  -1   2  -7    3.53    0.25
  -1   2  -7    3.44    0.22
   1  -2   7    3.56    0.28
   1  -2   7    3.34    0.21
   1  -2   7    3.00    0.40
   1  -2   7    3.48    0.26
  -2   2  -7    5.19    0.33
  -2   2  -7    4.85    0.30
  -2   2  -7    4.92    0.25
  -2   2  -7    5.12    0.31
  -2   2  -7    5.04    0.26
   2  -2   7    4.95    0.25
   2  -2   7    5.00    0.31
   2  -2   7    4.92    0.30
  -3   2  -7    0.23    0.12
  -3   2  -7    0.20    0.08
  -3   2  -7    0.19    0.09
  -3   2  -7    0.04    0.13
  -3   2  -7    0.12    0.07
  -3   2  -7    0.13    0.10
   3  -2   7    0.18    0.12
   3  -2   7    0.15    0.07
   3  -2   7    0.40    0.13
   3  -2   7    0.27    0.11
  -4   2  -7    2.82    0.21
  -4   2  -7    2.96    0.27
  -4   2  -7    2.85    0.28
  -4   2  -7    3.19    0.21
  -4   2  -7    3.33    0.27
  -4   2  -7    3.06    0.26
   4  -2   7    3.09    0.20
   4  -2   7    2.93    0.26
   4  -2   7    3.05    0.29
   4  -2   7    3.14    0.26
   4  -2   7    2.87    0.25
  -5   2  -7   31.91    1.00
  -5   2  -7   29.45    0.96
  -5   2  -7   31.05    0.94
  -5   2  -7   32.22    1.10
  -5   2  -7   31.35    0.91
  -5   2  -7   31.80    0.96
   5  -2   7   29.74    0.90
   5  -2   7   30.74    0.91
   5  -2   7   31.53    1.05
   5  -2   7   30.65    1.00
  -6   2  -7    0.21    0.11
  -6   2  -7    0.17    0.18
  -6   2  -7    0.01    0.12
  -6   2  -7    0.07    0.13
  -6   2  -7   -0.01    0.15
   6  -2   7    0.08    0.12
   6  -2   7    0.15    0.14
   6  -2   7    0.26    0.14
  -7   2  -7    0.10    0.15
  -7   2  -7    0.12    0.12
  -7   2  -7    0.16    0.13
   7  -2   7    0.16    0.13
   7  -2   7    0.15    0.13
  -8   2  -7   -0.03    0.15
   8  -2   7    0.03    0.13
   8  -2   7   -0.11    0.12
   8   1  -7   -0.12    0.13
   8   1  -7    0.13    0.16
  -8  -1   7    0.02    0.15
  -8  -1   7   -0.18    0.12
  -8  -1   7    0.01    0.14
   7   1  -7    0.77    0.19
   7   1  -7    0.67    0.18
   7   1  -7    0.47    0.16
   7   1  -7    1.03    0.19
  -7  -1   7    0.79    0.18
  -7  -1   7    0.53    0.18
  -7  -1   7    0.60    0.15
  -7  -1   7    0.90    0.20
   6   1  -7    0.54    0.16
   6   1  -7    0.63    0.16
   6   1  -7    1.14    0.19
   6   1  -7    1.25    0.20
   6   1  -7    0.92    0.19
  -6  -1   7    1.05    0.16
  -6  -1   7    0.74    0.19
  -6  -1   7    0.69    0.15
  -6  -1   7    0.83    0.18
  -6  -1   7    0.93    0.20
  -6  -1   7    1.24    0.22
   5   1  -7    4.09    0.32
   5   1  -7    3.72    0.34
   5   1  -7    3.82    0.32
   5   1  -7    4.26    0.31
   5   1  -7    3.88    0.29
  -5  -1   7    3.61    0.31
  -5  -1   7    3.97    0.31
  -5  -1   7    4.08    0.31
  -5  -1   7    3.95    0.32
  -5  -1   7    3.77    0.36
   4   1  -7   -0.01    0.11
   4   1  -7   -0.01    0.10
   4   1  -7    0.09    0.09
   4   1  -7    0.16    0.10
  -4  -1   7   -0.01    0.07
  -4  -1   7    0.01    0.12
  -4  -1   7    0.02    0.10
  -4  -1   7    0.06    0.08
  -4  -1   7    0.24    0.12
   3   1  -7   12.23    0.46
   3   1  -7   12.11    0.51
   3   1  -7   12.01    0.38
   3   1  -7   11.72    0.50
   3   1  -7   12.91    0.52
  -3  -1   7   12.00    0.48
  -3  -1   7   12.21    0.52
  -3  -1   7   11.88    0.50
  -3  -1   7   12.29    0.52
   2   1  -7    4.14    0.22
   2   1  -7    4.44    0.24
   2   1  -7    4.26    0.29
   2   1  -7    4.19    0.29
   2   1  -7    4.83    0.32
  -2  -1   7    4.54    0.31
  -2  -1   7    4.21    0.31
  -2  -1   7    4.15    0.30
  -2  -1   7    4.50    0.27
   1   1  -7   31.54    0.92
   1   1  -7   31.29    0.76
   1   1  -7   29.41    0.86
   1   1  -7   28.69    0.89
  -1  -1   7   28.88    0.89
  -1  -1   7   30.88    0.85
  -1  -1   7   30.95    0.95
   0   1  -7    2.72    0.25
   0   1  -7    2.74    0.24
   0   1  -7    3.28    0.27
   0  -1   7    2.71    0.24
   0  -1   7    3.02    0.31
   0  -1   7    3.21    0.26
   0  -1   7    2.91    0.19
  -1   1  -7   14.05    0.50
  -1   1  -7   14.26    0.54
  -1   1  -7   14.19    0.56
   1  -1   7   14.78    0.55
   1  -1   7   13.89    0.45
   1  -1   7   13.62    0.53
  -2   1  -7    2.77    0.25
  -2   1  -7    2.91    0.26
  -2   1  -7    2.91    0.26
  -2   1  -7    2.85    0.20
   2  -1   7    3.03    0.26
   2  -1   7    2.89    0.18
   2  -1   7    2.43    0.24
   2  -1   7    3.32    0.23
  -3   1  -7   23.81    0.76
  -3   1  -7   23.01    0.72
  -3   1  -7   21.89    0.74
  -3   1  -7   22.60    0.75
   3  -1   7   23.40    0.62
   3  -1   7   21.97    0.74
   3  -1   7   23.74    0.75
   3  -1   7   24.17    0.76
  -4   1  -7    0.11    0.14
  -4   1  -7    0.22    0.08
  -4   1  -7    0.15    0.13
  -4   1  -7   -0.05    0.12
  -4   1  -7   -0.06    0.10
   4  -1   7    0.09    0.12
   4  -1   7    0.00    0.11
   4  -1   7    0.12    0.10
   4  -1   7    0.07    0.09
  -5   1  -7    3.02    0.45
  -5   1  -7    3.25    0.39
  -5   1  -7    3.67    0.31
  -5   1  -7    4.26    0.34
   5  -1   7    3.87    0.28
   5  -1   7    3.17    0.33
   5  -1   7    3.36    0.34
   5  -1   7    3.15    0.29
  -6   1  -7    7.45    0.53
  -6   1  -7    7.09    0.39
  -6   1  -7    7.15    0.39
  -6   1  -7    7.60    0.47
   6  -1   7    6.65    0.36
   6  -1   7    6.33    0.45
   6  -1   7    7.40    0.47
   6  -1   7    6.22    0.33
  -7   1  -7    0.15    0.13
  -7   1  -7    0.37    0.15
  -7   1  -7    0.30    0.16
   7  -1   7    0.17    0.15
   7  -1   7    0.15    0.15
  -8   1  -7    0.04    0.16
   8  -1   7    0.10    0.13
   8  -1   7    0.14    0.13
   9   0  -7    0.06    0.14
  -9   0   7   -0.21    0.16
   8   0  -7    0.37    0.17
   8   0  -7    0.38    0.16
  -8   0   7    0.27    0.14
  -8   0   7    0.54    0.14
  -8   0   7    0.44    0.30
   7   0  -7    0.25    0.14
   7   0  -7    0.14    0.14
   7   0  -7    0.41    0.14
   7   0  -7    0.18    0.14
  -7   0   7    0.15    0.13
  -7   0   7    0.21    0.16
  -7   0   7    0.34    0.14
   6   0  -7    2.87    0.27
   6   0  -7    2.86    0.34
   6   0  -7    2.84    0.32
   6   0  -7    2.96    0.31
   6   0  -7    3.23    0.28
  -6   0   7    2.83    0.27
  -6   0   7    2.69    0.36
  -6   0   7    3.02    0.34
  -6   0   7    3.06    0.36
  -6   0   7    3.04    0.29
   5   0  -7    1.49    0.21
   5   0  -7    1.93    0.25
   5   0  -7    1.71    0.23
   5   0  -7    1.64    0.22
   5   0  -7    1.64    0.23
  -5   0   7    1.23    0.19
  -5   0   7    1.99    0.24
  -5   0   7    1.60    0.24
  -5   0   7    1.57    0.23
   4   0  -7    2.55    0.18
   4   0  -7    2.58    0.25
   4   0  -7    2.09    0.24
   4   0  -7    2.21    0.24
   4   0  -7    2.28    0.23
  -4   0   7    2.51    0.25
  -4   0   7    2.58    0.28
  -4   0   7    2.29    0.24
   3   0  -7    9.40    0.44
   3   0  -7   10.07    0.40
   3   0  -7   10.05    0.45
   3   0  -7   10.32    0.45
  -3   0   7    9.64    0.44
  -3   0   7   10.11    0.46
  -3   0   7   10.25    0.45
   2   0  -7    3.87    0.21
   2   0  -7    4.18    0.30
   2   0  -7    3.63    0.28
   2   0  -7    3.82    0.27
  -2   0   7    3.91    0.29
  -2   0   7    3.49    0.27
  -2   0   7    3.50    0.43
   1   0  -7    2.02    0.22
   1   0  -7    1.81    0.20
   1   0  -7    1.99    0.21
  -1   0   7    1.80    0.22
  -1   0   7    1.80    0.21
  -1   0   7    1.68    0.23
   0   0  -7    0.05    0.10
   0   0  -7    0.07    0.11
   0   0  -7    0.10    0.08
   0   0   7   -0.06    0.08
   0   0   7    0.09    0.10
   0   0   7    0.01    0.10
   0   0   7   -0.08    0.06
  -1   0  -7   35.81    1.00
  -1   0  -7   34.17    0.97
  -1   0  -7   35.47    1.01
  -1   0  -7   34.26    1.00
   1   0   7   37.03    1.03
   1   0   7   34.28    0.88
   1   0   7   32.69    0.99
  -2   0  -7    6.01    0.38
  -2   0  -7    5.77    0.33
  -2   0  -7    5.68    0.35
  -2   0  -7    6.29    0.36
   2   0   7    6.11    0.34
   2   0   7    6.47    0.31
   2   0   7    5.99    0.23
   2   0   7    5.51    0.33
  -3   0  -7    0.33    0.13
  -3   0  -7    0.30    0.11
  -3   0  -7    0.57    0.15
   3   0   7    0.54    0.14
   3   0   7    0.60    0.14
   3   0   7    0.53    0.12
  -4   0  -7   29.97    0.94
  -4   0  -7   30.19    0.93
  -4   0  -7   30.39    1.04
  -4   0  -7   29.69    0.93
   4   0   7   30.30    0.94
   4   0   7   30.48    0.97
   4   0   7   30.19    0.92
   4   0   7   28.19    0.90
  -5   0  -7   13.84    0.57
  -5   0  -7   12.82    0.55
  -5   0  -7   13.34    0.68
  -5   0  -7   13.06    0.59
  -5   0  -7   12.89    0.62
   5   0   7   12.20    0.51
   5   0   7   13.41    0.51
   5   0   7   13.52    0.52
   5   0   7   13.22    0.61
   5   0   7   12.59    0.60
  -6   0  -7    0.04    0.14
  -6   0  -7   -0.01    0.14
  -6   0  -7   -0.17    0.13
  -6   0  -7   -0.13    0.12
   6   0   7    0.00    0.09
   6   0   7    0.08    0.11
   6   0   7   -0.09    0.25
   6   0   7    0.09    0.11
   6   0   7   -0.04    0.09
  -7   0  -7    0.18    0.14
  -7   0  -7    0.14    0.14
  -7   0  -7    0.15    0.15
   7   0   7    0.17    0.13
   7   0   7    0.33    0.15
  -8   0  -7   -0.07    0.15
   8   0   7   -0.19    0.14
   9  -1  -7    0.31    0.17
   9  -1  -7    0.36    0.18
  -9   1   7    0.16    0.20
   8  -1  -7    0.12    0.15
   8  -1  -7    0.35    0.17
  -8   1   7    0.32    0.17
  -8   1   7    0.33    0.14
   7  -1  -7   -0.16    0.12
   7  -1  -7    0.02    0.12
   7  -1  -7   -0.16    0.10
   7  -1  -7    0.27    0.14
  -7   1   7    0.07    0.14
  -7   1   7   -0.11    0.10
  -7   1   7   -0.14    0.12
  -7   1   7    0.01    0.11
   6  -1  -7    1.29    0.21
   6  -1  -7    1.20    0.19
   6  -1  -7    1.55    0.23
   6  -1  -7    1.47    0.18
   6  -1  -7    1.34    0.22
   6  -1  -7    1.66    0.24
  -6   1   7    1.80    0.24
  -6   1   7    1.68    0.23
  -6   1   7    1.76    0.24
  -6   1   7    1.26    0.21
  -6   1   7    1.21    0.20
   5  -1  -7    3.19    0.30
   5  -1  -7    3.03    0.23
   5  -1  -7    3.28    0.26
   5  -1  -7    3.26    0.27
   5  -1  -7    3.36    0.29
   5  -1  -7    2.94    0.29
  -5   1   7    3.48    0.28
  -5   1   7    3.27    0.31
  -5   1   7    3.00    0.27
   4  -1  -7    1.58    0.18
   4  -1  -7    1.31    0.20
   4  -1  -7    1.81    0.23
   4  -1  -7    1.70    0.22
   4  -1  -7    1.76    0.23
  -4   1   7    2.23    0.26
  -4   1   7    1.67    0.23
  -4   1   7    1.77    0.23
   3  -1  -7   37.40    0.98
   3  -1  -7   38.02    1.06
   3  -1  -7   36.42    1.03
   3  -1  -7   37.58    1.05
   3  -1  -7   36.47    0.94
  -3   1   7   38.10    1.08
  -3   1   7   35.69    1.05
  -3   1   7   36.80    1.13
  -3   1   7   36.13    0.95
   2  -1  -7    0.37    0.13
   2  -1  -7    0.26    0.14
   2  -1  -7    0.19    0.09
  -2   1   7    0.34    0.12
  -2   1   7    0.43    0.14
  -2   1   7    0.25    0.11
   1  -1  -7    0.30    0.14
   1  -1  -7    0.23    0.09
   1  -1  -7    0.22    0.07
   1  -1  -7    0.18    0.11
  -1   1   7    0.35    0.15
  -1   1   7    0.46    0.17
  -1   1   7    0.21    0.10
   0  -1  -7    3.42    0.25
   0  -1  -7    3.52    0.45
   0  -1  -7    3.23    0.24
   0  -1  -7    3.26    0.32
   0   1   7    3.34    0.27
  -1  -1  -7    0.11    0.11
  -1  -1  -7    0.18    0.09
  -1  -1  -7    0.17    0.10
   1   1   7    0.10    0.06
   1   1   7    0.24    0.13
   1   1   7    0.30    0.11
   1   1   7    0.21    0.07
  -2  -1  -7   -0.16    0.09
  -2  -1  -7   -0.03    0.09
  -2  -1  -7    0.04    0.12
   2   1   7   -0.08    0.10
   2   1   7    0.03    0.07
   2   1   7    0.15    0.12
  -3  -1  -7   28.71    0.95
  -3  -1  -7   27.10    0.88
  -3  -1  -7   28.04    0.89
   3   1   7   25.58    0.85
   3   1   7   27.98    0.88
   3   1   7   27.83    0.75
   3   1   7   27.60    0.86
  -4  -1  -7   21.42    0.85
  -4  -1  -7   22.61    0.77
  -4  -1  -7   19.98    0.75
   4   1   7   22.54    0.77
   4   1   7   19.73    0.71
   4   1   7   20.79    0.75
   4   1   7   21.34    0.66
  -5  -1  -7    0.26    0.17
  -5  -1  -7    0.38    0.17
  -5  -1  -7    0.42    0.17
  -5  -1  -7    0.32    0.14
   5   1   7    0.46    0.12
   5   1   7    0.59    0.15
   5   1   7    0.56    0.18
   5   1   7    0.44    0.14
   5   1   7    0.39    0.14
  -6  -1  -7    0.20    0.14
  -6  -1  -7    0.07    0.13
  -6  -1  -7   -0.11    0.12
  -6  -1  -7   -0.21    0.14
   6   1   7   -0.14    0.09
   6   1   7    0.22    0.12
   6   1   7    0.16    0.10
   6   1   7    0.08    0.14
  -7  -1  -7    0.17    0.17
  -7  -1  -7    0.01    0.16
   7   1   7    0.01    0.12
   7   1   7   -0.03    0.12
   9  -2  -7    0.24    0.17
   9  -2  -7    0.23    0.16
  -9   2   7   -0.16    0.14
   8  -2  -7    1.33    0.24
   8  -2  -7    1.46    0.25
  -8   2   7    1.16    0.21
   7  -2  -7    0.04    0.13
   7  -2  -7   -0.07    0.12
   7  -2  -7    0.12    0.11
   7  -2  -7    0.15    0.12
  -7   2   7    0.15    0.14
  -7   2   7    0.05    0.11
  -7   2   7    0.11    0.12
  -7   2   7    0.03    0.13
   6  -2  -7    0.17    0.13
   6  -2  -7    0.08    0.13
   6  -2  -7    0.13    0.10
   6  -2  -7    0.08    0.12
   6  -2  -7    0.10    0.10
   6  -2  -7    0.17    0.13
  -6   2   7    0.13    0.10
  -6   2   7    0.19    0.13
  -6   2   7    0.11    0.10
  -6   2   7    0.04    0.11
  -6   2   7    0.11    0.12
  -6   2   7    0.05    0.11
   5  -2  -7    3.49    0.27
   5  -2  -7    3.33    0.28
   5  -2  -7    3.33    0.31
   5  -2  -7    3.17    0.28
   5  -2  -7    2.99    0.31
   5  -2  -7    3.38    0.28
  -5   2   7    3.37    0.31
  -5   2   7    3.12    0.25
  -5   2   7    3.03    0.26
  -5   2   7    2.73    0.27
  -5   2   7    3.32    0.28
   4  -2  -7    0.34    0.11
   4  -2  -7    0.50    0.14
   4  -2  -7    0.23    0.13
   4  -2  -7    0.27    0.09
  -4   2   7    0.31    0.14
  -4   2   7    0.47    0.15
  -4   2   7    0.37    0.10
  -4   2   7    0.31    0.11
   3  -2  -7    0.07    0.11
   3  -2  -7    0.01    0.09
   3  -2  -7    0.21    0.12
  -3   2   7   -0.08    0.07
  -3   2   7   -0.02    0.09
  -3   2   7   -0.04    0.11
  -3   2   7    0.03    0.10
   2  -2  -7    8.82    0.42
   2  -2  -7    9.70    0.45
   2  -2  -7    9.44    0.40
  -2   2   7    9.85    0.45
  -2   2   7    9.08    0.43
  -2   2   7    9.57    0.32
  -2   2   7    9.71    0.41
   1  -2  -7    0.15    0.10
   1  -2  -7    0.09    0.13
   1  -2  -7    0.19    0.08
   1  -2  -7    0.28    0.14
  -1   2   7    0.15    0.11
  -1   2   7    0.24    0.12
   0  -2  -7   10.24    0.48
   0  -2  -7   10.33    0.43
   0  -2  -7   10.83    0.43
   0  -2  -7    9.68    0.46
   0   2   7   10.57    0.33
   0   2   7   10.81    0.69
   0   2   7   10.12    0.46
  -1  -2  -7    0.11    0.09
  -1  -2  -7    0.14    0.13
  -1  -2  -7    0.14    0.09
  -1  -2  -7   -0.02    0.10
   1   2   7   -0.09    0.09
   1   2   7    0.07    0.06
   1   2   7   -0.10    0.09
  -2  -2  -7    5.51    0.37
  -2  -2  -7    5.94    0.39
  -2  -2  -7    5.61    0.37
   2   2   7    5.07    0.33
   2   2   7    5.92    0.37
   2   2   7    5.76    0.29
  -3  -2  -7    7.64    0.50
  -3  -2  -7    9.01    0.47
   3   2   7    8.24    0.40
   3   2   7    8.59    0.44
   3   2   7    8.01    0.42
   3   2   7    8.20    0.34
  -4  -2  -7    1.95    0.30
  -4  -2  -7    1.46    0.22
  -4  -2  -7    2.17    0.30
   4   2   7    2.08    0.25
   4   2   7    1.98    0.26
   4   2   7    1.93    0.26
   4   2   7    2.34    0.26
  -5  -2  -7    0.88    0.22
  -5  -2  -7    1.03    0.19
  -5  -2  -7    0.59    0.17
  -5  -2  -7    1.42    0.24
   5   2   7    1.24    0.21
   5   2   7    0.76    0.16
   5   2   7    0.87    0.19
  -6  -2  -7    0.47    0.20
  -6  -2  -7    0.28    0.15
  -6  -2  -7    0.24    0.17
   6   2   7    0.53    0.14
   6   2   7    0.23    0.12
   6   2   7    0.37    0.14
  -7  -2  -7    0.69    0.20
  -7  -2  -7    0.74    0.24
  -7  -2  -7    0.24    0.20
   7   2   7    0.33    0.14
   7   2   7    0.47    0.19
   9  -3  -7    0.12    0.17
   9  -3  -7   -0.04    0.13
  -9   3   7   -0.19    0.13
   8  -3  -7    0.51    0.16
   8  -3  -7    0.65    0.18
  -8   3   7    0.49    0.15
  -8   3   7    0.35    0.15
   7  -3  -7    0.14    0.12
   7  -3  -7    0.04    0.13
   7  -3  -7    0.02    0.13
   7  -3  -7    0.02    0.12
  -7   3   7    0.13    0.12
  -7   3   7   -0.13    0.13
  -7   3   7    0.06    0.15
  -7   3   7    0.10    0.12
  -7   3   7    0.05    0.12
   6  -3  -7    0.81    0.16
   6  -3  -7    0.82    0.16
   6  -3  -7    0.48    0.16
   6  -3  -7    0.66    0.16
   6  -3  -7    0.76    0.17
  -6   3   7    0.62    0.15
  -6   3   7    0.76    0.18
  -6   3   7    0.61    0.15
  -6   3   7    0.55    0.15
  -6   3   7    0.51    0.15
   5  -3  -7    0.09    0.12
   5  -3  -7    0.06    0.10
   5  -3  -7    0.03    0.08
   5  -3  -7    0.12    0.13
   5  -3  -7    0.23    0.13
  -5   3   7   -0.04    0.08
  -5   3   7    0.08    0.11
  -5   3   7    0.07    0.10
  -5   3   7    0.18    0.11
  -5   3   7    0.24    0.12
   4  -3  -7    1.36    0.18
   4  -3  -7    1.38    0.20
   4  -3  -7    1.07    0.15
   4  -3  -7    1.32    0.20
  -4   3   7    1.19    0.16
  -4   3   7    1.32    0.19
  -4   3   7    1.07    0.16
  -4   3   7    1.25    0.19
  -4   3   7    1.27    0.20
   3  -3  -7    0.22    0.13
   3  -3  -7    0.01    0.09
   3  -3  -7   -0.03    0.12
  -3   3   7    0.10    0.09
  -3   3   7    0.06    0.07
  -3   3   7    0.01    0.11
  -3   3   7    0.00    0.11
   2  -3  -7    2.36    0.23
   2  -3  -7    1.72    0.26
   2  -3  -7    2.84    0.20
   2  -3  -7    2.02    0.29
  -2   3   7    2.37    0.27
  -2   3   7    1.85    0.25
  -2   3   7    2.61    0.17
   1  -3  -7    8.20    0.36
   1  -3  -7    8.01    0.43
   1  -3  -7    7.48    0.41
   1  -3  -7    7.51    0.36
  -1   3   7    7.96    0.43
  -1   3   7    7.31    0.40
   0  -3  -7    2.66    0.25
   0  -3  -7    2.53    0.28
   0  -3  -7    2.85    0.30
   0  -3  -7    2.93    0.32
   0   3   7    2.77    0.29
   0   3   7    2.91    0.28
  -1  -3  -7    1.13    0.21
  -1  -3  -7    1.08    0.19
  -1  -3  -7    1.08    0.16
   1   3   7    1.81    0.25
   1   3   7    1.47    0.22
   1   3   7    1.41    0.16
  -2  -3  -7    0.78    0.21
  -2  -3  -7    0.78    0.20
  -2  -3  -7    0.22    0.14
   2   3   7    0.44    0.19
   2   3   7    0.49    0.09
   2   3   7    0.50    0.16
  -3  -3  -7    0.10    0.15
  -3  -3  -7    0.19    0.14
  -3  -3  -7    0.21    0.16
   3   3   7    0.24    0.15
   3   3   7    0.07    0.08
   3   3   7    0.22    0.15
  -4  -3  -7    0.85    0.21
  -4  -3  -7    0.70    0.18
  -4  -3  -7    1.01    0.18
  -4  -3  -7    0.67    0.21
   4   3   7    0.96    0.15
   4   3   7    0.82    0.16
   4   3   7    1.26    0.22
  -5  -3  -7   -0.15    0.18
  -5  -3  -7    0.10    0.14
  -5  -3  -7    0.06    0.14
  -5  -3  -7    0.06    0.18
   5   3   7   -0.12    0.10
   5   3   7    0.04    0.12
   5   3   7    0.10    0.10
  -6  -3  -7    0.18    0.18
  -6  -3  -7    0.88    0.21
  -6  -3  -7    1.03    0.19
  -6  -3  -7    0.64    0.23
   6   3   7    0.54    0.19
   6   3   7    0.50    0.15
   6   3   7    0.49    0.15
   9  -4  -7    0.05    0.13
   9  -4  -7    0.19    0.15
  -9   4   7    0.04    0.13
   8  -4  -7    3.01    0.33
   8  -4  -7    2.83    0.39
  -8   4   7    2.68    0.32
  -8   4   7    2.84    0.34
  -8   4   7    2.48    0.28
   7  -4  -7    0.39    0.16
   7  -4  -7    0.33    0.13
   7  -4  -7    0.17    0.13
   7  -4  -7    0.34    0.17
   7  -4  -7    0.38    0.16
  -7   4   7    0.36    0.15
  -7   4   7    0.35    0.13
  -7   4   7    0.39    0.13
  -7   4   7    0.41    0.14
   6  -4  -7    0.61    0.16
   6  -4  -7    0.18    0.12
   6  -4  -7    0.31    0.15
   6  -4  -7    0.58    0.15
   6  -4  -7    0.48    0.15
  -6   4   7    0.17    0.13
  -6   4   7    0.37    0.12
  -6   4   7    0.74    0.18
  -6   4   7    0.21    0.12
  -6   4   7    0.45    0.16
   5  -4  -7    0.31    0.14
   5  -4  -7    0.29    0.13
   5  -4  -7    0.33    0.15
   5  -4  -7    0.42    0.15
   5  -4  -7    0.35    0.12
  -5   4   7    0.38    0.16
  -5   4   7    0.45    0.13
  -5   4   7    0.43    0.12
  -5   4   7    0.40    0.16
  -5   4   7    0.42    0.11
   4  -4  -7   -0.04    0.11
   4  -4  -7   -0.07    0.12
   4  -4  -7    0.01    0.10
   4  -4  -7   -0.02    0.11
  -4   4   7   -0.09    0.08
  -4   4   7    0.07    0.12
  -4   4   7   -0.18    0.07
  -4   4   7   -0.16    0.10
   3  -4  -7    1.18    0.18
   3  -4  -7    1.23    0.22
   3  -4  -7    1.60    0.21
   3  -4  -7    1.42    0.17
  -3   4   7    1.72    0.22
  -3   4   7    1.29    0.21
  -3   4   7    1.13    0.15
   2  -4  -7    0.21    0.10
   2  -4  -7    0.06    0.13
   2  -4  -7    0.22    0.08
   2  -4  -7    0.08    0.13
  -2   4   7    0.31    0.14
  -2   4   7    0.11    0.08
  -2   4   7    0.33    0.13
   1  -4  -7    2.48    0.24
   1  -4  -7    2.44    0.29
   1  -4  -7    2.68    0.27
   1  -4  -7    2.62    0.31
  -1   4   7    2.58    0.29
  -1   4   7    2.41    0.27
  -1   4   7    2.43    0.24
   0  -4  -7    1.66    0.27
   0  -4  -7    1.91    0.28
   0  -4  -7    2.16    0.26
   0  -4  -7    1.60    0.22
   0   4   7    1.83    0.20
   0   4   7    1.92    0.25
   0   4   7    1.97    0.25
  -1  -4  -7    0.30    0.13
  -1  -4  -7    0.48    0.18
  -1  -4  -7    0.30    0.15
   1   4   7    0.43    0.13
   1   4   7    0.35    0.15
   1   4   7    0.81    0.18
   1   4   7    0.53    0.10
  -2  -4  -7    5.58    0.41
  -2  -4  -7    5.64    0.43
  -2  -4  -7    6.16    0.43
   2   4   7    5.96    0.40
   2   4   7    5.39    0.62
  -3  -4  -7    0.70    0.21
  -3  -4  -7    0.28    0.15
  -3  -4  -7    0.36    0.18
   3   4   7    0.40    0.17
   3   4   7    0.77    0.19
   3   4   7    0.49    0.12
  -4  -4  -7    0.87    0.32
  -4  -4  -7    0.87    0.16
  -4  -4  -7    0.93    0.23
  -4  -4  -7    0.79    0.15
  -4  -4  -7    0.96    0.23
   4   4   7    1.19    0.24
   4   4   7    1.01    0.21
   4   4   7    0.74    0.15
  -5  -4  -7    0.20    0.14
  -5  -4  -7    0.23    0.15
  -5  -4  -7    0.22    0.17
  -5  -4  -7    0.26    0.24
  -5  -4  -7    0.10    0.17
   5   4   7    0.10    0.12
   5   4   7    0.46    0.20
   5   4   7    0.09    0.11
  -6  -4  -7   -0.19    0.18
  -6  -4  -7    0.19    0.17
  -6  -4  -7    0.20    0.25
   6   4   7   -0.06    0.17
   6   4   7   -0.09    0.12
   6   4   7   -0.26    0.14
   9  -5  -7    0.20    0.16
   9  -5  -7    0.06    0.17
  -9   5   7    0.20    0.16
   8  -5  -7    0.37    0.17
   8  -5  -7    0.54    0.18
  -8   5   7    0.38    0.19
  -8   5   7    0.76    0.18
  -8   5   7    0.29    0.17
  -8   5   7    0.70    0.14
  -8   5   7    0.30    0.14
   7  -5  -7    0.09    0.16
   7  -5  -7    0.02    0.14
   7  -5  -7   -0.01    0.12
   7  -5  -7    0.08    0.15
  -7   5   7   -0.09    0.10
  -7   5   7    0.06    0.14
  -7   5   7    0.28    0.14
  -7   5   7   -0.04    0.11
   6  -5  -7   -0.22    0.10
   6  -5  -7    0.07    0.12
   6  -5  -7   -0.18    0.13
   6  -5  -7   -0.16    0.27
   6  -5  -7    0.21    0.13
  -6   5   7   -0.01    0.09
  -6   5   7   -0.10    0.14
  -6   5   7    0.01    0.09
  -6   5   7   -0.02    0.13
   5  -5  -7   -0.02    0.12
   5  -5  -7    0.08    0.11
   5  -5  -7   -0.02    0.12
   5  -5  -7    0.18    0.14
   5  -5  -7    0.01    0.14
  -5   5   7   -0.09    0.12
  -5   5   7    0.07    0.10
  -5   5   7   -0.01    0.07
   4  -5  -7    5.76    0.40
   4  -5  -7    5.13    0.39
   4  -5  -7    5.53    0.37
   4  -5  -7    5.92    0.36
  -4   5   7    5.26    0.38
  -4   5   7    5.53    0.32
   3  -5  -7    0.78    0.14
   3  -5  -7    1.15    0.23
   3  -5  -7    1.27    0.19
   3  -5  -7    1.19    0.23
  -3   5   7    0.93    0.12
  -3   5   7    0.95    0.14
  -3   5   7    0.81    0.17
  -3   5   7    1.04    0.22
   2  -5  -7    1.58    0.24
   2  -5  -7    2.37    0.25
   2  -5  -7    1.94    0.23
   2  -5  -7    2.44    0.32
  -2   5   7    2.01    0.28
  -2   5   7    2.07    0.28
  -2   5   7    2.47    0.26
  -2   5   7    1.90    0.23
   1  -5  -7    0.92    0.15
   1  -5  -7    1.12    0.23
   1  -5  -7    0.82    0.21
   1  -5  -7    0.92    0.15
  -1   5   7    0.91    0.15
  -1   5   7    1.16    0.23
  -1   5   7    1.11    0.22
  -1   5   7    0.95    0.15
   0  -5  -7   -0.03    0.10
   0  -5  -7   -0.02    0.16
   0  -5  -7    0.03    0.15
   0   5   7    0.13    0.15
   0   5   7    0.05    0.13
   0   5   7    0.10    0.10
   0   5   7    0.11    0.08
  -1  -5  -7    2.39    0.34
  -1  -5  -7    3.13    0.34
  -1  -5  -7    2.38    0.35
   1   5   7    1.93    0.25
   1   5   7    2.91    0.20
   1   5   7    3.20    0.34
   1   5   7    2.11    0.30
  -2  -5  -7    6.83    0.49
  -2  -5  -7    7.21    0.49
  -2  -5  -7    6.76    0.49
   2   5   7    6.62    0.48
   2   5   7    7.28    0.47
  -3  -5  -7   -0.08    0.19
  -3  -5  -7   -0.10    0.13
  -3  -5  -7   -0.07    0.16
   3   5   7   -0.01    0.09
   3   5   7    0.00    0.13
  -4  -5  -7    0.74    0.21
  -4  -5  -7    0.82    0.27
  -4  -5  -7    0.47    0.16
  -4  -5  -7    1.04    0.25
   4   5   7    0.88    0.20
   4   5   7    0.53    0.16
   4   5   7    0.66    0.16
  -5  -5  -7    0.12    0.20
  -5  -5  -7    0.62    0.26
  -5  -5  -7   -0.21    0.16
   5   5   7    0.07    0.14
   5   5   7    0.24    0.13
   5   5   7   -0.01    0.14
   9  -6  -7   -0.09    0.19
   9  -6  -7   -0.14    0.14
  -9   6   7    0.00    0.15
   8  -6  -7    0.03    0.14
   8  -6  -7    0.11    0.16
  -8   6   7   -0.04    0.15
  -8   6   7   -0.11    0.13
  -8   6   7   -0.19    0.13
   7  -6  -7    0.25    0.19
   7  -6  -7   -0.01    0.13
   7  -6  -7    0.14    0.19
   7  -6  -7    0.10    0.18
  -7   6   7   -0.03    0.16
  -7   6   7   -0.14    0.13
  -7   6   7   -0.12    0.10
  -7   6   7   -0.21    0.12
   6  -6  -7    0.19    0.18
   6  -6  -7    0.36    0.16
   6  -6  -7    0.40    0.16
   6  -6  -7    0.67    0.21
  -6   6   7    0.45    0.16
  -6   6   7    0.25    0.14
  -6   6   7    0.69    0.21
  -6   6   7    0.69    0.20
   5  -6  -7    0.21    0.17
   5  -6  -7   -0.01    0.11
   5  -6  -7    0.25    0.17
  -5   6   7    0.14    0.11
  -5   6   7   -0.06    0.11
  -5   6   7    0.20    0.17
  -5   6   7    0.10    0.14
   4  -6  -7    6.31    0.38
   4  -6  -7    5.24    0.41
   4  -6  -7    5.90    0.44
   4  -6  -7    5.49    0.37
  -4   6   7    5.42    0.42
  -4   6   7    5.99    0.44
  -4   6   7    5.68    0.36
  -4   6   7    6.09    0.31
  -4   6   7    6.21    0.44
   3  -6  -7    0.09    0.11
   3  -6  -7    0.20    0.11
   3  -6  -7    0.16    0.10
   3  -6  -7    0.27    0.18
  -3   6   7    0.23    0.10
  -3   6   7    0.18    0.11
  -3   6   7    0.01    0.13
  -3   6   7    0.40    0.16
   2  -6  -7   -0.04    0.19
   2  -6  -7    0.03    0.10
   2  -6  -7   -0.27    0.15
   2  -6  -7    0.02    0.09
  -2   6   7    0.01    0.09
  -2   6   7   -0.14    0.14
  -2   6   7   -0.06    0.09
  -2   6   7   -0.03    0.13
   1  -6  -7    0.39    0.31
   1  -6  -7    0.60    0.24
   1  -6  -7    0.75    0.15
   1  -6  -7    0.42    0.14
  -1   6   7    0.46    0.13
  -1   6   7    0.61    0.21
  -1   6   7    0.38    0.19
  -1   6   7    0.38    0.13
   0  -6  -7    2.27    0.52
   0  -6  -7    2.09    0.31
   0  -6  -7    2.58    0.33
   0   6   7    2.43    0.34
   0   6   7    2.12    0.33
   0   6   7    2.51    0.23
   0   6   7    2.12    0.32
  -1  -6  -7    1.02    0.32
  -1  -6  -7    1.16    0.25
  -1  -6  -7    0.88    0.19
   1   6   7    1.36    0.24
   1   6   7    0.94    0.20
  -2  -6  -7    1.83    0.33
  -2  -6  -7    1.49    0.24
  -2  -6  -7    1.60    0.44
   2   6   7    2.23    0.31
  -3  -6  -7    0.10    0.19
  -3  -6  -7   -0.04    0.22
  -3  -6  -7   -0.27    0.13
   3   6   7    0.05    0.14
   3   6   7    0.00    0.11
  -4  -6  -7    0.67    0.29
  -4  -6  -7    0.15    0.19
  -4  -6  -7    0.05    0.17
  -4  -6  -7   -0.21    0.15
   4   6   7    0.04    0.18
   4   6   7    0.08    0.10
   4   6   7   -0.06    0.12
   8  -7  -7    0.34    0.20
   8  -7  -7   -0.35    0.15
   8  -7  -7    0.10    0.16
  -8   7   7   -0.14    0.18
  -8   7   7   -0.01    0.13
  -8   7   7   -0.21    0.14
   7  -7  -7    0.09    0.25
   7  -7  -7    0.11    0.16
   7  -7  -7    0.59    0.21
  -7   7   7    0.11    0.17
  -7   7   7    0.00    0.14
  -7   7   7    0.11    0.25
   6  -7  -7   -0.16    0.17
   6  -7  -7    0.23    0.14
   6  -7  -7    0.09    0.14
  -6   7   7   -0.05    0.17
  -6   7   7   -0.07    0.17
  -6   7   7   -0.07    0.13
   5  -7  -7   -0.10    0.17
   5  -7  -7    0.22    0.14
  -5   7   7    0.04    0.23
  -5   7   7   -0.10    0.15
  -5   7   7    0.38    0.18
  -5   7   7    0.05    0.12
   4  -7  -7    0.19    0.19
   4  -7  -7    0.11    0.13
   4  -7  -7    0.29    0.14
  -4   7   7    0.49    0.19
  -4   7   7    0.14    0.13
  -4   7   7    0.34    0.17
  -4   7   7    0.26    0.11
   3  -7  -7   -0.14    0.09
   3  -7  -7    0.08    0.18
   3  -7  -7    0.14    0.11
   3  -7  -7   -0.07    0.10
  -3   7   7    0.04    0.10
  -3   7   7   -0.25    0.12
  -3   7   7   -0.08    0.16
  -3   7   7   -0.10    0.10
   2  -7  -7   -0.10    0.11
   2  -7  -7    0.05    0.17
   2  -7  -7   -0.19    0.17
   2  -7  -7   -0.27    0.18
   2  -7  -7    0.16    0.11
  -2   7   7    0.04    0.10
  -2   7   7   -0.09    0.14
  -2   7   7   -0.01    0.12
  -2   7   7   -0.58    0.25
   1  -7  -7    0.05    0.20
   1  -7  -7    0.36    0.15
   1  -7  -7    0.33    0.13
   1  -7  -7    0.06    0.20
  -1   7   7    0.24    0.11
  -1   7   7    0.61    0.22
  -1   7   7    0.19    0.19
  -1   7   7   -0.17    0.21
   0  -7  -7    0.08    0.23
   0  -7  -7    0.17    0.15
   0  -7  -7    0.21    0.20
   0   7   7    0.02    0.14
   0   7   7    0.41    0.17
   0   7   7    0.48    0.11
  -1  -7  -7   -0.21    0.33
  -1  -7  -7    0.06    0.15
  -1  -7  -7    0.13    0.24
   1   7   7   -0.03    0.14
   1   7   7    0.07    0.08
  -2  -7  -7   -0.08    0.20
  -2  -7  -7    0.04    0.15
   2   7   7   -0.07    0.16
  -3  -7  -7    0.05    0.20
  -3  -7  -7    0.01    0.17
   3   7   7    0.09    0.17
   8  -8  -7   -0.19    0.14
   8  -8  -7   -0.23    0.13
   8  -8  -7    0.03    0.22
  -8   8   7   -0.32    0.18
  -8   8   7   -0.02    0.15
  -8   8   7    0.08    0.17
   7  -8  -7    0.09    0.13
   7  -8  -7   -0.09    0.13
   7  -8  -7    0.12    0.21
  -7   8   7   -0.17    0.18
  -7   8   7    0.43    0.17
  -7   8   7   -0.08    0.15
   6  -8  -7    0.57    0.19
   6  -8  -7    0.80    0.19
   6  -8  -7    1.25    0.27
  -6   8   7    0.99    0.25
  -6   8   7    0.69    0.23
  -6   8   7    0.78    0.23
   5  -8  -7    0.13    0.13
   5  -8  -7    0.33    0.21
  -5   8   7   -0.03    0.12
  -5   8   7   -0.09    0.13
  -5   8   7    0.48    0.19
  -5   8   7   -0.04    0.18
  -5   8   7    0.06    0.17
   4  -8  -7    5.51    0.38
   4  -8  -7    5.20    0.38
   4  -8  -7    5.38    0.50
  -4   8   7    4.58    0.37
  -4   8   7    4.30    0.46
  -4   8   7    5.26    0.74
  -4   8   7    5.44    0.44
   3  -8  -7    0.36    0.22
   3  -8  -7    0.04    0.13
   3  -8  -7   -0.08    0.10
   3  -8  -7    0.20    0.13
  -3   8   7   -0.21    0.18
  -3   8   7   -0.12    0.21
  -3   8   7    0.04    0.12
  -3   8   7    0.11    0.13
   2  -8  -7   -0.11    0.11
   2  -8  -7    0.03    0.21
   2  -8  -7   -0.09    0.13
  -2   8   7   -0.21    0.14
  -2   8   7   -0.21    0.10
  -2   8   7    0.03    0.17
  -2   8   7    0.00    0.32
   1  -8  -7   -0.13    0.14
   1  -8  -7    0.07    0.19
  -1   8   7    0.02    0.14
  -1   8   7   -0.04    0.10
   0  -8  -7   -0.16    0.18
   0  -8  -7    0.20    0.23
   0   8   7    0.01    0.09
   0   8   7    0.15    0.17
  -1  -8  -7    0.02    0.21
  -1  -8  -7    0.01    0.16
   1   8   7   -0.10    0.15
   1   8   7   -0.06    0.07
  -2  -8  -7    0.40    0.26
  -2  -8  -7    0.24    0.19
   2   8   7    0.53    0.23
   7  -9  -7   -0.03    0.39
   7  -9  -7   -0.19    0.15
   7  -9  -7   -0.19    0.15
  -7   9   7    0.01    0.19
  -7   9   7    0.09    0.19
  -7   9   7   -0.04    0.17
   6  -9  -7   -0.22    0.12
   6  -9  -7   -0.28    0.23
   6  -9  -7   -0.07    0.14
  -6   9   7   -0.46    0.19
  -6   9   7    0.11    0.15
  -6   9   7    0.26    0.21
   5  -9  -7   -0.14    0.23
   5  -9  -7    0.41    0.16
  -5   9   7   -0.12    0.15
  -5   9   7    0.16    0.19
  -5   9   7   -0.14    0.12
  -5   9   7    0.15    0.19
   4  -9  -7    1.28    0.20
   4  -9  -7    1.59    0.36
  -4   9   7    1.13    0.20
  -4   9   7    0.74    0.25
  -4   9   7    0.93    0.20
  -4   9   7    0.82    0.28
   3  -9  -7    0.07    0.25
   3  -9  -7   -0.14    0.11
   3  -9  -7    0.10    0.14
  -3   9   7   -0.08    0.17
  -3   9   7    0.07    0.16
  -3   9   7    0.15    0.14
   2  -9  -7    0.03    0.15
   2  -9  -7    0.01    0.24
   2  -9  -7   -0.01    0.13
  -2   9   7    0.05    0.16
  -2   9   7   -0.12    0.11
   1  -9  -7    0.38    0.17
   1  -9  -7    0.72    0.28
  -1   9   7    0.66    0.15
  -1   9   7    0.52    0.23
   0  -9  -7    0.56    0.21
   0  -9  -7    1.17    0.31
   0   9   7    0.61    0.14
   0   9   7    0.55    0.24
  -1  -9  -7    0.27    0.27
  -1  -9  -7    0.21    0.20
   1   9   7    0.20    0.19
   1   9   7   -0.02    0.08
   6 -10  -7    0.90    0.21
   6 -10  -7    1.36    0.35
  -6  10   7    0.56    0.24
  -6  10   7    0.59    0.22
  -6  10   7    0.99    0.28
   5 -10  -7    0.69    0.17
   5 -10  -7    0.58    0.28
  -5  10   7    0.69    0.26
  -5  10   7    0.53    0.19
   4 -10  -7    0.40    0.25
   4 -10  -7    0.45    0.16
  -4  10   7    0.29    0.16
  -4  10   7    0.63    0.27
   3 -10  -7   -0.08    0.14
   3 -10  -7    0.48    0.27
   3 -10  -7    0.11    0.18
  -3  10   7   -0.01    0.18
  -3  10   7   -0.17    0.12
   2 -10  -7    0.09    0.16
   2 -10  -7    0.28    0.25
   2 -10  -7    0.25    0.17
  -2  10   7    0.12    0.14
  -2  10   7    0.09    0.20
   1 -10  -7    0.27    0.28
   1 -10  -7   -0.17    0.16
  -1  10   7    0.05    0.10
  -1  10   7    0.14    0.18
  -1  11  -8    0.43    0.27
   1 -11   8   -0.03    0.24
   1 -11   8   -0.29    0.27
  -2  11  -8    0.20    0.25
  -2  11  -8    0.26    0.16
  -2  11  -8   -0.35    0.19
   2 -11   8    0.25    0.14
   2 -11   8   -0.20    0.23
   2 -11   8    0.00    0.15
  -3  11  -8    0.60    0.27
  -3  11  -8    0.39    0.17
  -3  11  -8    0.03    0.17
   3 -11   8    0.59    0.17
   3 -11   8    0.28    0.14
   3 -11   8    0.46    0.31
  -4  11  -8    0.24    0.19
  -4  11  -8    0.04    0.12
   4 -11   8   -0.18    0.14
   1  10  -8    0.32    0.22
   1  10  -8    0.20    0.13
  -1 -10   8   -0.30    0.17
  -1 -10   8   -0.07    0.24
   0  10  -8   -0.06    0.22
   0  10  -8    0.08    0.11
   0 -10   8   -0.09    0.12
   0 -10   8   -0.22    0.22
   0 -10   8   -0.09    0.19
  -1  10  -8    0.03    0.11
  -1  10  -8   -0.15    0.18
   1 -10   8    0.15    0.22
   1 -10   8    0.11    0.12
   1 -10   8   -0.24    0.15
  -2  10  -8    0.88    0.25
  -2  10  -8    0.48    0.17
  -2  10  -8    0.26    0.17
   2 -10   8    0.40    0.17
   2 -10   8    0.67    0.16
   2 -10   8    0.60    0.23
  -3  10  -8    0.27    0.19
  -3  10  -8   -0.03    0.14
  -3  10  -8    0.06    0.13
   3 -10   8    0.21    0.13
   3 -10   8    0.37    0.23
   3 -10   8    0.08    0.13
  -4  10  -8    0.26    0.20
  -4  10  -8   -0.17    0.13
  -4  10  -8    0.09    0.12
  -4  10  -8    0.35    0.23
   4 -10   8   -0.03    0.15
   4 -10   8   -0.28    0.20
  -5  10  -8    0.06    0.18
  -5  10  -8    0.24    0.28
  -5  10  -8   -0.10    0.14
   5 -10   8   -0.09    0.12
   5 -10   8   -0.01    0.21
  -6  10  -8    0.03    0.25
  -6  10  -8    0.07    0.14
  -6  10  -8    0.02    0.20
   6 -10   8    0.03    0.17
   6 -10   8   -0.16    0.21
   3   9  -8    0.08    0.20
   2   9  -8    0.10    0.10
   2   9  -8    0.00    0.18
  -2  -9   8    0.04    0.22
  -2  -9   8   -0.17    0.17
   1   9  -8    0.03    0.11
   1   9  -8   -0.08    0.17
  -1  -9   8   -0.08    0.15
  -1  -9   8   -0.21    0.20
   0   9  -8    0.39    0.19
   0   9  -8    0.18    0.11
   0  -9   8    0.21    0.24
   0  -9   8    0.26    0.18
  -1   9  -8    0.97    0.18
  -1   9  -8    0.77    0.19
  -1   9  -8    1.17    0.29
   1  -9   8    1.35    0.31
   1  -9   8    0.83    0.19
   1  -9   8    0.95    0.16
  -2   9  -8    0.12    0.13
  -2   9  -8    0.07    0.12
  -2   9  -8   -0.03    0.25
  -2   9  -8    0.11    0.15
   2  -9   8   -0.10    0.12
   2  -9   8    0.05    0.13
   2  -9   8    0.16    0.19
  -3   9  -8   -0.15    0.19
  -3   9  -8    0.21    0.12
  -3   9  -8    0.00    0.17
  -3   9  -8   -0.03    0.12
   3  -9   8    0.28    0.13
   3  -9   8    0.17    0.12
   3  -9   8   -0.19    0.21
  -4   9  -8    0.50    0.14
  -4   9  -8    0.60    0.16
  -4   9  -8    0.38    0.23
  -4   9  -8    0.31    0.20
   4  -9   8    0.61    0.22
   4  -9   8    0.31    0.14
  -5   9  -8   -0.20    0.12
  -5   9  -8   -0.21    0.19
  -5   9  -8    0.23    0.16
  -5   9  -8   -0.03    0.12
   5  -9   8    0.09    0.14
   5  -9   8   -0.01    0.16
  -6   9  -8    0.10    0.21
  -6   9  -8   -0.06    0.14
  -6   9  -8   -0.09    0.17
   6  -9   8    0.23    0.18
   6  -9   8    0.01    0.19
   6  -9   8    0.00    0.15
  -7   9  -8   -0.39    0.21
  -7   9  -8   -0.10    0.13
  -7   9  -8    0.14    0.17
   7  -9   8    0.12    0.15
   7  -9   8   -0.21    0.15
   7  -9   8    0.05    0.18
   4   8  -8   -0.20    0.20
  -4  -8   8   -0.09    0.20
  -4  -8   8    0.01    0.21
   3   8  -8    1.02    0.29
  -3  -8   8    0.50    0.20
  -3  -8   8    0.88    0.27
   2   8  -8    0.32    0.20
   2   8  -8    0.21    0.11
  -2  -8   8   -0.01    0.16
  -2  -8   8    0.44    0.23
   1   8  -8    0.16    0.19
   1   8  -8    0.11    0.15
  -1  -8   8    0.10    0.15
  -1  -8   8   -0.04    0.25
   0   8  -8    0.00    0.12
   0   8  -8    0.21    0.11
   0   8  -8   -0.05    0.15
   0  -8   8    0.17    0.14
   0  -8   8   -0.23    0.17
  -1   8  -8   -0.12    0.18
  -1   8  -8   -0.13    0.13
  -1   8  -8    0.20    0.17
  -1   8  -8    0.09    0.10
   1  -8   8   -0.15    0.09
   1  -8   8    0.02    0.12
   1  -8   8    0.11    0.17
  -2   8  -8    2.96    0.53
  -2   8  -8    2.95    0.31
  -2   8  -8    3.71    0.39
  -2   8  -8    2.84    0.31
   2  -8   8    3.62    0.32
   2  -8   8    2.87    0.41
   2  -8   8    2.66    0.26
  -3   8  -8    0.01    0.11
  -3   8  -8    0.10    0.12
  -3   8  -8    0.31    0.20
  -3   8  -8    0.21    0.17
   3  -8   8    0.03    0.17
   3  -8   8    0.06    0.11
   3  -8   8   -0.05    0.10
  -4   8  -8    0.11    0.19
  -4   8  -8    0.19    0.19
  -4   8  -8   -0.12    0.10
  -4   8  -8    0.15    0.12
   4  -8   8   -0.07    0.15
   4  -8   8    0.07    0.12
  -5   8  -8    0.54    0.22
  -5   8  -8    0.57    0.19
  -5   8  -8    0.48    0.16
  -5   8  -8    0.15    0.13
   5  -8   8    0.69    0.25
   5  -8   8    0.48    0.16
   5  -8   8    0.52    0.18
  -6   8  -8   -0.23    0.12
  -6   8  -8   -0.13    0.23
  -6   8  -8   -0.27    0.14
  -6   8  -8   -0.17    0.18
   6  -8   8    0.02    0.14
   6  -8   8    0.23    0.12
   6  -8   8   -0.02    0.17
  -7   8  -8    0.34    0.21
  -7   8  -8    0.69    0.19
  -7   8  -8    0.40    0.15
   7  -8   8    0.45    0.19
   7  -8   8    0.28    0.17
   7  -8   8    0.72    0.23
   5   7  -8    0.43    0.22
   5   7  -8   -0.26    0.15
   5   7  -8    0.16    0.12
  -5  -7   8    0.04    0.23
  -5  -7   8    0.17    0.24
   4   7  -8    0.83    0.17
   4   7  -8    1.39    0.28
  -4  -7   8    1.04    0.27
  -4  -7   8    1.19    0.28
  -4  -7   8    1.34    0.28
   3   7  -8   -0.05    0.19
  -3  -7   8   -0.14    0.16
  -3  -7   8    0.04    0.17
  -3  -7   8    0.30    0.22
   2   7  -8    0.41    0.21
  -2  -7   8    0.07    0.14
  -2  -7   8   -0.01    0.17
  -2  -7   8    0.40    0.22
   1   7  -8   -0.16    0.14
   1   7  -8   -0.04    0.09
   1   7  -8   -0.21    0.10
   1   7  -8   -0.07    0.14
  -1  -7   8   -0.03    0.16
  -1  -7   8   -0.02    0.18
  -1  -7   8    0.07    0.13
   0   7  -8    0.44    0.17
   0   7  -8    0.22    0.20
   0   7  -8    0.24    0.13
   0   7  -8    0.54    0.21
   0   7  -8    0.33    0.13
   0  -7   8    0.53    0.22
   0  -7   8    0.63    0.22
   0  -7   8    0.32    0.16
  -1   7  -8    1.20    0.20
  -1   7  -8    1.89    0.30
  -1   7  -8    1.29    0.20
  -1   7  -8    1.24    0.19
   1  -7   8    2.04    0.30
  -2   7  -8    1.27    0.20
  -2   7  -8    1.45    0.26
  -2   7  -8    1.48    0.22
  -2   7  -8    1.85    0.27
  -2   7  -8    0.80    0.16
   2  -7   8    1.44    0.21
   2  -7   8    0.74    0.17
   2  -7   8    1.27    0.16
   2  -7   8    1.33    0.26
  -3   7  -8    0.15    0.13
  -3   7  -8    0.05    0.12
  -3   7  -8    0.49    0.17
  -3   7  -8    0.34    0.18
   3  -7   8    0.29    0.12
   3  -7   8    0.13    0.17
   3  -7   8    0.32    0.16
   3  -7   8    0.39    0.13
  -4   7  -8    0.41    0.21
  -4   7  -8    0.41    0.17
  -4   7  -8    0.58    0.15
  -4   7  -8    0.51    0.15
   4  -7   8    0.59    0.18
   4  -7   8    0.45    0.20
   4  -7   8    0.63    0.15
  -5   7  -8    0.71    0.20
  -5   7  -8    0.98    0.24
  -5   7  -8    0.58    0.16
   5  -7   8    0.69    0.16
   5  -7   8    0.33    0.11
   5  -7   8    0.66    0.19
   5  -7   8    0.44    0.19
   5  -7   8    0.76    0.27
  -6   7  -8    0.14    0.17
  -6   7  -8   -0.12    0.14
  -6   7  -8    0.06    0.11
  -6   7  -8   -0.21    0.11
  -6   7  -8    0.04    0.18
   6  -7   8    0.18    0.14
   6  -7   8    0.17    0.12
   6  -7   8    0.13    0.17
  -7   7  -8   -0.08    0.15
  -7   7  -8    0.13    0.12
  -7   7  -8    0.31    0.15
   7  -7   8    0.13    0.15
   7  -7   8    0.11    0.12
   7  -7   8   -0.07    0.13
  -8   7  -8    0.15    0.16
  -8   7  -8    0.23    0.14
  -8   7  -8    0.54    0.16
   8  -7   8    0.38    0.21
   8  -7   8    0.30    0.20
   5   6  -8    0.42    0.14
   5   6  -8    0.44    0.21
   5   6  -8    0.68    0.18
  -5  -6   8    0.03    0.18
  -5  -6   8    0.62    0.25
  -5  -6   8    0.43    0.21
   4   6  -8    0.56    0.15
   4   6  -8    0.78    0.23
   4   6  -8    0.21    0.15
  -4  -6   8    0.68    0.21
  -4  -6   8    1.05    0.29
  -4  -6   8    0.61    0.23
  -4  -6   8    0.59    0.15
   3   6  -8    0.07    0.12
   3   6  -8    0.32    0.19
  -3  -6   8    0.12    0.15
  -3  -6   8    0.05    0.15
  -3  -6   8    0.23    0.19
  -3  -6   8    0.16    0.18
   2   6  -8    6.13    0.40
   2   6  -8    7.52    0.53
   2   6  -8    6.71    0.47
  -2  -6   8    7.61    0.50
  -2  -6   8    6.95    0.52
  -2  -6   8    6.41    0.42
  -2  -6   8    6.80    0.49
   1   6  -8    5.08    0.47
   1   6  -8    5.20    0.45
   1   6  -8    6.10    0.39
   1   6  -8    5.18    0.36
   1   6  -8    5.49    0.58
  -1  -6   8    4.93    0.47
  -1  -6   8    4.89    0.45
  -1  -6   8    5.94    0.39
  -1  -6   8    6.60    0.43
   0   6  -8    0.62    0.14
   0   6  -8    0.94    0.24
   0   6  -8    0.63    0.15
   0   6  -8    0.55    0.20
   0   6  -8    0.27    0.14
   0  -6   8    0.42    0.22
   0  -6   8    0.33    0.18
   0  -6   8    0.44    0.16
  -1   6  -8   14.49    0.61
  -1   6  -8   15.91    0.64
  -1   6  -8   15.40    0.64
  -1   6  -8   16.20    0.72
  -1   6  -8   15.32    0.69
   1  -6   8   15.13    0.72
   1  -6   8   15.11    0.70
   1  -6   8   16.90    0.73
   1  -6   8   15.65    0.63
  -2   6  -8    3.90    0.37
  -2   6  -8    3.44    0.41
  -2   6  -8    3.05    0.34
  -2   6  -8    4.56    0.39
  -2   6  -8    2.93    0.32
   2  -6   8    3.97    0.40
   2  -6   8    2.71    0.24
   2  -6   8    3.43    0.35
   2  -6   8    3.63    0.34
  -3   6  -8    0.91    0.15
  -3   6  -8    1.13    0.24
  -3   6  -8    1.32    0.24
  -3   6  -8    0.73    0.16
   3  -6   8    1.28    0.22
   3  -6   8    0.81    0.15
   3  -6   8    0.75    0.18
   3  -6   8    1.20    0.24
  -4   6  -8    0.15    0.15
  -4   6  -8    0.24    0.12
  -4   6  -8    0.35    0.16
  -4   6  -8    0.25    0.12
   4  -6   8    0.23    0.10
   4  -6   8    0.21    0.12
   4  -6   8    0.36    0.16
   4  -6   8    0.17    0.13
   4  -6   8    0.42    0.17
  -5   6  -8    0.71    0.20
  -5   6  -8    0.42    0.14
  -5   6  -8    0.54    0.14
  -5   6  -8    0.47    0.18
  -5   6  -8    0.65    0.16
   5  -6   8    0.51    0.17
   5  -6   8    0.73    0.18
   5  -6   8    0.64    0.19
   5  -6   8    0.26    0.12
   5  -6   8    0.49    0.17
  -6   6  -8    0.13    0.18
  -6   6  -8   -0.09    0.13
  -6   6  -8   -0.11    0.14
  -6   6  -8    0.03    0.16
  -6   6  -8    0.03    0.10
   6  -6   8    0.21    0.35
   6  -6   8    0.09    0.18
   6  -6   8    0.11    0.14
   6  -6   8    0.16    0.13
   6  -6   8   -0.04    0.12
  -7   6  -8    0.72    0.30
  -7   6  -8    1.56    0.24
  -7   6  -8    0.97    0.17
   7  -6   8    1.02    0.19
   7  -6   8    1.52    0.29
   7  -6   8    1.59    0.27
   8  -6   8   -0.21    0.12
   8  -6   8    0.10    0.15
   6   5  -8    0.07    0.14
   6   5  -8    0.18    0.14
   6   5  -8    0.66    0.22
   6   5  -8    0.10    0.15
  -6  -5   8    0.33    0.13
  -6  -5   8    0.34    0.19
  -6  -5   8    0.26    0.20
  -6  -5   8    0.12    0.24
   5   5  -8    0.25    0.14
   5   5  -8    0.41    0.14
   5   5  -8    0.21    0.25
   5   5  -8    0.73    0.22
  -5  -5   8    0.27    0.19
  -5  -5   8    0.46    0.21
  -5  -5   8    0.39    0.16
  -5  -5   8    0.59    0.23
   4   5  -8    2.34    0.34
   4   5  -8    1.59    0.24
   4   5  -8    1.32    0.20
  -4  -5   8    2.09    0.32
  -4  -5   8    1.58    0.20
  -4  -5   8    1.49    0.25
  -4  -5   8    1.58    0.27
   3   5  -8   -0.04    0.14
   3   5  -8    0.12    0.13
   3   5  -8    0.10    0.10
  -3  -5   8   -0.30    0.15
  -3  -5   8   -0.17    0.11
  -3  -5   8    0.03    0.09
  -3  -5   8    0.02    0.14
  -3  -5   8   -0.08    0.15
   2   5  -8    1.03    0.22
   2   5  -8    0.63    0.24
   2   5  -8    0.68    0.20
   2   5  -8    0.54    0.13
  -2  -5   8    0.72    0.11
  -2  -5   8    0.33    0.13
  -2  -5   8    0.56    0.17
  -2  -5   8    0.80    0.24
  -2  -5   8    0.77    0.23
   1   5  -8    9.65    0.48
   1   5  -8    9.90    0.47
   1   5  -8   10.07    0.54
   1   5  -8   10.42    0.55
   1   5  -8   10.41    0.51
  -1  -5   8    9.60    0.54
  -1  -5   8    9.86    0.56
  -1  -5   8   10.64    0.52
   0   5  -8   12.88    0.59
   0   5  -8   13.85    0.57
   0   5  -8   13.48    0.58
   0   5  -8   14.12    0.63
   0   5  -8   12.71    0.56
   0  -5   8   12.93    0.60
   0  -5   8   14.32    0.59
   0  -5   8   14.37    0.65
   0  -5   8   12.17    0.54
  -1   5  -8   17.15    0.70
  -1   5  -8   19.33    0.73
  -1   5  -8   16.98    0.66
  -1   5  -8   17.59    0.67
  -1   5  -8   17.37    0.64
   1  -5   8   18.64    0.73
   1  -5   8   18.01    0.66
   1  -5   8   16.69    0.63
   1  -5   8   16.24    0.69
  -2   5  -8    2.92    0.32
  -2   5  -8    2.25    0.30
  -2   5  -8    3.26    0.28
  -2   5  -8    2.82    0.33
   2  -5   8    3.27    0.30
   2  -5   8    2.13    0.31
   2  -5   8    2.94    0.18
   2  -5   8    3.08    0.27
   2  -5   8    3.15    0.33
  -3   5  -8    1.94    0.28
  -3   5  -8    2.09    0.24
  -3   5  -8    1.96    0.27
   3  -5   8    2.22    0.24
   3  -5   8    2.31    0.28
   3  -5   8    2.32    0.20
   3  -5   8    1.94    0.25
  -4   5  -8    1.83    0.24
  -4   5  -8    2.19    0.28
  -4   5  -8    1.69    0.26
  -4   5  -8    2.00    0.28
  -4   5  -8    2.21    0.24
  -4   5  -8    1.81    0.23
   4  -5   8    2.16    0.23
   4  -5   8    1.60    0.27
   4  -5   8    1.82    0.25
   4  -5   8    1.89    0.27
  -5   5  -8    4.39    0.33
  -5   5  -8    4.45    0.35
  -5   5  -8    4.76    0.38
  -5   5  -8    4.66    0.36
  -5   5  -8    4.41    0.32
  -5   5  -8    4.52    0.34
   5  -5   8    4.38    0.36
   5  -5   8    4.48    0.34
   5  -5   8    4.92    0.41
   5  -5   8    4.49    0.34
   5  -5   8    4.49    0.34
  -6   5  -8    1.21    0.31
  -6   5  -8    2.10    0.30
  -6   5  -8    2.07    0.25
  -6   5  -8    1.96    0.29
  -6   5  -8    1.92    0.26
   6  -5   8    2.03    0.28
   6  -5   8    1.48    0.23
   6  -5   8    1.59    0.32
   6  -5   8    1.89    0.25
   6  -5   8    2.50    0.29
  -7   5  -8   -0.01    0.12
  -7   5  -8   -0.13    0.12
  -7   5  -8    0.16    0.16
  -7   5  -8   -0.15    0.10
   7  -5   8   -0.05    0.13
   7  -5   8   -0.14    0.11
   7  -5   8    0.19    0.13
  -8   5  -8    0.07    0.16
   8  -5   8    0.09    0.14
   8  -5   8   -0.26    0.13
   7   4  -8    0.36    0.19
   7   4  -8   -0.42    0.26
   7   4  -8    0.31    0.16
   7   4  -8    0.66    0.22
  -7  -4   8    0.25    0.22
  -7  -4   8    0.30    0.15
  -7  -4   8    0.61    0.21
  -7  -4   8    0.59    0.23
   6   4  -8    0.14    0.14
   6   4  -8   -0.02    0.16
   6   4  -8    0.05    0.11
   6   4  -8   -0.03    0.11
  -6  -4   8   -0.06    0.15
  -6  -4   8    0.19    0.11
  -6  -4   8    0.09    0.21
  -6  -4   8   -0.11    0.14
   5   4  -8    0.73    0.16
   5   4  -8    0.88    0.18
   5   4  -8    1.10    0.23
   5   4  -8    1.04    0.19
  -5  -4   8    0.94    0.24
  -5  -4   8    0.56    0.18
  -5  -4   8    1.05    0.24
   4   4  -8    0.38    0.11
   4   4  -8    0.63    0.22
   4   4  -8    0.39    0.13
  -4  -4   8    0.55    0.20
  -4  -4   8    0.42    0.13
  -4  -4   8    0.32    0.19
  -4  -4   8    0.26    0.18
  -4  -4   8    0.38    0.13
   3   4  -8    5.05    0.41
   3   4  -8    4.66    0.31
   3   4  -8    5.02    0.50
  -3  -4   8    5.49    0.43
  -3  -4   8    6.09    0.42
  -3  -4   8    5.91    0.41
  -3  -4   8    5.75    0.32
   2   4  -8    0.02    0.09
   2   4  -8    0.05    0.15
   2   4  -8    0.05    0.10
   2   4  -8    0.13    0.12
  -2  -4   8    0.17    0.14
  -2  -4   8   -0.01    0.07
  -2  -4   8    0.04    0.15
  -2  -4   8    0.11    0.09
  -2  -4   8    0.01    0.12
   1   4  -8    6.87    0.37
   1   4  -8    7.09    0.42
   1   4  -8    6.52    0.41
   1   4  -8    8.06    0.46
  -1  -4   8    7.54    0.43
  -1  -4   8    7.16    0.43
  -1  -4   8    7.88    0.47
  -1  -4   8    6.56    0.37
   0   4  -8    0.22    0.10
   0   4  -8    0.37    0.14
   0   4  -8    0.16    0.10
   0   4  -8    0.37    0.17
   0   4  -8    0.18    0.13
   0  -4   8    0.13    0.12
   0  -4   8    0.49    0.16
   0  -4   8    0.14    0.09
   0  -4   8    0.23    0.13
  -1   4  -8    0.28    0.11
  -1   4  -8    0.30    0.14
  -1   4  -8    0.13    0.08
  -1   4  -8    0.22    0.12
   1  -4   8    0.21    0.13
   1  -4   8    0.13    0.08
   1  -4   8    0.24    0.12
   1  -4   8    0.11    0.11
  -2   4  -8    2.04    0.22
  -2   4  -8    2.11    0.27
  -2   4  -8    2.08    0.25
   2  -4   8    2.14    0.23
   2  -4   8    1.72    0.21
   2  -4   8    1.89    0.26
   2  -4   8    1.86    0.26
  -3   4  -8    0.41    0.13
  -3   4  -8    0.69    0.18
  -3   4  -8    0.64    0.12
  -3   4  -8    1.04    0.24
  -3   4  -8    0.85    0.13
   3  -4   8    0.62    0.14
   3  -4   8    0.76    0.18
   3  -4   8    0.69    0.13
   3  -4   8    0.64    0.11
  -4   4  -8    1.70    0.22
  -4   4  -8    2.03    0.26
  -4   4  -8    1.43    0.17
  -4   4  -8    1.23    0.18
  -4   4  -8    1.44    0.19
  -4   4  -8    1.83    0.25
   4  -4   8    1.75    0.22
   4  -4   8    1.71    0.24
   4  -4   8    1.57    0.21
   4  -4   8    1.37    0.22
   4  -4   8    1.92    0.26
  -5   4  -8    0.48    0.14
  -5   4  -8    0.60    0.16
  -5   4  -8    0.83    0.16
  -5   4  -8    1.06    0.20
  -5   4  -8    0.85    0.13
  -5   4  -8    0.73    0.19
   5  -4   8    0.82    0.15
   5  -4   8    1.03    0.19
   5  -4   8    0.70    0.18
   5  -4   8    0.76    0.15
   5  -4   8    0.68    0.17
  -6   4  -8    1.18    0.20
  -6   4  -8    0.57    0.15
  -6   4  -8    0.16    0.27
  -6   4  -8    0.92    0.19
  -6   4  -8    0.41    0.13
   6  -4   8    0.58    0.16
   6  -4   8    0.79    0.23
   6  -4   8    0.84    0.18
   6  -4   8    1.14    0.24
   6  -4   8    0.95    0.18
  -7   4  -8    0.00    0.16
  -7   4  -8    0.19    0.12
  -7   4  -8   -0.06    0.12
  -7   4  -8   -0.35    0.14
  -7   4  -8   -0.01    0.10
  -7   4  -8   -0.21    0.14
   7  -4   8    0.08    0.12
   7  -4   8   -0.18    0.10
  -8   4  -8   -0.15    0.14
   8  -4   8   -0.07    0.12
   8  -4   8    0.17    0.15
   7   3  -8    0.28    0.15
   7   3  -8    0.45    0.17
   7   3  -8    0.31    0.19
  -7  -3   8    0.01    0.13
  -7  -3   8    0.39    0.16
  -7  -3   8   -0.14    0.18
  -7  -3   8    0.24    0.20
   6   3  -8   -0.06    0.12
   6   3  -8   -0.04    0.10
   6   3  -8    0.09    0.14
   6   3  -8    0.23    0.15
  -6  -3   8    0.21    0.19
  -6  -3   8   -0.03    0.16
  -6  -3   8    0.08    0.15
  -6  -3   8    0.02    0.10
  -6  -3   8    0.07    0.18
   5   3  -8    0.30    0.14
   5   3  -8    0.40    0.12
   5   3  -8    0.49    0.14
   5   3  -8    0.44    0.18
  -5  -3   8    0.46    0.19
  -5  -3   8    0.54    0.15
  -5  -3   8    0.38    0.17
  -5  -3   8    0.36    0.18
  -5  -3   8    0.24    0.13
   4   3  -8    0.21    0.15
   4   3  -8    0.14    0.16
   4   3  -8   -0.06    0.09
   4   3  -8    0.05    0.08
  -4  -3   8    0.15    0.15
  -4  -3   8    0.20    0.10
  -4  -3   8    0.06    0.14
  -4  -3   8    0.22    0.14
  -4  -3   8    0.12    0.11
   3   3  -8    4.55    0.28
   3   3  -8    4.56    0.29
   3   3  -8    4.50    0.38
   3   3  -8    4.13    0.35
   3   3  -8    4.21    0.33
  -3  -3   8    5.03    0.39
  -3  -3   8    3.99    0.30
  -3  -3   8    4.34    0.35
  -3  -3   8    4.48    0.37
  -3  -3   8    4.77    0.29
   2   3  -8    4.37    0.33
   2   3  -8    4.50    0.28
   2   3  -8    4.63    0.34
   2   3  -8    4.87    0.36
  -2  -3   8    4.60    0.37
  -2  -3   8    3.87    0.28
  -2  -3   8    4.51    0.34
  -2  -3   8    4.60    0.36
   1   3  -8    2.83    0.28
   1   3  -8    3.14    0.28
   1   3  -8    3.14    0.24
   1   3  -8    2.94    0.30
  -1  -3   8    3.11    0.24
  -1  -3   8    3.04    0.27
  -1  -3   8    3.05    0.30
  -1  -3   8    2.92    0.30
   0   3  -8    1.63    0.24
   0   3  -8    1.50    0.22
   0   3  -8    1.52    0.22
   0  -3   8    1.08    0.18
   0  -3   8    1.08    0.20
   0  -3   8    1.75    0.25
   0  -3   8    1.39    0.18
  -1   3  -8   -0.06    0.07
  -1   3  -8   -0.06    0.12
  -1   3  -8   -0.13    0.10
  -1   3  -8    0.00    0.09
   1  -3   8    0.07    0.06
   1  -3   8   -0.01    0.10
   1  -3   8   -0.02    0.10
  -2   3  -8    1.05    0.12
  -2   3  -8    0.95    0.22
  -2   3  -8    1.07    0.19
  -2   3  -8    0.98    0.14
  -2   3  -8    0.91    0.14
   2  -3   8    0.83    0.17
   2  -3   8    0.90    0.13
   2  -3   8    1.01    0.20
  -3   3  -8    0.32    0.09
  -3   3  -8    0.34    0.12
  -3   3  -8    0.31    0.12
  -3   3  -8    0.29    0.09
  -3   3  -8    0.25    0.16
  -3   3  -8    0.29    0.12
   3  -3   8    0.46    0.10
   3  -3   8    0.25    0.14
   3  -3   8    0.43    0.14
  -4   3  -8    0.22    0.16
  -4   3  -8   -0.19    0.14
  -4   3  -8    0.03    0.11
  -4   3  -8    0.11    0.10
   4  -3   8    0.09    0.11
   4  -3   8   -0.19    0.12
   4  -3   8   -0.22    0.12
   4  -3   8    0.02    0.09
   4  -3   8    0.04    0.07
  -5   3  -8    8.39    0.45
  -5   3  -8    8.56    0.45
  -5   3  -8    8.15    0.40
  -5   3  -8    8.79    0.38
  -5   3  -8    8.24    0.46
  -5   3  -8    9.01    0.47
   5  -3   8    8.61    0.47
   5  -3   8    8.28    0.42
   5  -3   8    8.76    0.51
   5  -3   8    7.90    0.42
   5  -3   8    9.09    0.46
  -6   3  -8    1.11    0.17
  -6   3  -8    1.19    0.14
  -6   3  -8    1.35    0.20
  -6   3  -8    1.42    0.21
  -6   3  -8    2.07    0.28
  -6   3  -8    1.17    0.24
   6  -3   8    1.75    0.22
   6  -3   8    1.30    0.19
   6  -3   8    1.73    0.34
   6  -3   8    1.55    0.22
   6  -3   8    1.46    0.25
  -7   3  -8    0.30    0.15
  -7   3  -8   -0.13    0.13
  -7   3  -8    0.10    0.12
   7  -3   8   -0.03    0.11
   7  -3   8   -0.04    0.14
  -8   3  -8    0.38    0.20
   8  -3   8    0.02    0.11
   8  -3   8    0.09    0.14
   8   2  -8    0.06    0.15
   8   2  -8    0.16    0.15
  -8  -2   8    0.07    0.14
  -8  -2   8    0.02    0.19
  -8  -2   8   -0.18    0.18
   7   2  -8   -0.10    0.15
   7   2  -8    0.17    0.16
   7   2  -8    0.03    0.12
  -7  -2   8   -0.13    0.11
  -7  -2   8   -0.01    0.14
  -7  -2   8   -0.01    0.19
  -7  -2   8    0.29    0.18
   6   2  -8    0.59    0.17
   6   2  -8    0.28    0.14
   6   2  -8    0.82    0.19
  -6  -2   8    0.60    0.20
  -6  -2   8    0.60    0.19
  -6  -2   8    0.63    0.19
  -6  -2   8    0.26    0.17
   5   2  -8    1.07    0.19
   5   2  -8    0.88    0.18
   5   2  -8    0.89    0.21
   5   2  -8    1.14    0.22
   5   2  -8    1.01    0.22
  -5  -2   8    0.80    0.17
  -5  -2   8    0.55    0.21
  -5  -2   8    1.09    0.23
  -5  -2   8    1.03    0.22
  -5  -2   8    0.94    0.18
   4   2  -8   -0.02    0.09
   4   2  -8    0.15    0.13
   4   2  -8    0.03    0.07
   4   2  -8    0.02    0.12
   4   2  -8    0.11    0.11
  -4  -2   8    0.00    0.13
  -4  -2   8   -0.13    0.11
  -4  -2   8   -0.16    0.09
  -4  -2   8    0.02    0.11
  -4  -2   8    0.10    0.10
   3   2  -8    0.65    0.19
   3   2  -8    0.40    0.10
   3   2  -8    0.62    0.18
   3   2  -8    0.43    0.12
   3   2  -8    0.44    0.13
  -3  -2   8    0.32    0.13
  -3  -2   8    0.55    0.12
  -3  -2   8    0.33    0.15
  -3  -2   8    0.61    0.16
   2   2  -8    0.98    0.26
   2   2  -8    1.08    0.19
   2   2  -8    0.72    0.11
   2   2  -8    0.82    0.15
   2   2  -8    0.78    0.12
  -2  -2   8    1.04    0.20
  -2  -2   8    0.96    0.19
  -2  -2   8    0.84    0.14
  -2  -2   8    1.07    0.19
   1   2  -8    0.13    0.09
   1   2  -8    0.40    0.13
   1   2  -8    0.15    0.13
  -1  -2   8    0.15    0.07
  -1  -2   8    0.12    0.12
  -1  -2   8    0.17    0.12
  -1  -2   8    0.29    0.13
   0   2  -8    1.72    0.23
   0   2  -8    1.96    0.26
   0   2  -8    1.87    0.23
   0  -2   8    1.91    0.23
   0  -2   8    1.85    0.19
   0  -2   8    1.84    0.25
   0  -2   8    1.97    0.25
  -1   2  -8   33.86    1.02
  -1   2  -8   35.58    1.05
  -1   2  -8   33.93    0.87
  -1   2  -8   33.82    0.98
   1  -2   8   36.75    1.02
   1  -2   8   33.12    1.02
   1  -2   8   33.75    0.94
   1  -2   8   34.94    1.05
  -2   2  -8    0.17    0.08
  -2   2  -8   -0.03    0.09
  -2   2  -8    0.21    0.12
  -2   2  -8    0.21    0.13
   2  -2   8    0.06    0.11
   2  -2   8    0.09    0.12
  -3   2  -8   -0.14    0.11
  -3   2  -8   -0.01    0.08
  -3   2  -8    0.04    0.10
  -3   2  -8    0.07    0.08
  -3   2  -8   -0.05    0.12
   3  -2   8    0.10    0.06
   3  -2   8   -0.02    0.10
   3  -2   8    0.03    0.08
   3  -2   8   -0.02    0.13
  -4   2  -8   18.08    0.68
  -4   2  -8   18.93    0.57
  -4   2  -8   18.31    0.66
  -4   2  -8   18.69    0.70
  -4   2  -8   18.03    0.58
  -4   2  -8   17.94    0.68
   4  -2   8   17.23    0.66
   4  -2   8   18.88    0.72
   4  -2   8   17.58    0.67
   4  -2   8   18.06    0.66
   4  -2   8   18.63    0.57
  -5   2  -8    3.66    0.48
  -5   2  -8    3.11    0.32
  -5   2  -8    3.22    0.25
  -5   2  -8    3.15    0.46
  -5   2  -8    2.70    0.40
  -5   2  -8    3.19    0.33
   5  -2   8    2.53    0.30
   5  -2   8    2.98    0.33
   5  -2   8    2.46    0.27
   5  -2   8    3.12    0.29
  -6   2  -8    0.29    0.15
  -6   2  -8    0.11    0.16
  -6   2  -8    0.41    0.14
  -6   2  -8    0.27    0.14
   6  -2   8    0.11    0.17
   6  -2   8    0.12    0.12
   6  -2   8    0.21    0.13
   6  -2   8    0.15    0.12
  -7   2  -8    1.21    0.19
  -7   2  -8    1.18    0.19
  -7   2  -8    0.80    0.20
   7  -2   8    0.83    0.19
   7  -2   8    0.74    0.18
  -8   2  -8    0.05    0.17
   8  -2   8   -0.20    0.14
   8  -2   8    0.10    0.14
   8   1  -8   -0.07    0.14
   8   1  -8    0.03    0.14
  -8  -1   8   -0.20    0.15
  -8  -1   8   -0.20    0.15
  -8  -1   8   -0.16    0.13
   7   1  -8    0.10    0.15
  -7  -1   8   -0.11    0.13
  -7  -1   8    0.04    0.17
  -7  -1   8    0.10    0.27
   6   1  -8    2.32    0.28
   6   1  -8    1.65    0.25
   6   1  -8    1.94    0.29
   6   1  -8    1.63    0.25
  -6  -1   8    1.31    0.20
  -6  -1   8    1.90    0.28
  -6  -1   8    1.48    0.24
  -6  -1   8    1.32    0.22
  -6  -1   8    2.32    0.30
   5   1  -8    0.02    0.13
   5   1  -8    0.10    0.11
   5   1  -8    0.11    0.12
   5   1  -8    0.05    0.13
   5   1  -8    0.18    0.24
  -5  -1   8    0.03    0.12
  -5  -1   8    0.00    0.12
  -5  -1   8    0.23    0.14
  -5  -1   8    0.10    0.10
  -5  -1   8    0.04    0.09
   4   1  -8    0.16    0.10
   4   1  -8    0.10    0.12
   4   1  -8    0.02    0.09
   4   1  -8   -0.03    0.12
  -4  -1   8    0.27    0.12
  -4  -1   8   -0.02    0.11
  -4  -1   8   -0.11    0.11
  -4  -1   8    0.08    0.12
   3   1  -8   14.08    0.58
   3   1  -8   14.17    0.57
   3   1  -8   15.25    0.52
   3   1  -8   14.96    0.60
   3   1  -8   14.46    0.44
  -3  -1   8   14.40    0.60
  -3  -1   8   14.49    0.58
  -3  -1   8   12.43    0.79
  -3  -1   8   14.51    0.55
   2   1  -8    2.41    0.27
   2   1  -8    2.09    0.25
   2   1  -8    2.66    0.19
   2   1  -8    2.31    0.29
   2   1  -8    2.49    0.20
  -2  -1   8    2.05    0.26
  -2  -1   8    2.24    0.28
  -2  -1   8    2.73    0.29
  -2  -1   8    2.00    0.22
   1   1  -8    0.07    0.10
   1   1  -8    0.14    0.09
   1   1  -8    0.15    0.20
  -1  -1   8    0.15    0.11
  -1  -1   8    0.06    0.11
  -1  -1   8    0.12    0.11
  -1  -1   8    0.16    0.07
   0   1  -8    0.82    0.17
   0   1  -8    0.80    0.16
   0   1  -8    0.59    0.13
   0  -1   8    0.68    0.14
   0  -1   8    0.77    0.15
   0  -1   8    0.57    0.11
   0  -1   8    0.62    0.18
  -1   1  -8    3.93    0.30
  -1   1  -8    3.03    0.26
  -1   1  -8    3.83    0.29
   1  -1   8    3.55    0.28
   1  -1   8    4.02    0.30
   1  -1   8    3.25    0.21
  -2   1  -8    0.35    0.13
  -2   1  -8    0.18    0.11
  -2   1  -8    0.35    0.14
  -2   1  -8    0.19    0.10
   2  -1   8    0.23    0.13
   2  -1   8    0.25    0.07
   2  -1   8    0.34    0.14
  -3   1  -8    0.56    0.17
  -3   1  -8    0.39    0.16
  -3   1  -8    0.34    0.18
  -3   1  -8    0.34    0.12
  -3   1  -8    0.67    0.13
   3  -1   8    0.41    0.12
   3  -1   8    0.51    0.09
   3  -1   8    0.28    0.16
   3  -1   8    0.08    0.14
  -4   1  -8   12.11    0.56
  -4   1  -8   13.00    0.65
  -4   1  -8   13.26    0.58
  -4   1  -8   12.60    0.57
  -4   1  -8   12.50    0.55
   4  -1   8   12.78    0.58
   4  -1   8   12.33    0.54
   4  -1   8   11.73    0.52
   4  -1   8   12.80    0.55
  -5   1  -8    6.44    0.44
  -5   1  -8    6.30    0.41
  -5   1  -8    6.32    0.40
  -5   1  -8    6.01    0.48
   5  -1   8    5.55    0.41
   5  -1   8    6.06    0.42
   5  -1   8    5.85    0.37
   5  -1   8    6.03    0.41
  -6   1  -8    0.54    0.15
  -6   1  -8   -0.01    0.19
  -6   1  -8    0.29    0.16
   6  -1   8    0.03    0.12
   6  -1   8   -0.09    0.14
   6  -1   8    0.19    0.11
   6  -1   8    0.15    0.12
  -7   1  -8    0.16    0.15
  -7   1  -8   -0.01    0.14
  -7   1  -8   -0.10    0.12
   7  -1   8   -0.13    0.11
   7  -1   8   -0.07    0.09
   8   0  -8    0.07    0.15
   8   0  -8   -0.19    0.14
  -8   0   8    0.29    0.13
  -8   0   8    0.02    0.14
  -8   0   8   -0.08    0.16
   7   0  -8    0.17    0.14
   7   0  -8    0.11    0.15
   7   0  -8    0.10    0.14
   7   0  -8    0.51    0.23
  -7   0   8    0.35    0.15
  -7   0   8    0.20    0.16
  -7   0   8   -0.03    0.13
   6   0  -8    0.48    0.17
   6   0  -8    0.52    0.31
   6   0  -8    0.54    0.17
   6   0  -8    0.55    0.16
  -6   0   8    0.62    0.17
  -6   0   8    0.63    0.18
  -6   0   8    0.46    0.17
  -6   0   8    0.37    0.14
   5   0  -8    0.53    0.13
   5   0  -8    0.65    0.17
   5   0  -8    0.63    0.17
   5   0  -8    0.48    0.16
   5   0  -8    0.52    0.15
  -5   0   8    0.66    0.19
  -5   0   8    0.56    0.17
  -5   0   8    0.48    0.17
  -5   0   8    0.48    0.13
   4   0  -8    0.15    0.10
   4   0  -8    0.16    0.12
   4   0  -8    0.17    0.13
   4   0  -8    0.12    0.09
  -4   0   8    0.24    0.13
  -4   0   8    0.09    0.12
  -4   0   8    0.08    0.11
   3   0  -8    0.58    0.17
   3   0  -8    0.32    0.10
   3   0  -8    0.44    0.13
   3   0  -8    0.25    0.13
  -3   0   8    0.50    0.14
  -3   0   8    0.33    0.14
  -3   0   8    0.41    0.14
   2   0  -8   54.95    1.33
   2   0  -8   53.81    1.48
   2   0  -8   53.81    1.46
   2   0  -8   57.49    1.50
  -2   0   8   56.05    1.53
  -2   0   8   55.51    1.51
  -2   0   8   56.25    1.46
   1   0  -8    3.03    0.26
   1   0  -8    3.19    0.27
   1   0  -8    3.28    0.44
  -1   0   8    3.31    0.29
  -1   0   8    3.43    0.27
  -1   0   8    3.03    0.23
  -1   0   8    3.22    0.29
   0   0  -8    2.25    0.23
   0   0  -8    2.39    0.25
   0   0  -8    2.41    0.26
   0   0   8    2.60    0.32
   0   0   8    2.21    0.23
  -1   0  -8    0.03    0.11
  -1   0  -8   -0.02    0.09
  -1   0  -8    0.11    0.13
  -1   0  -8   -0.01    0.09
   1   0   8    0.14    0.06
   1   0   8    0.16    0.11
   1   0   8    0.04    0.10
  -2   0  -8    0.48    0.15
  -2   0  -8    0.58    0.23
  -2   0  -8    0.33    0.12
  -2   0  -8    0.46    0.12
   2   0   8    0.66    0.14
   2   0   8    0.45    0.13
   2   0   8    0.61    0.18
   2   0   8    0.40    0.08
  -3   0  -8   82.79    2.19
  -3   0  -8   85.83    2.21
  -3   0  -8   89.06    2.22
  -3   0  -8   90.94    2.29
   3   0   8   82.89    2.18
   3   0   8   89.71    2.20
   3   0   8   89.31    2.22
  -4   0  -8    0.89    0.20
  -4   0  -8    0.58    0.16
  -4   0  -8    0.79    0.19
  -4   0  -8    0.83    0.18
   4   0   8    0.72    0.17
   4   0   8    0.89    0.17
   4   0   8    0.85    0.20
  -5   0  -8    3.13    0.39
  -5   0  -8    3.14    0.33
  -5   0  -8    3.32    0.33
   5   0   8    3.30    0.30
   5   0   8    2.73    0.33
   5   0   8    2.70    0.31
  -6   0  -8    0.13    0.17
  -6   0  -8   -0.09    0.16
  -6   0  -8    0.03    0.14
   6   0   8   -0.05    0.12
   6   0   8    0.05    0.12
   6   0   8    0.08    0.12
  -7   0  -8   -0.07    0.14
  -7   0  -8   -0.12    0.17
  -7   0  -8    0.03    0.16
   7   0   8    0.17    0.11
   7   0   8   -0.05    0.12
   9  -1  -8    0.01    0.16
   9  -1  -8   -0.03    0.17
  -9   1   8   -0.07    0.16
   8  -1  -8    3.08    0.38
   8  -1  -8    3.09    0.40
  -8   1   8    2.95    0.38
  -8   1   8    2.57    0.29
  -8   1   8    2.50    0.28
   7  -1  -8    0.61    0.22
   7  -1  -8    1.14    0.20
   7  -1  -8    0.61    0.18
   7  -1  -8    0.63    0.18
   7  -1  -8    0.88    0.19
  -7   1   8    0.94    0.19
  -7   1   8    0.66    0.19
  -7   1   8    0.90    0.17
   6  -1  -8    0.01    0.10
   6  -1  -8    0.12    0.14
   6  -1  -8    0.02    0.14
   6  -1  -8    0.08    0.13
   6  -1  -8    0.26    0.12
   6  -1  -8    0.23    0.14
  -6   1   8    0.03    0.13
  -6   1   8    0.11    0.13
  -6   1   8    0.11    0.12
  -6   1   8    0.14    0.13
  -6   1   8    0.04    0.12
   5  -1  -8    0.40    0.16
   5  -1  -8    0.39    0.16
   5  -1  -8    0.45    0.14
   5  -1  -8    0.26    0.10
   5  -1  -8    0.24    0.13
   5  -1  -8    0.51    0.15
  -5   1   8    0.35    0.16
  -5   1   8    0.57    0.16
  -5   1   8    0.29    0.14
   4  -1  -8    7.13    0.47
   4  -1  -8    6.55    0.39
   4  -1  -8    6.70    0.39
   4  -1  -8    6.70    0.30
   4  -1  -8    6.81    0.37
  -4   1   8    6.80    0.40
  -4   1   8    6.60    0.39
  -4   1   8    6.95    0.40
   3  -1  -8   33.63    1.00
   3  -1  -8   31.92    0.87
   3  -1  -8   31.76    0.96
   3  -1  -8   32.64    0.84
   3  -1  -8   31.32    0.97
  -3   1   8   32.68    0.97
  -3   1   8   31.52    0.99
  -3   1   8   32.49    1.01
   2  -1  -8    3.11    0.28
   2  -1  -8    3.37    0.30
   2  -1  -8    2.78    0.26
  -2   1   8    2.63    0.26
  -2   1   8    3.00    0.28
  -2   1   8    2.76    0.29
   1  -1  -8    3.19    0.23
   1  -1  -8    3.48    0.28
   1  -1  -8    3.40    0.30
   1  -1  -8    3.06    0.26
  -1   1   8    3.22    0.27
  -1   1   8    3.55    0.29
  -1   1   8    3.47    0.30
   0  -1  -8    2.28    0.24
   0  -1  -8    2.00    0.27
   0  -1  -8    1.93    0.23
   0  -1  -8    2.04    0.26
   0   1   8    2.14    0.24
   0   1   8    2.38    0.26
  -1  -1  -8    1.98    0.26
  -1  -1  -8    2.09    0.24
  -1  -1  -8    2.30    0.26
  -1  -1  -8    2.10    0.26
   1   1   8    2.14    0.24
   1   1   8    1.98    0.39
   1   1   8    1.91    0.18
   1   1   8    1.87    0.17
  -2  -1  -8    0.96    0.16
  -2  -1  -8    1.08    0.17
  -2  -1  -8    1.33    0.22
  -2  -1  -8    1.47    0.24
   2   1   8    1.63    0.22
   2   1   8    1.26    0.21
   2   1   8    1.34    0.14
   2   1   8    1.56    0.19
  -3  -1  -8    0.59    0.18
  -3  -1  -8    0.29    0.14
  -3  -1  -8    0.78    0.21
   3   1   8    0.31    0.13
   3   1   8    0.32    0.16
   3   1   8    0.70    0.17
  -4  -1  -8    3.07    0.33
  -4  -1  -8    2.50    0.37
  -4  -1  -8    2.45    0.36
   4   1   8    2.44    0.27
   4   1   8    2.35    0.29
   4   1   8    2.78    0.21
  -5  -1  -8    0.44    0.17
  -5  -1  -8    0.26    0.16
  -5  -1  -8    0.66    0.20
  -5  -1  -8    0.75    0.21
   5   1   8    0.39    0.13
   5   1   8    0.30    0.12
   5   1   8    0.51    0.15
   5   1   8    0.48    0.15
  -6  -1  -8    0.05    0.14
   6   1   8   -0.11    0.09
   6   1   8    0.14    0.11
   6   1   8    0.13    0.12
   6   1   8    0.17    0.12
  -7  -1  -8   -0.19    0.18
  -7  -1  -8   -0.04    0.15
  -7  -1  -8    0.19    0.17
   7   1   8    0.26    0.16
   7   1   8   -0.03    0.15
   7   1   8    0.23    0.13
   9  -2  -8    0.24    0.17
   9  -2  -8    0.11    0.16
  -9   2   8   -0.07    0.16
   8  -2  -8    0.59    0.18
   8  -2  -8    0.41    0.19
  -8   2   8    0.45    0.13
  -8   2   8    0.24    0.14
  -8   2   8    0.34    0.16
   7  -2  -8    0.15    0.15
   7  -2  -8    0.04    0.13
   7  -2  -8    0.21    0.12
   7  -2  -8    0.13    0.27
   7  -2  -8    0.18    0.14
   7  -2  -8    0.11    0.18
  -7   2   8   -0.08    0.15
  -7   2   8   -0.01    0.13
  -7   2   8   -0.19    0.11
  -7   2   8    0.07    0.12
   6  -2  -8    0.88    0.16
   6  -2  -8    1.08    0.19
   6  -2  -8    0.77    0.18
   6  -2  -8    0.63    0.17
   6  -2  -8    1.12    0.19
   6  -2  -8    1.14    0.21
  -6   2   8    0.75    0.18
  -6   2   8    0.77    0.18
  -6   2   8    1.25    0.22
  -6   2   8    0.69    0.16
  -6   2   8    1.40    0.21
  -6   2   8    0.55    0.21
   5  -2  -8   15.71    0.60
   5  -2  -8   14.72    0.58
   5  -2  -8   15.52    0.63
   5  -2  -8   14.78    0.59
   5  -2  -8   15.28    0.55
  -5   2   8   14.20    0.59
  -5   2   8   13.38    0.55
  -5   2   8   14.82    0.60
  -5   2   8   14.48    0.59
  -5   2   8   14.14    0.55
   4  -2  -8    1.09    0.16
   4  -2  -8    1.00    0.14
   4  -2  -8    1.10    0.19
   4  -2  -8    1.07    0.19
  -4   2   8    1.06    0.20
  -4   2   8    1.03    0.20
  -4   2   8    0.78    0.12
  -4   2   8    0.94    0.16
   3  -2  -8    0.82    0.18
   3  -2  -8    0.73    0.18
   3  -2  -8    0.48    0.13
  -3   2   8    0.60    0.16
  -3   2   8    0.54    0.14
  -3   2   8    0.57    0.10
  -3   2   8    0.94    0.28
   2  -2  -8    3.39    0.49
   2  -2  -8    3.90    0.29
   2  -2  -8    3.96    0.31
   2  -2  -8    3.87    0.22
  -2   2   8    3.76    0.30
  -2   2   8    3.98    0.30
  -2   2   8    3.89    0.31
   1  -2  -8    0.70    0.12
   1  -2  -8    0.90    0.21
   1  -2  -8    0.95    0.19
   1  -2  -8    0.57    0.12
  -1   2   8    0.71    0.17
  -1   2   8    0.95    0.20
   0  -2  -8   10.08    0.50
   0  -2  -8    9.72    0.44
   0  -2  -8   10.43    0.62
   0   2   8    9.31    0.47
   0   2   8   10.48    0.34
   0   2   8   10.55    0.50
  -1  -2  -8    3.31    0.31
  -1  -2  -8    2.85    0.28
  -1  -2  -8    3.38    0.32
  -1  -2  -8    3.28    0.31
   1   2   8    3.53    0.32
   1   2   8    3.35    0.29
   1   2   8    3.36    0.21
  -2  -2  -8    2.99    0.38
  -2  -2  -8    4.37    0.36
  -2  -2  -8    4.42    0.37
   2   2   8    3.31    0.27
   2   2   8    4.08    0.32
   2   2   8    3.79    0.37
  -3  -2  -8    0.42    0.17
  -3  -2  -8    0.07    0.13
  -3  -2  -8    0.44    0.18
   3   2   8    0.37    0.12
   3   2   8    0.26    0.15
  -4  -2  -8   -0.12    0.16
  -4  -2  -8   -0.07    0.12
  -4  -2  -8    0.11    0.15
   4   2   8    0.03    0.12
   4   2   8   -0.05    0.09
   4   2   8   -0.29    0.20
   4   2   8    0.12    0.09
  -5  -2  -8    0.17    0.16
  -5  -2  -8    0.06    0.18
  -5  -2  -8    0.26    0.17
  -5  -2  -8    0.03    0.14
   5   2   8   -0.11    0.08
   5   2   8   -0.03    0.10
   5   2   8    0.21    0.14
  -6  -2  -8    0.06    0.14
  -6  -2  -8   -0.03    0.15
  -6  -2  -8    0.04    0.19
   6   2   8    0.15    0.15
   6   2   8   -0.06    0.09
   6   2   8    0.20    0.13
   9  -3  -8   -0.11    0.12
   9  -3  -8   -0.23    0.15
  -9   3   8   -0.22    0.13
   8  -3  -8   -0.01    0.15
   8  -3  -8   -0.20    0.16
   8  -3  -8    0.18    0.13
  -8   3   8    0.27    0.14
  -8   3   8    0.02    0.13
  -8   3   8   -0.16    0.12
   7  -3  -8    0.15    0.15
   7  -3  -8    0.13    0.24
   7  -3  -8   -0.14    0.12
   7  -3  -8    0.16    0.17
   7  -3  -8    0.11    0.13
  -7   3   8   -0.10    0.12
  -7   3   8   -0.07    0.12
  -7   3   8   -0.19    0.12
   6  -3  -8   -0.03    0.13
   6  -3  -8   -0.26    0.11
   6  -3  -8   -0.17    0.14
   6  -3  -8    0.14    0.11
   6  -3  -8   -0.09    0.12
  -6   3   8   -0.01    0.11
  -6   3   8   -0.07    0.11
  -6   3   8    0.02    0.11
  -6   3   8    0.01    0.12
  -6   3   8   -0.06    0.12
   5  -3  -8    0.55    0.15
   5  -3  -8    0.68    0.18
   5  -3  -8    0.58    0.14
   5  -3  -8    0.72    0.18
   5  -3  -8    0.84    0.18
  -5   3   8    0.58    0.14
  -5   3   8    0.93    0.16
  -5   3   8    0.66    0.13
  -5   3   8    0.85    0.19
  -5   3   8    0.60    0.18
   4  -3  -8    0.43    0.12
   4  -3  -8    0.79    0.19
   4  -3  -8    0.55    0.17
  -4   3   8    0.54    0.19
  -4   3   8    0.67    0.18
  -4   3   8    0.28    0.13
  -4   3   8    0.35    0.10
  -4   3   8    0.47    0.11
   3  -3  -8    0.98    0.15
   3  -3  -8    1.37    0.23
   3  -3  -8    1.43    0.22
  -3   3   8    1.38    0.17
  -3   3   8    1.22    0.21
  -3   3   8    1.29    0.18
  -3   3   8    1.13    0.22
   2  -3  -8    7.13    0.32
   2  -3  -8    6.81    0.36
   2  -3  -8    7.31    0.43
   2  -3  -8    6.91    0.41
  -2   3   8    6.51    0.40
  -2   3   8    6.76    0.41
   1  -3  -8   10.79    0.53
   1  -3  -8   11.29    0.48
   1  -3  -8   11.78    0.47
   1  -3  -8   12.84    0.57
  -1   3   8   12.44    0.56
  -1   3   8   11.25    0.53
   0  -3  -8    0.51    0.13
   0  -3  -8    0.54    0.13
   0  -3  -8    0.56    0.17
   0  -3  -8    0.49    0.17
   0   3   8    0.63    0.16
   0   3   8    0.68    0.18
  -1  -3  -8    0.47    0.17
  -1  -3  -8    0.48    0.17
  -1  -3  -8    0.12    0.10
  -1  -3  -8   -0.07    0.12
   1   3   8   -0.07    0.16
   1   3   8    0.24    0.13
  -2  -3  -8    8.63    0.50
  -2  -3  -8    8.81    0.51
  -2  -3  -8    7.99    0.48
   2   3   8    8.19    0.36
  -3  -3  -8    3.74    0.38
  -3  -3  -8    3.93    0.39
  -3  -3  -8    4.47    0.42
   3   3   8    4.20    0.36
   3   3   8    3.95    0.25
  -4  -3  -8    0.00    0.19
  -4  -3  -8    0.12    0.16
  -4  -3  -8    0.30    0.18
   4   3   8   -0.02    0.13
   4   3   8    0.13    0.11
  -5  -3  -8    0.02    0.16
  -5  -3  -8   -0.20    0.23
  -5  -3  -8    0.04    0.20
  -5  -3  -8    0.05    0.17
   5   3   8   -0.09    0.10
   5   3   8    0.07    0.10
   5   3   8    0.14    0.15
  -6  -3  -8   -0.16    0.24
  -6  -3  -8    0.09    0.18
  -6  -3  -8   -0.16    0.16
   6   3   8   -0.01    0.14
   6   3   8   -0.02    0.12
   6   3   8   -0.26    0.12
   9  -4  -8    0.30    0.16
   9  -4  -8    0.04    0.15
   8  -4  -8    0.09    0.15
   8  -4  -8   -0.05    0.16
   8  -4  -8    0.14    0.14
  -8   4   8    0.23    0.21
  -8   4   8    0.14    0.14
  -8   4   8    0.10    0.13
   7  -4  -8    0.69    0.18
   7  -4  -8    0.73    0.19
   7  -4  -8    0.52    0.15
   7  -4  -8    0.25    0.25
   7  -4  -8    0.61    0.18
  -7   4   8    0.42    0.15
  -7   4   8    0.41    0.16
  -7   4   8    0.82    0.18
  -7   4   8    0.59    0.16
   6  -4  -8    0.08    0.15
   6  -4  -8    0.20    0.13
   6  -4  -8    0.01    0.11
   6  -4  -8    0.04    0.13
   6  -4  -8   -0.05    0.14
  -6   4   8    0.14    0.12
  -6   4   8    0.03    0.11
  -6   4   8    0.19    0.14
  -6   4   8   -0.15    0.11
  -6   4   8    0.10    0.11
   5  -4  -8    0.43    0.13
   5  -4  -8    0.38    0.15
   5  -4  -8    0.71    0.19
   5  -4  -8    0.66    0.15
  -5   4   8    0.39    0.16
  -5   4   8    0.63    0.18
  -5   4   8    0.43    0.14
  -5   4   8    0.38    0.11
  -5   4   8    0.58    0.14
   4  -4  -8    0.43    0.16
   4  -4  -8    0.32    0.11
   4  -4  -8    0.20    0.15
  -4   4   8    0.43    0.12
  -4   4   8    0.31    0.15
  -4   4   8    0.07    0.13
   3  -4  -8    1.96    0.24
   3  -4  -8    2.18    0.27
   3  -4  -8    1.96    0.29
  -3   4   8    1.64    0.19
  -3   4   8    2.20    0.28
  -3   4   8    1.98    0.28
   2  -4  -8    0.09    0.09
   2  -4  -8    0.26    0.14
   2  -4  -8    0.11    0.10
   2  -4  -8    0.23    0.16
  -2   4   8    0.08    0.07
  -2   4   8    0.35    0.16
  -2   4   8    0.18    0.13
   1  -4  -8    0.04    0.15
   1  -4  -8   -0.04    0.14
   1  -4  -8    0.03    0.08
   1  -4  -8   -0.02    0.09
  -1   4   8    0.24    0.14
  -1   4   8   -0.09    0.13
   0  -4  -8   -0.06    0.14
   0  -4  -8    0.12    0.14
   0  -4  -8   -0.07    0.10
   0  -4  -8    0.02    0.10
   0   4   8   -0.07    0.07
   0   4   8   -0.03    0.10
   0   4   8    0.17    0.14
  -1  -4  -8    0.62    0.16
  -1  -4  -8    0.55    0.18
  -1  -4  -8    0.56    0.19
   1   4   8    0.54    0.11
   1   4   8    0.78    0.20
   1   4   8    0.67    0.18
  -2  -4  -8    0.00    0.12
  -2  -4  -8   -0.12    0.18
  -2  -4  -8    0.03    0.17
   2   4   8    0.10    0.14
   2   4   8    0.12    0.07
  -3  -4  -8    0.03    0.17
  -3  -4  -8   -0.13    0.12
  -3  -4  -8    0.41    0.20
   3   4   8    0.03    0.08
   3   4   8    0.16    0.16
  -4  -4  -8    0.03    0.13
  -4  -4  -8    0.13    0.14
  -4  -4  -8    0.48    0.22
  -4  -4  -8    0.08    0.17
   4   4   8    0.01    0.10
   4   4   8    0.32    0.11
   4   4   8    0.47    0.16
  -5  -4  -8    0.29    0.21
  -5  -4  -8    0.22    0.17
  -5  -4  -8    0.41    0.24
  -5  -4  -8    0.22    0.18
   5   4   8    0.20    0.13
   5   4   8    0.31    0.19
   5   4   8    0.18    0.15
   9  -5  -8    0.16    0.15
   9  -5  -8   -0.09    0.15
  -9   5   8   -0.09    0.12
  -9   5   8    0.22    0.20
  -9   5   8   -0.16    0.14
   8  -5  -8    0.20    0.16
   8  -5  -8    0.20    0.15
   8  -5  -8   -0.10    0.16
  -8   5   8    0.03    0.12
  -8   5   8   -0.18    0.14
  -8   5   8   -0.14    0.14
  -8   5   8   -0.01    0.11
   7  -5  -8   -0.28    0.14
   7  -5  -8   -0.03    0.17
   7  -5  -8    0.14    0.16
   7  -5  -8    0.33    0.16
  -7   5   8    0.17    0.11
  -7   5   8    0.17    0.17
  -7   5   8    0.20    0.12
   6  -5  -8    0.05    0.16
   6  -5  -8   -0.01    0.11
   6  -5  -8    0.00    0.13
   6  -5  -8   -0.16    0.12
   6  -5  -8   -0.07    0.15
  -6   5   8   -0.04    0.08
  -6   5   8    0.18    0.16
  -6   5   8   -0.12    0.10
   5  -5  -8   -0.16    0.11
   5  -5  -8    0.01    0.13
   5  -5  -8   -0.24    0.15
   5  -5  -8   -0.06    0.11
   5  -5  -8    0.05    0.16
  -5   5   8    0.03    0.13
  -5   5   8   -0.22    0.10
  -5   5   8    0.12    0.14
   4  -5  -8   10.45    0.55
   4  -5  -8    9.87    0.52
   4  -5  -8   10.35    0.45
   4  -5  -8   10.35    0.51
  -4   5   8   10.43    0.54
  -4   5   8   10.48    0.54
  -4   5   8    9.75    0.45
   3  -5  -8   -0.03    0.15
   3  -5  -8   -0.07    0.08
   3  -5  -8   -0.06    0.09
  -3   5   8   -0.02    0.07
  -3   5   8   -0.06    0.14
  -3   5   8    0.00    0.08
   2  -5  -8    0.15    0.10
   2  -5  -8    0.23    0.20
   2  -5  -8    0.23    0.11
   2  -5  -8    0.49    0.19
  -2   5   8    0.20    0.12
  -2   5   8    0.34    0.11
  -2   5   8    0.40    0.17
   1  -5  -8    0.70    0.14
   1  -5  -8    0.70    0.14
   1  -5  -8    1.10    0.23
   1  -5  -8    0.79    0.20
  -1   5   8    0.99    0.16
  -1   5   8    1.10    0.22
  -1   5   8    1.08    0.24
  -1   5   8    0.71    0.15
   0  -5  -8    0.18    0.16
   0  -5  -8    0.03    0.11
   0  -5  -8    0.06    0.12
   0  -5  -8    0.00    0.17
   0   5   8    0.20    0.09
   0   5   8    0.21    0.12
   0   5   8    0.14    0.15
   0   5   8    0.18    0.16
  -1  -5  -8    3.03    0.38
  -1  -5  -8    2.81    0.37
  -1  -5  -8    2.64    0.34
   1   5   8    2.30    0.35
   1   5   8    2.56    0.33
   1   5   8    2.56    0.21
  -2  -5  -8    0.21    0.19
  -2  -5  -8    0.18    0.16
  -2  -5  -8   -0.03    0.20
   2   5   8    0.20    0.14
  -3  -5  -8   -0.01    0.16
  -3  -5  -8   -0.08    0.14
  -3  -5  -8    0.06    0.25
   3   5   8    0.06    0.10
   3   5   8    0.17    0.15
  -4  -5  -8   -0.06    0.18
  -4  -5  -8   -0.24    0.14
   4   5   8    0.04    0.10
   4   5   8    0.05    0.14
   4   5   8   -0.05    0.12
  -5  -5  -8    0.79    0.34
  -5  -5  -8    0.35    0.20
  -5  -5  -8    0.23    0.24
   5   5   8   -0.07    0.13
   8  -6  -8    0.20    0.20
   8  -6  -8    0.15    0.15
   8  -6  -8   -0.02    0.16
  -8   6   8    0.26    0.16
  -8   6   8   -0.08    0.25
  -8   6   8   -0.14    0.14
  -8   6   8   -0.20    0.16
   7  -6  -8   -0.16    0.13
   7  -6  -8    0.00    0.14
   7  -6  -8    0.00    0.18
  -7   6   8   -0.30    0.26
  -7   6   8   -0.11    0.10
  -7   6   8   -0.10    0.16
  -7   6   8   -0.14    0.13
   6  -6  -8   -0.06    0.13
   6  -6  -8    0.23    0.17
   6  -6  -8   -0.13    0.11
   6  -6  -8   -0.04    0.13
  -6   6   8    0.31    0.16
  -6   6   8    0.23    0.14
  -6   6   8    0.32    0.24
  -6   6   8   -0.05    0.15
   5  -6  -8    0.59    0.16
   5  -6  -8    0.58    0.21
   5  -6  -8    0.40    0.13
  -5   6   8    0.54    0.14
  -5   6   8    0.61    0.20
  -5   6   8    0.42    0.19
  -5   6   8    0.36    0.18
   4  -6  -8    0.20    0.12
   4  -6  -8    0.31    0.10
   4  -6  -8    0.04    0.17
   4  -6  -8    0.26    0.13
  -4   6   8    0.35    0.17
  -4   6   8    0.43    0.13
  -4   6   8    0.21    0.10
  -4   6   8    0.50    0.20
  -4   6   8    0.15    0.13
   3  -6  -8    0.04    0.10
   3  -6  -8    0.01    0.17
   3  -6  -8    0.01    0.11
   3  -6  -8   -0.03    0.11
  -3   6   8    0.03    0.11
  -3   6   8   -0.05    0.13
  -3   6   8   -0.01    0.10
  -3   6   8    0.23    0.15
   2  -6  -8    0.50    0.13
   2  -6  -8    0.41    0.21
   2  -6  -8    0.43    0.13
   2  -6  -8   -0.05    0.17
  -2   6   8    0.53    0.14
  -2   6   8    0.52    0.15
  -2   6   8    0.65    0.22
  -2   6   8    0.54    0.19
   1  -6  -8    1.47    0.27
   1  -6  -8    1.25    0.18
   1  -6  -8    1.32    0.26
   1  -6  -8    1.36    0.20
  -1   6   8    1.53    0.20
  -1   6   8    1.09    0.25
  -1   6   8    1.68    0.28
  -1   6   8    1.27    0.20
   0  -6  -8    4.02    0.38
   0  -6  -8    4.12    0.43
   0  -6  -8    3.49    0.42
   0  -6  -8    3.22    0.34
   0   6   8    3.84    0.39
   0   6   8    3.45    0.28
   0   6   8    3.72    0.38
  -1  -6  -8    0.37    0.20
  -1  -6  -8   -0.10    0.22
  -1  -6  -8    0.42    0.17
   1   6   8    0.28    0.17
   1   6   8    0.36    0.09
  -2  -6  -8    0.20    0.23
  -2  -6  -8    0.16    0.19
  -2  -6  -8    0.24    0.16
   2   6   8    0.11    0.17
  -3  -6  -8    0.39    0.19
  -3  -6  -8    1.35    0.32
  -3  -6  -8    0.67    0.24
   3   6   8    0.61    0.19
   3   6   8    0.38    0.13
  -4  -6  -8    0.25    0.24
  -4  -6  -8    0.21    0.19
   4   6   8    0.03    0.12
   4   6   8    0.39    0.20
   4   6   8    0.22    0.14
   8  -7  -8   -0.18    0.13
   8  -7  -8    0.14    0.16
   8  -7  -8   -0.07    0.21
  -8   7   8   -0.02    0.16
  -8   7   8    0.06    0.16
  -8   7   8   -0.27    0.16
   7  -7  -8    0.11    0.17
   7  -7  -8    0.16    0.15
   7  -7  -8   -0.03    0.20
  -7   7   8   -0.15    0.13
  -7   7   8   -0.20    0.16
  -7   7   8    0.19    0.16
   6  -7  -8    2.14    0.29
   6  -7  -8    3.04    0.56
   6  -7  -8    2.39    0.33
  -6   7   8    2.71    0.40
  -6   7   8    3.81    0.39
  -6   7   8    2.80    0.35
   5  -7  -8    0.28    0.14
   5  -7  -8    0.57    0.22
  -5   7   8    0.53    0.21
  -5   7   8    0.23    0.15
  -5   7   8    0.41    0.17
   4  -7  -8   -0.02    0.11
   4  -7  -8    0.18    0.11
   4  -7  -8    0.18    0.21
  -4   7   8   -0.20    0.16
  -4   7   8    0.08    0.13
  -4   7   8   -0.13    0.14
  -4   7   8    0.11    0.11
  -4   7   8   -0.04    0.10
   3  -7  -8   -0.22    0.10
   3  -7  -8    0.01    0.11
   3  -7  -8   -0.34    0.16
   3  -7  -8    0.10    0.12
  -3   7   8   -0.26    0.13
  -3   7   8   -0.01    0.12
  -3   7   8   -0.01    0.11
   2  -7  -8    0.01    0.12
   2  -7  -8   -0.11    0.17
   2  -7  -8   -0.03    0.12
   2  -7  -8   -0.11    0.11
  -2   7   8   -0.04    0.10
  -2   7   8    0.05    0.15
  -2   7   8    0.15    0.19
  -2   7   8    0.04    0.13
   1  -7  -8    1.93    0.33
   1  -7  -8    2.44    0.36
   1  -7  -8    1.31    0.23
  -1   7   8    2.67    0.29
  -1   7   8    1.76    0.29
  -1   7   8    1.86    0.28
   0  -7  -8    0.81    0.20
   0  -7  -8    0.94    0.26
   0   7   8    0.76    0.23
   0   7   8    0.89    0.15
  -1  -7  -8    0.32    0.23
  -1  -7  -8    0.09    0.15
   1   7   8    0.46    0.19
  -2  -7  -8   -0.04    0.15
  -2  -7  -8    0.17    0.21
   2   7   8    0.34    0.18
  -3  -7  -8    0.05    0.18
  -3  -7  -8    0.51    0.26
   3   7   8   -0.06    0.17
   3   7   8    0.03    0.12
   7  -8  -8   -0.10    0.15
   7  -8  -8   -0.08    0.14
   7  -8  -8    0.21    0.25
  -7   8   8    0.25    0.22
  -7   8   8   -0.01    0.15
  -7   8   8   -0.03    0.16
   6  -8  -8    0.99    0.20
   6  -8  -8    1.15    0.23
   6  -8  -8    1.25    0.28
  -6   8   8    1.28    0.25
  -6   8   8    1.42    0.26
  -6   8   8    0.90    0.23
   5  -8  -8    0.14    0.14
   5  -8  -8   -0.03    0.21
  -5   8   8    0.34    0.20
  -5   8   8    0.03    0.13
  -5   8   8    0.11    0.17
  -5   8   8   -0.19    0.10
   4  -8  -8    0.47    0.16
   4  -8  -8    0.25    0.24
   4  -8  -8    0.28    0.13
   4  -8  -8    0.24    0.13
  -4   8   8    0.53    0.21
  -4   8   8    0.41    0.24
  -4   8   8    0.32    0.20
  -4   8   8    0.19    0.15
   3  -8  -8    0.46    0.14
   3  -8  -8    0.29    0.14
   3  -8  -8    0.42    0.25
   3  -8  -8    0.29    0.14
  -3   8   8    0.11    0.15
  -3   8   8    0.29    0.14
  -3   8   8    0.40    0.27
  -3   8   8    0.18    0.16
   2  -8  -8    0.26    0.22
   2  -8  -8    0.02    0.14
   2  -8  -8    0.21    0.15
  -2   8   8    0.42    0.14
  -2   8   8    0.00    0.16
  -2   8   8    0.65    0.23
   1  -8  -8    0.37    0.15
   1  -8  -8    0.22    0.16
   1  -8  -8    0.48    0.25
  -1   8   8    0.69    0.24
  -1   8   8    0.33    0.12
   0  -8  -8    0.13    0.16
   0  -8  -8    0.46    0.26
   0   8   8   -0.03    0.15
   0   8   8    0.07    0.10
  -1  -8  -8    0.30    0.24
  -1  -8  -8   -0.18    0.16
   1   8   8    0.20    0.16
  -2  -8  -8    0.33    0.27
  -2  -8  -8   -0.14    0.18
   2   8   8    0.25    0.19
   7  -9  -8   -0.06    0.27
  -7   9   8   -0.48    0.20
  -7   9   8    0.29    0.22
   6  -9  -8    0.14    0.16
   6  -9  -8    0.90    0.28
  -6   9   8    0.39    0.29
  -6   9   8    0.47    0.18
  -6   9   8    0.75    0.24
   5  -9  -8    0.32    0.16
   5  -9  -8    0.28    0.25
  -5   9   8    0.32    0.25
  -5   9   8    0.32    0.18
  -5   9   8    0.29    0.20
   4  -9  -8   -0.01    0.14
   4  -9  -8    0.12    0.27
   4  -9  -8    0.11    0.12
  -4   9   8   -0.31    0.28
  -4   9   8    0.05    0.16
  -4   9   8    0.30    0.22
   3  -9  -8    0.26    0.24
   3  -9  -8    0.01    0.15
  -3   9   8   -0.19    0.13
  -3   9   8    0.17    0.17
   2  -9  -8    0.01    0.16
   2  -9  -8    0.34    0.26
   2  -9  -8    0.03    0.15
  -2   9   8    0.09    0.11
  -2   9   8    0.24    0.20
   1  -9  -8   -0.11    0.25
   1  -9  -8    0.12    0.17
  -1   9   8    0.47    0.21
  -1   9   8    0.15    0.12
   0  -9  -8    0.79    0.31
   0  -9  -8    0.22    0.20
   0   9   8    0.47    0.22
   0   9   8    0.19    0.11
   5 -10  -8    0.09    0.29
  -5  10   8    0.45    0.23
   4 -10  -8   -0.22    0.15
   4 -10  -8    0.34    0.38
  -4  10   8   -0.12    0.21
  -4  10   8    0.06    0.13
   3 -10  -8   -0.05    0.26
   3 -10  -8   -0.14    0.17
  -3  10   8    0.05    0.12
  -3  10   8   -0.06    0.19
   2 -10  -8    0.27    0.26
   2 -10  -8   -0.09    0.17
  -2  10   8    0.02    0.21
   0  10  -9    0.20    0.15
   0  10  -9    0.66    0.25
   0 -10   9    0.46    0.26
   0 -10   9    0.00    0.19
  -1  10  -9    0.69    0.17
  -1  10  -9    0.95    0.25
   1 -10   9    0.81    0.22
   1 -10   9    1.31    0.31
  -2  10  -9    0.85    0.25
  -2  10  -9    0.63    0.17
   2 -10   9    0.62    0.18
   2 -10   9    0.53    0.30
   2 -10   9    0.47    0.15
  -3  10  -9   -0.25    0.16
  -3  10  -9    0.14    0.12
  -3  10  -9    0.46    0.24
   3 -10   9   -0.08    0.13
   3 -10   9   -0.01    0.22
   3 -10   9   -0.09    0.12
  -4  10  -9    0.10    0.19
  -4  10  -9   -0.22    0.29
  -4  10  -9    0.07    0.15
   4 -10   9    0.02    0.12
   4 -10   9   -0.15    0.22
  -5  10  -9    0.07    0.15
  -5  10  -9    0.32    0.25
  -5  10  -9    0.07    0.19
   5 -10   9   -0.08    0.13
   5 -10   9   -0.02    0.22
   2   9  -9    0.39    0.24
  -2  -9   9   -0.14    0.21
  -2  -9   9   -0.11    0.18
   1   9  -9    1.68    0.26
   1   9  -9    2.86    0.43
  -1  -9   9    1.62    0.28
  -1  -9   9    1.78    0.32
   0   9  -9    0.16    0.21
   0   9  -9    0.18    0.12
   0  -9   9   -0.02    0.16
   0  -9   9    0.30    0.22
  -1   9  -9    0.12    0.19
  -1   9  -9    0.01    0.12
   1  -9   9   -0.30    0.12
   1  -9   9    0.10    0.25
  -2   9  -9   -0.14    0.17
  -2   9  -9   -0.22    0.14
  -2   9  -9   -0.04    0.10
   2  -9   9    0.08    0.21
   2  -9   9    0.07    0.12
   2  -9   9   -0.07    0.12
  -3   9  -9    0.45    0.21
  -3   9  -9    0.07    0.12
  -3   9  -9   -0.26    0.15
  -3   9  -9    0.65    0.26
   3  -9   9    0.25    0.21
   3  -9   9    0.25    0.12
   3  -9   9    0.22    0.13
  -4   9  -9   -0.01    0.17
  -4   9  -9   -0.21    0.13
  -4   9  -9    0.05    0.12
  -4   9  -9    0.26    0.22
   4  -9   9   -0.08    0.11
   4  -9   9   -0.10    0.19
  -5   9  -9   -0.20    0.20
  -5   9  -9    0.15    0.20
  -5   9  -9   -0.17    0.11
   5  -9   9   -0.24    0.11
   5  -9   9    0.04    0.19
  -6   9  -9    0.16    0.20
  -6   9  -9    0.06    0.24
  -6   9  -9    0.04    0.14
  -6   9  -9   -0.27    0.14
   6  -9   9    0.12    0.21
   6  -9   9    0.02    0.15
   6  -9   9    0.02    0.21
   3   8  -9    0.08    0.21
  -3  -8   9    0.09    0.19
  -3  -8   9    0.27    0.23
   2   8  -9    0.17    0.19
  -2  -8   9    0.24    0.21
  -2  -8   9   -0.06    0.16
   1   8  -9    0.05    0.18
   1   8  -9    0.13    0.11
  -1  -8   9    0.24    0.17
  -1  -8   9   -0.02    0.17
   0   8  -9    0.01    0.10
   0   8  -9    0.04    0.16
   0  -8   9    0.00    0.19
   0  -8   9   -0.06    0.15
  -1   8  -9   -0.12    0.11
  -1   8  -9   -0.23    0.13
  -1   8  -9   -0.02    0.18
   1  -8   9   -0.10    0.17
   1  -8   9   -0.02    0.12
  -2   8  -9    0.33    0.23
  -2   8  -9   -0.19    0.18
   2  -8   9    0.26    0.13
   2  -8   9    0.11    0.16
   2  -8   9   -0.02    0.10
  -3   8  -9    0.10    0.15
  -3   8  -9   -0.34    0.27
  -3   8  -9   -0.08    0.14
   3  -8   9    0.06    0.10
   3  -8   9   -0.17    0.16
   3  -8   9    0.23    0.11
  -4   8  -9   -0.01    0.16
  -4   8  -9    0.24    0.21
  -4   8  -9   -0.19    0.12
   4  -8   9   -0.06    0.17
   4  -8   9    0.16    0.13
  -5   8  -9    0.17    0.19
  -5   8  -9    0.40    0.19
  -5   8  -9    0.17    0.14
   5  -8   9    0.03    0.12
   5  -8   9    0.12    0.18
   5  -8   9    0.18    0.13
  -6   8  -9    0.05    0.16
  -6   8  -9   -0.03    0.12
  -6   8  -9    0.07    0.22
   6  -8   9   -0.22    0.12
   6  -8   9    0.15    0.17
  -7   8  -9    0.00    0.13
  -7   8  -9    0.51    0.19
  -7   8  -9   -0.33    0.21
   7  -8   9   -0.02    0.17
   7  -8   9    0.04    0.15
   4   7  -9    0.05    0.16
  -4  -7   9   -0.05    0.18
  -4  -7   9    0.26    0.20
   3   7  -9   -0.09    0.16
  -3  -7   9   -0.17    0.19
  -3  -7   9   -0.15    0.16
   2   7  -9    1.79    0.32
  -2  -7   9    1.27    0.30
  -2  -7   9    1.01    0.27
   1   7  -9    0.41    0.13
   1   7  -9    0.44    0.21
  -1  -7   9    0.46    0.19
  -1  -7   9    0.68    0.24
   0   7  -9    2.64    0.37
   0   7  -9    2.38    0.29
   0   7  -9    1.97    0.27
   0   7  -9    2.54    0.39
   0  -7   9    1.84    0.31
   0  -7   9    2.75    0.34
  -1   7  -9    3.37    0.40
  -1   7  -9    3.20    0.41
  -1   7  -9    2.73    0.31
   1  -7   9    3.02    0.39
   1  -7   9    3.81    0.37
  -2   7  -9    1.56    0.23
  -2   7  -9    2.08    0.31
  -2   7  -9    1.92    0.30
  -2   7  -9    2.13    0.29
   2  -7   9    2.57    0.36
   2  -7   9    2.07    0.31
  -3   7  -9    0.59    0.15
  -3   7  -9    0.24    0.13
  -3   7  -9    0.58    0.19
  -3   7  -9    0.52    0.19
   3  -7   9    0.46    0.12
   3  -7   9    0.50    0.14
   3  -7   9    0.38    0.20
  -4   7  -9    0.02    0.17
  -4   7  -9   -0.04    0.10
  -4   7  -9   -0.05    0.12
  -4   7  -9    0.33    0.19
   4  -7   9   -0.02    0.10
   4  -7   9   -0.02    0.16
  -5   7  -9   -0.17    0.13
  -5   7  -9   -0.20    0.16
  -5   7  -9    0.11    0.18
  -5   7  -9    0.11    0.12
   5  -7   9   -0.16    0.10
   5  -7   9    0.12    0.14
   5  -7   9    0.03    0.16
  -6   7  -9    0.17    0.19
  -6   7  -9   -0.12    0.11
  -6   7  -9    0.17    0.17
  -6   7  -9   -0.30    0.17
   6  -7   9    0.14    0.13
   6  -7   9    0.24    0.15
   6  -7   9    0.04    0.15
  -7   7  -9    0.24    0.20
  -7   7  -9    0.13    0.16
  -7   7  -9   -0.17    0.12
   7  -7   9    0.00    0.16
   7  -7   9    0.14    0.19
   5   6  -9   -0.05    0.11
   5   6  -9    0.13    0.13
   5   6  -9    0.42    0.23
  -5  -6   9    0.16    0.22
  -5  -6   9    0.46    0.25
  -5  -6   9    0.09    0.22
  -5  -6   9   -0.45    0.18
   4   6  -9    0.58    0.21
  -4  -6   9    0.73    0.24
  -4  -6   9    0.22    0.14
  -4  -6   9    1.12    0.28
  -4  -6   9    0.74    0.23
   3   6  -9   -0.21    0.13
   3   6  -9   -0.01    0.12
  -3  -6   9   -0.24    0.19
  -3  -6   9   -0.10    0.10
  -3  -6   9   -0.03    0.17
  -3  -6   9    0.18    0.25
   2   6  -9    0.19    0.13
   2   6  -9    0.04    0.16
  -2  -6   9    0.32    0.18
  -2  -6   9    0.03    0.18
  -2  -6   9   -0.02    0.19
   1   6  -9    2.42    0.28
   1   6  -9    2.44    0.37
   1   6  -9    2.56    0.37
   1   6  -9    1.68    0.25
  -1  -6   9    1.94    0.31
  -1  -6   9    2.74    0.35
  -1  -6   9    2.89    0.41
   0   6  -9    6.44    0.47
   0   6  -9    5.63    0.62
   0   6  -9    5.04    0.38
   0   6  -9    5.69    0.47
   0  -6   9    6.45    0.50
   0  -6   9    6.51    0.44
   0  -6   9    5.92    0.46
  -1   6  -9    3.55    0.33
  -1   6  -9    4.08    0.38
  -1   6  -9    3.96    0.36
  -1   6  -9    3.87    0.35
  -1   6  -9    4.38    0.40
   1  -6   9    4.16    0.40
   1  -6   9    4.12    0.39
   1  -6   9    3.58    0.36
   1  -6   9    3.53    0.34
  -2   6  -9    1.49    0.20
  -2   6  -9    1.28    0.20
  -2   6  -9    2.34    0.32
  -2   6  -9    1.43    0.22
  -2   6  -9    2.34    0.32
   2  -6   9    1.79    0.24
   2  -6   9    1.19    0.18
   2  -6   9    1.51    0.26
  -3   6  -9   -0.09    0.11
  -3   6  -9    0.04    0.10
  -3   6  -9   -0.03    0.17
  -3   6  -9   -0.18    0.14
   3  -6   9    0.11    0.11
   3  -6   9    0.01    0.07
   3  -6   9   -0.04    0.13
  -4   6  -9    1.85    0.28
  -4   6  -9    1.41    0.25
  -4   6  -9    1.18    0.19
  -4   6  -9    1.37    0.19
   4  -6   9    1.10    0.20
   4  -6   9    1.54    0.31
   4  -6   9    1.44    0.22
  -5   6  -9    2.71    0.35
  -5   6  -9    2.43    0.33
  -5   6  -9    2.74    0.30
  -5   6  -9    1.78    0.22
   5  -6   9    2.84    0.28
   5  -6   9    2.19    0.50
   5  -6   9    2.97    0.32
   5  -6   9    2.66    0.35
  -6   6  -9   -0.09    0.10
  -6   6  -9    0.06    0.17
  -6   6  -9   -0.35    0.14
   6  -6   9    0.15    0.13
   6  -6   9    0.05    0.14
   6  -6   9   -0.10    0.12
   6  -6   9   -0.32    0.16
  -7   6  -9   -0.16    0.10
  -7   6  -9   -0.02    0.18
  -7   6  -9    0.10    0.14
   7  -6   9    0.14    0.13
   7  -6   9   -0.30    0.20
   7  -6   9   -0.08    0.14
   7  -6   9    0.24    0.14
   6   5  -9    0.31    0.22
   6   5  -9    0.16    0.15
   6   5  -9    0.18    0.20
   6   5  -9   -0.12    0.16
  -6  -5   9    0.08    0.21
  -6  -5   9    0.22    0.23
  -6  -5   9    0.29    0.23
   5   5  -9   -0.03    0.12
   5   5  -9    0.04    0.16
   5   5  -9   -0.43    0.24
   5   5  -9   -0.07    0.11
  -5  -5   9    0.00    0.18
  -5  -5   9    0.55    0.22
  -5  -5   9   -0.12    0.17
  -5  -5   9    0.12    0.20
   4   5  -9    0.00    0.11
   4   5  -9   -0.03    0.17
   4   5  -9   -0.16    0.09
  -4  -5   9   -0.01    0.18
  -4  -5   9    0.09    0.16
  -4  -5   9   -0.02    0.12
  -4  -5   9   -0.03    0.18
   3   5  -9    0.93    0.24
   3   5  -9    0.54    0.14
  -3  -5   9    1.05    0.28
  -3  -5   9    1.44    0.30
  -3  -5   9    0.70    0.19
  -3  -5   9    0.67    0.14
   2   5  -9    0.53    0.14
   2   5  -9    1.05    0.24
   2   5  -9    0.79    0.18
   2   5  -9    0.55    0.32
  -2  -5   9    0.60    0.15
  -2  -5   9    0.81    0.26
  -2  -5   9    0.93    0.13
  -2  -5   9    0.56    0.20
  -2  -5   9    0.90    0.19
   1   5  -9   39.43    1.44
   1   5  -9   37.67    1.21
   1   5  -9   35.07    1.08
   1   5  -9   31.88    1.46
  -1  -5   9   36.50    0.95
  -1  -5   9   36.56    1.22
  -1  -5   9   38.01    1.15
  -1  -5   9   35.43    1.19
   0   5  -9   20.13    0.76
   0   5  -9   18.69    0.73
   0   5  -9   20.90    0.80
   0   5  -9   19.06    0.72
   0   5  -9   21.00    0.82
   0  -5   9   19.97    0.82
   0  -5   9   21.30    0.77
   0  -5   9   20.42    0.95
   0  -5   9   19.33    0.79
  -1   5  -9    1.23    0.18
  -1   5  -9    1.21    0.18
  -1   5  -9    2.05    0.28
  -1   5  -9    1.83    0.27
  -1   5  -9    1.14    0.21
   1  -5   9    1.09    0.17
   1  -5   9    1.37    0.22
  -2   5  -9    3.03    0.33
  -2   5  -9    3.35    0.34
  -2   5  -9    2.61    0.31
  -2   5  -9    3.43    0.29
   2  -5   9    2.98    0.28
   2  -5   9    3.34    0.35
   2  -5   9    3.04    0.32
  -3   5  -9    0.10    0.12
  -3   5  -9    0.35    0.16
  -3   5  -9    0.42    0.13
  -3   5  -9    0.72    0.19
   3  -5   9    0.22    0.16
   3  -5   9    0.38    0.16
   3  -5   9    0.25    0.14
   3  -5   9    0.41    0.10
  -4   5  -9    0.15    0.12
  -4   5  -9    0.05    0.12
  -4   5  -9    0.04    0.09
  -4   5  -9    0.34    0.17
  -4   5  -9    0.22    0.16
  -4   5  -9    0.29    0.12
   4  -5   9    0.13    0.11
   4  -5   9    0.31    0.16
   4  -5   9    0.12    0.11
   4  -5   9    0.06    0.11
   4  -5   9    0.10    0.16
  -5   5  -9    0.64    0.15
  -5   5  -9    1.04    0.23
  -5   5  -9    0.56    0.14
  -5   5  -9    0.76    0.18
  -5   5  -9    0.83    0.24
  -5   5  -9    0.27    0.15
   5  -5   9    0.82    0.19
   5  -5   9    0.77    0.18
   5  -5   9    0.78    0.21
   5  -5   9    0.52    0.14
  -6   5  -9    0.90    0.18
  -6   5  -9    0.97    0.21
  -6   5  -9    0.47    0.17
  -6   5  -9    0.59    0.15
  -6   5  -9    0.54    0.18
   6  -5   9    0.64    0.18
   6  -5   9    0.71    0.15
   6  -5   9    0.66    0.20
   6  -5   9    0.93    0.21
  -7   5  -9   -0.03    0.17
  -7   5  -9   -0.17    0.15
  -7   5  -9    0.22    0.16
  -7   5  -9   -0.11    0.10
   7  -5   9    0.06    0.14
   7  -5   9   -0.41    0.17
   7  -5   9   -0.20    0.12
   6   4  -9    0.11    0.13
   6   4  -9   -0.04    0.12
   6   4  -9   -0.12    0.19
   6   4  -9   -0.04    0.15
  -6  -4   9    0.12    0.19
  -6  -4   9   -0.04    0.17
  -6  -4   9    0.50    0.21
   5   4  -9    0.20    0.12
   5   4  -9    0.15    0.14
   5   4  -9    0.27    0.19
   5   4  -9    0.25    0.14
  -5  -4   9    0.09    0.20
  -5  -4   9    0.15    0.17
  -5  -4   9    0.20    0.16
  -5  -4   9   -0.20    0.17
   4   4  -9    0.97    0.18
   4   4  -9    1.13    0.25
   4   4  -9    0.74    0.15
  -4  -4   9    1.31    0.28
  -4  -4   9    1.25    0.27
  -4  -4   9    0.79    0.21
  -4  -4   9    1.29    0.20
   3   4  -9   32.79    1.07
   3   4  -9   29.47    0.92
  -3  -4   9   31.15    1.08
  -3  -4   9   31.67    1.07
  -3  -4   9   31.42    0.93
  -3  -4   9   31.13    1.09
  -3  -4   9   29.91    0.98
   2   4  -9    0.79    0.14
   2   4  -9    1.50    0.25
   2   4  -9    0.87    0.28
   2   4  -9    1.51    0.36
  -2  -4   9    0.89    0.24
  -2  -4   9    1.02    0.23
  -2  -4   9    0.82    0.18
  -2  -4   9    1.01    0.22
   1   4  -9    3.29    0.33
   1   4  -9    3.02    0.32
   1   4  -9    3.27    0.34
   1   4  -9    2.77    0.28
  -1  -4   9    3.25    0.35
  -1  -4   9    3.07    0.35
  -1  -4   9    2.46    0.28
  -1  -4   9    3.00    0.33
   0   4  -9    1.58    0.24
   0   4  -9    1.47    0.21
   0   4  -9    2.09    0.29
   0   4  -9    1.00    0.16
   0  -4   9    1.33    0.21
   0  -4   9    1.10    0.17
   0  -4   9    1.85    0.27
   0  -4   9    1.96    0.29
  -1   4  -9    4.68    0.37
  -1   4  -9    4.57    0.36
  -1   4  -9    4.38    0.31
  -1   4  -9    3.32    0.32
   1  -4   9    4.07    0.29
   1  -4   9    4.54    0.38
   1  -4   9    4.44    0.36
   1  -4   9    3.88    0.34
  -2   4  -9    0.03    0.09
  -2   4  -9    0.04    0.11
  -2   4  -9    0.19    0.15
   2  -4   9   -0.02    0.07
   2  -4   9   -0.03    0.14
   2  -4   9   -0.02    0.12
   2  -4   9   -0.03    0.12
  -3   4  -9    2.13    0.28
  -3   4  -9    2.47    0.30
  -3   4  -9    2.16    0.21
  -3   4  -9    2.54    0.31
  -3   4  -9    2.71    0.25
   3  -4   9    2.46    0.21
   3  -4   9    2.51    0.31
   3  -4   9    2.15    0.24
   3  -4   9    2.32    0.34
  -4   4  -9    0.27    0.14
  -4   4  -9    0.21    0.17
  -4   4  -9    0.55    0.20
  -4   4  -9    0.31    0.11
  -4   4  -9    0.31    0.13
  -4   4  -9    0.29    0.11
   4  -4   9    0.34    0.16
   4  -4   9    0.37    0.11
   4  -4   9    0.12    0.10
   4  -4   9    0.13    0.15
   4  -4   9    0.05    0.13
  -5   4  -9    0.99    0.22
  -5   4  -9    0.77    0.14
  -5   4  -9    0.69    0.20
  -5   4  -9    1.16    0.21
  -5   4  -9    1.24    0.23
  -5   4  -9    0.83    0.15
   5  -4   9    1.03    0.21
   5  -4   9    0.80    0.16
   5  -4   9    1.03    0.19
   5  -4   9    0.76    0.16
   5  -4   9    0.91    0.19
  -6   4  -9   -0.04    0.15
  -6   4  -9   -0.04    0.09
  -6   4  -9   -0.11    0.11
  -6   4  -9   -0.15    0.15
  -6   4  -9   -0.20    0.14
   6  -4   9    0.13    0.14
   6  -4   9   -0.02    0.10
   6  -4   9   -0.19    0.14
   6  -4   9   -0.09    0.10
  -7   4  -9    0.08    0.23
  -7   4  -9   -0.25    0.16
  -7   4  -9    0.11    0.16
  -7   4  -9    0.04    0.15
   7  -4   9    0.02    0.11
   7  -4   9    0.05    0.14
  -8   4  -9   -0.01    0.15
   8  -4   9    0.06    0.14
   7   3  -9   -0.01    0.13
   7   3  -9    0.10    0.20
   7   3  -9   -0.10    0.11
  -7  -3   9   -0.24    0.13
  -7  -3   9   -0.01    0.19
  -7  -3   9   -0.40    0.18
   6   3  -9    0.30    0.20
   6   3  -9    0.30    0.12
   6   3  -9    0.40    0.16
   6   3  -9    0.24    0.20
  -6  -3   9    0.62    0.20
  -6  -3   9    0.32    0.20
  -6  -3   9    0.85    0.23
   5   3  -9    1.03    0.19
   5   3  -9    2.20    0.31
   5   3  -9    1.55    0.23
  -5  -3   9    1.31    0.28
  -5  -3   9    1.96    0.30
  -5  -3   9    1.45    0.26
  -5  -3   9    1.56    0.28
   4   3  -9    0.19    0.19
   4   3  -9    0.01    0.08
   4   3  -9    0.30    0.18
   4   3  -9   -0.05    0.11
  -4  -3   9    0.15    0.14
  -4  -3   9    0.17    0.10
  -4  -3   9    0.07    0.16
  -4  -3   9    0.09    0.16
  -4  -3   9    0.06    0.12
   3   3  -9    1.13    0.22
   3   3  -9    1.07    0.16
   3   3  -9    0.76    0.13
  -3  -3   9    0.69    0.17
  -3  -3   9    0.84    0.19
  -3  -3   9    0.99    0.15
  -3  -3   9    1.30    0.24
  -3  -3   9    0.96    0.22
   2   3  -9    0.79    0.15
   2   3  -9    0.61    0.12
   2   3  -9    0.78    0.21
   2   3  -9    0.98    0.21
  -2  -3   9    0.87    0.20
  -2  -3   9    0.62    0.18
  -2  -3   9    0.48    0.13
  -2  -3   9    0.80    0.19
   1   3  -9    0.45    0.11
   1   3  -9    0.73    0.18
   1   3  -9    0.64    0.16
   1   3  -9    0.78    0.18
  -1  -3   9    0.63    0.17
  -1  -3   9    0.84    0.22
  -1  -3   9    0.52    0.12
  -1  -3   9    0.53    0.15
   0   3  -9    0.53    0.15
   0   3  -9    0.45    0.16
   0   3  -9    0.74    0.20
   0  -3   9    0.46    0.17
   0  -3   9    0.42    0.11
   0  -3   9    0.26    0.13
   0  -3   9    0.46    0.13
  -1   3  -9    8.64    0.42
  -1   3  -9    9.38    0.49
  -1   3  -9    8.49    0.46
   1  -3   9    8.69    0.39
   1  -3   9    9.74    0.47
   1  -3   9    8.48    0.46
   1  -3   9    8.45    0.47
  -2   3  -9    0.66    0.19
  -2   3  -9    0.48    0.10
  -2   3  -9    0.44    0.11
  -2   3  -9    0.50    0.18
  -2   3  -9    0.49    0.15
   2  -3   9    0.56    0.18
   2  -3   9    0.47    0.11
   2  -3   9    0.46    0.15
  -3   3  -9    0.08    0.08
  -3   3  -9    0.01    0.08
  -3   3  -9    0.01    0.10
  -3   3  -9   -0.02    0.15
  -3   3  -9   -0.08    0.08
  -3   3  -9   -0.04    0.14
   3  -3   9    0.03    0.08
   3  -3   9    0.01    0.13
   3  -3   9   -0.12    0.12
  -4   3  -9    2.90    0.33
  -4   3  -9    3.21    0.26
  -4   3  -9    3.11    0.29
  -4   3  -9    2.70    0.32
  -4   3  -9    2.85    0.24
  -4   3  -9    2.58    0.31
   4  -3   9    2.37    0.35
   4  -3   9    2.60    0.27
   4  -3   9    2.59    0.24
   4  -3   9    3.02    0.30
   4  -3   9    2.39    0.30
  -5   3  -9   -0.03    0.10
  -5   3  -9    0.18    0.15
  -5   3  -9    0.11    0.14
  -5   3  -9   -0.09    0.10
  -5   3  -9   -0.15    0.13
  -5   3  -9    0.12    0.17
   5  -3   9   -0.10    0.11
   5  -3   9    0.01    0.09
   5  -3   9    0.16    0.13
   5  -3   9   -0.06    0.12
   5  -3   9   -0.14    0.09
  -6   3  -9    0.00    0.15
  -6   3  -9    0.08    0.15
  -6   3  -9    0.11    0.17
  -6   3  -9   -0.06    0.12
   6  -3   9   -0.12    0.19
   6  -3   9    0.33    0.19
   6  -3   9    0.24    0.13
   6  -3   9   -0.08    0.12
  -7   3  -9   -0.16    0.16
  -7   3  -9   -0.08    0.15
  -7   3  -9    0.25    0.24
  -7   3  -9   -0.22    0.14
   7  -3   9    0.16    0.14
   7  -3   9    0.07    0.15
   7   2  -9   -0.10    0.13
   7   2  -9    0.08    0.14
   7   2  -9    0.02    0.16
  -7  -2   9   -0.02    0.13
  -7  -2   9    0.10    0.17
  -7  -2   9    0.18    0.19
   6   2  -9    0.45    0.16
   6   2  -9    0.60    0.20
   6   2  -9    0.53    0.17
  -6  -2   9    0.31    0.32
  -6  -2   9    0.47    0.19
  -6  -2   9    0.29    0.18
   5   2  -9    2.14    0.29
   5   2  -9    1.40    0.22
  -5  -2   9    1.65    0.26
  -5  -2   9    2.35    0.32
  -5  -2   9    1.66    0.27
  -5  -2   9    1.72    0.29
   4   2  -9    0.40    0.17
   4   2  -9    0.20    0.13
   4   2  -9    0.42    0.12
   4   2  -9    0.29    0.26
  -4  -2   9    0.35    0.15
  -4  -2   9    0.54    0.18
  -4  -2   9    0.41    0.13
  -4  -2   9    0.11    0.11
  -4  -2   9    0.38    0.16
   3   2  -9    5.68    0.29
   3   2  -9    5.72    0.39
   3   2  -9    6.13    0.33
   3   2  -9    5.73    0.41
   3   2  -9    5.76    0.39
  -3  -2   9    6.35    0.43
  -3  -2   9    5.73    0.41
  -3  -2   9    5.79    0.40
  -3  -2   9    5.36    0.35
   2   2  -9    5.58    0.37
   2   2  -9    5.51    0.28
   2   2  -9    5.84    0.41
   2   2  -9    5.56    0.30
   2   2  -9    5.80    0.38
  -2  -2   9    5.29    0.32
  -2  -2   9    6.13    0.40
  -2  -2   9    5.76    0.39
  -2  -2   9    5.52    0.39
   1   2  -9   -0.04    0.08
   1   2  -9    0.09    0.13
   1   2  -9    0.14    0.12
  -1  -2   9   -0.02    0.11
  -1  -2   9   -0.02    0.10
  -1  -2   9    0.16    0.08
  -1  -2   9    0.01    0.10
   0   2  -9    0.10    0.10
   0   2  -9    0.14    0.14
   0   2  -9    0.02    0.13
   0  -2   9   -0.01    0.07
   0  -2   9    0.21    0.13
   0  -2   9    0.05    0.14
   0  -2   9    0.05    0.11
  -1   2  -9    6.98    0.28
  -1   2  -9    6.91    0.41
  -1   2  -9    7.11    0.42
  -1   2  -9    6.66    0.38
   1  -2   9    6.55    0.40
   1  -2   9    7.11    0.42
   1  -2   9    7.67    0.41
   1  -2   9    6.95    0.33
  -2   2  -9    0.25    0.11
  -2   2  -9    0.37    0.10
  -2   2  -9    0.33    0.17
  -2   2  -9    0.39    0.15
   2  -2   9    0.35    0.09
   2  -2   9    0.24    0.26
   2  -2   9    0.32    0.15
  -3   2  -9    0.87    0.18
  -3   2  -9    0.72    0.20
  -3   2  -9    0.91    0.21
  -3   2  -9    1.12    0.16
   3  -2   9    1.31    0.18
   3  -2   9    0.75    0.16
   3  -2   9    0.89    0.19
   3  -2   9    0.67    0.20
  -4   2  -9    0.09    0.13
  -4   2  -9    0.25    0.15
  -4   2  -9    0.16    0.08
  -4   2  -9    0.31    0.17
   4  -2   9    0.11    0.09
   4  -2   9    0.15    0.19
   4  -2   9    0.22    0.11
   4  -2   9    0.37    0.16
   4  -2   9    0.14    0.11
  -5   2  -9    0.16    0.14
  -5   2  -9   -0.10    0.15
  -5   2  -9    0.00    0.14
  -5   2  -9    0.09    0.13
  -5   2  -9   -0.13    0.11
   5  -2   9    0.06    0.11
   5  -2   9    0.08    0.11
   5  -2   9    0.10    0.14
   5  -2   9   -0.09    0.09
  -6   2  -9    0.43    0.19
  -6   2  -9    0.39    0.20
  -6   2  -9    0.80    0.20
   6  -2   9    0.54    0.17
   6  -2   9    0.50    0.19
   6  -2   9    0.51    0.17
  -7   2  -9    0.20    0.17
  -7   2  -9    0.43    0.18
  -7   2  -9    0.23    0.16
   7  -2   9   -0.02    0.12
   7  -2   9   -0.13    0.12
   8   1  -9   -0.01    0.14
   8   1  -9   -0.03    0.13
  -8  -1   9   -0.08    0.16
   7   1  -9    0.01    0.14
   7   1  -9    0.50    0.18
   7   1  -9    0.19    0.16
  -7  -1   9   -0.04    0.14
  -7  -1   9    0.03    0.18
  -7  -1   9   -0.02    0.16
   6   1  -9    0.15    0.14
   6   1  -9    0.00    0.13
   6   1  -9   -0.27    0.10
  -6  -1   9   -0.05    0.17
  -6  -1   9   -0.15    0.14
  -6  -1   9    0.13    0.15
   5   1  -9    2.09    0.30
   5   1  -9    2.29    0.31
   5   1  -9    1.57    0.22
   5   1  -9    1.76    0.26
  -5  -1   9    1.99    0.29
  -5  -1   9    1.71    0.26
  -5  -1   9    2.10    0.29
  -5  -1   9    1.58    0.24
   4   1  -9    0.42    0.12
   4   1  -9    0.17    0.15
   4   1  -9    0.42    0.19
   4   1  -9    0.35    0.14
  -4  -1   9    0.26    0.15
  -4  -1   9    0.46    0.15
  -4  -1   9    0.44    0.19
  -4  -1   9    0.30    0.16
   3   1  -9    0.75    0.13
   3   1  -9    0.93    0.24
   3   1  -9    1.03    0.21
   3   1  -9    0.54    0.13
   3   1  -9    0.56    0.09
  -3  -1   9    0.61    0.18
  -3  -1   9    0.63    0.16
  -3  -1   9    0.54    0.14
  -3  -1   9    0.73    0.19
   2   1  -9    5.24    0.35
   2   1  -9    6.35    0.40
   2   1  -9    5.58    0.37
   2   1  -9    5.80    0.27
  -2  -1   9    5.31    0.32
  -2  -1   9    5.38    0.37
  -2  -1   9    5.10    0.37
  -2  -1   9    6.02    0.39
   1   1  -9    0.94    0.18
   1   1  -9    0.53    0.13
   1   1  -9    0.67    0.17
  -1  -1   9    0.80    0.14
  -1  -1   9    0.78    0.15
  -1  -1   9    0.89    0.19
  -1  -1   9    0.77    0.18
   0   1  -9   11.10    0.51
   0   1  -9   11.48    0.53
   0   1  -9   10.18    0.47
   0  -1   9   11.63    0.51
   0  -1   9   11.72    0.54
   0  -1   9   11.16    0.43
   0  -1   9   11.00    0.52
  -1   1  -9    0.10    0.13
  -1   1  -9   -0.04    0.12
  -1   1  -9    0.09    0.10
   1  -1   9   -0.05    0.10
   1  -1   9   -0.01    0.07
   1  -1   9    0.23    0.13
  -2   1  -9   12.28    0.57
  -2   1  -9   12.22    0.45
  -2   1  -9   12.09    0.56
  -2   1  -9   12.48    0.53
   2  -1   9   12.14    0.66
   2  -1   9   11.41    0.54
   2  -1   9   11.72    0.49
  -3   1  -9   14.42    0.62
  -3   1  -9   14.91    0.64
  -3   1  -9   16.08    0.71
  -3   1  -9   16.25    0.67
  -3   1  -9   15.10    0.58
   3  -1   9   14.16    0.61
   3  -1   9   14.93    0.49
   3  -1   9   15.77    0.64
   3  -1   9   15.21    0.61
  -4   1  -9    5.72    0.42
  -4   1  -9    5.92    0.47
  -4   1  -9    6.09    0.50
  -4   1  -9    4.75    0.37
  -4   1  -9    5.79    0.40
   4  -1   9    6.09    0.39
   4  -1   9    6.16    0.40
   4  -1   9    5.37    0.38
  -5   1  -9    0.04    0.16
  -5   1  -9    0.04    0.13
  -5   1  -9   -0.13    0.19
  -5   1  -9    0.03    0.14
   5  -1   9    0.31    0.13
   5  -1   9    0.08    0.13
   5  -1   9    0.25    0.15
   5  -1   9   -0.02    0.11
  -6   1  -9   -0.15    0.17
  -6   1  -9    0.16    0.14
  -6   1  -9    0.13    0.16
   6  -1   9    0.03    0.11
   6  -1   9   -0.02    0.11
  -7   1  -9   -0.03    0.14
  -7   1  -9    0.23    0.16
  -7   1  -9    0.11    0.18
   7  -1   9   -0.10    0.13
   7  -1   9   -0.13    0.11
   7  -1   9    0.02    0.11
   8   0  -9    0.31    0.17
   8   0  -9    0.62    0.19
   8   0  -9    0.25    0.18
  -8   0   9    0.19    0.19
  -8   0   9    0.51    0.18
  -8   0   9    0.54    0.20
   7   0  -9    0.75    0.18
   7   0  -9    0.99    0.23
   7   0  -9    1.10    0.20
  -7   0   9    0.72    0.21
  -7   0   9    0.60    0.20
  -7   0   9    0.86    0.19
   6   0  -9    0.09    0.15
   6   0  -9    0.08    0.12
   6   0  -9   -0.13    0.15
   6   0  -9    0.16    0.12
  -6   0   9   -0.03    0.12
  -6   0   9    0.17    0.16
  -6   0   9    0.39    0.16
   5   0  -9    1.15    0.35
   5   0  -9    1.56    0.25
   5   0  -9    1.54    0.21
   5   0  -9    1.96    0.28
  -5   0   9    1.83    0.28
  -5   0   9    1.31    0.21
  -5   0   9    2.25    0.47
   4   0  -9    3.34    0.32
   4   0  -9    3.23    0.30
   4   0  -9    3.06    0.27
   4   0  -9    3.33    0.32
  -4   0   9    3.20    0.32
  -4   0   9    3.09    0.32
  -4   0   9    3.73    0.36
   3   0  -9    3.92    0.25
   3   0  -9    4.22    0.52
   3   0  -9    3.51    0.31
   3   0  -9    4.15    0.32
  -3   0   9    4.31    0.35
  -3   0   9    3.86    0.34
  -3   0   9    3.76    0.32
   2   0  -9    2.16    0.27
   2   0  -9    2.41    0.28
   2   0  -9    2.17    0.27
  -2   0   9    2.47    0.28
  -2   0   9    2.35    0.27
  -2   0   9    2.04    0.29
   1   0  -9    0.31    0.15
   1   0  -9    0.14    0.10
   1   0  -9    0.06    0.13
  -1   0   9    0.08    0.12
  -1   0   9    0.23    0.14
  -1   0   9    0.23    0.14
  -1   0   9    0.09    0.08
   0   0  -9    0.73    0.14
   0   0  -9    0.96    0.20
   0   0  -9    0.73    0.17
   0   0  -9    1.06    0.19
   0   0   9    1.04    0.21
   0   0   9    0.97    0.19
   0   0   9    0.66    0.11
  -1   0  -9    7.04    0.43
  -1   0  -9    7.86    0.44
  -1   0  -9    7.46    0.44
   1   0   9    6.97    0.41
   1   0   9    7.55    0.44
  -2   0  -9   30.10    1.02
  -2   0  -9   31.35    1.02
  -2   0  -9   29.22    0.95
  -2   0  -9   30.13    1.00
   2   0   9   27.90    0.96
   2   0   9   31.46    1.15
   2   0   9   30.29    0.82
   2   0   9   31.42    0.92
  -3   0  -9    0.37    0.15
  -3   0  -9    0.57    0.20
  -3   0  -9    0.70    0.19
  -3   0  -9    0.38    0.21
   3   0   9    0.37    0.13
   3   0   9    0.53    0.17
   3   0   9    0.24    0.17
  -4   0  -9    0.81    0.18
  -4   0  -9    1.36    0.25
  -4   0  -9    1.20    0.19
  -4   0  -9    0.70    0.22
  -4   0  -9    1.56    0.25
   4   0   9    1.27    0.22
   4   0   9    1.38    0.23
   4   0   9    1.23    0.20
  -5   0  -9    0.28    0.27
  -5   0  -9   -0.16    0.28
  -5   0  -9    0.05    0.16
   5   0   9   -0.01    0.10
   5   0   9    0.01    0.10
  -6   0  -9   -0.04    0.14
  -6   0  -9   -0.02    0.18
  -6   0  -9   -0.12    0.13
   6   0   9   -0.19    0.08
   6   0   9   -0.08    0.12
   6   0   9    0.06    0.13
  -7   0  -9   -0.09    0.16
  -7   0  -9   -0.40    0.18
  -7   0  -9   -0.21    0.14
   7   0   9    0.09    0.15
   7   0   9    0.03    0.14
   7   0   9    0.03    0.13
   8  -1  -9    0.14    0.17
   8  -1  -9    0.43    0.16
  -8   1   9    0.35    0.16
  -8   1   9    0.39    0.17
  -8   1   9    0.07    0.16
   7  -1  -9   -0.05    0.12
   7  -1  -9   -0.06    0.15
   7  -1  -9    0.22    0.15
  -7   1   9   -0.03    0.14
  -7   1   9    0.00    0.13
  -7   1   9    0.08    0.14
   6  -1  -9    0.09    0.10
   6  -1  -9    0.03    0.13
   6  -1  -9   -0.19    0.08
   6  -1  -9   -0.12    0.15
   6  -1  -9   -0.18    0.14
   6  -1  -9    0.06    0.14
  -6   1   9   -0.09    0.13
  -6   1   9    0.10    0.13
  -6   1   9   -0.28    0.18
  -6   1   9    0.20    0.14
   5  -1  -9    7.61    0.35
   5  -1  -9    8.70    0.47
   5  -1  -9    8.49    0.55
   5  -1  -9    7.85    0.47
   5  -1  -9    7.87    0.42
  -5   1   9    7.25    0.45
  -5   1   9    8.13    0.48
  -5   1   9    7.81    0.46
   4  -1  -9    3.67    0.24
   4  -1  -9    3.69    0.33
   4  -1  -9    3.77    0.32
   4  -1  -9    3.86    0.34
   4  -1  -9    3.82    0.34
  -4   1   9    3.89    0.34
  -4   1   9    3.92    0.35
  -4   1   9    3.81    0.35
   3  -1  -9    2.25    0.27
   3  -1  -9    2.19    0.18
   3  -1  -9    1.92    0.26
  -3   1   9    1.91    0.29
  -3   1   9    2.34    0.27
  -3   1   9    2.21    0.28
   2  -1  -9    1.23    0.17
   2  -1  -9    1.18    0.21
   2  -1  -9    1.31    0.23
   2  -1  -9    0.89    0.15
  -2   1   9    1.23    0.20
  -2   1   9    1.05    0.19
  -2   1   9    1.30    0.21
   1  -1  -9    0.20    0.09
   1  -1  -9    0.19    0.15
   1  -1  -9    0.18    0.10
   1  -1  -9    0.48    0.17
  -1   1   9    0.29    0.15
  -1   1   9    0.42    0.16
   0  -1  -9    0.43    0.16
   0  -1  -9    0.43    0.15
   0  -1  -9    0.43    0.12
   0  -1  -9    0.08    0.10
   0   1   9    0.45    0.16
   0   1   9    0.47    0.17
   0   1   9    0.38    0.09
  -1  -1  -9   10.65    0.54
  -1  -1  -9   10.96    0.54
  -1  -1  -9   11.58    0.53
  -1  -1  -9   10.37    0.49
   1   1   9   10.94    0.40
   1   1   9   11.15    0.55
   1   1   9   11.43    0.43
   1   1   9   10.16    0.51
  -2  -1  -9   33.06    1.08
  -2  -1  -9   30.86    1.02
  -2  -1  -9   34.64    1.10
  -2  -1  -9   34.33    1.10
   2   1   9   31.67    0.85
   2   1   9   35.90    1.10
   2   1   9   33.36    1.07
   2   1   9   31.21    1.04
  -3  -1  -9    4.47    0.40
  -3  -1  -9    4.05    0.38
  -3  -1  -9    4.25    0.38
   3   1   9    3.99    0.41
   3   1   9    4.48    0.32
   3   1   9    3.64    0.34
  -4  -1  -9    5.52    0.41
  -4  -1  -9    4.34    0.40
  -4  -1  -9    5.20    0.45
   4   1   9    4.55    0.35
  -5  -1  -9    0.09    0.15
  -5  -1  -9    0.23    0.20
  -5  -1  -9    0.01    0.18
   5   1   9    0.10    0.11
   5   1   9    0.00    0.12
   5   1   9    0.28    0.14
  -6  -1  -9    0.37    0.17
  -6  -1  -9    0.12    0.16
   6   1   9   -0.02    0.12
   6   1   9    0.22    0.15
   6   1   9   -0.09    0.19
   8  -2  -9    0.18    0.15
  -8   2   9   -0.14    0.13
  -8   2   9   -0.15    0.14
   7  -2  -9    0.25    0.13
   7  -2  -9    0.03    0.16
   7  -2  -9    0.28    0.15
   7  -2  -9    0.03    0.18
  -7   2   9    0.03    0.14
  -7   2   9    0.07    0.14
  -7   2   9    0.08    0.15
  -7   2   9    0.09    0.14
   6  -2  -9    0.60    0.17
   6  -2  -9    0.46    0.17
   6  -2  -9    0.73    0.18
   6  -2  -9    0.48    0.13
   6  -2  -9    0.38    0.16
  -6   2   9    1.05    0.21
  -6   2   9    0.58    0.17
  -6   2   9    0.65    0.17
  -6   2   9    0.65    0.19
   5  -2  -9    0.18    0.15
   5  -2  -9    0.05    0.11
   5  -2  -9   -0.02    0.14
   5  -2  -9   -0.09    0.09
  -5   2   9   -0.08    0.11
  -5   2   9    0.18    0.26
  -5   2   9    0.14    0.13
   4  -2  -9    7.69    0.35
   4  -2  -9    6.99    0.42
   4  -2  -9    7.03    0.42
   4  -2  -9    8.22    0.45
  -4   2   9    7.21    0.44
  -4   2   9    7.45    0.34
  -4   2   9    7.44    0.43
  -4   2   9    7.81    0.45
   3  -2  -9    0.16    0.11
   3  -2  -9    0.30    0.17
   3  -2  -9    0.25    0.13
  -3   2   9    0.05    0.13
  -3   2   9    0.17    0.13
  -3   2   9    0.08    0.14
  -3   2   9    0.19    0.08
   2  -2  -9    1.17    0.22
   2  -2  -9    1.27    0.17
   2  -2  -9    1.71    0.26
   2  -2  -9    1.01    0.16
  -2   2   9    1.18    0.21
  -2   2   9    1.04    0.19
  -2   2   9    1.61    0.25
   1  -2  -9    1.16    0.22
   1  -2  -9    1.37    0.25
   1  -2  -9    0.95    0.15
   1  -2  -9    1.15    0.15
  -1   2   9    1.13    0.23
  -1   2   9    1.40    0.26
   0  -2  -9    1.27    0.22
   0  -2  -9    0.94    0.15
   0  -2  -9    1.37    0.24
   0  -2  -9    0.87    0.16
   0   2   9    1.28    0.21
   0   2   9    1.30    0.15
   0   2   9    1.24    0.23
  -1  -2  -9   34.66    1.11
  -1  -2  -9   35.97    1.11
  -1  -2  -9   35.10    1.09
  -1  -2  -9   32.49    1.04
   1   2   9   32.22    0.91
   1   2   9   32.91    1.08
   1   2   9   34.21    0.94
   1   2   9   36.80    1.14
  -2  -2  -9    0.08    0.13
  -2  -2  -9   -0.13    0.13
  -2  -2  -9    0.27    0.18
  -2  -2  -9    0.16    0.17
   2   2   9    0.02    0.09
   2   2   9    0.16    0.15
  -3  -2  -9    7.53    0.50
  -3  -2  -9    6.00    0.45
  -3  -2  -9    6.53    0.47
   3   2   9    6.29    0.36
  -4  -2  -9    0.14    0.17
  -4  -2  -9   -0.03    0.13
  -4  -2  -9   -0.07    0.18
   4   2   9    0.05    0.13
   4   2   9    0.11    0.12
  -5  -2  -9    0.12    0.20
  -5  -2  -9   -0.14    0.13
  -5  -2  -9   -0.05    0.15
  -5  -2  -9    0.32    0.19
   5   2   9    0.11    0.15
   5   2   9   -0.08    0.13
   5   2   9    0.11    0.10
  -6  -2  -9    0.21    0.16
  -6  -2  -9   -0.30    0.22
  -6  -2  -9    0.13    0.18
   6   2   9   -0.04    0.14
   6   2   9    0.06    0.14
   6   2   9   -0.15    0.12
   8  -3  -9    0.16    0.15
   8  -3  -9   -0.22    0.28
   8  -3  -9    0.29    0.15
  -8   3   9    0.19    0.16
  -8   3   9    0.13    0.16
  -8   3   9    0.13    0.23
   7  -3  -9    1.26    0.23
   7  -3  -9    1.54    0.22
   7  -3  -9    2.34    0.31
   7  -3  -9    1.05    0.41
  -7   3   9    1.96    0.30
  -7   3   9    1.60    0.23
  -7   3   9    1.47    0.25
  -7   3   9    1.40    0.24
   6  -3  -9    0.97    0.18
   6  -3  -9    0.77    0.19
   6  -3  -9    0.71    0.20
   6  -3  -9    0.79    0.20
   6  -3  -9    0.99    0.20
  -6   3   9    0.95    0.22
  -6   3   9    0.64    0.16
  -6   3   9    0.78    0.20
  -6   3   9    0.66    0.17
  -6   3   9    0.72    0.16
   5  -3  -9    0.40    0.17
   5  -3  -9    0.16    0.14
   5  -3  -9    0.10    0.11
   5  -3  -9    0.16    0.13
   5  -3  -9    0.19    0.16
  -5   3   9    0.54    0.18
  -5   3   9    0.35    0.17
  -5   3   9    0.26    0.12
  -5   3   9    0.14    0.13
  -5   3   9    0.28    0.11
   4  -3  -9    2.46    0.34
   4  -3  -9    2.18    0.28
  -4   3   9    2.21    0.23
  -4   3   9    2.26    0.21
  -4   3   9    2.53    0.29
  -4   3   9    2.57    0.32
  -4   3   9    2.49    0.31
   3  -3  -9    0.61    0.21
   3  -3  -9    0.39    0.15
   3  -3  -9    0.20    0.12
  -3   3   9    0.38    0.09
  -3   3   9    0.37    0.17
  -3   3   9    0.71    0.20
   2  -3  -9    3.21    0.33
   2  -3  -9    3.59    0.36
   2  -3  -9    3.16    0.29
   2  -3  -9    3.79    0.25
  -2   3   9    3.86    0.33
  -2   3   9    3.85    0.34
   1  -3  -9    0.41    0.13
   1  -3  -9    0.20    0.12
   1  -3  -9    0.50    0.17
   1  -3  -9    0.44    0.18
  -1   3   9    0.41    0.17
  -1   3   9    0.53    0.19
   0  -3  -9    0.29    0.16
   0  -3  -9    0.23    0.13
   0  -3  -9    0.02    0.11
   0  -3  -9   -0.11    0.13
   0   3   9    0.24    0.14
   0   3   9    0.30    0.16
  -1  -3  -9    0.05    0.21
  -1  -3  -9    0.13    0.14
  -1  -3  -9    0.38    0.18
  -1  -3  -9    0.37    0.18
   1   3   9    0.21    0.17
   1   3   9    0.30    0.16
  -2  -3  -9   -0.35    0.15
  -2  -3  -9   -0.10    0.10
  -2  -3  -9    0.17    0.10
  -2  -3  -9    0.19    0.19
   2   3   9   -0.07    0.07
  -3  -3  -9    0.01    0.13
  -3  -3  -9    0.12    0.16
  -3  -3  -9   -0.22    0.15
   3   3   9   -0.13    0.13
  -4  -3  -9    0.42    0.20
  -4  -3  -9    0.52    0.17
  -4  -3  -9    0.79    0.23
   4   3   9    0.64    0.17
   4   3   9    0.38    0.12
  -5  -3  -9    0.15    0.16
  -5  -3  -9    0.30    0.19
  -5  -3  -9   -0.43    0.21
  -5  -3  -9    0.32    0.17
   5   3   9    0.30    0.18
   5   3   9    0.14    0.12
   5   3   9    0.41    0.13
   8  -4  -9   -0.37    0.18
   8  -4  -9   -0.07    0.16
   8  -4  -9    0.14    0.14
  -8   4   9    0.46    0.17
  -8   4   9    0.09    0.13
  -8   4   9    0.03    0.14
   7  -4  -9    0.67    0.21
   7  -4  -9    0.56    0.18
   7  -4  -9    0.40    0.18
   7  -4  -9    0.26    0.13
  -7   4   9    0.38    0.15
  -7   4   9    0.71    0.22
  -7   4   9    0.42    0.17
  -7   4   9    0.70    0.17
   6  -4  -9    0.63    0.17
   6  -4  -9    0.61    0.19
   6  -4  -9    0.55    0.18
   6  -4  -9    0.59    0.16
  -6   4   9    0.66    0.37
  -6   4   9    0.47    0.16
  -6   4   9    0.58    0.19
  -6   4   9    0.59    0.14
  -6   4   9    0.61    0.16
   5  -4  -9    0.15    0.16
   5  -4  -9    0.08    0.15
   5  -4  -9   -0.07    0.11
   5  -4  -9    0.07    0.13
   5  -4  -9    0.21    0.13
  -5   4   9    0.17    0.11
  -5   4   9   -0.17    0.13
  -5   4   9    0.19    0.16
  -5   4   9    0.18    0.11
  -5   4   9    0.14    0.12
   4  -4  -9    1.96    0.28
   4  -4  -9    2.62    0.29
   4  -4  -9    2.31    0.33
  -4   4   9    2.41    0.24
  -4   4   9    2.55    0.34
  -4   4   9    2.73    0.33
   3  -4  -9    0.03    0.10
   3  -4  -9    0.11    0.15
  -3   4   9    0.10    0.13
  -3   4   9    0.05    0.08
  -3   4   9    0.12    0.14
   2  -4  -9   -0.22    0.20
   2  -4  -9   -0.08    0.08
   2  -4  -9   -0.06    0.10
   2  -4  -9    0.21    0.16
  -2   4   9   -0.03    0.06
  -2   4   9   -0.11    0.14
  -2   4   9    0.12    0.12
   1  -4  -9   -0.10    0.10
   1  -4  -9    0.03    0.11
   1  -4  -9   -0.07    0.15
   1  -4  -9    0.00    0.15
  -1   4   9   -0.21    0.13
  -1   4   9   -0.02    0.13
   0  -4  -9    0.40    0.13
   0  -4  -9    0.58    0.22
   0  -4  -9    0.52    0.15
   0  -4  -9    1.02    0.23
   0   4   9    0.93    0.22
  -1  -4  -9    0.00    0.12
  -1  -4  -9    0.01    0.12
  -1  -4  -9   -0.05    0.17
  -1  -4  -9   -0.26    0.15
   1   4   9    0.12    0.13
   1   4   9    0.11    0.08
  -2  -4  -9    0.06    0.13
  -2  -4  -9    0.01    0.18
  -2  -4  -9   -0.17    0.17
   2   4   9    0.22    0.16
  -3  -4  -9   -0.11    0.17
  -3  -4  -9    0.20    0.20
  -3  -4  -9    0.05    0.18
   3   4   9   -0.05    0.13
  -4  -4  -9   -0.09    0.14
  -4  -4  -9    0.21    0.20
  -4  -4  -9    0.07    0.16
  -4  -4  -9    0.10    0.22
   4   4   9    0.27    0.16
   4   4   9   -0.11    0.10
  -5  -4  -9   -0.39    0.26
  -5  -4  -9   -0.08    0.19
  -5  -4  -9   -0.36    0.15
  -5  -4  -9    0.08    0.18
   5   4   9   -0.02    0.12
   5   4   9    0.24    0.13
   5   4   9    0.08    0.17
   8  -5  -9    0.07    0.20
   8  -5  -9   -0.27    0.16
   8  -5  -9   -0.21    0.21
  -8   5   9   -0.16    0.18
  -8   5   9   -0.10    0.12
  -8   5   9    0.10    0.15
   7  -5  -9   -0.25    0.12
   7  -5  -9   -0.13    0.17
   7  -5  -9    0.28    0.18
   7  -5  -9   -0.07    0.12
  -7   5   9    0.03    0.11
  -7   5   9   -0.14    0.10
  -7   5   9   -0.13    0.16
   6  -5  -9    0.25    0.16
   6  -5  -9   -0.13    0.12
   6  -5  -9    0.26    0.15
   6  -5  -9    0.64    0.20
  -6   5   9    0.19    0.16
  -6   5   9    0.18    0.16
  -6   5   9    0.17    0.10
  -6   5   9    0.22    0.11
  -6   5   9    0.49    0.20
   5  -5  -9    0.58    0.21
   5  -5  -9   -0.11    0.12
   5  -5  -9   -0.11    0.12
   5  -5  -9    0.31    0.15
  -5   5   9    0.37    0.18
  -5   5   9    0.03    0.12
  -5   5   9    0.10    0.16
   4  -5  -9   -0.11    0.17
   4  -5  -9    0.06    0.13
   4  -5  -9    0.08    0.12
  -4   5   9   -0.14    0.08
  -4   5   9    0.06    0.13
  -4   5   9    0.04    0.16
   3  -5  -9   -0.10    0.08
   3  -5  -9   -0.15    0.11
   3  -5  -9    0.12    0.18
  -3   5   9    0.08    0.16
  -3   5   9    0.00    0.07
  -3   5   9    0.11    0.15
   2  -5  -9    0.28    0.13
   2  -5  -9    0.41    0.13
   2  -5  -9    0.45    0.20
   2  -5  -9    0.07    0.17
  -2   5   9    0.61    0.19
  -2   5   9    0.41    0.10
   1  -5  -9    0.29    0.13
   1  -5  -9   -0.17    0.18
   1  -5  -9    0.13    0.13
   1  -5  -9    0.28    0.19
  -1   5   9    0.43    0.17
  -1   5   9    0.26    0.13
   0  -5  -9    3.76    0.34
   0  -5  -9    3.62    0.35
   0  -5  -9    3.75    0.43
   0  -5  -9    3.77    0.42
   0   5   9    3.48    0.29
   0   5   9    3.05    0.37
   0   5   9    3.45    0.38
  -1  -5  -9    1.73    0.29
  -1  -5  -9    1.15    0.21
  -1  -5  -9    1.03    0.25
   1   5   9    1.66    0.29
   1   5   9    1.55    0.19
  -2  -5  -9    0.32    0.22
  -2  -5  -9    0.29    0.15
  -2  -5  -9    0.61    0.24
   2   5   9    0.40    0.17
   2   5   9    0.36    0.18
  -3  -5  -9    0.90    0.29
  -3  -5  -9    0.56    0.24
  -3  -5  -9    0.36    0.18
   3   5   9    0.34    0.12
   3   5   9    0.84    0.22
  -4  -5  -9    0.16    0.20
  -4  -5  -9   -0.01    0.15
  -4  -5  -9   -0.10    0.18
  -4  -5  -9   -0.40    0.28
   4   5   9    0.08    0.13
   4   5   9    0.04    0.17
   4   5   9   -0.14    0.10
   8  -6  -9    0.02    0.21
   8  -6  -9   -0.11    0.13
   8  -6  -9    0.18    0.17
  -8   6   9   -0.27    0.17
  -8   6   9   -0.02    0.16
  -8   6   9   -0.18    0.15
   7  -6  -9    0.06    0.19
   7  -6  -9    0.20    0.14
   7  -6  -9   -0.01    0.19
  -7   6   9    0.17    0.15
  -7   6   9    0.17    0.19
  -7   6   9    0.24    0.17
  -7   6   9   -0.01    0.10
   6  -6  -9    2.83    0.37
   6  -6  -9    2.57    0.34
   6  -6  -9    1.85    0.23
   6  -6  -9    3.04    0.58
  -6   6   9    2.35    0.36
  -6   6   9    3.07    0.42
  -6   6   9    2.28    0.28
  -6   6   9    3.09    0.36
   5  -6  -9   -0.19    0.13
   5  -6  -9    0.27    0.21
   5  -6  -9    0.07    0.15
  -5   6   9    0.18    0.21
  -5   6   9   -0.06    0.10
  -5   6   9   -0.09    0.14
  -5   6   9    0.08    0.15
   4  -6  -9   -0.08    0.13
   4  -6  -9    0.16    0.21
   4  -6  -9    0.22    0.15
  -4   6   9    0.22    0.15
  -4   6   9    0.24    0.20
  -4   6   9    0.28    0.19
  -4   6   9    0.19    0.12
   3  -6  -9    0.07    0.11
   3  -6  -9   -0.03    0.18
   3  -6  -9   -0.27    0.11
  -3   6   9   -0.05    0.08
  -3   6   9    0.14    0.10
  -3   6   9   -0.11    0.10
  -3   6   9    0.07    0.17
  -3   6   9    0.18    0.18
   2  -6  -9    0.12    0.12
   2  -6  -9    0.35    0.21
   2  -6  -9    0.06    0.11
  -2   6   9    0.22    0.13
  -2   6   9    0.15    0.14
  -2   6   9    0.32    0.19
  -2   6   9    0.24    0.12
   1  -6  -9    0.92    0.23
   1  -6  -9    1.30    0.19
   1  -6  -9    1.26    0.28
  -1   6   9    1.99    0.29
  -1   6   9    1.37    0.27
  -1   6   9    1.01    0.19
   0  -6  -9    1.67    0.32
   0  -6  -9    1.31    0.21
   0   6   9    1.41    0.26
   0   6   9    1.61    0.25
   0   6   9    1.89    0.24
  -1  -6  -9    0.03    0.14
  -1  -6  -9    0.16    0.19
   1   6   9    0.05    0.14
  -2  -6  -9    0.20    0.20
  -2  -6  -9    0.27    0.17
   2   6   9   -0.03    0.14
   2   6   9   -0.08    0.10
  -3  -6  -9   -0.20    0.15
  -3  -6  -9    0.17    0.21
   3   6   9   -0.05    0.12
   3   6   9   -0.11    0.14
   8  -7  -9   -0.24    0.25
  -8   7   9    0.25    0.18
  -8   7   9    0.28    0.23
   7  -7  -9    0.06    0.14
   7  -7  -9   -0.13    0.15
   7  -7  -9   -0.10    0.23
  -7   7   9   -0.27    0.13
  -7   7   9    0.20    0.16
  -7   7   9   -0.39    0.19
   6  -7  -9    2.08    0.31
   6  -7  -9    2.07    0.44
  -6   7   9    2.97    0.40
  -6   7   9    2.61    0.40
  -6   7   9    1.93    0.30
   5  -7  -9   -0.28    0.19
   5  -7  -9   -0.01    0.12
   5  -7  -9   -0.25    0.13
  -5   7   9   -0.11    0.13
  -5   7   9    0.07    0.17
  -5   7   9   -0.30    0.17
  -5   7   9   -0.01    0.13
   4  -7  -9    0.36    0.15
   4  -7  -9    0.20    0.12
   4  -7  -9    0.30    0.14
   4  -7  -9    0.42    0.22
  -4   7   9    0.06    0.19
  -4   7   9    0.21    0.17
  -4   7   9    0.38    0.13
  -4   7   9    0.12    0.18
  -4   7   9    0.08    0.12
   3  -7  -9    1.74    0.22
   3  -7  -9    2.11    0.33
   3  -7  -9    1.36    0.19
   3  -7  -9    1.05    0.18
  -3   7   9    1.31    0.22
  -3   7   9    2.07    0.35
  -3   7   9    1.31    0.20
  -3   7   9    1.72    0.31
   2  -7  -9    0.77    0.27
   2  -7  -9    0.39    0.15
   2  -7  -9    0.23    0.14
   2  -7  -9    0.49    0.16
  -2   7   9    0.28    0.16
  -2   7   9    0.63    0.17
   1  -7  -9    0.27    0.20
   1  -7  -9    0.14    0.14
   1  -7  -9    0.13    0.14
  -1   7   9    0.06    0.11
  -1   7   9    0.01    0.15
  -1   7   9    0.17    0.19
   0  -7  -9    1.15    0.29
   0  -7  -9    0.78    0.20
   0   7   9    0.99    0.16
   0   7   9    1.07    0.29
  -1  -7  -9    0.24    0.17
  -1  -7  -9    0.19    0.21
   1   7   9    0.13    0.20
  -2  -7  -9    0.57    0.25
  -2  -7  -9    0.09    0.17
   2   7   9    0.25    0.30
   7  -8  -9    0.07    0.17
   7  -8  -9   -0.18    0.15
   7  -8  -9   -0.01    0.27
  -7   8   9    0.37    0.23
  -7   8   9   -0.08    0.16
  -7   8   9    0.43    0.20
   6  -8  -9   -0.27    0.14
   6  -8  -9    0.55    0.26
   6  -8  -9    0.19    0.18
  -6   8   9   -0.01    0.18
  -6   8   9   -0.05    0.15
  -6   8   9   -0.05    0.20
   5  -8  -9    0.08    0.21
   5  -8  -9    0.21    0.15
  -5   8   9    0.01    0.14
  -5   8   9    0.26    0.20
  -5   8   9   -0.02    0.19
   4  -8  -9    0.06    0.12
   4  -8  -9   -0.21    0.13
   4  -8  -9    0.26    0.13
   4  -8  -9    0.00    0.22
  -4   8   9    0.21    0.14
  -4   8   9    0.36    0.21
  -4   8   9    0.14    0.16
  -4   8   9    0.47    0.15
   3  -8  -9    0.20    0.24
   3  -8  -9    0.11    0.14
   3  -8  -9   -0.23    0.14
   3  -8  -9   -0.05    0.13
  -3   8   9    0.21    0.13
  -3   8   9    0.16    0.18
  -3   8   9   -0.22    0.22
   2  -8  -9   -0.06    0.16
   2  -8  -9    0.41    0.17
  -2   8   9    0.22    0.16
  -2   8   9    0.15    0.14
  -2   8   9    0.30    0.18
   1  -8  -9   -0.03    0.23
   1  -8  -9    0.15    0.16
  -1   8   9   -0.14    0.09
  -1   8   9   -0.06    0.15
   0  -8  -9   -0.16    0.16
   0  -8  -9    0.10    0.25
   0   8   9   -0.10    0.10
   0   8   9    0.02    0.17
  -1  -8  -9   -0.20    0.16
  -1  -8  -9   -0.08    0.23
   1   8   9    0.00    0.14
   6  -9  -9   -0.13    0.28
   6  -9  -9    0.46    0.18
  -6   9   9    0.01    0.22
  -6   9   9    0.92    0.28
   5  -9  -9    0.12    0.26
   5  -9  -9   -0.05    0.15
  -5   9   9    0.14    0.22
  -5   9   9   -0.24    0.14
  -5   9   9   -0.11    0.13
   4  -9  -9    0.01    0.14
   4  -9  -9    0.01    0.14
   4  -9  -9    0.19    0.27
  -4   9   9   -0.20    0.18
  -4   9   9   -0.01    0.21
  -4   9   9   -0.16    0.12
   3  -9  -9   -0.28    0.13
   3  -9  -9    0.54    0.23
   3  -9  -9   -0.47    0.34
  -3   9   9    0.21    0.16
  -3   9   9    0.31    0.22
   2  -9  -9    0.01    0.23
   2  -9  -9   -0.14    0.22
  -2   9   9    0.13    0.17
  -2   9   9   -0.10    0.17
   1  -9  -9   -0.06    0.15
   1  -9  -9   -0.31    0.22
  -1   9   9   -0.22    0.10
  -1   9   9   -0.34    0.16
  -1  10 -10    0.57    0.17
  -1  10 -10    0.64    0.26
   1 -10  10    0.67    0.22
   1 -10  10    0.63    0.28
  -2  10 -10    0.03    0.22
  -2  10 -10    0.09    0.15
   2 -10  10    0.15    0.22
   2 -10  10   -0.11    0.13
  -3  10 -10   -0.09    0.12
  -3  10 -10   -0.17    0.20
   3 -10  10    0.22    0.29
   3 -10  10    0.27    0.14
   3 -10  10    0.10    0.13
  -4  10 -10    0.65    0.25
  -4  10 -10    0.06    0.16
   4 -10  10    0.12    0.13
   4 -10  10   -0.16    0.21
   1   9 -10    0.29    0.14
   1   9 -10    0.11    0.18
  -1  -9  10    0.01    0.23
  -1  -9  10   -0.14    0.16
   0   9 -10    1.04    0.25
   0   9 -10    0.41    0.14
   0  -9  10    0.55    0.21
   0  -9  10    0.26    0.24
  -1   9 -10    0.38    0.14
  -1   9 -10    0.53    0.24
   1  -9  10    0.33    0.18
   1  -9  10    0.45    0.24
  -2   9 -10    0.38    0.21
  -2   9 -10    0.00    0.11
   2  -9  10    0.23    0.22
   2  -9  10    0.06    0.15
  -3   9 -10    0.08    0.17
  -3   9 -10    0.28    0.21
  -3   9 -10    0.26    0.14
   3  -9  10    0.32    0.24
   3  -9  10    0.46    0.14
   3  -9  10    0.56    0.16
  -4   9 -10    0.10    0.15
  -4   9 -10    0.57    0.26
  -4   9 -10    0.28    0.21
   4  -9  10    0.19    0.21
   4  -9  10    0.31    0.13
  -5   9 -10   -0.13    0.10
  -5   9 -10    0.18    0.22
   5  -9  10   -0.26    0.19
   5  -9  10   -0.06    0.12
   3   8 -10    0.35    0.19
  -3  -8  10   -0.24    0.21
  -3  -8  10    0.27    0.26
   2   8 -10    0.32    0.17
  -2  -8  10    0.22    0.23
  -2  -8  10   -0.16    0.15
   1   8 -10    0.61    0.16
   1   8 -10    1.14    0.26
  -1  -8  10    0.80    0.21
  -1  -8  10    0.77    0.28
   0   8 -10    0.12    0.10
   0   8 -10    0.23    0.16
   0  -8  10    0.20    0.21
   0  -8  10    0.31    0.17
  -1   8 -10    0.02    0.10
  -1   8 -10   -0.12    0.18
   1  -8  10   -0.06    0.12
   1  -8  10    0.17    0.21
  -2   8 -10    0.13    0.12
  -2   8 -10    0.26    0.16
   2  -8  10   -0.01    0.17
   2  -8  10    0.11    0.14
  -3   8 -10    0.18    0.13
  -3   8 -10   -0.03    0.16
  -3   8 -10   -0.03    0.24
  -3   8 -10    0.31    0.19
   3  -8  10    0.47    0.20
   3  -8  10    0.15    0.11
   3  -8  10    0.31    0.13
  -4   8 -10    0.56    0.34
  -4   8 -10    0.09    0.13
  -4   8 -10    0.19    0.18
  -4   8 -10   -0.06    0.15
   4  -8  10   -0.06    0.19
  -5   8 -10    0.06    0.13
  -5   8 -10   -0.05    0.20
  -5   8 -10    0.12    0.21
   5  -8  10   -0.26    0.18
   5  -8  10    0.11    0.15
  -6   8 -10    0.09    0.19
  -6   8 -10   -0.11    0.12
  -6   8 -10    0.13    0.21
   6  -8  10   -0.12    0.11
   6  -8  10   -0.26    0.14
   6  -8  10   -0.09    0.30
   4   7 -10    0.21    0.20
   4   7 -10    0.08    0.12
  -4  -7  10   -0.33    0.20
  -4  -7  10   -0.23    0.20
   3   7 -10    0.00    0.20
  -3  -7  10    0.09    0.19
  -3  -7  10   -0.07    0.18
   2   7 -10    0.20    0.19
  -2  -7  10    0.38    0.19
  -2  -7  10    0.01    0.19
   1   7 -10    0.10    0.18
  -1  -7  10    0.17    0.17
  -1  -7  10    0.12    0.35
   0   7 -10    1.61    0.28
   0  -7  10    1.30    0.24
   0  -7  10    1.31    0.28
  -1   7 -10   -0.12    0.15
  -1   7 -10   -0.12    0.16
  -1   7 -10   -0.07    0.09
  -1   7 -10   -0.08    0.14
   1  -7  10    0.03    0.14
   1  -7  10   -0.27    0.14
  -2   7 -10    0.39    0.14
  -2   7 -10    0.16    0.23
  -2   7 -10    0.53    0.22
  -2   7 -10    0.51    0.18
   2  -7  10    0.41    0.16
   2  -7  10    0.51    0.20
  -3   7 -10    0.97    0.38
  -3   7 -10    1.12    0.18
  -3   7 -10    1.29    0.22
  -3   7 -10    1.26    0.29
   3  -7  10    1.40    0.27
  -4   7 -10   -0.24    0.14
  -4   7 -10    0.21    0.18
  -4   7 -10   -0.08    0.11
  -4   7 -10   -0.27    0.17
   4  -7  10    0.34    0.18
  -5   7 -10    0.05    0.17
  -5   7 -10   -0.02    0.19
  -5   7 -10    0.27    0.15
  -5   7 -10    0.02    0.12
   5  -7  10    0.11    0.12
   5  -7  10    0.06    0.12
   5  -7  10    0.35    0.20
  -6   7 -10   -0.16    0.21
  -6   7 -10    0.00    0.13
  -6   7 -10    0.15    0.17
   6  -7  10    0.39    0.18
   6  -7  10   -0.11    0.11
   6  -7  10   -0.12    0.11
  -7   7 -10   -0.13    0.26
  -7   7 -10    0.01    0.16
   5   6 -10   -0.11    0.22
   5   6 -10   -0.17    0.19
   5   6 -10   -0.10    0.12
  -5  -6  10   -0.22    0.19
  -5  -6  10   -0.10    0.30
   4   6 -10   -0.34    0.16
   4   6 -10   -0.16    0.10
  -4  -6  10    0.01    0.19
  -4  -6  10    0.09    0.31
  -4  -6  10   -0.16    0.15
  -4  -6  10    0.08    0.18
   3   6 -10    0.62    0.23
   3   6 -10    0.19    0.14
  -3  -6  10    0.61    0.24
  -3  -6  10    0.24    0.13
  -3  -6  10    0.33    0.18
  -3  -6  10    0.34    0.22
   2   6 -10   -0.14    0.10
   2   6 -10   -0.05    0.16
  -2  -6  10   -0.05    0.14
  -2  -6  10    0.03    0.24
  -2  -6  10   -0.11    0.18
   1   6 -10    0.10    0.12
   1   6 -10    0.50    0.21
  -1  -6  10   -0.03    0.16
  -1  -6  10    0.49    0.23
  -1  -6  10    0.20    0.16
   0   6 -10    0.69    0.17
   0   6 -10    1.02    0.25
   0   6 -10    0.88    0.22
   0   6 -10    0.79    0.21
   0   6 -10    0.58    0.16
   0  -6  10    0.97    0.20
   0  -6  10    0.73    0.23
   0  -6  10    0.79    0.21
  -1   6 -10    2.95    0.28
  -1   6 -10    3.49    0.41
  -1   6 -10    3.40    0.40
  -1   6 -10    2.56    0.34
  -1   6 -10    2.88    0.31
   1  -6  10    3.13    0.35
   1  -6  10    2.32    0.36
   1  -6  10    3.32    0.57
  -2   6 -10    0.77    0.16
  -2   6 -10    0.96    0.23
  -2   6 -10    0.66    0.20
  -2   6 -10    1.00    0.23
   2  -6  10    0.80    0.17
   2  -6  10    0.98    0.24
   2  -6  10    0.59    0.18
  -3   6 -10    0.17    0.17
  -3   6 -10    0.11    0.16
  -3   6 -10   -0.01    0.10
  -3   6 -10   -0.17    0.22
   3  -6  10   -0.21    0.09
   3  -6  10   -0.07    0.16
   3  -6  10   -0.05    0.07
  -4   6 -10    1.24    0.18
  -4   6 -10    1.36    0.27
  -4   6 -10    0.82    0.19
  -4   6 -10    1.57    0.27
   4  -6  10    1.02    0.21
   4  -6  10    1.47    0.27
   4  -6  10    1.31    0.17
  -5   6 -10    0.66    0.19
  -5   6 -10   -0.18    0.18
  -5   6 -10    0.44    0.15
  -5   6 -10   -0.01    0.15
  -5   6 -10    0.41    0.13
   5  -6  10    0.34    0.21
   5  -6  10    0.02    0.16
   5  -6  10    0.33    0.14
   5  -6  10    0.24    0.14
  -6   6 -10    0.04    0.12
  -6   6 -10    0.64    0.22
  -6   6 -10    0.23    0.20
  -6   6 -10    0.34    0.16
   6  -6  10    0.22    0.21
   6  -6  10    0.33    0.17
   6  -6  10    0.09    0.16
   6  -6  10   -0.02    0.13
  -7   6 -10   -0.14    0.19
  -7   6 -10    0.02    0.12
  -7   6 -10    0.04    0.16
   7  -6  10   -0.15    0.13
   7  -6  10   -0.10    0.16
   7  -6  10    0.21    0.17
   5   5 -10    0.02    0.13
   5   5 -10   -0.23    0.17
   5   5 -10   -0.10    0.18
   5   5 -10    0.08    0.11
  -5  -5  10    0.31    0.22
  -5  -5  10   -0.03    0.19
  -5  -5  10    0.12    0.19
  -5  -5  10   -0.10    0.20
   4   5 -10    0.28    0.21
   4   5 -10   -0.09    0.12
   4   5 -10    0.27    0.13
  -4  -5  10   -0.03    0.17
  -4  -5  10    0.35    0.14
  -4  -5  10    0.08    0.21
  -4  -5  10    0.08    0.17
   3   5 -10    4.51    0.44
   3   5 -10    3.52    0.32
  -3  -5  10    4.13    0.52
  -3  -5  10    3.86    0.32
  -3  -5  10    3.79    0.48
  -3  -5  10    4.31    0.56
   2   5 -10   -0.09    0.15
   2   5 -10   -0.07    0.10
  -2  -5  10   -0.04    0.14
  -2  -5  10   -0.09    0.18
  -2  -5  10   -0.10    0.15
  -2  -5  10   -0.03    0.16
   1   5 -10    0.14    0.18
   1   5 -10    0.02    0.15
   1   5 -10    0.09    0.11
   1   5 -10    0.03    0.18
  -1  -5  10   -0.23    0.15
  -1  -5  10    0.34    0.20
  -1  -5  10    0.07    0.16
   0   5 -10    0.36    0.13
   0   5 -10    0.27    0.15
   0   5 -10    0.63    0.26
   0   5 -10    0.54    0.21
   0  -5  10    0.47    0.18
   0  -5  10    0.32    0.13
   0  -5  10    0.54    0.20
   0  -5  10    0.81    0.20
  -1   5 -10    1.59    0.26
  -1   5 -10    0.99    0.16
  -1   5 -10    0.86    0.27
  -1   5 -10    1.43    0.26
   1  -5  10    1.29    0.23
   1  -5  10    1.19    0.22
   1  -5  10    1.07    0.18
   1  -5  10    1.25    0.26
  -2   5 -10    0.16    0.16
  -2   5 -10    0.18    0.17
  -2   5 -10    0.00    0.09
  -2   5 -10    0.01    0.13
   2  -5  10    0.08    0.16
   2  -5  10    0.07    0.12
  -3   5 -10    0.49    0.13
  -3   5 -10    0.69    0.21
  -3   5 -10    0.23    0.24
  -3   5 -10    0.63    0.20
   3  -5  10    0.47    0.14
   3  -5  10    0.58    0.20
   3  -5  10    0.53    0.12
  -4   5 -10    0.66    0.15
  -4   5 -10    1.04    0.23
  -4   5 -10    0.78    0.14
  -4   5 -10    0.30    0.17
  -4   5 -10    0.78    0.16
  -4   5 -10    0.79    0.22
   4  -5  10    0.92    0.22
   4  -5  10    0.97    0.17
   4  -5  10    0.62    0.17
   4  -5  10    0.83    0.15
  -5   5 -10    2.01    0.27
  -5   5 -10    1.34    0.26
  -5   5 -10    1.94    0.27
  -5   5 -10    2.73    0.35
  -5   5 -10    2.08    0.33
   5  -5  10    1.46    0.22
   5  -5  10    1.77    0.28
   5  -5  10    2.48    0.29
   5  -5  10    2.32    0.29
  -6   5 -10    0.17    0.16
  -6   5 -10   -0.13    0.14
  -6   5 -10    0.26    0.11
   6  -5  10    0.27    0.15
   6  -5  10    0.10    0.13
   6  -5  10    0.02    0.13
   6  -5  10   -0.08    0.17
  -7   5 -10    0.00    0.19
  -7   5 -10   -0.24    0.17
  -7   5 -10   -0.05    0.14
   7  -5  10   -0.49    0.21
   7  -5  10    0.11    0.13
   7  -5  10   -0.10    0.15
   7  -5  10   -0.32    0.12
   6   4 -10   -0.04    0.13
   6   4 -10    0.07    0.18
   6   4 -10   -0.20    0.13
   6   4 -10    0.05    0.12
  -6  -4  10   -0.13    0.17
  -6  -4  10    0.23    0.24
  -6  -4  10    0.30    0.19
   5   4 -10   -0.08    0.13
   5   4 -10    0.19    0.20
   5   4 -10    0.19    0.13
  -5  -4  10    0.04    0.16
  -5  -4  10    0.39    0.18
  -5  -4  10    0.07    0.22
  -5  -4  10   -0.03    0.17
   4   4 -10   -0.07    0.10
   4   4 -10    0.22    0.18
   4   4 -10   -0.06    0.12
  -4  -4  10    0.07    0.27
  -4  -4  10   -0.18    0.12
  -4  -4  10    0.17    0.32
   3   4 -10    0.13    0.10
   3   4 -10    0.26    0.18
   3   4 -10    0.02    0.11
  -3  -4  10    0.17    0.17
  -3  -4  10    0.13    0.11
  -3  -4  10    0.13    0.17
  -3  -4  10    0.05    0.17
   2   4 -10   20.66    0.83
   2   4 -10   18.06    0.67
  -2  -4  10   19.53    0.83
  -2  -4  10   20.23    0.81
  -2  -4  10   19.82    0.81
   1   4 -10   10.75    0.70
   1   4 -10    9.31    0.53
   1   4 -10   10.63    0.57
   1   4 -10    9.21    0.47
  -1  -4  10    8.68    0.48
  -1  -4  10    9.68    0.54
  -1  -4  10   10.21    0.58
  -1  -4  10    9.48    0.54
   0   4 -10    0.10    0.15
   0   4 -10    0.04    0.10
   0   4 -10    0.29    0.17
   0   4 -10   -0.07    0.12
   0  -4  10    0.02    0.12
   0  -4  10    0.32    0.19
   0  -4  10   -0.01    0.13
   0  -4  10    0.19    0.11
  -1   4 -10   -0.05    0.12
  -1   4 -10    0.09    0.16
  -1   4 -10    0.29    0.15
   1  -4  10    0.17    0.15
   1  -4  10   -0.02    0.24
   1  -4  10    0.15    0.11
   1  -4  10   -0.04    0.13
  -2   4 -10    0.96    0.23
  -2   4 -10    0.62    0.16
  -2   4 -10    0.77    0.14
  -2   4 -10    0.90    0.19
   2  -4  10    0.73    0.14
   2  -4  10    1.00    0.22
  -3   4 -10    8.73    0.52
  -3   4 -10    8.09    0.35
  -3   4 -10    7.88    0.37
  -3   4 -10    8.28    0.42
  -3   4 -10    8.83    0.50
  -3   4 -10    6.85    0.61
   3  -4  10    7.70    0.47
   3  -4  10    7.41    0.41
   3  -4  10    8.46    0.49
  -4   4 -10    0.25    0.11
  -4   4 -10    0.17    0.12
  -4   4 -10    0.22    0.16
  -4   4 -10    0.07    0.15
  -4   4 -10    0.48    0.18
  -4   4 -10    0.23    0.11
   4  -4  10    0.12    0.10
   4  -4  10    0.17    0.12
   4  -4  10    0.48    0.20
   4  -4  10    0.05    0.12
  -5   4 -10    0.50    0.17
  -5   4 -10    0.85    0.15
  -5   4 -10    0.94    0.20
  -5   4 -10    0.89    0.19
  -5   4 -10    0.81    0.20
  -5   4 -10    0.48    0.13
   5  -4  10    0.72    0.20
   5  -4  10    0.52    0.14
   5  -4  10    0.52    0.14
   5  -4  10    0.79    0.21
  -6   4 -10    0.23    0.16
  -6   4 -10    0.39    0.21
  -6   4 -10    0.12    0.10
   6  -4  10    0.27    0.17
   6  -4  10    0.29    0.15
   6  -4  10    0.13    0.12
   6  -4  10    0.36    0.16
  -7   4 -10    0.13    0.16
  -7   4 -10   -0.11    0.16
  -7   4 -10   -0.21    0.16
  -7   4 -10    0.17    0.18
   7  -4  10    0.13    0.15
   7  -4  10   -0.25    0.16
   7  -4  10   -0.12    0.12
   7   3 -10   -0.08    0.12
   7   3 -10    0.14    0.15
   7   3 -10   -0.06    0.20
  -7  -3  10   -0.02    0.17
  -7  -3  10   -0.19    0.18
  -7  -3  10    0.09    0.22
   6   3 -10   -0.02    0.18
   6   3 -10   -0.21    0.12
   6   3 -10    0.01    0.11
  -6  -3  10   -0.12    0.16
  -6  -3  10    0.15    0.18
  -6  -3  10    0.10    0.21
   5   3 -10    3.06    0.39
   5   3 -10    2.82    0.28
   5   3 -10    3.02    0.33
  -5  -3  10    2.49    0.35
  -5  -3  10    2.97    0.38
  -5  -3  10    3.24    0.42
  -5  -3  10    3.11    0.41
   4   3 -10    0.77    0.17
   4   3 -10    0.74    0.14
   4   3 -10    0.82    0.23
  -4  -3  10    0.86    0.20
  -4  -3  10    0.86    0.17
  -4  -3  10    1.44    0.25
  -4  -3  10    0.79    0.23
   3   3 -10   15.61    0.58
   3   3 -10   17.41    0.73
   3   3 -10   16.23    0.62
  -3  -3  10   17.02    0.73
  -3  -3  10   16.77    0.72
  -3  -3  10   17.01    0.76
   2   3 -10    1.23    0.25
   2   3 -10    0.89    0.14
   2   3 -10    1.40    0.19
   2   3 -10    1.58    0.28
  -2  -3  10    1.33    0.25
  -2  -3  10    1.18    0.26
  -2  -3  10    1.11    0.21
   1   3 -10    0.44    0.11
   1   3 -10    0.41    0.15
   1   3 -10    0.83    0.18
   1   3 -10    0.66    0.19
  -1  -3  10    0.65    0.16
  -1  -3  10    0.49    0.16
  -1  -3  10    0.65    0.19
  -1  -3  10    0.24    0.10
   0   3 -10    0.24    0.14
   0   3 -10    0.22    0.13
   0   3 -10    0.21    0.17
   0  -3  10    0.17    0.09
   0  -3  10    0.30    0.16
   0  -3  10    0.25    0.13
   0  -3  10    0.09    0.14
  -1   3 -10   -0.06    0.10
  -1   3 -10    0.14    0.15
  -1   3 -10    0.07    0.14
   1  -3  10    0.00    0.08
   1  -3  10   -0.01    0.14
   1  -3  10   -0.22    0.13
   1  -3  10    0.04    0.11
  -2   3 -10    4.26    0.35
  -2   3 -10    4.98    0.41
  -2   3 -10    5.08    0.26
  -2   3 -10    4.65    0.37
   2  -3  10    5.10    0.39
   2  -3  10    4.57    0.30
  -3   3 -10    0.00    0.09
  -3   3 -10   -0.10    0.20
  -3   3 -10    0.08    0.15
  -3   3 -10    0.09    0.15
   3  -3  10    0.06    0.14
   3  -3  10    0.05    0.09
   3  -3  10    0.16    0.14
  -4   3 -10    0.25    0.17
  -4   3 -10    0.13    0.09
  -4   3 -10    0.17    0.13
  -4   3 -10    0.16    0.16
  -4   3 -10    0.34    0.17
   4  -3  10    0.12    0.12
   4  -3  10    0.27    0.11
   4  -3  10    0.31    0.15
   4  -3  10    0.02    0.10
  -5   3 -10    0.02    0.15
  -5   3 -10   -0.03    0.10
  -5   3 -10   -0.14    0.13
  -5   3 -10   -0.05    0.15
   5  -3  10   -0.15    0.09
   5  -3  10   -0.04    0.13
   5  -3  10   -0.01    0.10
   5  -3  10    0.06    0.14
  -6   3 -10   -0.19    0.17
  -6   3 -10   -0.13    0.12
  -6   3 -10   -0.05    0.14
  -6   3 -10   -0.07    0.14
   6  -3  10    0.14    0.14
   6  -3  10    0.24    0.22
   6  -3  10    0.01    0.12
  -7   3 -10    0.27    0.17
  -7   3 -10   -0.11    0.15
  -7   3 -10    0.10    0.18
   7  -3  10    0.06    0.13
   7  -3  10   -0.11    0.13
   7   2 -10    0.11    0.12
   7   2 -10    0.27    0.18
   7   2 -10    0.03    0.19
  -7  -2  10   -0.28    0.16
   6   2 -10    0.08    0.13
   6   2 -10    0.08    0.21
   6   2 -10    0.03    0.12
  -6  -2  10   -0.15    0.16
  -6  -2  10    0.28    0.19
  -6  -2  10    0.19    0.21
   5   2 -10   17.38    0.73
   5   2 -10   15.37    0.67
  -5  -2  10   15.89    0.74
  -5  -2  10   16.60    0.73
  -5  -2  10   15.02    0.71
  -5  -2  10   15.37    0.68
   4   2 -10    1.88    0.21
   4   2 -10    2.87    0.36
   4   2 -10    2.18    0.28
  -4  -2  10    2.45    0.33
  -4  -2  10    3.07    0.36
  -4  -2  10    2.85    0.38
   3   2 -10    0.12    0.09
   3   2 -10    0.06    0.14
   3   2 -10    0.14    0.12
   3   2 -10   -0.03    0.07
  -3  -2  10    0.07    0.16
  -3  -2  10   -0.01    0.12
  -3  -2  10    0.13    0.15
   2   2 -10    1.58    0.21
   2   2 -10    1.62    0.26
   2   2 -10    1.18    0.19
   2   2 -10    1.63    0.25
   2   2 -10    1.82    0.19
  -2  -2  10    1.47    0.20
  -2  -2  10    1.66    0.26
  -2  -2  10    1.96    0.29
  -2  -2  10    1.42    0.22
   1   2 -10    0.68    0.16
   1   2 -10    0.82    0.18
   1   2 -10    1.14    0.24
  -1  -2  10    0.77    0.18
  -1  -2  10    0.83    0.21
  -1  -2  10    0.45    0.11
  -1  -2  10    0.69    0.18
   0   2 -10    2.65    0.32
   0   2 -10    2.27    0.28
   0   2 -10    2.46    0.31
   0  -2  10    2.32    0.23
   0  -2  10    2.01    0.28
   0  -2  10    2.77    0.31
   0  -2  10    2.19    0.29
  -1   2 -10    7.34    0.29
  -1   2 -10    7.64    0.47
  -1   2 -10    6.85    0.44
  -1   2 -10    6.91    0.41
   1  -2  10    6.63    0.43
   1  -2  10    6.74    0.35
   1  -2  10    7.76    0.47
  -2   2 -10    0.51    0.14
  -2   2 -10    0.22    0.18
  -2   2 -10    0.25    0.17
  -2   2 -10    0.31    0.12
   2  -2  10    0.21    0.09
   2  -2  10    0.39    0.18
  -3   2 -10    3.37    0.33
  -3   2 -10    2.98    0.28
  -3   2 -10    3.03    0.36
  -3   2 -10    3.06    0.33
   3  -2  10    3.44    0.31
   3  -2  10    2.94    0.32
   3  -2  10    3.04    0.24
   3  -2  10    3.22    0.33
  -4   2 -10   -0.03    0.13
  -4   2 -10    0.10    0.12
  -4   2 -10    0.21    0.17
  -4   2 -10    0.02    0.16
  -4   2 -10    0.17    0.14
   4  -2  10    0.16    0.09
   4  -2  10    0.25    0.12
   4  -2  10    0.06    0.12
   4  -2  10    0.34    0.17
  -5   2 -10    0.02    0.15
  -5   2 -10    0.28    0.17
  -5   2 -10   -0.01    0.16
  -5   2 -10    0.38    0.22
   5  -2  10   -0.08    0.10
   5  -2  10    0.00    0.13
   5  -2  10    0.09    0.12
  -6   2 -10   -0.01    0.17
  -6   2 -10    0.15    0.16
   6  -2  10   -0.04    0.12
   6  -2  10   -0.12    0.12
   6  -2  10    0.24    0.15
  -7   2 -10    0.23    0.20
  -7   2 -10    0.05    0.16
  -7   2 -10   -0.17    0.20
   7  -2  10    0.00    0.15
   7  -2  10    0.34    0.17
   7  -2  10    0.26    0.16
   7   1 -10    0.03    0.16
   7   1 -10    0.43    0.21
   7   1 -10    0.23    0.14
  -7  -1  10    0.76    0.23
  -7  -1  10    0.17    0.17
  -7  -1  10    0.31    0.19
   6   1 -10    0.32    0.19
   6   1 -10    0.44    0.15
   6   1 -10    0.26    0.17
  -6  -1  10    0.26    0.32
  -6  -1  10    0.36    0.18
  -6  -1  10    0.33    0.28
   5   1 -10    0.35    0.28
   5   1 -10    0.20    0.13
  -5  -1  10    0.27    0.19
  -5  -1  10    0.26    0.17
  -5  -1  10    0.30    0.13
  -5  -1  10    0.79    0.20
   4   1 -10    3.03    0.34
   4   1 -10    3.26    0.36
   4   1 -10    2.72    0.27
   4   1 -10    2.66    0.34
  -4  -1  10    2.95    0.36
  -4  -1  10    2.19    0.33
  -4  -1  10    2.76    0.33
   3   1 -10    2.44    0.20
   3   1 -10    2.11    0.30
   3   1 -10    2.87    0.33
   3   1 -10    2.50    0.23
  -3  -1  10    2.16    0.29
  -3  -1  10    2.45    0.36
  -3  -1  10    2.29    0.31
  -3  -1  10    2.50    0.33
   2   1 -10    0.20    0.15
   2   1 -10    0.07    0.12
   2   1 -10    0.06    0.14
   2   1 -10   -0.04    0.06
  -2  -1  10   -0.01    0.11
  -2  -1  10    0.16    0.08
  -2  -1  10    0.02    0.13
  -2  -1  10   -0.07    0.12
   1   1 -10    0.12    0.16
   1   1 -10    0.03    0.10
   1   1 -10   -0.04    0.13
  -1  -1  10    0.03    0.07
  -1  -1  10    0.07    0.12
  -1  -1  10    0.20    0.14
  -1  -1  10   -0.05    0.14
   0   1 -10   -0.02    0.10
   0   1 -10   -0.11    0.13
   0   1 -10   -0.07    0.13
   0  -1  10   -0.08    0.10
   0  -1  10   -0.03    0.12
   0  -1  10   -0.10    0.07
   0  -1  10   -0.20    0.11
  -1   1 -10    1.19    0.17
  -1   1 -10    1.69    0.27
  -1   1 -10    1.50    0.17
  -1   1 -10    1.42    0.26
   1  -1  10    1.25    0.26
   1  -1  10    1.42    0.24
   1  -1  10    1.46    0.19
  -2   1 -10    6.67    0.46
  -2   1 -10    6.46    0.34
  -2   1 -10    6.23    0.44
  -2   1 -10    7.31    0.55
  -2   1 -10    6.87    0.47
   2  -1  10    6.82    0.45
   2  -1  10    6.74    0.37
   2  -1  10    6.30    0.31
  -3   1 -10    0.91    0.18
  -3   1 -10    1.28    0.22
  -3   1 -10    2.06    0.26
  -3   1 -10    1.40    0.25
  -3   1 -10    1.68    0.26
   3  -1  10    1.65    0.25
   3  -1  10    1.96    0.25
   3  -1  10    1.35    0.24
  -4   1 -10    0.81    0.21
  -4   1 -10    0.74    0.21
  -4   1 -10    0.44    0.18
   4  -1  10    0.66    0.17
   4  -1  10    0.83    0.21
  -5   1 -10    1.50    0.27
  -5   1 -10    1.29    0.25
  -5   1 -10    0.87    0.20
   5  -1  10    1.39    0.24
   5  -1  10    1.07    0.20
   5  -1  10    0.80    0.18
  -6   1 -10    0.06    0.15
  -6   1 -10   -0.08    0.13
   6  -1  10    0.10    0.12
  -7   1 -10   -0.30    0.14
  -7   1 -10    0.10    0.20
  -7   1 -10    0.21    0.24
   7  -1  10    0.28    0.14
   7  -1  10    0.11    0.16
   8   0 -10    0.02    0.14
   8   0 -10    0.02    0.17
   8   0 -10    0.10    0.19
  -8   0  10    0.16    0.15
  -8   0  10    0.28    0.19
  -8   0  10   -0.16    0.17
   7   0 -10    1.80    0.30
   7   0 -10    1.69    0.25
   7   0 -10    1.26    0.34
  -7   0  10    1.92    0.48
  -7   0  10    1.71    0.27
  -7   0  10    1.29    0.25
   6   0 -10    0.12    0.11
   6   0 -10    0.01    0.23
   6   0 -10   -0.16    0.15
  -6   0  10    0.07    0.15
  -6   0  10    0.02    0.14
  -6   0  10    0.11    0.14
   5   0 -10    0.51    0.14
   5   0 -10    0.50    0.20
   5   0 -10    0.49    0.20
  -5   0  10    0.83    0.22
  -5   0  10    0.51    0.18
  -5   0  10    0.37    0.18
   4   0 -10    4.94    0.53
   4   0 -10    5.65    0.41
   4   0 -10    5.45    0.39
   4   0 -10    5.42    0.33
  -4   0  10    5.76    0.43
  -4   0  10    5.18    0.42
  -4   0  10    5.76    0.42
   3   0 -10   -0.01    0.14
   3   0 -10    0.15    0.14
   3   0 -10    0.03    0.08
   3   0 -10   -0.02    0.11
  -3   0  10    0.17    0.11
  -3   0  10   -0.14    0.13
  -3   0  10   -0.24    0.12
  -3   0  10    0.03    0.13
   2   0 -10    5.06    0.37
   2   0 -10    4.82    0.37
   2   0 -10    5.16    0.40
  -2   0  10    5.45    0.39
  -2   0  10    5.09    0.38
  -2   0  10    4.68    0.32
  -2   0  10    4.97    0.38
   1   0 -10    0.09    0.11
   1   0 -10    0.24    0.12
   1   0 -10    0.09    0.17
   1   0 -10   -0.02    0.13
  -1   0  10   -0.08    0.13
  -1   0  10   -0.03    0.13
  -1   0  10    0.05    0.09
  -1   0  10    0.05    0.11
   0   0 -10   -0.05    0.10
   0   0 -10   -0.03    0.15
   0   0 -10    0.01    0.11
   0   0  10   -0.06    0.08
   0   0  10    0.12    0.15
   0   0  10   -0.06    0.12
  -1   0 -10    2.09    0.28
  -1   0 -10    1.06    0.25
  -1   0 -10    1.47    0.21
  -1   0 -10    1.47    0.25
   1   0  10    1.58    0.27
   1   0  10    1.27    0.27
   1   0  10    2.06    0.21
  -2   0 -10    0.61    0.21
  -2   0 -10   -0.12    0.12
  -2   0 -10    0.20    0.18
  -2   0 -10    0.30    0.14
   2   0  10    0.22    0.11
   2   0  10    0.15    0.15
  -3   0 -10    1.19    0.18
  -3   0 -10    0.68    0.19
  -3   0 -10    1.30    0.25
  -3   0 -10    1.30    0.25
  -3   0 -10    0.65    0.16
   3   0  10    0.78    0.10
   3   0  10    1.51    0.26
   3   0  10    1.15    0.19
   3   0  10    0.49    0.19
  -4   0 -10    3.15    0.39
  -4   0 -10    3.50    0.39
  -4   0 -10    4.04    0.38
  -4   0 -10    3.22    0.34
   4   0  10    3.38    0.31
   4   0  10    3.61    0.58
  -5   0 -10    0.12    0.14
  -5   0 -10    0.01    0.18
  -5   0 -10   -0.02    0.18
   5   0  10    0.10    0.11
   5   0  10    0.01    0.11
  -6   0 -10   -0.11    0.14
  -6   0 -10    0.15    0.16
  -6   0 -10    0.14    0.21
   6   0  10   -0.27    0.11
   6   0  10    0.34    0.16
   6   0  10   -0.01    0.11
   8  -1 -10   -0.15    0.15
   8  -1 -10    0.13    0.19
   8  -1 -10   -0.09    0.14
  -8   1  10   -0.30    0.15
  -8   1  10   -0.13    0.12
  -8   1  10    0.18    0.19
   7  -1 -10    0.75    0.20
   7  -1 -10    0.27    0.17
   7  -1 -10    0.23    0.15
  -7   1  10    0.36    0.18
  -7   1  10    0.44    0.18
  -7   1  10    0.37    0.18
   6  -1 -10    0.83    0.17
   6  -1 -10    1.03    0.23
   6  -1 -10    0.84    0.14
  -6   1  10    1.19    0.25
  -6   1  10    1.58    0.27
  -6   1  10    1.17    0.23
   5  -1 -10    0.04    0.15
   5  -1 -10    0.12    0.09
   5  -1 -10   -0.04    0.10
   5  -1 -10   -0.02    0.11
   5  -1 -10    0.51    0.24
  -5   1  10    0.03    0.13
  -5   1  10   -0.13    0.14
  -5   1  10   -0.04    0.14
   4  -1 -10    0.72    0.18
   4  -1 -10    1.08    0.23
   4  -1 -10    0.79    0.20
   4  -1 -10    0.67    0.13
   4  -1 -10    0.66    0.11
  -4   1  10    0.66    0.20
  -4   1  10    1.23    0.24
  -4   1  10    0.83    0.18
   3  -1 -10    1.23    0.32
   3  -1 -10    1.34    0.17
   3  -1 -10    1.46    0.24
   3  -1 -10    0.85    0.17
  -3   1  10    1.03    0.19
  -3   1  10    1.56    0.27
  -3   1  10    1.46    0.26
   2  -1 -10    0.21    0.08
   2  -1 -10    0.48    0.19
   2  -1 -10    0.22    0.14
   2  -1 -10    0.41    0.17
  -2   1  10    0.38    0.13
  -2   1  10    0.53    0.17
  -2   1  10    0.51    0.17
   1  -1 -10   -0.08    0.11
   1  -1 -10    0.19    0.12
   1  -1 -10   -0.07    0.15
   1  -1 -10   -0.12    0.12
  -1   1  10    0.00    0.13
  -1   1  10   -0.06    0.14
   0  -1 -10    2.30    0.28
   0  -1 -10    2.54    0.30
   0  -1 -10    2.20    0.34
   0  -1 -10    2.23    0.32
   0   1  10    2.33    0.32
   0   1  10    2.47    0.31
   0   1  10    1.94    0.22
  -1  -1 -10   60.66    1.61
  -1  -1 -10   49.50    1.79
  -1  -1 -10   59.81    1.65
  -1  -1 -10   56.10    1.62
   1   1  10   55.60    1.42
   1   1  10   58.50    1.65
   1   1  10   59.00    1.47
   1   1  10   53.19    2.01
  -2  -1 -10    1.83    0.28
  -2  -1 -10    2.48    0.36
  -2  -1 -10    1.48    0.23
   2   1  10    2.54    0.31
   2   1  10    2.04    0.24
   2   1  10    1.95    0.18
  -3  -1 -10   -0.08    0.17
  -3  -1 -10    0.00    0.12
  -3  -1 -10    0.09    0.17
   3   1  10    0.04    0.15
   3   1  10    0.05    0.10
  -4  -1 -10    0.29    0.21
  -4  -1 -10    0.50    0.21
  -4  -1 -10    0.10    0.27
   4   1  10    0.23    0.12
  -5  -1 -10    0.10    0.14
  -5  -1 -10    0.13    0.17
   5   1  10    0.04    0.15
   5   1  10    0.18    0.13
   5   1  10    0.03    0.10
  -6  -1 -10   -0.19    0.16
  -6  -1 -10    0.27    0.26
  -6  -1 -10    0.23    0.18
   6   1  10    0.03    0.15
   6   1  10    0.15    0.15
   6   1  10    0.04    0.13
   8  -2 -10    0.00    0.18
   8  -2 -10    0.08    0.17
  -8   2  10   -0.02    0.13
  -8   2  10    0.11    0.17
  -8   2  10   -0.06    0.17
   7  -2 -10    1.13    0.23
   7  -2 -10    0.96    0.23
   7  -2 -10    0.57    0.16
  -7   2  10    0.71    0.22
  -7   2  10    0.78    0.19
  -7   2  10    1.03    0.22
  -7   2  10    0.81    0.27
   6  -2 -10    0.26    0.18
   6  -2 -10    0.49    0.20
   6  -2 -10    0.34    0.11
  -6   2  10    0.43    0.16
  -6   2  10    0.47    0.17
  -6   2  10    0.54    0.17
  -6   2  10    0.60    0.19
   5  -2 -10    1.25    0.24
   5  -2 -10    0.67    0.14
   5  -2 -10    0.87    0.23
  -5   2  10    0.80    0.18
  -5   2  10    0.69    0.19
  -5   2  10    0.94    0.22
   4  -2 -10    3.09    0.34
   4  -2 -10    3.08    0.26
   4  -2 -10    3.69    0.37
   4  -2 -10    2.68    0.33
  -4   2  10    3.54    0.36
  -4   2  10    3.49    0.36
  -4   2  10    3.55    0.35
   3  -2 -10    1.54    0.25
   3  -2 -10    0.95    0.18
  -3   2  10    1.13    0.20
  -3   2  10    1.94    0.29
   2  -2 -10    1.43    0.21
   2  -2 -10    1.34    0.21
   2  -2 -10    1.31    0.23
   2  -2 -10    1.36    0.25
  -2   2  10    1.63    0.27
  -2   2  10    1.59    0.27
   1  -2 -10   26.13    0.94
   1  -2 -10   26.79    0.82
   1  -2 -10   24.16    0.90
   1  -2 -10   24.62    0.84
  -1   2  10   26.22    0.94
  -1   2  10   23.97    0.90
   0  -2 -10    9.53    0.51
   0  -2 -10    9.78    0.55
   0  -2 -10   10.97    0.59
   0  -2 -10    8.97    0.49
   0   2  10    9.70    0.56
   0   2  10    9.19    0.37
   0   2  10    9.53    0.53
  -1  -2 -10    2.85    0.35
  -1  -2 -10    3.37    0.38
  -1  -2 -10    3.28    0.38
  -1  -2 -10    4.18    0.41
   1   2  10    3.29    0.23
   1   2  10    2.99    0.36
   1   2  10    2.42    0.24
   1   2  10    3.10    0.39
  -2  -2 -10    0.01    0.12
  -2  -2 -10    0.23    0.19
  -2  -2 -10    0.16    0.18
   2   2  10    0.00    0.08
   2   2  10   -0.09    0.14
  -3  -2 -10    2.95    0.37
  -3  -2 -10    3.20    0.40
  -3  -2 -10    3.20    0.37
   3   2  10    2.34    0.25
  -4  -2 -10    0.21    0.18
  -4  -2 -10    0.26    0.16
  -4  -2 -10    0.15    0.20
   4   2  10    0.32    0.13
   4   2  10    0.42    0.16
  -5  -2 -10    1.66    0.26
  -5  -2 -10    2.37    0.34
  -5  -2 -10    2.90    0.38
   5   2  10    1.30    0.22
   5   2  10    2.23    0.32
   8  -3 -10    0.09    0.13
   8  -3 -10    0.13    0.19
   8  -3 -10    0.06    0.17
  -8   3  10   -0.08    0.13
  -8   3  10   -0.13    0.12
   7  -3 -10    2.13    0.32
   7  -3 -10    2.02    0.30
  -7   3  10    2.17    0.32
  -7   3  10    1.94    0.29
  -7   3  10    1.69    0.25
  -7   3  10    2.31    0.46
   6  -3 -10    1.58    0.26
   6  -3 -10    1.34    0.38
   6  -3 -10    1.08    0.17
   6  -3 -10    1.05    0.30
  -6   3  10    1.19    0.19
  -6   3  10    1.62    0.23
  -6   3  10    1.64    0.29
  -6   3  10    1.26    0.21
  -6   3  10    1.20    0.24
   5  -3 -10    0.10    0.21
   5  -3 -10    0.11    0.12
   5  -3 -10    0.05    0.14
  -5   3  10   -0.03    0.10
  -5   3  10    0.10    0.13
  -5   3  10    0.13    0.17
  -5   3  10    0.07    0.17
  -5   3  10   -0.22    0.09
   4  -3 -10    0.28    0.14
   4  -3 -10    0.48    0.19
   4  -3 -10   -0.10    0.15
  -4   3  10    0.23    0.13
  -4   3  10    0.53    0.20
  -4   3  10    0.03    0.15
  -4   3  10    0.40    0.10
   3  -3 -10    0.50    0.15
   3  -3 -10    0.60    0.20
  -3   3  10    0.57    0.09
  -3   3  10    0.66    0.20
  -3   3  10    0.57    0.18
   2  -3 -10    0.83    0.23
   2  -3 -10    0.65    0.16
   2  -3 -10    0.78    0.22
   2  -3 -10    0.47    0.11
  -2   3  10    0.79    0.21
  -2   3  10    1.03    0.21
   1  -3 -10    7.47    0.44
   1  -3 -10    6.96    0.43
   1  -3 -10    7.74    0.66
   1  -3 -10    8.65    0.53
  -1   3  10    8.19    0.49
  -1   3  10    7.94    0.52
   0  -3 -10    2.92    0.37
   0  -3 -10    1.73    0.26
   0  -3 -10    3.23    0.39
   0  -3 -10    1.95    0.24
   0   3  10    3.09    0.34
   0   3  10    2.56    0.36
  -1  -3 -10   -0.01    0.17
  -1  -3 -10    0.10    0.12
  -1  -3 -10   -0.02    0.16
   1   3  10    0.05    0.15
   1   3  10   -0.02    0.07
  -2  -3 -10    0.06    0.13
  -2  -3 -10    0.05    0.16
  -2  -3 -10   -0.36    0.15
   2   3  10    0.02    0.08
  -3  -3 -10    1.13    0.26
  -3  -3 -10    0.75    0.27
   3   3  10    1.51    0.27
  -4  -3 -10   -0.12    0.17
  -4  -3 -10    0.12    0.14
  -4  -3 -10    0.38    0.24
   4   3  10   -0.03    0.12
  -5  -3 -10    0.25    0.19
  -5  -3 -10    0.70    0.28
  -5  -3 -10    0.53    0.23
   5   3  10    0.43    0.13
   5   3  10    0.23    0.14
   5   3  10    0.35    0.20
   8  -4 -10    0.39    0.19
   8  -4 -10    0.17    0.14
   8  -4 -10    0.17    0.20
  -8   4  10    0.37    0.19
  -8   4  10    0.19    0.15
  -8   4  10   -0.06    0.15
   7  -4 -10    0.03    0.14
   7  -4 -10    0.08    0.17
   7  -4 -10    0.02    0.13
   7  -4 -10   -0.17    0.20
  -7   4  10    0.04    0.14
  -7   4  10   -0.05    0.13
  -7   4  10    0.02    0.13
  -7   4  10   -0.06    0.17
   6  -4 -10   -0.13    0.14
   6  -4 -10   -0.09    0.16
   6  -4 -10   -0.13    0.11
   6  -4 -10   -0.13    0.14
  -6   4  10   -0.21    0.16
  -6   4  10   -0.32    0.18
  -6   4  10   -0.07    0.11
  -6   4  10   -0.23    0.22
  -6   4  10   -0.10    0.11
   5  -4 -10    0.13    0.19
   5  -4 -10    0.07    0.14
   5  -4 -10   -0.10    0.13
   5  -4 -10   -0.12    0.10
  -5   4  10   -0.10    0.14
  -5   4  10   -0.15    0.10
  -5   4  10    0.16    0.18
  -5   4  10   -0.03    0.11
   4  -4 -10    0.48    0.17
   4  -4 -10    1.24    0.24
  -4   4  10    0.65    0.14
  -4   4  10    0.54    0.20
  -4   4  10    1.08    0.23
   3  -4 -10    2.48    0.31
   3  -4 -10    2.72    0.37
  -3   4  10    2.73    0.35
  -3   4  10    2.90    0.34
  -3   4  10    2.85    0.22
   2  -4 -10   -0.14    0.11
   2  -4 -10   -0.06    0.17
   2  -4 -10   -0.13    0.09
   2  -4 -10   -0.10    0.17
  -2   4  10    0.01    0.14
  -2   4  10   -0.01    0.15
   1  -4 -10    1.78    0.21
   1  -4 -10    1.99    0.35
   1  -4 -10    2.85    0.38
  -1   4  10    2.70    0.35
  -1   4  10    2.01    0.31
   0  -4 -10    4.46    0.45
   0  -4 -10    4.26    0.43
   0  -4 -10    4.10    0.37
   0  -4 -10    3.97    0.36
   0   4  10    3.68    0.39
   0   4  10    4.20    0.42
  -1  -4 -10    0.85    0.23
  -1  -4 -10    0.49    0.15
  -1  -4 -10    0.54    0.22
   1   4  10    0.70    0.14
  -2  -4 -10   -0.01    0.20
  -2  -4 -10   -0.01    0.13
  -2  -4 -10   -0.07    0.20
   2   4  10    0.21    0.14
  -3  -4 -10   -0.07    0.14
  -3  -4 -10    0.17    0.19
  -3  -4 -10    0.28    0.23
   3   4  10    0.08    0.14
  -4  -4 -10    0.48    0.27
  -4  -4 -10    0.09    0.21
  -4  -4 -10   -0.27    0.14
   4   4  10    0.18    0.18
   8  -5 -10   -0.19    0.20
  -8   5  10    0.19    0.16
   7  -5 -10   -0.03    0.13
   7  -5 -10   -0.19    0.18
   7  -5 -10   -0.08    0.19
   7  -5 -10    0.21    0.18
  -7   5  10   -0.35    0.16
  -7   5  10   -0.19    0.12
  -7   5  10   -0.01    0.15
  -7   5  10    0.15    0.11
   6  -5 -10    0.70    0.17
   6  -5 -10    0.66    0.19
   6  -5 -10    1.09    0.25
   6  -5 -10    0.88    0.22
  -6   5  10    0.82    0.22
  -6   5  10    1.26    0.27
  -6   5  10    0.44    0.13
  -6   5  10    0.63    0.18
   5  -5 -10   -0.20    0.12
   5  -5 -10    0.18    0.18
   5  -5 -10    0.16    0.15
  -5   5  10    0.03    0.11
  -5   5  10   -0.01    0.18
  -5   5  10    0.16    0.28
   4  -5 -10    1.15    0.20
   4  -5 -10    1.79    0.31
  -4   5  10    1.69    0.23
  -4   5  10    2.02    0.33
  -4   5  10    2.02    0.31
   3  -5 -10    0.18    0.11
   3  -5 -10    0.08    0.19
   3  -5 -10    0.19    0.13
  -3   5  10    0.44    0.14
  -3   5  10    0.36    0.19
  -3   5  10    0.41    0.21
   2  -5 -10   -0.03    0.12
   2  -5 -10    0.05    0.13
   2  -5 -10   -0.12    0.16
  -2   5  10    0.19    0.18
  -2   5  10   -0.01    0.08
   1  -5 -10    0.28    0.16
   1  -5 -10    0.38    0.22
   1  -5 -10    0.06    0.12
  -1   5  10    0.35    0.14
  -1   5  10    0.46    0.22
   0  -5 -10    0.03    0.18
   0  -5 -10   -0.08    0.12
   0   5  10    0.19    0.16
   0   5  10    0.09    0.09
  -1  -5 -10    0.31    0.16
  -1  -5 -10    0.71    0.27
   1   5  10    0.72    0.21
  -2  -5 -10   -0.06    0.15
  -2  -5 -10    0.00    0.18
   2   5  10    0.37    0.17
  -3  -5 -10    0.46    0.20
  -3  -5 -10    0.98    0.24
   3   5  10    0.49    0.21
   7  -6 -10   -0.12    0.14
   7  -6 -10   -0.04    0.22
   7  -6 -10   -0.07    0.14
  -7   6  10    0.08    0.16
  -7   6  10    0.74    0.25
  -7   6  10    0.15    0.16
   6  -6 -10    0.49    0.19
   6  -6 -10    0.69    0.24
   6  -6 -10    0.32    0.16
   6  -6 -10    0.11    0.16
  -6   6  10    0.45    0.23
  -6   6  10    0.67    0.21
  -6   6  10    0.03    0.15
   5  -6 -10    0.12    0.16
   5  -6 -10   -0.11    0.20
  -5   6  10    0.03    0.14
  -5   6  10    0.12    0.14
  -5   6  10   -0.33    0.16
   4  -6 -10    0.41    0.22
   4  -6 -10   -0.12    0.13
  -4   6  10    0.12    0.12
  -4   6  10   -0.17    0.13
  -4   6  10    0.19    0.30
   3  -6 -10   -0.10    0.13
   3  -6 -10   -0.02    0.12
   3  -6 -10   -0.02    0.19
  -3   6  10   -0.06    0.19
  -3   6  10   -0.18    0.11
  -3   6  10    0.02    0.10
   2  -6 -10    0.70    0.16
   2  -6 -10    0.73    0.25
   2  -6 -10    0.46    0.17
  -2   6  10    0.58    0.12
  -2   6  10    1.02    0.25
  -2   6  10    0.68    0.17
   1  -6 -10    0.92    0.28
   1  -6 -10    0.80    0.18
   1  -6 -10    0.49    0.25
  -1   6  10    0.89    0.24
  -1   6  10    0.84    0.18
   0  -6 -10    0.70    0.24
   0  -6 -10    0.41    0.16
   0   6  10    0.24    0.12
   0   6  10    0.46    0.21
  -1  -6 -10   -0.14    0.14
  -1  -6 -10    0.01    0.20
   1   6  10    0.05    0.08
   1   6  10    0.18    0.16
  -2  -6 -10   -0.13    0.15
  -2  -6 -10   -0.38    0.17
   2   6  10    0.01    0.17
   7  -7 -10    0.09    0.18
   7  -7 -10    0.19    0.16
   7  -7 -10    0.06    0.27
  -7   7  10   -0.11    0.17
  -7   7  10    0.01    0.19
   6  -7 -10    0.19    0.22
   6  -7 -10   -0.15    0.15
   6  -7 -10   -0.39    0.17
   6  -7 -10   -0.11    0.13
  -6   7  10    0.07    0.19
  -6   7  10    0.04    0.17
  -6   7  10    0.13    0.21
   5  -7 -10   -0.29    0.16
   5  -7 -10   -0.08    0.21
   5  -7 -10    0.22    0.13
  -5   7  10   -0.05    0.14
  -5   7  10   -0.26    0.13
  -5   7  10   -0.01    0.18
  -5   7  10   -0.11    0.19
   4  -7 -10    0.10    0.12
   4  -7 -10   -0.08    0.13
   4  -7 -10   -0.08    0.22
   4  -7 -10   -0.28    0.14
  -4   7  10   -0.09    0.13
  -4   7  10   -0.07    0.18
  -4   7  10    0.14    0.12
  -4   7  10   -0.47    0.19
   3  -7 -10   -0.08    0.20
   3  -7 -10   -0.13    0.12
   3  -7 -10   -0.48    0.29
   3  -7 -10   -0.09    0.12
  -3   7  10   -0.17    0.11
  -3   7  10    0.17    0.21
  -3   7  10    0.00    0.12
   2  -7 -10    3.16    0.39
   2  -7 -10    4.61    0.51
   2  -7 -10    4.23    0.41
  -2   7  10    4.16    0.43
  -2   7  10    4.36    0.40
  -2   7  10    4.46    0.44
   1  -7 -10    0.05    0.19
   1  -7 -10   -0.08    0.14
  -1   7  10    0.24    0.19
  -1   7  10    0.19    0.12
   0  -7 -10   -0.01    0.15
   0  -7 -10    0.11    0.21
   0   7  10    0.27    0.12
   0   7  10    0.25    0.19
  -1  -7 -10    0.02    0.24
  -1  -7 -10   -0.03    0.16
   1   7  10   -0.06    0.16
   6  -8 -10   -0.11    0.17
   6  -8 -10    0.32    0.17
   6  -8 -10    0.13    0.28
  -6   8  10    0.07    0.17
  -6   8  10   -0.27    0.17
  -6   8  10   -0.01    0.21
   5  -8 -10   -0.28    0.23
   5  -8 -10   -0.23    0.14
  -5   8  10    0.34    0.17
  -5   8  10    0.00    0.20
   4  -8 -10    0.51    0.26
   4  -8 -10    0.19    0.14
   4  -8 -10    0.46    0.15
  -4   8  10    0.21    0.16
  -4   8  10    0.04    0.15
  -4   8  10    0.46    0.22
  -4   8  10    0.23    0.16
   3  -8 -10    0.06    0.14
   3  -8 -10   -0.13    0.18
   3  -8 -10    0.54    0.16
  -3   8  10    0.68    0.24
  -3   8  10    0.05    0.14
  -3   8  10   -0.06    0.17
  -3   8  10    0.56    0.17
   2  -8 -10    0.05    0.22
   2  -8 -10    0.11    0.14
   2  -8 -10   -0.12    0.14
  -2   8  10   -0.07    0.14
  -2   8  10   -0.13    0.13
   1  -8 -10   -0.22    0.21
   1  -8 -10    0.05    0.16
  -1   8  10   -0.02    0.10
  -1   8  10    0.14    0.19
   0  -8 -10   -0.37    0.25
   0  -8 -10   -0.19    0.17
   0   8  10   -0.13    0.15
   0   8  10    0.07    0.11
   4  -9 -10    0.15    0.15
   4  -9 -10    0.52    0.28
  -4   9  10    0.35    0.22
  -4   9  10   -0.39    0.17
   3  -9 -10    0.17    0.27
   3  -9 -10   -0.30    0.14
  -3   9  10   -0.11    0.21
   0   9 -11    0.40    0.16
   0   9 -11    1.35    0.31
   0  -9  11    1.07    0.31
   0  -9  11    0.80    0.22
  -1   9 -11    0.06    0.14
  -1   9 -11    0.25    0.21
   1  -9  11   -0.40    0.20
   1  -9  11   -0.04    0.16
  -2   9 -11    0.04    0.13
  -2   9 -11   -0.15    0.20
   2  -9  11   -0.10    0.22
   2  -9  11    0.10    0.27
  -3   9 -11    0.27    0.15
  -3   9 -11    0.64    0.24
   3  -9  11    0.13    0.21
   3  -9  11    0.51    0.18
  -4   9 -11   -0.35    0.21
  -4   9 -11    0.21    0.15
   4  -9  11    0.40    0.22
   2   8 -11    0.51    0.21
  -2  -8  11   -0.14    0.22
  -2  -8  11   -0.13    0.16
   1   8 -11   -0.06    0.17
  -1  -8  11   -0.30    0.20
  -1  -8  11   -0.21    0.15
   0   8 -11    0.42    0.25
   0   8 -11    0.30    0.12
   0  -8  11    0.41    0.22
   0  -8  11    0.33    0.20
  -1   8 -11    0.52    0.15
  -1   8 -11    0.71    0.22
   1  -8  11    0.30    0.21
  -2   8 -11    0.19    0.21
  -2   8 -11    0.34    0.15
   2  -8  11   -0.06    0.18
   2  -8  11    0.19    0.15
  -3   8 -11    0.31    0.22
  -3   8 -11    0.19    0.14
   3  -8  11    0.29    0.21
  -4   8 -11   -0.16    0.10
  -4   8 -11    0.05    0.22
  -4   8 -11   -0.12    0.19
   4  -8  11   -0.20    0.18
  -5   8 -11    0.35    0.21
  -5   8 -11    0.77    0.38
  -5   8 -11    0.19    0.14
   5  -8  11    0.44    0.21
   5  -8  11    0.19    0.15
  -3  -7  11    0.33    0.22
  -3  -7  11   -0.07    0.20
  -2  -7  11    0.25    0.22
  -2  -7  11   -0.02    0.16
   1   7 -11    0.47    0.39
  -1  -7  11    0.05    0.18
  -1  -7  11    0.41    0.19
   0   7 -11    0.10    0.22
   0   7 -11    0.12    0.13
   0  -7  11    0.07    0.15
   0  -7  11   -0.12    0.17
  -1   7 -11    0.13    0.13
  -1   7 -11    0.10    0.17
   1  -7  11    0.02    0.14
   1  -7  11   -0.15    0.19
  -2   7 -11    0.33    0.15
  -2   7 -11    0.33    0.19
  -2   7 -11    0.37    0.22
   2  -7  11    0.18    0.17
   2  -7  11    0.24    0.15
  -3   7 -11    0.19    0.18
  -3   7 -11    0.14    0.16
  -3   7 -11    0.37    0.24
   3  -7  11    0.20    0.17
  -4   7 -11    0.67    0.24
  -4   7 -11    0.59    0.25
  -4   7 -11    0.47    0.20
   4  -7  11    0.32    0.12
   4  -7  11    0.20    0.20
  -5   7 -11    0.48    0.22
  -5   7 -11   -0.02    0.14
  -5   7 -11    0.25    0.21
  -5   7 -11   -0.13    0.15
   5  -7  11    0.23    0.12
   5  -7  11   -0.24    0.19
   5  -7  11    0.31    0.16
  -6   7 -11   -0.42    0.22
  -6   7 -11    0.12    0.20
  -6   7 -11   -0.12    0.12
   6  -7  11   -0.55    0.26
   6  -7  11    0.10    0.14
   6  -7  11    0.25    0.17
   4   6 -11    0.18    0.13
   4   6 -11    0.27    0.21
  -4  -6  11    0.00    0.19
  -4  -6  11   -0.32    0.17
  -4  -6  11    0.17    0.24
   3   6 -11    0.35    0.22
  -3  -6  11    0.61    0.23
  -3  -6  11    0.36    0.19
   2   6 -11    1.33    0.27
  -2  -6  11    1.69    0.31
  -2  -6  11    1.31    0.27
   1   6 -11    1.25    0.27
  -1  -6  11    1.05    0.22
  -1  -6  11    1.28    0.29
   0   6 -11    1.37    0.30
   0  -6  11    1.13    0.26
   0  -6  11    1.01    0.23
  -1   6 -11    0.48    0.20
  -1   6 -11    0.48    0.22
  -1   6 -11    0.31    0.13
  -1   6 -11    0.26    0.23
   1  -6  11    0.28    0.15
   1  -6  11    0.48    0.20
  -2   6 -11    0.18    0.12
  -2   6 -11    0.08    0.19
  -2   6 -11   -0.18    0.14
   2  -6  11   -0.04    0.07
   2  -6  11    0.14    0.11
   2  -6  11    0.03    0.17
  -3   6 -11   -0.18    0.14
  -3   6 -11   -0.35    0.17
  -3   6 -11   -0.12    0.10
  -3   6 -11   -0.14    0.16
   3  -6  11   -0.03    0.16
   3  -6  11   -0.09    0.08
  -4   6 -11    0.17    0.11
  -4   6 -11   -0.19    0.15
  -4   6 -11   -0.21    0.11
   4  -6  11    0.10    0.09
   4  -6  11    0.15    0.16
  -5   6 -11    0.07    0.12
  -5   6 -11   -0.09    0.15
  -5   6 -11   -0.26    0.18
  -5   6 -11    0.21    0.18
   5  -6  11    0.07    0.18
   5  -6  11    0.01    0.12
   5  -6  11    0.14    0.14
  -6   6 -11    0.51    0.23
  -6   6 -11    0.52    0.15
  -6   6 -11    0.49    0.19
  -6   6 -11    0.86    0.24
   6  -6  11    0.18    0.16
   6  -6  11    0.50    0.20
   6  -6  11    0.17    0.13
   5   5 -11    0.01    0.10
   5   5 -11    0.03    0.21
  -5  -5  11   -0.30    0.21
  -5  -5  11    0.44    0.29
  -5  -5  11    0.25    0.22
  -5  -5  11    0.39    0.22
   4   5 -11   -0.33    0.19
   4   5 -11    0.18    0.13
   4   5 -11    0.53    0.22
  -4  -5  11    0.24    0.19
  -4  -5  11    0.61    0.19
  -4  -5  11    0.37    0.23
  -4  -5  11    0.87    0.25
   3   5 -11   -0.16    0.11
   3   5 -11    0.13    0.12
   3   5 -11    0.18    0.18
  -3  -5  11   -0.06    0.16
  -3  -5  11    0.07    0.13
  -3  -5  11    0.17    0.18
  -3  -5  11    0.05    0.19
   2   5 -11    3.08    0.40
   2   5 -11    2.55    0.32
  -2  -5  11    2.78    0.41
  -2  -5  11    2.65    0.38
  -2  -5  11    2.89    0.39
  -2  -5  11    2.49    0.26
   1   5 -11    0.06    0.15
  -1  -5  11    0.09    0.16
  -1  -5  11   -0.11    0.14
  -1  -5  11    0.20    0.18
   0   5 -11    0.15    0.17
   0   5 -11   -0.02    0.14
   0   5 -11   -0.08    0.10
   0   5 -11   -0.10    0.16
   0  -5  11    0.06    0.14
   0  -5  11    0.01    0.15
   0  -5  11    0.22    0.19
  -1   5 -11   -0.09    0.17
  -1   5 -11   -0.19    0.16
  -1   5 -11   -0.23    0.14
   1  -5  11    0.00    0.17
   1  -5  11    0.06    0.13
  -2   5 -11    3.42    0.38
  -2   5 -11    2.51    0.36
  -2   5 -11    2.37    0.29
  -2   5 -11    1.97    0.26
   2  -5  11    3.41    0.35
   2  -5  11    2.57    0.35
   2  -5  11    2.12    0.30
  -3   5 -11    1.04    0.22
  -3   5 -11    0.71    0.17
  -3   5 -11    1.64    0.26
  -3   5 -11    1.16    0.17
   3  -5  11    0.97    0.15
   3  -5  11    0.82    0.17
   3  -5  11    1.27    0.26
  -4   5 -11    0.06    0.10
  -4   5 -11    0.08    0.18
  -4   5 -11    0.12    0.18
  -4   5 -11   -0.28    0.12
  -4   5 -11   -0.04    0.11
   4  -5  11    0.03    0.10
   4  -5  11    0.03    0.19
   4  -5  11   -0.10    0.12
   4  -5  11    0.08    0.13
  -5   5 -11   -0.06    0.20
  -5   5 -11   -0.01    0.11
  -5   5 -11   -0.01    0.16
  -5   5 -11    0.06    0.14
   5  -5  11   -0.10    0.14
   5  -5  11   -0.02    0.12
   5  -5  11   -0.05    0.12
  -6   5 -11    0.30    0.15
  -6   5 -11    0.65    0.19
  -6   5 -11    0.50    0.22
  -6   5 -11    0.42    0.13
   6  -5  11    0.21    0.18
   6  -5  11   -0.33    0.26
   6  -5  11    0.18    0.15
   6  -5  11    0.35    0.18
   6   4 -11   -0.09    0.12
   6   4 -11    0.21    0.23
   6   4 -11    0.02    0.14
  -6  -4  11    0.07    0.21
  -6  -4  11   -0.05    0.24
  -6  -4  11   -0.05    0.18
   5   4 -11    0.67    0.29
   5   4 -11    0.54    0.24
   5   4 -11    0.39    0.14
  -5  -4  11    0.35    0.21
  -5  -4  11    0.66    0.24
  -5  -4  11    0.38    0.25
  -5  -4  11    0.94    0.27
   4   4 -11    0.10    0.11
   4   4 -11    0.16    0.19
   4   4 -11   -0.14    0.10
  -4  -4  11    0.20    0.17
  -4  -4  11    0.09    0.17
  -4  -4  11    0.20    0.21
  -4  -4  11   -0.03    0.14
   3   4 -11    4.13    0.34
   3   4 -11    6.32    0.49
   3   4 -11    5.29    0.36
  -3  -4  11    5.50    0.59
  -3  -4  11    5.84    0.51
  -3  -4  11    5.27    0.55
  -3  -4  11    4.81    0.35
   2   4 -11    0.43    0.13
   2   4 -11    0.77    0.24
  -2  -4  11    0.72    0.23
  -2  -4  11    0.68    0.22
  -2  -4  11    0.74    0.20
   1   4 -11    0.50    0.18
   1   4 -11    0.81    0.24
   1   4 -11    0.83    0.24
   1   4 -11    0.60    0.15
  -1  -4  11    0.89    0.25
  -1  -4  11    0.86    0.24
  -1  -4  11    0.48    0.18
   0   4 -11    1.71    0.30
   0   4 -11    1.81    0.28
   0   4 -11    1.14    0.20
   0  -4  11    2.14    0.33
   0  -4  11    1.33    0.22
   0  -4  11    1.82    0.28
   0  -4  11    1.07    0.17
  -1   4 -11    0.14    0.19
  -1   4 -11    0.26    0.18
   1  -4  11    0.05    0.11
   1  -4  11    0.21    0.16
   1  -4  11    0.14    0.12
   1  -4  11    0.24    0.19
  -2   4 -11    0.37    0.19
  -2   4 -11    0.20    0.14
  -2   4 -11    0.05    0.17
   2  -4  11    0.24    0.17
   2  -4  11    0.08    0.12
  -3   4 -11   -0.19    0.09
  -3   4 -11   -0.22    0.14
  -3   4 -11    0.05    0.14
   3  -4  11   -0.21    0.09
   3  -4  11   -0.07    0.15
  -4   4 -11    0.15    0.13
  -4   4 -11    0.35    0.20
  -4   4 -11    0.15    0.20
   4  -4  11    0.18    0.16
   4  -4  11    0.27    0.14
   4  -4  11   -0.13    0.10
   4  -4  11    0.03    0.11
  -5   4 -11    0.15    0.21
  -5   4 -11   -0.08    0.15
  -5   4 -11   -0.08    0.11
  -5   4 -11    0.07    0.16
   5  -4  11    0.06    0.13
   5  -4  11   -0.12    0.10
   5  -4  11    0.08    0.17
   5  -4  11    0.03    0.11
  -6   4 -11    0.12    0.21
  -6   4 -11    0.30    0.17
  -6   4 -11    0.11    0.18
  -6   4 -11   -0.33    0.13
   6  -4  11    0.06    0.17
   6  -4  11    0.09    0.14
   6  -4  11    0.23    0.13
   6   3 -11    0.06    0.15
   6   3 -11    0.16    0.17
   6   3 -11   -0.15    0.20
  -6  -3  11    0.15    0.19
  -6  -3  11   -0.05    0.22
  -6  -3  11    0.28    0.18
   5   3 -11    7.81    0.54
   5   3 -11    7.18    0.45
  -5  -3  11    6.77    0.54
  -5  -3  11    7.51    0.56
  -5  -3  11    8.19    0.54
  -5  -3  11    8.17    0.66
   4   3 -11    1.14    0.19
   4   3 -11    0.98    0.15
   4   3 -11    1.50    0.27
  -4  -3  11    0.86    0.33
  -4  -3  11    1.07    0.20
  -4  -3  11    1.40    0.37
   3   3 -11    0.91    0.15
   3   3 -11    1.65    0.28
   3   3 -11    1.17    0.18
  -3  -3  11    1.52    0.28
  -3  -3  11    1.56    0.27
  -3  -3  11    1.51    0.28
   2   3 -11    0.82    0.22
   2   3 -11    1.01    0.24
   2   3 -11    0.74    0.14
  -2  -3  11    1.71    0.29
  -2  -3  11    0.94    0.25
  -2  -3  11    0.75    0.22
   1   3 -11    0.00    0.17
   1   3 -11    0.03    0.17
   1   3 -11    0.19    0.08
   1   3 -11    0.08    0.09
   1   3 -11    0.35    0.18
  -1  -3  11    0.17    0.18
  -1  -3  11   -0.03    0.14
  -1  -3  11    0.10    0.11
   0   3 -11    0.61    0.18
   0   3 -11    1.44    0.28
   0   3 -11    0.91    0.23
   0  -3  11    1.13    0.21
   0  -3  11    1.01    0.25
   0  -3  11    0.94    0.25
   0  -3  11    0.74    0.21
  -1   3 -11    0.56    0.21
  -1   3 -11    0.44    0.15
  -1   3 -11    0.42    0.21
   1  -3  11    0.73    0.15
   1  -3  11    0.90    0.20
   1  -3  11    0.71    0.19
   1  -3  11    0.49    0.19
  -2   3 -11   -0.08    0.08
  -2   3 -11   -0.23    0.12
  -2   3 -11    0.03    0.15
  -2   3 -11    0.12    0.17
   2  -3  11   -0.21    0.09
   2  -3  11    0.08    0.14
  -3   3 -11    1.52    0.19
  -3   3 -11    2.19    0.32
  -3   3 -11    1.19    0.21
   3  -3  11    2.21    0.27
   3  -3  11    2.20    0.33
   3  -3  11    1.33    0.19
  -4   3 -11    0.78    0.22
  -4   3 -11    0.60    0.17
  -4   3 -11    0.68    0.21
   4  -3  11    0.61    0.15
   4  -3  11    1.02    0.23
   4  -3  11    0.47    0.13
   4  -3  11    0.67    0.17
  -5   3 -11   -0.27    0.16
  -5   3 -11    0.17    0.18
  -5   3 -11   -0.10    0.13
   5  -3  11   -0.13    0.10
   5  -3  11    0.15    0.15
   5  -3  11   -0.03    0.15
   5  -3  11   -0.07    0.10
  -6   3 -11    0.24    0.18
  -6   3 -11    0.10    0.16
  -6   3 -11   -0.05    0.19
   6  -3  11   -0.02    0.13
   6  -3  11   -0.07    0.16
   6  -3  11    0.01    0.13
   7   2 -11    0.20    0.17
   7   2 -11    0.16    0.16
  -7  -2  11    0.34    0.24
  -7  -2  11    0.11    0.20
  -7  -2  11   -0.18    0.20
   6   2 -11    0.42    0.18
   6   2 -11    0.32    0.21
   6   2 -11    0.24    0.14
  -6  -2  11    0.16    0.18
  -6  -2  11    0.17    0.19
  -6  -2  11    0.56    0.24
   5   2 -11    0.78    0.18
   5   2 -11    2.33    0.34
  -5  -2  11    1.36    0.27
  -5  -2  11    1.57    0.29
   4   2 -11    5.81    0.46
   4   2 -11    4.88    0.36
  -4  -2  11    5.20    0.43
  -4  -2  11    3.79    0.40
  -4  -2  11    4.40    0.47
   3   2 -11    0.15    0.18
   3   2 -11   -0.07    0.09
  -3  -2  11    0.15    0.16
  -3  -2  11   -0.09    0.14
  -3  -2  11    0.06    0.17
   2   2 -11    2.17    0.30
   2   2 -11    2.89    0.36
   2   2 -11    2.49    0.24
   2   2 -11    2.85    0.21
  -2  -2  11    2.63    0.35
  -2  -2  11    2.75    0.33
  -2  -2  11    2.46    0.33
  -2  -2  11    2.85    0.29
   1   2 -11    1.63    0.37
   1   2 -11    1.17    0.23
  -1  -2  11    1.09    0.24
  -1  -2  11    1.06    0.22
  -1  -2  11    1.03    0.20
  -1  -2  11    1.04    0.21
   0   2 -11    0.19    0.18
   0   2 -11    0.28    0.19
   0   2 -11    0.21    0.14
   0  -2  11    0.07    0.16
   0  -2  11    0.43    0.16
   0  -2  11    0.29    0.10
  -1   2 -11    0.17    0.19
  -1   2 -11    0.05    0.19
  -1   2 -11    0.07    0.12
   1  -2  11    0.37    0.18
   1  -2  11   -0.04    0.15
   1  -2  11    0.30    0.10
  -2   2 -11    0.21    0.16
  -2   2 -11    0.07    0.12
  -2   2 -11    0.30    0.16
  -2   2 -11    0.20    0.10
   2  -2  11    0.32    0.17
   2  -2  11    0.13    0.09
  -3   2 -11    0.16    0.17
  -3   2 -11    0.00    0.12
  -3   2 -11   -0.11    0.15
  -3   2 -11   -0.25    0.13
   3  -2  11    0.06    0.16
   3  -2  11    0.01    0.10
   3  -2  11   -0.11    0.08
  -4   2 -11    0.42    0.21
  -4   2 -11    0.08    0.16
  -4   2 -11   -0.10    0.15
   4  -2  11    0.18    0.12
   4  -2  11   -0.11    0.13
   4  -2  11    0.06    0.09
  -5   2 -11   -0.03    0.14
  -5   2 -11   -0.05    0.17
   5  -2  11    0.15    0.15
   5  -2  11   -0.24    0.18
   5  -2  11   -0.13    0.10
  -6   2 -11    0.17    0.17
  -6   2 -11   -0.30    0.21
   6  -2  11    0.02    0.14
   6  -2  11    0.01    0.12
   6  -2  11   -0.07    0.14
   7   1 -11    3.35    0.42
   7   1 -11    2.90    0.37
   7   1 -11    3.56    0.45
  -7  -1  11    2.77    0.36
  -7  -1  11    3.28    0.48
  -7  -1  11    3.22    0.39
   6   1 -11    0.20    0.18
   6   1 -11    0.17    0.13
   6   1 -11    0.17    0.15
  -6  -1  11    0.26    0.19
  -6  -1  11    0.15    0.18
  -6  -1  11    0.04    0.15
   5   1 -11    0.69    0.17
   5   1 -11    1.36    0.28
  -5  -1  11    1.11    0.24
  -5  -1  11    0.74    0.22
  -5  -1  11    0.56    0.36
   4   1 -11    0.02    0.18
   4   1 -11    0.07    0.10
  -4  -1  11    0.10    0.15
  -4  -1  11    0.12    0.15
  -4  -1  11    0.10    0.15
   3   1 -11    0.00    0.14
   3   1 -11    0.18    0.10
   3   1 -11    0.16    0.18
   3   1 -11    0.15    0.08
  -3  -1  11    0.27    0.18
  -3  -1  11   -0.10    0.14
  -3  -1  11    0.29    0.16
  -3  -1  11    0.06    0.11
   2   1 -11    0.71    0.20
   2   1 -11    0.54    0.20
   2   1 -11    0.66    0.19
  -2  -1  11    0.65    0.17
  -2  -1  11    0.70    0.22
  -2  -1  11    0.54    0.16
  -2  -1  11    0.45    0.18
   1   1 -11   -0.06    0.15
   1   1 -11   -0.13    0.15
  -1  -1  11   -0.06    0.13
  -1  -1  11    0.07    0.09
  -1  -1  11   -0.05    0.13
  -1  -1  11    0.10    0.13
   0   1 -11    1.23    0.25
   0   1 -11    1.19    0.26
   0  -1  11    1.14    0.17
   0  -1  11    1.39    0.43
   0  -1  11    1.26    0.25
  -1   1 -11    2.47    0.36
  -1   1 -11    2.84    0.23
  -1   1 -11    2.65    0.33
   1  -1  11    2.36    0.34
   1  -1  11    2.78    0.24
   1  -1  11    2.54    0.34
  -2   1 -11    0.42    0.13
  -2   1 -11    0.61    0.21
  -2   1 -11    0.28    0.16
  -2   1 -11    0.78    0.22
  -2   1 -11    0.68    0.17
   2  -1  11    0.73    0.20
   2  -1  11    0.70    0.14
   2  -1  11    0.50    0.12
  -3   1 -11    0.16    0.14
  -3   1 -11    0.39    0.20
  -3   1 -11    0.33    0.19
  -3   1 -11    0.19    0.12
   3  -1  11    0.03    0.08
   3  -1  11    0.11    0.10
   3  -1  11    0.51    0.18
  -4   1 -11    0.84    0.34
  -4   1 -11    0.72    0.24
  -4   1 -11    1.00    0.20
   4  -1  11    1.01    0.23
   4  -1  11    0.61    0.16
  -5   1 -11    0.34    0.19
  -5   1 -11    0.54    0.21
  -5   1 -11    0.21    0.21
   5  -1  11    0.52    0.34
   5  -1  11    0.34    0.14
   5  -1  11    0.31    0.16
  -6   1 -11   -0.28    0.20
  -6   1 -11    0.34    0.18
  -6   1 -11   -0.03    0.17
   6  -1  11    0.05    0.11
   6  -1  11   -0.06    0.13
   7   0 -11    2.68    0.41
   7   0 -11    1.47    0.28
   7   0 -11    1.07    0.27
  -7   0  11    1.34    0.25
  -7   0  11    1.83    0.30
  -7   0  11    2.25    0.33
   6   0 -11    0.34    0.18
   6   0 -11    0.36    0.14
   6   0 -11    0.60    0.31
  -6   0  11    0.04    0.26
  -6   0  11    0.56    0.20
  -6   0  11    0.57    0.19
   5   0 -11   -0.07    0.10
   5   0 -11   -0.12    0.16
  -5   0  11   -0.06    0.14
  -5   0  11    0.05    0.15
  -5   0  11   -0.16    0.15
   4   0 -11   -0.14    0.15
   4   0 -11    0.05    0.10
   4   0 -11   -0.20    0.13
  -4   0  11    0.21    0.16
  -4   0  11    0.00    0.16
  -4   0  11    0.10    0.14
   3   0 -11    0.73    0.18
   3   0 -11    1.37    0.18
   3   0 -11    1.06    0.25
  -3   0  11    1.20    0.26
  -3   0  11    0.76    0.15
  -3   0  11    1.15    0.22
  -3   0  11    0.95    0.19
   2   0 -11    2.63    0.35
   2   0 -11    2.52    0.26
   2   0 -11    2.37    0.33
   2   0 -11    2.33    0.34
  -2   0  11    2.37    0.33
  -2   0  11    2.69    0.33
  -2   0  11    2.43    0.32
  -2   0  11    2.08    0.30
   1   0 -11    0.50    0.14
   1   0 -11    0.63    0.22
   1   0 -11    0.99    0.20
   1   0 -11    1.02    0.25
  -1   0  11    1.25    0.21
  -1   0  11    1.16    0.26
  -1   0  11    0.90    0.14
  -1   0  11    0.97    0.25
   0   0 -11    5.36    0.46
   0   0 -11    5.37    0.48
   0   0 -11    5.81    0.44
   0   0  11    5.75    0.48
   0   0  11    5.48    0.32
  -1   0 -11    3.06    0.39
  -1   0 -11    3.88    0.38
  -1   0 -11    3.69    0.41
   1   0  11    3.92    0.27
   1   0  11    3.92    0.39
   1   0  11    3.27    0.39
  -2   0 -11   -0.08    0.11
  -2   0 -11   -0.06    0.15
  -2   0 -11    0.09    0.16
   2   0  11    0.20    0.09
   2   0  11    0.06    0.14
   2   0  11    0.02    0.07
  -3   0 -11    0.08    0.14
  -3   0 -11   -0.04    0.11
  -3   0 -11   -0.23    0.16
  -3   0 -11    0.01    0.17
   3   0  11    0.12    0.17
   3   0  11   -0.07    0.09
   3   0  11   -0.09    0.07
  -4   0 -11    0.03    0.17
  -4   0 -11   -0.08    0.19
  -4   0 -11    0.14    0.14
   4   0  11    0.23    0.11
   4   0  11    0.35    0.17
  -5   0 -11    0.10    0.16
  -5   0 -11   -0.13    0.17
  -5   0 -11   -0.22    0.21
   5   0  11   -0.27    0.11
   5   0  11   -0.02    0.10
  -6   0 -11   -0.10    0.17
  -6   0 -11   -0.38    0.17
  -6   0 -11   -0.15    0.23
   6   0  11    0.18    0.17
   6   0  11   -0.01    0.18
   6   0  11    0.02    0.11
   7  -1 -11    0.27    0.19
   7  -1 -11   -0.24    0.13
   7  -1 -11    0.23    0.17
  -7   1  11    0.12    0.19
  -7   1  11    0.22    0.18
  -7   1  11    0.22    0.17
   6  -1 -11   -0.12    0.09
   6  -1 -11    0.36    0.34
   6  -1 -11   -0.11    0.10
   6  -1 -11    0.07    0.15
  -6   1  11   -0.07    0.13
  -6   1  11   -0.04    0.14
  -6   1  11    0.31    0.16
   5  -1 -11    0.51    0.22
   5  -1 -11    0.38    0.12
  -5   1  11    0.37    0.19
  -5   1  11    0.40    0.17
  -5   1  11    0.25    0.18
   4  -1 -11    1.07    0.20
   4  -1 -11    1.69    0.29
  -4   1  11    1.42    0.25
  -4   1  11    1.01    0.24
  -4   1  11    1.15    0.21
   3  -1 -11    1.12    0.26
   3  -1 -11    0.89    0.18
  -3   1  11    1.15    0.21
  -3   1  11    1.50    0.30
  -3   1  11    1.30    0.25
   2  -1 -11    0.18    0.10
   2  -1 -11    0.38    0.20
   2  -1 -11    0.33    0.18
   2  -1 -11    0.31    0.18
  -2   1  11    0.31    0.14
  -2   1  11    0.41    0.19
  -2   1  11    0.39    0.18
   1  -1 -11    0.55    0.37
   1  -1 -11    0.46    0.16
   1  -1 -11    0.47    0.14
   1  -1 -11    0.69    0.23
  -1   1  11    0.67    0.24
  -1   1  11    0.46    0.22
  -1   1  11    0.59    0.13
   0  -1 -11   21.23    0.86
   0  -1 -11   21.35    0.79
   0  -1 -11   20.90    0.87
   0  -1 -11   19.16    0.76
   0   1  11   20.06    0.68
   0   1  11   20.04    0.84
   0   1  11   21.09    0.87
  -1  -1 -11    0.50    0.15
  -1  -1 -11    0.54    0.20
  -1  -1 -11    0.75    0.22
   1   1  11    0.54    0.18
   1   1  11    0.45    0.12
   1   1  11    0.46    0.10
  -2  -1 -11    0.17    0.14
  -2  -1 -11   -0.05    0.15
  -2  -1 -11   -0.12    0.17
   2   1  11    0.00    0.09
   2   1  11   -0.07    0.06
   2   1  11   -0.06    0.12
  -3  -1 -11    0.48    0.36
  -3  -1 -11    0.42    0.16
  -3  -1 -11   -0.03    0.19
   3   1  11    0.36    0.19
   3   1  11    0.34    0.12
  -4  -1 -11   -0.14    0.20
  -4  -1 -11   -0.09    0.14
  -4  -1 -11    0.43    0.20
   4   1  11    0.22    0.11
  -5  -1 -11    0.60    0.26
  -5  -1 -11    0.63    0.23
  -5  -1 -11    0.36    0.19
   5   1  11    0.47    0.15
   5   1  11    0.36    0.14
   5   1  11    0.64    0.22
   8  -2 -11    0.26    0.19
   8  -2 -11    0.04    0.22
  -8   2  11    0.06    0.13
  -8   2  11   -0.12    0.15
  -8   2  11    0.06    0.22
   7  -2 -11    1.18    0.25
   7  -2 -11    0.84    0.24
   7  -2 -11    0.81    0.15
  -7   2  11    0.76    0.21
  -7   2  11    0.38    0.23
  -7   2  11    0.77    0.23
   6  -2 -11    0.29    0.36
   6  -2 -11    0.23    0.16
   6  -2 -11    0.15    0.11
  -6   2  11    0.21    0.30
  -6   2  11    0.38    0.17
  -6   2  11    0.52    0.18
  -6   2  11    0.08    0.14
   5  -2 -11   -0.04    0.09
   5  -2 -11    0.18    0.19
   5  -2 -11   -0.27    0.15
  -5   2  11    0.01    0.16
  -5   2  11    0.00    0.13
  -5   2  11   -0.06    0.15
   4  -2 -11    0.28    0.18
   4  -2 -11   -0.04    0.15
   4  -2 -11   -0.10    0.13
  -4   2  11    0.08    0.14
  -4   2  11    0.06    0.13
  -4   2  11    0.26    0.17
   3  -2 -11    0.01    0.19
   3  -2 -11   -0.07    0.15
  -3   2  11    0.00    0.12
  -3   2  11    0.11    0.15
  -3   2  11   -0.01    0.16
   2  -2 -11    0.68    0.20
   2  -2 -11    1.29    0.26
   2  -2 -11    0.81    0.13
   2  -2 -11    0.82    0.23
  -2   2  11    1.06    0.24
  -2   2  11    1.25    0.25
   1  -2 -11   25.18    0.98
   1  -2 -11   28.74    1.04
   1  -2 -11   24.49    0.90
   1  -2 -11   28.23    0.88
  -1   2  11   27.60    1.12
  -1   2  11   27.09    1.01
   0  -2 -11    8.68    0.52
   0  -2 -11   11.66    0.65
   0  -2 -11   10.52    0.72
   0  -2 -11   10.55    0.54
   0   2  11   10.16    0.59
   0   2  11    9.78    0.44
   0   2  11   10.11    0.58
   0   2  11    9.92    0.39
  -1  -2 -11   -0.15    0.24
  -1  -2 -11    0.21    0.14
  -1  -2 -11    0.05    0.18
   1   2  11    0.23    0.16
   1   2  11    0.18    0.09
   1   2  11    0.06    0.08
  -2  -2 -11    0.51    0.17
  -2  -2 -11    0.67    0.25
  -2  -2 -11    0.87    0.25
   2   2  11    0.71    0.14
   2   2  11    0.59    0.22
   2   2  11    0.66    0.10
  -3  -2 -11   -0.22    0.19
  -3  -2 -11   -0.05    0.17
  -3  -2 -11    0.30    0.19
   3   2  11   -0.06    0.09
  -4  -2 -11    0.69    0.22
  -4  -2 -11    0.69    0.21
   4   2  11    0.47    0.18
  -5  -2 -11    0.54    0.21
  -5  -2 -11   -0.08    0.26
  -5  -2 -11    0.63    0.24
   5   2  11    0.80    0.23
   5   2  11    0.22    0.14
   8  -3 -11    0.18    0.18
   8  -3 -11    0.02    0.22
   8  -3 -11    0.32    0.15
  -8   3  11    0.18    0.15
  -8   3  11    0.26    0.17
  -8   3  11    0.21    0.20
   7  -3 -11   -0.22    0.18
   7  -3 -11    0.14    0.18
  -7   3  11    0.38    0.19
  -7   3  11    0.18    0.15
   6  -3 -11    0.07    0.19
   6  -3 -11    0.11    0.19
   6  -3 -11    0.15    0.12
   6  -3 -11    0.16    0.16
  -6   3  11    0.09    0.13
  -6   3  11    0.05    0.18
  -6   3  11    0.42    0.20
  -6   3  11    0.32    0.15
   5  -3 -11    0.13    0.11
   5  -3 -11    0.37    0.21
   5  -3 -11   -0.18    0.15
  -5   3  11    0.30    0.23
  -5   3  11    0.10    0.16
  -5   3  11    0.06    0.13
  -5   3  11    0.08    0.11
   4  -3 -11    0.69    0.19
   4  -3 -11    0.66    0.25
  -4   3  11    0.83    0.22
  -4   3  11    0.59    0.16
  -4   3  11    1.04    0.24
   3  -3 -11   10.64    0.67
   3  -3 -11   12.57    0.66
  -3   3  11   12.05    0.65
  -3   3  11   12.08    0.64
   2  -3 -11    0.33    0.18
   2  -3 -11    0.20    0.11
   2  -3 -11   -0.09    0.13
   2  -3 -11    0.08    0.18
  -2   3  11    0.26    0.17
  -2   3  11    0.40    0.32
   1  -3 -11   11.84    0.58
   1  -3 -11   11.99    0.66
   1  -3 -11   12.28    0.58
   1  -3 -11   14.23    0.70
  -1   3  11   12.31    0.65
  -1   3  11   13.52    0.69
   0  -3 -11    5.65    0.49
   0  -3 -11    4.41    0.46
   0  -3 -11    4.88    0.40
   0   3  11    4.80    0.44
  -1  -3 -11    0.95    0.17
  -1  -3 -11    1.66    0.28
  -1  -3 -11    1.31    0.29
   1   3  11    1.05    0.14
   1   3  11    1.18    0.27
  -2  -3 -11   -0.04    0.13
  -2  -3 -11   -0.18    0.20
  -2  -3 -11   -0.04    0.17
   2   3  11   -0.08    0.07
  -3  -3 -11    0.16    0.23
  -3  -3 -11    0.47    0.19
  -3  -3 -11    0.62    0.23
   3   3  11    0.54    0.19
  -4  -3 -11    0.14    0.18
  -4  -3 -11    0.38    0.23
  -4  -3 -11    0.91    0.29
   4   3  11    0.32    0.20
   7  -4 -11    0.04    0.15
   7  -4 -11    0.30    0.21
   7  -4 -11   -0.08    0.13
  -7   4  11    0.07    0.12
  -7   4  11    0.00    0.20
  -7   4  11    0.01    0.17
  -7   4  11   -0.16    0.15
   6  -4 -11   -0.18    0.16
   6  -4 -11    0.06    0.20
   6  -4 -11   -0.10    0.15
   6  -4 -11    0.16    0.14
  -6   4  11    0.06    0.25
  -6   4  11    0.20    0.18
  -6   4  11    0.13    0.13
  -6   4  11    0.11    0.14
  -6   4  11    0.08    0.17
   5  -4 -11    0.31    0.17
   5  -4 -11    0.52    0.23
   5  -4 -11    0.22    0.13
   5  -4 -11    0.47    0.22
  -5   4  11    0.14    0.20
  -5   4  11    0.18    0.13
  -5   4  11    0.46    0.18
   4  -4 -11    1.06    0.25
   4  -4 -11    0.59    0.23
  -4   4  11    0.88    0.25
  -4   4  11    1.12    0.28
  -4   4  11    0.63    0.13
   3  -4 -11    0.57    0.21
   3  -4 -11    0.46    0.17
  -3   4  11    0.44    0.19
  -3   4  11    0.48    0.24
   2  -4 -11    6.42    0.50
   2  -4 -11    4.49    0.41
   2  -4 -11    5.04    0.38
  -2   4  11    5.53    0.49
  -2   4  11    5.57    0.48
   1  -4 -11    0.19    0.16
   1  -4 -11    0.65    0.16
   1  -4 -11    1.11    0.27
  -1   4  11    0.92    0.25
   0  -4 -11   -0.01    0.13
   0  -4 -11   -0.07    0.19
   0   4  11    0.00    0.16
  -1  -4 -11    0.13    0.21
  -1  -4 -11   -0.09    0.12
   1   4  11    0.02    0.09
   1   4  11   -0.03    0.09
  -2  -4 -11    0.67    0.19
  -2  -4 -11    1.31    0.27
   2   4  11    0.97    0.24
  -3  -4 -11    0.27    0.18
  -3  -4 -11    0.39    0.21
   3   4  11    0.53    0.21
   4   4  11    0.44    0.21
   7  -5 -11    0.34    0.17
   7  -5 -11    0.37    0.37
   7  -5 -11    0.00    0.15
  -7   5  11   -0.12    0.21
  -7   5  11    0.11    0.12
  -7   5  11    0.22    0.13
  -7   5  11    0.19    0.18
   6  -5 -11   -0.08    0.14
   6  -5 -11   -0.16    0.20
   6  -5 -11   -0.06    0.12
  -6   5  11   -0.07    0.15
  -6   5  11   -0.04    0.15
   5  -5 -11    0.33    0.22
   5  -5 -11   -0.15    0.21
   5  -5 -11    0.11    0.14
   5  -5 -11   -0.13    0.20
  -5   5  11    0.23    0.18
  -5   5  11    0.07    0.20
  -5   5  11    0.10    0.12
   4  -5 -11    0.11    0.17
   4  -5 -11    1.03    0.27
  -4   5  11    0.81    0.25
  -4   5  11    0.59    0.15
  -4   5  11    0.74    0.23
   3  -5 -11    2.47    0.28
   3  -5 -11    1.85    0.25
  -3   5  11    3.23    0.41
  -3   5  11    3.01    0.54
   2  -5 -11    2.00    0.34
   2  -5 -11    2.18    0.30
  -2   5  11    1.80    0.34
   1  -5 -11    0.17    0.21
   1  -5 -11    0.10    0.12
  -1   5  11    0.04    0.12
   0  -5 -11    0.39    0.23
   0  -5 -11    0.04    0.13
   0   5  11   -0.10    0.14
   0   5  11   -0.05    0.10
  -1  -5 -11    0.27    0.21
   1   5  11    0.08    0.17
   1   5  11    0.09    0.11
  -2  -5 -11   -0.26    0.19
   2   5  11   -0.01    0.15
  -3  -5 -11   -0.32    0.19
  -3  -5 -11   -0.19    0.20
   3   5  11   -0.06    0.17
   7  -6 -11   -0.26    0.14
   7  -6 -11   -0.29    0.22
   7  -6 -11    0.08    0.17
  -7   6  11    0.32    0.24
  -7   6  11   -0.09    0.18
   6  -6 -11    0.46    0.25
   6  -6 -11    0.23    0.17
   6  -6 -11   -0.42    0.38
  -6   6  11    0.24    0.18
  -6   6  11    0.50    0.24
   5  -6 -11    0.53    0.20
   5  -6 -11   -0.08    0.35
   5  -6 -11    1.30    0.28
  -5   6  11    0.61    0.18
  -5   6  11    1.02    0.25
  -5   6  11    0.56    0.19
   4  -6 -11    0.24    0.15
   4  -6 -11    0.40    0.25
  -4   6  11    0.00    0.12
  -4   6  11    0.30    0.17
   3  -6 -11   -0.01    0.11
   3  -6 -11   -0.01    0.20
  -3   6  11    0.15    0.15
   2  -6 -11    1.31    0.30
   2  -6 -11    0.53    0.16
  -2   6  11    0.70    0.19
  -2   6  11    1.12    0.25
   1  -6 -11    0.03    0.14
   1  -6 -11    0.15    0.21
  -1   6  11    0.32    0.19
  -1   6  11    0.32    0.13
   0  -6 -11    0.19    0.21
   0  -6 -11   -0.08    0.14
   0   6  11   -0.04    0.16
   0   6  11    0.05    0.11
  -1  -6 -11   -0.10    0.21
   1   6  11    0.02    0.15
  -2  -6 -11    0.08    0.22
   2   6  11    0.06    0.18
   6  -7 -11    0.07    0.27
   6  -7 -11   -0.32    0.21
   6  -7 -11   -0.15    0.15
   6  -7 -11   -0.31    0.14
  -6   7  11    0.02    0.21
  -6   7  11    0.06    0.20
  -6   7  11   -0.05    0.23
   5  -7 -11   -0.79    0.36
   5  -7 -11    0.04    0.15
   5  -7 -11   -0.07    0.23
  -5   7  11    0.25    0.22
  -5   7  11   -0.04    0.15
  -5   7  11   -0.32    0.19
   4  -7 -11   -0.05    0.14
   4  -7 -11    0.12    0.25
  -4   7  11   -0.30    0.12
  -4   7  11    0.03    0.14
  -4   7  11    0.47    0.23
   3  -7 -11   -0.06    0.14
   3  -7 -11   -0.10    0.13
   3  -7 -11    0.24    0.23
  -3   7  11   -0.04    0.12
  -3   7  11    0.13    0.16
  -3   7  11   -0.10    0.18
   2  -7 -11   -0.04    0.14
   2  -7 -11    0.31    0.27
  -2   7  11   -0.15    0.12
  -2   7  11    0.01    0.15
   1  -7 -11    0.17    0.23
   1  -7 -11   -0.22    0.15
  -1   7  11   -0.04    0.13
  -1   7  11    0.22    0.21
   0  -7 -11   -0.23    0.15
   0  -7 -11    0.09    0.23
   0   7  11   -0.20    0.15
   0   7  11   -0.14    0.10
   5  -8 -11   -0.18    0.28
  -5   8  11    0.47    0.20
   4  -8 -11    0.44    0.15
   4  -8 -11   -0.27    0.20
   4  -8 -11   -0.04    0.28
   4  -8 -11    0.55    0.17
  -4   8  11    0.29    0.21
  -4   8  11    0.25    0.17
  -4   8  11   -0.26    0.19
   3  -8 -11   -0.28    0.14
   3  -8 -11    0.50    0.28
   3  -8 -11    0.32    0.18
  -3   8  11    0.15    0.15
  -3   8  11   -0.17    0.18
  -3   8  11   -0.23    0.15
   2  -8 -11   -0.21    0.24
  -2   8  11   -0.06    0.17
  -2   8  11    0.15    0.19
  -1   9 -12    0.06    0.27
   1  -9  12   -0.07    0.16
  -2   9 -12    0.96    0.32
  -2   9 -12    0.24    0.16
   2  -9  12    0.41    0.17
   2  -9  12    0.46    0.26
   1   8 -12    0.24    0.23
  -1  -8  12    0.01    0.18
  -1  -8  12    0.11    0.20
   0   8 -12    0.11    0.23
   0  -8  12    0.00    0.24
   0  -8  12    0.09    0.18
  -1   8 -12    0.69    0.27
  -1   8 -12    0.37    0.15
   1  -8  12    0.37    0.18
   1  -8  12    0.26    0.23
  -2   8 -12    0.30    0.13
  -2   8 -12    0.20    0.21
   2  -8  12    0.48    0.39
   2  -8  12    0.22    0.15
  -3   8 -12    0.75    0.19
  -3   8 -12    0.76    0.23
   3  -8  12    0.84    0.25
  -4   8 -12    0.51    0.25
  -4   8 -12    0.27    0.14
   4  -8  12    0.33    0.23
   3   7 -12    0.04    0.21
  -3  -7  12    0.45    0.27
  -3  -7  12    0.13    0.22
   2   7 -12    0.00    0.19
  -2  -7  12   -0.08    0.19
  -2  -7  12    0.19    0.24
   1   7 -12   -0.01    0.19
  -1  -7  12   -0.18    0.16
  -1  -7  12   -0.21    0.16
   0   7 -12    0.29    0.20
   0  -7  12    0.11    0.16
   0  -7  12    0.47    0.20
  -1   7 -12    0.17    0.13
  -1   7 -12    0.21    0.19
   1  -7  12   -0.08    0.16
   1  -7  12    0.06    0.14
  -2   7 -12    0.48    0.15
  -2   7 -12    0.58    0.24
   2  -7  12    0.74    0.24
  -3   7 -12    0.33    0.19
  -3   7 -12    0.23    0.13
   3  -7  12    0.08    0.18
  -4   7 -12    0.19    0.21
  -4   7 -12    0.07    0.12
  -4   7 -12    0.62    0.24
   4  -7  12    0.03    0.19
   4  -7  12   -0.16    0.11
  -5   7 -12   -0.06    0.12
  -5   7 -12   -0.03    0.19
  -5   7 -12    0.34    0.18
  -5   7 -12    0.29    0.26
   5  -7  12    0.01    0.15
   5  -7  12    0.00    0.13
   5  -7  12   -0.07    0.17
   4   6 -12    0.29    0.25
   4   6 -12    1.11    0.22
  -4  -6  12    0.42    0.23
  -4  -6  12    0.44    0.23
   3   6 -12   -0.07    0.23
   3   6 -12   -0.10    0.12
  -3  -6  12   -0.12    0.20
  -3  -6  12   -0.12    0.18
  -3  -6  12    0.13    0.16
   2   6 -12   -0.03    0.19
  -2  -6  12    0.11    0.20
  -2  -6  12    0.01    0.20
  -1  -6  12    0.44    0.18
  -1  -6  12    0.51    0.22
   0   6 -12    0.07    0.21
   0  -6  12    0.09    0.16
   0  -6  12    0.15    0.18
  -1   6 -12    0.10    0.17
   1  -6  12    0.05    0.15
   1  -6  12    0.01    0.18
  -2   6 -12   -0.02    0.18
  -2   6 -12   -0.02    0.18
   2  -6  12    0.03    0.13
   2  -6  12    0.13    0.16
   2  -6  12   -0.04    0.15
  -3   6 -12   -0.13    0.22
  -3   6 -12    0.04    0.17
  -3   6 -12    0.05    0.11
   3  -6  12    0.04    0.10
   3  -6  12   -0.03    0.17
  -4   6 -12    0.17    0.12
  -4   6 -12    0.25    0.19
  -4   6 -12   -0.20    0.13
  -4   6 -12    0.13    0.36
   4  -6  12   -0.01    0.10
   4  -6  12   -0.09    0.16
  -5   6 -12   -0.43    0.20
  -5   6 -12    0.20    0.12
  -5   6 -12    0.03    0.18
  -5   6 -12   -0.19    0.14
   5  -6  12    0.01    0.17
   5  -6  12    0.05    0.13
   5  -6  12   -0.32    0.12
   4   5 -12   -0.09    0.20
   4   5 -12    0.03    0.20
  -4  -5  12   -0.05    0.17
  -4  -5  12    0.15    0.19
  -4  -5  12   -0.29    0.20
   3   5 -12    0.08    0.11
   3   5 -12   -0.18    0.12
   3   5 -12    0.30    0.21
  -3  -5  12    0.19    0.19
  -3  -5  12   -0.06    0.17
  -3  -5  12    0.12    0.14
   2   5 -12    1.04    0.25
  -2  -5  12    0.94    0.25
  -2  -5  12    0.63    0.15
  -2  -5  12    0.87    0.24
   1   5 -12    1.03    0.18
   1   5 -12    1.74    0.31
  -1  -5  12    1.39    0.37
  -1  -5  12    1.21    0.27
   0   5 -12    0.17    0.11
   0   5 -12    0.21    0.19
   0  -5  12    0.49    0.20
   0  -5  12    0.40    0.17
  -1   5 -12    0.00    0.18
  -1   5 -12    0.09    0.20
   1  -5  12    0.20    0.18
   1  -5  12    0.11    0.14
  -2   5 -12    0.18    0.19
  -2   5 -12    0.15    0.20
   2  -5  12    0.25    0.19
  -3   5 -12    0.68    0.38
  -3   5 -12    0.44    0.20
   3  -5  12    0.33    0.19
   3  -5  12    0.06    0.10
  -4   5 -12   -0.30    0.12
  -4   5 -12    0.25    0.17
  -4   5 -12   -0.05    0.10
  -4   5 -12    0.03    0.20
   4  -5  12    0.05    0.10
   4  -5  12    0.03    0.11
   4  -5  12   -0.25    0.15
  -5   5 -12   -0.37    0.17
  -5   5 -12    0.21    0.14
  -5   5 -12    0.00    0.21
  -5   5 -12    0.03    0.18
   5  -5  12    0.11    0.18
   5  -5  12    0.01    0.18
   5  -5  12    0.05    0.13
   5  -5  12    0.06    0.12
  -6   5 -12   -0.07    0.16
  -6   5 -12    0.35    0.23
  -6   5 -12    0.96    0.27
   6  -5  12    0.44    0.20
   6  -5  12    0.11    0.26
   6  -5  12    0.36    0.17
   5   4 -12   -0.16    0.14
   5   4 -12   -0.01    0.19
   5   4 -12    0.06    0.12
  -5  -4  12   -0.05    0.28
  -5  -4  12   -0.06    0.20
  -5  -4  12    0.07    0.20
   4   4 -12   -0.09    0.16
   4   4 -12    0.01    0.12
   4   4 -12    0.02    0.11
  -4  -4  12    0.11    0.19
  -4  -4  12   -0.12    0.19
  -4  -4  12    0.15    0.16
   3   4 -12    0.02    0.19
   3   4 -12    0.04    0.11
   3   4 -12   -0.15    0.10
  -3  -4  12   -0.09    0.15
  -3  -4  12    0.10    0.11
  -3  -4  12    0.07    0.19
  -3  -4  12    0.16    0.21
   2   4 -12    0.45    0.11
   2   4 -12    0.81    0.25
   2   4 -12    0.50    0.13
  -2  -4  12    0.56    0.25
  -2  -4  12    0.36    0.29
  -2  -4  12    0.33    0.31
   1   4 -12    0.11    0.18
   1   4 -12    0.08    0.10
  -1  -4  12    0.08    0.16
  -1  -4  12    0.07    0.14
   0   4 -12   -0.09    0.17
   0   4 -12   -0.07    0.19
   0  -4  12    0.07    0.17
   0  -4  12   -0.05    0.13
  -1   4 -12    1.33    0.27
  -1   4 -12    1.37    0.27
   1  -4  12    1.16    0.27
   1  -4  12    1.19    0.22
  -2   4 -12    1.47    0.35
  -2   4 -12    1.43    0.28
   2  -4  12    1.29    0.27
   2  -4  12    1.06    0.19
  -3   4 -12    0.01    0.12
  -3   4 -12   -0.22    0.16
  -3   4 -12    0.17    0.19
   3  -4  12    0.01    0.12
   3  -4  12    0.04    0.15
  -4   4 -12    0.31    0.19
  -4   4 -12    0.41    0.16
  -4   4 -12    0.09    0.20
   4  -4  12   -0.05    0.16
   4  -4  12    0.09    0.12
   4  -4  12    0.38    0.15
  -5   4 -12   -0.40    0.20
  -5   4 -12    0.23    0.20
   5  -4  12   -0.10    0.14
   5  -4  12   -0.05    0.12
   5  -4  12   -0.04    0.14
   5  -4  12    0.01    0.17
  -6   4 -12    0.14    0.24
  -6   4 -12   -0.23    0.18
  -6   4 -12   -0.26    0.18
   6  -4  12    0.29    0.19
   6  -4  12    0.10    0.15
   6  -4  12    0.00    0.15
   6   3 -12    0.07    0.14
   6   3 -12    0.27    0.18
   6   3 -12    0.77    0.25
  -6  -3  12    0.20    0.26
  -6  -3  12    0.08    0.20
  -6  -3  12   -0.01    0.20
   5   3 -12    0.32    0.22
   5   3 -12    0.21    0.13
  -5  -3  12    0.37    0.22
  -5  -3  12    0.31    0.25
   4   3 -12    2.86    0.30
   4   3 -12    2.07    0.27
   4   3 -12    3.86    0.44
  -4  -3  12    2.72    0.35
  -4  -3  12    3.39    0.46
  -4  -3  12    2.53    0.34
  -4  -3  12    3.66    0.41
   3   3 -12    0.21    0.11
   3   3 -12    0.30    0.21
  -3  -3  12    0.34    0.22
  -3  -3  12    0.56    0.29
  -3  -3  12    0.43    0.21
   2   3 -12   -0.11    0.17
   2   3 -12    0.05    0.08
   2   3 -12   -0.09    0.10
  -2  -3  12   -0.22    0.14
  -2  -3  12   -0.33    0.15
  -2  -3  12   -0.01    0.13
   1   3 -12   -0.15    0.28
   1   3 -12    0.12    0.09
   1   3 -12   -0.01    0.18
  -1  -3  12    0.29    0.19
  -1  -3  12    0.19    0.16
  -1  -3  12    0.07    0.19
   0   3 -12    0.63    0.23
   0   3 -12    0.73    0.24
   0  -3  12    0.48    0.21
   0  -3  12    0.33    0.14
   0  -3  12    0.70    0.26
   0  -3  12    0.39    0.16
  -1   3 -12    9.59    0.59
  -1   3 -12   10.64    0.60
   1  -3  12    9.38    0.57
   1  -3  12    8.71    0.47
  -2   3 -12    0.20    0.18
  -2   3 -12    0.33    0.21
   2  -3  12    0.63    0.23
   2  -3  12    0.20    0.12
  -3   3 -12    0.15    0.12
  -3   3 -12    0.39    0.29
  -3   3 -12    0.26    0.17
   3  -3  12    0.16    0.18
   3  -3  12   -0.07    0.10
   3  -3  12    0.12    0.11
  -4   3 -12    0.13    0.17
  -4   3 -12    0.08    0.17
  -4   3 -12    0.29    0.19
   4  -3  12    0.16    0.16
   4  -3  12   -0.03    0.10
   4  -3  12    0.12    0.11
   4  -3  12    0.19    0.14
  -5   3 -12    0.47    0.21
  -5   3 -12    0.35    0.20
  -5   3 -12    0.29    0.22
   5  -3  12    0.32    0.17
   5  -3  12   -0.01    0.12
   5  -3  12    0.25    0.14
   5  -3  12    0.33    0.19
  -6   3 -12    0.04    0.18
  -6   3 -12   -0.29    0.18
  -6   3 -12    0.17    0.22
   6  -3  12   -0.05    0.14
   6  -3  12    0.31    0.16
   6  -3  12    0.22    0.18
   6   2 -12    0.00    0.16
   6   2 -12    0.22    0.24
   6   2 -12    0.27    0.23
  -6  -2  12    0.14    0.24
  -6  -2  12   -0.16    0.16
  -6  -2  12    0.11    0.19
   5   2 -12    3.47    0.42
   5   2 -12    2.70    0.32
  -5  -2  12    3.17    0.42
  -5  -2  12    2.18    0.31
  -5  -2  12    2.72    0.38
   4   2 -12   -0.07    0.10
   4   2 -12    0.16    0.17
  -4  -2  12   -0.22    0.28
  -4  -2  12    0.00    0.16
  -4  -2  12   -0.26    0.16
   3   2 -12    0.04    0.17
   3   2 -12    0.07    0.09
   3   2 -12   -0.14    0.08
  -3  -2  12   -0.15    0.17
  -3  -2  12   -0.12    0.15
  -3  -2  12   -0.01    0.16
   2   2 -12    0.35    0.19
   2   2 -12    0.49    0.10
   2   2 -12    0.35    0.10
  -2  -2  12    0.31    0.20
  -2  -2  12    0.43    0.21
  -2  -2  12    0.43    0.17
   1   2 -12    1.04    0.24
   1   2 -12    0.96    0.25
  -1  -2  12    0.59    0.14
  -1  -2  12    1.29    0.28
  -1  -2  12    0.98    0.22
  -1  -2  12    1.29    0.29
   0   2 -12    0.28    0.19
   0   2 -12    0.42    0.21
   0  -2  12    0.23    0.20
   0  -2  12    0.03    0.19
   0  -2  12    0.10    0.13
   0  -2  12    0.16    0.12
  -1   2 -12   -0.14    0.31
  -1   2 -12    0.18    0.16
   1  -2  12   -0.21    0.08
   1  -2  12    0.41    0.17
  -2   2 -12    0.68    0.21
  -2   2 -12    0.27    0.11
  -2   2 -12    0.38    0.18
   2  -2  12    0.58    0.20
   2  -2  12    0.20    0.11
  -3   2 -12    0.50    0.33
  -3   2 -12    0.21    0.13
  -3   2 -12    0.20    0.17
  -3   2 -12    0.03    0.14
   3  -2  12    0.06    0.16
   3  -2  12    0.20    0.12
   3  -2  12   -0.10    0.09
  -4   2 -12    0.28    0.20
  -4   2 -12    0.38    0.17
  -4   2 -12    0.27    0.15
  -4   2 -12    0.29    0.21
   4  -2  12    0.29    0.13
   4  -2  12    0.38    0.18
  -5   2 -12    0.55    0.27
  -5   2 -12    0.11    0.21
  -5   2 -12    0.18    0.19
   5  -2  12    0.01    0.13
   5  -2  12   -0.01    0.14
   5  -2  12    0.19    0.17
  -6   2 -12    0.07    0.19
  -6   2 -12    0.34    0.26
  -6   2 -12    0.14    0.21
   6  -2  12    0.10    0.12
  -7  -1  12    3.87    0.48
   6   1 -12    1.13    0.24
   6   1 -12    1.79    0.32
   6   1 -12    1.36    0.22
  -6  -1  12    2.52    0.37
  -6  -1  12    1.47    0.30
   5   1 -12    0.36    0.20
   5   1 -12    0.08    0.12
  -5  -1  12    0.07    0.15
  -5  -1  12    0.21    0.18
  -5  -1  12    0.10    0.17
   4   1 -12    0.41    0.13
   4   1 -12    0.97    0.25
  -4  -1  12    0.23    0.19
  -4  -1  12    0.58    0.21
  -4  -1  12    0.53    0.27
   3   1 -12    1.97    0.34
   3   1 -12    1.76    0.21
  -3  -1  12    1.24    0.23
  -3  -1  12    1.19    0.31
  -3  -1  12    1.51    0.27
   2   1 -12    0.28    0.32
   2   1 -12    0.08    0.17
  -2  -1  12   -0.03    0.13
  -2  -1  12   -0.17    0.17
  -2  -1  12    0.21    0.18
   1   1 -12    6.41    0.49
   1   1 -12    6.86    0.50
  -1  -1  12    6.98    0.51
  -1  -1  12    6.59    0.49
  -1  -1  12    6.57    0.46
  -1  -1  12    6.35    0.39
   0   1 -12    0.11    0.19
   0   1 -12    0.21    0.20
   0  -1  12    0.15    0.18
   0  -1  12    0.22    0.12
   0  -1  12    0.14    0.20
  -1   1 -12   -0.03    0.12
  -1   1 -12    0.11    0.16
   1  -1  12    0.14    0.10
   1  -1  12    0.13    0.14
  -2   1 -12    0.64    0.22
  -2   1 -12    0.34    0.12
  -2   1 -12    0.33    0.16
  -2   1 -12    0.64    0.22
   2  -1  12    0.64    0.21
   2  -1  12    0.44    0.13
   2  -1  12    0.29    0.11
  -3   1 -12    1.64    0.31
  -3   1 -12    1.01    0.19
  -3   1 -12    1.61    0.28
  -3   1 -12    1.30    0.24
   3  -1  12    1.00    0.15
   3  -1  12    1.51    0.23
   3  -1  12    1.55    0.28
  -4   1 -12   -0.31    0.18
  -4   1 -12   -0.02    0.14
  -4   1 -12    0.06    0.17
   4  -1  12   -0.01    0.10
   4  -1  12    0.10    0.15
  -5   1 -12    0.76    0.24
  -5   1 -12    0.87    0.23
  -5   1 -12    0.83    0.26
   5  -1  12    0.92    0.25
   5  -1  12    0.77    0.20
   5  -1  12    0.84    0.18
   7   0 -12    0.33    0.15
   7   0 -12    0.27    0.26
   7   0 -12    0.33    0.21
  -7   0  12    0.49    0.20
  -7   0  12    0.14    0.19
  -7   0  12    0.74    0.22
   6   0 -12    0.06    0.21
   6   0 -12    0.13    0.14
   6   0 -12    0.34    0.17
  -6   0  12    0.02    0.16
  -6   0  12    0.22    0.19
  -6   0  12    0.36    0.19
   5   0 -12    0.08    0.18
   5   0 -12    0.18    0.11
  -5   0  12   -0.06    0.15
  -5   0  12    0.03    0.24
  -5   0  12   -0.04    0.17
   4   0 -12    0.16    0.17
   4   0 -12    0.14    0.11
  -4   0  12    0.10    0.26
  -4   0  12    0.17    0.14
  -4   0  12   -0.01    0.17
   3   0 -12    2.03    0.32
  -3   0  12    2.06    0.30
  -3   0  12    2.12    0.32
  -3   0  12    1.70    0.26
   2   0 -12    0.01    0.11
   2   0 -12    0.03    0.20
   2   0 -12    0.24    0.25
  -2   0  12    0.08    0.12
  -2   0  12    0.02    0.09
  -2   0  12   -0.10    0.17
  -2   0  12    0.16    0.19
   1   0 -12   -0.04    0.18
   1   0 -12    0.05    0.13
   1   0 -12    0.28    0.20
  -1   0  12   -0.12    0.17
  -1   0  12   -0.07    0.18
   0   0 -12    4.92    0.46
   0   0 -12    4.68    0.40
   0   0 -12    4.02    0.44
   0   0  12    4.08    0.30
   0   0  12    3.34    0.41
   0   0  12    4.10    0.42
  -1   0 -12    0.17    0.20
  -1   0 -12   -0.09    0.12
  -1   0 -12    0.07    0.19
   1   0  12   -0.01    0.09
   1   0  12   -0.03    0.08
   1   0  12   -0.07    0.14
  -2   0 -12   -0.12    0.17
  -2   0 -12   -0.13    0.13
   2   0  12   -0.06    0.08
   2   0  12    0.08    0.18
   2   0  12    0.06    0.07
  -3   0 -12   -0.09    0.19
  -3   0 -12   -0.17    0.12
  -3   0 -12    0.09    0.17
   3   0  12   -0.13    0.08
   3   0  12   -0.05    0.15
   3   0  12    0.05    0.09
  -4   0 -12    0.19    0.22
  -4   0 -12    0.20    0.19
  -4   0 -12    0.34    0.22
   4   0  12    0.31    0.14
   4   0  12    0.56    0.20
  -5   0 -12    0.78    0.25
  -5   0 -12    0.15    0.23
  -5   0 -12    0.14    0.20
   5   0  12   -0.08    0.12
   5   0  12    0.22    0.14
   7  -1 -12    0.38    0.23
   7  -1 -12    0.10    0.37
  -7   1  12    0.82    0.22
  -7   1  12    0.48    0.20
   6  -1 -12    0.52    0.23
   6  -1 -12    0.15    0.15
  -6   1  12    0.58    0.21
  -6   1  12    0.26    0.19
  -6   1  12    0.36    0.17
   5  -1 -12   -0.11    0.17
  -5   1  12    0.02    0.14
  -5   1  12    0.03    0.14
   4  -1 -12    0.42    0.20
  -4   1  12    0.11    0.14
  -4   1  12   -0.20    0.16
  -4   1  12   -0.05    0.22
   3  -1 -12    1.09    0.27
  -3   1  12    0.54    0.22
  -3   1  12    0.35    0.15
  -3   1  12    0.58    0.24
   2  -1 -12   -0.05    0.12
   2  -1 -12   -0.30    0.17
  -2   1  12    0.08    0.11
  -2   1  12    0.17    0.18
  -2   1  12   -0.15    0.16
  -2   1  12    0.08    0.14
   1  -1 -12    1.71    0.32
   1  -1 -12    1.32    0.28
   1  -1 -12    1.27    0.19
  -1   1  12    1.56    0.33
  -1   1  12    1.25    0.28
  -1   1  12    1.51    0.21
   0  -1 -12    0.12    0.19
   0  -1 -12   -0.01    0.19
   0  -1 -12    0.04    0.12
   0   1  12    0.32    0.11
   0   1  12    0.25    0.18
  -1  -1 -12    0.27    0.19
  -1  -1 -12    0.47    0.22
  -1  -1 -12    0.21    0.14
   1   1  12    0.03    0.10
   1   1  12    0.32    0.10
   1   1  12    0.14    0.17
  -2  -1 -12    1.90    0.38
  -2  -1 -12    2.00    0.33
  -2  -1 -12    2.40    0.35
   2   1  12    1.68    0.24
   2   1  12    1.92    0.31
   2   1  12    1.78    0.21
  -3  -1 -12    0.13    0.20
  -3  -1 -12    0.45    0.16
  -3  -1 -12    0.39    0.29
   3   1  12    0.42    0.20
   3   1  12    0.25    0.12
  -4  -1 -12    2.03    0.48
  -4  -1 -12    0.84    0.25
  -4  -1 -12    0.34    0.19
   4   1  12    0.64    0.22
   4   1  12    0.61    0.15
  -5  -1 -12    0.32    0.46
  -5  -1 -12    0.39    0.24
  -5  -1 -12    0.53    0.22
   5   1  12    0.28    0.29
   5   1  12    0.31    0.19
   7  -2 -12    0.00    0.31
   7  -2 -12   -0.03    0.11
   7  -2 -12    0.16    0.17
  -7   2  12    0.04    0.16
  -7   2  12    0.15    0.17
  -7   2  12    0.26    0.20
   6  -2 -12    0.30    0.12
   6  -2 -12   -0.04    0.16
   6  -2 -12    0.24    0.21
  -6   2  12    0.16    0.17
  -6   2  12   -0.04    0.17
  -6   2  12   -0.04    0.24
  -6   2  12   -0.10    0.16
   5  -2 -12   -0.05    0.09
   5  -2 -12    0.08    0.20
  -5   2  12   -0.39    0.16
  -5   2  12    0.13    0.14
  -5   2  12    0.07    0.17
   4  -2 -12   -0.07    0.10
   4  -2 -12    0.02    0.21
  -4   2  12   -0.05    0.12
  -4   2  12    0.04    0.19
   3  -2 -12    0.63    0.24
  -3   2  12    0.55    0.26
  -3   2  12    0.63    0.22
  -3   2  12    0.61    0.17
   2  -2 -12    7.74    0.41
   2  -2 -12    7.80    0.59
  -2   2  12    8.03    0.57
  -2   2  12    7.35    0.55
   1  -2 -12    8.90    0.48
   1  -2 -12    9.83    0.63
  -1   2  12    8.91    0.46
  -1   2  12    8.59    0.58
  -1   2  12    9.13    0.59
   0  -2 -12    0.27    0.22
   0  -2 -12    0.27    0.14
   0  -2 -12    0.63    0.25
   0   2  12    0.47    0.11
   0   2  12    0.53    0.13
   0   2  12    0.20    0.16
  -1  -2 -12   -0.03    0.20
  -1  -2 -12    0.07    0.13
  -1  -2 -12    0.01    0.20
   1   2  12   -0.13    0.07
   1   2  12   -0.10    0.07
   1   2  12    0.06    0.16
  -2  -2 -12   -0.31    0.20
  -2  -2 -12   -0.09    0.13
  -2  -2 -12    0.31    0.20
   2   2  12    0.03    0.17
   2   2  12   -0.03    0.08
   2   2  12   -0.08    0.07
  -3  -2 -12    0.14    0.16
  -3  -2 -12   -0.43    0.21
  -3  -2 -12    0.11    0.19
   3   2  12    0.16    0.18
   3   2  12    0.16    0.10
  -4  -2 -12    0.10    0.16
  -4  -2 -12    0.15    0.20
   4   2  12    0.10    0.12
   4   2  12    0.12    0.17
   7  -3 -12   -0.13    0.12
   7  -3 -12    0.14    0.23
   7  -3 -12   -0.23    0.16
  -7   3  12    0.05    0.14
  -7   3  12    0.20    0.21
  -7   3  12    0.04    0.17
   6  -3 -12   -0.05    0.23
   6  -3 -12    0.38    0.13
   6  -3 -12    0.03    0.17
  -6   3  12   -0.02    0.13
  -6   3  12   -0.10    0.13
  -6   3  12    0.12    0.20
  -6   3  12    0.24    0.19
   5  -3 -12   -0.06    0.11
   5  -3 -12    0.26    0.20
  -5   3  12    0.53    0.21
  -5   3  12    0.31    0.13
  -5   3  12   -0.10    0.15
  -5   3  12    0.08    0.12
   4  -3 -12    0.22    0.22
  -4   3  12    0.26    0.33
  -4   3  12    0.02    0.18
   3  -3 -12    1.93    0.32
  -3   3  12    1.55    0.29
  -3   3  12    1.51    0.35
   2  -3 -12   13.71    0.72
   2  -3 -12   13.38    0.56
  -2   3  12   12.96    0.70
  -2   3  12   12.77    0.71
   1  -3 -12    1.13    0.18
   1  -3 -12    1.68    0.31
  -1   3  12    1.07    0.25
   0  -3 -12    0.80    0.17
   0  -3 -12    1.59    0.30
   0   3  12    1.38    0.29
   0   3  12    0.64    0.13
  -1  -3 -12    0.55    0.25
  -1  -3 -12    0.55    0.17
   1   3  12    0.43    0.12
   1   3  12    0.64    0.23
  -2  -3 -12    0.15    0.19
  -2  -3 -12    0.01    0.14
   2   3  12    0.03    0.09
  -3  -3 -12    3.15    0.45
  -3  -3 -12    3.43    0.44
   3   3  12    2.97    0.39
   7  -4 -12    0.00    0.24
   7  -4 -12   -0.09    0.13
   7  -4 -12    0.06    0.18
  -7   4  12    0.03    0.15
  -7   4  12    0.26    0.21
  -7   4  12    0.47    0.33
  -7   4  12   -0.14    0.17
   6  -4 -12    0.11    0.16
   6  -4 -12    0.22    0.23
  -6   4  12   -0.45    0.19
  -6   4  12    0.13    0.18
  -6   4  12   -0.04    0.12
  -6   4  12    0.30    0.14
   5  -4 -12    0.26    0.21
   5  -4 -12    0.17    0.13
  -5   4  12    0.63    0.22
  -5   4  12    0.99    0.39
   4  -4 -12    1.55    0.29
  -4   4  12    1.08    0.25
   3  -4 -12    7.84    0.58
  -3   4  12    6.96    0.55
  -3   4  12    7.26    0.57
   2  -4 -12    0.13    0.20
   2  -4 -12   -0.10    0.11
  -2   4  12   -0.31    0.26
   1  -4 -12    0.38    0.14
   1  -4 -12    0.74    0.25
  -1   4  12    0.83    0.24
   0  -4 -12    0.31    0.21
   0  -4 -12   -0.25    0.11
   0   4  12    0.01    0.18
  -1  -4 -12    0.30    0.20
  -1  -4 -12    0.47    0.18
   1   4  12    0.57    0.13
   1   4  12    0.45    0.12
  -2  -4 -12    0.08    0.20
  -2  -4 -12   -0.21    0.14
   2   4  12    0.19    0.17
  -3  -4 -12    0.55    0.25
  -3  -4 -12   -0.38    0.17
   3   4  12    0.02    0.19
   6  -5 -12    0.54    0.21
   6  -5 -12    0.74    0.28
   6  -5 -12    0.24    0.13
  -6   5  12    1.01    0.34
  -6   5  12    0.48    0.22
   5  -5 -12    2.87    0.39
   5  -5 -12    2.87    0.43
   5  -5 -12    2.74    0.34
  -5   5  12    1.83    0.32
  -5   5  12    2.07    0.23
  -5   5  12    3.48    0.48
   4  -5 -12    0.89    0.28
  -4   5  12    0.44    0.44
  -4   5  12    0.55    0.23
   3  -5 -12    0.54    0.25
  -3   5  12    0.36    0.21
   2  -5 -12   -0.07    0.11
   2  -5 -12   -0.06    0.19
  -2   5  12   -0.09    0.16
   1  -5 -12    0.06    0.13
   1  -5 -12   -0.27    0.20
  -1   5  12    0.01    0.12
   0  -5 -12   -0.08    0.13
   0  -5 -12    0.16    0.21
   0   5  12    0.01    0.10
   0   5  12   -0.26    0.15
  -1  -5 -12    0.07    0.15
  -1  -5 -12    0.14    0.21
   1   5  12    0.22    0.19
   1   5  12   -0.10    0.11
  -2  -5 -12   -0.19    0.15
   2   5  12    0.04    0.15
   6  -6 -12   -0.18    0.13
   6  -6 -12   -0.07    0.17
   6  -6 -12   -0.12    0.26
  -6   6  12   -0.25    0.17
  -6   6  12    0.13    0.26
   5  -6 -12    0.36    0.18
   5  -6 -12   -0.27    0.23
  -5   6  12   -0.30    0.14
   4  -6 -12    0.97    0.28
   4  -6 -12    0.67    0.20
  -4   6  12    0.26    0.18
  -4   6  12    0.33    0.15
   3  -6 -12   -0.14    0.21
   3  -6 -12   -0.17    0.12
  -3   6  12   -0.11    0.15
   2  -6 -12    0.13    0.24
   2  -6 -12   -0.02    0.13
  -2   6  12    0.24    0.19
  -2   6  12    0.04    0.13
   1  -6 -12    0.02    0.14
   1  -6 -12    0.23    0.25
  -1   6  12   -0.13    0.16
  -1   6  12    0.07    0.12
   0  -6 -12   -0.13    0.14
   0  -6 -12   -0.03    0.21
   0   6  12    0.13    0.13
   0   6  12    0.05    0.21
  -1  -6 -12    0.58    0.30
  -1  -6 -12    0.05    0.18
   1   6  12    0.16    0.19
   5  -7 -12   -0.28    0.26
  -5   7  12   -0.63    0.35
  -5   7  12    0.01    0.20
   4  -7 -12   -0.56    0.42
  -4   7  12    0.15    0.22
  -4   7  12   -0.41    0.17
  -4   7  12    0.04    0.15
   3  -7 -12    0.33    0.18
   3  -7 -12    0.59    0.29
   3  -7 -12    0.19    0.16
  -3   7  12    0.63    0.20
  -3   7  12    0.40    0.24
   2  -7 -12    0.45    0.28
   2  -7 -12   -0.22    0.15
  -2   7  12   -0.46    0.22
  -2   7  12   -0.35    0.19
   1  -7 -12   -0.17    0.15
   1  -7 -12    0.12    0.28
  -1   7  12    0.22    0.21
  -1   7  12   -0.02    0.14
  -1   8 -13    0.64    0.26
   1  -8  13    0.55    0.20
   1  -8  13    0.64    0.30
  -2   8 -13    0.14    0.14
  -2   8 -13    0.14    0.22
   2  -8  13   -0.07    0.22
   2  -8  13    0.30    0.17
   2   7 -13    0.35    0.26
  -2  -7  13   -0.07    0.18
   1   7 -13    0.37    0.25
  -1  -7  13    0.02    0.18
  -1  -7  13    0.40    0.22
   0   7 -13    0.75    0.26
   0  -7  13    0.33    0.23
   0  -7  13    0.49    0.20
  -1   7 -13    0.03    0.19
   1  -7  13    0.14    0.23
   1  -7  13   -0.07    0.14
  -2   7 -13    0.60    0.24
   2  -7  13    0.79    0.19
   2  -7  13    1.47    0.53
  -3   7 -13    0.46    0.24
  -3   7 -13    0.16    0.13
   3  -7  13   -0.05    0.18
  -4   7 -13   -0.36    0.19
  -4   7 -13   -0.18    0.12
  -4   7 -13   -0.23    0.20
   4  -7  13    0.12    0.22
   4  -7  13    0.04    0.12
   3   6 -13   -0.20    0.23
   3   6 -13    0.18    0.15
  -3  -6  13    0.09    0.20
  -3  -6  13   -0.23    0.18
   2   6 -13    0.13    0.22
  -2  -6  13    0.18    0.19
  -2  -6  13   -0.03    0.17
  -2  -6  13   -0.25    0.14
   1   6 -13    0.11    0.21
  -1  -6  13    0.25    0.18
  -1  -6  13    0.36    0.22
   0   6 -13    0.22    0.21
   0  -6  13    0.26    0.22
   0  -6  13    0.24    0.17
  -1   6 -13    0.47    0.23
   1  -6  13    0.91    0.21
   1  -6  13    0.61    0.26
  -2   6 -13    0.13    0.21
   2  -6  13    0.16    0.20
   2  -6  13   -0.08    0.10
  -3   6 -13    0.20    0.19
   3  -6  13   -0.13    0.10
   3  -6  13   -0.23    0.16
  -4   6 -13    0.00    0.14
  -4   6 -13    0.15    0.21
  -4   6 -13    0.53    0.28
   4  -6  13   -0.13    0.17
   4  -6  13   -0.07    0.10
   4  -6  13    0.11    0.13
   4   5 -13   -0.17    0.25
   4   5 -13   -0.22    0.11
  -4  -5  13    0.38    0.24
  -4  -5  13    0.10    0.22
  -4  -5  13   -0.37    0.21
   3   5 -13   -0.12    0.11
   3   5 -13    0.43    0.30
  -3  -5  13   -0.22    0.20
  -3  -5  13    0.27    0.21
   2   5 -13   -0.13    0.08
   2   5 -13   -0.24    0.13
   2   5 -13    0.06    0.36
  -2  -5  13    0.24    0.18
  -2  -5  13   -0.04    0.20
   1   5 -13    0.13    0.19
  -1  -5  13    0.10    0.18
  -1  -5  13    0.11    0.16
   0   5 -13    0.22    0.19
   0  -5  13    0.29    0.17
   0  -5  13    0.02    0.21
  -1   5 -13    0.26    0.18
   1  -5  13    0.07    0.20
   1  -5  13    0.36    0.14
  -2   5 -13    0.41    0.21
   2  -5  13    0.07    0.17
  -3   5 -13    0.44    0.23
  -3   5 -13    0.03    0.17
   3  -5  13   -0.10    0.10
   3  -5  13    0.23    0.18
  -4   5 -13    0.62    0.24
  -4   5 -13    1.19    0.27
   4  -5  13    0.58    0.19
   4  -5  13    0.77    0.25
   4  -5  13    0.62    0.17
  -5   5 -13   -0.10    0.19
  -5   5 -13    0.05    0.29
   5  -5  13    0.16    0.14
   5  -5  13    0.21    0.22
   5  -5  13   -0.19    0.14
   4   4 -13    0.43    0.15
   4   4 -13    0.23    0.20
  -4  -4  13    0.52    0.21
  -4  -4  13    0.65    0.23
  -4  -4  13    0.25    0.20
   3   4 -13    0.33    0.21
   3   4 -13    0.23    0.11
  -3  -4  13    0.58    0.22
  -3  -4  13    0.13    0.17
   2   4 -13   -0.14    0.16
   2   4 -13    0.03    0.09
  -2  -4  13    0.05    0.17
  -2  -4  13    0.14    0.14
   1   4 -13    0.23    0.12
   1   4 -13    0.53    0.11
   1   4 -13    0.52    0.21
  -1  -4  13    0.58    0.18
  -1  -4  13    0.14    0.36
   0   4 -13    0.58    0.36
   0  -4  13    0.24    0.18
   0  -4  13    0.38    0.18
  -1   4 -13    0.36    0.21
   1  -4  13    0.07    0.16
   1  -4  13   -0.05    0.13
  -2   4 -13    0.10    0.18
  -2   4 -13    0.35    0.21
   2  -4  13    0.42    0.19
  -3   4 -13    0.31    0.18
  -3   4 -13    0.05    0.13
  -3   4 -13    0.13    0.22
   3  -4  13   -0.11    0.15
  -4   4 -13    0.05    0.19
  -4   4 -13   -0.16    0.15
  -4   4 -13    0.07    0.21
   4  -4  13   -0.02    0.12
   4  -4  13   -0.30    0.14
   4  -4  13   -0.17    0.10
   4  -4  13   -0.17    0.16
  -5   4 -13    0.07    0.26
  -5   4 -13    0.49    0.21
  -5   4 -13    0.03    0.21
   5  -4  13   -0.38    0.18
   5  -4  13    0.24    0.16
   5  -4  13   -0.08    0.13
   5  -4  13   -0.21    0.19
   5   3 -13    0.59    0.24
   5   3 -13    0.08    0.13
  -5  -3  13    0.20    0.20
  -5  -3  13    0.01    0.21
   4   3 -13    0.66    0.15
   4   3 -13    0.90    0.25
  -4  -3  13    0.82    0.24
  -4  -3  13    1.03    0.27
   3   3 -13   -0.12    0.10
   3   3 -13    0.10    0.10
   3   3 -13    0.06    0.19
  -3  -3  13    0.05    0.17
  -3  -3  13   -0.02    0.18
   2   3 -13    0.23    0.20
   2   3 -13    0.16    0.11
   2   3 -13    0.15    0.11
  -2  -3  13    0.08    0.20
  -2  -3  13    0.12    0.15
   1   3 -13    0.27    0.10
   1   3 -13    0.42    0.22
  -1  -3  13    0.37    0.22
  -1  -3  13    0.47    0.19
   0   3 -13    0.21    0.19
   0  -3  13    0.16    0.20
  -1   3 -13    0.47    0.39
  -1   3 -13    0.42    0.27
   1  -3  13    0.54    0.22
  -2   3 -13    0.16    0.18
  -2   3 -13   -0.26    0.19
   2  -3  13    0.03    0.15
   2  -3  13   -0.19    0.11
  -3   3 -13    0.55    0.22
  -3   3 -13   -0.07    0.13
  -3   3 -13    0.37    0.22
   3  -3  13    0.02    0.13
   3  -3  13    0.15    0.12
   3  -3  13    0.04    0.17
  -4   3 -13    0.92    0.21
  -4   3 -13    1.84    0.40
  -4   3 -13    0.83    0.22
  -4   3 -13    0.77    0.24
   4  -3  13    0.47    0.21
   4  -3  13    0.34    0.14
   4  -3  13    0.80    0.25
  -5   3 -13    2.15    0.36
  -5   3 -13    1.49    0.30
  -5   3 -13    1.46    0.31
   5  -3  13    1.10    0.19
   5  -3  13    1.25    0.23
   5  -3  13    1.36    0.26
   5  -3  13    1.42    0.28
  -6  -2  13    1.01    0.30
   5   2 -13    0.52    0.16
   5   2 -13    1.41    0.29
  -5  -2  13    0.59    0.25
  -5  -2  13    0.60    0.23
  -5  -2  13    1.27    0.26
   4   2 -13    0.27    0.12
   4   2 -13    0.56    0.22
  -4  -2  13    0.16    0.19
  -4  -2  13    0.70    0.24
  -4  -2  13    0.14    0.19
   3   2 -13    0.10    0.10
   3   2 -13   -0.11    0.09
   3   2 -13   -0.07    0.18
  -3  -2  13   -0.03    0.22
  -3  -2  13    0.28    0.17
  -3  -2  13    0.15    0.19
   2   2 -13   -0.12    0.18
   2   2 -13    0.08    0.09
  -2  -2  13   -0.07    0.25
  -2  -2  13   -0.08    0.15
   1   2 -13    2.65    0.39
  -1  -2  13    1.98    0.35
  -1  -2  13    2.66    0.37
   0   2 -13    1.41    0.27
   0  -2  13    1.25    0.25
  -1   2 -13    0.55    0.26
  -1   2 -13    0.49    0.23
   1  -2  13    0.39    0.21
   1  -2  13    0.49    0.14
  -2   2 -13    0.53    0.22
  -2   2 -13    0.25    0.12
  -2   2 -13   -0.30    0.19
   2  -2  13   -0.03    0.23
   2  -2  13    0.57    0.21
  -3   2 -13    1.03    0.26
  -3   2 -13    0.52    0.18
  -3   2 -13    0.52    0.26
  -3   2 -13    0.73    0.16
   3  -2  13    0.52    0.21
   3  -2  13    0.61    0.17
   3  -2  13    0.49    0.15
  -4   2 -13    0.16    0.18
  -4   2 -13    0.71    0.28
  -4   2 -13    0.61    0.24
   4  -2  13    0.13    0.19
   4  -2  13    0.21    0.14
   4  -2  13    0.05    0.12
  -5   2 -13    0.58    0.28
  -5   2 -13    0.37    0.26
  -5   2 -13    0.24    0.20
   5  -2  13   -0.20    0.20
   5  -2  13    0.49    0.18
   5  -2  13    0.09    0.14
   6   1 -13    1.82    0.31
   6   1 -13    1.27    0.21
  -6  -1  13    1.45    0.29
  -6  -1  13    1.90    0.35
  -6  -1  13    1.35    0.31
   5   1 -13    0.00    0.11
   5   1 -13    0.44    0.21
  -5  -1  13   -0.05    0.16
  -5  -1  13   -0.08    0.17
  -5  -1  13    0.00    0.21
   4   1 -13   -0.24    0.16
   4   1 -13    0.04    0.09
  -4  -1  13   -0.33    0.19
  -4  -1  13   -0.14    0.14
  -4  -1  13    0.01    0.15
   3   1 -13    2.53    0.23
   3   1 -13    2.68    0.40
  -3  -1  13    2.23    0.35
  -3  -1  13    2.80    0.41
  -3  -1  13    1.70    0.28
   2   1 -13    0.43    0.23
  -2  -1  13    0.44    0.29
  -2  -1  13    0.65    0.22
  -2  -1  13    0.25    0.22
   1   1 -13    0.41    0.24
  -1  -1  13    0.23    0.15
  -1  -1  13    0.36    0.19
   0   1 -13    0.04    0.18
   0   1 -13    0.26    0.13
   0  -1  13    0.48    0.20
   0  -1  13    0.04    0.11
  -1   1 -13    0.15    0.26
  -1   1 -13    0.27    0.11
  -1   1 -13    0.34    0.16
  -1   1 -13   -0.17    0.22
   1  -1  13    0.05    0.12
   1  -1  13    0.32    0.18
  -2   1 -13    0.30    0.23
  -2   1 -13   -0.09    0.12
  -2   1 -13    0.20    0.16
  -2   1 -13   -0.41    0.19
   2  -1  13   -0.03    0.10
   2  -1  13    0.46    0.20
   2  -1  13    0.02    0.09
  -3   1 -13    0.44    0.24
  -3   1 -13    0.28    0.16
  -3   1 -13    0.43    0.22
  -3   1 -13    0.10    0.15
   3  -1  13    0.27    0.13
   3  -1  13    0.17    0.12
   3  -1  13    0.38    0.19
  -4   1 -13    0.19    0.18
  -4   1 -13    0.17    0.22
  -4   1 -13   -0.02    0.23
   4  -1  13    0.01    0.19
   4  -1  13   -0.06    0.11
  -5   1 -13    0.74    0.24
  -5   1 -13    1.87    0.52
  -5   1 -13    0.86    0.28
   5  -1  13    0.50    0.17
   6   0 -13    0.45    0.23
  -6   0  13    0.40    0.22
  -6   0  13    0.81    0.42
   5   0 -13    0.03    0.21
   5   0 -13    0.41    0.13
  -5   0  13    0.31    0.24
  -5   0  13    0.68    0.23
  -5   0  13    0.35    0.19
   4   0 -13   -0.09    0.18
  -4   0  13   -0.09    0.22
  -4   0  13    0.07    0.16
  -4   0  13    0.14    0.17
   3   0 -13    0.93    0.26
  -3   0  13    0.83    0.26
  -3   0  13    1.31    0.28
  -3   0  13    0.79    0.31
   2   0 -13    3.95    0.35
   2   0 -13    3.94    0.47
  -2   0  13    4.04    0.45
  -2   0  13    3.90    0.56
  -2   0  13    4.37    0.42
   1   0 -13    0.17    0.20
   1   0 -13    0.01    0.12
  -1   0  13   -0.11    0.14
  -1   0  13   -0.16    0.11
   0   0 -13    0.28    0.21
   0   0 -13    0.24    0.14
   0   0  13    0.23    0.12
   0   0  13    0.29    0.17
  -1   0 -13    0.00    0.29
  -1   0 -13   -0.19    0.23
  -1   0 -13   -0.28    0.12
   1   0  13   -0.14    0.14
   1   0  13   -0.04    0.10
   1   0  13    0.04    0.08
  -2   0 -13    0.06    0.14
  -2   0 -13   -0.13    0.12
  -2   0 -13   -0.40    0.19
  -2   0 -13   -0.01    0.18
   2   0  13    0.01    0.08
   2   0  13   -0.20    0.08
   2   0  13    0.20    0.16
  -3   0 -13    0.25    0.21
  -3   0 -13    0.11    0.16
  -3   0 -13    0.19    0.24
   3   0  13    0.03    0.11
   3   0  13    0.23    0.18
  -4   0 -13    0.31    0.17
  -4   0 -13    0.25    0.27
  -4   0 -13    0.68    0.27
   4   0  13    0.32    0.15
   4   0  13   -0.18    0.18
   6  -1 -13    0.16    0.15
   6  -1 -13    0.45    0.23
  -6   1  13    0.16    0.19
  -6   1  13    0.11    0.16
   5  -1 -13    0.16    0.23
  -5   1  13    0.12    0.20
  -5   1  13    0.50    0.22
  -5   1  13   -0.03    0.14
   4  -1 -13   -0.01    0.18
  -4   1  13    0.08    0.16
  -4   1  13    0.25    0.20
  -4   1  13    0.05    0.15
   3  -1 -13    0.80    0.26
  -3   1  13    0.88    0.25
  -3   1  13    0.96    0.25
  -3   1  13    0.95    0.23
   2  -1 -13    2.04    0.34
   2  -1 -13    2.31    0.30
  -2   1  13    2.45    0.41
   1  -1 -13    0.45    0.24
   1  -1 -13    0.15    0.13
  -1   1  13    0.41    0.21
  -1   1  13    0.56    0.14
   0  -1 -13    3.05    0.36
   0  -1 -13    3.02    0.42
   0   1  13    3.18    0.41
  -1  -1 -13    0.07    0.13
  -1  -1 -13    0.06    0.21
   1   1  13   -0.10    0.09
   1   1  13    0.05    0.10
   1   1  13   -0.01    0.15
  -2  -1 -13   -0.18    0.19
  -2  -1 -13    0.04    0.20
   2   1  13    0.01    0.10
   2   1  13   -0.10    0.08
   2   1  13   -0.17    0.16
  -3  -1 -13   -0.08    0.39
  -3  -1 -13    0.10    0.17
  -3  -1 -13    0.62    0.24
   3   1  13   -0.15    0.17
   3   1  13    0.16    0.12
  -4  -1 -13   -0.06    0.39
  -4  -1 -13   -0.21    0.17
  -4  -1 -13   -0.22    0.21
   4   1  13    0.21    0.12
   6  -2 -13    0.48    0.25
   6  -2 -13   -0.06    0.16
  -6   2  13   -0.07    0.36
  -6   2  13   -0.04    0.17
  -6   2  13   -0.33    0.15
  -6   2  13   -0.06    0.15
   5  -2 -13    0.32    0.23
  -5   2  13    0.08    0.19
  -5   2  13    0.39    0.22
  -5   2  13    0.31    0.16
   4  -2 -13    0.24    0.12
   4  -2 -13    0.50    0.26
  -4   2  13    0.47    0.26
  -4   2  13    0.20    0.22
  -4   2  13    0.38    0.20
   3  -2 -13    0.17    0.23
  -3   2  13    0.22    0.27
  -3   2  13    0.44    0.22
   2  -2 -13    2.32    0.29
   2  -2 -13    1.86    0.33
  -2   2  13    1.73    0.54
   1  -2 -13    0.32    0.13
   1  -2 -13    0.34    0.22
  -1   2  13   -0.14    0.16
  -1   2  13    0.08    0.12
   0  -2 -13   -0.01    0.19
   0   2  13    0.18    0.18
   0   2  13    0.19    0.11
   0   2  13    0.11    0.11
  -1  -2 -13    0.03    0.14
  -1  -2 -13    0.28    0.21
   1   2  13    0.10    0.10
   1   2  13   -0.01    0.17
   1   2  13    0.03    0.08
  -2  -2 -13    0.24    0.21
  -2  -2 -13    0.03    0.15
   2   2  13    0.06    0.19
   2   2  13    0.13    0.10
  -3  -2 -13    1.76    0.28
  -3  -2 -13    1.97    0.34
   3   2  13    1.16    0.18
   6  -3 -13   -0.03    0.17
   6  -3 -13    0.17    0.13
   6  -3 -13   -0.01    0.23
  -6   3  13   -0.10    0.14
  -6   3  13   -0.05    0.13
  -6   3  13   -0.02    0.20
  -6   3  13   -0.55    0.23
   5  -3 -13    0.24    0.20
  -5   3  13    0.27    0.23
  -5   3  13    0.00    0.11
  -5   3  13   -0.19    0.19
  -5   3  13    0.11    0.16
   4  -3 -13   -0.17    0.11
   4  -3 -13    0.19    0.22
  -4   3  13   -0.14    0.24
  -4   3  13   -0.20    0.17
   3  -3 -13    6.85    0.57
  -3   3  13    5.31    0.51
   2  -3 -13    0.07    0.11
   2  -3 -13   -0.10    0.20
  -2   3  13    0.20    0.19
   1  -3 -13    0.20    0.40
   1  -3 -13   -0.04    0.12
  -1   3  13   -0.04    0.12
  -1   3  13   -0.11    0.18
   0  -3 -13    0.26    0.15
   0  -3 -13    0.02    0.20
   0   3  13    0.04    0.22
   0   3  13    0.20    0.12
  -1  -3 -13   -0.14    0.18
  -1  -3 -13    0.09    0.23
   1   3  13    0.15    0.18
   1   3  13   -0.03    0.10
  -2  -3 -13    0.35    0.18
  -2  -3 -13    0.19    0.24
  -3  -3 -13    0.03    0.19
  -3  -3 -13    0.43    0.26
   3   3  13    0.33    0.20
   6  -4 -13    0.02    0.13
   6  -4 -13   -0.17    0.17
   6  -4 -13    0.23    0.26
  -6   4  13    0.00    0.22
  -6   4  13    0.39    0.24
   5  -4 -13    2.63    0.32
   5  -4 -13    4.05    0.47
  -5   4  13    3.12    0.62
  -5   4  13    4.53    0.49
   4  -4 -13    1.73    0.34
  -4   4  13    1.62    0.32
   3  -4 -13    3.02    0.46
  -3   4  13    2.98    0.43
   2  -4 -13   -0.13    0.12
  -2   4  13   -0.11    0.18
   1  -4 -13    0.18    0.13
   1  -4 -13    0.31    0.24
  -1   4  13    0.04    0.18
   0  -4 -13   -0.16    0.13
   0  -4 -13    0.03    0.21
   0   4  13   -0.05    0.12
   0   4  13    0.01    0.17
  -1  -4 -13    0.39    0.22
  -1  -4 -13   -0.02    0.16
   1   4  13    0.15    0.13
   1   4  13    0.27    0.13
  -2  -4 -13   -0.21    0.17
  -2  -4 -13    0.21    0.26
   2   4  13    0.16    0.17
   5  -5 -13    0.28    0.25
   5  -5 -13   -0.14    0.16
   5  -5 -13    0.03    0.14
  -5   5  13    0.04    0.21
   4  -5 -13    2.25    0.37
  -4   5  13    2.08    0.35
   3  -5 -13   -0.15    0.11
   3  -5 -13    1.02    0.45
  -3   5  13    0.18    0.21
   2  -5 -13   -0.10    0.13
   2  -5 -13   -0.23    0.21
  -2   5  13   -0.13    0.18
   1  -5 -13   -0.10    0.25
   1  -5 -13   -0.11    0.13
  -1   5  13    0.09    0.12
   0  -5 -13    0.11    0.25
   0  -5 -13    0.24    0.18
   0   5  13    0.20    0.12
   0   5  13   -0.08    0.17
  -1  -5 -13    1.46    0.35
  -1  -5 -13    0.49    0.20
   1   5  13    0.85    0.26
   4  -6 -13    0.19    0.26
  -4   6  13    0.12    0.16
   3  -6 -13    0.09    0.26
   3  -6 -13   -0.24    0.12
  -3   6  13    0.13    0.16
   2  -6 -13    0.04    0.24
   2  -6 -13   -0.19    0.14
  -2   6  13    0.26    0.22
  -2   6  13    0.03    0.15
   1  -6 -13    0.06    0.24
  -1   6  13    0.17    0.22
  -1   6  13    0.23    0.15
  -1   7 -14    0.63    0.28
   1  -7  14    0.73    0.29
   1  -7  14    0.29    0.18
  -2   7 -14    0.08    0.24
   2   6 -14    0.05    0.23
  -2  -6  14   -0.27    0.17
   1   6 -14    0.06    0.21
  -1  -6  14    0.50    0.24
  -1  -6  14    0.20    0.20
   0   6 -14    0.23    0.24
   0  -6  14    0.24    0.22
   0  -6  14    0.33    0.18
  -1   6 -14    0.39    0.23
   1  -6  14   -0.11    0.19
   1  -6  14    0.39    0.17
  -2   6 -14   -0.10    0.18
   2  -6  14    0.07    0.26
   2  -6  14   -0.13    0.11
  -3   6 -14   -0.04    0.21
   3  -6  14   -0.17    0.16
   3  -6  14    0.01    0.13
   3   5 -14    0.22    0.12
   3   5 -14    0.42    0.25
  -3  -5  14    0.20    0.21
  -3  -5  14    0.40    0.26
  -3  -5  14   -0.05    0.22
   2   5 -14    0.11    0.11
   2   5 -14    0.21    0.20
  -2  -5  14    0.30    0.20
  -2  -5  14   -0.05    0.18
   1   5 -14    0.38    0.21
  -1  -5  14    0.25    0.18
  -1  -5  14    0.34    0.23
   0   5 -14    0.32    0.20
   0  -5  14    0.17    0.16
   0  -5  14   -0.08    0.18
   1  -5  14   -0.36    0.18
   1  -5  14    0.07    0.12
  -2   5 -14    0.06    0.19
   2  -5  14    0.07    0.18
  -3   5 -14    0.14    0.20
   3  -5  14   -0.21    0.11
  -4   5 -14   -0.14    0.20
   4  -5  14   -0.11    0.12
   4   4 -14    0.08    0.36
  -4  -4  14    0.08    0.19
   3   4 -14   -0.32    0.15
   3   4 -14   -0.02    0.11
   3   4 -14    0.25    0.26
  -3  -4  14    0.01    0.15
  -3  -4  14    0.24    0.22
   2   4 -14    0.05    0.12
   2   4 -14   -0.09    0.20
   2   4 -14    0.29    0.10
  -2  -4  14    0.08    0.14
  -2  -4  14   -0.22    0.17
   1   4 -14    0.43    0.22
  -1  -4  14    0.23    0.21
  -1  -4  14    0.23    0.18
   0   4 -14    0.04    0.19
   0  -4  14    0.09    0.17
   0  -4  14    0.13    0.14
  -1   4 -14    0.07    0.18
   1  -4  14    0.03    0.17
  -2   4 -14    0.27    0.23
   2  -4  14   -0.06    0.19
  -3   4 -14    0.31    0.21
   3  -4  14    0.20    0.12
   3  -4  14    0.28    0.21
  -4   4 -14    0.10    0.23
  -4   4 -14   -0.35    0.22
   4  -4  14   -0.02    0.20
   4  -4  14    0.15    0.16
   4  -4  14   -0.01    0.14
   4   3 -14   -0.02    0.11
   4   3 -14   -0.30    0.21
  -4  -3  14   -0.14    0.19
  -4  -3  14    0.07    0.21
   3   3 -14   -0.18    0.17
   3   3 -14   -0.24    0.09
  -3  -3  14    0.13    0.22
  -3  -3  14   -0.07    0.16
   2   3 -14   -0.03    0.11
  -2  -3  14    0.17    0.20
  -2  -3  14    0.27    0.16
   1   3 -14    0.17    0.11
   1   3 -14    0.17    0.19
  -1  -3  14    0.07    0.19
  -1  -3  14    0.17    0.15
   0   3 -14    0.36    0.21
   0  -3  14    0.23    0.13
  -1   3 -14    0.50    0.20
   1  -3  14    0.50    0.20
  -2   3 -14    0.47    0.19
   2  -3  14    0.10    0.20
  -3   3 -14    0.20    0.18
   3  -3  14    0.04    0.11
   3  -3  14   -0.28    0.15
  -4   3 -14   -0.36    0.20
  -4   3 -14   -0.14    0.22
  -4   3 -14   -0.16    0.17
   4  -3  14   -0.30    0.13
   4  -3  14   -0.26    0.15
   4  -3  14   -0.01    0.11
   4  -3  14    0.21    0.22
   5   2 -14    0.15    0.22
   5   2 -14    0.08    0.12
  -5  -2  14    0.36    0.24
  -5  -2  14    0.03    0.20
   4   2 -14    0.30    0.21
   4   2 -14   -0.05    0.11
  -4  -2  14    0.21    0.17
  -4  -2  14    0.25    0.19
   3   2 -14   -0.10    0.19
  -3  -2  14    0.18    0.20
  -3  -2  14   -0.07    0.16
   2   2 -14    0.65    0.13
   2   2 -14    0.80    0.26
  -2  -2  14    0.80    0.20
  -2  -2  14    0.75    0.23
   1   2 -14    0.94    0.37
  -1  -2  14    1.17    0.23
  -1  -2  14    1.17    0.26
   0   2 -14    0.18    0.21
   0  -2  14   -0.09    0.17
  -1   2 -14    0.07    0.18
   1  -2  14    0.03    0.18
  -2   2 -14    0.01    0.13
  -2   2 -14    0.40    0.23
  -2   2 -14    0.20    0.17
   2  -2  14   -0.05    0.18
   2  -2  14   -0.18    0.13
   2  -2  14    0.07    0.09
  -3   2 -14    0.33    0.21
  -3   2 -14   -0.01    0.16
   3  -2  14   -0.11    0.10
   3  -2  14   -0.11    0.17
   3  -2  14   -0.26    0.17
  -4   2 -14   -0.06    0.23
  -4   2 -14    0.19    0.19
   4  -2  14    0.14    0.21
   4  -2  14    0.04    0.12
   4  -2  14   -0.23    0.14
   5   1 -14    0.03    0.12
   5   1 -14   -0.01    0.21
  -5  -1  14   -0.12    0.16
  -5  -1  14   -0.32    0.19
   4   1 -14   -0.18    0.20
   4   1 -14   -0.03    0.09
  -4  -1  14   -0.04    0.20
  -4  -1  14   -0.08    0.16
   3   1 -14    0.03    0.21
  -3  -1  14    0.16    0.19
  -3  -1  14    0.06    0.16
   2   1 -14   -0.05    0.13
   2   1 -14    0.23    0.20
  -2  -1  14    0.13    0.21
  -2  -1  14    0.12    0.14
   1   1 -14    0.20    0.15
   1   1 -14    0.22    0.34
  -1  -1  14    0.06    0.16
   0   1 -14   -0.04    0.18
   0   1 -14    0.18    0.15
   0  -1  14   -0.04    0.17
  -1   1 -14   -0.02    0.11
  -1   1 -14   -0.13    0.14
  -1   1 -14    0.31    0.20
   1  -1  14   -0.09    0.11
   1  -1  14    0.29    0.18
  -2   1 -14   -0.07    0.13
  -2   1 -14    0.64    0.24
  -2   1 -14   -0.01    0.16
   2  -1  14    0.08    0.16
   2  -1  14    0.03    0.10
   2  -1  14    0.05    0.20
  -3   1 -14    3.14    0.43
  -3   1 -14    2.79    0.37
   3  -1  14    2.66    0.40
   3  -1  14    2.72    0.32
  -4   1 -14    0.31    0.21
  -4   1 -14   -0.01    0.24
   4  -1  14    0.32    0.21
   4  -1  14    0.07    0.13
   5   0 -14   -0.14    0.22
  -5   0  14   -0.02    0.15
  -5   0  14   -0.12    0.17
   4   0 -14    0.09    0.23
  -4   0  14    0.01    0.18
  -4   0  14    0.08    0.14
   3   0 -14    1.00    0.29
  -3   0  14    0.87    0.23
  -3   0  14    0.96    0.27
   2   0 -14   -0.10    0.11
   2   0 -14    0.28    0.20
  -2   0  14   -0.23    0.12
  -2   0  14    0.00    0.17
   1   0 -14   -0.25    0.12
  -1   0  14    0.03    0.19
   0   0 -14    0.27    0.22
   0   0 -14   -0.01    0.13
   0   0  14   -0.32    0.15
  -1   0 -14    0.04    0.20
  -1   0 -14    0.20    0.15
   1   0  14   -0.23    0.11
   1   0  14   -0.17    0.15
   1   0  14   -0.07    0.09
  -2   0 -14    0.27    0.24
  -2   0 -14    0.04    0.16
  -2   0 -14    0.09    0.19
   2   0  14   -0.04    0.11
   2   0  14    0.19    0.20
   2   0  14    0.13    0.10
  -3   0 -14    0.06    0.22
  -3   0 -14   -0.18    0.14
   3   0  14   -0.08    0.11
   3   0  14    0.03    0.19
   5  -1 -14    0.29    0.24
  -5   1  14    0.34    0.23
  -5   1  14    0.22    0.16
   4  -1 -14    0.12    0.24
  -4   1  14    0.39    0.17
  -4   1  14    0.53    0.25
   3  -1 -14   -0.09    0.22
  -3   1  14    0.35    0.16
  -3   1  14   -0.05    0.18
   2  -1 -14    0.35    0.12
   2  -1 -14    0.43    0.24
  -2   1  14    0.54    0.22
   1  -1 -14    0.38    0.15
   1  -1 -14    0.54    0.23
  -1   1  14    0.23    0.20
   0  -1 -14   -0.11    0.20
   0  -1 -14    0.22    0.14
   0   1  14    0.11    0.09
   0   1  14    0.18    0.13
   0   1  14    0.19    0.30
  -1  -1 -14    0.49    0.23
  -1  -1 -14   -0.05    0.14
   1   1  14    0.17    0.10
   1   1  14   -0.08    0.16
  -2  -1 -14    0.06    0.17
  -2  -1 -14    0.18    0.23
   2   1  14    0.11    0.20
   2   1  14    0.23    0.11
  -3  -1 -14    0.57    0.20
  -3  -1 -14    1.46    0.32
   3   1  14    0.81    0.17
   3   1  14    0.54    0.25
   5  -2 -14   -0.33    0.24
  -5   2  14    0.12    0.22
  -5   2  14    0.08    0.15
   4  -2 -14    0.51    0.26
  -4   2  14    0.30    0.23
  -4   2  14    0.28    0.15
   3  -2 -14    1.65    0.33
  -3   2  14    1.35    0.35
   2  -2 -14    1.51    0.52
   2  -2 -14    0.73    0.15
  -2   2  14    0.97    0.26
   1  -2 -14    0.06    0.13
   1  -2 -14    0.51    0.25
  -1   2  14    0.13    0.20
  -1   2  14    0.23    0.08
   0  -2 -14    0.12    0.20
   0  -2 -14    0.03    0.14
   0   2  14   -0.08    0.12
   0   2  14    0.06    0.18
   0   2  14    0.06    0.09
  -1  -2 -14    0.32    0.23
  -1  -2 -14   -0.03    0.14
   1   2  14    0.10    0.09
   1   2  14    0.19    0.20
  -2  -2 -14    0.11    0.18
  -2  -2 -14    0.00    0.25
   2   2  14    0.09    0.10
   2   2  14   -0.12    0.10
   5  -3 -14    0.31    0.13
   5  -3 -14    0.11    0.25
  -5   3  14    0.50    0.29
  -5   3  14    0.25    0.15
   4  -3 -14    1.33    0.33
   4  -3 -14    0.65    0.16
  -4   3  14    1.20    0.31
   3  -3 -14    1.07    0.39
  -3   3  14    0.65    0.28
   2  -3 -14    0.15    0.21
   2  -3 -14   -0.07    0.11
  -2   3  14   -0.11    0.18
   1  -3 -14    0.27    0.23
  -1   3  14   -0.05    0.16
   0  -3 -14    0.07    0.16
   0  -3 -14    0.14    0.25
   0   3  14    0.11    0.13
   0   3  14   -0.10    0.18
  -1  -3 -14    0.55    0.20
  -1  -3 -14    0.37    0.24
   1   3  14    0.24    0.21
   1   3  14   -0.04    0.14
   5  -4 -14    0.00    0.25
  -5   4  14   -0.22    0.18
   4  -4 -14    2.42    0.41
  -4   4  14    1.67    0.37
   3  -4 -14    0.50    0.24
  -3   4  14    0.48    0.24
   2  -4 -14    0.12    0.21
   2  -4 -14   -0.09    0.13
  -2   4  14   -0.18    0.16
   1  -4 -14    0.06    0.22
  -1   4  14    0.25    0.20
   0  -4 -14   -0.28    0.22
   0  -4 -14   -0.01    0.14
   0   4  14   -0.13    0.18
   0   4  14   -0.06    0.15
   3  -5 -14   -0.09    0.25
  -3   5  14    0.20    0.22
   2  -5 -14    0.03    0.21
  -2   5  14   -0.20    0.21
   1   5 -15    1.22    0.30
  -1  -5  15    0.99    0.32
   0   5 -15    0.22    0.25
   0  -5  15   -0.05    0.19
   0  -5  15   -0.23    0.14
  -1   5 -15   -0.19    0.22
   1  -5  15    0.35    0.20
  -2   5 -15    0.46    0.24
   2   4 -15    0.46    0.24
  -2  -4  15    0.11    0.19
  -2  -4  15    0.16    0.23
   1   4 -15    0.03    0.23
  -1  -4  15    0.16    0.18
  -1  -4  15    0.23    0.23
   0   4 -15    0.67    0.25
   0  -4  15    0.25    0.16
   0  -4  15    0.26    0.20
  -1   4 -15    0.18    0.21
   1  -4  15    0.03    0.19
  -2   4 -15    0.06    0.22
   2  -4  15   -0.16    0.20
   3   3 -15    0.32    0.23
   3   3 -15    0.17    0.11
  -3  -3  15    0.06    0.23
  -3  -3  15    0.30    0.20
   2   3 -15    0.01    0.18
   2   3 -15   -0.28    0.13
  -2  -3  15    0.02    0.17
  -2  -3  15    0.42    0.21
   1   3 -15    0.15    0.22
  -1  -3  15    0.10    0.14
  -1  -3  15    0.20    0.20
   0   3 -15    0.61    0.25
   0  -3  15    0.36    0.21
  -1   3 -15    0.71    0.25
   1  -3  15   -0.05    0.18
  -2   3 -15    0.11    0.24
   2  -3  15   -0.26    0.23
  -3   3 -15   -0.27    0.17
  -3   3 -15    0.61    0.28
   3  -3  15    0.15    0.13
   4   2 -15   -0.06    0.12
   4   2 -15   -0.03    0.20
  -4  -2  15    0.07    0.18
   3   2 -15    0.30    0.21
  -3  -2  15    0.27    0.21
  -3  -2  15    0.20    0.17
   2   2 -15    0.33    0.22
   2   2 -15    0.02    0.12
  -2  -2  15    0.08    0.21
  -2  -2  15   -0.08    0.14
   1   2 -15   -0.01    0.19
  -1  -2  15    0.20    0.21
  -1  -2  15    0.16    0.15
   0   2 -15   -0.08    0.21
   0   2 -15    0.01    0.15
   0  -2  15   -0.05    0.20
  -1   2 -15    0.15    0.22
  -1   2 -15    0.36    0.18
   1  -2  15    0.35    0.20
  -2   2 -15    0.39    0.20
  -2   2 -15   -0.13    0.15
  -2   2 -15    0.35    0.24
   2  -2  15    0.71    0.17
  -3   2 -15    0.41    0.27
  -4  -1  15    0.33    0.27
  -4  -1  15    0.19    0.19
   3   1 -15    1.41    0.32
  -3  -1  15    1.06    0.23
  -3  -1  15    1.02    0.28
   2   1 -15    0.83    0.18
   2   1 -15    1.28    0.33
  -2  -1  15    0.99    0.23
  -2  -1  15    1.24    0.31
   1   1 -15    0.50    0.23
  -1  -1  15    0.03    0.19
   0   1 -15    0.23    0.16
   0   1 -15   -0.15    0.20
   0  -1  15    0.14    0.19
  -1   1 -15    0.58    0.19
  -1   1 -15    1.14    0.29
   1  -1  15    0.61    0.24
  -2   1 -15   -0.19    0.17
  -2   1 -15   -0.05    0.17
  -2   1 -15   -0.16    0.23
   2  -1  15    0.04    0.12
   2  -1  15   -0.41    0.30
   4   0 -15    0.21    0.27
  -4   0  15   -0.29    0.22
  -4   0  15    0.18    0.19
   3   0 -15    1.04    0.30
  -3   0  15    0.56    0.19
  -3   0  15    0.28    0.22
   2   0 -15    0.50    0.25
   2   0 -15   -0.04    0.12
  -2   0  15    0.11    0.20
   1   0 -15    0.15    0.23
  -1   0  15    0.03    0.17
   0   0 -15    0.61    0.27
   0   0 -15    0.42    0.18
   0   0  15    0.64    0.24
  -1   0 -15   -0.14    0.13
  -1   0 -15    0.22    0.22
  -1   0 -15   -0.11    0.14
   1   0  15   -0.19    0.19
   1   0  15   -0.09    0.09
  -2   0 -15    0.06    0.18
  -2   0 -15    0.15    0.25
  -2   0 -15    0.26    0.20
   2   0  15    0.07    0.11
   2   0  15   -0.35    0.15
   2   0  15    0.00    0.20
   4  -1 -15    0.32    0.37
  -4   1  15    0.41    0.26
  -4   1  15    0.61    0.21
   3  -1 -15    0.15    0.21
  -3   1  15    0.19    0.20
   2  -1 -15   -0.15    0.12
   2  -1 -15    0.30    0.22
  -2   1  15    0.01    0.19
   1  -1 -15    0.00    0.23
   1  -1 -15   -0.15    0.13
  -1   1  15    0.06    0.18
   0  -1 -15   -0.04    0.15
   0  -1 -15    0.32    0.24
   0   1  15    0.01    0.09
   0   1  15   -0.13    0.17
  -1  -1 -15    0.99    0.31
  -1  -1 -15    0.76    0.22
   1   1  15    0.55    0.13
   1   1  15    1.21    0.31
   1   1  15    0.57    0.19
   4  -2 -15    0.56    0.32
  -4   2  15    0.23    0.25
   3  -2 -15    0.20    0.25
  -3   2  15    0.16    0.22
   2  -2 -15    0.47    0.26
   2  -2 -15    0.17    0.15
  -2   2  15    0.13    0.21
   1  -2 -15   -0.29    0.20
   1  -2 -15   -0.08    0.14
  -1   2  15   -0.30    0.17
   0  -2 -15    0.39    0.20
   0  -2 -15   -0.10    0.25
   0   2  15    0.12    0.21
  -1  -2 -15   -0.28    0.15
  -1  -2 -15    0.00    0.24
   1   2  15   -0.20    0.09
   1   2  15   -0.37    0.15
   3  -3 -15   -0.15    0.23
  -3   3  15   -0.13    0.22
   2  -3 -15   -0.06    0.22
   2  -3 -15   -0.13    0.12
  -2   3  15   -0.14    0.21
   1  -3 -15    0.11    0.26
   1  -3 -15   -0.24    0.13
  -1   3  15    0.21    0.21
   0   3 -16   -0.11    0.22
   1   2 -16    0.12    0.24
   1   2 -16    0.12    0.17
  -1  -2  16    0.21    0.23
   0   2 -16   -0.03    0.27
   0   2 -16    0.20    0.17
   0  -2  16    0.14    0.21
   2   1 -16    0.20    0.14
   2   1 -16    0.11    0.17
   2   1 -16   -0.07    0.23
   1   1 -16   -0.39    0.22
   1   1 -16   -0.33    0.14
  -1  -1  16   -0.16    0.20
   0   1 -16    0.22    0.30
   0   1 -16    0.02    0.18
   0  -1  16   -0.06    0.20
   2   0 -16    0.13    0.14
   2   0 -16    0.02    0.25
  -2   0  16    0.22    0.23
   1   0 -16    0.22    0.17
   1   0 -16    0.28    0.29
  -1   0  16    0.62    0.28
   0   0 -16    0.46    0.27
   0   0 -16   -0.10    0.15
   0   0  16    0.06    0.09
   0   0   0    0.00    0.00
;
_shelx_hkl_checksum              85744
loop_
_space_group_symop_operation_xyz
'x, y, z'
'-x, -y, -z'
loop_
_atom_site_label
_atom_site_type_symbol
_atom_site_fract_x
_atom_site_fract_y
_atom_site_fract_z
_atom_site_U_iso_or_equiv
_atom_site_adp_type
_atom_site_occupancy
_atom_site_site_symmetry_order
_atom_site_calc_flag
_atom_site_refinement_flags_posn
_atom_site_refinement_flags_adp
_atom_site_refinement_flags_occupancy
_atom_site_disorder_assembly
_atom_site_disorder_group
C6 C -0.01093(18) -0.13499(14) -0.22985(10) 0.0514(5) Uani 0.942(2) 1 d G . P A
1
C1 C -0.0965(2) -0.28399(15) -0.21234(10) 0.0538(5) Uani 0.942(2) 1 d G . P A 1
C2 C -0.2183(2) -0.38665(13) -0.29396(13) 0.0662(7) Uani 0.942(2) 1 d G . P A 1
H2 H -0.2768 -0.4885 -0.2820 0.079 Uiso 0.942(2) 1 calc R U P A 1
C3 C -0.2546(2) -0.34030(18) -0.39310(11) 0.0738(7) Uani 0.942(2) 1 d G . P A 1
H3 H -0.3379 -0.4105 -0.4489 0.089 Uiso 0.942(2) 1 calc R U P A 1
C4 C -0.1690(2) -0.1913(2) -0.41062(10) 0.0767(8) Uani 0.942(2) 1 d G . P A 1
H4 H -0.1938 -0.1596 -0.4784 0.092 Uiso 0.942(2) 1 calc R U P A 1
C5 C -0.0472(2) -0.08865(15) -0.32899(12) 0.0686(7) Uani 0.942(2) 1 d G . P A 1
H5 H 0.0113 0.0132 -0.3410 0.082 Uiso 0.942(2) 1 calc R U P A 1
C7 C 0.1135(3) -0.0324(2) -0.14491(17) 0.0529(5) Uani 0.942(2) 1 d . . P A 1
H7 H 0.1712 0.0698 -0.1564 0.063 Uiso 0.942(2) 1 calc R U P A 1
C8 C 0.1527(3) -0.0766(2) -0.04666(17) 0.0509(5) Uani 0.942(2) 1 d . . P A 1
C9 C 0.0613(3) -0.2272(3) -0.02954(19) 0.0595(6) Uani 0.942(2) 1 d . . P A 1
H9 H 0.0840 -0.2591 0.0385 0.071 Uiso 0.942(2) 1 calc R U P A 1
C10 C -0.0595(3) -0.3278(3) -0.10940(19) 0.0619(6) Uani 0.942(2) 1 d . . P A 1
H10 H -0.1198 -0.4287 -0.0960 0.074 Uiso 0.942(2) 1 calc R U P A 1
C11 C 0.2822(3) 0.0392(2) 0.03535(17) 0.0559(5) Uani 1 1 d . . . . .
H11 H 0.2972 0.1404 0.0251 0.067 Uiso 0.942(2) 1 calc R U P A 1
H11A H 0.2895 0.1413 0.0449 0.067 Uiso 0.058(2) 1 calc R U P A 2
C12 C 0.3822(3) 0.0233(2) 0.12235(16) 0.0528(5) Uani 1 1 d . . . . .
C13 C 0.3779(3) -0.1237(3) 0.1442(2) 0.0692(6) Uani 1 1 d . . . . .
C14 C 0.5072(3) 0.1516(2) 0.19997(16) 0.0502(5) Uani 1 1 d . . . . .
C15 C 0.5763(3) 0.2966(2) 0.17053(17) 0.0564(5) Uani 1 1 d . . . . .
H15 H 0.5457 0.3143 0.0990 0.068 Uiso 1 1 calc R U . . .
C16 C 0.6892(3) 0.4149(2) 0.24492(18) 0.0573(5) Uani 1 1 d . . . . .
C17 C 0.7378(3) 0.3918(2) 0.34886(17) 0.0573(5) Uani 1 1 d . . . . .
H17 H 0.8162 0.4736 0.3993 0.069 Uiso 1 1 calc R U . . .
C18 C 0.6708(3) 0.2485(2) 0.37836(16) 0.0535(5) Uani 1 1 d . . . . .
C19 C 0.5570(3) 0.1292(2) 0.30464(16) 0.0527(5) Uani 1 1 d . . . . .
H19 H 0.5125 0.0309 0.3260 0.063 Uiso 1 1 calc R U . . .
C20 C 0.7613(4) 0.5708(3) 0.2138(2) 0.0785(7) Uani 1 1 d . . . . .
C21 C 0.7137(3) 0.2240(3) 0.49220(19) 0.0682(6) Uani 1 1 d . . . . .
F1 F 0.6948(4) 0.5851(2) 0.11704(18) 0.1219(10) Uani 0.922(2) 1 d . . P B 1
F2 F 0.9408(3) 0.6240(2) 0.2182(2) 0.1232(9) Uani 0.922(2) 1 d . . P B 1
F3 F 0.7249(4) 0.6701(2) 0.28197(19) 0.1208(9) Uani 0.922(2) 1 d . . P B 1
F4 F 0.8710(2) 0.32208(19) 0.54009(13) 0.1045(6) Uani 1 1 d . . . . .
F5 F 0.5892(2) 0.2368(2) 0.55380(12) 0.1030(6) Uani 1 1 d . . . . .
F6 F 0.7189(3) 0.08823(18) 0.50083(13) 0.1044(6) Uani 1 1 d . . . . .
N1 N 0.3809(4) -0.2379(3) 0.1632(2) 0.1113(10) Uani 1 1 d . . . . .
C5A C -0.158(3) -0.4052(18) -0.1781(16) 0.060 Uiso 0.058(2) 1 d G U P A 2
H5A H -0.1496 -0.4600 -0.1190 0.072 Uiso 0.058(2) 1 calc R U P A 2
C4A C -0.273(3) -0.4776(18) -0.2722(18) 0.060 Uiso 0.058(2) 1 d G U P A 2
H4A H -0.3440 -0.5819 -0.2774 0.072 Uiso 0.058(2) 1 calc R U P A 2
C3A C -0.285(3) -0.397(2) -0.3586(16) 0.060 Uiso 0.058(2) 1 d G U P A 2
H3A H -0.3636 -0.4468 -0.4229 0.072 Uiso 0.058(2) 1 calc R U P A 2
C2A C -0.181(3) -0.245(2) -0.3509(13) 0.060 Uiso 0.058(2) 1 d G U P A 2
H2A H -0.1888 -0.1898 -0.4100 0.072 Uiso 0.058(2) 1 calc R U P A 2
C1A C -0.065(2) -0.1722(17) -0.2569(12) 0.060 Uiso 0.058(2) 1 d G U P A 2
C6A C -0.054(2) -0.2525(18) -0.1704(12) 0.060 Uiso 0.058(2) 1 d G U P A 2
C7A C 0.062(3) -0.180(2) -0.0764(13) 0.060 Uiso 0.058(2) 1 d G U P A 2
H7A H 0.0698 -0.2350 -0.0173 0.072 Uiso 0.058(2) 1 calc R U P A 2
C8A C 0.166(3) -0.027(2) -0.0687(16) 0.060 Uiso 0.058(2) 1 d G U P A 2
C9A C 0.154(3) 0.0528(19) -0.1551(19) 0.060 Uiso 0.058(2) 1 d G U P A 2
H9A H 0.2251 0.1571 -0.1499 0.072 Uiso 0.058(2) 1 calc R U P A 2
C10A C 0.039(3) -0.0196(18) -0.2492(16) 0.060 Uiso 0.058(2) 1 d G U P A 2
H10A H 0.0306 0.0353 -0.3083 0.072 Uiso 0.058(2) 1 calc R U P A 2
F1A F 0.859(3) 0.558(2) 0.1229(17) 0.080 Uiso 0.078(2) 1 d . U P B 2
F2A F 0.861(4) 0.663(2) 0.2816(18) 0.080 Uiso 0.078(2) 1 d . U P B 2
F3A F 0.632(3) 0.598(2) 0.177(2) 0.080 Uiso 0.078(2) 1 d . U P B 2
loop_
_atom_site_aniso_label
_atom_site_aniso_U_11
_atom_site_aniso_U_22
_atom_site_aniso_U_33
_atom_site_aniso_U_23
_atom_site_aniso_U_13
_atom_site_aniso_U_12
C6 0.0510(12) 0.0553(13) 0.0487(12) 0.0014(9) 0.0089(9) 0.0206(10)
C1 0.0501(12) 0.0547(13) 0.0554(13) -0.0043(10) 0.0079(10) 0.0193(10)
C2 0.0611(14) 0.0607(14) 0.0698(16) -0.0085(12) 0.0030(12) 0.0177(11)
C3 0.0668(15) 0.0800(19) 0.0671(17) -0.0185(13) -0.0052(13) 0.0264(14)
C4 0.0784(17) 0.094(2) 0.0576(15) -0.0002(14) -0.0034(13) 0.0360(15)
C5 0.0721(15) 0.0697(16) 0.0633(15) 0.0086(12) 0.0054(12) 0.0248(13)
C7 0.0530(12) 0.0470(12) 0.0571(13) 0.0041(10) 0.0093(10) 0.0157(9)
C8 0.0514(12) 0.0536(13) 0.0474(12) 0.0010(9) 0.0097(9) 0.0185(10)
C9 0.0621(13) 0.0590(13) 0.0515(13) 0.0090(10) 0.0065(10) 0.0136(11)
C10 0.0626(14) 0.0498(12) 0.0666(15) 0.0080(11) 0.0094(11) 0.0112(10)
C11 0.0561(12) 0.0550(12) 0.0531(12) -0.0005(9) 0.0098(9) 0.0164(9)
C12 0.0503(11) 0.0541(11) 0.0508(11) -0.0006(9) 0.0102(9) 0.0154(9)
C13 0.0649(14) 0.0591(14) 0.0729(15) 0.0001(12) -0.0064(11) 0.0139(11)
C14 0.0451(10) 0.0531(11) 0.0487(11) 0.0002(9) 0.0100(8) 0.0132(8)
C15 0.0540(11) 0.0603(12) 0.0520(12) 0.0091(9) 0.0119(9) 0.0150(9)
C16 0.0526(11) 0.0503(11) 0.0630(13) 0.0061(10) 0.0132(10) 0.0097(9)
C17 0.0502(11) 0.0539(12) 0.0583(13) 0.0004(9) 0.0062(9) 0.0080(9)
C18 0.0477(10) 0.0546(12) 0.0528(12) 0.0025(9) 0.0060(9) 0.0122(9)
C19 0.0488(10) 0.0503(11) 0.0545(12) 0.0052(9) 0.0092(9) 0.0116(8)
C20 0.0818(18) 0.0627(15) 0.0764(18) 0.0142(13) 0.0035(14) 0.0073(13)
C21 0.0655(14) 0.0646(14) 0.0617(14) 0.0067(11) -0.0021(11) 0.0099(11)
F1 0.169(2) 0.0776(12) 0.0885(14) 0.0324(11) -0.0121(14) 0.0060(13)
F2 0.0816(13) 0.0927(14) 0.175(2) 0.0546(15) 0.0275(14) -0.0064(10)
F3 0.173(2) 0.0605(11) 0.1297(18) 0.0103(11) 0.0357(16) 0.0386(12)
F4 0.0868(11) 0.1042(12) 0.0824(11) 0.0121(9) -0.0273(8) -0.0078(9)
F5 0.1032(12) 0.1439(16) 0.0594(9) 0.0144(9) 0.0196(8) 0.0382(11)
F6 0.1422(15) 0.0808(11) 0.0843(11) 0.0172(8) -0.0169(10) 0.0377(10)
N1 0.113(2) 0.0658(15) 0.140(2) 0.0084(15) -0.0314(17) 0.0246(14)
loop_
_atom_type_symbol
_atom_type_description
_atom_type_scat_dispersion_real
_atom_type_scat_dispersion_imag
_atom_type_scat_source
C C 0.0033 0.0016 'International Tables Vol C Tables 4.2.6.8 and 6.1.1.4'
H H 0.0000 0.0000 'International Tables Vol C Tables 4.2.6.8 and 6.1.1.4'
F F 0.0171 0.0103 'International Tables Vol C Tables 4.2.6.8 and 6.1.1.4'
N N 0.0061 0.0033 'International Tables Vol C Tables 4.2.6.8 and 6.1.1.4'
loop_
_geom_angle_atom_site_label_1
_geom_angle_atom_site_label_2
_geom_angle_atom_site_label_3
_geom_angle
_geom_angle_site_symmetry_1
_geom_angle_site_symmetry_3
_geom_angle_publ_flag
C1 C6 C5 120.0 . . ?
C1 C6 C7 118.81(13) . . ?
C5 C6 C7 121.20(13) . . ?
C2 C1 C6 120.0 . . ?
C2 C1 C10 121.14(13) . . ?
C6 C1 C10 118.85(13) . . ?
C1 C2 C3 120.0 . . ?
C1 C2 H2 120.0 . . ?
C3 C2 H2 120.0 . . ?
C2 C3 C4 120.0 . . ?
C2 C3 H3 120.0 . . ?
C4 C3 H3 120.0 . . ?
C3 C4 C5 120.0 . . ?
C3 C4 H4 120.0 . . ?
C5 C4 H4 120.0 . . ?
C4 C5 C6 120.0 . . ?
C4 C5 H5 120.0 . . ?
C6 C5 H5 120.0 . . ?
C8 C7 C6 122.00(18) . . ?
C8 C7 H7 119.0 . . ?
C6 C7 H7 119.0 . . ?
C7 C8 C9 118.34(19) . . ?
C7 C8 C11 117.3(2) . . ?
C9 C8 C11 124.3(2) . . ?
C10 C9 C8 120.9(2) . . ?
C10 C9 H9 119.6 . . ?
C8 C9 H9 119.6 . . ?
C9 C10 C1 121.1(2) . . ?
C9 C10 H10 119.5 . . ?
C1 C10 H10 119.5 . . ?
C12 C11 C8 129.5(2) . . ?
C12 C11 C8A 149.2(10) . . ?
C12 C11 H11 115.2 . . ?
C8 C11 H11 115.2 . . ?
C12 C11 H11A 105.4 . . ?
C8A C11 H11A 105.4 . . ?
C11 C12 C13 120.66(19) . . ?
C11 C12 C14 123.8(2) . . ?
C13 C12 C14 115.47(19) . . ?
N1 C13 C12 177.5(3) . . ?
C19 C14 C15 118.34(18) . . ?
C19 C14 C12 120.31(18) . . ?
C15 C14 C12 121.35(18) . . ?
C16 C15 C14 120.3(2) . . ?
C16 C15 H15 119.8 . . ?
C14 C15 H15 119.8 . . ?
C17 C16 C15 121.0(2) . . ?
C17 C16 C20 118.7(2) . . ?
C15 C16 C20 120.3(2) . . ?
C18 C17 C16 119.01(19) . . ?
C18 C17 H17 120.5 . . ?
C16 C17 H17 120.5 . . ?
C17 C18 C19 120.5(2) . . ?
C17 C18 C21 119.39(19) . . ?
C19 C18 C21 120.04(19) . . ?
C18 C19 C14 120.84(19) . . ?
C18 C19 H19 119.6 . . ?
C14 C19 H19 119.6 . . ?
F2A C20 F3A 115.2(16) . . ?
F1 C20 F2 107.3(3) . . ?
F1 C20 F3 105.5(3) . . ?
F2 C20 F3 104.2(2) . . ?
F2A C20 F1A 108.8(15) . . ?
F3A C20 F1A 105.0(14) . . ?
F2A C20 C16 115.5(11) . . ?
F3A C20 C16 106.6(11) . . ?
F1 C20 C16 114.5(2) . . ?
F2 C20 C16 112.7(2) . . ?
F3 C20 C16 111.9(2) . . ?
F1A C20 C16 104.8(8) . . ?
F6 C21 F4 106.8(2) . . ?
F6 C21 F5 105.3(2) . . ?
F4 C21 F5 105.8(2) . . ?
F6 C21 C18 113.2(2) . . ?
F4 C21 C18 113.20(19) . . ?
F5 C21 C18 111.8(2) . . ?
C4A C5A C6A 120.0 . . ?
C4A C5A H5A 120.0 . . ?
C6A C5A H5A 120.0 . . ?
C3A C4A C5A 120.0 . . ?
C3A C4A H4A 120.0 . . ?
C5A C4A H4A 120.0 . . ?
C2A C3A C4A 120.0 . . ?
C2A C3A H3A 120.0 . . ?
C4A C3A H3A 120.0 . . ?
C1A C2A C3A 120.0 . . ?
C1A C2A H2A 120.0 . . ?
C3A C2A H2A 120.0 . . ?
C2A C1A C6A 120.0 . . ?
C2A C1A C10A 120.0 . . ?
C6A C1A C10A 120.0 . . ?
C7A C6A C1A 120.0 . . ?
C7A C6A C5A 120.0 . . ?
C1A C6A C5A 120.0 . . ?
C8A C7A C6A 120.0 . . ?
C8A C7A H7A 120.0 . . ?
C6A C7A H7A 120.0 . . ?
C9A C8A C7A 120.0 . . ?
C9A C8A C11 124.2(13) . . ?
C7A C8A C11 115.7(13) . . ?
C8A C9A C10A 120.0 . . ?
C8A C9A H9A 120.0 . . ?
C10A C9A H9A 120.0 . . ?
C9A C10A C1A 120.0 . . ?
C9A C10A H10A 120.0 . . ?
C1A C10A H10A 120.0 . . ?
loop_
_geom_bond_atom_site_label_1
_geom_bond_atom_site_label_2
_geom_bond_distance
_geom_bond_site_symmetry_2
_geom_bond_publ_flag
C6 C1 1.3900 . ?
C6 C5 1.3900 . ?
C6 C7 1.424(2) . ?
C1 C2 1.3900 . ?
C1 C10 1.423(3) . ?
C2 C3 1.3900 . ?
C2 H2 0.9500 . ?
C3 C4 1.3900 . ?
C3 H3 0.9500 . ?
C4 C5 1.3900 . ?
C4 H4 0.9500 . ?
C5 H5 0.9500 . ?
C7 C8 1.377(3) . ?
C7 H7 0.9500 . ?
C8 C9 1.408(3) . ?
C8 C11 1.470(3) . ?
C9 C10 1.366(3) . ?
C9 H9 0.9500 . ?
C10 H10 0.9500 . ?
C11 C12 1.339(3) . ?
C11 C8A 1.480(16) . ?
C11 H11 0.9500 . ?
C11 H11A 0.9500 . ?
C12 C13 1.439(3) . ?
C12 C14 1.485(3) . ?
C13 N1 1.140(3) . ?
C14 C19 1.389(3) . ?
C14 C15 1.393(3) . ?
C15 C16 1.383(3) . ?
C15 H15 0.9500 . ?
C16 C17 1.380(3) . ?
C16 C20 1.494(3) . ?
C17 C18 1.378(3) . ?
C17 H17 0.9500 . ?
C18 C19 1.385(3) . ?
C18 C21 1.491(3) . ?
C19 H19 0.9500 . ?
C20 F2A 1.18(2) . ?
C20 F3A 1.20(2) . ?
C20 F1 1.314(3) . ?
C20 F2 1.323(3) . ?
C20 F3 1.338(4) . ?
C20 F1A 1.45(2) . ?
C21 F6 1.321(3) . ?
C21 F4 1.321(3) . ?
C21 F5 1.329(3) . ?
C5A C4A 1.3900 . ?
C5A C6A 1.3900 . ?
C5A H5A 0.9500 . ?
C4A C3A 1.3900 . ?
C4A H4A 0.9500 . ?
C3A C2A 1.3900 . ?
C3A H3A 0.9500 . ?
C2A C1A 1.3900 . ?
C2A H2A 0.9500 . ?
C1A C6A 1.3900 . ?
C1A C10A 1.3900 . ?
C6A C7A 1.3900 . ?
C7A C8A 1.3900 . ?
C7A H7A 0.9500 . ?
C8A C9A 1.3900 . ?
C9A C10A 1.3900 . ?
C9A H9A 0.9500 . ?
C10A H10A 0.9500 . ?
