#------------------------------------------------------------------------------
#$Date: 2022-03-06 06:37:54 +0200 (Sun, 06 Mar 2022) $
#$Revision: 273468 $
#$URL: file:///home/coder/svn-repositories/cod/cif/1/56/59/1565941.cif $
#------------------------------------------------------------------------------
#
# This file is available in the Crystallography Open Database (COD),
# http://www.crystallography.net/
#
# All data on this site have been placed in the public domain by the
# contributors.
#
data_1565941
loop_
_publ_author_name
'Wildner, Manfred'
'Zakharov, Boris A.'
'Bogdanov, Nikita E.'
'Talla, Dominik'
'Boldyreva, Elena V.'
'Miletich, Ronald'
_publ_section_title
;
 Crystallography relevant to Mars and Galilean icy moons: crystal behavior
 of kieserite-type monohydrate sulfates at extraterrestrial conditions
 down to 15 K
;
_journal_issue                   2
_journal_name_full               IUCrJ
_journal_page_first              194
_journal_page_last               203
_journal_paper_doi               10.1107/S2052252521012720
_journal_volume                  9
_journal_year                    2022
_chemical_formula_sum            'Fe0 H2 Mg O5 S'
_chemical_formula_weight         138.39
_space_group_crystal_system      monoclinic
_space_group_IT_number           15
_space_group_name_Hall           '-C 2yc'
_space_group_name_H-M_alt        'C 1 2/c 1'
_atom_sites_solution_hydrogens   difmap
_audit_creation_method           SHELXL-2017/1
_cell_angle_alpha                90
_cell_angle_beta                 118.112(10)
_cell_angle_gamma                90
_cell_formula_units_Z            4
_cell_length_a                   6.9227(10)
_cell_length_b                   7.6212(10)
_cell_length_c                   7.6488(10)
_cell_measurement_temperature    313(2)
_cell_volume                     355.94(9)
_computing_structure_refinement  'SHELXL-2017/1 (Sheldrick, 2017)'
_diffrn_ambient_temperature      313(2)
_diffrn_measured_fraction_theta_full 0.997
_diffrn_measured_fraction_theta_max 0.999
_diffrn_radiation_type           MoK\a
_diffrn_radiation_wavelength     0.71073
_diffrn_reflns_av_R_equivalents  0.0209
_diffrn_reflns_av_unetI/netI     0.0111
_diffrn_reflns_Laue_measured_fraction_full 0.997
_diffrn_reflns_Laue_measured_fraction_max 0.999
_diffrn_reflns_limit_h_max       12
_diffrn_reflns_limit_h_min       -12
_diffrn_reflns_limit_k_max       13
_diffrn_reflns_limit_k_min       -13
_diffrn_reflns_limit_l_max       13
_diffrn_reflns_limit_l_min       -13
_diffrn_reflns_number            9957
_diffrn_reflns_point_group_measured_fraction_full 0.997
_diffrn_reflns_point_group_measured_fraction_max 0.999
_diffrn_reflns_theta_full        25.242
_diffrn_reflns_theta_max         39.988
_diffrn_reflns_theta_min         4.232
_exptl_absorpt_coefficient_mu    0.967
_exptl_absorpt_correction_T_max  0.7479
_exptl_absorpt_correction_T_min  0.6849
_exptl_absorpt_correction_type   multi-scan
_exptl_absorpt_process_details
;
 SADABS 2016/2: Krause, L., Herbst-Irmer, R., Sheldrick G.M. & Stalke D.,
 J. Appl. Cryst. 48 (2015) 3-10
;
_exptl_crystal_density_diffrn    2.582
_exptl_crystal_F_000             280
_refine_diff_density_max         0.470
_refine_diff_density_min         -0.366
_refine_diff_density_rms         0.071
_refine_ls_extinction_coef       0.004(2)
_refine_ls_extinction_expression Fc^*^=kFc[1+0.001xFc^2^\l^3^/sin(2\q)]^-1/4^
_refine_ls_extinction_method     'SHELXL-2017/1 (Sheldrick 2017)'
_refine_ls_goodness_of_fit_ref   1.180
_refine_ls_hydrogen_treatment    refall
_refine_ls_matrix_type           full
_refine_ls_number_parameters     40
_refine_ls_number_reflns         1103
_refine_ls_number_restraints     0
_refine_ls_restrained_S_all      1.180
_refine_ls_R_factor_all          0.0185
_refine_ls_R_factor_gt           0.0172
_refine_ls_shift/su_max          0.000
_refine_ls_shift/su_mean         0.000
_refine_ls_structure_factor_coef Fsqd
_refine_ls_weighting_details
'w=1/[\s^2^(Fo^2^)+(0.0200P)^2^+0.2200P] where P=(Fo^2^+2Fc^2^)/3'
_refine_ls_weighting_scheme      calc
_refine_ls_wR_factor_gt          0.0480
_refine_ls_wR_factor_ref         0.0484
_reflns_Friedel_coverage         0.000
_reflns_number_gt                1049
_reflns_number_total             1103
_reflns_threshold_expression     'I > 2\s(I)'
_cod_data_source_file            lt5044.cif
_cod_data_source_block           MgSO4H2O_N2_313K
_cod_depositor_comments
'Adding full bibliography for 1565934--1565967.cif.'
_cod_original_sg_symbol_H-M      'C 2/c'
_cod_database_code               1565941
_shelx_shelxl_version_number     2017/1
_shelx_space_group_comment
;
The symmetry employed for this shelxl refinement is uniquely defined
by the following loop, which should always be used as a source of
symmetry information in preference to the above space-group names.
They are only intended as comments.
;
_shelx_res_file
;
TITL 204dkiesx1 313K Apex in C2/c kieserite cell
    latt_corr_for_Nonius20C_204dkiesx1_Apex313K.res
    created by SHELXL-2017/1 at 15:51:13 on 08-Oct-2018

REM meas.  mon  6.90443(9) 7.61095(10) 7.50970(9) 90.0   116.1937(6) 90.0
REM trans. cryscomp 6.9044 7.6110 7.6350 90.0   118.044 90.0
REM meas.trcl 6.90434(9)7.61075(10)7.51031(9) 89.9892(7)116.1959(6)90.0580(7)
REM trans. cryscomp 6.9043 7.6108 7.6350 90.042  118.039  89.942
REM CELL 0.71073   6.9044 7.6110 7.6350 90.0   118.044 90.0
REM latt corr for Nonius20C +.0183 +.0102 +.0138         +.068
CELL 0.71073   6.9227 7.6212 7.6488 90.0   118.112 90.0
ZERR    4.00   0.001   0.001   0.001   0.00   0.01   0.00
LATT  7
SYMM -X, Y, .5-Z
SFAC O H S MG FE
UNIT 20 8 4 4 0
SHEL 20 0.55285
OMIT -2 2 2
REM OMIT 1 1 2
L.S. 10
CONN 12 1.8 $O
EQIV $9 -x+1/2, y+1/2, -z+1/2
BOND $H
FMAP 2
PLAN 20
ACTA
HTAB O3 O2_$9
HTAB
REM EXYZ MG FE
REM EADP MG FE
REM SUMP 1.0 0 1.0 2 1.0 3
REM Fe wird negativ verfeinert
WGHT    0.020000    0.220000
EXTI    0.003669
FVAR       1.00202
MG    4    0.000000    0.500000    0.000000    10.50000    0.00750    0.00876 =
         0.00858    0.00055    0.00319   -0.00057
REM FE  5  0.000000    0.500000    0.000000    10.50000    0.00571    0.00681 =
REM      0.00653    0.00034    0.00244   -0.00039
S     3    0.000000    0.154610    0.250000    10.50000    0.00519    0.00655 =
         0.00819    0.00000    0.00267    0.00000
O1    1    0.175853    0.044421    0.394114    11.00000    0.00842    0.01549 =
         0.01567    0.00690    0.00418    0.00412
O2    1    0.091199    0.267432    0.149075    11.00000    0.01256    0.01123 =
         0.01667    0.00498    0.00915    0.00131
O3    1    0.000000    0.635337    0.250000    10.50000    0.01099    0.01228 =
         0.01095    0.00000    0.00556    0.00000
H     2    0.103202    0.702577    0.293041    11.00000    0.02819
HKLF 4 1  1 0 0 0 -1 0 -1 0 -1




REM  204dkiesx1 313K Apex in C2/c kieserite cell
REM R1 =  0.0172 for    1049 Fo > 4sig(Fo)  and  0.0185 for all    1103 data
REM     40 parameters refined using      0 restraints

END

WGHT      0.0201      0.2157

REM Instructions for potential hydrogen bonds
EQIV $20 x+1/2, y+1/2, z
HTAB O3 S_$20
HTAB O3 O2_$9

REM Highest difference peak  0.470,  deepest hole -0.366,  1-sigma level  0.071
Q1    1   0.0377  0.2261  0.1944  11.00000  0.05    0.47
Q2    1   0.0969  0.0960  0.3135  11.00000  0.05    0.40
Q3    1   0.0046  0.2998  0.1184  11.00000  0.05    0.25
Q4    1   0.2366  0.0506  0.3614  11.00000  0.05    0.23
Q5    1  -0.0105  0.6021  0.3260  11.00000  0.05    0.20
Q6    1   0.2500  0.7500  0.5000  10.50000  0.05    0.19
Q7    1   0.2039  0.2347  0.1871  11.00000  0.05    0.16
Q8    1   0.1006  0.6270 -0.0598  11.00000  0.05    0.15
Q9    1   0.3342  0.0348  0.4104  11.00000  0.05    0.15
Q10   1   0.2639  0.6144  0.3722  11.00000  0.05    0.14
Q11   1   0.1775 -0.0002  0.6338  11.00000  0.05    0.14
Q12   1   0.0176 -0.1134  0.3159  11.00000  0.05    0.13
Q13   1   0.2424  0.4577  0.2825  11.00000  0.05    0.13
Q14   1   0.1453 -0.0324  0.2300  11.00000  0.05    0.13
Q15   1   0.1602  0.3732  0.2857  11.00000  0.05    0.12
Q16   1   0.2188  0.8380  0.3410  11.00000  0.05    0.12
Q17   1   0.2595  0.1311  0.6195  11.00000  0.05    0.12
Q18   1   0.1748  0.0958  0.6355  11.00000  0.05    0.12
Q19   1   0.2174  0.5299  0.3409  11.00000  0.05    0.12
Q20   1   0.3274  0.1405  0.5765  11.00000  0.05    0.12
;
_shelx_res_checksum              29603
_shelx_hkl_file
;
   2   0   0 2273.05 38.4810   1
  -2   0   0 2311.70 38.4735  15
   2   0   0 2286.72 37.9408   4
  -2   0   0 2245.70 39.1255   8
  -2   0   0 2293.35 41.8738  13
   2   0   0 2272.73 37.8045  11
  -2   0   0 2320.49 41.0153  16
   2   0   0 2218.05 39.2754  16
   2   0   0 2338.76 38.7671  10
   2   0   0 2285.37 41.9013  13
  -4   0   0 8904.94 148.330   2
   4   0   0 8881.95 172.881  13
  -4   0   0 8784.08 171.597  13
   4   0   0 8982.77 150.742   1
  -4   0   0 8960.83 157.325  16
   4   0   0 8876.31 156.608  11
   4   0   0 8751.11 149.323   7
  -4   0   0 9194.79 155.540   8
  -4   0   0 8945.88 145.146  15
   4   0   0 8589.88 148.147   4
   4   0   0 8898.19 157.957  10
  -6   0   0 900.458 23.0517   8
   6   0   0 869.126 19.1360   4
   6   0   0 900.101 20.4206   7
   6   0   0 905.057 20.4056   1
  -6   0   0 866.761 18.7967  16
  -6   0   0 878.922 20.5198  15
   8   0   0 626.377 18.3936   7
  -8   0   0 640.359 22.4885   3
  -8   0   0 612.721 18.1196  15
  -8   0   0 645.006 21.6297   8
 -10   0   0 212.875 14.7150   8
  10   0   0 201.119 11.0587   7
 -10   0   0 203.357 14.9501   3
   1  -1   0 3076.98 53.0591  11
   1  -1   0 3103.04 55.4974  16
   1  -1   0 3042.65 54.3967   5
  -1  -1   0 3283.85 65.3979  13
  -1   1   0 3117.57 55.6680  16
  -1   1   0 3137.96 53.9504  15
   1   1   0 3221.63 50.7385   7
   1   1   0 2911.66 50.8449   1
  -1   1   0 3086.34 53.0465   8
   3  -1   0 69.5446 3.27775   5
   3  -1   0 62.4492 4.55373  13
  -3  -1   0 62.6140 2.73470   2
  -3  -1   0 63.9579 3.18597  15
   3  -1   0 66.9098 3.55486  10
  -3  -1   0 64.7045 4.73813  13
  -3  -1   0 70.7258 2.93692  16
   3  -1   0 65.2198 2.76615   1
   3  -1   0 70.2257 3.15487   4
  -3  -1   0 64.9978 3.72116   8
   3  -1   0 69.9866 2.97653  11
   3   1   0 67.6722 3.23224  10
  -3   1   0 63.7928 3.43699  15
  -3   1   0 64.5813 3.87970   8
   3   1   0 66.7636 4.77879  13
   3   1   0 62.7488 3.34689   1
  -3   1   0 74.3139 2.99387  16
   3   1   0 68.0262 2.94607   7
  -3   1   0 66.5899 2.45953   2
  -5  -1   0 1566.63 28.8487  16
  -5  -1   0 1570.31 32.3652   8
  -5  -1   0 1522.00 37.6875  13
   5  -1   0 1536.45 29.2131   1
   5  -1   0 1514.35 37.3240  13
  -5  -1   0 1550.28 30.1340  15
   5  -1   0 1502.97 29.0444  11
   5  -1   0 1544.22 29.5881   7
   5   1   0 1561.26 29.8754   7
  -5   1   0 1564.02 30.5374  15
   5   1   0 1559.86 30.9543  10
  -5   1   0 1525.17 28.6844  16
   5   1   0 1485.13 37.2581  13
  -5   1   0 1562.52 32.6539   8
   5   1   0 1555.16 30.7361   1
   7  -1   0 50.2298 3.88111  11
  -7  -1   0 58.7895 6.83720   8
  -7  -1   0 52.3763 5.30250  15
  -7  -1   0 54.6369 4.04714  16
   7  -1   0 54.2123 5.14034   7
  -7   1   0 49.3462 3.86533  16
  -7   1   0 58.0385 5.76415  15
  -7   1   0 57.8792 6.86640   8
  -7   1   0 59.6080 7.11515   3
   7   1   0 63.5507 5.16919   1
   7   1   0 53.2785 5.15279   7
  -9  -1   0 88.7590 10.1684   8
  -9  -1   0 65.6714 9.41326   3
   9  -1   0 67.7930 6.96650   7
  -9   1   0 73.7914 9.56865   3
   9   1   0 69.5130 7.00816   7
  -9   1   0 90.9166 9.88347   8
  11  -1   0 131.644 10.0103   7
 -11  -1   0 104.543 12.8320   3
 -11  -1   0 114.130 12.5804   8
 -11   1   0 122.043 12.7542   8
 -11   1   0 111.592 12.5054   3
  11   1   0 140.452 10.3691   7
   0  -2   0 28.8347 1.56298  11
   0  -2   0 26.9869 1.63471   5
   0   2   0 22.8873 1.32816   8
   0   2   0 25.9602 1.49346  15
   0   2   0 27.8357 1.32667   9
   0   2   0 28.3688 1.58176   6
   2  -2   0 180.523 5.10084   5
  -2  -2   0 191.938 7.30702  13
   2  -2   0 183.212 5.03300  11
   2  -2   0 178.927 5.44779   4
  -2   2   0 185.796 4.98089   2
   2   2   0 177.112 4.61800  10
  -2   2   0 180.997 5.69716   8
   2   2   0 178.810 4.71274   9
   2   2   0 183.444 5.00158   7
   2   2   0 177.328 4.89645   6
  -2   2   0 185.383 5.04431  16
  -2   2   0 185.526 5.52195  15
  -2   2   0 188.369 5.39853   3
   2   2   0 184.351 5.70754   1
   4  -2   0 597.995 13.7257   4
  -4  -2   0 601.981 15.1053   8
   4  -2   0 596.529 13.8425   5
  -4  -2   0 591.265 13.0791  16
  -4  -2   0 585.740 13.5936  15
  -4  -2   0 610.068 19.0579  13
   4  -2   0 613.921 13.3733  11
   4  -2   0 594.621 18.3558  13
   4   2   0 591.003 14.6568   1
   4   2   0 597.829 13.8038  10
  -4   2   0 592.103 14.2026  15
   4   2   0 607.291 13.7369   7
  -4   2   0 598.768 13.0079  16
  -4   2   0 582.068 12.2342   2
  -4   2   0 597.852 15.3107   8
  -4   2   0 577.488 14.9773   3
   6  -2   0 903.368 20.5342   4
   6  -2   0 928.009 20.6021  11
  -6  -2   0 937.335 20.1673  16
  -6  -2   0 925.552 23.6266   8
  -6  -2   0 916.261 21.0182  15
  -6   2   0 930.876 23.9050   8
   6   2   0 954.943 22.2229  10
  -6   2   0 932.724 24.2114   3
   6   2   0 924.210 22.3352   1
  -6   2   0 905.700 21.8181  15
  -6   2   0 937.166 19.9630  16
   6   2   0 961.152 21.6300   7
   8  -2   0 161.461 8.33832   7
  -8  -2   0 168.346 11.2074   8
   8  -2   0 171.302 8.19657  11
  -8  -2   0 159.313 11.4025   3
   8   2   0 167.202 8.53118   7
  -8   2   0 146.371 10.9389   8
  -8   2   0 180.277 11.6698   3
  -8   2   0 176.896 9.26577  15
  10  -2   0 421.813 16.3109   7
 -10  -2   0 405.395 21.0471   3
 -10  -2   0 428.024 19.6426   8
 -10   2   0 406.388 19.5552   8
  10   2   0 416.194 16.5103   7
 -10   2   0 431.752 20.5593   3
   1  -3   0 265.250 6.50544  11
   1  -3   0 264.310 6.71236   5
  -1   3   0 263.267 5.83709   9
   1   3   0 262.925 6.14502   7
   1   3   0 254.197 6.65620   1
   1   3   0 252.806 6.20422   9
  -1   3   0 241.550 6.58390  15
  -1   3   0 251.744 6.46826   8
   1   3   0 254.745 6.29419   6
  -3  -3   0 1942.66 40.3659  13
   3  -3   0 1870.18 34.4028   5
   3  -3   0 1907.45 34.2135  11
  -3  -3   0 1957.88 34.5119  16
   3  -3   0 1917.30 39.6744  13
   3  -3   0 1889.16 35.2028   4
   3   3   0 1924.17 33.7164   9
   3   3   0 1900.10 34.2338   7
  -3   3   0 1885.86 34.7571   3
  -3   3   0 1868.54 35.7402   8
  -3   3   0 1894.80 35.2004  15
   3   3   0 1931.48 33.5254  10
   3   3   0 1932.13 34.2257   6
   3   3   0 1928.29 35.7535   1
  -5  -3   0 59.0501 6.40951  13
   5  -3   0 68.7020 4.55475   4
  -5  -3   0 63.2608 4.07200   2
  -5  -3   0 65.2713 3.95229  16
  -5  -3   0 69.0267 4.47173  15
  -5  -3   0 73.5137 5.40133   8
   5  -3   0 63.9562 6.36736  13
   5  -3   0 63.9658 4.18478  11
  -5   3   0 69.5408 5.33418   3
  -5   3   0 61.3105 4.80229  15
   5   3   0 65.7751 4.19968  10
   5   3   0 66.5132 4.27589   7
   5   3   0 68.7996 5.02290   1
  -5   3   0 63.6050 6.18404   8
  -5   3   0 56.9494 3.73465  16
   7  -3   0 110.041 6.28128  11
  -7  -3   0 101.380 8.09059   8
   7  -3   0 90.7884 6.81109   4
  -7  -3   0 97.1156 6.77141  16
   7   3   0 100.027 6.95922   1
  -7   3   0 106.504 8.40229   3
  -7   3   0 118.460 8.98398   8
  -7   3   0 110.451 7.23902  15
   7   3   0 99.4332 6.35604   7
   9  -3   0 2.83205 1.91178  11
  -9  -3   0 -2.6152 4.19779   8
  -9  -3   0 -0.1146 4.42390   3
   9  -3   0 -1.3721 2.49052   7
   9   3   0 2.59870 2.17286   7
  -9   3   0 -3.3710 3.93865   3
  -9   3   0 3.60484 3.09477  15
  -9   3   0 2.71810 4.53321   8
 -11  -3   0 21.9812 8.81202   3
 -11  -3   0 28.6252 7.78543   8
  11  -3   0 27.5377 5.49556   7
 -11   3   0 22.6545 8.89774   8
  11   3   0 31.1060 5.60482   7
 -11   3   0 24.9584 7.37057   3
   0  -4   0 1047.92 19.8446  12
   0  -4   0 1162.73 21.5031  11
   0  -4   0 1170.70 21.7922   5
   0   4   0 1137.20 20.6829   8
   0   4   0 1164.58 20.5071   1
   0   4   0 1147.61 21.4968  15
   0   4   0 1150.29 20.9551   9
   0   4   0 1150.30 21.3943   6
   2  -4   0 5641.07 95.5481   5
   2  -4   0 5738.76 97.5698   4
   2  -4   0 5809.67 95.7715  11
   2   4   0 5806.46 96.5929   1
  -2   4   0 5818.19 94.3161   3
   2   4   0 5811.60 95.3262   9
  -2   4   0 5907.45 96.5111   8
   2   4   0 5879.34 95.2188   7
  -2   4   0 5805.46 96.5248  15
  -2   4   0 5747.39 96.4084   9
   2   4   0 5629.35 97.6117  10
   2   4   0 5841.60 95.5155   6
   4  -4   0 5.86697 1.81276   5
   4  -4   0 4.37086 2.26438  13
  -4  -4   0 4.21487 2.28808  13
   4  -4   0 6.55618 1.73600  11
   4  -4   0 6.53082 2.43681   4
  -4  -4   0 4.39245 1.51854  16
  -4   4   0 4.70246 2.01838   3
   4   4   0 5.46566 1.30648  10
   4   4   0 6.00333 1.48931   9
   4   4   0 8.18249 1.71106   7
   4   4   0 3.83200 1.74870   1
  -4   4   0 21.7247 3.66385   8
  -4   4   0 5.64030 2.22919  15
   4   4   0 5.66679 1.44827   6
  -6  -4   0 936.208 21.2780  16
   6  -4   0 913.841 21.3169  11
   6  -4   0 907.670 21.8976   4
  -6  -4   0 963.271 23.9233   8
  -6  -4   0 887.425 21.2362  15
  -6   4   0 911.546 23.5126   3
   6   4   0 915.390 21.3535  10
  -6   4   0 950.825 24.7053   8
  -6   4   0 918.523 22.8457  15
   6   4   0 961.196 23.8351   1
   6   4   0 915.693 21.7948   7
  -8  -4   0 280.873 15.3814   3
  -8  -4   0 275.307 13.9080   8
   8  -4   0 266.396 11.1060   7
   8  -4   0 293.260 11.4642  11
  -8   4   0 286.146 14.6537   8
   8   4   0 275.503 11.6797   7
  -8   4   0 263.909 12.0009  15
  -8   4   0 251.305 13.3597   3
   8   4   0 279.473 12.8052   1
 -10  -4   0 206.107 15.4681   3
  10  -4   0 187.318 11.2440   7
 -10  -4   0 194.092 13.3002   8
 -10   4   0 185.553 13.4447   3
 -10   4   0 208.414 13.6892   8
  10   4   0 203.104 11.3701   7
  -1  -5   0 142.017 4.58417  12
  -1  -5   0 142.675 5.70174   5
   1  -5   0 152.165 5.74413  11
   1  -5   0 153.051 5.84640   5
   1   5   0 146.737 5.27111   1
  -1   5   0 144.066 4.88100   9
  -1   5   0 149.730 5.28066   8
   1   5   0 147.224 5.19335   9
  -1   5   0 149.928 5.59143   6
   1   5   0 151.090 5.45806   6
  -1   5   0 144.859 5.73533  15
   3  -5   0 350.265 10.1324   5
   3  -5   0 373.648 10.5254  11
   3  -5   0 371.346 11.7978   4
  -3  -5   0 361.986 14.2553  13
   3   5   0 353.692 9.97140   6
  -3   5   0 387.971 11.4630   8
  -3   5   0 344.826 9.32029   3
   3   5   0 368.041 9.97098   7
   3   5   0 362.361 9.94083   9
  -3   5   0 352.301 10.8013  15
   3   5   0 378.705 11.2620   1
   3   5   0 358.002 8.41654  10
  -3   5   0 372.230 8.82111   9
   5  -5   0 4.50772 2.20235  11
   5  -5   0 1.00958 2.48601   4
  -5  -5   0 3.11983 1.53585  16
   5  -5   0 2.20956 1.77252   5
  -5   5   0 1.25353 2.16172  15
   5   5   0 0.16614 1.38558   6
  -5   5   0 2.41443 2.75937   8
   5   5   0 3.28114 1.15015  10
  -5   5   0 1.56899 1.97653   3
   5   5   0 1.71947 1.34751   7
   5   5   0 5.38752 1.64212   9
   5   5   0 3.35497 2.12482   1
  -7  -5   0 318.325 13.5738   8
   7  -5   0 331.794 11.7432  11
   7  -5   0 314.368 12.2675   4
  -7   5   0 303.839 13.0976   3
  -7   5   0 310.328 12.8246  15
   7   5   0 310.296 13.2085   1
  -7   5   0 325.517 14.5740   8
   7   5   0 305.420 11.6103   7
   9  -5   0 148.688 9.32315   7
   9  -5   0 156.963 9.06278  11
  -9  -5   0 159.294 11.7144   8
  -9  -5   0 144.355 12.4581   3
  -9   5   0 149.552 9.86764  15
  -9   5   0 148.133 12.1206   8
   9   5   0 145.879 9.18458   7
   0  -6   0 1155.91 23.7236   5
   0  -6   0 1182.89 23.6759  11
   0   6   0 1143.70 23.4226   6
   0   6   0 1151.67 22.8029   9
   0   6   0 1127.22 21.4051   1
   2  -6   0 317.296 9.84518  11
   2  -6   0 294.862 9.35999   5
  -2  -6   0 296.935 10.0308   5
   2  -6   0 313.335 11.2311   4
  -2  -6   0 306.697 8.76992  12
   2   6   0 299.907 8.65112   7
  -2   6   0 311.587 8.42417   9
  -2   6   0 305.774 9.47974   8
   2   6   0 305.802 9.58657   1
   2   6   0 314.106 9.27412   9
   2   6   0 306.109 9.29322   6
  -2   6   0 305.613 10.0666  15
   4  -6   0 1454.15 29.7336  11
  -4  -6   0 1435.82 30.4261  16
   4  -6   0 1414.85 29.3134   5
   4  -6   0 1425.64 31.6867   4
  -4   6   0 1429.38 30.8838  15
   4   6   0 1479.85 29.1996   9
  -4   6   0 1404.00 26.8513   9
   4   6   0 1438.22 29.0654   7
  -4   6   0 1446.95 31.3217   8
   4   6   0 1420.35 29.1674   6
   4   6   0 1439.91 31.1606   1
  -6  -6   0 7.37921 3.15822   8
   6  -6   0 11.9807 3.23850  11
  -6  -6   0 13.1087 2.89688  16
   6  -6   0 8.04623 2.77309   5
   6  -6   0 9.07976 3.58135   4
   6   6   0 9.26834 2.44207   7
   6   6   0 12.3422 3.43642   1
   6   6   0 9.28696 2.71650   6
   6   6   0 11.3795 2.52484   9
  -6   6   0 13.2818 3.50703  15
  -6   6   0 6.58433 3.57719   8
   8  -6   0 818.426 22.5377  11
  -8  -6   0 894.600 28.4702   3
   8   6   0 840.952 23.2299   7
  -8   6   0 829.913 24.2731  15
  -8   6   0 860.301 26.8407   8
 -10  -6   0 -0.6505 5.51290   3
  10  -6   0 -0.3959 3.15424   7
 -10   6   0 2.76843 3.53395   8
 -10   6   0 6.09445 3.55594  15
  10   6   0 1.29678 1.96234   7
   1  -7   0 618.367 15.8413  11
   1  -7   0 625.546 15.8446   5
  -1  -7   0 619.453 15.6229  11
  -1  -7   0 653.615 16.4870   5
   1  -7   0 614.259 18.4604   4
  -1   7   0 644.600 16.0321   6
  -1   7   0 652.371 14.9719   9
   1   7   0 625.624 14.7185   1
   1   7   0 632.460 15.3161   9
   1   7   0 632.059 15.7532   6
  -1   7   0 632.285 14.9153   8
   3  -7   0 1065.14 24.0988  11
   3  -7   0 1096.01 23.7859   5
  -3  -7   0 1046.12 29.8555  13
  -3  -7   0 1037.81 23.1897  12
   3  -7   0 1089.57 26.9917   4
  -3   7   0 1083.95 25.2239  15
   3   7   0 1095.04 23.7670   6
   3   7   0 1085.80 23.5287   9
   3   7   0 1097.01 23.0314   7
   3   7   0 1085.88 24.6487   1
  -3   7   0 1074.22 21.8915   9
  -3   7   0 1077.66 24.4340   8
  -5  -7   0 65.0610 5.34674  16
   5  -7   0 72.6876 5.44486   5
   5  -7   0 62.1974 5.16611  11
   5  -7   0 74.1557 7.08306   4
   5   7   0 74.7702 5.14813   9
  -5   7   0 73.9673 6.53416   8
  -5   7   0 66.5791 6.66578  15
   5   7   0 69.1314 5.17907   7
   5   7   0 81.9052 5.52977   6
   5   7   0 70.0861 6.14758   1
   7  -7   0 218.898 10.1571  11
  -7  -7   0 223.884 13.4892   3
  -7   7   0 239.856 11.9654  15
   7   7   0 226.451 10.3842   7
  -7   7   0 215.028 12.3293   8
   7   7   0 228.199 12.1949   1
  -9  -7   0 28.1697 6.79090   3
   9  -7   0 25.5961 4.90601  11
  -9   7   0 32.5432 5.98696  15
  -9   7   0 24.2540 6.50820   8
   9   7   0 21.2934 4.42712   7
   0  -8   0 590.448 16.1170   5
   0  -8   0 618.800 16.3498  11
   0   8   0 595.091 16.1071   6
   0   8   0 611.860 15.4236   9
  -2  -8   0 468.156 13.6591  11
   2  -8   0 461.758 13.9769  11
   2  -8   0 417.134 12.8559   5
   2  -8   0 433.353 16.0870   4
  -2  -8   0 438.511 14.0083   5
  -2   8   0 446.921 14.0348  15
   2   8   0 435.919 12.6792   1
  -2   8   0 426.063 13.5128   6
  -2   8   0 420.027 11.9142   9
   2   8   0 457.719 13.0629   9
  -2   8   0 434.053 12.7301   8
   2   8   0 435.588 13.1724   6
  -4  -8   0 244.362 10.1406  12
   4  -8   0 258.165 10.0730   5
   4  -8   0 273.583 10.9247  11
   4  -8   0 263.600 12.7134   4
   4   8   0 266.198 10.1809   6
  -4   8   0 255.678 11.3756  15
   4   8   0 266.228 9.77366   7
  -4   8   0 260.196 10.9895   8
   4   8   0 263.104 10.0181   9
   4   8   0 252.357 10.7441   1
   6  -8   0 12.8013 3.41861  11
  -6  -8   0 19.8212 3.63042  16
   6  -8   0 13.4875 5.00926   4
   6  -8   0 14.9811 3.55995   5
   6   8   0 16.0195 4.16564   1
   6   8   0 16.6738 3.53229   7
  -6   8   0 18.6708 4.53676  15
   6   8   0 19.2014 3.68754   9
   6   8   0 18.1047 3.59928   6
  -6   8   0 19.6580 4.67780   8
   8  -8   0 49.7043 6.46513  11
   8   8   0 37.9707 5.29462   7
  -8   8   0 23.0151 5.74496   8
  -8   8   0 36.0105 6.32485  15
   1  -9   0 266.473 13.0862   4
   1  -9   0 239.121 9.83639   5
  -1  -9   0 252.595 10.4940   5
   1  -9   0 257.451 10.5481  11
  -1  -9   0 248.740 10.1854  11
  -1   9   0 247.537 9.15352   9
  -1   9   0 247.005 10.2680   6
   1   9   0 247.103 9.59389   9
   1   9   0 239.363 9.76920   6
  -3  -9   0 57.3544 6.31503   5
  -3  -9   0 57.8038 5.97370  11
   3  -9   0 52.6160 6.99892   4
   3  -9   0 49.3435 5.22542   5
   3  -9   0 53.6766 5.67459  11
  -3   9   0 55.5076 5.05422   8
  -3   9   0 49.6773 5.86244  15
  -3   9   0 55.7776 5.05630   6
   3   9   0 62.7912 5.37083   1
   3   9   0 50.3745 5.07887   9
  -3   9   0 52.1949 4.17920   9
   3   9   0 52.6906 4.85597   6
   5  -9   0 171.441 9.66530  11
   5  -9   0 188.953 12.0862   4
  -5  -9   0 164.344 10.3778   5
  -5  -9   0 179.183 9.50933  16
  -5   9   0 177.202 9.87316   8
  -5   9   0 175.620 10.5081  15
   5   9   0 172.685 8.78818   9
   5   9   0 189.544 8.96198   7
   5   9   0 165.507 9.73114   1
   5   9   0 153.833 8.45511   6
   7  -9   0 8.96123 4.02482  11
  -7   9   0 8.68012 3.89315   8
   7   9   0 6.41288 2.84689   7
  -7   9   0 5.32619 3.05521  15
   0 -10   0 539.155 16.7314  11
   0 -10   0 491.365 19.4312   4
   0  10   0 523.753 16.4665   6
   0  10   0 508.842 15.2482   9
   2 -10   0 1173.08 28.5590  11
  -2 -10   0 1154.02 28.0969  11
   2 -10   0 1223.26 33.6054   4
   2  10   0 1194.47 27.4804   9
  -2  10   0 1165.19 28.9626   6
   2  10   0 1125.85 27.5964   6
   4 -10   0 239.445 11.0892  11
  -4 -10   0 230.199 10.6982  11
   4 -10   0 236.077 13.2718   4
  -4  10   0 226.230 11.4978   6
   4  10   0 236.427 10.5527   6
   4  10   0 241.437 10.7767   9
   6 -10   0 652.872 23.3089   4
   6 -10   0 641.515 20.6039  11
  -6  10   0 622.108 20.9074   8
   6  10   0 637.459 19.5586   9
  -6  10   0 619.856 21.5837   6
  -6  10   0 659.380 22.2349  15
  -1 -11   0 298.928 12.6569  11
  -1 -11   0 287.079 15.8812   4
   1 -11   0 256.597 12.0678  11
   1 -11   0 275.885 15.4828   4
   1  11   0 260.170 11.6295   6
   1  11   0 267.459 11.0236   9
  -1  11   0 266.646 10.7269   9
  -1  11   0 278.927 12.1715   6
  -3 -11   0 157.376 9.52333  11
   3 -11   0 151.308 9.88168  11
   3 -11   0 150.402 12.1104   4
  -3  11   0 143.221 9.18944   6
   3  11   0 148.308 8.25626   9
   3  11   0 147.362 8.61683   6
   5 -11   0 261.634 13.0338  11
   5 -11   0 232.899 14.1323   4
  -5 -11   0 258.978 12.1552  11
   5  11   0 260.533 11.9368   9
  -5  11   0 266.392 13.5572   6
   0 -12   0 106.600 11.8007   4
   0 -12   0 101.141 8.46815  11
   0  12   0 97.6205 6.76580   9
   0  12   0 88.0784 7.47090   6
  -2 -12   0 63.0698 6.83612  11
   2 -12   0 61.3262 7.86969  11
   2 -12   0 64.6774 9.95523   4
  -2 -12   0 73.4058 10.2943   4
   2  12   0 43.6648 5.68967   6
  -2  12   0 61.6455 6.83341   6
   2  12   0 58.7411 6.41891   9
   4 -12   0 80.0411 8.64177  11
   4 -12   0 96.9617 11.6424   4
  -4 -12   0 79.9574 8.30442  11
   4  12   0 74.6607 7.40848   9
  -4  12   0 90.0769 8.45663   6
  -1 -13   0 3.07348 3.95190  11
   1 -13   0 3.04477 4.21663  11
   1 -13   0 -3.2235 4.33161   4
  -1 -13   0 4.85478 4.02839   4
   1  13   0 0.46744 2.43108   9
  -1  13   0 2.79708 2.79807   6
  -3 -13   0 15.6570 5.84127   4
  -3 -13   0 -0.2446 3.60706  11
   3 -13   0 -3.7346 4.69607   4
   3 -13   0 -1.7599 3.93760  11
   3  13   0 0.77029 2.75332   9
  -3  13   0 5.69584 2.81526   6
 -10   0   1 -2.1489 3.80561   3
 -10   0   1 4.09348 5.12686   8
  10   0  -1 -0.2908 2.44692   7
   8   0  -1 1.49073 1.77922   1
   8   0  -1 1.05481 1.71670   7
  -8   0   1 -0.1886 3.50643   8
  -8   0   1 -0.5431 3.31250  15
   6   0  -1 1.66485 1.38894   1
  -6   0   1 5.04210 1.34502  16
   6   0  -1 -0.1830 0.75797  11
  -6   0   1 -0.7007 2.16569   8
   6   0  -1 2.68732 1.47943   7
  -6   0   1 2.71040 2.36010  15
   4   0  -1 0.36426 0.79367   1
  -4   0   1 1.29839 0.79393  16
   4   0  -1 1.02479 0.54357   4
  -4   0   1 -0.4819 0.93639   2
  -4   0   1 -0.1859 1.40366   8
  -4   0   1 -0.3329 1.42925  15
   4   0  -1 0.46995 1.19205  13
   4   0  -1 0.51208 0.69556  11
   4   0  -1 0.05068 0.69585   7
   2   0  -1 0.51411 0.41989  11
  -2   0   1 -0.3946 0.90736  15
   2   0  -1 1.58858 0.71857   5
   2   0  -1 1.46775 0.80700  13
   2   0  -1 0.18494 0.53935   1
  -2   0   1 0.74411 0.92973   2
   2   0  -1 0.71642 0.22487  16
   0   0  -1 0.03039 0.16084  16
   0   0   1 0.42181 0.22531  16
   2   0   1 1.73149 0.73795   4
  -2   0  -1 2.72745 1.18157   8
  -2   0  -1 4.14286 1.00396  15
  -2   0  -1 3.27894 1.32233   3
   2   0   1 1.62005 0.55344  11
   2   0   1 5.14314 1.58879  13
  -2   0  -1 3.09652 1.36439  13
   2   0   1 3.64453 0.70509   7
   2   0   1 0.90641 0.81880  10
  -4   0  -1 4.11287 1.53324  16
  -4   0  -1 6.73368 1.92267  15
   4   0   1 2.15150 1.84244  13
   4   0   1 -0.0194 1.20759  10
  -4   0  -1 1.50673 1.97230   3
  -4   0  -1 5.97814 2.54840  13
   4   0   1 3.39240 1.18191   7
   4   0   1 2.15803 0.87068  11
  -4   0  -1 1.47975 2.03420   8
   4   0   1 0.65170 1.16612   4
   6   0   1 2.74754 1.62432   7
  -6   0  -1 4.46372 1.97794  15
  -6   0  -1 -0.8638 1.63390  16
  -6   0  -1 2.62255 2.94972   8
   6   0   1 1.23326 1.86049  10
  -6   0  -1 4.87850 3.26041   3
   6   0   1 -0.1494 1.39436   4
  -8   0  -1 -0.2398 4.19271   8
   8   0   1 1.09387 1.56627   7
  -8   0  -1 6.49169 4.40228   3
 -10   0  -1 -3.8003 5.24027   8
 -10   0  -1 -4.5652 5.02630   3
  10   0   1 0.30675 2.91510   7
  11  -1  -1 19.1426 4.78015   7
 -11  -1   1 25.1095 7.80998   3
 -11  -1   1 17.9969 7.18186   8
 -11   1   1 24.6189 7.48215   3
 -11   1   1 25.5361 7.95137   8
  11   1  -1 22.8026 4.71415   7
  -9  -1   1 77.3499 8.67951  15
  -9  -1   1 88.7851 9.91482   8
   9  -1  -1 82.8748 6.40144   7
  -9  -1   1 68.9709 9.00257   3
   9   1  -1 75.4466 7.24808   7
  -9   1   1 83.9405 8.09597  15
   9   1  -1 78.2841 6.60616   1
  -9   1   1 92.2838 9.97002   3
  -9   1   1 80.0475 9.80180   8
   7  -1  -1 239.649 9.21215   7
  -7  -1   1 256.584 11.4956   8
   7  -1  -1 250.382 8.72411  11
  -7  -1   1 239.671 10.1047  15
   7  -1  -1 236.737 8.71937   1
  -7   1   1 257.432 10.5265  15
   7   1  -1 248.432 9.40964   7
   7   1  -1 233.438 9.70019   1
  -7   1   1 250.091 11.7998   8
  -5  -1   1 470.644 11.4159   2
  -5  -1   1 475.246 10.4439  16
   5  -1  -1 483.372 11.2536  11
   5  -1  -1 449.303 10.4586   4
   5  -1  -1 481.849 17.2641  13
   5  -1  -1 470.379 11.6970   1
  -5  -1   1 448.729 16.6381  13
  -5  -1   1 489.439 13.0006  15
  -5  -1   1 474.737 13.9466   8
  -5   1   1 461.037 10.2660  16
   5   1  -1 496.472 11.9633   7
  -5   1   1 477.136 13.8360   8
   5   1  -1 464.084 16.7714  13
  -5   1   1 466.418 12.9627  15
   5   1  -1 467.521 12.8375   1
  -5   1   1 461.617 10.9314   2
  -3  -1   1 2482.24 45.8546  13
   3  -1  -1 2361.22 40.0002   4
   3  -1  -1 2430.02 39.8070  16
   3  -1  -1 2397.49 40.8581   1
   3  -1  -1 2344.94 41.3380   5
   3  -1  -1 2397.13 45.8299  13
  -3  -1   1 2387.12 43.3272  16
   3  -1  -1 2414.16 40.4871  11
  -3  -1   1 2467.21 41.8896   2
  -3   1   1 2477.69 43.1679  16
  -3   1   1 2370.84 42.0976  15
   3   1  -1 2392.53 39.8855   9
  -3   1   1 2400.01 42.5099   8
   3   1  -1 2384.03 40.7986   7
  -3   1   1 2414.27 41.1562   2
   3   1  -1 2375.81 42.2457   1
   3   1  -1 2427.59 45.5174  13
  -1  -1   1 112.626 3.19823  13
   1  -1  -1 102.711 2.84729  12
   1  -1  -1 107.076 3.27530   5
   1  -1  -1 107.233 2.92724  11
  -1   1   1 106.472 3.32096   2
   1   1  -1 107.365 3.12483  13
  -1   1   1 108.314 3.19576  15
   1   1  -1 111.466 3.76760   1
   1  -1   1 7471.71 127.944  11
   1  -1   1 7445.02 131.016  10
  -1  -1  -1 7567.66 133.338  16
   1  -1   1 7583.65 127.525  14
   1  -1   1 7481.71 129.810   4
  -1  -1  -1 7476.52 125.255   8
  -1  -1  -1 7655.08 133.091   3
   1  -1   1 7814.86 144.517  13
   1   1   1 7367.66 127.377   7
  -1   1  -1 7558.98 131.125   3
   1   1   1 7606.14 126.863  10
  -1   1  -1 7525.83 129.326   8
  -1   1  -1 7755.17 143.398  13
   1   1   1 7467.01 130.176   6
   1   1   1 7376.78 128.530  14
  -1   1  -1 7353.31 126.110  15
  -1   1  -1 7626.29 130.525  16
  -3  -1  -1 130.498 4.71012  16
   3  -1   1 133.592 4.56807  11
   3  -1   1 127.528 5.34471  10
  -3  -1  -1 127.661 7.30604  13
  -3  -1  -1 136.932 5.53315   8
   3  -1   1 139.572 5.18950   4
   3  -1   1 139.932 7.29370  13
   3  -1   1 136.735 3.64321  14
  -3  -1  -1 131.299 4.28407  15
  -3   1  -1 129.240 5.72697   8
   3   1   1 140.519 5.21559   1
   3   1   1 126.144 4.57350   7
   3   1   1 139.316 5.28837  10
   3   1   1 129.165 4.79275   4
  -3   1  -1 138.084 5.99130   3
  -3   1  -1 141.551 4.97807  16
  -3   1  -1 133.895 7.18298  13
  -3   1  -1 135.252 4.80079  15
   5  -1   1 1846.02 34.9733  11
  -5  -1  -1 1848.26 34.6116  15
   5  -1   1 1845.09 35.7960   4
  -5  -1  -1 1858.49 37.8516   8
  -5  -1  -1 1801.54 44.3380  13
   5  -1   1 1816.50 47.9436  13
  -5  -1  -1 1890.59 35.2833  16
   5  -1   1 1842.42 37.4833  10
  -5  -1  -1 1916.10 39.6046   3
   5  -1   1 1892.31 35.3634   7
  -5   1  -1 1890.29 35.1522  16
  -5   1  -1 1899.43 38.4407   8
   5   1   1 1872.21 37.1030  10
   5   1   1 1871.90 35.7203   7
   5   1   1 1903.81 36.3758   1
  -5   1  -1 1850.28 35.3342  15
  -5   1  -1 1882.25 39.1403   3
   7  -1   1 22.3426 3.71436   7
  -7  -1  -1 25.3307 5.22134   8
  -7  -1  -1 17.6804 4.89293   3
  -7  -1  -1 27.0863 3.76272  16
   7  -1   1 28.2090 3.93012   4
   7   1   1 24.7454 3.96197  10
  -7   1  -1 19.3399 3.18722  16
  -7   1  -1 30.6842 5.83939   8
  -7   1  -1 25.3220 4.03706  15
  -7   1  -1 30.2791 5.84580   3
   7   1   1 19.7035 3.53987   7
  -9  -1  -1 299.624 17.2306   3
   9  -1   1 290.227 13.0614   7
  -9  -1  -1 282.648 15.5610   8
  -9   1  -1 313.389 17.3938   3
  -9   1  -1 298.205 16.2184   8
   9   1   1 294.982 13.1435   7
 -10  -2   1 210.749 15.2256   3
 -10  -2   1 185.279 13.5715   8
  10  -2  -1 183.733 10.7610   7
 -10   2   1 182.164 13.6877   8
 -10   2   1 174.561 10.7011  15
 -10   2   1 177.301 13.4119   3
  10   2  -1 195.003 10.8585   7
   8  -2  -1 472.898 14.0101  11
  -8  -2   1 468.121 17.5870   8
  -8  -2   1 460.440 15.2941  15
   8  -2  -1 464.690 14.8944   7
  -8   2   1 507.578 18.6683   3
  -8   2   1 465.822 17.9805   8
   8   2  -1 492.774 15.3421   7
  -8   2   1 471.571 15.9195  15
   8   2  -1 463.138 15.7116   1
  -6  -2   1 592.452 13.5006  16
   6  -2  -1 600.132 14.4652  11
  -6  -2   1 607.555 16.3000  15
  -6  -2   1 594.962 17.5604   8
   6  -2  -1 611.238 14.0310   1
   6  -2  -1 584.855 13.8214   4
   6   2  -1 592.982 15.1503   7
   6   2  -1 621.339 16.7230   1
  -6   2   1 611.120 13.5596  16
  -6   2   1 550.429 13.5967   2
  -6   2   1 615.560 16.5917  15
  -6   2   1 602.512 17.8308   8
   4  -2  -1 2110.86 36.7847   1
   4  -2  -1 2152.47 37.6350  11
  -4  -2   1 2163.86 37.0311  16
  -4  -2   1 2188.58 44.6307  13
   4  -2  -1 2130.28 44.5798  13
   4  -2  -1 2089.27 37.3809   4
   4  -2  -1 2117.22 38.6593   5
   4   2  -1 2140.44 36.8997   9
  -4   2   1 2139.65 40.0614   8
  -4   2   1 2145.37 39.5377  15
   4   2  -1 2134.14 43.9079  13
   4   2  -1 2143.21 39.8072   1
  -4   2   1 2139.85 37.8549   2
   4   2  -1 2145.79 38.0051   7
  -2  -2   1 5365.09 106.291  13
   2  -2  -1 5078.73 94.3319   5
   2  -2  -1 5167.21 91.2070  12
   2  -2  -1 5137.04 94.4797   4
   2  -2  -1 5052.52 90.0885  11
   2   2  -1 5311.42 84.5739   7
  -2   2   1 5251.02 89.4196   8
  -2   2   1 5268.87 89.4489  15
  -2   2   1 5398.41 92.2020   2
   2   2  -1 5127.85 92.0711   9
   2   2  -1 5173.25 89.4916   6
   2   2  -1 5230.70 86.2083   1
   0  -2   1 6227.84 108.819  11
   0  -2  -1 6389.68 114.107   5
   0  -2   1 6508.43 115.193   4
   0  -2  -1 6552.67 107.649  12
   0   2  -1 6386.47 109.994   3
   0   2   1 6273.70 107.318   7
   0   2   1 6288.47 111.095   6
   0   2   1 6569.37 113.160   2
   0   2   1 6307.71 109.010   9
   0   2   1 6431.68 109.440  15
   0   2  -1 6411.61 112.560   8
   2  -2   1 6661.90 119.485   4
  -2  -2  -1 6952.23 124.074  16
   2  -2   1 6598.92 114.245  14
   2  -2   1 6673.50 115.988  11
   2  -2   1 6964.23 139.384  13
   2  -2   1 6839.77 117.662   5
   2  -2   1 6733.02 119.144  10
  -2  -2  -1 6812.25 134.227  13
  -2  -2  -1 6875.93 110.317   8
   2   2   1 6653.09 119.152  10
  -2   2  -1 6684.05 116.864   8
  -2   2  -1 6646.08 115.555   3
  -2   2  -1 6859.97 124.150  16
   2   2   1 6850.31 116.964   7
   2   2   1 6710.93 118.658   9
  -2   2  -1 6746.21 110.305  15
   2   2   1 6821.40 122.450   6
   2   2   1 6764.64 119.673   1
  -4  -2  -1 2211.13 39.2852  15
   4  -2   1 2260.92 40.0338  11
   4  -2   1 2171.64 41.0625   4
  -4  -2  -1 2240.65 40.4924  16
  -4  -2  -1 2224.44 48.8336  13
  -4  -2  -1 2171.62 41.6779   8
   4  -2   1 2156.69 37.3816  14
   4  -2   1 2276.16 42.3659  10
   4  -2   1 2299.05 47.9135  13
  -4   2  -1 2239.03 42.8708   8
  -4   2  -1 2223.84 42.8721   3
   4   2   1 2222.56 40.5127   6
   4   2   1 2283.20 41.6614   1
   4   2   1 2212.26 40.4626   7
  -4   2  -1 2265.59 40.4287  16
   4   2   1 2269.40 41.2723  10
  -4   2  -1 2213.19 40.6275  15
  -6  -2  -1 1123.49 24.6242  16
  -6  -2  -1 1164.10 29.5613   3
   6  -2   1 1139.39 24.9671   7
  -6  -2  -1 1144.00 27.6179   8
   6  -2   1 1160.73 24.8543  11
   6  -2   1 1100.77 25.2421   4
  -6   2  -1 1145.82 28.4294   8
  -6   2  -1 1160.15 28.8298   3
   6   2   1 1178.25 26.8201  10
  -6   2  -1 1128.42 25.1897  15
  -6   2  -1 1150.35 24.6027  16
   6   2   1 1166.65 25.5561   7
  -8  -2  -1 671.876 22.5308   8
  -8  -2  -1 677.586 24.4463   3
   8  -2   1 678.930 19.8632   7
   8   2   1 666.818 19.8809   7
  -8   2  -1 690.672 23.3250   8
  -8   2  -1 672.103 23.6770   3
 -10  -2  -1 198.493 15.5235   3
  10  -2   1 212.712 11.8704   7
 -10  -2  -1 210.480 14.1640   8
  10   2   1 193.102 11.5553   7
 -10   2  -1 203.563 14.0958   3
 -10   2  -1 205.220 13.6316   8
 -11  -3   1 19.4967 7.18816   8
 -11  -3   1 21.1366 7.20457   3
  11  -3  -1 15.5376 4.22276   7
 -11   3   1 11.5536 6.45531   8
  11   3  -1 18.0804 4.53736   7
 -11   3   1 24.3383 7.01327   3
   9  -3  -1 843.347 21.8594  11
   9  -3  -1 791.629 22.5477   7
  -9  -3   1 869.171 27.0932   8
  -9   3   1 786.392 23.5693  15
  -9   3   1 822.822 26.8591   8
  -9   3   1 834.386 26.6957   3
   9   3  -1 798.830 23.9867   1
   9   3  -1 836.575 22.9713   7
  -7  -3   1 57.0403 6.13421  15
   7  -3  -1 52.9040 4.36575  11
  -7  -3   1 60.8366 6.65726   8
  -7   3   1 53.7951 6.40765   3
  -7   3   1 58.7358 6.08945  15
   7   3  -1 47.4842 5.35873   1
  -7   3   1 51.9125 6.53623   8
   7   3  -1 59.8741 4.74169   7
  -5  -3   1 1742.24 31.6466  16
   5  -3  -1 1701.72 33.2688   5
  -5  -3   1 1712.63 40.3617  13
   5  -3  -1 1747.03 32.2852  11
   5  -3  -1 1636.00 31.9374   4
   5  -3  -1 1685.20 40.4757  13
   5  -3  -1 1648.66 29.8410   1
  -5   3   1 1741.96 32.1204   2
   5   3  -1 1731.26 34.9396   1
  -5   3   1 1692.20 34.0497  15
  -5   3   1 1738.04 35.2716   8
   5   3  -1 1715.89 32.7299   7
   5   3  -1 1689.65 31.1776   9
  -3  -3   1 5.70781 1.81476  13
   3  -3  -1 4.25763 1.43798  11
   3  -3  -1 3.03063 1.43497   5
   3  -3  -1 5.34040 1.68518   4
  -3   3   1 4.86562 0.67553   9
   3   3  -1 4.41412 1.01082   6
  -3   3   1 3.70104 1.64315  15
   3   3  -1 3.33305 0.73499  10
   3   3  -1 3.20919 0.95497   7
   3   3  -1 3.25555 1.22485   1
   3   3  -1 4.80226 1.06539   9
  -3   3   1 4.74917 1.68361   8
  -3   3   1 3.63302 1.22882   2
   1  -3  -1 877.305 16.8912  11
   1  -3  -1 895.478 17.6917   5
   1  -3  -1 889.756 16.0258  12
   1   3  -1 880.948 15.9249   7
   1   3  -1 889.914 16.1030   6
  -1   3   1 898.579 17.0529  15
  -1   3   1 885.520 16.0487   8
  -1   3   1 901.641 17.6160   2
  -1   3   1 891.447 17.0069   6
  -1   3   1 900.409 15.8549   9
   1   3  -1 884.847 16.5987   9
   1   3  -1 875.873 17.1448   1
   1  -3   1 857.236 17.9468   4
   1  -3   1 845.533 15.7178   5
   1  -3   1 858.497 16.3327  11
  -1   3  -1 853.449 16.2826   3
   1   3   1 824.128 16.5994   6
   1   3   1 880.702 16.2166   9
   1   3   1 867.978 15.9505  10
  -1   3  -1 849.862 16.8534  15
  -1   3  -1 843.849 17.0432   8
   1   3   1 854.692 16.6387   1
   1   3   1 861.987 16.2342   7
   3  -3   1 1168.75 22.7528   5
   3  -3   1 1207.32 24.2156  10
  -3  -3  -1 1174.14 23.4850   8
  -3  -3  -1 1217.83 23.7087  16
   3  -3   1 1203.35 22.9194  11
   3  -3   1 1134.38 21.8712  14
   3  -3   1 1202.95 24.6023   4
   3  -3   1 1161.10 27.5839  13
  -3  -3  -1 1186.83 29.4875  13
   3   3   1 1180.81 24.0942   1
  -3   3  -1 1152.96 24.0272   3
  -3   3  -1 1208.31 23.4838  16
  -3   3  -1 1210.76 25.0524   8
   3   3   1 1142.38 23.2213   6
   3   3   1 1173.41 22.4020   9
  -3   3  -1 1191.65 23.6440  15
   3   3   1 1178.63 23.1342   7
   3   3   1 1181.11 23.1173  10
  -5  -3  -1 202.202 7.31114  15
  -5  -3  -1 216.652 10.1687   3
  -5  -3  -1 217.495 9.05816   8
  -5  -3  -1 216.385 8.00455  16
   5  -3   1 203.513 7.68964  11
   5  -3   1 215.977 8.65659   4
   5   3   1 213.347 8.77123   1
  -5   3  -1 219.921 8.37347  15
  -5   3  -1 207.443 9.66865   8
  -5   3  -1 207.604 9.63800   3
  -5   3  -1 209.941 7.92036  16
   5   3   1 217.508 8.12972   7
   5   3   1 214.475 8.32750  10
   7  -3   1 594.171 16.9734   4
   7  -3   1 569.248 16.2610  11
  -7  -3  -1 547.737 15.8357  16
  -7  -3  -1 584.702 20.9445   3
  -7  -3  -1 590.172 19.1640   8
   7  -3   1 562.250 16.4461   7
   7   3   1 574.813 17.0221   7
  -7   3  -1 555.621 15.8319  16
   7   3   1 556.389 17.4780  10
  -7   3  -1 600.853 20.2016   3
  -7   3  -1 562.051 19.6273   8
  -7   3  -1 562.194 16.6863  15
  -9  -3  -1 -3.4341 4.15952   8
  -9  -3  -1 2.91163 4.67818   3
   9  -3   1 0.36107 2.71682   7
   9   3   1 4.52952 3.01792   7
  -9   3  -1 -3.8871 4.19235   3
  -9   3  -1 -0.7217 4.48559   8
 -10  -4   1 200.996 14.0200   8
 -10  -4   1 215.323 15.5444   3
  10  -4  -1 201.966 11.2413   7
  10  -4  -1 199.941 10.0368  11
 -10   4   1 213.319 13.8412   3
  10   4  -1 215.110 11.4387   7
 -10   4   1 186.249 11.3377  15
 -10   4   1 194.424 13.8569   8
   8  -4  -1 593.787 16.9966  11
  -8  -4   1 579.140 20.5277   8
  -8   4   1 558.375 19.6838   3
   8   4  -1 592.491 17.7599   7
  -8   4   1 595.919 19.0916  15
   8   4  -1 587.458 19.3044   1
  -8   4   1 615.874 21.1474   8
   6  -4  -1 275.395 9.45271  11
  -6  -4   1 283.438 10.3794  15
   6  -4  -1 270.180 9.48597   4
   6  -4  -1 285.030 10.4900   5
  -6  -4   1 281.970 8.97282  16
  -6   4   1 282.193 11.5527   8
   6   4  -1 286.085 8.74900   9
  -6   4   1 282.141 11.1167  15
   6   4  -1 285.525 11.1971   1
  -6   4   1 287.415 10.9676   3
   6   4  -1 293.210 9.96605   7
   4  -4  -1 881.886 18.7407  11
  -4  -4   1 889.948 24.4562  13
   4  -4  -1 866.962 19.3453   5
   4  -4  -1 856.383 19.3336   4
  -4   4   1 921.939 20.5979  15
   4   4  -1 870.118 18.5969   7
   4   4  -1 863.602 18.0180   6
  -4   4   1 875.113 19.2724   2
   4   4  -1 919.405 21.0413   1
  -4   4   1 865.581 18.7794   3
   4   4  -1 894.392 18.3957   9
  -4   4   1 872.962 20.2688   8
  -2  -4   1 570.717 14.8480  13
   2  -4  -1 525.845 10.6506  12
   2  -4  -1 531.733 12.9012   5
   2  -4  -1 550.036 12.4398  11
  -2   4   1 561.063 12.9606  15
   2   4  -1 540.895 12.9966   1
   2   4  -1 532.584 11.4735   6
   2   4  -1 549.554 11.5401   7
   2   4  -1 534.497 11.9372   9
  -2   4   1 540.014 12.1198   8
  -2   4   1 550.560 13.1261   2
  -2   4   1 551.915 10.7813   9
   0  -4   1 0.01468 1.02063   5
   0  -4  -1 1.45782 1.32132   5
   0  -4   1 1.45841 1.39678   4
   0  -4   1 2.53376 1.05598  11
   0  -4  -1 0.03360 0.92565  12
   0   4  -1 0.97565 0.58707   6
   0   4   1 1.40258 0.90367   6
   0   4   1 1.03207 0.56769   9
   0   4  -1 0.45884 0.81715   8
   0   4  -1 0.68564 0.68427   9
   0   4  -1 2.46794 0.83334   1
   0   4   1 2.13052 0.85960  15
   0   4  -1 0.60182 0.60903   3
   2  -4   1 305.733 8.46477  11
   2  -4   1 304.240 9.86306   4
   2  -4   1 298.626 7.84630   5
  -2   4  -1 318.055 9.47148   8
   2   4   1 307.245 8.08694   9
   2   4   1 311.876 8.63531   6
   2   4   1 296.020 7.74374  10
   2   4   1 305.057 8.80688   1
   2   4   1 316.583 8.35918   7
  -2   4  -1 304.281 8.37426   3
  -2   4  -1 303.145 8.92387  15
   4  -4   1 4.20660 2.46765   4
  -4  -4  -1 0.19729 1.40853   8
   4  -4   1 0.79899 0.92218  14
   4  -4   1 0.21709 1.59624  11
  -4  -4  -1 3.28184 1.55393  16
  -4  -4  -1 0.18420 1.53004  13
   4  -4   1 0.43552 1.62307  13
   4  -4   1 0.57856 1.18408   5
  -4   4  -1 4.80415 2.54814   8
  -4   4  -1 2.55033 1.83184  15
   4   4   1 0.97710 0.95612  10
   4   4   1 0.67549 1.19701   6
   4   4   1 -0.5130 1.01351   7
   4   4   1 -0.2688 0.85965   1
  -4   4  -1 3.49473 2.14737   3
   4   4   1 1.03453 1.14755   9
   6  -4   1 38.4585 4.77150   4
  -6  -4  -1 42.1703 5.50392   8
  -6  -4  -1 34.2996 4.23569  16
  -6  -4  -1 40.9996 5.65659   3
   6  -4   1 43.7891 4.66139  11
  -6   4  -1 42.0093 5.70118   3
   6   4   1 29.5285 3.88669   7
   6   4   1 32.2594 4.55883   1
  -6   4  -1 44.3550 6.17530   8
   6   4   1 39.1096 4.30857  10
  -6   4  -1 38.6796 4.83988  15
  -8  -4  -1 79.8184 8.51199   8
   8  -4   1 87.4397 6.55482  11
  -8  -4  -1 95.4325 10.7048   3
   8  -4   1 92.8297 7.03699   7
  -8   4  -1 96.5325 10.0149   8
   8   4   1 85.7649 7.10299   7
  -8   4  -1 85.4263 6.91220  15
  -8   4  -1 92.9394 9.75036   3
  10  -4   1 10.2706 4.07470   7
 -10  -4  -1 16.2560 7.09990   3
 -10   4  -1 -0.8750 4.80866   3
 -10   4  -1 11.8686 6.19010   8
  10   4   1 10.8368 3.42920   7
   9  -5  -1 2.60808 2.43465  11
  -9  -5   1 -0.1213 4.47711   3
  -9  -5   1 -0.0409 4.21570   8
  -9   5   1 3.97444 4.61586   8
  -9   5   1 2.86728 3.68190  15
   9   5  -1 4.11721 2.09068   7
   9   5  -1 -0.7599 2.77478   1
  -7  -5   1 215.284 10.5949  15
   7  -5  -1 217.978 10.0413   5
   7  -5  -1 218.619 9.08566  11
  -7  -5   1 206.241 11.1637   8
  -7   5   1 220.442 10.7982  15
  -7   5   1 230.176 11.7641   8
   7   5  -1 216.174 10.9222   1
  -7   5   1 222.193 10.6923   3
   7   5  -1 231.476 9.63879   7
  -5  -5   1 256.808 13.2312  13
   5  -5  -1 261.815 8.96319  11
   5  -5  -1 256.464 9.45900   5
  -5  -5   1 262.986 8.92109  16
   5  -5  -1 252.434 9.72048   4
  -5   5   1 267.399 10.2030  15
  -5   5   1 258.891 10.5297   8
   5   5  -1 259.076 8.89768   7
   5   5  -1 267.116 10.5215   1
   5   5  -1 252.561 8.31558   6
   5   5  -1 247.834 8.41833   9
  -5   5   1 258.143 9.09201   3
   3  -5  -1 1837.78 34.3978  11
   3  -5  -1 1815.33 35.9391   4
   3  -5  -1 1833.19 35.0274   5
  -3  -5   1 1838.03 39.1747  13
   3   5  -1 1813.85 33.8630   9
   3   5  -1 1828.18 33.3162   7
   3   5  -1 1867.28 35.8495   1
  -3   5   1 1804.33 31.7077   9
   3   5  -1 1792.72 33.1624   6
  -3   5   1 1828.61 35.4437  15
  -3   5   1 1743.86 31.5307   3
  -3   5   1 1858.72 34.7530   8
  -1  -5   1 620.662 13.6301   5
   1  -5  -1 636.439 12.4009  12
   1  -5  -1 621.809 15.0656   5
   1  -5  -1 636.719 14.4209  11
  -1  -5   1 637.925 13.8289  11
   1   5  -1 644.814 14.1328   1
  -1   5   1 652.986 14.5560  15
   1   5  -1 629.887 13.8471   9
  -1   5   1 632.589 14.4771   6
  -1   5   1 616.716 12.8676   8
   1   5  -1 636.762 13.6102   6
  -1   5   1 645.285 13.2249   9
   1  -5   1 1566.62 29.5445  11
  -1  -5  -1 1534.68 27.9598   3
  -1  -5  -1 1601.50 31.2516   5
   1  -5   1 1610.98 32.4438   4
  -1  -5  -1 1577.73 29.2957  12
   1  -5   1 1596.36 28.9594   5
  -1   5  -1 1621.48 30.2536   8
  -1   5  -1 1529.84 27.4254   1
  -1   5  -1 1603.83 28.9633   9
   1   5   1 1594.14 29.3004   9
   1   5   1 1629.14 29.2198   7
  -1   5  -1 1601.89 30.4471  15
   1   5   1 1568.14 30.0588   6
   1   5   1 1609.37 28.2884  10
  -1   5  -1 1533.90 27.7476   3
   1   5   1 1582.06 29.4903   1
   3  -5   1 34.1194 4.66436   4
  -3  -5  -1 29.3651 4.40390  13
  -3  -5  -1 33.0824 3.24270  16
   3  -5   1 28.4805 2.65851   5
   3  -5   1 34.1624 3.63931  11
   3  -5   1 28.1410 3.95434  13
   3   5   1 26.7873 2.34272  10
   3   5   1 34.2479 3.36579   7
  -3   5  -1 31.3264 3.70376  15
   3   5   1 33.4337 3.72846   1
   3   5   1 31.7589 2.90292   6
  -3   5  -1 31.7174 4.19087   8
  -3   5  -1 32.3845 3.50179   3
   3   5   1 28.2524 2.94928   9
  -5  -5  -1 245.176 11.1030   3
  -5  -5  -1 256.219 9.79276  16
   5  -5   1 272.457 11.0644   4
   5  -5   1 245.609 9.38545  11
  -5  -5  -1 251.754 9.80037   8
   5   5   1 238.058 8.84341  10
  -5   5  -1 255.447 11.2049   8
  -5   5  -1 240.680 9.87554  15
   5   5   1 243.539 9.31516   7
   5   5   1 252.438 9.33657   6
   5   5   1 250.440 10.5347   1
  -5   5  -1 247.249 10.5960   3
   7  -5   1 1.05209 2.21092  11
  -7  -5  -1 -0.9228 3.33807   3
  -7  -5  -1 2.06218 2.32627  16
   7  -5   1 3.22299 3.11994   4
  -7  -5  -1 2.35355 3.26285   8
   7   5   1 -0.5952 1.79716   7
  -7   5  -1 -0.3685 3.57966   8
  -7   5  -1 2.75808 3.56991   3
  -7   5  -1 0.78569 2.43613  15
  -9  -5  -1 93.7977 11.6702   3
   9  -5   1 98.4327 7.32910  11
   9  -5   1 84.7774 8.02318   7
  -9   5  -1 97.6715 10.3113   8
   9   5   1 88.1776 8.50194   7
  10  -6  -1 207.131 10.5506  11
  10  -6  -1 205.897 11.4109   7
 -10  -6   1 188.736 14.7883   3
 -10   6   1 188.481 11.7179  15
  10   6  -1 181.539 10.6483   7
 -10   6   1 186.352 13.2539   8
   8  -6  -1 166.018 8.53386  11
  -8  -6   1 163.601 10.9178   8
  -8   6   1 166.148 10.5303  15
  -8   6   1 186.431 11.9257   8
   8   6  -1 165.559 10.6563   1
   8   6  -1 169.556 9.15357   7
   6  -6  -1 719.248 19.6733   4
   6  -6  -1 735.656 18.8937  11
   6  -6  -1 708.454 19.2230   5
  -6  -6   1 710.859 18.5913  16
  -6   6   1 729.052 20.7334  15
  -6   6   1 745.702 21.3358   8
   6   6  -1 750.257 18.7122   7
   6   6  -1 685.000 17.6869   6
   6   6  -1 742.673 21.3093   1
   6   6  -1 714.307 17.8741   9
  -4  -6   1 246.310 12.1556  13
   4  -6  -1 275.728 10.6334   4
   4  -6  -1 266.429 9.71414   5
   4  -6  -1 264.036 9.48173  11
   4   6  -1 250.076 8.40399   7
  -4   6   1 246.199 9.63757   8
   4   6  -1 252.887 8.83016   9
   4   6  -1 250.470 8.31240   6
  -4   6   1 261.871 10.0160  15
  -4   6   1 266.881 7.48961   9
   4   6  -1 239.150 9.91697   1
   2  -6  -1 189.552 7.48834  11
   2  -6  -1 190.266 7.84442   5
  -2  -6   1 189.282 6.96212   5
  -2   6   1 203.144 7.66061   6
   2   6  -1 188.036 6.55999   6
  -2   6   1 196.056 6.09393   9
  -2   6   1 194.306 6.69385   8
   2   6  -1 189.455 6.92077   9
   2   6  -1 189.095 7.34486   1
  -2   6   1 199.138 7.82253  15
   0  -6  -1 387.067 11.5723   5
   0  -6   1 373.914 9.85570   5
   0  -6  -1 360.622 8.94502  12
   0  -6   1 371.473 12.5758   4
   0  -6   1 370.806 10.3172  11
   0  -6  -1 366.203 10.5606  11
   0   6  -1 377.965 10.1079   6
   0   6  -1 358.177 9.79630   9
   0   6  -1 380.553 10.2676   8
   0   6   1 392.053 10.9084   6
   0   6   1 381.261 9.87354   9
   0   6  -1 361.746 8.92596   1
  -2  -6  -1 30.1349 3.37934  12
   2  -6   1 24.4729 3.41615  11
   2  -6   1 31.5926 4.70605   4
   2  -6   1 36.0265 2.94708   5
  -2  -6  -1 26.8676 2.93203   3
   2   6   1 30.8536 3.08661   7
   2   6   1 29.8457 3.36805   1
   2   6   1 31.1162 3.23174   9
  -2   6  -1 28.5416 2.74882   9
  -2   6  -1 32.8269 3.83105  15
   2   6   1 27.8630 3.21335   6
  -2   6  -1 27.9831 3.57250   8
   2   6   1 26.2898 2.18816  10
   4  -6   1 93.3486 5.21171   5
  -4  -6  -1 88.5496 5.80762  16
   4  -6   1 94.6786 5.96144  11
   4  -6   1 104.430 7.50492   4
  -4  -6  -1 83.2569 6.01588   3
   4  -6   1 97.9315 5.24075  14
  -4   6  -1 98.7915 6.86555   8
   4   6   1 93.4593 5.65380   6
   4   6   1 99.6954 5.36918   9
  -4   6  -1 81.3927 5.36641   3
  -4   6  -1 98.1269 6.35256  15
   4   6   1 93.6478 6.22290   1
   4   6   1 99.5231 5.56209   7
   6  -6   1 41.8048 5.02594  11
  -6  -6  -1 32.8776 5.71794   3
  -6  -6  -1 44.2304 4.70674  16
   6  -6   1 39.2247 5.78450   4
   6   6   1 42.4327 4.82462   7
   6   6   1 38.5142 4.77740   6
  -6   6  -1 38.6929 6.37653   8
  -6   6  -1 38.1774 5.29882  15
   8  -6   1 0.59216 2.57710  11
  -8  -6  -1 8.29305 5.22518   3
  -8   6  -1 2.24611 3.02083  15
  -8   6  -1 -1.8544 3.48104   8
   8   6   1 4.48445 2.69633   7
  -9  -7   1 3.75809 4.41531   3
   9  -7  -1 3.83817 2.48755  11
   9   7  -1 -0.0074 2.28140   7
   9   7  -1 1.28788 3.52806   1
  -9   7   1 1.56349 4.23007   8
  -9   7   1 -1.5496 3.10347  15
  -7  -7   1 506.945 18.3244   8
   7  -7  -1 529.100 17.0765   5
   7  -7  -1 532.299 16.6236  11
  -7   7   1 521.522 18.7491   8
  -7   7   1 510.490 18.0309  15
   7   7  -1 519.078 15.5168   9
   7   7  -1 495.687 15.9044   7
   7   7  -1 539.724 18.8288   1
   5  -7  -1 38.1051 4.98521   5
   5  -7  -1 43.7285 4.82479  11
   5  -7  -1 39.2274 5.59954   4
  -5  -7   1 39.6548 4.02564  16
  -5   7   1 39.3936 5.13821   8
   5   7  -1 51.3642 5.83411   1
  -5   7   1 37.0336 5.12908  15
   5   7  -1 34.5092 3.78080   6
   5   7  -1 33.6388 3.90223   9
   5   7  -1 45.4696 4.46557   7
   3  -7  -1 456.154 15.2653   4
   3  -7  -1 451.301 13.5889   5
   3  -7  -1 458.313 13.5318  11
  -3  -7   1 443.148 16.5245  13
  -3  -7   1 435.874 13.2370   5
  -3   7   1 434.804 10.8902   9
  -3   7   1 417.962 12.3620   8
   3   7  -1 438.471 12.6179   9
   3   7  -1 437.430 13.3803   1
  -3   7   1 446.518 13.9272  15
   3   7  -1 430.192 11.9889   6
   3   7  -1 444.158 11.8141   7
  -3   7   1 440.391 13.5050   6
  -1  -7   1 17.7247 2.82405  11
   1  -7  -1 21.4331 3.73661   5
  -1  -7   1 13.8018 2.72155   5
   1  -7  -1 23.1592 3.25027  11
  -1   7   1 13.7964 1.89459   8
   1   7  -1 16.8426 2.47593   1
  -1   7   1 15.3737 2.62495  15
   1   7  -1 15.2755 2.34634   6
   1   7  -1 14.4529 2.29760   9
  -1   7   1 12.3475 2.60424   6
  -1   7   1 18.5025 2.33246   9
   1  -7   1 719.080 16.6193   5
  -1  -7  -1 754.708 19.1575   5
   1  -7   1 738.354 20.7599   4
  -1  -7  -1 711.576 16.1256  12
   1  -7   1 739.865 17.6966  11
  -1   7  -1 738.657 17.5276   8
   1   7   1 749.177 17.1750   9
  -1   7  -1 719.257 17.4437   6
   1   7   1 751.505 18.0981   6
  -1   7  -1 748.907 16.9132   9
  -3  -7  -1 99.1984 5.82290  12
   3  -7   1 101.597 6.20567  11
   3  -7   1 97.7702 5.19409   5
   3  -7   1 110.134 7.95190   4
   3   7   1 100.355 5.77307   6
   3   7   1 105.525 5.63528   7
  -3   7  -1 100.776 6.45238  15
   3   7   1 101.194 5.62360   9
   3   7   1 99.6052 6.02572   1
  -3   7  -1 104.531 6.58992   8
  -3   7  -1 100.749 5.02959   9
  -5  -7  -1 737.956 20.6887  16
   5  -7   1 749.190 19.9111  11
   5  -7   1 748.783 22.3166   4
  -5  -7  -1 756.866 21.4905   3
   5   7   1 742.612 19.0522   9
   5   7   1 726.864 19.4374   7
  -5   7  -1 750.456 21.8306   8
   5   7   1 774.232 20.2614   6
  -5   7  -1 741.939 21.1095  15
   7  -7   1 39.1780 6.22985   4
  -7  -7  -1 45.0456 7.18841   3
   7  -7   1 42.2260 5.67215  11
  -7   7  -1 42.8973 7.01618   8
   7   7   1 48.0589 5.78836   7
  -7   7  -1 46.8712 6.46342  15
   9  -7   1 149.866 9.24427  11
   9  -7   1 149.025 9.80998   7
  -9  -7  -1 116.059 12.0286   3
  -9   7  -1 130.105 9.35199  15
  -9   7  -1 136.793 11.5051   8
   9   7   1 151.960 9.65047   7
   8  -8  -1 42.3566 5.86249  11
  -8   8   1 31.5766 6.23425   8
   8   8  -1 32.3221 4.69184   7
   8   8  -1 53.2722 7.64380   1
  -8   8   1 50.7837 7.29507  15
   6  -8  -1 583.128 17.8240  11
  -6  -8   1 543.182 17.3660  16
   6  -8  -1 576.227 19.2192   4
   6  -8  -1 555.903 17.5576   5
  -6   8   1 568.018 19.3513  15
  -6   8   1 574.812 18.6791   8
   6   8  -1 583.758 19.3383   1
   6   8  -1 559.754 16.7035   9
   6   8  -1 611.950 17.1631   7
   4  -8  -1 331.228 13.8336   4
   4  -8  -1 310.743 11.7751   5
   4  -8  -1 310.950 11.7468  11
  -4  -8   1 313.062 12.1153   5
  -4   8   1 310.689 11.4220   8
   4   8  -1 306.667 10.3523   7
   4   8  -1 307.161 10.4462   6
  -4   8   1 304.341 11.8807   6
   4   8  -1 317.603 11.1041   9
   4   8  -1 293.086 11.8271   1
  -4   8   1 320.608 12.6778  15
   2  -8  -1 714.611 21.2587   4
   2  -8  -1 713.026 18.7436  11
  -2  -8   1 734.213 18.0950  11
   2  -8  -1 707.896 18.8069   5
  -2  -8   1 732.527 18.0760   5
   2   8  -1 685.353 17.4445   1
   2   8  -1 730.239 18.0887   9
   2   8  -1 710.721 17.5520   6
  -2   8   1 728.090 16.6530   9
  -2   8   1 722.072 18.9637  15
  -2   8   1 724.932 18.9247   6
  -2   8   1 689.859 16.4525   8
   0  -8  -1 1748.43 36.2757   5
   0  -8   1 1767.35 39.1008   4
   0  -8  -1 1713.47 35.3619  11
   0  -8   1 1633.50 33.2916   5
   0  -8   1 1712.82 34.6370  11
   0   8   1 1709.92 35.3667   6
   0   8  -1 1759.10 34.7585   6
   0   8   1 1722.95 33.6800   9
   0   8  -1 1784.87 34.4157   9
   2  -8   1 562.123 18.7904   4
   2  -8   1 491.863 16.1282   5
   2  -8   1 551.397 15.6371  11
  -2  -8  -1 561.373 17.2372   5
  -2   8  -1 540.571 15.6619   6
   2   8   1 550.654 15.8263   6
  -2   8  -1 540.824 15.4792   8
   2   8   1 560.255 15.0529   9
  -2   8  -1 556.371 14.3384   9
   4  -8   1 1176.80 27.1437  11
  -4  -8  -1 1129.10 27.4227  12
   4  -8   1 1159.59 30.3979   4
  -4  -8  -1 1178.23 28.8015  16
   4   8   1 1186.54 27.6549   6
  -4   8  -1 1197.12 29.0460  15
  -4   8  -1 1181.63 28.8570   8
  -4   8  -1 1186.25 24.9636   9
   4   8   1 1158.77 26.3705   9
   4   8   1 1175.49 26.3648   7
  -6  -8  -1 548.007 18.0982  16
  -6  -8  -1 524.146 19.0369  12
   6  -8   1 583.701 18.0063  11
   6  -8   1 551.060 19.6445   4
  -6   8  -1 525.412 18.2100  15
   6   8   1 523.046 17.1888   6
  -6   8  -1 536.163 19.4558   8
   6   8   1 551.468 17.2778   7
   8  -8   1 178.158 10.2779  11
  -8  -8  -1 138.402 11.3237  12
  -8   8  -1 162.287 10.5718  15
   8   8   1 158.097 9.50001   7
  -8   8  -1 162.644 11.7402   8
   7  -9  -1 9.34184 3.53627   5
   7  -9  -1 7.05777 3.55806  11
   7   9  -1 3.69868 3.29741   1
  -7   9   1 4.61476 3.25292   8
  -7   9   1 9.12744 4.02977  15
   7   9  -1 7.54789 2.89259   9
   7   9  -1 0.76497 2.09384   7
   5  -9  -1 677.205 20.0918  11
   5  -9  -1 699.500 22.6707   4
   5   9  -1 709.147 18.7521   7
   5   9  -1 695.301 20.9818   1
  -5   9   1 700.525 21.3087   6
   5   9  -1 667.574 19.1425   9
  -5   9   1 730.834 21.9460  15
   3  -9  -1 11.3508 3.53136   5
   3  -9  -1 13.0292 3.85481  11
   3  -9  -1 12.9251 4.47317   4
  -3  -9   1 19.9905 3.66863  11
  -3   9   1 14.7144 3.61404  15
  -3   9   1 11.7918 2.88631   6
   3   9  -1 15.3645 2.90040   6
   3   9  -1 14.2914 2.94485   1
   3   9  -1 11.3622 2.76139   9
  -1  -9   1 1806.34 41.8070   4
   1  -9  -1 1769.16 37.1833  11
   1  -9  -1 1736.32 37.3177   5
  -1  -9   1 1712.35 35.9116  11
  -1   9   1 1779.96 35.0058   9
  -1   9   1 1762.08 37.3532   6
   1   9  -1 1745.54 35.9359   6
   1   9  -1 1753.72 35.9691   9
   1  -9   1 76.8215 8.62162   4
  -1  -9  -1 74.3231 5.83458  11
  -1  -9  -1 78.6099 7.54058   5
   1  -9   1 79.5685 5.77878  11
  -1   9  -1 83.9851 5.80350   6
  -1   9  -1 68.0804 4.74324   9
   1   9   1 66.4124 5.50185   6
   1   9   1 63.4757 4.61606   9
   3  -9   1 788.205 21.3343  11
  -3  -9  -1 798.070 23.4811   5
   3  -9   1 834.404 25.4864   4
  -3   9  -1 782.922 19.2869   9
   3   9   1 802.948 20.6178   9
  -3   9  -1 816.172 22.0189   6
   3   9   1 814.134 21.6439   6
  -3   9  -1 849.063 22.2373   8
  -5  -9  -1 278.962 12.6647  16
   5  -9   1 298.588 15.4040   4
  -5  -9  -1 280.749 14.4208   5
   5  -9   1 301.227 12.2423  11
  -5   9  -1 299.883 13.4977   8
  -5   9  -1 285.906 13.2640  15
   5   9   1 288.463 11.6784   7
   5   9   1 299.826 12.4094   6
   5   9   1 267.595 11.3477   9
   7  -9   1 240.190 12.1700  11
  -7   9  -1 234.390 13.1614   8
   7   9   1 250.519 11.7015   7
  -7   9  -1 244.844 12.9437  15
   8 -10  -1 3.95900 3.30198  11
  -8  10   1 8.34406 4.48547  15
  -8  10   1 -0.3567 3.57530   6
   8  10  -1 4.86592 2.83255   7
   6 -10  -1 76.9639 8.04767  11
   6 -10  -1 84.5935 9.38320   4
  -6  10   1 75.2304 8.41019  15
   6  10  -1 74.0941 7.70955   1
  -6  10   1 70.7698 7.79603   6
   6  10  -1 76.7431 6.75577   9
   4 -10  -1 7.86587 3.82728  11
   4 -10  -1 3.49593 2.79026   5
   4 -10  -1 3.86472 3.37787   4
  -4 -10   1 1.21130 2.51652  11
   4  10  -1 4.11751 2.58678   9
  -4  10   1 3.38343 2.47393   6
   4  10  -1 5.81324 2.81833   1
  -4  10   1 6.44601 2.98255  15
   2 -10  -1 4.87530 3.18632  11
  -2 -10   1 3.27298 2.67613  11
   2 -10  -1 3.78439 3.12533   5
   2 -10  -1 4.40157 3.69051   4
  -2 -10   1 4.70182 3.30452   4
   2  10  -1 1.08555 1.63882   6
  -2  10   1 -1.3025 1.98613   6
   2  10  -1 2.44838 2.07103   9
  -2  10   1 1.54212 1.69971   9
   0 -10  -1 40.9819 5.76784   5
   0 -10   1 45.9677 7.31902   4
   0 -10   1 52.7010 5.98299  11
   0 -10  -1 51.6430 5.73763  11
   0  10   1 37.1949 4.35044   9
   0  10   1 49.6972 5.81327   6
   0  10  -1 50.2346 5.36405   6
   0  10  -1 51.1702 4.53827   9
   2 -10   1 95.4986 10.5600   4
   2 -10   1 86.1752 7.11454  11
  -2 -10  -1 79.5194 6.84461  11
  -2 -10  -1 77.3173 7.51455   5
  -2  10  -1 92.0339 6.51093   8
   2  10   1 76.4733 5.83672   9
   2  10   1 75.0745 6.25787   6
  -2  10  -1 82.0368 6.60146   6
  -2  10  -1 87.5518 5.87545   9
  -4 -10  -1 12.1346 4.40515   5
   4 -10   1 18.0638 3.93798  14
  -4 -10  -1 20.1860 3.55581  16
   4 -10   1 5.28785 3.76059  11
   4 -10   1 13.3090 4.66006   4
  -4  10  -1 11.3939 3.79767   6
  -4  10  -1 17.8403 3.82304   8
   4  10   1 7.07914 3.08153   6
   4  10   1 6.85221 2.83400   9
   6 -10   1 0.27071 2.41065  11
  -6 -10  -1 11.6531 4.60405   5
   6 -10   1 -10.978 3.62433   4
   6  10   1 -0.5892 2.40112   6
  -6  10  -1 5.80038 3.71517   8
   7 -11  -1 69.4446 7.83313  11
  -7  11   1 67.8290 8.47163  15
   7  11  -1 68.1250 7.38172   9
  -7  11   1 71.6441 8.89497   6
   5 -11  -1 7.37355 4.96764   4
   5 -11  -1 1.77293 3.80160  11
   5  11  -1 2.17666 2.10031   9
  -5  11   1 2.28498 3.24382   6
  -3 -11   1 0.87105 3.60100   4
  -3 -11   1 -0.5668 1.68126  11
   3 -11  -1 3.94668 4.12060   4
   3 -11  -1 2.71492 2.70348  11
  -3  11   1 0.66946 2.86827   6
   3  11  -1 2.36987 1.73327   9
   1 -11  -1 43.1999 6.12881  11
  -1 -11   1 37.6806 5.59942  11
   1 -11  -1 42.6983 6.92621   4
  -1 -11   1 50.8423 8.50537   4
   1  11  -1 43.9844 5.33612   6
  -1  11   1 37.4128 4.53990   9
  -1  11   1 32.1658 5.26899   6
   1  11  -1 40.2835 5.10484   9
  -1 -11  -1 5.86882 2.77907  11
   1 -11   1 2.33184 2.54381  11
   1 -11   1 5.13328 5.06620   4
  -1  11  -1 0.40808 1.93259   9
   1  11   1 4.78113 2.42660   9
   1  11   1 -0.4744 2.02684   6
  -1  11  -1 4.76165 2.89675   6
   3 -11   1 338.519 17.7012   4
  -3 -11  -1 327.582 14.0525  11
   3 -11   1 317.216 13.2099  11
  -3  11  -1 312.196 13.8259   6
   3  11   1 307.374 13.1811   6
   3  11   1 319.420 12.8427   9
   5 -11   1 42.0456 6.44049  11
   5 -11   1 27.6049 7.35434   4
  -5 -11  -1 47.4174 6.62951  11
   5  11   1 36.8496 5.43135   6
  -5  11  -1 45.3639 6.14717   6
   6  12  -1 22.1973 4.79619   9
  -4 -12   1 179.758 16.0767  11
   4 -12  -1 271.805 15.8587   4
  -4 -12   1 265.106 15.7777   4
   4 -12  -1 257.826 12.6692  11
   4  12  -1 250.863 12.0032   9
  -4  12   1 239.215 13.1240   6
  -2 -12   1 205.050 11.1400  11
   2 -12  -1 250.722 15.9907   4
  -2 -12   1 248.957 16.1083   4
   2 -12  -1 223.796 11.6938  11
   2  12  -1 213.226 10.7966   9
  -2  12   1 211.825 11.8011   6
   0 -12  -1 81.9012 8.60988  11
   0 -12  -1 92.8156 11.6444   4
   0 -12   1 86.5570 11.1205   4
   0 -12   1 100.469 9.23474  11
   0  12  -1 56.8012 6.49912   6
   0  12   1 77.0117 6.32222   9
   0  12   1 74.2759 7.10463   6
   0  12  -1 73.1999 6.49793   9
   2 -12   1 418.534 15.9205  11
   2 -12   1 441.083 21.1421   4
  -2 -12  -1 421.498 16.1935  11
   2  12   1 386.984 15.5638   6
  -2  12  -1 400.458 16.0572   6
   2  12   1 431.337 15.2451   9
  -4 -12  -1 67.4481 7.95707  11
   4 -12   1 58.8549 9.05989   4
   4 -12   1 69.6131 7.79033  11
  -4  12  -1 58.5743 7.45264   6
   4  12   1 62.4642 6.89232   9
   3 -13  -1 519.116 23.1684   4
  -3 -13   1 517.729 23.0102   4
   3 -13  -1 518.201 19.3902  11
   3  13  -1 495.716 17.3527   9
  -3  13   1 518.617 19.7291   6
  -1 -13   1 -0.7224 3.63929  11
  -1 -13   1 6.34470 5.80070   4
   1 -13  -1 -3.9258 4.33729   4
   1 -13  -1 1.09107 2.89630  11
   1  13  -1 2.91891 2.76634   9
  -1  13   1 2.33763 2.96048   6
   1 -13   1 247.474 12.8254  11
  -1 -13  -1 265.398 13.5987  11
  -1 -13  -1 262.015 16.7689   4
   1 -13   1 268.117 17.1086   4
   1  13   1 248.687 11.5466   9
   1  13   1 255.355 12.8246   6
  -1  13  -1 211.620 11.0015   9
   3 -13   1 19.1636 4.46981  11
   3 -13   1 25.4941 6.67139   4
  -3 -13  -1 27.3288 6.60964   4
   3 -13   1 26.1415 4.80065  14
  -3 -13  -1 22.4058 5.52326  11
   3  13   1 14.9233 4.14445   9
  -3  13  -1 13.4567 3.54048   6
 -10   0   2 403.448 16.3121  15
  10   0  -2 411.000 15.7088   7
 -10   0   2 427.217 19.0016   8
 -10   0   2 432.241 19.9691   3
  -8   0   2 5.45401 3.53391  15
   8   0  -2 7.98570 2.55145   1
   8   0  -2 6.05130 2.17763   7
  -8   0   2 9.45981 4.16331   8
   6   0  -2 3218.56 71.6619  13
   6   0  -2 3177.00 56.0184   7
  -6   0   2 3128.77 56.1426   2
  -6   0   2 3247.98 58.6773  15
   6   0  -2 3134.63 57.3087   1
   6   0  -2 3092.34 54.4698  11
  -6   0   2 3197.51 59.7694   8
  -6   0   2 3176.12 52.5738  16
  -4   0   2 1303.08 25.4534   2
  -4   0   2 1313.58 25.9031  15
   4   0  -2 1295.53 24.5886   5
   4   0  -2 1268.68 22.8210  11
  -4   0   2 1285.35 22.0383  16
   4   0  -2 1280.19 25.1917   1
   4   0  -2 1309.82 21.8777   9
   4   0  -2 1324.72 29.6855  13
   2   0  -2 9376.22 165.974  12
  -2   0   2 9999.99 168.607   2
   2   0  -2 9486.86 164.382   5
  -2   0   2 9567.80 160.302  14
   0   0   2 2056.95 35.0564   2
   0   0  -2 2053.36 34.5129   8
   0   0  -2 2049.85 35.6018   3
   0   0  -2 2058.74 35.1844  12
   0   0   2 2041.76 35.0318  10
   0   0   2 2093.09 35.0089  14
   0   0   2 2098.37 35.1789   4
   0   0  -2 2145.56 37.8840  16
   2   0   2 3983.07 67.1854   4
   2   0   2 3965.27 65.6931   7
  -2   0  -2 4025.77 71.5983  13
  -2   0  -2 3837.79 65.9944  15
  -2   0  -2 4046.09 71.1826  16
   2   0   2 3917.99 68.1264  14
   2   0   2 4018.49 67.4546  10
  -2   0  -2 4003.00 68.4686   3
  -2   0  -2 3948.44 67.0164   8
   4   0   2 2173.65 39.3094   7
  -4   0  -2 2199.60 40.0855  16
   4   0   2 2161.30 40.4534   4
  -4   0  -2 2194.00 41.7103   8
  -4   0  -2 2112.49 47.5899  13
  -4   0  -2 2144.98 42.9620   3
   4   0   2 2095.59 36.7924  14
   4   0   2 2200.15 41.5523  10
  -4   0  -2 2099.71 37.7443  15
  -6   0  -2 1861.87 40.3321   8
   6   0   2 1852.81 37.2936   7
  -6   0  -2 1863.11 37.3266  16
   6   0   2 1828.63 37.7342   4
   6   0   2 1859.34 39.9568  10
  -6   0  -2 1847.64 42.1029   3
  -8   0  -2 336.984 16.1008   8
   8   0   2 320.741 12.9261   7
  -8   0  -2 328.678 17.1254   3
 -10   0  -2 810.781 28.2636   8
  10   0   2 796.133 24.9483   7
 -10   0  -2 864.508 31.1902   3
  11  -1  -2 176.832 10.7378   7
 -11  -1   2 170.301 13.9324   3
 -11  -1   2 166.517 12.7216   8
  11   1  -2 168.936 10.3729   7
 -11   1   2 183.375 14.3159   8
 -11   1   2 157.799 13.3476   3
   9  -1  -2 -0.0095 2.07464   7
  -9  -1   2 2.19369 4.03946   8
  -9  -1   2 1.42546 4.41932  15
   9   1  -2 0.55809 1.68806   7
  -9   1   2 -0.8123 4.35723   8
   9   1  -2 -1.2012 1.86271   1
  -9   1   2 3.34520 3.69055  15
  -7  -1   2 398.665 14.6912   8
   7  -1  -2 402.717 12.0567   7
   7  -1  -2 400.282 11.0756  11
   7  -1  -2 402.392 11.9637   1
  -7  -1   2 393.479 13.6731  15
   7   1  -2 390.823 11.9408   7
  -7   1   2 387.303 13.6891  15
  -7   1   2 401.523 14.8522   8
   7   1  -2 377.615 12.8685   1
   5  -1  -2 154.489 6.19920   5
   5  -1  -2 146.564 3.95616   4
  -5  -1   2 162.850 7.12708  15
  -5  -1   2 138.033 3.64648  14
  -5  -1   2 155.480 4.11035  16
  -5  -1   2 154.655 6.61658   2
   5  -1  -2 156.626 9.02527  13
   5  -1  -2 145.021 4.91357  11
   5  -1  -2 146.292 5.74057   1
  -5   1   2 162.342 7.24628  15
   5   1  -2 152.686 8.72783  13
   5   1  -2 148.594 5.49389   7
   5   1  -2 153.183 6.59909   1
   5   1  -2 152.126 4.33501   9
  -5   1   2 155.191 7.19139   8
  -5   1   2 151.118 6.01759   2
   3  -1  -2 331.831 7.98134  12
   3  -1  -2 351.082 8.37001   1
   3  -1  -2 340.650 6.20285  16
   3  -1  -2 330.570 7.19564  11
  -3  -1   2 321.846 7.22946  14
  -3  -1   2 337.950 9.35534   2
   3  -1  -2 338.767 8.41009   5
   3   1  -2 329.784 8.85969   1
  -3   1   2 327.880 6.67530  14
  -3   1   2 341.955 9.10053   2
   3   1  -2 329.210 7.28198   7
  -3   1   2 331.313 8.93460  15
   3   1  -2 340.979 6.96308   9
   3   1  -2 333.659 10.1769  13
   1  -1  -2 4233.77 75.8722  16
  -1  -1   2 4318.07 71.3735   4
   1  -1  -2 4101.67 73.8316  12
  -1  -1   2 4185.30 72.5974  16
   1  -1  -2 4018.89 72.3420   3
  -1  -1   2 4213.01 73.3286  14
   1  -1  -2 4158.98 71.8059   5
   1   1  -2 4193.56 74.9343  16
  -1   1   2 4215.84 67.9543  15
  -1   1   2 4145.13 73.3256   6
   1   1  -2 4123.36 73.9773   3
  -1   1   2 4231.96 72.9978   2
   1   1  -2 4168.77 71.6125  12
  -1   1   2 4131.72 75.2864  14
  -1  -1  -2 412.090 9.87129   3
   1  -1   2 405.894 9.26131  10
  -1  -1  -2 398.255 9.59125  12
  -1  -1  -2 397.322 8.44311   8
  -1  -1  -2 410.144 9.26476  16
   1  -1   2 399.750 8.77117  14
   1  -1   2 399.774 8.27155  11
   1  -1   2 413.516 10.5640  13
   1  -1   2 401.821 9.60426   4
   1   1   2 403.147 8.40193   7
  -1   1  -2 411.044 10.6273  13
   1   1   2 388.834 8.62145  14
   1   1   2 388.969 9.22191   4
  -1   1  -2 389.930 8.08572  15
   1   1   2 403.856 8.94136   6
  -1   1  -2 384.798 9.78969   3
  -1   1  -2 405.108 8.94860  12
   1   1   2 384.749 7.86538   2
  -1   1  -2 403.975 9.15857  16
   1   1   2 399.102 9.24399  10
  -1   1  -2 402.088 9.39550   8
  -3  -1  -2 468.560 9.72279  15
   3  -1   2 476.739 12.4844   4
   3  -1   2 498.732 11.1567   7
   3  -1   2 472.723 12.5582  10
  -3  -1  -2 479.573 12.3584   8
   3  -1   2 485.651 15.7574  13
  -3  -1  -2 504.229 12.1758  16
   3  -1   2 477.535 11.2025  11
   3  -1   2 481.205 10.4347  14
  -3  -1  -2 480.206 13.6694   3
  -3  -1  -2 520.599 16.9347  13
   3   1   2 473.136 10.4534  14
   3   1   2 487.924 12.5934  10
  -3   1  -2 498.174 12.1228  16
  -3   1  -2 484.742 12.9074   8
  -3   1  -2 492.094 13.7648   3
  -3   1  -2 498.675 15.9555  13
   3   1   2 501.952 11.5974   7
  -3   1  -2 508.099 10.9368  15
   3   1   2 478.985 12.1906   4
   5  -1   2 596.927 17.2239  10
  -5  -1  -2 604.193 18.7325   3
  -5  -1  -2 632.842 15.9813  16
   5  -1   2 618.732 15.1904  11
   5  -1   2 605.517 16.2358   4
  -5  -1  -2 608.277 17.1714   8
   5  -1   2 598.719 15.1772   7
  -5   1  -2 615.422 15.7783  16
   5   1   2 636.256 15.8044   7
  -5   1  -2 613.793 17.6094   8
  -5   1  -2 591.145 14.4342  15
  -5   1  -2 625.309 18.8774   3
   5   1   2 631.546 17.3400  10
  -7  -1  -2 18.9477 5.51435   3
  -7  -1  -2 12.3349 3.78039  16
  -7  -1  -2 26.1590 5.53168   8
   7  -1   2 18.8918 4.39356  10
   7  -1   2 11.2818 2.90159   7
   7  -1   2 11.7014 3.06806   4
   7   1   2 16.5141 4.06656  10
   7   1   2 19.3966 3.66173   7
  -7   1  -2 15.8346 5.14138   8
  -7   1  -2 30.1812 6.03127   3
  -7   1  -2 12.6696 3.32068  16
   9  -1   2 233.869 12.0097   7
  -9  -1  -2 281.136 17.4335   3
  -9  -1  -2 263.816 14.8650   8
   9   1   2 265.906 12.5011   7
  -9   1  -2 270.583 16.7879   3
  -9   1  -2 250.089 15.0833   8
 -10  -2   2 4.84004 5.11980   8
  10  -2  -2 6.29379 2.91182   7
 -10   2   2 0.87891 3.96481  15
 -10   2   2 -2.0374 4.75624   8
  10   2  -2 2.42389 2.32867   7
 -10   2   2 6.81808 4.78303   3
  10   2  -2 0.58721 2.72950   1
   8  -2  -2 553.058 16.1870   7
  -8  -2   2 585.365 19.9331   8
   8  -2  -2 571.539 15.3142  11
  -8  -2   2 552.331 17.8213  15
   8   2  -2 560.156 16.3279   7
   8   2  -2 551.553 17.5572   1
  -8   2   2 558.484 18.0104  15
  -8   2   2 557.198 19.5531   8
  -6  -2   2 468.193 14.1054  15
   6  -2  -2 465.975 13.3187   5
   6  -2  -2 471.232 11.7254  11
   6  -2  -2 441.655 11.5496   1
  -6  -2   2 436.730 12.9290   2
  -6  -2   2 448.476 10.1112  16
  -6   2   2 474.919 14.9764   8
   6   2  -2 445.875 12.1953   7
   6   2  -2 454.195 10.4988   9
  -6   2   2 432.818 11.9938   2
   6   2  -2 421.236 19.4263  13
  -6   2   2 463.635 14.1684  15
   6   2  -2 491.605 14.3763   1
  -4  -2   2 1242.69 28.1147  13
   4  -2  -2 1201.66 22.0819   4
   4  -2  -2 1222.08 24.2089   5
   4  -2  -2 1229.36 22.8229  11
  -4  -2   2 1228.11 21.7366  16
   4  -2  -2 1222.85 22.7899   1
  -4  -2   2 1265.81 25.5836   2
  -4   2   2 1217.21 24.2110   2
   4   2  -2 1220.98 22.9467   7
   4   2  -2 1236.43 22.3043   9
   4   2  -2 1244.47 25.3418   1
  -4   2   2 1183.36 24.8259   8
   4   2  -2 1241.03 28.0531  13
  -4   2   2 1238.06 25.1058  15
  -2  -2   2 624.274 12.5792   4
  -2  -2   2 647.393 13.3878  13
   2  -2  -2 629.272 13.5891   5
   2  -2  -2 626.375 12.6099  12
   2  -2  -2 625.730 12.2136  11
   2   2  -2 629.125 12.1131   9
  -2   2   2 621.424 12.3474   8
  -2   2   2 625.547 12.1266  14
   2   2  -2 641.429 13.3164  13
  -2   2   2 629.626 13.5926   2
  -2   2   2 630.071 13.2820  15
   2   2  -2 628.608 11.5514   7
   2   2  -2 607.049 13.7664   1
   0  -2   2 5894.49 102.511  14
   0  -2  -2 5806.49 101.740   3
   0  -2   2 5910.53 102.569  10
   0  -2   2 5993.25 103.478  13
   0  -2   2 5823.09 104.505   4
   0  -2   2 5892.22 101.808  11
   0  -2  -2 5973.02 103.252  16
   0  -2  -2 5856.73 105.799  12
   0   2   2 5866.57 100.235   7
   0   2   2 5956.48 105.756  14
   0   2  -2 5821.94 102.579   8
   0   2  -2 5943.21 104.835   3
   0   2  -2 5761.43 99.1595  12
   0   2   2 5707.41 101.428   2
   0   2  -2 5831.21 106.513  16
   0   2   2 5738.81 103.610   6
   2  -2   2 1994.43 38.6687  13
   2  -2   2 1990.89 36.4606   4
   2  -2   2 1975.69 34.5276  14
  -2  -2  -2 1980.94 35.7734  16
  -2  -2  -2 1911.77 34.5768   8
  -2  -2  -2 2003.37 36.7973   3
   2  -2   2 1968.10 34.4933  11
  -2  -2  -2 1988.73 41.2408  13
   2  -2   2 1952.74 35.8438  10
   2   2   2 2009.40 35.7461  10
   2   2   2 1962.45 34.8279   7
   2   2   2 1993.29 35.5442   6
  -2   2  -2 1927.39 34.5596  15
  -2   2  -2 1969.01 36.6763   3
  -2   2  -2 2013.50 35.6232  16
   2   2   2 1910.18 34.4378  14
  -2   2  -2 1941.25 36.3695   8
  -4  -2  -2 1714.29 33.0882  16
   4  -2   2 1691.01 32.1676  11
  -4  -2  -2 1680.93 41.4063  13
  -4  -2  -2 1745.93 36.0543   3
   4  -2   2 1677.33 33.7864   4
  -4  -2  -2 1723.58 33.7103   8
   4  -2   2 1675.40 39.3034  13
   4  -2   2 1702.88 34.4584  10
   4  -2   2 1599.77 29.9020  14
  -4   2  -2 1733.42 35.5517   3
  -4   2  -2 1675.96 32.8434  16
  -4   2  -2 1704.38 34.9763   8
   4   2   2 1678.92 32.5402   7
  -4   2  -2 1681.46 31.9135  15
   4   2   2 1747.79 34.0914  10
  -6  -2  -2 403.746 14.3702   8
  -6  -2  -2 395.019 12.8083  16
   6  -2   2 399.600 13.4484   4
   6  -2   2 406.776 12.5656  11
   6  -2   2 376.110 14.1870  10
  -6  -2  -2 417.927 16.5377   3
   6  -2   2 414.425 12.5317   7
   6   2   2 393.547 14.0075  10
   6   2   2 381.598 12.6998   7
  -6   2  -2 387.518 12.7821  16
  -6   2  -2 399.792 15.2269   8
  -6   2  -2 415.478 15.9591   3
  -6   2  -2 397.418 12.1043  15
  -8  -2  -2 73.4866 9.85123   3
   8  -2   2 83.1886 7.72753   7
  -8  -2  -2 68.5147 8.20209   8
  -8   2  -2 76.1006 9.76206   3
  -8   2  -2 77.6180 9.35964   8
   8   2   2 85.1006 7.02624   7
   8   2   2 79.4856 8.29284  10
  10  -2   2 1.25814 2.35698   7
 -10  -2  -2 -4.4207 5.02919   3
 -10  -2  -2 6.32331 5.40395   8
  10   2   2 1.39488 3.41548   7
 -10   2  -2 0.07870 5.70751   3
 -10   2  -2 8.28149 5.62354   8
 -11  -3   2 60.5836 9.15567   8
 -11  -3   2 74.6165 10.5912   3
  11  -3  -2 74.4675 8.25115   7
 -11   3   2 78.3710 10.7279   3
 -11   3   2 69.6912 10.1586   8
 -11   3   2 71.4518 8.19694  15
  11   3  -2 65.7412 7.25943   7
  -9  -3   2 22.4532 5.24673  15
  -9  -3   2 25.4158 6.04799   8
   9  -3  -2 20.1046 3.57033   7
   9  -3  -2 24.8050 3.85719  11
   9   3  -2 31.4700 4.50473   7
   9   3  -2 21.4697 4.58181   1
  -9   3   2 20.8716 5.22635  15
  -9   3   2 22.8444 6.04533   8
  -9   3   2 19.3222 5.23839   3
  -7  -3   2 252.337 10.7911  15
   7  -3  -2 229.414 9.76213   5
   7  -3  -2 239.660 8.50689  11
   7   3  -2 261.000 10.9869   1
  -7   3   2 242.851 11.1317   8
   7   3  -2 250.170 9.19045   7
  -7   3   2 234.029 10.9024  15
   5  -3  -2 191.503 6.74929  11
   5  -3  -2 187.005 5.65491   1
  -5  -3   2 201.256 6.02939  16
   5  -3  -2 193.009 7.49728   5
   5  -3  -2 187.405 10.8556  13
  -5  -3   2 193.557 8.38887   2
  -5  -3   2 202.947 10.3001  13
   5  -3  -2 186.314 6.28388   4
  -5   3   2 202.294 7.43030   2
  -5   3   2 202.769 8.59011   8
  -5   3   2 199.425 8.50690  15
   5   3  -2 188.015 9.72036  13
   5   3  -2 196.289 6.19529   9
   5   3  -2 193.510 6.75979   7
   5   3  -2 188.313 8.13349   1
   3  -3  -2 14.8289 2.49302   5
   3  -3  -2 7.21932 1.56380  11
   3  -3  -2 6.60228 1.29855  12
   3  -3  -2 3.94585 0.79627   1
  -3  -3   2 5.58838 1.55228  13
  -3   3   2 5.95753 1.54093   2
   3   3  -2 3.57810 0.89641   7
   3   3  -2 3.38629 1.41933   1
  -3   3   2 6.53640 1.93888  15
   3   3  -2 5.08024 0.84968   6
   3   3  -2 4.39986 0.94851   9
  -3   3   2 4.12169 1.50405   8
  -1  -3   2 2671.36 47.2560   4
   1  -3  -2 2694.48 45.9788  12
   1  -3  -2 2670.79 47.4023   5
  -1  -3   2 2710.64 44.8453  11
  -1  -3   2 2824.78 51.8924  13
   1   3  -2 2652.74 47.1085   1
  -1   3   2 2688.19 46.3254   6
   1   3  -2 2657.83 45.7338   3
  -1   3   2 2687.55 47.1343   2
   1   3  -2 2814.38 44.7908   6
  -1   3   2 2710.30 45.7492  15
  -1   3   2 2741.96 44.6550   9
   1   3  -2 2641.33 45.5491   9
   1  -3   2 593.738 14.2545   4
   1  -3   2 575.738 12.9106  14
  -1  -3  -2 575.629 11.2979   8
  -1  -3  -2 580.511 12.8222   3
   1  -3   2 576.308 12.1167  11
   1  -3   2 601.437 13.7325  13
  -1  -3  -2 599.286 13.3703  16
   1  -3   2 576.014 12.5004  10
  -1  -3  -2 580.124 13.3547  12
  -1   3  -2 576.428 13.4936   8
   1   3   2 596.810 12.7561  10
   1   3   2 580.355 12.9479   6
  -1   3  -2 603.469 13.2458  16
  -1   3  -2 585.960 13.1682   3
   1   3   2 598.218 12.1099   9
   1   3   2 581.900 12.2676   7
  -1   3  -2 569.885 10.9682  12
  -1   3  -2 567.440 12.6099  15
   3  -3   2 8.68321 2.13577  10
  -3  -3  -2 6.99679 1.78657   8
   3  -3   2 6.97140 1.82463  11
   3  -3   2 10.7169 2.83770   4
  -3  -3  -2 8.30829 1.28389  15
   3  -3   2 11.2419 1.87609  14
  -3  -3  -2 7.77759 2.52847  13
  -3  -3  -2 11.0276 2.21940  16
  -3  -3  -2 3.48154 2.26974   3
   3  -3   2 9.60454 2.48154  13
  -3   3  -2 10.5178 2.74161   3
   3   3   2 9.50608 1.76752   7
  -3   3  -2 8.53288 2.71763   8
  -3   3  -2 9.83198 2.14885  16
   3   3   2 7.78320 1.78566  10
  -3   3  -2 6.95712 1.78993  15
   3   3   2 6.43655 1.63326   6
   5  -3   2 5.99751 2.05802  10
  -5  -3  -2 2.30752 1.99454  16
   5  -3   2 5.96412 2.75863   4
   5  -3   2 2.59098 1.88223  11
  -5  -3  -2 1.18328 2.18736   8
  -5  -3  -2 8.96599 3.56518   3
   5   3   2 3.86112 1.77984  10
   5   3   2 5.10970 1.94544   7
  -5   3  -2 3.56098 2.95655   3
  -5   3  -2 3.06587 1.95388  16
  -5   3  -2 6.82945 3.24926   8
  -5   3  -2 2.61599 1.76991  15
   7  -3   2 212.172 9.57105  11
   7  -3   2 210.612 9.37981   7
  -7  -3  -2 227.414 13.6066   3
  -7  -3  -2 213.143 11.3249   8
   7  -3   2 221.236 10.2980   4
  -7  -3  -2 204.601 9.61703  16
  -7   3  -2 208.859 9.55700  16
  -7   3  -2 225.316 10.6911  15
  -7   3  -2 220.586 12.7319   3
   7   3   2 215.478 9.88397   7
  -7   3  -2 222.083 12.0766   8
   7   3   2 214.658 10.8062  10
  -9  -3  -2 -4.8962 3.01932   3
   9  -3   2 1.63707 2.15708   7
  -9   3  -2 -1.4574 5.19219   3
   9   3   2 1.30921 2.91973   7
  -9   3  -2 3.52380 4.87087   8
 -10  -4   2 100.711 11.1708   8
  10  -4  -2 97.3569 6.64319  11
  10  -4  -2 111.821 8.35989   7
 -10   4   2 108.756 11.5875   8
  10   4  -2 98.0707 8.71837   1
 -10   4   2 105.014 9.38252  15
  10   4  -2 98.2975 7.74374   7
 -10   4   2 94.8958 9.79534   3
  -8  -4   2 1585.48 38.3841   8
   8  -4  -2 1593.82 32.9086  11
  -8  -4   2 1531.65 35.4393  15
  -8   4   2 1544.91 37.7540   8
   8   4  -2 1521.52 36.3677   1
  -8   4   2 1515.77 35.7909  15
  -8   4   2 1531.60 36.4299   3
   8   4  -2 1560.61 33.7517   7
  -6  -4   2 15.5158 2.19410  16
   6  -4  -2 8.70538 2.36859  11
  -6  -4   2 7.46456 2.71196   2
  -6  -4   2 5.19458 2.99468  13
  -6   4   2 7.08721 3.14282   8
  -6   4   2 8.13560 2.03518   2
   6   4  -2 8.85363 1.80436   9
   6   4  -2 4.49528 2.40273   1
  -6   4   2 7.05843 3.07197  15
   6   4  -2 5.77336 1.75382   7
   4  -4  -2 6796.72 111.901  11
  -4  -4   2 6692.94 117.459  13
   4  -4  -2 6608.73 112.194   4
   4  -4  -2 6684.04 113.414   5
   4   4  -2 6713.39 114.744   1
   4   4  -2 6597.21 110.029   6
   4   4  -2 6736.64 111.212   7
  -4   4   2 6869.07 114.096  15
  -4   4   2 6727.14 113.250   8
  -4   4   2 7017.41 113.880   2
   4   4  -2 6792.85 111.471   9
   2  -4  -2 56.7976 3.31197  11
   2  -4  -2 55.8700 2.84409  12
  -2  -4   2 59.8108 2.75397  11
   2  -4  -2 62.0656 4.35771   5
  -2  -4   2 56.0742 3.39567  13
   2   4  -2 60.0722 2.56604   7
   2   4  -2 53.8895 3.49339   1
  -2   4   2 63.5208 3.95234   2
  -2   4   2 56.1762 2.88127   8
  -2   4   2 57.5163 2.31016   9
   2   4  -2 58.0214 2.48495   6
  -2   4   2 56.6131 3.56799  15
  -2   4   2 56.4416 3.37442   6
   2   4  -2 59.5484 3.10102   9
   0  -4  -2 3796.91 65.2887   5
   0  -4   2 3837.69 65.7920   4
   0  -4   2 3767.95 62.6649  11
   0  -4  -2 3706.07 61.3587   3
   0  -4  -2 3792.01 63.6323  12
   0  -4   2 3583.31 60.8388   5
   0   4   2 3783.82 62.4349   9
   0   4  -2 3762.22 62.8614   3
   0   4   2 3799.32 64.0907   6
   0   4  -2 3697.28 63.5189   1
   0   4  -2 3739.88 63.8599   8
   0   4   2 3843.86 64.4225   2
   0   4   2 3645.75 62.0510  15
   2  -4   2 603.089 12.7993   5
  -2  -4  -2 613.184 15.0137  16
   2  -4   2 627.008 16.5060  13
  -2  -4  -2 605.668 15.1669  12
  -2  -4  -2 586.569 14.5694   3
  -2  -4  -2 584.521 12.6164   8
   2  -4   2 600.063 14.1467  14
   2  -4   2 630.689 16.2779   4
   2  -4   2 619.216 14.4952  10
   2  -4   2 608.042 13.7473  11
   2   4   2 616.042 14.5962   6
  -2   4  -2 594.313 11.9810  12
  -2   4  -2 609.822 15.3233   8
   2   4   2 616.777 13.5782   9
   2   4   2 616.936 14.0515  10
  -2   4  -2 618.300 14.7895  16
  -2   4  -2 614.205 14.7370   3
   2   4   2 605.094 13.8934   7
  -2   4  -2 628.895 14.5380  15
  -4  -4  -2 675.120 18.8065   3
   4  -4   2 658.086 21.3271  13
   4  -4   2 646.266 14.9758  14
   4  -4   2 674.205 16.3183  11
  -4  -4  -2 690.231 17.4703  16
  -4  -4  -2 673.153 16.4467   8
   4  -4   2 694.332 18.4791   4
  -4   4  -2 671.165 17.1389  16
  -4   4  -2 690.460 16.9767  15
   4   4   2 695.143 16.8262   7
  -4   4  -2 683.919 18.8129   8
   4   4   2 690.028 17.0978  10
  -4   4  -2 681.949 18.2459   3
   4   4   2 707.182 17.2629   6
  -6  -4  -2 120.678 9.49076   3
  -6  -4  -2 112.187 7.00425  16
  -6  -4  -2 116.197 7.59739   8
   6  -4   2 115.764 7.76712   4
   6  -4   2 111.411 6.73872  11
   6   4   2 115.345 6.95944   7
  -6   4  -2 114.452 7.15246  15
  -6   4  -2 123.463 7.13019  16
  -6   4  -2 103.830 8.66570   8
   6   4   2 116.148 7.20180  10
  -6   4  -2 108.556 8.63903   3
   8  -4   2 390.338 14.5157   7
   8  -4   2 395.459 14.4479  11
  -8  -4  -2 373.883 18.8272   3
  -8   4  -2 387.526 17.8581   8
   8   4   2 356.924 15.1363  10
   8   4   2 391.253 15.0998   7
  -8   4  -2 397.017 18.0436   3
  11  -5  -2 46.7993 5.53536  11
  11  -5  -2 39.8704 6.42619   7
 -11  -5   2 42.3859 8.70868   3
 -11  -5   2 38.2359 7.99190   8
  11   5  -2 52.4681 6.55786   7
 -11   5   2 55.1730 7.56317  15
 -11   5   2 60.5988 9.57583   8
  -9  -5   2 653.150 23.4721   8
   9  -5  -2 644.169 18.6641  11
  -9   5   2 637.455 21.5592  15
  -9   5   2 661.412 23.0368   8
   9   5  -2 649.336 21.9221   1
   9   5  -2 661.986 19.7327   7
   7  -5  -2 423.402 13.2330  11
   7  -5  -2 420.650 14.3693   5
  -7  -5   2 432.350 14.9062  15
   7   5  -2 432.438 15.7627   1
   7   5  -2 426.674 13.3157   7
  -7   5   2 437.736 15.3427  15
  -7   5   2 421.324 15.7534   8
  -7   5   2 418.494 14.2646   3
   7   5  -2 429.988 12.2588   9
   5  -5  -2 964.541 22.3450   5
  -5  -5   2 923.788 26.5134  13
   5  -5  -2 945.015 21.7056   4
   5  -5  -2 962.218 21.2720  11
  -5   5   2 988.065 23.0715   8
   5   5  -2 992.399 20.9997   7
  -5   5   2 992.504 23.5845  15
  -5   5   2 990.721 22.6245   2
   5   5  -2 1004.03 24.1774   1
   5   5  -2 942.806 19.7375   6
  -5   5   2 903.763 20.4761   3
   5   5  -2 994.484 21.0855   9
   3  -5  -2 2281.18 43.6250   5
  -3  -5   2 2376.89 45.5437  13
   3  -5  -2 2370.21 42.5369  11
   3  -5  -2 2252.13 40.3494  12
  -3   5   2 2315.09 43.8831   2
   3   5  -2 2322.09 40.4019   6
   3   5  -2 2338.08 41.9579   9
   3   5  -2 2359.45 44.1863   1
   3   5  -2 2338.85 40.8537   7
  -3   5   2 2340.96 41.9774   8
  -3   5   2 2342.59 43.4784  15
  -3   5   2 2311.10 39.3331   9
  -1  -5   2 89.6629 3.93492  11
   1  -5  -2 84.3324 3.85763  12
   1  -5  -2 96.8952 5.46577   5
  -1  -5   2 82.3125 5.31034   4
   1  -5  -2 94.0323 4.54022  11
  -1  -5   2 88.1903 3.49698   5
  -1   5   2 89.0540 3.60487   9
  -1   5   2 96.7670 4.75442   6
  -1   5   2 89.5088 4.77454   2
   1   5  -2 85.4282 4.26028   1
   1   5  -2 97.0480 3.76403   6
  -1   5   2 89.3032 4.28285  15
   1   5  -2 90.4475 4.21570   9
  -1   5   2 90.8003 2.82839   8
   1  -5   2 1275.54 24.5073  11
   1  -5   2 1277.45 27.6870   4
   1  -5   2 1207.16 22.7196   5
  -1  -5  -2 1226.05 23.5706   3
  -1  -5  -2 1265.99 27.1641   5
  -1  -5  -2 1284.19 25.4751  12
   1   5   2 1302.94 25.7832   6
   1   5   2 1272.93 24.2781   9
  -1   5  -2 1198.39 23.1926   1
  -1   5  -2 1270.37 24.3539   3
  -1   5  -2 1272.72 25.9445   8
   1   5   2 1288.00 24.4072   7
   1   5   2 1265.52 24.2151  10
  -3  -5  -2 99.5302 6.00367   3
   3  -5   2 105.000 5.32358  14
  -3  -5  -2 115.394 6.45273  12
  -3  -5  -2 106.276 5.97694  16
   3  -5   2 108.583 5.48727  11
   3  -5   2 103.200 6.94456  13
   3  -5   2 98.1666 7.01122   4
  -3  -5  -2 100.418 5.36946   8
  -3   5  -2 110.702 6.59274   8
   3   5   2 100.059 5.08965   7
   3   5   2 108.983 5.25637   9
  -3   5  -2 107.481 5.77143  15
   3   5   2 110.040 5.88615   6
  -3   5  -2 115.235 6.35164   3
   3   5   2 104.314 5.27289  10
  -5  -5  -2 14.3089 4.12331   3
   5  -5   2 11.3188 3.84515   4
   5  -5   2 13.3651 3.11008  11
  -5  -5  -2 20.5614 3.69119  16
   5   5   2 15.1154 3.07139   6
   5   5   2 16.1736 2.91582  10
  -5   5  -2 12.7868 4.42372   3
   5   5   2 19.1552 3.21815   7
  -5   5  -2 15.0837 3.35330  15
  -5   5  -2 12.1920 3.94976   8
  -7  -5  -2 162.311 8.77290  16
   7  -5   2 164.460 8.67844   7
   7  -5   2 161.886 9.66527   4
   7  -5   2 162.079 8.87628  11
  -7  -5  -2 169.920 12.3664   3
  -7   5  -2 150.380 10.5730   8
   7   5   2 159.808 9.05483   7
   7   5   2 160.258 9.07925  10
  -7   5  -2 155.943 8.97134  15
  -7   5  -2 152.411 11.2159   3
  -9  -5  -2 2.04901 5.00593   3
  -9  -5  -2 15.0837 5.86133  12
   9  -5   2 2.16993 2.52307   7
   9   5   2 2.58387 3.04758   7
  -9   5  -2 2.36095 5.04090   8
 -10  -6   2 410.126 19.0951   8
  10  -6  -2 408.689 14.7994  11
  10   6  -2 403.404 17.9397   1
 -10   6   2 395.118 17.3993  15
  10   6  -2 392.009 15.1731   7
 -10   6   2 373.025 18.3357   8
   8  -6  -2 168.743 8.47603  11
  -8  -6   2 166.400 11.4461   8
   8  -6  -2 172.760 9.48331   5
  -8   6   2 165.373 10.4889  15
   8   6  -2 171.464 8.79986   7
   8   6  -2 181.122 11.1327   1
  -8   6   2 169.505 11.0820   8
   6  -6  -2 690.020 18.8623   4
  -6  -6   2 714.158 17.8611  16
   6  -6  -2 731.284 18.5805  11
   6  -6  -2 708.347 19.5001   5
   6   6  -2 717.697 20.8874   1
  -6   6   2 694.922 20.1439   8
   6   6  -2 735.253 17.7378   9
   6   6  -2 718.153 17.8872   7
  -6   6   2 703.451 20.3182  15
  -4  -6   2 416.490 15.4357  13
   4  -6  -2 427.690 13.4367   5
   4  -6  -2 438.260 12.6736  11
   4  -6  -2 435.190 13.6663   4
   4   6  -2 414.694 10.7136   6
   4   6  -2 440.836 13.8308   1
   4   6  -2 428.747 11.3171   7
  -4   6   2 429.585 13.5077  15
   4   6  -2 418.873 11.9272   9
  -4   6   2 435.882 13.4557   2
  -4   6   2 414.969 12.3277   8
   2  -6  -2 1999.76 35.7186  12
  -2  -6   2 1945.05 36.2204   5
  -2  -6   2 2084.55 39.9359  13
  -2  -6   2 2071.03 37.0337  11
   2  -6  -2 2046.91 38.3984  11
   2  -6  -2 2027.63 39.7078   5
  -2   6   2 2031.58 38.7290   6
  -2   6   2 2048.90 38.5400  15
  -2   6   2 1958.83 35.5931   8
  -2   6   2 2034.87 35.7884   9
   2   6  -2 1982.41 36.2096   6
   2   6  -2 2049.14 37.8112   9
   2   6  -2 2055.12 38.7630   1
   0  -6   2 37.2493 3.57130  11
   0  -6   2 29.6828 2.38360   5
   0  -6   2 34.1331 4.80121   4
   0  -6  -2 31.6886 3.37404  12
   0  -6  -2 30.5716 4.11584   5
   0   6   2 32.4187 3.09499   6
   0   6  -2 29.6866 2.38031   1
   0   6  -2 29.8993 2.33573   3
   0   6  -2 36.3171 2.80060   9
   0   6   2 25.1250 2.58290   9
   0   6  -2 36.2153 3.27746   8
   0   6  -2 31.9552 2.64745   6
   2  -6   2 3085.93 54.0193   5
   2  -6   2 3056.36 59.3497  13
   2  -6   2 3218.78 60.2708   4
  -2  -6  -2 3122.65 57.1592  12
   2  -6   2 3199.28 56.1094  11
  -2  -6  -2 3042.58 55.3152   3
  -2   6  -2 3126.98 57.2584  15
   2   6   2 3231.30 55.9844   7
  -2   6  -2 3240.47 58.2125   8
   2   6   2 3138.89 55.2718  10
  -2   6  -2 3077.55 55.2699   3
   2   6   2 3146.59 57.3411   6
  -2   6  -2 3173.44 55.2126   9
   2   6   2 3239.45 55.8229   9
  -4  -6  -2 3.82118 2.04893  16
   4  -6   2 4.09296 1.94195  14
   4  -6   2 2.58693 2.12608  11
  -4  -6  -2 7.70245 3.20399  12
  -4  -6  -2 3.65505 2.73927   3
   4  -6   2 4.11238 3.48369   4
   4   6   2 1.62841 1.65655   7
   4   6   2 1.05221 1.25776  10
  -4   6  -2 -1.0724 1.89233   3
  -4   6  -2 1.66811 1.78710   8
   4   6   2 -0.5601 1.03996   6
  -4   6  -2 6.22821 2.47931  15
   6  -6   2 1017.67 24.9508  11
  -6  -6  -2 1065.20 29.1118   3
  -6  -6  -2 1011.07 26.2023  16
   6  -6   2 1000.15 27.0914   4
   6   6   2 1052.46 26.3557   6
  -6   6  -2 1013.66 26.9499   3
  -6   6  -2 1009.91 26.0161  15
   6   6   2 1037.31 25.6097   7
  -6   6  -2 1069.78 29.0799   8
   8  -6   2 22.3137 4.72276  11
   8  -6   2 33.1466 5.26853   7
  -8  -6  -2 31.1148 7.45588   3
  -8  -6  -2 30.8572 7.09101  12
  -8   6  -2 31.9399 7.60339  15
   8   6   2 25.3187 4.72332   7
  -8   6  -2 28.1596 6.78376   8
  -9  -7   2 57.3257 8.24902   8
   9  -7  -2 78.9920 6.76672  11
  -9   7   2 82.7561 9.33149  15
   9   7  -2 69.3379 6.87420   7
   9   7  -2 71.5647 8.82164   1
  -9   7   2 63.6755 8.22204   8
   7  -7  -2 -0.1646 2.61232  11
   7  -7  -2 5.78118 2.56106   5
   7   7  -2 4.62830 2.31204   7
   7   7  -2 2.25134 1.93380   9
  -7   7   2 7.11008 3.84933  15
   7   7  -2 1.56817 2.78208   1
  -7   7   2 2.20815 3.15525   8
   5  -7  -2 5.14449 2.95405   4
   5  -7  -2 4.06337 2.69408  11
   5  -7  -2 9.76380 3.18489   5
   5   7  -2 8.02369 2.26103   9
  -5   7   2 7.41119 3.06733  15
  -5   7   2 9.26859 2.89347   8
   5   7  -2 7.23338 1.86773   6
   5   7  -2 7.16500 2.77729   1
   5   7  -2 5.30799 1.90858   7
  -3  -7   2 155.373 6.47969   5
  -3  -7   2 161.372 6.52328  11
   3  -7  -2 170.497 8.40661   5
   3  -7  -2 164.068 8.74241   4
   3  -7  -2 159.184 7.66867  11
   3   7  -2 165.977 7.01409   9
  -3   7   2 159.082 7.74403  15
   3   7  -2 170.185 6.25601   6
  -3   7   2 152.951 7.47929   6
   3   7  -2 164.871 7.73398   1
  -3   7   2 158.294 5.49897   9
   1  -7  -2 5.23055 2.83392   5
  -1  -7   2 2.98743 1.79055  11
   1  -7  -2 3.06737 1.61214  12
   1  -7  -2 6.93001 2.08380  11
  -1  -7   2 2.57479 2.74148   4
   1   7  -2 3.05005 1.34311   6
  -1   7   2 4.13602 1.92295  15
  -1   7   2 6.18438 2.17735   6
   1   7  -2 5.07061 1.48702   9
   1   7  -2 4.49533 1.56777   1
  -1   7   2 3.30795 1.35098   9
   1  -7   2 553.530 14.4042  11
  -1  -7  -2 543.608 16.5571   5
   1  -7   2 539.428 17.2756   4
  -1  -7  -2 534.714 14.0803  12
  -1   7  -2 549.030 15.1170   8
  -1   7  -2 538.611 13.8261   9
  -1   7  -2 536.402 14.1487   6
   1   7   2 549.796 15.2569   6
   1   7   2 529.849 13.0401  10
   1   7   2 557.196 13.9025   9
   3  -7   2 183.133 8.15807  11
  -3  -7  -2 181.798 8.88760  16
   3  -7   2 183.778 10.4578   4
   3  -7   2 173.078 8.17958  14
  -3  -7  -2 179.112 8.57438  12
   3   7   2 184.660 7.88964   7
  -3   7  -2 189.770 8.81859  15
  -3   7  -2 190.067 7.43631   9
   3   7   2 198.489 7.98422   9
   3   7   2 212.941 9.08095   6
  -3   7  -2 191.327 9.32349   8
   5  -7   2 182.129 11.1493   4
  -5  -7  -2 198.257 10.0503  16
   5  -7   2 185.849 8.82903  11
  -5  -7  -2 195.510 10.7497  12
  -5  -7  -2 181.329 10.7095   3
   5   7   2 194.741 9.68250   6
  -5   7  -2 192.853 9.88267  15
   5   7   2 193.585 9.10383   7
  -5   7  -2 209.938 11.2998   8
  -7  -7  -2 312.177 15.7119  12
  -7  -7  -2 302.049 15.4991   3
   7  -7   2 321.686 12.9498  11
   7  -7   2 321.479 14.5571   4
  -7   7  -2 312.971 13.7594  15
   7   7   2 297.391 12.9549   7
  -7   7  -2 318.729 15.6349   8
   8  -8  -2 5.42526 3.31505  11
   8  -8  -2 4.76562 3.40524   5
   8   8  -2 -0.8745 1.68343   7
   8   8  -2 12.9706 4.62124   1
  -8   8   2 16.2706 5.03587  15
  -8   8   2 9.31308 3.78592   8
   8   8  -2 6.79797 2.75158   9
   6  -8  -2 738.315 21.2199   5
   6  -8  -2 733.521 20.3270  11
   6   8  -2 724.500 18.9822   7
  -6   8   2 715.399 20.7599   8
  -6   8   2 706.589 21.8254  15
   6   8  -2 743.104 22.3655   1
   6   8  -2 722.917 19.3096   9
   4  -8  -2 53.9455 6.07153   5
   4  -8  -2 53.5686 5.35766  11
  -4  -8   2 46.8579 4.04288  11
   4  -8  -2 60.7674 7.22304   4
  -4   8   2 57.9191 6.14797  15
  -4   8   2 60.0535 6.22213   6
   4   8  -2 47.9628 4.91594   9
   4   8  -2 58.7759 5.94486   1
  -4   8   2 41.4551 4.37993   8
   2  -8  -2 938.103 23.6511   5
  -2  -8   2 941.263 21.0834  11
   2  -8  -2 939.584 22.6168  11
  -2  -8   2 915.738 25.1299   4
  -2   8   2 900.214 22.6218   6
  -2   8   2 939.237 22.4022  15
  -2   8   2 924.498 19.6946   9
   2   8  -2 915.504 21.5160   9
   2   8  -2 913.618 20.4025   6
   2   8  -2 880.593 21.4161   1
   0  -8  -2 11.0666 2.96461  11
   0  -8   2 15.2823 3.17048  11
   0  -8   2 16.1364 4.03488   4
   0  -8  -2 12.2846 3.57598   5
   0   8  -2 14.7708 2.61686   6
   0   8   2 11.2092 2.25065   9
   0   8   2 13.5175 2.86823   6
   0   8  -2 14.0854 2.57712   9
  -2  -8  -2 206.026 10.6156   5
  -2  -8  -2 201.836 8.56657  12
   2  -8   2 192.614 11.1523   4
   2  -8   2 210.872 8.64923  11
  -2   8  -2 203.300 9.36053   8
   2   8   2 203.077 9.14972   6
  -2   8  -2 194.168 8.01299   9
   2   8   2 191.681 7.90871   9
   4  -8   2 -2.1001 3.85164   4
   4  -8   2 1.86118 2.05281  14
  -4  -8  -2 3.26911 2.44726  16
  -4  -8  -2 2.29023 2.85143  12
   4  -8   2 2.02890 2.09293  11
  -4   8  -2 2.73544 2.41319  15
  -4   8  -2 0.63155 1.61793   9
  -4   8  -2 -0.2602 2.35783   8
   4   8   2 1.93658 1.52103   7
  -6  -8  -2 22.5232 5.53723  12
   6  -8   2 37.5705 7.00790   4
   6  -8   2 34.3371 5.26724  11
  -6   8  -2 37.4182 6.10348   8
  -6   8  -2 34.8275 5.57818  15
   6   8   2 27.6130 4.73435   6
   6   8   2 26.5735 4.52299   7
   8  -8   2 12.0614 3.79615   7
  -8  -8  -2 22.9024 6.48244  12
   8  -8   2 11.8087 3.46317  11
   8   8   2 11.8473 3.27597   7
  -8   8  -2 11.8616 4.93713   8
   9  -9  -2 0.07347 2.62095  11
   9   9  -2 -0.7792 2.12943   7
  -9   9   2 9.00261 4.41746  15
   9   9  -2 0.29557 3.41339   1
   7  -9  -2 11.4220 4.17178  11
   7  -9  -2 16.1762 4.09101   5
  -7   9   2 10.8562 3.53701   6
   7   9  -2 17.4771 4.72927   1
   7   9  -2 10.9111 3.17656   9
  -7   9   2 15.9861 4.92064  15
   7   9  -2 13.3356 2.88351   7
  -5  -9   2 6.17955 2.38092  11
   5  -9  -2 13.3843 3.89549   5
   5  -9  -2 9.73282 4.42387   4
   5  -9  -2 10.9698 3.79907  11
  -5   9   2 9.77560 3.38156   6
  -5   9   2 9.33082 3.48126  15
   5   9  -2 15.9820 3.92530   1
   5   9  -2 11.8001 3.13394   9
   3  -9  -2 3.64242 3.36009   5
  -3  -9   2 0.77074 1.90915  11
   3  -9  -2 -1.0169 2.68595  11
   3  -9  -2 5.05187 3.33752   4
  -3  -9   2 3.34062 3.25303   4
   3   9  -2 1.14986 1.87074   1
  -3   9   2 4.89084 2.63580   6
   3   9  -2 1.27477 1.73170   9
  -3   9   2 6.35241 2.69688  15
   1  -9  -2 139.627 8.98540   5
  -1  -9   2 151.775 10.2372   4
  -1  -9   2 154.085 7.69757  11
   1  -9  -2 133.969 7.80513  11
  -1   9   2 135.420 6.35212   9
   1   9  -2 143.104 6.89813   6
   1   9  -2 145.195 7.25822   9
  -1   9   2 134.571 7.81895   6
   1  -9   2 12.4226 3.45512  11
  -1  -9  -2 7.68015 2.76302  11
  -1  -9  -2 14.6459 4.39550   5
   1  -9   2 9.99433 4.75496   4
  -1   9  -2 12.7370 3.11980   8
  -1   9  -2 12.9387 2.90012   6
  -1   9  -2 11.8519 2.58451   9
   1   9   2 13.7182 2.71480   9
   1   9   2 21.0750 3.79294   6
  -3  -9  -2 132.819 8.59200  16
   3  -9   2 146.331 11.0903   4
   3  -9   2 134.001 8.31167  14
  -3  -9  -2 130.773 9.70903   5
   3  -9   2 129.008 8.09289  11
  -3   9  -2 128.354 6.84144   9
   3   9   2 121.636 7.12991   9
   3   9   2 122.632 7.93890   6
  -3   9  -2 125.108 7.89346   6
  -3   9  -2 150.357 8.79616   8
  -5  -9  -2 125.881 9.48091  12
  -5  -9  -2 116.335 10.4204   5
   5  -9   2 110.950 10.6477   4
   5  -9   2 107.903 8.23671  11
  -5   9  -2 117.839 9.20656   8
   5   9   2 103.425 7.87412   6
   5   9   2 121.152 7.84468   7
  -7  -9  -2 15.4039 5.46621  12
   7  -9   2 12.9546 6.07370   4
   7  -9   2 10.9285 4.01696  11
  -7   9  -2 16.5181 5.24692   8
   7   9   2 8.48644 3.16965   7
   8 -10  -2 180.114 16.0147   5
   8 -10  -2 148.798 9.84048  11
  -8  10   2 144.264 10.8499   6
   8  10  -2 145.094 11.1002   1
  -8  10   2 126.678 10.3881  15
   8  10  -2 136.147 8.46650   7
   8  10  -2 140.408 8.96798   9
   6 -10  -2 40.9551 5.79925   5
   6 -10  -2 21.6590 8.98565   4
   6 -10  -2 51.2225 6.34198  11
   6  10  -2 47.5349 5.56479   9
   6  10  -2 38.1371 5.85852   1
  -6  10   2 57.5870 7.52222   6
  -6  10   2 44.6138 6.95841  15
  -4 -10   2 321.872 12.1071  11
   4 -10  -2 329.390 15.8352   4
   4 -10  -2 349.023 13.5635  11
   4 -10  -2 325.477 13.6013   5
  -4 -10   2 353.934 16.5854   4
   4  10  -2 335.128 13.4200   1
   4  10  -2 322.616 12.7326   9
  -4  10   2 363.382 14.6068  15
  -4  10   2 321.261 13.6965   6
   2 -10  -2 67.5900 8.85886   4
   2 -10  -2 48.9153 6.15522  11
  -2 -10   2 62.0081 8.63381   4
   2 -10  -2 57.4180 6.62359   5
  -2 -10   2 45.2011 5.18812  11
   2  10  -2 42.8176 5.15224   9
  -2  10   2 52.2827 6.35347   6
  -2  10   2 52.0978 4.11846   9
   0 -10  -2 832.035 22.9162  11
   0 -10   2 828.238 21.6386  11
   0 -10   2 897.966 27.5629   4
   0 -10  -2 832.237 24.3228   5
   0  10  -2 828.574 21.5879   6
   0  10   2 878.853 23.6942   6
   0  10  -2 822.899 21.5702   9
   0  10   2 844.557 20.6998   9
   2 -10   2 73.7745 9.39287   4
  -2 -10  -2 48.6262 6.87536   5
   2 -10   2 58.9701 6.54561  11
  -2 -10  -2 50.7624 6.45981  11
   2  10   2 46.4391 5.15125   9
   2  10   2 57.7154 6.49510   6
  -2  10  -2 51.5345 5.73797   6
  -2  10  -2 53.4232 5.19779   9
  -2  10  -2 59.8386 6.41615   8
   4 -10   2 940.135 29.7590   4
  -4 -10  -2 933.851 28.7463   5
   4  10   2 907.057 25.5612   6
  -4  10  -2 943.251 26.4816   8
  -4  10  -2 907.894 25.7837   6
  -6 -10  -2 63.2990 8.62757   5
   6 -10   2 60.0498 6.89158  11
   6 -10   2 51.3201 8.36152   4
  -6  10  -2 72.3069 8.68521   8
   6  10   2 56.0966 7.04804   6
   7 -11  -2 178.948 10.8178  11
   7  11  -2 171.488 11.3864   1
  -7  11   2 151.688 11.1034   6
  -7  11   2 204.623 12.2787  15
   7  11  -2 150.218 9.52619   9
   5 -11  -2 223.443 13.6645   4
  -5 -11   2 210.581 13.2712   4
   5 -11  -2 225.212 12.2725  11
  -5  11   2 195.418 11.6609   6
  -5  11   2 210.852 11.9131  15
   5  11  -2 207.082 10.8002   9
   3 -11  -2 172.912 10.7307  11
   3 -11  -2 185.669 12.2299   4
  -3 -11   2 189.632 9.75301  11
  -3 -11   2 184.525 13.2415   4
   3 -11  -2 164.198 10.2011   5
  -3  11   2 194.067 11.0823   6
   3  11  -2 188.642 9.84072   9
   1 -11  -2 357.323 17.4874   4
  -1 -11   2 329.530 12.9236  11
  -1 -11   2 358.178 17.9658   4
   1 -11  -2 327.386 14.5504   5
   1 -11  -2 347.950 14.4691  11
  -1  11   2 332.215 14.2094   6
  -1  11   2 331.472 11.6434   9
   1  11  -2 350.242 13.2011   9
  -1 -11  -2 138.514 10.2598   5
   1 -11   2 130.034 8.68753  11
  -1 -11  -2 135.481 9.18708  11
   1 -11   2 128.812 11.8211   4
   1  11   2 129.370 7.54866   9
  -1  11  -2 128.979 7.68843   9
   1  11   2 129.764 8.79748   6
  -1  11  -2 125.266 8.12172   6
   3 -11   2 212.329 10.5617  11
   3 -11   2 204.351 11.4218  14
   3 -11   2 197.484 14.5668   4
  -3 -11  -2 215.333 11.2497  11
  -3 -11  -2 189.340 12.6111   5
   3  11   2 212.391 10.3330   9
  -3  11  -2 191.945 10.8145   6
  -3  11  -2 219.865 11.3883   8
   3  11   2 205.730 10.8436   6
   5 -11   2 93.2088 8.38278  11
   5 -11   2 92.8525 11.3707   4
  -5  11  -2 112.483 8.67545   8
  -5  11  -2 70.1040 7.99031   6
   5  11   2 77.6630 7.46094   6
   6 -12  -2 255.160 13.1548  11
   6  12  -2 266.685 12.2708   9
  -6  12   2 278.628 14.7212   6
   4 -12  -2 9.31503 3.71294  11
  -4 -12   2 9.86935 4.39918   4
   4 -12  -2 10.1105 5.54196   4
  -4  12   2 3.38938 3.26842   6
   4  12  -2 2.92533 2.03653   9
  -2 -12   2 334.396 13.5147  11
   2 -12  -2 305.889 17.3223   4
   2 -12  -2 320.386 13.9920  11
  -2 -12   2 325.861 18.2971   4
  -2  12   2 305.378 14.5483   6
   2  12  -2 310.987 13.2050   9
   0 -12  -2 -0.4570 3.47455  11
   0 -12   2 2.19981 5.18995   4
   0 -12   2 -1.8776 3.30683  11
   0  12  -2 0.94866 2.24443   9
   0  12   2 1.31001 2.09955   9
   0  12   2 -1.5952 2.43779   6
  -2 -12  -2 111.856 9.11036  11
   2 -12   2 128.174 9.63961  14
   2 -12   2 102.777 10.5280   4
   2 -12   2 110.248 8.10790  11
  -2  12  -2 89.2223 7.15957   9
   2  12   2 105.552 7.74681   9
   2  12   2 120.723 8.97702   6
  -4 -12  -2 5.43929 3.82203  11
   4 -12   2 0.97537 5.42581   4
   4 -12   2 3.14729 3.75594  11
  -4  12  -2 2.33369 3.15254   6
   4  12   2 -1.2772 2.86370   6
   3 -13  -2 20.0415 5.66087   4
  -3 -13   2 25.8885 7.66326   4
   3 -13  -2 24.2225 6.09209  11
  -3  13   2 21.1374 4.99566   6
   3  13  -2 22.9143 4.78682   9
   1 -13  -2 23.1843 5.08243  11
   1 -13  -2 50.3863 9.28502   4
  -1 -13   2 38.5518 8.01015   4
  -1 -13   2 25.2009 5.37180  11
   1  13  -2 36.5526 5.20902   9
  -1  13   2 32.2588 5.71228   6
   1 -13   2 12.1593 4.63703  11
  -1 -13  -2 30.8120 7.26851   4
  -1 -13  -2 12.1919 5.12075  11
   1 -13   2 1.92306 5.85334   4
   1  13   2 6.05632 3.66222   6
  -1  13  -2 8.41524 3.20798   9
   1  13   2 6.98650 3.25314   9
 -12   0   3 -4.2989 5.68860   8
 -12   0   3 5.21772 5.54048   3
  12   0  -3 0.27290 3.13878   7
  10   0  -3 -0.8279 2.15833   7
 -10   0   3 4.55019 5.12925   8
  10   0  -3 -2.8630 1.81544   1
 -10   0   3 0.74915 4.18176  15
  -8   0   3 1.01846 3.04876   8
   8   0  -3 0.23520 1.64317   7
  -8   0   3 -2.7392 2.04680  15
   8   0  -3 1.49229 1.92791   1
   6   0  -3 0.17228 1.25742   1
   6   0  -3 0.72244 0.84294  11
  -6   0   3 2.53407 2.18718   2
   6   0  -3 -0.3598 0.61678   7
  -6   0   3 -0.2857 2.46443  15
   6   0  -3 0.00587 1.55707  13
   4   0  -3 3.59618 1.15387   5
  -4   0   3 1.05354 0.73416  14
   4   0  -3 4.78495 1.82262  13
   4   0  -3 -0.0780 0.47960  11
  -4   0   3 0.15656 1.82639   2
  -4   0   3 -0.2792 1.44818  15
   4   0  -3 0.49583 0.97030   1
  -2   0   3 3.65796 1.69519   2
   2   0  -3 1.34101 1.00253  12
   2   0  -3 1.35594 0.86177   3
  -2   0   3 1.29052 0.43855  16
  -2   0   3 4.47279 1.22151  14
   2   0  -3 2.41963 0.58297  16
   2   0  -3 3.35498 1.07786   5
   0   0  -3 1.25317 0.71022   8
   0   0   3 0.90058 0.34078   7
   0   0   3 1.90900 1.09980  14
   0   0   3 0.04681 0.63829  10
   0   0  -3 1.13472 0.93426  16
   0   0  -3 0.58698 1.06876  12
   0   0   3 0.37927 1.03268   2
   0   0  -3 2.84709 1.44070   3
   0   0   3 0.51756 0.57297   6
   0   0   3 0.64646 0.92038   4
   2   0   3 2.82376 1.25816   4
  -2   0  -3 1.29435 2.00783   3
  -2   0  -3 1.94432 1.38509  16
  -2   0  -3 12.7117 2.22998  12
   2   0   3 0.72008 0.64550   7
  -2   0  -3 -0.2518 0.95690  13
  -2   0  -3 0.05347 1.29334   8
   2   0   3 2.88193 1.09239  10
  -4   0  -3 3.72929 1.81372  16
  -4   0  -3 -0.3731 1.81605   3
   4   0   3 2.71720 1.76127   4
   4   0   3 -0.2202 1.32638  10
  -4   0  -3 -1.3901 2.06234   8
   4   0   3 -0.8682 0.86222   7
  -4   0  -3 0.75430 1.34693  13
   4   0   3 1.12442 0.85797  14
   6   0   3 3.59964 2.60866  10
   6   0   3 6.84714 2.29220   7
  -6   0  -3 0.88586 3.87148   3
   6   0   3 0.62413 1.70351   4
  -6   0  -3 15.8635 4.16142   8
  -6   0  -3 -0.4651 2.33011  16
   8   0   3 -0.3075 2.34206   7
  -8   0  -3 0.57566 4.24280   8
  -8   0  -3 -3.3266 3.39047   3
  11  -1  -3 4.17253 3.03787   7
 -11  -1   3 -6.0370 3.78519  15
 -11  -1   3 3.39857 5.36978   8
 -11   1   3 3.53835 4.71931   3
  11   1  -3 0.46047 1.64902   7
 -11   1   3 -2.4439 4.97948   8
  11   1  -3 3.84984 2.95689   1
 -11   1   3 -0.0563 4.36268  15
  -9  -1   3 307.101 15.1645   8
  -9  -1   3 316.526 14.2317  15
   9  -1  -3 289.644 11.3992   1
   9  -1  -3 301.779 11.9062   7
  -9   1   3 309.617 14.0609  15
  -9   1   3 298.111 14.3921   8
   9   1  -3 305.885 12.6584   1
   9   1  -3 308.043 11.9730   7
  -7  -1   3 294.854 11.0898   2
   7  -1  -3 282.696 8.62149  11
  -7  -1   3 290.472 12.0131  15
   7  -1  -3 283.918 10.0825   1
   7  -1  -3 294.566 9.75707   7
   7   1  -3 309.137 9.93243   7
  -7   1   3 301.416 12.4660   8
  -7   1   3 304.892 10.4013   2
   7   1  -3 279.048 10.7205   1
  -7   1   3 300.854 11.9823  15
   5  -1  -3 284.000 8.69861   5
   5  -1  -3 265.967 6.98988  11
   5  -1  -3 290.403 12.3495  13
  -5  -1   3 260.744 6.57604  14
  -5  -1   3 277.072 9.85456   2
   5  -1  -3 265.993 8.49502   1
  -5  -1   3 268.877 9.62836  15
   5   1  -3 288.665 9.66782   1
  -5   1   3 283.079 9.59453   2
   5   1  -3 270.988 6.35517   9
  -5   1   3 264.140 5.81512  14
   5   1  -3 272.681 11.6252  13
  -5   1   3 274.294 9.89060  15
   5   1  -3 279.410 7.63801   7
  -3  -1   3 3262.38 56.7359   2
   3  -1  -3 3188.43 52.3555  11
   3  -1  -3 3081.12 54.3803  16
   3  -1  -3 3167.08 54.5875   5
   3  -1  -3 3171.21 54.2865  12
  -3  -1   3 3221.94 53.6847  14
  -3  -1   3 3136.66 54.3667  16
  -3   1   3 3268.30 56.1361   2
   3   1  -3 3266.59 56.7877   1
   3   1  -3 3156.80 52.3862   9
   3   1  -3 3135.16 53.9865  12
   3   1  -3 3211.76 53.0515   5
  -3   1   3 3173.49 55.2001  15
   3   1  -3 3234.79 56.7082  13
  -3   1   3 3163.02 52.9848  14
   3   1  -3 3237.39 52.2984   7
  -1  -1   3 7.35798 1.26952   4
  -1  -1   3 7.62997 1.07813  10
   1  -1  -3 5.78401 1.01925  16
  -1  -1   3 6.63585 1.29071  14
   1  -1  -3 9.39568 1.57310   5
  -1  -1   3 4.19452 1.46008   2
   1  -1  -3 6.11407 1.38119  12
   1  -1  -3 6.60281 1.34697   3
  -1   1   3 14.3069 1.45994  15
  -1   1   3 7.10470 1.14398   4
   1   1  -3 5.43444 1.35676   3
  -1   1   3 7.21540 1.70235   2
  -1   1   3 7.16571 1.06427   6
   1   1  -3 5.10024 1.22107  12
  -1   1   3 7.17670 1.36613  14
  -1  -1  -3 1846.41 33.0353  16
  -1  -1  -3 1799.95 33.5342  12
   1  -1   3 1771.94 33.3496   4
   1  -1   3 1816.49 32.0602   2
   1  -1   3 1798.39 31.3637  11
  -1  -1  -3 1795.29 31.6416   8
   1  -1   3 1814.73 30.7516   7
   1  -1   3 1794.37 32.3639  14
  -1  -1  -3 1826.03 33.9394   3
   1  -1   3 1827.26 33.1165  10
   1   1   3 1832.09 31.4266   7
   1   1   3 1782.83 32.3018  14
   1   1   3 1877.50 33.3602  10
   1   1   3 1846.00 32.5344   6
  -1   1  -3 1820.37 34.1483   3
   1   1   3 1765.62 33.0665   4
  -1   1  -3 1830.24 35.2336  13
  -1   1  -3 1791.51 32.6595  12
   1   1   3 1793.11 31.2049   2
  -1   1  -3 1818.33 32.9110  16
  -1   1  -3 1820.80 32.8915   8
  -3  -1  -3 418.910 15.9572  13
  -3  -1  -3 415.406 11.6588   8
   3  -1   3 424.916 12.4161  10
   3  -1   3 424.252 12.2528   4
   3  -1   3 421.237 10.4530   7
   3  -1   3 417.171 10.2238  14
  -3  -1  -3 431.676 11.9454  16
   3  -1   3 417.206 10.6848  11
  -3  -1  -3 435.416 13.6445   3
  -3   1  -3 431.221 11.8999  16
   3   1   3 433.247 10.8219   7
   3   1   3 434.537 12.2673   4
  -3   1  -3 410.226 9.63834  15
  -3   1  -3 418.066 13.4672   3
   3   1   3 411.454 10.2787  14
  -3   1  -3 429.810 12.5373   8
  -3   1  -3 412.018 15.2592  13
   3   1   3 424.181 12.4657  10
   5  -1   3 67.3456 4.40383   7
   5  -1   3 70.2715 5.60598  10
  -5  -1  -3 71.3502 6.51403   3
   5  -1   3 77.8110 5.76761   4
  -5  -1  -3 70.4595 6.08203   8
  -5  -1  -3 70.1555 5.52024  16
  -5   1  -3 83.0701 6.86396   8
  -5   1  -3 72.6197 5.23855  16
   5   1   3 66.4384 5.43769  10
   5   1   3 77.0434 5.04219   7
  -5   1  -3 76.5538 7.80461   3
  -7  -1  -3 352.645 14.9699   8
  -7  -1  -3 311.576 12.7588  16
  -7  -1  -3 324.396 16.7698   3
   7  -1   3 335.749 14.9628  10
   7  -1   3 328.035 13.3174   4
   7  -1   3 338.978 12.8365   7
  -7   1  -3 323.746 12.7693  16
   7   1   3 360.669 13.2460   7
   7   1   3 328.664 14.6761  10
  -7   1  -3 338.371 15.9613   3
  -7   1  -3 343.151 15.5490   8
   9  -1   3 0.04347 1.95035   7
  -9  -1  -3 9.54331 6.28511   3
  -9  -1  -3 4.98586 5.03606   8
  -9  -1  -3 8.59076 3.90616  12
   9   1   3 -0.8067 1.84240   7
  -9   1  -3 0.44838 3.35820   8
  -9   1  -3 0.32421 5.85163   3
 -12  -2   3 188.886 16.0554   3
  12  -2  -3 195.413 11.7242   7
 -12  -2   3 160.605 14.8558   8
 -12   2   3 174.786 14.6139   8
 -12   2   3 163.292 11.9765  15
 -12   2   3 188.046 14.5548   3
  12   2  -3 190.712 11.4029   7
 -10  -2   3 415.692 17.1084  15
  10  -2  -3 458.418 16.1694   7
 -10  -2   3 428.662 19.4633   8
  10   2  -3 421.221 15.2591   7
  10   2  -3 417.468 16.4873   1
 -10   2   3 417.822 19.0778   8
 -10   2   3 422.162 17.0762  15
  -8  -2   3 543.421 17.9569  15
   8  -2  -3 534.039 14.1897  11
  -8  -2   3 534.715 19.1777   8
  -8   2   3 542.269 18.6770   8
   8   2  -3 548.982 15.5974   7
   8   2  -3 514.576 17.2174   1
  -8   2   3 542.333 17.7109  15
   6  -2  -3 614.986 13.9578  11
  -6  -2   3 614.640 16.9778   2
  -6  -2   3 613.087 17.0170  15
   6  -2  -3 621.048 15.9967   5
   6  -2  -3 608.270 14.7469   1
   6   2  -3 602.792 14.5109   7
   6   2  -3 606.681 12.8503   9
  -6   2   3 602.130 17.1004  15
   6   2  -3 606.497 17.0771   1
   6   2  -3 582.271 19.9617  13
  -6   2   3 605.989 15.8625   2
  -6   2   3 613.791 17.2923   8
   4  -2  -3 1342.66 25.6415   1
  -4  -2   3 1299.69 23.5339   4
  -4  -2   3 1329.91 24.9288  14
   4  -2  -3 1315.53 23.3765   4
   4  -2  -3 1361.47 23.2574  16
   4  -2  -3 1336.09 25.6260  12
  -4  -2   3 1374.48 28.5261   2
   4  -2  -3 1332.59 24.3977  11
   4  -2  -3 1318.54 26.3477   5
   4   2  -3 1344.69 24.0823   9
  -4   2   3 1336.78 27.0388  15
   4   2  -3 1366.41 29.0778  13
  -4   2   3 1337.22 23.6781  14
   4   2  -3 1323.95 24.2091   7
  -4   2   3 1309.38 26.4227   8
  -4   2   3 1353.77 27.1831   2
   4   2  -3 1320.84 27.3825   1
  -2  -2   3 786.670 16.1117  14
  -2  -2   3 781.588 15.4464   4
   2  -2  -3 774.223 15.9319  12
   2  -2  -3 750.480 14.6109  11
   2  -2  -3 776.313 16.6782   5
   2  -2  -3 743.635 14.6399   3
   2   2  -3 776.274 14.8027  13
   2   2  -3 760.257 14.8557  12
  -2   2   3 780.352 15.3436  14
  -2   2   3 774.756 15.7191  15
  -2   2   3 818.490 17.1583   2
  -2   2   3 768.613 15.1628   6
   2   2  -3 774.567 15.9778   3
   0  -2   3 1483.18 27.8489   4
   0  -2  -3 1444.10 26.9368   3
   0  -2  -3 1454.29 27.5846  12
   0  -2  -3 1488.88 27.0499  16
   0  -2   3 1461.09 26.3011  10
   0  -2   3 1469.08 27.1424  14
   0  -2   3 1471.45 25.1506  11
   0   2   3 1456.99 25.4735   7
   0   2   3 1452.41 26.9541  10
   0   2  -3 1469.53 26.0406  13
   0   2   3 1441.33 26.6278   6
   0   2  -3 1487.86 26.9228  16
   0   2  -3 1431.59 25.8268  12
   0   2  -3 1440.11 27.0242   8
   0   2   3 1466.01 26.9041   2
   0   2  -3 1442.59 27.6622   3
   0   2   3 1435.70 26.7812  14
   2  -2   3 1324.15 26.9861   4
  -2  -2  -3 1274.87 31.4521  13
  -2  -2  -3 1318.51 27.2150   3
   2  -2   3 1298.33 24.9635  14
   2  -2   3 1309.39 28.7482  13
  -2  -2  -3 1286.61 24.4477   8
   2  -2   3 1344.32 26.4744  10
  -2  -2  -3 1354.03 27.2566  12
  -2  -2  -3 1318.13 26.2234  16
   2  -2   3 1312.47 24.5357  11
  -2   2  -3 1269.11 28.5086  13
   2   2   3 1320.89 26.3213  10
  -2   2  -3 1292.21 25.2644  12
   2   2   3 1282.59 24.9721  14
  -2   2  -3 1283.39 24.1876  15
   2   2   3 1323.16 24.8547   7
   2   2   3 1311.24 25.7006   6
  -2   2  -3 1306.05 26.5900   8
  -2   2  -3 1320.44 25.9662  16
  -2   2  -3 1285.00 27.4634   3
   4  -2   3 585.704 16.8238  10
  -4  -2  -3 599.179 15.8894  16
   4  -2   3 579.159 20.0787  13
  -4  -2  -3 600.273 15.9233   8
   4  -2   3 600.534 14.4077   7
   4  -2   3 605.720 14.8835  11
  -4  -2  -3 639.829 18.5887   3
   4  -2   3 589.438 13.4723  14
   4  -2   3 645.783 17.1557   4
  -4   2  -3 596.285 17.2737   8
  -4   2  -3 591.265 14.0332  15
  -4   2  -3 617.959 16.1085  16
   4   2   3 594.953 15.0722   7
  -4   2  -3 612.120 18.2811   3
   4   2   3 586.447 16.4975  10
  -6  -2  -3 636.182 21.7378   3
   6  -2   3 608.543 19.9932  10
  -6  -2  -3 654.049 19.3894   8
   6  -2   3 638.310 19.0718   4
   6  -2   3 626.422 17.3725   7
  -6  -2  -3 627.886 18.3083  16
   6   2   3 666.205 19.9945  10
  -6   2  -3 629.732 18.2452  16
   6   2   3 620.052 17.7189   7
  -6   2  -3 655.987 20.8537   8
  -6   2  -3 659.495 22.0356   3
   8  -2   3 282.987 12.3125   7
  -8  -2  -3 271.210 14.1631   8
  -8  -2  -3 302.661 17.2683   3
  -8   2  -3 327.905 17.4077   3
   8   2   3 279.229 12.4633   7
   8   2   3 303.853 14.7846  10
  -8   2  -3 283.952 14.6140   8
  11  -3  -3 238.978 12.3833   7
 -11  -3   3 245.843 16.2228   8
 -11   3   3 240.021 14.9305   3
 -11   3   3 234.504 13.8121  15
 -11   3   3 242.865 15.4185   8
  11   3  -3 244.294 12.2059   7
  11   3  -3 237.375 13.0583   1
  -9  -3   3 57.0192 7.31007  15
   9  -3  -3 64.8681 5.07583  11
  -9  -3   3 62.6724 8.13392   8
   9  -3  -3 57.9571 5.97167   7
   9   3  -3 63.1402 6.20017   7
  -9   3   3 71.0405 8.51064  15
   9   3  -3 63.4896 7.16883   1
  -9   3   3 64.4918 8.19358   8
  -7  -3   3 1135.67 27.4611  15
   7  -3  -3 1102.78 25.7696   5
  -7  -3   3 1065.92 26.4996   2
   7  -3  -3 1101.95 23.3984  11
  -7   3   3 1105.03 27.1683  15
   7   3  -3 1114.07 24.1797   7
  -7   3   3 1122.27 27.7632   8
   7   3  -3 1139.81 27.5701   1
  -7   3   3 1083.59 24.8636   2
   7   3  -3 1098.61 21.9823   9
  -5  -3   3 192.349 8.99169   2
   5  -3  -3 195.193 5.95133   4
   5  -3  -3 200.070 6.68097  11
  -5  -3   3 190.422 6.65310  14
  -5  -3   3 192.664 5.47077  16
   5  -3  -3 184.925 6.09877   1
   5  -3  -3 205.093 8.07380   5
   5   3  -3 190.492 6.42064   7
  -5   3   3 193.935 8.67832  15
  -5   3   3 195.465 8.03056   2
   5   3  -3 182.055 9.06534  13
  -5   3   3 203.880 8.32776   8
   5   3  -3 208.881 8.72210   1
   5   3  -3 194.280 6.20085   9
   3  -3  -3 4870.90 83.5931   5
  -3  -3   3 4897.39 81.9996   4
   3  -3  -3 4876.75 81.8905  12
  -3  -3   3 5010.23 82.7275  14
   3  -3  -3 4885.44 81.3902  11
  -3   3   3 4976.06 83.2279  15
  -3   3   3 4818.03 81.5369   8
  -3   3   3 4958.18 84.0084   2
   3   3  -3 4949.73 80.0811   7
   3   3  -3 4933.76 81.2875   9
   3   3  -3 4830.31 84.3277   1
  -3   3   3 4942.04 82.0200   6
  -1  -3   3 26.2455 3.02181   4
  -1  -3   3 23.4364 1.50194  10
   1  -3  -3 22.0669 1.79888   3
  -1  -3   3 22.6472 1.52966  11
   1  -3  -3 20.4644 2.68541   5
   1  -3  -3 26.5879 2.79859  12
  -1  -3   3 22.6892 2.68049  14
  -1   3   3 21.2333 1.89321  14
  -1   3   3 20.8679 1.77480  15
  -1   3   3 21.2600 2.27868   6
   1   3  -3 25.2190 2.31484   8
   1   3  -3 20.9878 1.41778  12
  -1   3   3 27.1608 2.87027   2
   1  -3   3 4635.62 76.9371  10
   1  -3   3 4481.26 77.3134  14
  -1  -3  -3 4522.63 77.4923   3
   1  -3   3 4622.32 78.9932   4
  -1  -3  -3 4454.92 73.8636   8
   1  -3   3 4575.85 75.6915  11
  -1  -3  -3 4677.86 77.9660  16
  -1  -3  -3 4681.29 78.5316  12
   1  -3   3 4657.13 85.9420  13
   1   3   3 4522.78 77.0182  14
   1   3   3 4432.93 76.1518   2
   1   3   3 4572.58 77.3416   6
  -1   3  -3 4549.15 77.4844  16
   1   3   3 4624.57 77.5298  10
  -1   3  -3 4625.19 78.1445   8
  -1   3  -3 4532.27 78.0854   3
  -1   3  -3 4525.23 75.2674  12
   1   3   3 4566.59 76.0349   7
  -3  -3  -3 3.69959 2.09590  13
  -3  -3  -3 3.55383 1.59470   8
  -3  -3  -3 7.60389 2.82917   3
   3  -3   3 8.74903 1.92952  11
  -3  -3  -3 6.98300 2.17752  16
   3  -3   3 5.65312 1.69458  10
   3  -3   3 2.79763 1.63360  14
   3  -3   3 4.83000 1.99578  13
  -3  -3  -3 8.03184 2.52597  12
   3  -3   3 5.40831 2.69825   4
   3   3   3 8.69280 1.73530   7
  -3   3  -3 3.29213 2.76379   3
  -3   3  -3 6.16481 1.72554  15
  -3   3  -3 5.79695 2.17237  16
  -3   3  -3 0.90028 2.22657   8
   3   3   3 5.09741 1.79646  10
  -5  -3  -3 830.862 21.2861  16
   5  -3   3 835.282 22.2947   4
  -5  -3  -3 830.553 20.9949   8
   5  -3   3 822.643 20.0344  11
   5  -3   3 819.664 19.5670   7
  -5  -3  -3 859.505 24.5209   3
   5  -3   3 852.291 23.0087  10
  -5   3  -3 833.590 21.1610  16
   5   3   3 878.602 20.9257   7
  -5   3  -3 858.792 23.9569   3
   5   3   3 843.718 22.0481  10
  -5   3  -3 822.886 19.4512  15
  -5   3  -3 837.786 23.1610   8
   7  -3   3 16.4260 3.62938   7
  -7  -3  -3 10.0012 3.61411  16
   7  -3   3 14.7112 3.96463   4
  -7  -3  -3 12.4351 5.42501   3
  -7   3  -3 6.42836 4.61779   8
  -7   3  -3 16.2203 5.62541   3
   7   3   3 14.3840 3.50233  10
   7   3   3 18.1386 3.79250   7
  -7   3  -3 14.7776 3.62836  16
  -9  -3  -3 90.8423 10.6437  12
  -9  -3  -3 92.5392 12.1361   3
   9  -3   3 108.134 9.38788   7
  -9   3  -3 93.9331 11.2404   8
  -9   3  -3 85.4869 11.3600   3
   9   3   3 107.412 8.62141   7
  10  -4  -3 204.436 9.52157  11
 -10  -4   3 197.753 13.9270   8
  10  -4  -3 215.395 10.9091   7
 -10   4   3 208.871 13.7860   8
  10   4  -3 209.019 12.2956   1
  10   4  -3 206.729 10.2677   7
 -10   4   3 195.211 12.5098  15
 -10   4   3 190.925 12.5902   3
   8  -4  -3 292.127 11.9977   5
  -8  -4   3 322.521 13.8428  15
   8  -4  -3 304.239 10.6932  11
  -8   4   3 287.938 13.3430  15
   8   4  -3 303.844 9.49950   9
   8   4  -3 299.000 11.0487   7
  -8   4   3 308.824 13.5436   8
   8   4  -3 310.822 13.6355   1
   6  -4  -3 582.083 14.5748  11
  -6  -4   3 566.791 14.3648  14
  -6  -4   3 544.690 17.6472   2
   6  -4  -3 609.739 16.8298   5
  -6   4   3 595.315 17.0608   8
   6   4  -3 601.943 14.0712   9
   6   4  -3 583.661 17.5730   1
   6   4  -3 583.152 14.5135   7
  -6   4   3 563.531 16.0251   2
  -6   4   3 614.624 17.6328  15
   4  -4  -3 2210.84 41.4873   4
   4  -4  -3 2245.77 41.2748  11
   4  -4  -3 2201.00 39.2253   1
   4  -4  -3 2262.75 41.0206  12
   4  -4  -3 2347.71 43.7209   5
  -4   4   3 2273.25 41.8766   8
   4   4  -3 2345.81 44.4768   1
  -4   4   3 2303.26 43.6378   2
   4   4  -3 2301.50 40.1076   7
  -4   4   3 2363.36 43.5054  15
   4   4  -3 2360.39 41.1325   9
   2  -4  -3 1584.49 29.8735  11
  -2  -4   3 1614.47 27.8402  13
  -2  -4   3 1578.74 28.0022  11
   2  -4  -3 1648.59 32.1932   5
  -2  -4   3 1631.27 31.5991   4
   2  -4  -3 1617.26 30.0406  12
   2   4  -3 1602.86 31.6731   1
  -2   4   3 1604.25 27.6490   8
   2   4  -3 1620.25 29.6860   9
  -2   4   3 1625.13 30.3036  15
  -2   4   3 1635.59 31.8888   2
  -2   4   3 1625.77 27.6584   9
   2   4  -3 1593.59 27.3006   6
  -2   4   3 1607.07 30.4055   6
   0  -4   3 2494.17 41.0964  13
   0  -4   3 2422.39 42.0740  11
   0  -4  -3 2511.98 44.5849  12
   0  -4   3 2448.37 42.1245  10
   0  -4  -3 2380.27 42.2143   3
   0  -4   3 2497.72 44.8767  14
   0  -4   3 2450.94 45.7598   4
   0  -4  -3 2482.75 45.8315   5
   0   4  -3 2451.39 44.3205   8
   0   4   3 2406.35 41.2417  15
   0   4   3 2432.55 44.2398   2
   0   4   3 2499.86 44.3299   6
   0   4  -3 2423.33 43.7446   3
   2  -4   3 1433.67 28.3462  10
  -2  -4  -3 1391.98 28.8815  16
   2  -4   3 1404.64 26.9148  11
   2  -4   3 1413.98 30.1693  13
   2  -4   3 1385.31 27.8438  14
  -2  -4  -3 1380.27 28.5715   3
  -2  -4  -3 1441.42 29.5758  12
   2  -4   3 1428.05 30.2808   4
  -2   4  -3 1381.78 29.0153   3
  -2   4  -3 1388.98 28.6083  16
   2   4   3 1402.41 28.2401  10
  -2   4  -3 1330.72 25.3885  12
  -2   4  -3 1387.28 27.4737  15
   2   4   3 1410.44 27.2294   7
  -2   4  -3 1421.05 29.5311   8
   2   4   3 1399.01 28.4475   6
   4  -4   3 258.229 8.46911  14
   4  -4   3 253.938 10.4152  10
  -4  -4  -3 266.354 11.6556   3
  -4  -4  -3 255.973 11.1450  12
   4  -4   3 269.298 9.26454  11
  -4  -4  -3 267.763 10.3880  16
   4  -4   3 243.329 12.0706  13
   4  -4   3 265.578 11.2485   4
  -4   4  -3 247.678 9.02315  15
   4   4   3 288.687 10.4309   6
   4   4   3 263.923 10.2129  10
  -4   4  -3 267.987 11.4900   3
  -4   4  -3 254.711 9.89604  16
  -4   4  -3 261.054 11.2221   8
   4   4   3 268.224 9.50125   7
   6  -4   3 255.803 10.4361  11
   6  -4   3 263.740 12.2129   4
  -6  -4  -3 290.937 11.9982  16
  -6  -4  -3 292.513 14.7033   3
   6  -4   3 298.089 10.9316   7
   6   4   3 286.981 11.4259   7
  -6   4  -3 265.186 13.9991   3
  -6   4  -3 294.704 14.1059   8
  -6   4  -3 275.885 11.6293  16
   6   4   3 271.220 12.1665  10
  -6   4  -3 257.272 10.2765  15
  -8  -4  -3 52.3833 9.02652   3
   8  -4   3 50.2610 6.26364   7
  -8  -4  -3 51.7648 8.37078  12
   8   4   3 58.5169 6.51902   7
  -8   4  -3 62.9150 8.95672   8
   8   4   3 47.0656 6.60954  10
  -8   4  -3 53.3137 8.82730   3
  11  -5  -3 18.0581 3.61616  11
 -11  -5   3 4.40603 5.55865   8
  11  -5  -3 17.2173 4.29434   7
 -11   5   3 9.62554 5.58360   8
 -11   5   3 9.64063 5.05091  15
  11   5  -3 5.69764 3.37423   1
  11   5  -3 7.49639 3.28574   7
  -9  -5   3 277.696 14.4330  15
   9  -5  -3 284.773 11.2593  11
  -9  -5   3 292.062 15.6821   8
  -9   5   3 301.062 15.0391   8
   9   5  -3 290.728 11.8589   7
  -9   5   3 272.906 14.1096  15
   9   5  -3 294.314 14.3878   1
   7  -5  -3 206.903 8.60331  11
  -7  -5   3 192.515 10.8660   2
   7  -5  -3 208.333 9.84044   5
  -7   5   3 212.165 10.7072   8
   7   5  -3 200.275 8.27300   7
  -7   5   3 210.364 9.33165   2
   7   5  -3 211.283 10.9144   1
   7   5  -3 197.951 7.75571   9
  -7   5   3 214.511 10.4510  15
   5  -5  -3 760.126 19.6464   5
   5  -5  -3 718.875 17.7160   4
  -5  -5   3 743.611 21.7393  13
   5  -5  -3 747.760 17.7775  11
   5   5  -3 771.329 17.4843   9
   5   5  -3 766.639 20.5494   1
  -5   5   3 747.541 18.6915   8
  -5   5   3 764.863 19.5618   2
   5   5  -3 772.478 16.8683   7
  -5   5   3 770.433 19.9038  15
  -3  -5   3 201.784 7.38066  13
  -3  -5   3 191.846 5.78888  11
   3  -5  -3 204.329 8.77200   5
   3  -5  -3 191.339 6.45321  12
  -3  -5   3 195.421 7.79233   4
   3  -5  -3 202.139 7.37082  11
  -3   5   3 196.390 8.23869   2
   3   5  -3 196.596 5.73754   7
  -3   5   3 197.659 4.99436   9
   3   5  -3 196.428 5.28100   6
  -3   5   3 190.701 6.27856   8
   3   5  -3 191.098 8.02683   1
  -3   5   3 195.432 7.72715  15
   3   5  -3 201.022 6.91859   9
  -3   5   3 198.585 7.34788   6
  -1  -5   3 408.977 9.84555  11
   1  -5  -3 410.015 11.0879  12
   1  -5  -3 411.790 12.7773   5
  -1  -5   3 421.865 12.8658   4
  -1  -5   3 424.603 7.94910  13
   1   5  -3 402.844 10.5073   3
  -1   5   3 411.556 10.2828  15
   1   5  -3 412.467 9.32879   6
   1   5  -3 415.093 10.6681   9
  -1   5   3 400.787 9.47743   9
  -1   5   3 418.295 11.4995   6
   1   5  -3 410.250 11.4355   1
  -1   5   3 422.745 12.1712   2
   1  -5   3 38.8842 3.09610  10
   1  -5   3 36.6320 4.02523  14
   1  -5   3 44.6000 5.46707   4
  -1  -5  -3 31.6491 3.34477   3
   1  -5   3 38.1736 3.01035  13
   1  -5   3 39.6390 3.33031  11
  -1  -5  -3 39.7924 4.87536   5
  -1  -5  -3 35.8596 3.32907  16
  -1  -5  -3 37.4606 4.19167  12
   1   5   3 44.0453 3.38745  10
  -1   5  -3 33.3978 3.92620   8
  -1   5  -3 35.5744 3.66307   3
   1   5   3 36.8253 2.98348   9
   1   5   3 32.0749 2.65106   7
   1   5   3 39.7844 3.71540   6
  -3  -5  -3 324.044 11.4189  16
   3  -5   3 310.968 9.91921  11
   3  -5   3 300.866 12.3607   4
  -3  -5  -3 296.658 11.0932   3
   3  -5   3 297.975 10.0639  14
  -3  -5  -3 309.064 11.6278  12
  -3   5  -3 308.946 10.3943  15
  -3   5  -3 307.224 11.6154   3
  -3   5  -3 320.493 11.9914   8
   3   5   3 313.951 10.5376  10
   3   5   3 331.944 11.1778   6
   3   5   3 300.409 9.93240   7
  -5  -5  -3 44.7853 6.60550  12
  -5  -5  -3 45.6194 5.55189  16
   5  -5   3 43.3823 5.02142  11
  -5  -5  -3 41.5600 6.25562   3
   5  -5   3 44.6617 6.25436   4
  -5   5  -3 35.9060 5.86602   3
   5   5   3 46.3574 5.45356   6
  -5   5  -3 47.5583 5.12421  15
   5   5   3 42.5942 5.06181  10
  -5   5  -3 41.3587 6.06435   8
   5   5   3 43.9154 5.00024   7
  -7  -5  -3 255.923 12.2631  16
   7  -5   3 239.928 10.8761   7
  -7  -5  -3 248.792 14.3203  12
  -7  -5  -3 282.570 15.7069   3
   7  -5   3 243.724 12.5845   4
   7  -5   3 251.736 11.4502  11
  -7   5  -3 257.836 14.4130   3
   7   5   3 257.896 12.3321  10
  -7   5  -3 258.244 14.4061   8
   7   5   3 243.243 11.5796   7
   9  -5   3 10.1961 4.03890   7
  -9  -5  -3 16.0191 7.97343  12
  -9  -5  -3 15.0337 7.05674   3
  -9   5  -3 19.5496 7.31348   8
   9   5   3 22.2033 4.89569   7
  10  -6  -3 43.3008 5.70004  11
 -10  -6   3 41.0979 8.01939   8
 -10   6   3 44.1796 7.71788   8
  10   6  -3 40.1701 5.43506   7
  10   6  -3 37.4735 6.39351   1
 -10   6   3 35.8708 7.07234  15
   8  -6  -3 250.942 10.5896  11
   8  -6  -3 259.543 12.1053   5
  -8  -6   3 267.163 13.0792  15
   8   6  -3 241.351 12.7973   1
  -8   6   3 244.400 12.7860  15
   8   6  -3 253.551 9.65103   9
  -8   6   3 254.211 12.7532   8
   8   6  -3 264.795 10.5628   7
   6  -6  -3 795.843 19.8392  11
   6  -6  -3 803.360 21.4173   5
  -6   6   3 798.845 21.4664   2
   6   6  -3 808.697 18.9562   7
   6   6  -3 838.162 23.1208   1
  -6   6   3 777.636 20.8668   8
   6   6  -3 782.358 19.1489   9
  -6   6   3 777.924 21.7225  15
   4  -6  -3 531.628 14.3461  11
  -4  -6   3 525.591 15.5366   4
   4  -6  -3 513.510 15.9139   5
   4  -6  -3 520.020 12.6700  12
   4  -6  -3 528.616 15.2729   4
   4   6  -3 510.646 15.7501   1
  -4   6   3 535.644 15.8312   2
  -4   6   3 525.373 15.2063  15
   4   6  -3 517.990 13.7168   9
  -4   6   3 502.201 13.3798   8
  -4   6   3 524.025 14.8741   6
   4   6  -3 507.677 12.3510   7
  -2  -6   3 2122.15 37.7869  11
   2  -6  -3 2118.69 42.2149   5
  -2  -6   3 2083.23 37.9071  13
  -2  -6   3 2082.01 42.1792   4
   2  -6  -3 2042.37 38.1780  12
   2  -6  -3 2114.43 39.8238  11
   2   6  -3 2036.09 36.8392   6
  -2   6   3 2158.57 39.6532  15
  -2   6   3 2154.01 41.9901   2
  -2   6   3 2133.80 40.5624   6
   2   6  -3 2146.35 39.4245   9
   2   6  -3 2056.57 40.3035   1
  -2   6   3 2072.09 36.8536   9
   0  -6   3 980.135 20.3992  11
   0  -6   3 972.118 24.3720   4
   0  -6  -3 977.139 23.9353   5
   0  -6  -3 981.098 21.6122  12
   0   6  -3 1012.19 22.4495   8
   0   6  -3 943.298 20.5885   1
   0   6   3 1019.54 20.2972   9
   0   6   3 1021.28 22.6703   6
   0   6  -3 1013.10 21.2959   9
   0   6  -3 961.072 20.4232   3
  -2  -6  -3 425.726 13.7174  12
   2  -6   3 456.029 15.7071   4
   2  -6   3 459.410 13.6897  14
  -2  -6  -3 446.086 14.0445  16
   2  -6   3 449.832 12.2927  11
  -2  -6  -3 416.944 12.4232   3
   2   6   3 441.197 12.3234   7
   2   6   3 449.817 12.6729  10
  -2   6  -3 442.650 14.1422   8
  -2   6  -3 444.507 12.8650   3
   2   6   3 454.505 13.7457   6
  -4  -6  -3 569.594 18.0456   3
  -4  -6  -3 588.592 17.7881  16
   4  -6   3 583.067 19.0702   4
   4  -6   3 500.916 16.3564  14
  -4  -6  -3 567.544 18.4082  12
   4  -6   3 594.430 16.1643  11
   4   6   3 593.512 17.4227   6
   4   6   3 620.364 16.5682   7
  -4   6  -3 578.954 18.5871   8
  -4   6  -3 570.882 17.4067   3
   4   6   3 589.885 16.6235  10
  -4   6  -3 587.390 16.7891  15
  -6  -6  -3 34.6762 6.33469   3
   6  -6   3 39.5773 6.52877   4
  -6  -6  -3 34.0448 5.35731  16
   6  -6   3 43.8384 5.57142  11
  -6  -6  -3 36.4870 6.94609  12
  -6   6  -3 31.8035 6.56953   3
   6   6   3 41.9790 5.15519   7
  -6   6  -3 33.1549 4.91057  15
  -6   6  -3 34.2553 6.50050   8
  -8  -6  -3 63.0610 9.33649  12
  -8  -6  -3 53.8864 8.89883   3
   8  -6   3 48.2976 5.96556   7
   8  -6   3 62.8120 7.17125  11
   8   6   3 45.9464 5.80180   7
  -8   6  -3 49.9571 8.15196   8
   9  -7  -3 159.854 10.4085   5
  -9  -7   3 152.820 12.0084   8
   9  -7  -3 153.394 9.04182  11
  -9   7   3 154.264 10.9957   8
   9   7  -3 165.566 11.5201   1
   9   7  -3 157.463 8.79175   7
  -9   7   3 138.793 10.8375  15
   7  -7  -3 80.0353 6.47647  11
   7  -7  -3 96.2453 7.55835   5
  -7   7   3 91.8588 7.50748   8
   7   7  -3 90.0470 7.94692   1
   7   7  -3 108.517 6.53721   9
  -7   7   3 99.9825 8.22555  15
   7   7  -3 85.6550 5.66151   7
   5  -7  -3 620.791 18.3573   4
   5  -7  -3 660.150 19.1371   5
   5  -7  -3 647.494 17.6179  11
  -5   7   3 644.110 18.4908   6
  -5   7   3 660.713 19.1428  15
   5   7  -3 642.479 17.1266   9
   5   7  -3 645.273 15.7121   7
  -5   7   3 622.240 16.9895   8
  -5   7   3 636.550 18.8644   2
   5   7  -3 667.602 19.6558   1
   3  -7  -3 7.04426 2.66285  11
  -3  -7   3 1.89633 2.38426   4
   3  -7  -3 1.22445 1.35880  12
  -3  -7   3 2.09054 1.41011  11
   3  -7  -3 1.87106 2.91477   5
   3   7  -3 1.67145 1.48368   9
   3   7  -3 3.64987 1.94886   1
  -3   7   3 -0.4908 1.62742   6
  -3   7   3 3.15521 2.01527  15
  -1  -7   3 2033.02 42.8270   4
  -1  -7   3 2032.36 37.7219  11
   1  -7  -3 2051.77 41.9616   5
   1  -7  -3 1956.49 37.6830  12
   1  -7  -3 2055.95 39.6748  11
   1   7  -3 2060.29 39.0300   9
  -1   7   3 2066.19 40.4150   6
   1   7  -3 1936.58 38.1467   1
  -1   7   3 2021.45 36.9552   9
   1   7  -3 2009.88 37.0617   6
  -1   7   3 2016.98 38.1117  15
   1  -7   3 36.0380 4.75517  14
   1  -7   3 41.2904 6.14839   4
   1  -7   3 37.7502 3.85236  11
  -1  -7  -3 39.4697 5.53444   5
  -1  -7  -3 35.2897 4.57733  12
   1   7   3 34.7830 3.56112   9
  -1   7  -3 45.2676 4.11923   3
   1   7   3 40.2322 4.70202   6
   1   7   3 35.1169 3.26997  10
  -1   7  -3 35.0354 3.58683   9
  -1   7  -3 40.6179 4.83191   8
  -3  -7  -3 1110.76 27.3927  12
   3  -7   3 1100.81 25.0198  11
   3  -7   3 1110.44 29.5791   4
  -3  -7  -3 1114.84 27.7312  16
   3   7   3 1111.20 25.2016   7
  -3   7  -3 1127.81 27.9347   8
   3   7   3 1163.36 27.2516   6
  -5  -7  -3 11.3262 3.47469  16
  -5  -7  -3 16.4183 5.00944  12
   5  -7   3 16.8226 3.33276  11
   5  -7   3 6.58309 4.32255   4
   5   7   3 12.5088 3.15789   7
  -5   7  -3 13.2892 3.79446   8
   5   7   3 11.2904 3.61299   6
   7  -7   3 125.912 8.67044  11
   7  -7   3 110.739 7.85178   7
   7  -7   3 124.864 9.63192   4
  -7  -7  -3 106.707 10.2546  12
   7   7   3 113.464 8.26381   7
  -7   7  -3 130.840 10.5122   8
  10  -8  -3 77.2794 6.76115  11
  10   8  -3 63.5413 6.58529   7
 -10   8   3 83.5544 11.1799  15
  10   8  -3 66.4041 8.11845   1
   8  -8  -3 262.327 11.8235  11
   8  -8  -3 262.998 12.8600   5
  -8   8   3 263.431 13.7351  15
   8   8  -3 250.516 13.6951   1
   8   8  -3 243.865 10.5331   7
   8   8  -3 232.352 10.5379   9
   6  -8  -3 370.151 13.5126  11
   6  -8  -3 372.144 14.4023   5
  -6  -8   3 375.478 15.3155   4
  -6   8   3 375.650 14.8923  15
   6   8  -3 374.566 11.8335   7
   6   8  -3 373.427 15.2565   1
   6   8  -3 369.652 12.7456   9
  -6   8   3 359.284 14.1565   6
  -4  -8   3 66.9172 6.64994   4
   4  -8  -3 68.2843 6.40337  11
   4  -8  -3 67.0475 6.36799   4
   4  -8  -3 60.8197 6.59086   5
  -4  -8   3 57.0692 4.25301  11
   4   8  -3 57.7120 6.02846   1
   4   8  -3 57.3525 4.65935   9
  -4   8   3 77.5394 6.20263   6
  -4   8   3 71.5151 5.94179  15
  -2  -8   3 571.097 15.0050  11
   2  -8  -3 597.226 16.8618  11
  -2  -8   3 596.113 19.4932   4
   2  -8  -3 625.480 18.8533   5
  -2   8   3 591.751 14.0524   9
   2   8  -3 585.200 16.1570   9
  -2   8   3 581.457 17.2568   6
  -2   8   3 623.007 16.5933  15
   2   8  -3 580.098 16.0235   1
   0  -8  -3 211.208 9.31368  11
   0  -8   3 204.566 8.07571  11
   0  -8  -3 218.625 8.76388  12
   0  -8  -3 208.371 10.7445   5
   0  -8   3 206.402 11.2932   4
   0   8  -3 216.174 8.08680   6
   0   8   3 209.552 9.39253   6
   0   8   3 207.340 7.92413  10
   0   8   3 227.415 8.12079   9
   0   8  -3 226.257 8.86887   9
   2  -8   3 218.053 11.6598   4
   2  -8   3 205.083 8.56761  11
  -2  -8  -3 220.094 11.6071   5
   2  -8   3 206.386 10.0411  14
  -2  -8  -3 200.757 10.0442  16
  -2  -8  -3 212.212 9.95753  12
  -2   8  -3 194.790 9.79432   8
   2   8   3 210.736 8.47158   9
  -2   8  -3 217.670 8.78106   9
   2   8   3 214.938 9.92513   6
  -4  -8  -3 560.864 19.0617  12
  -4  -8  -3 566.752 19.0145  16
  -4  -8  -3 582.348 21.4603   5
   4  -8   3 582.605 21.2937   4
   4  -8   3 580.237 17.2749  11
   4   8   3 589.859 17.1032   7
  -4   8  -3 576.558 19.5445   8
  -4   8  -3 544.945 15.7389   9
   4   8   3 530.854 17.9541   6
   6  -8   3 147.345 11.1298   4
   6  -8   3 131.670 8.19289  11
  -6  -8  -3 118.440 10.3387  12
   6   8   3 127.585 8.53355   7
   6   8   3 135.936 9.47460   6
  -6   8  -3 146.868 10.5853   8
   9  -9  -3 -0.4828 2.84932  11
   9  -9  -3 3.01400 3.31886   5
  -9   9   3 1.61406 3.69763  15
   9   9  -3 -0.1366 2.29438   7
   9   9  -3 4.37335 3.96688   1
  -9   9   3 -1.2166 3.77710   6
   7  -9  -3 555.848 19.1371   5
   7  -9  -3 570.862 18.4670  11
  -7   9   3 513.648 18.9998   6
   7   9  -3 523.601 15.9806   7
  -7   9   3 569.697 20.2095  15
   7   9  -3 578.091 20.6435   1
   7   9  -3 545.741 17.2305   9
   5  -9  -3 27.7465 4.42567  11
   5  -9  -3 22.3674 5.01269   5
   5  -9  -3 24.2767 5.33314   4
  -5  -9   3 23.9700 5.19434   4
  -5   9   3 24.8653 4.77638  15
  -5   9   3 20.8523 4.13133   6
   5   9  -3 21.7030 3.93585   9
   5   9  -3 23.7419 4.59794   1
   3  -9  -3 376.984 13.6895  11
   3  -9  -3 361.514 14.6309   5
  -3  -9   3 386.700 16.1523   4
  -3  -9   3 350.584 11.6286  11
  -3   9   3 381.582 13.5985  15
   3   9  -3 365.446 13.1451   1
  -3   9   3 370.514 13.9305   6
   3   9  -3 343.369 12.5174   9
  -1  -9   3 18.3126 3.44265  11
   1  -9  -3 18.5446 4.86585   5
   1  -9  -3 16.4089 3.22940  11
  -1  -9   3 23.8690 5.05818   4
  -1   9   3 26.6136 4.36782   6
  -1   9   3 12.6990 2.46840   9
   1   9  -3 18.1588 3.12134   9
  -1  -9  -3 157.340 10.3573   5
  -1  -9  -3 172.128 9.08124  11
   1  -9   3 153.534 10.3669   4
   1  -9   3 152.645 8.06953  11
   1  -9   3 157.016 9.30831  14
   1   9   3 160.971 8.92855   6
   1   9   3 150.074 7.30556   9
  -1   9  -3 157.613 7.69794   9
  -1   9  -3 164.691 8.89068   8
  -1   9  -3 143.474 7.51477   6
  -3  -9  -3 34.4951 5.57148  16
   3  -9   3 36.2046 7.18107   4
   3  -9   3 29.5731 4.73242  11
  -3  -9  -3 27.6284 6.09948  12
   3  -9   3 25.9246 4.66441  14
  -3  -9  -3 30.5232 6.46530   5
  -3   9  -3 35.7696 5.85283   8
   3   9   3 35.8124 5.35475   6
  -3   9  -3 30.4240 4.06543   9
  -5  -9  -3 284.762 14.2600  12
   5  -9   3 309.159 12.9457  11
  -5  -9  -3 294.156 16.2318   5
   5  -9   3 314.916 16.1721   4
   5   9   3 299.479 12.6441   7
   5   9   3 280.717 13.2839   6
  -5   9  -3 324.691 15.1776   8
   7  -9   3 1.73723 4.54170   4
  -7  -9  -3 5.74126 6.13613  12
   7  -9   3 1.82903 3.51162  11
  -7   9  -3 3.72082 3.71247   8
   8 -10  -3 10.6133 3.36299  11
   8 -10  -3 14.1567 4.40074   5
  -8  10   3 8.44558 4.34057  15
  -8  10   3 3.32204 4.06330   6
   8  10  -3 3.73126 2.99708   1
   8  10  -3 0.23921 2.61611   9
   6 -10  -3 52.0538 6.34721  11
   6 -10  -3 62.7215 7.43887   5
  -6  10   3 60.2296 7.69671   6
  -6  10   3 72.9783 8.32495  15
   6  10  -3 56.3258 6.37525   9
   6  10  -3 58.8572 7.24754   1
   4 -10  -3 24.3607 4.45157  11
   4 -10  -3 11.5449 4.46952   5
   4 -10  -3 12.4364 4.55600   4
  -4 -10   3 11.7744 4.26441   4
   4  10  -3 11.2283 3.40541   9
  -4  10   3 14.0075 3.90532  15
  -4  10   3 14.3996 3.95641   6
   4  10  -3 9.78643 3.30348   1
   2 -10  -3 142.072 8.94513  11
   2 -10  -3 139.494 10.0656   5
  -2 -10   3 139.462 11.0219   4
  -2 -10   3 125.943 7.23410  11
   2  10  -3 126.162 7.74539   9
  -2  10   3 131.889 8.62906   6
   0 -10  -3 1.98414 2.08839  11
   0 -10   3 2.71018 4.64568   4
   0 -10   3 0.94209 2.82220  11
   0 -10  -3 6.54646 4.49697   5
   0  10  -3 2.86856 2.17849   9
   0  10   3 1.95179 1.71075   9
   0  10   3 5.81391 3.08580   6
  -2 -10  -3 1.79972 2.41107  11
  -2 -10  -3 4.79745 2.45915  16
   2 -10   3 8.39002 3.41990  14
   2 -10   3 0.62868 2.22305  11
  -2 -10  -3 4.09990 4.28629   5
   2 -10   3 5.12213 3.93672   4
  -2  10  -3 7.00168 2.63978   9
   2  10   3 9.24825 3.39160   6
  -2  10  -3 2.89242 2.38286   6
   2  10   3 2.45179 2.26113   9
  -2  10  -3 4.81222 2.80927   8
  -4 -10  -3 45.3665 8.08100   5
   4 -10   3 51.9120 8.82084   4
   4 -10   3 48.7623 6.29027  11
  -4  10  -3 53.4601 7.13906   8
  -4  10  -3 42.9289 6.00026   6
   4  10   3 51.4876 6.60889   6
   6 -10   3 32.6089 7.14520   4
   6 -10   3 27.3759 5.41296  11
  -6 -10  -3 33.3092 6.96501   5
  -6  10  -3 33.9389 6.54095   8
   6  10   3 27.4393 5.29245   6
   7 -11  -3 11.9985 3.99021   5
   7 -11  -3 4.64830 3.02921  11
  -7  11   3 10.0472 4.52525   6
   7  11  -3 0.93072 3.46038   1
  -7  11   3 8.71732 4.23176  15
   7  11  -3 7.39568 3.54435   9
   5 -11  -3 67.0001 9.20605   4
   5 -11  -3 56.2748 7.33734  11
  -5 -11   3 55.2172 8.34317   4
   5 -11  -3 50.1566 6.99588   5
   5  11  -3 47.9385 5.93966   9
  -5  11   3 65.9711 7.51004  15
  -5  11   3 64.5143 8.18700   6
   3 -11  -3 17.8477 5.65958   4
   3 -11  -3 23.5651 5.29210  11
  -3 -11   3 18.8633 6.23327   4
   3 -11  -3 9.11204 4.78229   5
   3  11  -3 15.5711 3.81342   9
  -3  11   3 10.2238 3.85759   6
   1 -11  -3 368.035 15.2523  11
  -1 -11   3 380.456 13.4186  11
   1 -11  -3 384.004 16.7453   5
  -1 -11   3 402.356 19.0767   4
  -1  11   3 407.493 12.8668   9
  -1  11   3 392.976 15.9205   6
   1  11  -3 406.844 14.7165   9
  -1 -11  -3 119.852 9.00895  11
   1 -11   3 108.558 7.87904  11
   1 -11   3 117.741 9.39363  14
   1 -11   3 122.355 12.0119   4
  -1 -11  -3 115.276 10.4979   5
   1  11   3 117.700 8.64560   6
   1  11   3 99.7423 6.81326   9
  -1  11  -3 110.010 7.55090   9
   3 -11   3 180.729 10.1615  11
  -3 -11  -3 193.332 11.5425  11
  -3 -11  -3 175.520 13.0215   5
   3 -11   3 186.548 13.1991   4
   3 -11   3 179.478 11.0879  14
  -3  11  -3 196.556 13.0362   6
  -3  11  -3 186.906 11.1316   8
   3  11   3 168.811 10.6776   6
  -5 -11  -3 28.2975 6.94743   5
   5 -11   3 21.6174 5.94230   4
   5 -11   3 29.0696 5.39863  11
   5  11   3 16.1874 4.33232   6
  -5  11  -3 10.4270 3.96462   6
  -5  11  -3 19.9908 4.88927   8
   6 -12  -3 58.4258 7.65571  11
  -6 -12   3 63.1502 7.90236  14
   6  12  -3 54.7576 6.72181   9
  -6  12   3 55.0842 7.67215   6
   4 -12  -3 324.585 17.1073   4
   4 -12  -3 334.386 14.5627  11
  -4 -12   3 296.402 16.8417   4
   4  12  -3 292.211 13.4795   9
  -4  12   3 322.042 15.5344   6
   2 -12  -3 52.9283 8.71057   4
   2 -12  -3 42.6568 6.91132  11
   2 -12  -3 38.7639 6.70651   5
  -2 -12   3 45.3401 8.00048   4
   2  12  -3 28.7474 5.23815   9
  -2  12   3 43.8081 6.22748   6
   0 -12   3 184.209 12.0173  14
   0 -12   3 185.466 14.6076   4
   0 -12   3 171.959 9.82171  11
   0 -12  -3 171.911 12.0541   5
   0 -12  -3 188.339 10.9690  11
   0  12  -3 179.180 9.95513   9
   0  12   3 175.250 10.5694   6
   0  12   3 168.175 8.79626   9
  -2 -12  -3 175.010 10.8809  11
   2 -12   3 170.943 13.3900   4
   2 -12   3 172.629 11.3796  14
   2 -12   3 151.243 9.76692  11
  -2 -12  -3 162.433 12.5177   5
   2  12   3 176.345 11.0038   6
  -2  12  -3 157.928 8.92383   9
   3 -13  -3 120.837 11.7364   4
  -3 -13   3 117.171 13.3342   4
   3 -13  -3 115.744 10.3892  11
  -3  13   3 117.489 9.82156   6
   3  13  -3 91.2144 8.13154   9
   1 -13  -3 308.381 17.5479   4
   1 -13  -3 277.796 14.6392  11
  -1 -13   3 291.324 18.0089   4
  -1 -13   3 284.843 15.1336  14
   1  13  -3 292.807 13.3094   9
  -1  13   3 270.450 14.3201   6
  -1 -13  -3 207.030 12.6992  11
   1 -13   3 223.189 13.4750  14
   1 -13   3 186.685 13.1775  11
   1 -13   3 216.243 16.2849   4
   1  13   3 192.827 11.8916   6
  -1  13  -3 202.247 10.9247   9
  12   0  -4 1063.73 29.6273   7
 -12   0   4 1061.24 35.1184   8
 -10   0   4 105.513 10.3899  15
 -10   0   4 117.709 11.6393   8
  10   0  -4 99.6281 7.44057   1
  10   0  -4 93.9700 7.06963   7
  -8   0   4 3090.78 59.9884   2
   8   0  -4 3223.93 58.2890   7
  -8   0   4 3169.67 63.5268   8
   8   0  -4 3176.55 60.2622   1
  -8   0   4 3164.87 62.4083  15
   6   0  -4 291.137 7.21697  11
   6   0  -4 297.050 8.59464   7
   6   0  -4 310.080 10.6417   1
  -6   0   4 294.376 11.3349   2
   6   0  -4 295.623 9.61617   5
   6   0  -4 303.294 13.8491  13
  -6   0   4 309.619 11.5967  15
   4   0  -4 2221.08 39.7198  12
   4   0  -4 2145.49 35.8616  11
   4   0  -4 2167.59 42.0777   1
  -4   0   4 2257.17 42.3740   2
  -4   0   4 2200.02 40.9385  15
   4   0  -4 2148.09 36.7093   9
  -4   0   4 2223.50 38.2844  14
   4   0  -4 2161.62 38.9338   5
   2   0  -4 1244.67 23.0785   5
   2   0  -4 1240.93 23.9468  12
   2   0  -4 1230.28 23.9358   3
  -2   0   4 1247.12 23.6524  14
  -2   0   4 1237.75 21.5041   6
  -2   0   4 1265.25 25.5868   2
   2   0  -4 1270.08 22.3503  16
  -2   0   4 1213.40 22.3961   4
   0   0   4 775.512 16.6874   4
   0   0   4 776.557 16.5548   2
   0   0  -4 765.532 15.4805   8
   0   0   4 777.957 16.5216  14
   0   0  -4 754.906 17.1814   3
   0   0  -4 774.145 16.2769  16
   0   0   4 769.681 13.9038   7
   0   0  -4 763.218 16.7215  12
   0   0   4 765.316 16.5859  10
   0   0   4 780.653 15.2951   6
  -2   0  -4 11.8114 2.90053  13
   2   0   4 8.61692 2.09329  10
   2   0   4 13.5124 2.25120  14
   2   0   4 10.8132 1.62651   7
  -2   0  -4 11.2637 3.50153   3
  -2   0  -4 7.90395 2.12609   8
  -2   0  -4 11.7469 2.59236  12
   2   0   4 13.7131 2.69006   4
  -2   0  -4 15.2189 2.76077  16
  -4   0  -4 1711.47 35.0332   8
   4   0   4 1652.12 32.6833   7
   4   0   4 1622.55 35.9415  10
  -4   0  -4 1648.09 34.6194  16
  -4   0  -4 1694.37 35.9806  12
  -4   0  -4 1689.07 37.8631   3
   4   0   4 1632.03 35.0967   4
   4   0   4 1616.02 31.5017  14
  -6   0  -4 8.17608 3.74070  12
  -6   0  -4 11.2046 5.19434   3
  -6   0  -4 12.7040 4.34548   8
   6   0   4 7.63441 2.68008   7
   6   0   4 8.48457 2.80266   4
   6   0   4 10.2168 3.12619  10
  -8   0  -4 693.634 23.7223   8
  -8   0  -4 715.415 24.4101  12
   8   0   4 702.557 21.3862   7
  -8   0  -4 688.633 27.1108   3
   8   0   4 677.266 24.4064  10
 -11  -1   4 85.5617 9.96329  15
 -11  -1   4 88.3677 11.4397   8
  11  -1  -4 82.3593 8.05577   7
  11   1  -4 86.0828 8.17752   7
 -11   1   4 91.4994 11.0306   8
 -11   1   4 92.6003 10.1934  15
  11   1  -4 63.5926 7.53410   1
  -9  -1   4 88.9034 9.37837   8
   9  -1  -4 88.3345 6.26384   7
  -9  -1   4 82.9856 7.74546  15
   9  -1  -4 88.5108 6.25729   1
   9   1  -4 112.246 6.88365   7
   9   1  -4 81.5945 6.92280   1
  -9   1   4 83.8679 8.94057  15
  -9   1   4 92.9613 9.51324   8
   7  -1  -4 947.621 22.2855   5
  -7  -1   4 908.013 23.8817  15
   7  -1  -4 908.230 18.8641  11
  -7  -1   4 928.690 23.8494   2
   7  -1  -4 947.130 22.1642   1
   7   1  -4 925.507 20.4995   7
  -7   1   4 913.269 23.8985  15
  -7   1   4 925.209 24.2637   8
   7   1  -4 930.896 23.3424   1
  -7   1   4 896.402 22.5510   2
   5  -1  -4 12.6447 2.35711   1
   5  -1  -4 16.9773 1.70964  11
   5  -1  -4 14.2220 2.43658  12
  -5  -1   4 14.1499 3.11926  15
  -5  -1   4 9.17520 3.14788   2
  -5  -1   4 15.9555 2.08391  14
   5  -1  -4 14.3721 2.32652   5
   5   1  -4 11.6815 1.91757   5
  -5   1   4 17.5064 3.43913  15
   5   1  -4 12.3722 1.64804   7
   5   1  -4 13.6545 3.02219  13
   5   1  -4 11.0112 2.26235   1
  -5   1   4 14.9067 1.68722  14
  -5   1   4 14.3867 3.22704   2
   5   1  -4 13.1435 1.36837   9
   3  -1  -4 858.744 18.2256  12
   3  -1  -4 861.938 15.6797  11
  -3  -1   4 880.644 17.8526  14
  -3  -1   4 866.255 16.0170   4
  -3  -1   4 878.474 20.4349   2
   3  -1  -4 881.320 18.2338   5
   3  -1  -4 874.334 15.6317  16
   3   1  -4 860.346 16.4910   5
   3   1  -4 851.535 17.6842  12
   3   1  -4 894.128 15.7230  16
  -3   1   4 874.503 17.3058  14
  -3   1   4 879.494 19.8773   2
  -3   1   4 877.396 18.5400  15
  -3   1   4 878.015 16.4628   6
   3   1  -4 851.122 15.0976   7
  -1  -1   4 330.681 9.90871   2
   1  -1  -4 340.768 9.18422   5
   1  -1  -4 340.286 9.36267  12
   1  -1  -4 334.328 9.11356   3
  -1  -1   4 331.779 8.79142   4
   1  -1  -4 328.971 8.35456  16
  -1  -1   4 334.023 9.02749  14
  -1  -1   4 336.504 8.44796  10
   1   1  -4 331.257 7.54631   5
   1   1  -4 326.228 9.37995   3
  -1   1   4 338.323 9.70093   2
   1   1  -4 331.426 8.42229   8
  -1   1   4 322.054 8.73855  14
   1   1  -4 347.862 8.56536  16
   1   1  -4 347.581 8.90325  12
  -1   1   4 328.187 8.52249   4
  -1   1   4 337.725 7.97181   6
  -1   1   4 325.423 7.63496  15
   1  -1   4 134.907 6.17254   4
  -1  -1  -4 134.317 6.60106   3
  -1  -1  -4 138.265 6.18166  12
   1  -1   4 139.779 5.36821   2
   1  -1   4 133.833 4.05793   7
  -1  -1  -4 138.974 5.80155  16
   1  -1   4 132.403 5.46222  14
  -1  -1  -4 130.999 4.79175   8
   1  -1   4 138.144 5.82158  10
  -1   1  -4 130.348 5.72767  16
   1   1   4 139.216 5.47305  14
   1   1   4 132.818 4.40827   7
   1   1   4 125.261 5.70252   4
  -1   1  -4 135.328 6.69030  13
  -1   1  -4 131.267 5.52013   8
  -1   1  -4 132.526 5.57403  12
   1   1   4 129.885 5.17566   6
   1   1   4 135.994 4.74954   2
   1   1   4 129.251 5.75703  10
  -1   1  -4 122.363 6.54469   3
  -3  -1  -4 637.698 21.8514  13
   3  -1   4 654.952 15.3281  14
  -3  -1  -4 656.138 16.9560  16
  -3  -1  -4 656.772 18.9896   3
   3  -1   4 662.056 17.6658   4
   3  -1   4 681.795 17.8601  10
   3  -1   4 671.495 15.0188   7
  -3  -1  -4 689.832 18.1289  12
  -3  -1  -4 693.294 16.5213   8
  -3   1  -4 634.077 20.7665  13
  -3   1  -4 654.456 18.8821   3
   3   1   4 654.986 17.4623   4
  -3   1  -4 659.463 17.0141  16
  -3   1  -4 661.428 17.3446   8
   3   1   4 658.240 17.7564  10
   3   1   4 667.000 15.3782   7
   3   1   4 653.695 15.3498  14
  -3   1  -4 656.454 17.1144  12
   5  -1   4 5.75178 2.73740   4
  -5  -1  -4 7.67225 3.14305  16
  -5  -1  -4 1.81147 3.84074   3
  -5  -1  -4 0.41329 2.33558  12
  -5  -1  -4 -0.3048 3.07464   8
   5  -1   4 3.73908 2.63386  10
   5  -1   4 8.11526 2.24105   7
  -5   1  -4 -0.0012 3.77903   3
  -5   1  -4 4.91903 2.66525  12
   5   1   4 6.96611 2.53065  10
  -5   1  -4 5.20731 2.93764  16
  -5   1  -4 2.13110 2.95234   8
   5   1   4 3.60388 1.82883   7
  -7  -1  -4 52.6671 6.54081  16
  -7  -1  -4 64.9917 8.18384  12
  -7  -1  -4 70.6436 10.0223   3
   7  -1   4 54.3729 6.72805   4
   7  -1   4 61.2569 6.12038   7
  -7  -1  -4 58.9822 7.54833   8
   7  -1   4 57.0077 7.41604  10
  -7   1  -4 64.9871 8.50439   8
   7   1   4 59.7110 6.15217   7
   7   1   4 56.2207 7.34453  10
  -7   1  -4 56.0311 6.83737  16
  -7   1  -4 62.8646 9.49184   3
  -7   1  -4 68.0971 8.09067  12
  -9  -1  -4 74.0661 11.5262   3
   9  -1   4 79.5494 7.97892   7
  -9  -1  -4 95.4046 10.6609  12
  -9   1  -4 75.4571 9.64207   8
  -9   1  -4 54.2292 10.5729   3
  -9   1  -4 99.1072 9.35440  12
  12  -2  -4 2.54775 3.07083   7
 -12  -2   4 2.34683 5.89541   8
 -12   2   4 -0.2768 5.22543   8
 -12   2   4 6.05729 5.25347  15
 -12   2   4 0.12941 4.29392   3
  12   2  -4 1.31307 3.23109   1
  12   2  -4 1.70297 2.97408   7
 -10  -2   4 3.44437 3.42780   8
  10  -2  -4 6.31711 2.90167   7
 -10  -2   4 6.03478 4.92924  15
  10   2  -4 4.32743 2.41872   7
 -10   2   4 -7.2421 3.67831   8
 -10   2   4 -2.2784 3.97895  15
  10   2  -4 2.93656 3.10140   1
   8  -2  -4 3.07306 1.48442  11
   8  -2  -4 4.35998 1.99038   1
   8  -2  -4 3.84357 2.35083   5
  -8  -2   4 6.07118 3.74880  15
  -8  -2   4 1.17205 3.87879   2
  -8   2   4 5.72103 2.36952   2
   8   2  -4 3.68804 2.36660   1
  -8   2   4 0.45907 2.60940  15
   8   2  -4 3.23140 1.70294   7
  -8   2   4 9.13900 3.81457   8
   6  -2  -4 790.244 18.3538   1
   6  -2  -4 782.924 16.4139  11
  -6  -2   4 795.283 20.6501  15
   6  -2  -4 799.368 19.2781   5
  -6  -2   4 799.130 21.3237   2
  -6  -2   4 775.332 16.3621  14
   6   2  -4 787.310 20.6467   1
  -6   2   4 779.129 19.9707   2
  -6   2   4 804.892 20.2949   8
   6   2  -4 789.597 17.0918   7
   6   2  -4 779.122 15.7863   9
  -6   2   4 786.468 20.4621  15
   6   2  -4 758.400 22.8784  13
   4  -2  -4 484.853 12.7724   5
  -4  -2   4 484.159 14.5880   2
  -4  -2   4 441.718 9.69672   4
  -4  -2   4 471.608 11.5925  14
   4  -2  -4 489.410 12.1970  12
   4  -2  -4 460.451 10.2251  11
   4  -2  -4 469.636 9.25448  16
   4   2  -4 482.293 10.3890   9
   4   2  -4 459.618 9.72074   7
   4   2  -4 467.912 13.6733   1
   4   2  -4 455.711 13.3431  13
  -4   2   4 468.060 13.4283   2
  -4   2   4 453.241 12.7672  15
  -4   2   4 468.018 10.6699  14
  -2  -2   4 8197.44 138.415  10
   2  -2  -4 7766.22 140.210   3
   2  -2  -4 8304.32 140.860  16
   2  -2  -4 7987.58 144.905   5
  -2  -2   4 8006.19 141.439   4
   2  -2  -4 7945.90 143.121  12
  -2  -2   4 7984.46 142.596  14
  -2   2   4 8078.48 140.776  14
  -2   2   4 8132.61 133.511   2
  -2   2   4 7871.62 141.409  15
  -2   2   4 7998.38 142.524   6
   2   2  -4 8159.04 141.224  12
   2   2  -4 8123.54 145.594  16
   2   2  -4 8088.56 144.358   3
   0  -2   4 166.725 4.74094  11
   0  -2   4 180.018 7.00281   4
   0  -2   4 164.271 3.86877   7
   0  -2  -4 165.274 6.48879   3
   0  -2   4 165.776 5.85986  10
   0  -2  -4 176.363 6.92230  12
   0  -2   4 171.369 6.47886  14
   0  -2  -4 169.061 6.11465  16
   0  -2  -4 164.734 4.20512   8
   0   2  -4 172.209 6.24967   8
   0   2   4 162.580 4.83839   7
   0   2   4 169.827 5.85898   6
   0   2   4 176.542 6.12966  14
   0   2  -4 169.013 5.72039  12
   0   2   4 172.760 6.31364  10
   0   2  -4 169.031 6.93713   3
   0   2  -4 186.034 6.35343  16
   0   2  -4 168.589 5.86663  13
   0   2   4 171.431 6.13987   2
  -2  -2  -4 2900.21 53.0379   3
  -2  -2  -4 2767.82 58.2405  13
  -2  -2  -4 2825.66 51.3984  16
   2  -2   4 2908.01 51.9258  10
  -2  -2  -4 2784.79 48.9273   8
   2  -2   4 2747.70 48.9856   2
   2  -2   4 2774.17 48.1024   7
   2  -2   4 2823.59 52.3777   4
   2  -2   4 2789.32 50.1280  14
   2  -2   4 2865.84 49.2359  11
  -2  -2  -4 2858.08 52.6853  12
   2   2   4 2721.68 47.2504   2
   2   2   4 2831.81 50.3029  14
  -2   2  -4 2848.56 51.5898   8
  -2   2  -4 2857.35 53.3416   3
  -2   2  -4 2758.61 50.3957  12
  -2   2  -4 2787.92 51.2004  16
   2   2   4 2808.10 49.2675   7
  -2   2  -4 2762.25 54.5228  13
   2   2   4 2847.14 50.7292   6
   2   2   4 2877.65 52.0908  10
   4  -2   4 79.0290 6.18155  10
  -4  -2  -4 76.5982 6.40108  12
   4  -2   4 78.9396 4.92878  11
   4  -2   4 73.1581 4.46027   7
  -4  -2  -4 80.0960 7.87435   3
  -4  -2  -4 77.1898 5.37346   8
  -4  -2  -4 72.2346 5.79435  16
   4  -2   4 77.5790 6.21123   4
  -4   2  -4 91.3962 7.91717   3
  -4   2  -4 67.1642 6.12009   8
  -4   2  -4 83.4278 5.63163  12
  -4   2  -4 78.1843 5.91947  16
   4   2   4 77.0200 5.88563  10
   4   2   4 81.5473 4.99241   7
  -6  -2  -4 169.852 9.69068  16
  -6  -2  -4 179.038 10.9991  12
  -6  -2  -4 172.959 12.3728   3
   6  -2   4 155.971 10.1014  10
   6  -2   4 164.518 8.08280   7
   6  -2   4 172.643 9.91812   4
  -6   2  -4 184.562 10.2396  12
   6   2   4 159.840 8.51199   7
   6   2   4 175.712 10.2396  10
  -6   2  -4 164.998 12.0616   3
  -6   2  -4 179.184 11.1296   8
  -6   2  -4 171.812 9.57278  16
  -8  -2  -4 46.3367 8.03506  12
  -8  -2  -4 45.1654 8.87147   3
   8  -2   4 40.4268 5.57982   7
  -8   2  -4 51.8979 9.51509   3
  -8   2  -4 25.0759 5.06497  12
   8   2   4 38.9128 6.14403  10
   8   2   4 42.5315 5.94980   7
  -8   2  -4 43.6302 7.49958   8
 -11  -3   4 59.7457 9.52260   8
 -11  -3   4 52.6199 8.29512  15
  11  -3  -4 60.4274 6.96338   7
 -11   3   4 46.8209 8.43253   8
 -11   3   4 49.2009 8.57022  15
 -11   3   4 50.3523 7.83509   3
  11   3  -4 56.6220 6.32177   7
  11   3  -4 47.0715 7.09807   1
   9  -3  -4 107.346 6.07736  11
  -9  -3   4 113.276 10.0224   8
  -9  -3   4 105.438 9.44549  15
   9   3  -4 104.955 8.33532   1
  -9   3   4 114.442 9.76622   8
   9   3  -4 121.565 7.18295   7
  -9   3   4 108.757 9.56271  15
   7  -3  -4 45.6922 3.63516  11
  -7  -3   4 48.0859 5.85871  15
  -7  -3   4 49.3957 6.07690   2
   7  -3  -4 53.4037 4.93536   5
   7   3  -4 45.0152 3.01066   9
  -7   3   4 46.5124 6.08220  15
  -7   3   4 51.2775 6.19528   8
   7   3  -4 51.7734 3.84236   7
  -7   3   4 50.8613 5.44534   2
   7   3  -4 51.4650 5.86409   1
   5  -3  -4 200.469 6.79480   4
   5  -3  -4 253.662 7.59041  11
  -5  -3   4 244.122 8.10937  14
  -5  -3   4 253.714 11.0781   2
   5  -3  -4 276.797 9.56649   5
   5  -3  -4 251.848 8.07180   1
  -5  -3   4 198.735 6.87650   4
   5  -3  -4 247.067 8.36319  12
   5   3  -4 270.435 7.43169   9
  -5   3   4 268.221 10.2651  15
   5   3  -4 231.376 6.82776   7
  -5   3   4 251.828 8.99750   8
   5   3  -4 267.375 10.1561   1
   5   3  -4 233.304 9.90295  13
  -5   3   4 266.873 9.97238   2
   3  -3  -4 425.888 10.1209  11
   3  -3  -4 422.030 12.0960   5
   3  -3  -4 422.969 11.1942  12
  -3  -3   4 436.978 11.7173  14
  -3  -3   4 420.288 10.7188   4
   3   3  -4 433.804 13.2388   1
   3   3  -4 433.801 10.0816  13
   3   3  -4 416.251 10.0466   9
  -3   3   4 436.758 12.4713   2
  -3   3   4 422.891 11.3420  15
  -3   3   4 429.258 10.5612  14
   3   3  -4 429.835 8.36018   7
  -3   3   4 410.910 9.78537   8
  -3   3   4 418.254 10.6387   6
   1  -3  -4 441.272 12.4796   5
   1  -3  -4 449.279 11.9567  12
   1  -3  -4 454.054 11.2741  16
  -1  -3   4 440.560 11.8445  14
  -1  -3   4 431.889 9.92848  10
  -1  -3   4 434.046 12.0236   4
  -1  -3   4 420.162 8.85064  11
   1  -3  -4 438.716 10.5069   3
   1   3  -4 440.544 9.87234  12
   1   3  -4 477.241 11.9968   3
  -1   3   4 437.157 9.58123  15
   1   3  -4 428.542 11.0205  16
  -1   3   4 430.646 11.9801   2
  -1   3   4 444.761 11.3123  14
  -1   3   4 433.244 11.0124   6
   1   3  -4 435.245 11.4168   8
   1  -3   4 9.16103 1.90234  10
  -1  -3  -4 11.9710 2.75311   3
   1  -3   4 15.3301 2.49545  14
  -1  -3  -4 16.2762 2.66374  16
  -1  -3  -4 8.16878 1.13810   8
  -1  -3  -4 11.2387 2.86429  12
   1  -3   4 15.5877 2.00275  11
   1  -3   4 15.4288 2.99467   4
  -1   3  -4 11.2868 2.48772   8
   1   3   4 13.2055 1.89647   7
  -1   3  -4 9.58656 2.76433   3
  -1   3  -4 12.7041 2.00670  12
   1   3   4 11.7223 2.20202   6
   1   3   4 17.9808 2.23778   2
   1   3   4 12.8149 2.31427  14
   1   3   4 9.94361 2.13175  10
  -1   3  -4 12.3924 2.25079  16
  -3  -3  -4 475.063 14.1159  16
   3  -3   4 452.946 14.6542   4
   3  -3   4 478.070 12.4777  11
  -3  -3  -4 462.208 14.7247  12
   3  -3   4 436.632 12.2534  14
   3  -3   4 447.985 11.3782   7
  -3  -3  -4 443.442 11.7610   8
   3  -3   4 466.840 14.3925  10
  -3  -3  -4 481.541 15.5503   3
   3   3   4 473.215 14.4249  10
  -3   3  -4 443.330 12.5461  12
  -3   3  -4 467.996 15.4282   3
   3   3   4 460.584 13.4885   6
   3   3   4 458.729 12.5053   7
  -3   3  -4 463.707 14.4563   8
  -3   3  -4 441.079 13.6165  16
  -5  -3  -4 3.83799 2.30492  16
  -5  -3  -4 1.50167 2.69685   3
  -5  -3  -4 6.05127 3.38323  12
   5  -3   4 8.64483 3.38646   4
   5  -3   4 3.30472 2.12110  10
   5  -3   4 7.98132 2.68128  11
   5  -3   4 4.31343 1.96200   7
   5   3   4 6.09434 2.66300  10
  -5   3  -4 0.24692 3.17692   8
  -5   3  -4 3.62270 3.97319   3
  -5   3  -4 2.97239 2.46612  12
   5   3   4 3.42350 2.02274   7
  -5   3  -4 5.44956 2.89104  16
   7  -3   4 11.2722 3.76338   4
  -7  -3  -4 3.43935 2.70207  16
  -7  -3  -4 8.53966 4.38072  12
  -7  -3  -4 3.02271 5.42863   3
   7  -3   4 4.14875 2.52588   7
  -7   3  -4 8.70777 4.94719   8
   7   3   4 5.62822 3.13120   7
   7   3   4 -1.6788 2.49416  10
  -7   3  -4 10.1621 5.98560   3
  -7   3  -4 3.63813 2.87620  16
  10  -4  -4 771.181 20.4482  11
 -10  -4   4 838.063 28.0308   8
 -10  -4   4 805.254 25.9121  15
  10   4  -4 767.949 21.6399   7
 -10   4   4 760.831 25.2042  15
 -10   4   4 778.272 25.8963   8
  10   4  -4 766.446 25.1015   1
  -8  -4   4 -0.9555 3.06870  15
   8  -4  -4 -0.6254 1.66436  11
  -8  -4   4 3.88549 3.35135   2
   8  -4  -4 1.68924 2.31428   5
  -8   4   4 -1.8407 1.42601   2
  -8   4   4 5.48989 3.57485   8
   8   4  -4 0.19529 0.98409   9
   8   4  -4 0.51879 1.45921   7
  -8   4   4 -1.2957 3.24018  15
   8   4  -4 -1.6977 2.22456   1
  -6  -4   4 1719.84 34.3732  14
   6  -4  -4 1781.60 36.8774   5
   6  -4  -4 1788.43 33.9885  11
  -6  -4   4 1757.16 39.8607   2
  -6   4   4 1764.50 36.5921   8
   6   4  -4 1781.12 33.5209   9
   6   4  -4 1757.11 33.4772   7
   6   4  -4 1807.72 38.6390   1
  -6   4   4 1755.02 37.5599  15
  -6   4   4 1777.77 37.2486   2
   4  -4  -4 561.628 13.3349  11
   4  -4  -4 581.945 15.7304   5
   4  -4  -4 559.112 13.7908  12
  -4  -4   4 557.005 14.5328  14
  -4  -4   4 538.323 13.5941   4
   4   4  -4 574.190 13.1961   9
  -4   4   4 548.996 14.8475  15
  -4   4   4 565.601 14.0861   6
   4   4  -4 554.040 15.8938   1
  -4   4   4 526.502 13.1640   8
  -4   4   4 582.047 16.0048   2
   4   4  -4 536.295 11.5703   7
   2  -4  -4 1970.86 37.0156  12
   2  -4  -4 2038.17 39.0127   5
  -2  -4   4 1915.40 33.3265  11
  -2  -4   4 1957.28 37.6489   4
   2  -4  -4 1879.94 33.8958   3
  -2  -4   4 2036.60 38.2097  14
  -2  -4   4 1994.87 33.3087  10
   2  -4  -4 1977.38 36.2063  11
  -2   4   4 1987.36 36.8212   6
   2   4  -4 1997.44 35.8679   9
  -2   4   4 1965.71 35.9221  15
   2   4  -4 1970.46 36.8865   3
   2   4  -4 1921.45 39.2539   1
  -2   4   4 1993.92 38.4458   2
   0  -4  -4 1073.77 24.4507   5
   0  -4  -4 1090.54 23.2187  16
   0  -4  -4 1078.93 23.4793  12
   0  -4   4 1047.24 20.2450  11
   0  -4   4 1065.74 23.3751  14
   0  -4   4 1057.45 21.1048  10
   0  -4   4 1078.70 24.2198   4
   0   4  -4 1078.01 23.1284   3
   0   4  -4 1061.62 22.9563   8
   0   4   4 1068.27 22.7428   2
   0   4  -4 1047.05 19.6554  12
   0   4  -4 1096.40 23.0311  16
   0   4   4 1075.47 20.8855   7
   0   4   4 1060.62 22.6505   6
   0   4   4 1058.01 22.6608  10
   2  -4   4 2206.27 42.1742  14
  -2  -4  -4 2211.40 43.2078   3
  -2  -4  -4 2240.30 43.3854  16
  -2  -4  -4 2239.11 44.2946  12
   2  -4   4 2269.05 44.7570   4
   2  -4   4 2247.10 40.5458  11
   2  -4   4 2278.44 42.7816  10
  -2   4  -4 2109.23 39.7034  12
   2   4   4 2291.55 42.9850   6
  -2   4  -4 2256.83 43.3116  16
  -2   4  -4 2224.94 43.8543   3
  -2   4  -4 2251.32 43.8037   8
   2   4   4 2180.78 40.8230   7
   2   4   4 2214.62 42.9977  10
   4  -4   4 60.7331 6.26816   4
   4  -4   4 66.9895 5.88000  10
  -4  -4  -4 59.9810 5.55197  16
   4  -4   4 61.6054 4.15234   7
  -4  -4  -4 60.4753 6.98937  12
   4  -4   4 64.0948 4.93851  11
  -4  -4  -4 58.0321 6.86097   3
  -4   4  -4 58.1135 6.52693   8
   4   4   4 42.8770 4.88571   6
  -4   4  -4 62.1788 7.10314   3
  -4   4  -4 53.6533 5.39771  16
   4   4   4 58.7704 4.43195   7
   4   4   4 56.7258 5.32657  10
  -6  -4  -4 1053.07 27.9939  16
   6  -4   4 1146.89 30.0733   4
  -6  -4  -4 1123.48 32.0981   3
  -6  -4  -4 1088.81 31.1079  12
   6  -4   4 1101.66 26.6100  11
  -6   4  -4 1108.94 30.3528   8
   6   4   4 1069.03 26.7141   7
  -6   4  -4 1122.85 31.6788   3
   6   4   4 1081.71 29.3441  10
  -6   4  -4 1077.50 28.0740  16
  -8  -4  -4 4.85516 5.94267   3
  -8  -4  -4 2.54851 4.16627  12
   8  -4   4 0.69473 2.63163   7
   8   4   4 2.42645 3.04297   7
  -8   4  -4 0.67040 4.32995   8
   8   4   4 0.92914 3.12811  10
  -8   4  -4 1.36891 5.28179   3
 -11  -5   4 29.4714 7.56635   8
  11  -5  -4 26.6610 4.96284   7
 -11   5   4 15.5065 5.87227   8
  11   5  -4 23.5598 5.92280   1
  11   5  -4 19.2217 4.12993   7
 -11   5   4 24.5445 6.21520  15
   9  -5  -4 133.212 9.18524   5
   9  -5  -4 144.496 7.62441  11
  -9  -5   4 133.937 10.7526  15
  -9   5   4 115.571 9.66856   8
   9   5  -4 126.177 7.38781   7
   9   5  -4 128.332 9.81250   1
  -9   5   4 136.062 9.62774  15
  -7  -5   4 15.2332 4.43309   2
   7  -5  -4 14.8819 2.96921  11
   7  -5  -4 15.7489 3.73834   5
  -7   5   4 12.3580 3.25609   2
   7   5  -4 13.6322 2.39695   9
  -7   5   4 17.9996 3.94062   8
   7   5  -4 13.3061 3.27977   1
   7   5  -4 12.1106 2.39114   7
  -7   5   4 14.7275 4.27003  15
   5  -5  -4 974.963 22.0193   4
  -5  -5   4 988.844 22.3922   4
   5  -5  -4 1029.36 24.6623   5
  -5  -5   4 1005.13 23.2035  14
   5  -5  -4 1015.53 21.9275  12
   5  -5  -4 1021.41 22.1257  11
  -5   5   4 1023.96 23.1954   6
   5   5  -4 1021.61 20.4283   7
   5   5  -4 1022.04 25.4475   1
  -5   5   4 1017.11 24.8102   2
   5   5  -4 983.773 21.6192   9
  -5   5   4 1003.03 22.5646   8
  -5   5   4 1037.95 24.5313  15
   3  -5  -4 416.190 13.5240   5
   3  -5  -4 389.554 11.0965  12
   3  -5  -4 386.741 11.0929  11
  -3  -5   4 414.306 12.5457   4
  -3  -5   4 394.366 12.3793  14
  -3  -5   4 400.499 8.96508  11
   3   5  -4 400.128 10.9839   9
   3   5  -4 410.868 12.9489   1
  -3   5   4 402.100 12.9424   2
  -3   5   4 420.358 11.9913  15
  -3   5   4 414.271 11.9465   6
   1  -5  -4 888.575 22.0098   5
  -1  -5   4 877.145 21.5777   4
   1  -5  -4 892.616 20.1920  12
  -1  -5   4 906.792 21.1666  14
  -1  -5   4 859.480 17.2754  11
  -1   5   4 894.936 20.9772   2
   1   5  -4 875.039 19.5399   3
  -1   5   4 900.598 20.1851   6
   1   5  -4 844.951 21.0353   1
  -1   5   4 860.911 17.7242  15
   1   5  -4 894.112 19.0611   9
  -1  -5  -4 1883.14 37.7851  12
   1  -5   4 1836.64 37.1113  14
   1  -5   4 1881.20 35.4987  10
  -1  -5  -4 1901.47 37.7366  16
   1  -5   4 1835.88 34.3236  11
  -1  -5  -4 1914.06 39.7365   5
  -1  -5  -4 1815.11 35.4980   3
   1  -5   4 1867.91 39.2346   4
  -1   5  -4 1835.63 37.0593   3
   1   5   4 1884.92 37.0097   6
   1   5   4 1847.87 36.5280  10
   1   5   4 1855.23 34.8507   7
  -1   5  -4 1879.45 37.7122   8
   3  -5   4 262.483 9.22162  11
   3  -5   4 250.516 9.71638  14
   3  -5   4 256.619 10.4715  10
  -3  -5  -4 267.787 10.8011  16
  -3  -5  -4 268.126 11.5573   3
  -3  -5  -4 272.713 11.6866  12
   3  -5   4 266.460 11.6448   4
  -3   5  -4 251.305 10.5441  16
  -3   5  -4 255.129 11.1396   8
   3   5   4 262.582 10.3822  10
  -3   5  -4 255.491 11.1056   3
   3   5   4 260.666 9.40414   7
   3   5   4 270.430 10.4984   6
  -5  -5  -4 662.547 21.8285  12
  -5  -5  -4 637.744 19.7781  16
  -5  -5  -4 651.534 21.8397   3
   5  -5   4 647.437 18.1242  11
   5  -5   4 652.725 21.0326   4
   5  -5   4 641.720 17.0709   7
  -5   5  -4 648.403 21.8501   3
   5   5   4 651.058 19.5537   6
   5   5   4 623.038 19.6955  10
  -5   5  -4 624.192 19.3700  16
   5   5   4 638.186 18.2571   7
  -5   5  -4 667.988 21.6323   8
   7  -5   4 154.573 8.89451   7
   7  -5   4 145.250 8.91584  11
   7  -5   4 156.449 10.4124   4
  -7  -5  -4 156.291 12.8251   3
  -7  -5  -4 147.244 11.7289  12
  -7   5  -4 138.647 11.3966   8
   7   5   4 127.428 8.83067   7
  -7   5  -4 147.213 12.0182   3
   7   5   4 144.200 9.82270  10
  10  -6  -4 144.118 8.04278  11
 -10  -6   4 129.273 12.0259   8
 -10  -6   4 136.021 11.4298  15
 -10   6   4 145.625 11.2485  15
  10   6  -4 141.654 11.0955   1
  10   6  -4 132.943 8.17161   7
 -10   6   4 151.727 11.3413   8
   8  -6  -4 485.878 17.2872   5
   8  -6  -4 484.729 15.0257  11
  -8  -6   4 486.335 18.6073  15
  -8  -6   4 462.753 18.8714   2
  -8   6   4 490.689 17.7987   8
  -8   6   4 482.667 17.8911  15
  -8   6   4 489.034 16.7403   2
   8   6  -4 481.667 14.1187   9
   8   6  -4 503.287 18.9025   1
   8   6  -4 461.001 14.1176   7
  -6  -6   4 70.4501 5.56900  14
   6  -6  -4 54.1740 6.26991   5
   6  -6  -4 55.1856 4.86737  11
  -6   6   4 65.1375 5.67154   2
  -6   6   4 69.4470 6.97678  15
  -6   6   4 58.1262 5.27624   8
   6   6  -4 57.7648 4.29734   9
  -6   6   4 66.3272 5.65258   6
   6   6  -4 56.9404 3.94988   7
   6   6  -4 56.2670 6.33009   1
   4  -6  -4 2324.77 46.7011   5
   4  -6  -4 2301.54 43.0253  12
  -4  -6   4 2317.13 45.8448  14
   4  -6  -4 2359.51 44.1647  11
  -4  -6   4 2351.64 45.9300   4
  -4   6   4 2305.35 44.9366   6
  -4   6   4 2348.78 45.4820  15
  -4   6   4 2270.42 46.5979   2
   4   6  -4 2287.90 40.8300   7
   4   6  -4 2344.66 43.8332   9
   4   6  -4 2382.63 47.1598   1
   2  -6  -4 20.7283 3.07073  11
   2  -6  -4 21.7319 3.34989  12
  -2  -6   4 19.7441 3.81858  14
  -2  -6   4 19.9266 2.53559  11
   2  -6  -4 22.3547 4.36324   5
  -2  -6   4 20.1838 3.62404   4
  -2   6   4 22.5539 2.89332  15
  -2   6   4 30.3057 3.65776   6
  -2   6   4 21.2269 3.46832   2
   2   6  -4 17.0646 2.99202   1
   2   6  -4 20.0076 2.80769   9
   0  -6   4 2818.29 54.1039  14
   0  -6  -4 2865.64 53.2527  12
   0  -6  -4 2803.60 53.6960  16
   0  -6   4 2891.54 56.0958   4
   0  -6   4 2820.11 50.2138  11
   0  -6  -4 2898.26 56.2529   5
   0   6   4 2896.32 52.5697  10
   0   6  -4 2887.33 53.7740   8
   0   6  -4 2887.24 51.8367   9
   0   6  -4 2698.09 52.4613   1
   0   6  -4 2907.43 52.4975   3
   0   6   4 2925.97 53.7768   6
   2  -6   4 53.7009 6.86264   4
  -2  -6  -4 47.7052 5.78288  12
  -2  -6  -4 34.7378 4.26355   3
  -2  -6  -4 36.9208 5.70104   5
   2  -6   4 43.8294 5.10870  14
   2  -6   4 38.1254 4.12360  11
  -2  -6  -4 39.8837 4.98095  16
  -2   6  -4 32.9210 4.71308   3
   2   6   4 36.3257 3.91241   7
   2   6   4 38.0784 4.21802  10
  -2   6  -4 36.5388 4.99682   8
   2   6   4 31.8316 4.32641   6
   4  -6   4 744.330 19.5191  11
  -4  -6  -4 786.502 22.2981  16
  -4  -6  -4 785.737 23.3975  12
   4  -6   4 762.002 23.4709   4
  -4  -6  -4 770.820 22.6246   3
  -4   6  -4 780.068 22.9699   8
   4   6   4 727.046 20.9723   6
   4   6   4 779.161 20.1655   7
   4   6   4 764.694 21.2525  10
  -4   6  -4 768.922 22.3315   3
   6  -6   4 169.237 8.56555   7
   6  -6   4 175.988 9.46222  11
  -6  -6  -4 177.461 12.1507  12
   6  -6   4 155.942 10.2647   4
  -6  -6  -4 151.895 11.6427   3
   6   6   4 159.046 9.07685   7
  -6   6  -4 159.638 11.4844   8
   6   6   4 125.917 10.3895  10
  -6   6  -4 161.666 11.3355   3
  -8  -6  -4 133.944 17.8180  12
  -8  -6  -4 115.814 12.2808   3
   8   6   4 145.226 9.61637   7
  -8   6  -4 142.066 14.9561   8
   9  -7  -4 234.520 12.6318   5
  -9  -7   4 218.704 13.3824  15
   9  -7  -4 234.779 10.7652  11
   9   7  -4 221.678 13.3272   1
  -9   7   4 234.039 13.4017  15
   9   7  -4 213.282 9.44779   9
   9   7  -4 215.879 9.78921   7
  -9   7   4 237.045 12.8238   8
   7  -7  -4 58.3733 6.02461  11
   7  -7  -4 54.8045 6.89772   5
  -7   7   4 47.4630 6.86567   8
  -7   7   4 55.7158 6.39578   2
  -7   7   4 52.0875 6.01167   6
   7   7  -4 49.4453 6.82715   1
  -7   7   4 51.1264 6.73936  15
   7   7  -4 52.3331 5.32383   9
   7   7  -4 45.3421 4.35207   7
  -5  -7   4 375.779 13.7255  14
   5  -7  -4 357.152 14.1626   5
   5  -7  -4 384.981 12.7939  11
  -5  -7   4 369.646 13.5075   4
   5  -7  -4 365.166 13.4954   4
   5   7  -4 375.951 12.2538   9
  -5   7   4 357.739 13.4349  15
  -5   7   4 382.473 13.4637   6
   5   7  -4 363.846 14.2720   1
   5   7  -4 357.036 10.1938   7
  -5   7   4 357.283 13.9348   2
   3  -7  -4 17.5409 3.09909  12
   3  -7  -4 17.3537 4.47829   5
  -3  -7   4 16.7638 4.09507   4
   3  -7  -4 18.9073 3.41309  11
   3   7  -4 13.9603 3.20258   1
  -3   7   4 17.2737 3.61017   2
  -3   7   4 25.9327 3.78530   6
   3   7  -4 12.7830 2.44856   9
  -3   7   4 15.4312 2.97226  15
   1  -7  -4 12.0477 3.83925   5
  -1  -7   4 8.47079 2.99961  14
   1  -7  -4 17.3058 3.25121  12
   1  -7  -4 13.0972 2.90703  11
  -1  -7   4 10.7095 3.36693   4
  -1  -7   4 10.8123 2.30638  11
   1   7  -4 15.3375 2.81131   9
   1   7  -4 10.2491 2.47874   1
  -1   7   4 10.9162 2.01758   9
  -1   7   4 9.97539 2.46757   6
  -1   7   4 13.3269 2.13793  15
   1  -7   4 84.0223 5.11672  11
  -1  -7  -4 81.3974 6.28274  12
   1  -7   4 86.9327 6.70101  14
   1  -7   4 72.9733 8.12342   4
  -1  -7  -4 72.2937 7.00093   5
  -1  -7  -4 72.4099 5.77597  16
  -1   7  -4 78.1913 5.74981   3
   1   7   4 79.0518 5.96354   6
  -1   7  -4 77.9591 5.20574   9
   1   7   4 76.1661 5.13613  10
  -1   7  -4 77.9612 5.72139   8
  -3  -7  -4 25.0028 5.08535  12
   3  -7   4 16.2292 3.35776  11
  -3  -7  -4 20.0987 5.18677   5
   3  -7   4 22.5675 3.96471  14
   3  -7   4 22.2333 5.57681   4
  -3  -7  -4 19.6017 4.11860  16
  -3   7  -4 22.6335 4.63793   8
  -3   7  -4 17.2030 3.74202   3
   3   7   4 15.9972 3.40375   6
   3   7   4 15.1410 2.99400  10
   3   7   4 19.4498 3.21513   7
  -5  -7  -4 73.2822 6.95080  16
  -5  -7  -4 53.9962 8.14407  12
   5  -7   4 60.4758 8.45104   4
   5  -7   4 60.8547 5.45247  11
   5   7   4 63.0862 6.33165   7
  -5   7  -4 56.8883 7.62996   8
   5   7   4 58.9331 6.79447   6
   7  -7   4 6.83369 3.64499  11
  -7  -7  -4 15.2930 6.14225  12
   7  -7   4 20.1041 5.20498   4
  -7   7  -4 11.2951 5.21659   8
   7   7   4 9.79196 3.74501   7
  10  -8  -4 84.1454 6.97606  11
 -10  -8   4 57.8954 8.82750   8
  10   8  -4 79.6324 9.59904   1
 -10   8   4 73.0394 8.89929   6
   8  -8  -4 164.090 10.6124   5
   8  -8  -4 169.161 9.48581  11
   8   8  -4 152.746 8.61454   9
  -8   8   4 194.341 11.8812  15
   8   8  -4 171.082 11.1667   1
  -8   8   4 173.732 10.5564   6
   8   8  -4 165.721 8.29273   7
  -6  -8   4 29.7279 5.09765  14
   6  -8  -4 33.3530 5.77113   5
   6  -8  -4 35.3331 5.21975  11
  -6   8   4 34.2521 5.35679   6
   6   8  -4 31.4060 4.32430   9
  -6   8   4 47.1573 6.39579  15
   6   8  -4 28.3622 3.43819   7
   6   8  -4 36.8771 5.92604   1
   4  -8  -4 248.620 10.5941  11
   4  -8  -4 234.009 11.7670   5
  -4  -8   4 252.436 12.1461   4
   4   8  -4 232.067 9.55263   9
  -4   8   4 235.897 10.5019  15
   4   8  -4 230.711 10.8623   1
  -4   8   4 239.440 10.8910   6
  -2  -8   4 14.6073 2.69334  11
  -2  -8   4 13.5829 4.21707   4
   2  -8  -4 16.9144 4.60313   5
   2  -8  -4 13.5799 3.13988  11
  -2   8   4 14.7025 2.20863   9
   2   8  -4 11.4497 2.71458   1
  -2   8   4 14.1047 2.76303  15
  -2   8   4 9.53788 3.01016   6
   2   8  -4 12.2014 2.61188   9
   0  -8   4 295.152 9.97685  11
   0  -8  -4 289.914 11.9270  16
   0  -8  -4 292.992 11.0831  12
   0  -8   4 304.203 12.8164  14
   0  -8  -4 291.151 13.5456   5
   0  -8   4 314.762 13.8757   4
   0   8   4 295.228 10.5379  10
   0   8  -4 324.421 11.2447   9
   0   8   4 317.838 12.3385   6
  -2  -8  -4 5.42810 3.48952  12
   2  -8   4 8.87355 5.16071   4
   2  -8   4 4.33475 2.46452  14
   2  -8   4 10.6556 2.60104  11
  -2  -8  -4 7.77277 4.08216   5
  -2  -8  -4 7.40307 2.65381  16
  -2   8  -4 8.79696 3.09256   8
  -2   8  -4 5.51759 2.28782   9
   2   8   4 4.21937 2.74108   6
  -4  -8  -4 351.898 17.1053   5
   4  -8   4 359.966 16.9925   4
   4  -8   4 346.372 12.9671  11
  -4  -8  -4 323.439 15.0485  12
  -4  -8  -4 344.161 14.7981  16
  -4   8  -4 368.491 15.7163   8
  -4   8  -4 353.419 12.4395   9
   4   8   4 359.907 14.6998   6
   4   8   4 353.520 12.9083   7
   6  -8   4 1.26712 3.88427   4
  -6  -8  -4 5.25802 5.15293  12
   6  -8   4 6.09574 2.75622  11
   6   8   4 10.2614 3.61247   7
  -6   8  -4 17.0755 5.07626   8
   9  -9  -4 26.2002 5.56527   5
   9  -9  -4 22.5405 4.47419  11
  -9   9   4 22.5491 5.79292   6
   9   9  -4 23.9931 5.96882   1
  -9   9   4 25.7609 5.78174  15
   9   9  -4 16.9002 4.01937   9
  -7  -9   4 84.4662 10.2367  14
   7  -9  -4 138.754 9.01723  11
   7  -9  -4 118.941 9.44828   5
   7   9  -4 115.465 9.48622   1
  -7   9   4 118.988 9.20999  15
  -7   9   4 120.314 9.50513   6
   7   9  -4 149.130 8.57553   9
   5  -9  -4 4.85445 3.25604  11
  -5  -9   4 -1.7465 2.85816  14
  -5  -9   4 2.42906 3.48312   4
   5  -9  -4 1.92267 3.09820   4
   5  -9  -4 -0.0278 3.46870   5
  -5   9   4 6.99335 3.24035  15
   5   9  -4 0.91055 2.63575   1
  -5   9   4 -1.0525 2.13462   6
   5   9  -4 -0.1234 1.93418   9
   3  -9  -4 52.1295 7.33025   5
   3  -9  -4 51.3204 6.14005  11
  -3  -9   4 56.6719 7.59409   4
   3   9  -4 36.2042 4.82108   1
  -3   9   4 38.1575 5.37851   6
   3   9  -4 45.9493 5.18820   9
  -3   9   4 50.9349 5.61009  15
   1  -9  -4 1.88986 4.02897   5
  -1  -9   4 11.5019 2.95933  11
  -1  -9   4 8.54986 3.39880  14
   1  -9  -4 12.9243 3.57258  11
  -1  -9   4 8.32349 4.75485   4
   1   9  -4 7.35808 2.39671   9
  -1   9   4 6.78738 2.07813   9
  -1   9   4 8.77845 3.35089   6
   1  -9   4 0.82477 2.44321  11
   1  -9   4 11.8612 5.50301   4
   1  -9   4 16.4816 4.44766  14
  -1  -9  -4 4.99410 2.01577  16
  -1  -9  -4 3.92567 4.22515   5
  -1   9  -4 5.80150 2.51464   9
  -1   9  -4 1.23322 2.34752   8
   1   9   4 2.53556 1.85974   6
   3  -9   4 44.1362 6.02841  14
  -3  -9  -4 50.6969 8.10056   5
   3  -9   4 42.8949 8.24949   4
   3  -9   4 51.5360 6.00405  11
  -3  -9  -4 51.1726 6.95741  12
   3   9   4 48.5040 6.51624   6
  -3   9  -4 51.1899 6.92741   8
  -3   9  -4 43.8157 5.13351   9
   5  -9   4 4.21868 2.97788  11
  -5  -9  -4 5.34579 3.43538   5
  -5  -9  -4 5.72399 4.80515  12
   5  -9   4 1.94133 4.44395   4
   5   9   4 2.74760 3.27674   6
  -5   9  -4 3.36927 2.68103   8
   5   9   4 -0.4394 2.47510   7
   8 -10  -4 137.350 9.53593  11
   8 -10  -4 156.219 10.7427   5
  -8  10   4 148.144 11.2169   6
   8  10  -4 151.431 11.4370   1
   8  10  -4 141.027 8.86249   9
  -8  10   4 158.026 11.2025  15
   6 -10  -4 565.327 20.4328   5
  -6 -10   4 591.173 20.8388  14
   6 -10  -4 636.057 20.1992  11
  -6  10   4 603.094 21.2480   6
   6  10  -4 612.962 19.0863   9
  -6  10   4 603.008 20.8755  15
   6  10  -4 601.356 21.0151   1
   4 -10  -4 35.7137 5.59414  11
  -4 -10   4 41.5940 7.23868   4
   4 -10  -4 31.8528 6.57604   5
   4 -10  -4 28.2840 5.62039   4
  -4 -10   4 41.1567 6.81101  14
  -4  10   4 28.7136 5.15270   6
   4  10  -4 43.5765 5.31772   9
  -4  10   4 36.7579 5.36315  15
  -2 -10   4 758.685 24.4173  14
   2 -10  -4 813.493 22.9462  11
   2 -10  -4 795.786 24.9796   5
  -2 -10   4 795.516 26.2609   4
   2  10  -4 780.824 21.9595   9
  -2  10   4 805.916 23.7572   6
   0 -10   4 -2.5966 2.23246  11
   0 -10  -4 -2.5662 2.26923  11
   0 -10   4 5.07989 3.43423  14
   0 -10  -4 3.02796 1.99430  16
   0 -10   4 -2.8214 4.27769   4
   0 -10  -4 -2.4238 4.01576   5
   0  10  -4 0.45085 2.04298   9
   0  10   4 0.86591 2.27337   6
   2 -10   4 430.410 17.0251  14
   2 -10   4 400.520 18.6312   4
  -2 -10  -4 401.492 18.0349   5
   2 -10   4 402.988 14.2670  11
  -2  10  -4 408.357 14.5470   9
  -2  10  -4 425.209 16.7703   8
   2  10   4 421.217 16.2782   6
   4 -10   4 10.4775 5.96270   4
  -4 -10  -4 4.00883 4.92394   5
   4 -10   4 9.47141 3.11181  11
   4  10   4 6.70974 3.73247   6
  -4  10  -4 13.2789 4.20909   8
   7 -11  -4 190.874 11.1842  11
   7 -11  -4 202.131 11.8968   5
  -7  11   4 210.257 12.2097  15
   7  11  -4 189.513 12.0744   1
   7  11  -4 178.698 9.86538   9
  -7  11   4 173.201 12.2399   6
  -5 -11   4 149.626 11.2566  14
   5 -11  -4 139.922 9.88598  11
  -5 -11   4 151.569 11.6781   4
   5 -11  -4 142.901 10.5685   5
   5 -11  -4 145.338 11.3245   4
   5  11  -4 139.968 9.16488   9
  -5  11   4 143.665 10.6211   6
  -5  11   4 162.377 10.1867  15
  -3 -11   4 294.704 14.8670  14
   3 -11  -4 289.292 14.8577   5
   3 -11  -4 345.091 16.8550   4
  -3 -11   4 286.860 15.9196   4
   3 -11  -4 291.871 13.6380  11
   3  11  -4 292.605 13.0820   9
  -3  11   4 313.109 14.5596   6
  -1 -11   4 231.351 14.8953   4
   1 -11  -4 251.140 14.3926   5
  -1 -11   4 258.127 13.9439  14
   1 -11  -4 243.416 12.3413  11
  -1  11   4 234.281 12.4601   6
   1  11  -4 230.449 11.3306   9
  -1 -11  -4 174.703 10.9608  11
  -1 -11  -4 170.162 12.5987   5
   1 -11   4 172.905 12.9926   4
   1 -11   4 156.954 8.91813  11
   1 -11   4 168.498 11.4823  14
  -1  11  -4 162.159 9.22769   9
   1  11   4 161.912 10.5395   6
   3 -11   4 193.833 14.6838   4
  -3 -11  -4 188.950 11.4537  11
  -3 -11  -4 179.961 13.8580   5
   3 -11   4 193.400 10.4100  11
  -3  11  -4 177.949 9.64207   9
  -3  11  -4 195.586 11.3211   8
   3  11   4 172.386 10.6949   6
   6 -12  -4 7.03746 4.11441   5
  -6 -12   4 6.12391 4.13233  14
   6 -12  -4 -3.2271 3.90721  11
  -6  12   4 6.94077 3.41439  15
   6  12  -4 -2.1944 2.51768   9
  -6  12   4 4.99114 4.32176   6
   4 -12  -4 195.639 13.3587   4
   4 -12  -4 169.397 11.1530  11
  -4 -12   4 177.994 13.6797   4
   4 -12  -4 162.312 11.4961   5
  -4 -12   4 159.034 11.4700  14
   4  12  -4 174.834 10.5793   9
  -4  12   4 154.324 11.0368   6
  -2 -12   4 21.6464 6.12357   4
   2 -12  -4 18.4425 6.43721   5
  -2 -12   4 24.0289 6.18212  14
   2 -12  -4 23.7565 5.54717  11
   2 -12  -4 40.8667 7.72004   4
   2  12  -4 22.0736 4.73972   9
  -2  12   4 20.3013 4.43167   6
   0 -12   4 219.658 12.8804  14
   0 -12  -4 217.629 12.0655  11
   0 -12   4 217.550 15.8468   4
   0 -12  -4 224.873 14.4374   5
   0  12   4 209.558 12.3427   6
   0  12  -4 222.942 11.5663   9
   2 -12   4 16.6479 7.47602   4
   2 -12   4 32.4433 6.62900  14
  -2 -12  -4 32.6405 5.78115  11
   2 -12   4 28.1702 5.51156  11
  -2 -12  -4 36.9791 7.89885   5
   2  12   4 30.2861 5.98390   6
  -2  12  -4 30.3838 4.92447   9
   3 -13  -4 32.1499 6.37044   4
   3 -13  -4 18.4271 5.69301  11
  -3 -13   4 23.8887 6.35883  14
  -3 -13   4 23.6925 6.85436   4
  -3  13   4 23.8009 5.61166   6
   3  13  -4 20.5352 4.93666   9
   1 -13  -4 14.8147 5.60551  11
   1 -13  -4 15.0348 6.90943   5
  -1 -13   4 15.6998 7.13213   4
  -1 -13   4 17.2528 5.31211  14
   1 -13  -4 35.7806 6.89250   4
  -1  13   4 15.7183 4.86599   6
   1  13  -4 10.1912 3.26473   9
 -12   0   5 3.70659 5.91311   8
 -12   0   5 1.89043 5.33232  15
  12   0  -5 -1.3028 2.55147   7
 -10   0   5 2.11644 4.95054  15
  10   0  -5 -0.3245 1.89690   7
  10   0  -5 3.28303 2.59367   1
 -10   0   5 -1.8234 2.62246   8
  -8   0   5 6.76588 4.03960  15
  -8   0   5 1.78674 3.12319   2
   8   0  -5 3.11271 2.27177   1
   8   0  -5 6.22940 1.99749   7
   6   0  -5 4.26660 1.72341   5
  -6   0   5 0.46438 1.04140  14
   6   0  -5 1.92300 1.99025  13
   6   0  -5 -0.4352 0.74037   7
  -6   0   5 2.74378 3.11546   2
  -6   0   5 -0.5790 2.38170  15
   6   0  -5 2.01552 1.65029   1
   4   0  -5 0.46080 1.43548  12
  -4   0   5 0.19835 0.57994   6
   4   0  -5 1.10130 1.34052   5
   4   0  -5 0.44850 0.45951  16
  -4   0   5 -2.0034 1.36340  15
  -4   0   5 1.84473 2.47635   2
  -4   0   5 0.66225 1.47657  14
  -2   0   5 2.79661 1.75926  14
   2   0  -5 1.01763 1.67769  12
   2   0  -5 -0.3656 1.33551   3
  -2   0   5 0.65775 2.10651   2
  -2   0   5 1.63127 0.71473   6
  -2   0   5 0.82892 0.93635   4
   2   0  -5 1.98085 1.15903  16
   2   0  -5 2.96255 1.40395   5
   0   0   5 1.43951 1.21752  10
   0   0   5 1.05393 1.29049  14
   0   0   5 4.51683 1.94720   2
   0   0   5 1.53817 0.95174   6
   0   0  -5 0.41815 1.51138  16
   0   0  -5 1.13820 2.13562   3
   0   0  -5 0.70253 1.82319  12
   0   0  -5 1.71302 1.08736   8
   0   0   5 1.48703 1.13466   4
   0   0   5 0.97086 0.50335   7
  -2   0  -5 3.19935 2.26540  12
   2   0   5 1.29712 0.82883   7
   2   0   5 0.78621 1.11344  14
  -2   0  -5 -1.4402 1.67278  16
  -2   0  -5 -0.2773 2.82320   3
   2   0   5 0.60382 1.70518   4
  -2   0  -5 12.9104 2.49085   8
   2   0   5 0.66021 1.46052  10
  -2   0  -5 -0.6146 1.17042  13
  -4   0  -5 0.07580 2.55121  16
   4   0   5 0.02844 1.21438  14
  -4   0  -5 2.99562 2.44131  12
   4   0   5 -1.4278 1.21314   4
  -4   0  -5 1.05210 2.28403   8
   4   0   5 -0.4396 1.16497   7
   4   0   5 0.46717 1.38494  10
  -4   0  -5 5.51135 3.15618   3
  -6   0  -5 -0.9178 3.15063  16
  -6   0  -5 -0.5116 3.16616   8
  -6   0  -5 0.26461 5.08439   3
  -6   0  -5 1.92493 3.22838  12
   6   0   5 -0.8403 2.61054  10
   6   0   5 -1.6462 1.76809   7
  -8   0  -5 3.34232 3.90834  12
   8   0   5 -2.7397 2.99526  10
   8   0   5 -1.4250 2.67798   7
  -8   0  -5 3.24881 6.62556   3
 -11  -1   5 403.378 19.7923   8
 -11  -1   5 398.728 17.8463  15
  11  -1  -5 423.179 15.7360   7
 -11   1   5 447.257 20.1510   8
  11   1  -5 413.237 16.7323   1
 -11   1   5 445.925 19.6657  15
  11   1  -5 413.381 15.6783   7
  -9  -1   5 41.0357 6.80847  15
  -9  -1   5 31.5819 6.02374   2
   9  -1  -5 41.9957 5.12112   1
   9  -1  -5 48.1424 5.06631   7
  -9  -1   5 42.5913 6.75829   8
  -9   1   5 41.0493 5.48652   2
  -9   1   5 53.2306 7.83917  15
   9   1  -5 45.8324 5.89763   1
  -9   1   5 49.0293 7.29583   8
   9   1  -5 37.1984 4.39191   7
   7  -1  -5 1409.51 30.3717   5
   7  -1  -5 1427.62 31.2595   1
  -7  -1   5 1448.75 33.5234  15
  -7  -1   5 1457.29 33.8865   2
  -7   1   5 1413.79 32.7004   2
   7   1  -5 1425.03 32.6688   1
   7   1  -5 1420.37 28.2961   7
  -7   1   5 1453.23 33.3525  15
   5  -1  -5 14.7373 3.02136   1
  -5  -1   5 21.4087 2.88629  14
  -5  -1   5 16.3355 3.47399   2
   5  -1  -5 15.6906 1.54595  11
  -5  -1   5 17.2709 3.40753  15
   5  -1  -5 14.5625 2.79917  12
   5  -1  -5 13.1269 2.57280   5
   5   1  -5 18.6450 3.30317   1
  -5   1   5 15.8255 2.17985  14
   5   1  -5 17.9840 1.77240   7
   5   1  -5 15.8615 1.55900   9
  -5   1   5 18.2960 3.56453  15
  -5   1   5 15.7304 3.72099   2
   5   1  -5 20.3680 2.46883   5
   5   1  -5 16.9087 2.73521  12
   5   1  -5 17.9781 3.29150  13
   3  -1  -5 1781.27 33.8043   3
  -3  -1   5 1821.78 33.9979  14
   3  -1  -5 1812.06 31.6743  16
  -3  -1   5 1851.69 37.3467   2
  -3  -1   5 1757.33 32.0485   4
   3  -1  -5 1758.38 30.8284  11
   3  -1  -5 1841.22 34.6365  12
   3  -1  -5 1814.57 34.2370   5
  -3   1   5 1814.24 31.9012   6
   3   1  -5 1870.26 31.9209  16
   3   1  -5 1859.34 34.1619  12
   3   1  -5 1826.01 32.1027   5
  -3   1   5 1837.71 36.5860   2
   3   1  -5 1817.91 34.5882   3
  -3   1   5 1749.71 34.1311  15
  -3   1   5 1850.43 33.7361  14
   1  -1  -5 239.145 8.46822  12
  -1  -1   5 236.545 7.75902   4
   1  -1  -5 230.410 7.95001   5
  -1  -1   5 251.851 8.20314  14
   1  -1  -5 248.219 8.42523   3
  -1  -1   5 240.317 7.66254  10
   1  -1  -5 242.442 7.48343  16
  -1  -1   5 243.579 9.05334   2
  -1   1   5 242.523 7.94992  10
   1   1  -5 228.576 6.59198   5
   1   1  -5 241.708 7.60975  16
   1   1  -5 236.041 8.61789   3
  -1   1   5 238.694 7.67346   4
  -1   1   5 230.289 6.31096  15
  -1   1   5 233.266 7.71380  14
   1   1  -5 232.901 7.83651  12
  -1   1   5 244.802 8.70042   2
  -1   1   5 235.115 6.81019   6
  -1  -1  -5 603.765 13.6533   8
   1  -1   5 621.661 15.7899  10
  -1  -1  -5 607.550 16.7948   3
  -1  -1  -5 614.780 15.5866  16
   1  -1   5 580.862 12.2376   7
   1  -1   5 620.933 15.2556  14
   1  -1   5 609.571 14.4149   2
  -1  -1  -5 599.638 16.0828  12
  -1  -1  -5 591.817 19.0804  13
   1  -1   5 613.016 16.1307   4
  -1   1  -5 614.953 17.0294   3
  -1   1  -5 602.176 17.5239  13
  -1   1  -5 613.434 15.5555  12
   1   1   5 603.159 14.5513   6
   1   1   5 592.935 12.8408   7
  -1   1  -5 586.979 14.7437   8
  -1   1  -5 600.719 15.2965  16
   1   1   5 620.963 16.0312  10
   1   1   5 626.548 15.1627  14
   1   1   5 621.294 15.9506   4
   1   1   5 590.949 13.6390   2
  -3  -1  -5 280.018 10.8634  16
   3  -1   5 291.885 9.77871  14
  -3  -1  -5 277.571 9.89808   8
  -3  -1  -5 293.807 11.6934  12
   3  -1   5 290.914 8.92877   7
   3  -1   5 280.272 11.3667  10
   3  -1   5 297.614 11.4543   4
  -3  -1  -5 319.306 13.5014   3
  -3   1  -5 292.367 11.0656  16
   3   1   5 299.025 11.3607   4
  -3   1  -5 287.397 10.9812  12
   3   1   5 297.308 9.85505  14
   3   1   5 305.758 11.8396  10
   3   1   5 291.528 9.18325   7
  -3   1  -5 304.302 13.0849   3
  -3   1  -5 276.153 13.5950  13
  -3   1  -5 294.396 10.8005   8
   5  -1   5 122.620 6.77763   7
   5  -1   5 122.622 8.76540  10
  -5  -1  -5 127.379 9.00284  12
  -5  -1  -5 115.437 8.17492  16
  -5  -1  -5 110.271 7.77552   8
   5  -1   5 114.642 7.78577   4
  -5  -1  -5 122.975 9.79770   3
  -5   1  -5 115.983 8.40420   8
   5   1   5 116.444 6.78838   7
   5   1   5 126.089 8.47859  10
  -5   1  -5 117.161 8.07994  16
  -5   1  -5 117.350 8.50507  12
  -5   1  -5 129.146 10.9156   3
   7  -1   5 61.4323 6.31500   7
  -7  -1  -5 58.3979 9.91387   3
   7  -1   5 66.3100 8.59307  10
  -7  -1  -5 57.9021 8.35988  12
  -7   1  -5 46.6363 8.83144   3
  -7   1  -5 61.1068 7.95927  12
  -7   1  -5 60.6902 8.10351   8
   7   1   5 52.2227 7.47059  10
   7   1   5 64.9148 6.73418   7
 -12  -2   5 265.207 17.5281   8
  12  -2  -5 272.296 13.3203   7
 -12  -2   5 249.258 15.5980  15
  12   2  -5 260.035 12.6356   7
  12   2  -5 280.684 14.4347   1
 -12   2   5 277.900 16.9494   8
 -12   2   5 277.011 15.7698  15
 -10  -2   5 642.204 24.4030   8
  10  -2  -5 702.805 20.1325   7
 -10  -2   5 681.448 23.4101  15
 -10   2   5 701.084 24.2773   8
 -10   2   5 665.882 23.5907  15
  10   2  -5 693.466 22.8910   1
  10   2  -5 684.702 19.5366   7
   8  -2  -5 867.019 21.7569   1
  -8  -2   5 850.116 24.8836  15
  -8  -2   5 835.865 24.4813   2
   8  -2  -5 877.904 22.7608   5
   8   2  -5 860.660 20.3346   7
  -8   2   5 897.902 24.9620   8
  -8   2   5 929.835 25.4020  15
  -8   2   5 862.859 23.4612   2
   8   2  -5 877.437 24.4501   1
   6  -2  -5 1736.09 35.2498   1
   6  -2  -5 1764.15 35.2633   5
  -6  -2   5 1772.57 33.0275  14
  -6  -2   5 1772.40 38.8553   2
   6  -2  -5 1722.50 31.3666  11
   6   2  -5 1719.18 31.8921   7
   6   2  -5 1727.75 31.3125   9
  -6   2   5 1789.06 37.1193  15
  -6   2   5 1755.09 37.1773   2
   6   2  -5 1744.15 37.2968   1
   6   2  -5 1695.37 39.5752  13
  -6   2   5 1711.36 31.4029  14
   4  -2  -5 2040.84 35.9045  11
   4  -2  -5 2066.05 38.9664  12
   4  -2  -5 2055.43 35.3557  16
  -4  -2   5 2084.73 42.5993   2
   4  -2  -5 2133.23 39.6458   5
  -4  -2   5 2068.35 38.5409  14
  -4  -2   5 2017.37 35.9261   4
   4   2  -5 2067.90 40.0492  13
  -4   2   5 2079.24 37.5865  14
   4   2  -5 2107.82 42.9034   1
   4   2  -5 2078.87 36.4219   9
  -4   2   5 2112.51 39.7698  15
   4   2  -5 2026.47 34.6207   7
   4   2  -5 2075.61 38.2244  12
   4   2  -5 1999.62 35.7822   5
  -4   2   5 2082.23 37.1105   6
  -4   2   5 2159.60 41.6795   2
   2  -2  -5 1670.57 30.4389  16
  -2  -2   5 1658.00 30.1759  10
  -2  -2   5 1648.61 32.0597  14
  -2  -2   5 1654.08 34.5552   2
   2  -2  -5 1596.11 30.9852   3
   2  -2  -5 1658.61 32.3908  12
   2  -2  -5 1623.22 32.2407   5
  -2  -2   5 1651.64 31.2012   4
  -2   2   5 1629.64 30.2276  15
   2   2  -5 1628.81 32.2886   3
   2   2  -5 1676.58 30.4741  16
   2   2  -5 1639.45 30.7710  12
  -2   2   5 1682.37 33.2168   2
  -2   2   5 1642.86 30.3158   6
  -2   2   5 1657.38 31.2526  14
   2   2  -5 1624.62 28.2891   5
   0  -2  -5 1685.93 33.3197   3
   0  -2  -5 1740.74 34.2294  12
   0  -2  -5 1590.06 29.1418   8
   0  -2  -5 1659.16 33.8853   5
   0  -2  -5 1690.68 32.7069  16
   0  -2   5 1708.58 33.8549   2
   0  -2   5 1706.09 32.5232  10
   0  -2   5 1679.95 32.9755  14
   0  -2   5 1702.84 33.6849   4
   0   2  -5 1668.88 31.9846  12
   0   2   5 1688.11 32.4058   2
   0   2  -5 1679.00 34.0798   3
   0   2  -5 1687.38 32.4753   8
   0   2  -5 1711.64 32.7498  16
   0   2   5 1666.02 31.8733   6
   0   2   5 1685.96 29.9179   7
   0   2   5 1750.82 33.5588  10
   0   2   5 1683.49 32.7361  14
   0   2  -5 1657.87 32.6283  13
   2  -2   5 648.133 18.0053   4
  -2  -2  -5 628.283 25.3118  13
   2  -2   5 638.025 13.9132   7
   2  -2   5 665.921 17.5192  10
  -2  -2  -5 618.424 14.5197   8
   2  -2   5 639.790 16.2047  14
  -2  -2  -5 667.662 18.7790   3
  -2  -2  -5 640.954 17.0720  16
  -2  -2  -5 670.240 18.3558  12
  -2   2  -5 646.199 16.4856  12
  -2   2  -5 625.497 16.8636   8
   2   2   5 646.651 17.6010  10
  -2   2  -5 633.668 16.9096  16
   2   2   5 629.863 16.0947  14
  -2   2  -5 652.220 18.8272   3
   2   2   5 638.263 14.7631   7
  -2   2  -5 620.020 19.1421  13
   2   2   5 663.041 16.5356   6
  -4  -2  -5 388.173 12.6566   8
  -4  -2  -5 420.702 16.8443   3
  -4  -2  -5 409.100 15.5086  12
  -4  -2  -5 407.107 14.3322  16
   4  -2   5 413.563 11.9929   7
   4  -2   5 402.347 15.0660  10
   4  -2   5 392.716 14.7813   4
   4   2   5 414.342 15.0581  10
  -4   2  -5 414.632 16.5993   3
   4   2   5 418.735 12.3424  14
  -4   2  -5 406.171 14.4889   8
  -4   2  -5 410.309 14.0028  12
  -4   2  -5 397.596 13.9614  16
   4   2   5 395.633 12.3646   7
  -6  -2  -5 250.698 13.5781  12
   6  -2   5 267.127 10.9183   7
  -6  -2  -5 247.566 12.4307  16
   6  -2   5 245.329 12.9737  10
   6  -2   5 256.089 12.7887   4
  -6  -2  -5 257.248 15.5713   3
  -6   2  -5 248.926 12.2235  12
   6   2   5 265.129 11.2913   7
  -6   2  -5 250.953 12.4675  16
   6   2   5 280.109 13.9139  10
  -6   2  -5 249.284 12.5788   8
  -6   2  -5 262.243 15.6120   3
  -8  -2  -5 86.1801 10.6183  12
  -8  -2  -5 104.326 13.1820   3
   8   2   5 80.9408 7.84713   7
   8   2   5 71.3114 8.70292  10
  -8   2  -5 68.8687 8.86093   8
  -8   2  -5 103.769 12.4455   3
 -11  -3   5 -3.1915 4.86071  15
 -11  -3   5 -1.2724 4.82225   8
  11  -3  -5 0.90503 2.76016   7
  11   3  -5 1.62901 2.28907   7
 -11   3   5 1.21702 4.91139  15
  11   3  -5 3.16073 3.26093   1
 -11   3   5 0.81132 4.64511   8
   9  -3  -5 302.287 12.7170   5
  -9  -3   5 319.741 15.1654  15
  -9  -3   5 296.840 14.0841   2
  -9   3   5 292.041 12.4129   2
   9   3  -5 305.459 14.0882   1
  -9   3   5 303.745 14.4423   8
   9   3  -5 295.248 11.0910   7
  -9   3   5 309.508 14.2461  15
   7  -3  -5 63.1733 5.55457   5
  -7  -3   5 60.3781 7.17424   2
  -7  -3   5 68.7945 7.12005  15
   7  -3  -5 60.1807 3.88006  11
  -7   3   5 73.2086 6.24617   2
   7   3  -5 56.4526 3.40204   9
  -7   3   5 64.4457 7.12909  15
   7   3  -5 58.1924 3.85068   7
  -7   3   5 60.4683 6.26396   8
   7   3  -5 67.4384 6.94915   1
   5  -3  -5 1306.84 28.9632   5
   5  -3  -5 1321.12 25.4980  11
   5  -3  -5 1365.87 27.9977  12
   5  -3  -5 1296.03 23.8018  16
  -5  -3   5 1383.56 32.4694   2
  -5  -3   5 1387.52 27.7428  14
  -5   3   5 1376.49 26.9536   6
   5   3  -5 1349.15 25.6534   9
  -5   3   5 1377.90 30.5147   2
  -5   3   5 1323.54 27.6172   8
   5   3  -5 1285.56 29.2543  13
   5   3  -5 1343.82 24.5066   7
  -5   3   5 1328.97 25.8780  14
   5   3  -5 1351.79 30.8843   1
  -5   3   5 1333.37 29.1609  15
   3  -3  -5 148.879 5.26498  11
  -3  -3   5 148.335 4.82250  10
   3  -3  -5 142.229 7.23925   5
  -3  -3   5 152.323 6.93760  14
   3  -3  -5 150.173 6.72436  12
  -3  -3   5 140.078 5.99478   4
  -3  -3   5 144.256 8.27071   2
   3  -3  -5 145.635 5.24361  16
  -3   3   5 139.299 6.13967  15
   3   3  -5 140.754 3.98349  13
   3   3  -5 154.754 5.43704   9
  -3   3   5 148.829 5.94556  14
   3   3  -5 143.664 5.42485  12
   3   3  -5 151.269 6.65472   3
  -3   3   5 143.995 7.37670   2
  -3   3   5 150.085 5.75855   6
   1  -3  -5 2093.02 40.1197  12
   1  -3  -5 2061.80 38.3812   3
   1  -3  -5 2095.20 40.8093   5
  -1  -3   5 2023.03 35.2382  11
   1  -3  -5 2101.31 38.8110  16
  -1  -3   5 2103.67 37.6421  10
  -1  -3   5 2112.06 40.0115  14
  -1  -3   5 2099.78 39.9949   4
   1   3  -5 2058.99 40.0074   3
  -1   3   5 2059.71 39.0257  14
   1   3  -5 2057.05 37.3713  12
  -1   3   5 2039.95 35.5748  15
  -1   3   5 2109.19 38.5083   6
  -1   3   5 2083.86 39.9038   2
   1   3  -5 2105.02 38.8014  16
   1   3  -5 2053.22 39.0359   8
   1  -3   5 45.6085 5.13191   4
   1  -3   5 39.4300 2.87744  11
  -1  -3  -5 46.0349 5.15154  12
  -1  -3  -5 39.0425 3.94777  16
   1  -3   5 46.4486 4.04001  14
  -1  -3  -5 43.7672 4.92026   3
   1  -3   5 43.0501 3.87351  10
   1  -3   5 42.7367 2.36113   7
   1   3   5 43.7429 3.86425   6
   1   3   5 40.4282 3.97360  10
   1   3   5 45.1370 3.93452  14
  -1   3  -5 41.3285 5.09757   3
  -1   3  -5 37.2591 3.43771  12
  -1   3  -5 42.4851 4.53383   8
   1   3   5 33.5858 2.78948   2
  -1   3  -5 45.2965 3.92343  16
   1   3   5 39.8218 2.86904   7
  -3  -3  -5 982.895 24.4782  16
  -3  -3  -5 989.982 26.4479   3
   3  -3   5 994.335 22.8430  14
   3  -3   5 993.050 25.6378   4
   3  -3   5 1024.75 22.2451  11
  -3  -3  -5 997.629 25.7786  12
   3  -3   5 1030.52 25.3317  10
   3  -3   5 999.075 21.0670   7
   3   3   5 1035.98 25.6372  10
   3   3   5 1022.06 22.3885   7
  -3   3  -5 1027.30 26.7230   3
   3   3   5 1027.49 24.0256   6
  -3   3  -5 975.191 24.4944  16
  -3   3  -5 941.185 22.6816  12
  -3   3  -5 1015.74 25.0251   8
  -5  -3  -5 103.139 8.80477  12
  -5  -3  -5 95.7952 7.81011  16
   5  -3   5 96.2740 6.08189   7
   5  -3   5 101.148 8.14622  10
   5  -3   5 103.230 8.34855   4
  -5  -3  -5 93.0526 10.1721   3
  -5   3  -5 80.8200 7.20314  16
   5   3   5 97.7450 7.94144  10
   5   3   5 89.6523 6.31523   7
  -5   3  -5 104.971 7.45590  12
  -5   3  -5 82.7432 8.43490   8
  -5   3  -5 122.522 11.3197   3
  -7  -3  -5 332.813 18.6258   3
  -7  -3  -5 340.476 16.9177  12
   7  -3   5 315.627 14.8384   4
   7   3   5 306.806 13.2829   7
   7   3   5 298.784 15.2339  10
  -7   3  -5 333.182 18.1639   3
  -7   3  -5 313.018 15.8074   8
 -12  -4   5 6.52704 6.76875   8
  12  -4  -5 15.8623 4.53465   7
  12   4  -5 6.07511 4.08268   7
 -12   4   5 20.3216 6.64142  15
  12   4  -5 11.1162 4.99083   1
 -12   4   5 18.5701 6.47167   8
 -10  -4   5 66.6076 9.44585  15
 -10   4   5 55.6261 7.80281   8
  10   4  -5 54.3761 7.37394   1
  10   4  -5 53.8977 5.67255   7
 -10   4   5 70.9636 9.19302  15
  -8  -4   5 3.13878 3.77537   2
   8  -4  -5 -0.2829 1.56742  11
  -8  -4   5 4.60301 3.76394  15
   8  -4  -5 3.33396 2.82612   5
  -8   4   5 1.99198 3.26812   8
   8   4  -5 4.12403 1.73957   7
  -8   4   5 6.70674 2.83269   2
   8   4  -5 2.40273 2.31373   1
  -8   4   5 1.53485 3.46998  15
   6  -4  -5 111.658 5.52837  11
   6  -4  -5 115.381 6.16035  12
  -6  -4   5 119.233 8.53291   2
  -6  -4   5 115.056 6.24543  14
   6  -4  -5 107.685 6.79196   5
  -6   4   5 100.107 7.15293   2
   6   4  -5 118.220 7.54745   1
   6   4  -5 110.018 4.70419   7
  -6   4   5 100.778 6.35387   8
  -6   4   5 108.139 7.55010  15
  -6   4   5 116.148 6.29545   6
   6   4  -5 116.037 5.25415   9
   4  -4  -5 183.558 8.31829   5
   4  -4  -5 153.082 6.84509  12
   4  -4  -5 147.807 5.95510  11
  -4  -4   5 159.714 7.50927  14
  -4  -4   5 144.488 6.45702   4
   4  -4  -5 142.029 5.36561  16
  -4   4   5 164.320 7.71069  15
  -4   4   5 143.614 5.69345   8
   4   4  -5 156.343 8.22625   1
  -4   4   5 153.449 8.07589   2
  -4   4   5 157.591 6.48382   6
   4   4  -5 148.849 5.91755   9
   4   4  -5 132.993 4.99326   7
  -2  -4   5 134.362 7.04678  14
  -2  -4   5 130.128 6.88516   4
   2  -4  -5 131.271 7.34426   5
  -2  -4   5 135.245 4.63626  10
   2  -4  -5 132.649 6.68871  12
  -2  -4   5 122.819 3.65862  11
   2  -4  -5 135.376 5.86800  16
   2  -4  -5 120.319 4.73103   3
   2   4  -5 125.895 6.18277   3
   2   4  -5 118.783 4.51212  12
  -2   4   5 140.077 6.20468   6
  -2   4   5 132.723 5.25430  15
  -2   4   5 134.059 6.92828   2
  -2   4   5 127.169 5.81440  14
   0  -4  -5 834.844 19.2404   3
   0  -4   5 868.786 18.9337  10
   0  -4  -5 835.935 20.1226  16
   0  -4  -5 861.977 21.1456  12
   0  -4   5 883.830 21.8212   4
   0  -4   5 870.808 20.8054  14
   0  -4  -5 846.723 21.6798   5
   0  -4   5 833.680 17.1006  11
   0   4  -5 882.379 21.0754   3
   0   4  -5 832.690 20.0731  16
   0   4   5 839.462 19.9867   2
   0   4   5 858.807 19.8671   6
   0   4   5 866.344 20.0856  14
   0   4  -5 860.098 17.6207  12
   0   4  -5 858.737 20.2689   8
   0   4   5 867.177 20.3861  10
   2  -4   5 381.779 12.2461  14
   2  -4   5 402.548 13.0736  10
   2  -4   5 408.285 11.2181  11
  -2  -4  -5 378.447 13.0195  16
   2  -4   5 377.736 14.1020   4
  -2  -4  -5 404.423 14.2227  12
  -2  -4  -5 385.291 13.5624   3
   2   4   5 398.103 13.3136  10
  -2   4  -5 373.409 12.9059  16
  -2   4  -5 400.282 14.1861   3
   2   4   5 397.265 12.8900   6
   2   4   5 388.161 11.1686   7
  -2   4  -5 389.626 13.3417   8
   4  -4   5 362.960 14.3436  10
  -4  -4  -5 362.845 15.8594   3
   4  -4   5 361.470 14.8101   4
  -4  -4  -5 378.121 15.5031  12
  -4  -4  -5 372.218 14.1107  16
   4  -4   5 341.234 10.9494   7
   4  -4   5 374.805 12.3007  11
  -4   4  -5 362.258 15.6145   3
   4   4   5 364.674 12.2454   7
  -4   4  -5 334.917 13.5032  16
  -4   4  -5 359.398 14.5954   8
   4   4   5 364.992 13.4085   6
   4   4   5 372.700 14.2859  10
  -6  -4  -5 313.768 16.1847  12
  -6  -4  -5 336.508 17.6003   3
   6  -4   5 347.444 15.5215   4
   6   4   5 320.111 15.0198  10
   6   4   5 329.445 13.0931   7
  -6   4  -5 340.130 15.9723   8
  -6   4  -5 344.830 16.5558   3
 -11  -5   5 170.591 13.3764  15
  11  -5  -5 201.093 10.9946   7
 -11  -5   5 194.111 14.4853   8
 -11   5   5 165.227 12.8853  15
 -11   5   5 205.834 13.5303   8
  11   5  -5 190.839 12.8582   1
   9  -5  -5 21.0314 3.57757  11
  -9  -5   5 12.3302 5.42814  15
   9  -5  -5 17.2127 4.55109   5
   9   5  -5 19.2488 5.11296   1
   9   5  -5 14.9177 2.92626   7
  -9   5   5 21.8093 5.32544   8
  -9   5   5 14.9542 3.60951   2
  -9   5   5 22.5477 5.96964  15
  -7  -5   5 280.872 14.4273   2
   7  -5  -5 280.716 9.79725  11
  -7  -5   5 248.974 10.2872  14
   7  -5  -5 275.640 11.8785   5
   7   5  -5 252.018 8.59294   7
   7   5  -5 304.517 13.5399   1
   7   5  -5 286.689 9.49040   9
  -7   5   5 273.615 12.0677   2
  -7   5   5 287.840 12.5487  15
  -7   5   5 257.022 11.0606   8
  -5  -5   5 2.87304 2.03549   4
   5  -5  -5 1.65321 1.48378  11
   5  -5  -5 6.39021 3.30380   5
   5  -5  -5 -0.0160 1.68038  12
  -5  -5   5 0.98719 2.08091  14
  -5   5   5 3.91826 2.72040  15
  -5   5   5 5.62964 2.42574   2
  -5   5   5 2.24571 1.58129   8
   5   5  -5 0.45653 0.90757   7
   5   5  -5 1.74719 1.89968   1
   5   5  -5 2.42026 1.37914   9
  -5   5   5 2.43852 1.85568   6
   3  -5  -5 399.675 11.5447  11
   3  -5  -5 410.353 12.3230  12
   3  -5  -5 403.517 13.9561   5
  -3  -5   5 393.344 12.7468   4
   3  -5  -5 399.245 11.3427  16
  -3  -5   5 409.062 13.3777  14
   3   5  -5 399.326 13.7911   1
   3   5  -5 403.832 11.4898   9
  -3   5   5 408.501 11.9710  15
  -3   5   5 419.240 12.2831   6
  -3   5   5 416.979 13.7919   2
  -1  -5   5 111.741 7.30322   4
   1  -5  -5 102.746 5.87173  16
   1  -5  -5 106.773 6.55437  12
  -1  -5   5 124.150 7.18974  14
   1  -5  -5 102.747 7.16089   5
   1  -5  -5 105.001 4.71952   3
  -1  -5   5 113.948 4.35040  11
  -1   5   5 108.736 6.05981   6
  -1   5   5 114.181 6.31058   2
   1   5  -5 108.642 6.34186   3
   1  -5   5 516.088 16.9351   4
  -1  -5  -5 518.744 15.6512  16
   1  -5   5 510.402 12.6638  11
   1  -5   5 511.349 15.5233  14
  -1  -5  -5 531.104 16.3613  12
  -1  -5  -5 514.138 17.1753   5
   1  -5   5 516.608 14.2621  10
  -1  -5  -5 519.565 14.6470   3
  -1   5  -5 521.583 15.6759   8
  -1   5  -5 519.762 15.9589   3
   1   5   5 528.318 15.3407   6
   1   5   5 529.570 13.3423   7
   1   5   5 512.173 15.2618  10
  -1   5  -5 520.471 15.5272  16
   3  -5   5 213.020 9.44185  14
   3  -5   5 210.897 9.94887  10
   3  -5   5 232.465 8.93385  11
   3  -5   5 212.998 11.4351   4
  -3  -5  -5 207.847 10.1993  16
  -3  -5  -5 219.758 11.2212  12
  -3  -5  -5 220.757 11.1669   3
  -3   5  -5 216.127 11.1861   3
  -3   5  -5 204.284 9.80894  16
   3   5   5 227.608 10.4813  10
   3   5   5 204.454 9.59473   6
  -3   5  -5 210.731 10.6899   8
   3   5   5 198.715 8.49367   7
  -5  -5  -5 233.647 13.5812  12
   5  -5   5 229.946 10.3071  11
   5  -5   5 236.182 12.9598   4
  -5  -5  -5 237.376 13.9007   3
  -5  -5  -5 224.875 11.8144  16
   5   5   5 204.300 11.4032  10
  -5   5  -5 213.200 11.3343  16
  -5   5  -5 255.067 13.7085   3
   5   5   5 234.418 10.5078   7
  -5   5  -5 235.222 12.8105   8
   7  -5   5 30.7165 5.89548   4
  -7  -5  -5 20.0655 7.04609  12
  -7  -5  -5 20.7462 7.36773   3
  -7   5  -5 8.88872 5.55436   3
  -7   5  -5 23.9093 6.26533   8
   7   5   5 16.6731 4.61886  10
   7   5   5 18.6293 4.21477   7
  10  -6  -5 -0.7740 1.48317  11
 -10  -6   5 12.2606 6.05198  15
  10  -6  -5 1.56133 3.72745   5
 -10   6   5 1.09614 3.91635   8
 -10   6   5 5.37168 4.29376  15
  10   6  -5 0.41078 3.32817   1
   8  -6  -5 75.3232 5.81165  11
   8  -6  -5 93.6859 7.85864   5
  -8  -6   5 76.9316 8.98470   2
   8   6  -5 78.5733 5.34853   9
   8   6  -5 53.0718 5.77146   7
  -8   6   5 88.4945 8.78241  15
  -8   6   5 83.9915 7.14773   2
   8   6  -5 85.1603 9.01370   1
  -8   6   5 85.4033 7.21267   6
  -8   6   5 88.6531 7.53891   8
  -6  -6   5 2.52719 2.54039  14
   6  -6  -5 1.05523 2.14413  11
   6  -6  -5 5.57726 3.22478   5
   6   6  -5 1.84024 2.28851   1
  -6   6   5 2.30915 2.47729   2
  -6   6   5 3.38904 2.23234   6
   6   6  -5 -0.0156 1.55768   9
  -6   6   5 1.82730 2.84477  15
  -4  -6   5 70.8116 5.82143   4
   4  -6  -5 69.0790 5.05064  11
  -4  -6   5 68.4764 6.10624  14
   4  -6  -5 63.3200 4.66393  12
   4  -6  -5 69.5264 6.70575   5
  -4   6   5 69.0998 5.99411   2
  -4   6   5 67.6554 5.00108   6
  -4   6   5 65.1536 5.36515  15
   4   6  -5 68.2075 5.84154   1
   4   6  -5 64.5729 4.34968   9
  -2  -6   5 435.835 14.7466  14
  -2  -6   5 442.441 14.7428   4
   2  -6  -5 424.332 12.7374  11
   2  -6  -5 429.211 15.3791   5
   2  -6  -5 452.086 13.5923  12
   2  -6  -5 419.427 12.9889  16
  -2   6   5 454.537 13.8722   6
   2   6  -5 439.131 14.3123   1
  -2   6   5 427.616 11.6167  15
   2   6  -5 443.428 12.7817   9
  -2   6   5 445.650 14.6217   2
   0  -6   5 113.063 8.43741   4
   0  -6  -5 102.378 6.53474  16
   0  -6   5 117.418 5.15700  11
   0  -6  -5 99.3883 6.92953  12
   0  -6  -5 103.232 7.97875   5
   0  -6   5 112.561 7.49190  14
   0   6  -5 100.030 6.50825   3
   0   6   5 100.943 6.21691   2
   0   6   5 115.738 6.47230  10
   0   6   5 118.283 6.89000   6
   0   6  -5 105.511 6.65851   8
   2  -6   5 563.361 17.0778  14
   2  -6   5 555.440 16.1109  10
  -2  -6  -5 528.897 17.2980  16
   2  -6   5 557.301 14.6794  11
   2  -6   5 552.337 18.9175   4
  -2  -6  -5 547.791 18.1775  12
  -2  -6  -5 534.661 19.1358   5
  -2   6  -5 561.131 17.9320   8
  -2   6  -5 563.870 17.6028   3
   2   6   5 559.798 15.1168   7
   2   6   5 554.526 16.9322  10
   2   6   5 558.346 17.0503   6
   4  -6   5 316.728 14.9711   4
  -4  -6  -5 296.345 14.3134  12
  -4  -6  -5 284.375 13.2410  16
  -4  -6  -5 279.580 13.7402   3
   4  -6   5 318.799 11.5187  11
  -4   6  -5 311.073 14.2602   8
  -4   6  -5 312.053 14.3722   3
   4   6   5 284.424 12.7080  10
   4   6   5 292.500 11.2940   7
   4   6   5 304.682 13.0571   6
   6  -6   5 129.626 10.2468   4
  -6  -6  -5 132.288 11.8167   3
  -6  -6  -5 113.279 10.8751  12
   6  -6   5 121.615 8.22795  11
   6   6   5 124.611 9.31818  10
   6   6   5 114.861 8.10728   7
  -6   6  -5 122.847 10.7470   3
  -6   6  -5 118.366 10.3950   8
   9  -7  -5 0.54698 2.48418  11
  -9  -7   5 3.90196 4.40136  15
   9  -7  -5 -0.9392 3.14177   5
  -9   7   5 -1.2573 3.01834   6
  -9   7   5 4.49969 2.20045   2
   9   7  -5 -1.1043 2.99584   1
  -9   7   5 5.31666 4.07720  15
   9   7  -5 1.18805 1.86093   9
   7  -7  -5 496.228 15.2624  11
  -7  -7   5 448.800 15.8348  14
  -7  -7   5 443.202 20.1184   2
   7  -7  -5 473.520 17.4683   5
   7   7  -5 520.257 18.9016   1
  -7   7   5 457.892 17.1903   2
   7   7  -5 448.695 14.2887   9
  -7   7   5 477.952 17.4324  15
  -7   7   5 453.114 15.9026   6
   5  -7  -5 112.064 6.94225  11
  -5  -7   5 100.571 7.17227   4
   5  -7  -5 115.436 8.90170   5
  -5  -7   5 109.522 7.82296  14
   5  -7  -5 107.363 6.03403  12
  -5   7   5 99.0938 6.90756   6
  -5   7   5 99.1984 7.06193  15
   5   7  -5 113.067 8.00353   1
   5   7  -5 91.8303 5.95992   9
  -5   7   5 101.868 7.56856   2
   3  -7  -5 1013.11 23.4767  11
  -3  -7   5 963.081 25.2910   4
   3  -7  -5 965.386 22.5776  12
   3  -7  -5 961.695 26.1018   5
  -3  -7   5 964.760 25.1618  14
   3   7  -5 951.075 24.4829   1
   3   7  -5 970.993 23.0849   9
  -3   7   5 1003.83 24.4034   6
  -3   7   5 1016.05 26.0630   2
  -3   7   5 972.568 22.6739  15
   1  -7  -5 20.7058 3.63852  16
   1  -7  -5 21.8649 4.25182  12
  -1  -7   5 23.2224 5.20691   4
  -1  -7   5 23.0418 2.69778  11
   1  -7  -5 16.5318 4.49612   5
  -1  -7   5 23.9659 4.44968  14
   1   7  -5 22.9439 3.39640   9
   1   7  -5 20.9014 3.33170   3
   1   7  -5 19.0089 3.39787   1
  -1   7   5 24.9083 4.08736   6
   1  -7   5 429.384 12.3373  11
  -1  -7  -5 418.178 14.9893  16
   1  -7   5 431.475 16.5447   4
  -1  -7  -5 436.158 15.3638  12
   1  -7   5 422.745 15.2413  14
  -1  -7  -5 428.984 16.9781   5
  -1   7  -5 439.611 15.3677   8
  -1   7  -5 425.800 14.1724   3
   1   7   5 422.886 14.8203   6
   1   7   5 426.697 14.1874  10
  -3  -7  -5 62.9013 8.03301  12
   3  -7   5 65.5019 8.69119   4
  -3  -7  -5 49.9368 7.50557   5
  -3  -7  -5 62.9986 7.05211  16
   3  -7   5 57.4268 6.38616  14
   3  -7   5 59.5958 5.31002  11
  -3   7  -5 55.3663 7.01458   8
   3   7   5 55.4988 6.36623   6
   3   7   5 56.9503 5.41830   7
  -3   7  -5 43.5437 5.81677   3
   3   7   5 52.0813 5.83483  10
   5  -7   5 142.434 8.60023  11
  -5  -7  -5 146.160 11.5455  12
   5  -7   5 154.406 10.7217   4
   5   7   5 140.322 9.33799   6
  -5   7  -5 146.024 10.7887   8
   5   7   5 155.479 8.95595   7
  10  -8  -5 196.922 9.81770  11
  10  -8  -5 177.991 11.1752   5
 -10   8   5 189.605 12.8425  15
  10   8  -5 188.982 12.5767   1
 -10   8   5 178.668 11.8553   6
   8  -8  -5 773.555 21.6441  11
  -8  -8   5 736.707 28.1186   2
   8  -8  -5 820.869 25.1182   5
  -8   8   5 764.051 23.8413   6
   8   8  -5 794.865 26.3511   1
  -8   8   5 792.432 25.0004  15
   8   8  -5 736.527 20.6749   9
  -6  -8   5 470.565 17.3577  14
   6  -8  -5 488.783 18.1226   5
   6  -8  -5 484.014 15.8735  11
  -6   8   5 476.018 17.9080   2
   6   8  -5 495.435 18.0229   1
   6   8  -5 485.736 15.4976   9
  -6   8   5 487.163 17.2629  15
  -6   8   5 472.515 16.9053   6
   4  -8  -5 626.464 20.6393   5
  -4  -8   5 598.277 19.7512   4
   4  -8  -5 641.523 18.3493  11
  -4  -8   5 639.404 20.3018  14
   4   8  -5 615.030 17.7646   9
  -4   8   5 602.597 20.0774   2
  -4   8   5 661.719 18.5599  15
   4   8  -5 593.378 19.0728   1
  -4   8   5 616.301 19.0906   6
   2  -8  -5 871.413 21.4184  12
   2  -8  -5 853.627 25.4935   5
   2  -8  -5 881.508 22.5945  11
  -2  -8   5 893.186 24.5368  14
  -2  -8   5 886.102 25.3197   4
   2   8  -5 849.393 21.9204   9
   2   8  -5 795.708 21.6785   1
  -2   8   5 892.578 23.3986   6
   0  -8   5 136.093 6.51796  11
   0  -8  -5 145.245 8.61038  16
   0  -8  -5 128.852 8.22492  12
   0  -8   5 133.974 10.2594   4
   0  -8  -5 139.504 9.62334   5
   0  -8   5 148.086 9.47205  14
   0   8   5 146.105 8.66452   6
   0   8   5 139.482 7.61618  10
   0   8  -5 133.822 7.28305   9
   2  -8   5 355.062 16.8053   4
  -2  -8  -5 366.457 14.8923  12
  -2  -8  -5 336.441 16.4091   5
  -2  -8  -5 350.286 14.6051  16
   2  -8   5 341.359 14.1390  14
   2  -8   5 340.115 11.7952  11
  -2   8  -5 352.517 12.5208   9
  -2   8  -5 357.043 14.6195   8
   2   8   5 342.975 14.1380   6
   2   8   5 318.100 12.6326  10
  -4  -8  -5 142.198 10.9954  12
  -4  -8  -5 149.752 11.8359   5
   4  -8   5 135.295 11.4524   4
   4  -8   5 132.373 7.73744  11
   4   8   5 137.083 9.04991   6
  -4   8  -5 138.923 10.1954   8
   4   8   5 135.298 8.31680   7
  -4   8  -5 131.840 7.86045   9
  -6  -8  -5 20.4579 6.10074   5
  -6  -8  -5 17.9723 6.75112  12
   6  -8   5 24.9083 4.40651  11
   6  -8   5 28.2469 6.07893   4
  -6   8  -5 29.3657 6.62914   8
   6   8   5 22.1659 4.67498   7
  -9  -9   5 428.049 19.0334  15
   9  -9  -5 459.732 18.5789   5
   9  -9  -5 452.039 16.2174  11
  -9   9   5 415.551 18.0480   6
   9   9  -5 431.275 19.5551   1
  -9   9   5 465.743 18.9981  15
   9   9  -5 435.842 15.2445   9
   7  -9  -5 182.011 11.4459   5
   7  -9  -5 195.589 10.3765  11
  -7  -9   5 169.525 11.0103  14
  -7   9   5 180.477 11.1741   6
   7   9  -5 181.611 11.8957   1
   7   9  -5 185.796 9.46679   9
  -7   9   5 162.813 10.6631  15
   5  -9  -5 481.797 16.3963  11
  -5  -9   5 445.753 17.3105   4
   5  -9  -5 499.163 18.8840   5
  -5  -9   5 469.830 17.9489  14
   5  -9  -5 436.421 16.8052   4
   5   9  -5 462.270 17.2951   1
  -5   9   5 465.304 16.6465  15
  -5   9   5 462.676 17.2553   6
   5   9  -5 464.801 15.6746   9
  -3  -9   5 232.088 13.0513   4
   3  -9  -5 226.518 13.1059   5
  -3  -9   5 213.156 12.1236  14
   3  -9  -5 231.036 10.4931  11
   3   9  -5 228.387 10.3690   9
  -3   9   5 220.611 11.1675   6
  -3   9   5 241.125 10.1703  15
   1  -9  -5 565.990 18.5286  16
  -1  -9   5 619.573 21.9430   4
   1  -9  -5 567.071 20.8650   5
   1  -9  -5 567.897 18.1026  11
  -1  -9   5 597.129 20.4699  14
  -1   9   5 560.257 18.5438   6
   1   9  -5 552.475 17.3544   9
  -1   9   5 563.472 17.1059  10
   1  -9   5 0.00575 2.03211  11
   1  -9   5 -0.6076 3.26507  14
   1  -9   5 -5.6560 4.05935   4
  -1  -9  -5 1.33892 3.19919  12
  -1  -9  -5 -6.6945 3.45886   5
  -1  -9  -5 3.29303 2.63735  16
  -1   9  -5 0.93965 2.47168   8
  -1   9  -5 0.03652 2.01406   9
   1   9   5 -1.0763 2.22161   6
   3  -9   5 463.469 18.2697  14
  -3  -9  -5 483.217 21.1099   5
   3  -9   5 453.375 15.0508  11
   3  -9   5 467.481 19.6635   4
  -3  -9  -5 441.738 17.7678  12
   3   9   5 463.497 17.9374   6
  -3   9  -5 464.039 15.7403   9
  -3   9  -5 502.867 18.8988   8
  -5  -9  -5 14.8545 5.83825   5
  -5  -9  -5 13.1247 6.02061  12
   5  -9   5 17.1050 6.04183   4
   5  -9   5 19.7207 3.91816  11
   5   9   5 14.4629 4.54461   6
  -5   9  -5 13.6479 4.60098   8
   8 -10  -5 22.0474 5.58779   5
   8 -10  -5 26.2706 5.06862  11
  -8 -10   5 31.1023 8.26000   2
   8  10  -5 27.8682 6.38447   1
   8  10  -5 19.6855 4.27668   9
  -8  10   5 29.8807 6.14418   6
  -8  10   5 37.5174 6.36961  15
  -6 -10   5 27.4326 6.06629  14
   6 -10  -5 22.0115 5.83037   5
   6 -10  -5 15.7264 3.94802  11
   6  10  -5 15.6866 4.76274   1
   6  10  -5 14.3300 3.72623   9
  -6  10   5 12.5760 3.86565   6
  -6  10   5 18.5070 4.52344  15
  -4 -10   5 3.52286 3.80424  14
   4 -10  -5 6.79291 4.58315   5
   4 -10  -5 -0.1336 3.16382  11
  -4 -10   5 -7.1102 3.51829   4
   4  10  -5 -0.3585 1.41040   9
  -4  10   5 1.44594 2.26309  15
  -4  10   5 2.80411 3.18966   6
   2 -10  -5 72.4574 9.18238   5
  -2 -10   5 71.2559 8.14423  14
  -2 -10   5 72.9591 9.04132   4
   2 -10  -5 75.9690 7.69350  11
  -2  10   5 65.4789 7.32669   6
   2  10  -5 62.2388 6.26837   9
   0 -10  -5 14.9710 5.91343   5
   0 -10   5 9.48441 5.93634   4
   0 -10  -5 10.2575 3.78168  11
   0 -10   5 18.6080 5.14391  14
   0  10  -5 19.3664 3.99110   9
   0  10   5 10.8292 3.67222   6
   2 -10   5 65.2771 9.97485   4
   2 -10   5 69.1893 6.66783  11
  -2 -10  -5 68.3415 9.80502   5
   2 -10   5 67.5015 8.23822  14
   2  10   5 62.6911 7.20443   6
  -2  10  -5 74.5062 8.42657   8
  -2  10  -5 58.1466 6.11630   9
   4 -10   5 0.25095 5.19760   4
  -4 -10  -5 4.93182 5.02486   5
   4 -10   5 11.4730 3.71811  11
  -4  10  -5 10.7159 4.15964   8
   4  10   5 3.06758 3.55033   6
   7 -11  -5 9.20801 4.70187   5
   7 -11  -5 3.91527 3.09438  11
  -7 -11   5 8.10184 4.90873  14
  -7  11   5 5.89879 4.29574   6
   7  11  -5 12.9937 5.01672   1
  -7  11   5 15.7723 3.98818  15
   7  11  -5 7.99008 2.88790   9
   5 -11  -5 301.214 15.5556   5
  -5 -11   5 320.758 16.3927  14
   5 -11  -5 327.625 14.5807  11
   5  11  -5 343.191 14.3855   9
  -5  11   5 335.041 14.4029  15
  -5  11   5 307.152 15.1283   6
   3 -11  -5 114.985 9.00572  11
   3 -11  -5 79.8250 9.67981   5
  -3 -11   5 93.6542 10.1514  14
  -3 -11   5 97.4419 11.2364   4
   3  11  -5 88.8190 7.76270   9
  -3  11   5 92.6416 8.38144   6
  -1 -11   5 106.621 9.75173  14
   1 -11  -5 116.039 9.12569  11
  -1 -11   5 118.671 10.7842   4
   1 -11  -5 120.837 12.1802   5
  -1  11   5 108.489 8.87109   6
   1  11  -5 97.1408 7.84907   9
  -1 -11  -5 22.4763 7.16483   5
   1 -11   5 38.6821 7.97033   4
   1 -11   5 50.9852 7.84692  14
  -1 -11  -5 37.7237 6.22336  11
  -1  11  -5 27.6831 4.50953   9
   1  11   5 30.9155 5.37751   6
  -3 -11  -5 9.09371 5.90828   5
   3 -11   5 3.57458 5.95919   4
  -3 -11  -5 6.82835 3.90852  11
  -3  11  -5 3.76039 3.17706   9
   3  11   5 1.55166 3.25920   6
  -4 -12   5 204.438 13.8967  14
  -4 -12   5 184.386 13.0061   4
   4 -12  -5 197.293 13.2753   5
   4 -12  -5 211.556 12.4409  11
   4 -12  -5 215.818 13.8584   4
  -4  12   5 211.012 12.8741   6
   4  12  -5 209.990 11.6546   9
   2 -12  -5 82.9933 8.73355  11
   2 -12  -5 55.9653 9.03202   5
  -2 -12   5 74.8322 10.8632   4
  -2 -12   5 88.7691 10.1151  14
  -2  12   5 81.9266 8.93253   6
   2  12  -5 66.0780 7.37027   9
   0 -12  -5 323.863 15.0762  11
   0 -12   5 348.642 17.1558  14
   0 -12   5 344.929 19.1338   4
   0 -12  -5 336.067 17.1305   5
   0  12  -5 324.051 14.2428   9
   0  12   5 320.179 15.3561   6
  12   0  -6 61.2868 6.82351   7
 -12   0   6 68.6763 10.4677   8
 -12   0   6 72.5452 10.4491  15
 -10   0   6 954.421 28.8895  15
 -10   0   6 985.230 29.6753   8
  10   0  -6 920.296 26.1766   1
   8   0  -6 1142.99 26.6756   5
   8   0  -6 1138.25 28.6571   1
  -8   0   6 1147.83 30.2826  15
  -8   0   6 1168.32 30.3237   2
   8   0  -6 1124.84 24.4014   7
   6   0  -6 2697.10 57.8046  13
   6   0  -6 2667.56 50.7208  12
  -6   0   6 2741.13 53.6231  15
  -6   0   6 2723.77 48.5611  14
   6   0  -6 2724.70 49.8309   5
   6   0  -6 2704.34 53.6666   1
  -6   0   6 2797.39 55.7092   2
   4   0  -6 2071.23 39.9178  12
  -4   0   6 2051.56 40.5295  15
  -4   0   6 2135.32 39.4542  14
   4   0  -6 2139.85 38.8744   5
  -4   0   6 2110.49 43.4957   2
   4   0  -6 2119.93 36.1930  16
   2   0  -6 6857.28 116.224   5
  -2   0   6 7065.12 117.363  10
   2   0  -6 7147.81 118.307  12
  -2   0   6 7094.15 120.075   2
  -2   0   6 7048.03 116.512   4
  -2   0   6 6973.86 117.616  14
  -2   0   6 6873.34 114.080   6
   2   0  -6 6924.89 118.146   3
   2   0  -6 7149.45 116.228  16
   0   0  -6 193.605 7.92522  16
   0   0  -6 183.158 9.25653  13
   0   0  -6 183.072 6.77192   8
   0   0   6 199.408 8.17980   4
   0   0   6 200.476 6.82898   6
   0   0  -6 199.138 8.49445  12
   0   0   6 192.041 7.92804  10
   0   0   6 193.395 8.01909  14
   0   0  -6 198.960 9.20804   3
   0   0   6 191.720 7.81464   2
   2   0   6 3601.27 62.7039   7
   2   0   6 3721.53 65.8755  14
  -2   0  -6 3689.82 67.3899  16
  -2   0  -6 3697.37 69.9739   3
   2   0   6 3667.93 68.3770  10
  -2   0  -6 3477.15 73.1821  13
  -2   0  -6 3734.92 68.0261  12
   2   0   6 3613.21 67.7629   4
  -4   0  -6 26.4652 5.05669  16
   4   0   6 32.3067 3.95586   7
  -4   0  -6 32.5128 4.83103   8
  -4   0  -6 25.7817 5.49609   3
   4   0   6 32.8258 5.38399   4
  -4   0  -6 37.3179 5.87077  12
   4   0   6 20.2324 4.17109  10
   6   0   6 474.819 18.9933   7
   6   0   6 459.597 19.4143  10
  -6   0  -6 499.199 19.6146  12
  -6   0  -6 520.408 22.6596   3
 -11  -1   6 3.07091 5.73059  15
  11  -1  -6 1.26756 2.53606   7
 -11  -1   6 4.53535 4.89314   8
  11   1  -6 4.01517 3.29114   1
 -11   1   6 1.50061 5.24539  15
 -11   1   6 12.3506 5.62822   8
  11   1  -6 0.75859 2.15979   7
   9  -1  -6 466.940 13.9399   7
   9  -1  -6 434.112 15.5345   1
  -9  -1   6 435.438 18.2724  15
  -9  -1   6 425.958 17.1112   2
  -9   1   6 433.344 17.9233  15
   9   1  -6 443.095 13.4758   7
  -9   1   6 447.498 17.6911   8
   9   1  -6 444.940 16.8127   1
  -9   1   6 442.812 16.6109   2
  -7  -1   6 295.700 13.6020   2
  -7  -1   6 296.018 12.9542  15
   7  -1  -6 287.145 10.5845   5
   7  -1  -6 287.525 11.4681   1
  -7   1   6 297.936 12.8170  15
  -7   1   6 290.590 12.6798   2
   7   1  -6 273.272 8.43081   7
   7   1  -6 293.306 12.1412   1
   5  -1  -6 139.247 6.56417   5
   5  -1  -6 140.004 6.79382  12
  -5  -1   6 133.325 6.26759  14
  -5  -1   6 124.481 8.07486   2
  -5   1   6 131.630 7.41818  15
   5   1  -6 135.281 5.38226   5
   5   1  -6 121.137 6.12966  12
   5   1  -6 127.831 4.37844   9
   5   1  -6 122.146 7.99752   1
  -5   1   6 122.574 4.69535   6
  -5   1   6 129.399 8.33969   2
  -5   1   6 129.855 5.72793  14
   5   1  -6 141.786 8.08577  13
  -3  -1   6 1699.87 36.6919   2
  -3  -1   6 1725.07 32.1157   4
   3  -1  -6 1724.52 33.7033   5
   3  -1  -6 1769.46 34.6186  12
  -3  -1   6 1768.86 34.0820  14
   3  -1  -6 1726.58 33.6617   3
   3  -1  -6 1706.35 30.0964  11
   3  -1  -6 1746.66 31.5600  16
  -3   1   6 1791.52 33.7262  14
   3   1  -6 1709.72 33.6619  12
  -3   1   6 1725.20 36.3731   2
  -3   1   6 1743.67 31.1930   6
   3   1  -6 1756.08 34.4814   3
  -3   1   6 1700.24 33.3830  15
   3   1  -6 1711.38 31.4415   5
   3   1  -6 1771.56 31.7521  16
  -1  -1   6 29.5085 4.11469   2
   1  -1  -6 27.1642 4.14721  12
  -1  -1   6 34.7503 4.09232   4
   1  -1  -6 34.7809 3.38705  16
  -1  -1   6 30.0704 4.00244  14
  -1  -1   6 26.3056 3.12343  10
   1  -1  -6 38.3682 4.44919   3
   1  -1  -6 34.1457 4.08794   5
   1   1  -6 32.8362 4.36587   3
   1   1  -6 31.6523 3.41630  16
  -1   1   6 28.0041 3.66249  14
  -1   1   6 34.3649 3.81804   4
  -1   1   6 29.2810 2.60699   6
   1   1  -6 29.1465 2.61704   5
  -1   1   6 30.2387 4.03242   2
  -1   1   6 33.1309 2.41102  15
  -1   1   6 30.7944 3.57069  10
   1   1  -6 26.6634 3.68052  12
  -1  -1  -6 409.678 11.0719   8
  -1  -1  -6 406.475 14.3366   3
   1  -1   6 425.063 13.3661  10
  -1  -1  -6 424.822 13.0147  16
  -1  -1  -6 444.438 14.2075  12
   1  -1   6 401.456 11.8189   2
   1  -1   6 441.064 13.9508   4
   1  -1   6 426.952 12.8207  14
  -1  -1  -6 404.307 16.1863  13
  -1   1  -6 399.710 14.8165  13
   1   1   6 432.064 13.5953   4
  -1   1  -6 437.040 12.5182   8
   1   1   6 442.881 12.9426  14
  -1   1  -6 428.351 13.3362  12
  -1   1  -6 418.425 13.0228  16
   1   1   6 454.248 12.4274   6
  -1   1  -6 415.787 14.4970   3
   1   1   6 437.825 13.4355   2
   1   1   6 441.239 13.9444  10
   1   1   6 424.059 10.2328   7
  -3  -1  -6 280.369 12.1471  12
  -3  -1  -6 258.645 9.71285   8
   3  -1   6 273.244 11.8794  10
  -3  -1  -6 262.826 11.0937  16
   3  -1   6 254.496 10.0006   7
   3  -1   6 263.425 9.86754  14
  -3  -1  -6 273.414 13.4405   3
   3  -1   6 263.952 11.8240   4
  -3   1  -6 284.919 11.1374   8
  -3   1  -6 265.653 11.4425  16
  -3   1  -6 279.865 13.5181   3
   3   1   6 266.257 11.7725   4
  -3   1  -6 282.751 11.6332  12
   3   1   6 265.253 11.7445  10
   3   1   6 290.386 10.4764  14
   3   1   6 267.287 8.98675   7
  -5  -1  -6 5.69878 3.61386  12
  -5  -1  -6 8.44115 5.34833   3
   5  -1   6 6.75538 3.43428  10
  -5  -1  -6 1.60776 3.27650  16
   5  -1   6 5.54394 3.13505   4
   5   1   6 2.74425 2.04431   7
  -5   1  -6 4.74679 5.50069   3
   5   1   6 3.30778 2.29618  10
  -5   1  -6 -1.5173 2.75928  12
  -5   1  -6 3.82901 3.16779   8
  -5   1  -6 6.86955 3.83811  16
  -7  -1  -6 102.791 12.3477   3
  -7  -1  -6 144.684 11.3176  12
   7  -1   6 124.758 10.6355  10
   7   1   6 114.290 10.1345  10
  -7   1  -6 127.024 10.5761  12
  -7   1  -6 140.727 13.5315   3
  -7   1  -6 105.662 9.45199   8
  12  -2  -6 78.8250 7.78244   7
 -12  -2   6 73.3495 10.7994   8
 -12  -2   6 65.3157 9.75934  15
 -12   2   6 79.6666 10.7805  15
 -12   2   6 74.8674 10.3513   8
  12   2  -6 65.8600 8.42200   1
 -10  -2   6 88.1124 10.1723  15
  10  -2  -6 82.5164 6.40404   7
 -10  -2   6 65.7922 8.82359   8
 -10   2   6 77.3701 9.60675   8
  10   2  -6 77.6313 8.57299   1
  10   2  -6 66.5751 5.57901   7
 -10   2   6 86.6484 9.96939  15
  -8  -2   6 550.289 19.7802   2
  -8  -2   6 547.850 19.6035  15
   8  -2  -6 573.237 17.3748   5
   8  -2  -6 550.527 16.8559   1
  -8   2   6 581.303 18.8288   8
  -8   2   6 570.924 19.3338  15
  -8   2   6 540.005 18.5167   2
   8   2  -6 517.399 14.0540   7
   8   2  -6 552.516 18.9073   1
  -6  -2   6 1054.34 22.8449  14
  -6  -2   6 1052.91 27.9790   2
   6  -2  -6 1100.46 24.9638   5
   6  -2  -6 1043.85 24.2922  12
   6  -2  -6 1077.63 25.9185   1
  -6   2   6 1017.81 21.6256   6
  -6   2   6 1061.39 26.8524   2
  -6   2   6 1050.07 21.7455  14
   6   2  -6 1033.50 27.4136  13
  -6   2   6 1070.88 25.9943  15
   6   2  -6 1077.08 27.2467   1
   6   2  -6 1045.23 20.6307   9
   4  -2  -6 607.758 12.9350  16
   4  -2  -6 603.617 12.8701  11
   4  -2  -6 635.231 16.4578  12
  -4  -2   6 638.467 19.0902   2
  -4  -2   6 632.916 16.1372  14
   4  -2  -6 638.109 16.5133   5
  -4  -2   6 599.275 13.4963   4
  -4   2   6 600.136 15.9839  15
  -4   2   6 627.689 18.2494   2
  -4   2   6 640.739 15.2653  14
   4   2  -6 605.537 13.5142   9
   4   2  -6 611.770 12.7078   5
   4   2  -6 629.582 15.3993  12
  -4   2   6 628.041 14.1152   6
  -2  -2   6 454.118 12.4560   4
   2  -2  -6 445.502 11.6666  16
  -2  -2   6 458.898 14.9565   2
   2  -2  -6 453.328 13.5260  12
   2  -2  -6 433.569 12.3506   3
   2  -2  -6 458.161 13.3338   5
  -2  -2   6 462.653 13.3348  14
  -2  -2   6 465.749 11.9232  10
  -2   2   6 466.274 12.7265  14
  -2   2   6 453.896 13.8513   2
   2   2  -6 465.099 12.0854  16
  -2   2   6 439.345 11.3061   6
   2   2  -6 448.247 13.5319   3
   2   2  -6 442.236 12.1537  12
  -2   2   6 437.641 11.0298  15
   0  -2   6 87.6725 5.84844   2
   0  -2   6 90.9777 6.03892  14
   0  -2   6 99.1348 6.22255   4
   0  -2  -6 90.6048 5.52066  16
   0  -2  -6 92.9777 6.36967   3
   0  -2   6 91.1385 5.36291  10
   0  -2  -6 94.4765 6.47422  12
   0  -2  -6 92.4172 6.04325   5
   0   2  -6 108.593 6.98284   3
   0   2   6 90.4664 5.02396   6
   0   2  -6 87.1245 5.25983  13
   0   2   6 86.5193 5.50126  14
   0   2  -6 93.6576 5.34177   8
   0   2   6 85.2100 3.63870   7
   0   2   6 99.7675 5.91774  10
   0   2  -6 93.4039 5.62282  16
   0   2   6 96.8457 5.36516   2
   0   2  -6 81.4529 5.10495  12
  -2  -2  -6 14.4967 3.85582  12
  -2  -2  -6 7.70206 2.99060  16
   2  -2   6 16.6191 3.76359   4
   2  -2   6 11.5447 3.10018  14
  -2  -2  -6 8.83740 3.81061   3
   2  -2   6 12.1747 3.02762  10
  -2   2  -6 22.2304 4.76580   3
   2   2   6 11.3152 2.76445   6
   2   2   6 17.6413 3.22463  14
   2   2   6 8.12213 1.83841   7
  -2   2  -6 11.6331 3.04042  12
  -2   2  -6 9.19879 2.68868   8
   2   2   6 16.4195 3.36083  10
  -2   2  -6 13.8186 3.41983  16
   4  -2   6 140.186 9.38046   4
   4  -2   6 124.345 8.91319  10
  -4  -2  -6 138.317 11.1023   3
  -4  -2  -6 146.887 9.90167  12
  -4  -2  -6 139.396 9.20815  16
  -4   2  -6 163.592 11.4487   3
  -4   2  -6 159.192 9.40631   8
  -4   2  -6 142.843 9.09322  12
   4   2   6 130.423 8.97225  10
   4   2   6 134.951 7.33249  14
   4   2   6 145.184 7.21597   7
  -4   2  -6 139.126 8.99183  16
  -6  -2  -6 2.82825 3.91056  12
  -6  -2  -6 2.69308 5.45403   3
   6  -2   6 4.31751 3.20428   4
   6  -2   6 -3.0122 1.61135  10
  -6   2  -6 1.00050 3.13234  12
   6   2   6 0.98650 2.46831   7
   6   2   6 -1.5588 2.94011  10
  -6   2  -6 4.17472 5.63484   3
  -6   2  -6 0.80799 3.59574   8
  11  -3  -6 81.8749 6.71554   7
 -11  -3   6 86.7905 10.8460  15
 -11  -3   6 90.6390 11.2625   8
 -11   3   6 77.6184 9.75461   8
 -11   3   6 88.6856 10.7400  15
  11   3  -6 77.3896 8.69871   1
  -9  -3   6 3.89269 4.52958  15
   9  -3  -6 4.29318 2.89593   5
  -9  -3   6 0.78658 3.84618   2
   9   3  -6 1.70517 2.72436   1
  -9   3   6 4.24773 4.30451  15
  -9   3   6 0.74217 1.95159   2
  -9   3   6 2.94350 3.55659   8
  -7  -3   6 94.7696 5.68268  14
  -7  -3   6 98.6899 8.74799   2
   7  -3  -6 103.259 6.96878   5
  -7  -3   6 97.2032 7.99506  15
   7  -3  -6 78.4667 5.49359   1
  -7   3   6 95.1825 7.56803   2
   7   3  -6 104.229 7.47032   1
  -7   3   6 106.812 7.19017   8
  -7   3   6 100.060 7.90221  15
  -7   3   6 100.391 5.75307   6
   7   3  -6 88.9331 4.39801   9
  -5  -3   6 429.475 16.0595   2
   5  -3  -6 415.837 10.5543  11
   5  -3  -6 428.514 13.0537  12
  -5  -3   6 426.930 13.0164  14
   5  -3  -6 443.771 14.2106   5
  -5   3   6 408.048 13.6226  15
   5   3  -6 413.280 10.9129   9
  -5   3   6 428.330 14.9342   2
   5   3  -6 448.382 15.5996   1
  -5   3   6 429.133 11.8543  14
  -5   3   6 438.591 11.8788   6
  -3  -3   6 15.9850 2.15901  10
   3  -3  -6 14.2689 3.11133  12
   3  -3  -6 13.5788 2.18013  16
   3  -3  -6 10.5248 2.06613   3
   3  -3  -6 7.46455 3.05000   5
   3  -3  -6 8.98348 1.66086  11
  -3  -3   6 8.55528 3.09375  14
  -3  -3   6 15.0162 3.80914   2
  -3  -3   6 10.2688 2.58592   4
  -3   3   6 12.2403 2.13593   6
  -3   3   6 13.7361 3.32452   2
   3   3  -6 9.76210 2.07716  12
  -3   3   6 5.60098 2.00393  15
  -3   3   6 11.1767 2.37128  14
   3   3  -6 12.2605 2.68664   3
   1  -3  -6 583.237 16.4203  12
  -1  -3   6 570.609 16.0671  14
  -1  -3   6 587.408 17.5294   2
  -1  -3   6 583.595 16.0840   4
   1  -3  -6 574.967 16.6054   5
  -1  -3   6 571.564 14.2948  10
   1  -3  -6 569.675 14.9706  16
   1  -3  -6 553.265 14.9196   3
  -1   3   6 567.226 15.3171  14
  -1   3   6 573.108 15.7550  10
   1   3  -6 574.185 14.9945  16
   1   3  -6 567.270 16.3322   3
  -1   3   6 560.750 14.4354   6
  -1   3   6 546.490 15.5223   2
   1   3  -6 556.792 14.0607  12
   1  -3   6 11.0811 2.61491  10
  -1  -3  -6 14.7749 3.96156  12
  -1  -3  -6 10.4843 3.82309   3
   1  -3   6 8.98385 2.80157   4
   1  -3   6 12.3728 2.72350   2
   1  -3   6 12.2297 3.26679  14
  -1  -3  -6 11.0728 2.85284  16
  -1   3  -6 13.0657 3.04668  12
   1   3   6 10.9766 2.69168  10
   1   3   6 13.5303 2.80700   6
   1   3   6 6.19116 1.63072   2
  -1   3  -6 15.7090 3.00851  16
  -1   3  -6 9.18674 3.59885   3
   1   3   6 23.0888 3.67034  14
  -1   3  -6 13.7532 3.13227   8
   1   3   6 14.5322 2.15594   7
  -3  -3  -6 1.37479 2.65221  16
   3  -3   6 4.84774 2.51587  14
   3  -3   6 0.98091 1.60295  10
  -3  -3  -6 -0.8800 2.98354  12
  -3  -3  -6 2.70473 3.70335   3
   3  -3   6 0.72622 2.88694   4
  -3   3  -6 1.41948 2.63868  16
  -3   3  -6 8.49280 4.07925   3
   3   3   6 0.40964 1.39489   7
   3   3   6 3.57885 2.28266   6
  -3   3  -6 -1.3665 2.51137  12
   3   3   6 0.31870 1.57838  14
   3   3   6 4.00036 2.15384  10
  -3   3  -6 0.50025 2.37385   8
  -5  -3  -6 43.4055 7.98215   3
  -5  -3  -6 52.0277 7.91291  12
   5  -3   6 40.3637 6.32544   4
   5  -3   6 48.7420 7.06956  10
  -5  -3  -6 40.8661 6.41442  16
  -5   3  -6 39.2969 5.74104  16
  -5   3  -6 49.4185 7.63727   3
   5   3   6 43.9930 4.94233   7
   5   3   6 40.1789 6.35835  10
  -5   3  -6 45.6789 6.95862   8
  -7  -3  -6 41.6094 7.67394  12
  -7  -3  -6 25.2281 7.54461   3
   7  -3   6 43.1543 6.61630   4
   7   3   6 43.6537 7.24381  10
   7   3   6 39.8576 5.55263   7
  -7   3  -6 32.7921 6.60731   8
  -7   3  -6 31.7279 7.75591   3
 -12  -4   6 295.954 17.2363  15
  12  -4  -6 327.484 14.3782   7
 -12   4   6 302.238 20.3210  15
 -12   4   6 320.567 17.3932   8
  12   4  -6 314.516 16.4785   1
  10  -4  -6 84.3054 7.76309   5
 -10  -4   6 86.0829 10.7185  15
 -10   4   6 87.6980 9.56615   8
 -10   4   6 73.0762 9.30261  15
  10   4  -6 67.5602 8.82917   1
  -8  -4   6 354.031 15.7676  15
   8  -4  -6 337.784 13.7106   5
  -8  -4   6 355.471 16.5300   2
  -8   4   6 344.099 14.4753   2
  -8   4   6 343.192 12.2771   6
   8   4  -6 337.276 15.0298   1
  -8   4   6 331.848 13.7485   8
  -8   4   6 360.652 15.1531  15
   6  -4  -6 186.002 8.45266  12
  -6  -4   6 180.984 8.45504  14
   6  -4  -6 175.372 6.84031  11
   6  -4  -6 196.548 9.32642   5
  -6  -4   6 181.793 11.5070   2
   6   4  -6 189.254 9.98682   1
  -6   4   6 184.427 7.93169   6
  -6   4   6 175.557 8.30055   8
  -6   4   6 180.836 9.84326   2
  -6   4   6 186.722 9.62356  15
   6   4  -6 181.088 6.96494   9
  -4  -4   6 884.058 20.2964   4
   4  -4  -6 869.288 18.8947  16
   4  -4  -6 870.957 21.3868  12
  -4  -4   6 934.356 26.0336   2
  -4  -4   6 915.002 22.2061  14
   4  -4  -6 940.625 23.3945   5
   4  -4  -6 869.691 19.1666  11
  -4   4   6 873.574 20.9185  15
  -4   4   6 907.002 20.5559  14
   4   4  -6 907.318 19.7624   9
  -4   4   6 897.346 20.4881   6
   4   4  -6 919.783 24.8438   1
  -4   4   6 895.595 23.2859   2
  -2  -4   6 1.68238 1.02848  10
  -2  -4   6 0.61591 2.60495  14
   2  -4  -6 0.48260 1.16901   3
   2  -4  -6 1.16814 1.39990  16
  -2  -4   6 3.06958 2.65681   4
   2  -4  -6 0.14551 2.28258  12
   2  -4  -6 2.64349 2.64305   5
   2   4  -6 1.14875 1.26786  12
   2   4  -6 2.14390 2.03910   3
  -2   4   6 3.19061 1.70258   6
  -2   4   6 4.07561 2.21886   2
  -2   4   6 -0.1224 1.49285  14
  -2   4   6 0.59789 1.26154  15
   0  -4  -6 2219.71 44.9357  12
   0  -4   6 2202.56 39.2168  11
   0  -4   6 2288.21 45.3404   4
   0  -4  -6 2184.84 45.5561   5
   0  -4  -6 2141.40 42.6322   3
   0  -4   6 2274.04 44.2260  14
   0  -4  -6 2201.66 43.5200  16
   0  -4   6 2211.29 42.0897  10
   0   4  -6 2181.59 44.5662   3
   0   4  -6 2160.64 40.4740  12
   0   4  -6 2186.65 43.4180  16
   0   4   6 2245.71 43.4420  14
   0   4   6 2209.81 42.8546   6
   0   4  -6 2205.31 43.7694   8
   0   4   6 2187.40 42.8659   2
   0   4   6 2196.37 44.1284  10
   2  -4   6 7.10055 2.12220  11
  -2  -4  -6 4.18517 2.72119  12
   2  -4   6 7.51625 2.74324  10
  -2  -4  -6 9.97607 3.94858   3
   2  -4   6 10.6429 3.83619   4
  -2  -4  -6 5.38389 2.81293  16
   2  -4   6 8.58211 3.23949  14
   2   4   6 0.59190 1.41340  10
  -2   4  -6 1.76511 2.36437   8
   2   4   6 6.26234 2.60592   6
  -2   4  -6 1.38796 3.09904   3
   2   4   6 5.63784 1.80418   7
  -4  -4  -6 1028.63 27.9734  16
   4  -4   6 994.052 27.8866  10
  -4  -4  -6 1082.76 30.0624  12
  -4  -4  -6 1043.81 29.6972   3
   4  -4   6 1068.68 29.4511   4
   4   4   6 1043.94 28.6827  10
   4   4   6 1059.90 24.7294   7
  -4   4  -6 982.218 27.1978  16
  -4   4  -6 1016.80 27.7948   8
  -4   4  -6 1049.76 29.8996   3
   6  -4   6 40.1129 6.93328   4
  -6  -4  -6 41.1209 8.38295   3
  -6  -4  -6 39.3547 7.75825  12
   6   4   6 53.5507 5.82154   7
  -6   4  -6 40.6378 7.17427   8
  -6   4  -6 42.9275 8.12702   3
   6   4   6 31.5788 5.74869  10
 -11  -5   6 185.302 14.2691  15
 -11  -5   6 209.583 15.3992   8
 -11   5   6 207.713 13.3667   8
 -11   5   6 202.099 13.8617  15
  11   5  -6 221.969 13.9721   1
 -11   5   6 197.697 11.4080   6
   9  -5  -6 9.72067 3.30608   5
  -9  -5   6 4.55297 4.31138   2
  -9  -5   6 12.7950 5.77301  15
  -9   5   6 3.22413 2.90204   6
  -9   5   6 10.2358 4.20655   8
   9   5  -6 9.60158 3.98363   1
  -9   5   6 5.20496 4.39651  15
  -9   5   6 7.01722 3.09056   2
   7  -5  -6 57.0148 6.73877   5
   7  -5  -6 59.9706 4.66951  11
  -7  -5   6 69.1855 8.81492   2
  -7  -5   6 60.1570 5.73914  14
  -7   5   6 55.9957 5.28792   6
  -7   5   6 62.6768 7.21183  15
  -7   5   6 59.9807 6.77225   2
  -7   5   6 59.1473 9.66974   8
   7   5  -6 58.7640 7.12205   1
   7   5  -6 51.1540 4.04578   9
  -5  -5   6 124.064 9.74004   2
   5  -5  -6 123.593 6.18809  11
   5  -5  -6 127.278 8.32628   5
   5  -5  -6 120.401 6.78303  12
  -5  -5   6 120.877 7.53494  14
   5   5  -6 121.561 5.82081   9
  -5   5   6 128.184 8.22912   2
  -5   5   6 110.184 7.09655  15
   5   5  -6 121.485 8.11393   1
  -5   5   6 124.201 6.82543   6
  -3  -5   6 45.3255 5.50645  14
   3  -5  -6 43.6759 5.04713  12
   3  -5  -6 49.6368 3.87151  16
   3  -5  -6 51.0504 6.13578   5
  -3  -5   6 50.5058 5.52091   4
   3  -5  -6 46.2681 3.87309  11
  -3   5   6 38.7032 3.60712  15
   3   5  -6 50.1333 6.01496   1
   3   5  -6 46.3724 3.94188   9
  -3   5   6 45.8673 5.46064   2
  -3   5   6 45.4939 4.22596   6
  -1  -5   6 287.318 11.5706  14
   1  -5  -6 295.854 9.98194   3
  -1  -5   6 277.036 11.5011   4
   1  -5  -6 279.825 10.4720  16
   1  -5  -6 288.003 11.5653  12
   1  -5  -6 299.211 12.2936   5
   1   5  -6 274.521 11.0287   3
  -1   5   6 281.580 10.5359   6
  -1   5   6 283.027 10.7809  10
  -1   5   6 277.957 11.0598   2
  -1  -5  -6 50.4804 6.59815  12
   1  -5   6 40.3303 4.46039  10
  -1  -5  -6 39.9591 5.73686   5
  -1  -5  -6 33.2349 4.80475  16
  -1  -5  -6 28.1324 4.20787   3
   1  -5   6 33.6116 5.04592  14
   1  -5   6 61.3587 7.15424   4
   1  -5   6 47.8974 3.61323  11
  -1   5  -6 38.1712 5.07356   8
   1   5   6 45.1903 5.18004   6
  -1   5  -6 38.7020 5.77677   3
   1   5   6 39.2468 3.82185   7
   1   5   6 50.2237 5.49638  10
  -1   5  -6 39.4568 5.18313  16
   3  -5   6 88.9263 6.96556  10
  -3  -5  -6 96.8463 9.82148  12
   3  -5   6 97.3972 6.95262  14
  -3  -5  -6 88.9280 8.88156   3
  -3  -5  -6 90.6420 7.54634  16
   3  -5   6 90.6491 5.92421  11
   3  -5   6 97.0831 7.98051   4
  -3   5  -6 81.5915 7.01686  16
   3   5   6 89.9609 5.97022   7
   3   5   6 104.563 7.74502  10
  -3   5  -6 91.1588 7.93634   8
  -3   5  -6 103.514 8.85499   3
   3   5   6 88.7511 6.71757   6
  -5  -5  -6 227.633 14.1158   3
   5  -5   6 243.116 13.7509   4
  -5  -5  -6 238.163 14.4544  12
   5   5   6 230.214 12.4324  10
  -5   5  -6 239.641 13.2281   8
  -5   5  -6 234.369 14.0486   3
   5   5   6 235.636 10.7851   7
  10  -6  -6 513.681 19.8390   5
 -10  -6   6 544.046 22.9605  15
 -10   6   6 505.279 18.6165   6
  10   6  -6 551.406 22.3511   1
 -10   6   6 531.875 21.3379  15
  -8  -6   6 7.55882 5.50624   2
   8  -6  -6 1.58762 3.18713   5
   8  -6  -6 6.21372 2.65477  11
  -8   6   6 1.15474 1.89769   6
   8   6  -6 1.83565 1.73566   9
  -8   6   6 1.30761 2.52788   2
  -8   6   6 3.41449 3.71722  15
   8   6  -6 0.68403 3.24820   1
   6  -6  -6 1616.26 37.3786   5
  -6  -6   6 1595.01 35.7302  14
   6  -6  -6 1576.43 33.9468  12
  -6  -6   6 1623.21 42.0626   2
   6  -6  -6 1573.09 32.8731  11
  -6   6   6 1597.58 36.1383  15
   6   6  -6 1567.53 32.9881   9
  -6   6   6 1639.14 38.1290   2
   6   6  -6 1594.30 38.5391   1
  -6   6   6 1612.06 35.0187   6
  -4  -6   6 2.25726 3.01587  14
   4  -6  -6 9.19540 1.93886  16
   4  -6  -6 5.75249 2.76714  12
  -4  -6   6 6.01660 3.07980   4
   4  -6  -6 5.02555 2.17587  11
   4  -6  -6 4.85174 3.91687   5
   4   6  -6 3.36753 2.36246   1
  -4   6   6 7.03413 2.94446   2
  -4   6   6 8.27772 2.54674  15
  -4   6   6 7.19189 2.45655   6
   4   6  -6 7.69518 2.25770   9
   2  -6  -6 1174.94 27.8826  12
   2  -6  -6 1183.71 27.2380  16
   2  -6  -6 1174.27 26.6944  11
  -2  -6   6 1216.62 29.3646   4
   2  -6  -6 1188.16 30.1617   5
  -2  -6   6 1197.41 29.2344  14
   2   6  -6 1214.25 26.7271   9
   2   6  -6 1259.15 28.0611   3
  -2   6   6 1198.30 27.7424   6
  -2   6   6 1227.04 29.3053   2
   2   6  -6 1217.30 30.2799   1
   0  -6  -6 151.788 9.96447   5
   0  -6  -6 134.668 7.72831  16
   0  -6   6 159.889 10.1257   4
   0  -6   6 154.221 9.16092  14
   0  -6   6 144.883 5.97220  11
   0  -6  -6 144.970 9.05668  12
   0   6  -6 160.813 8.80938   3
   0   6   6 152.013 7.84904   2
   0   6  -6 164.462 8.87862   8
   0   6   6 144.203 8.04809  10
   0   6   6 147.832 8.14168   6
   2  -6   6 389.963 12.0113  11
  -2  -6  -6 371.087 16.3552   5
  -2  -6  -6 361.256 14.5745  16
  -2  -6  -6 384.116 15.6207  12
   2  -6   6 362.396 15.4112   4
   2  -6   6 375.670 13.5071  10
   2  -6   6 384.957 14.3711  14
   2   6   6 376.627 12.1750   7
  -2   6  -6 398.329 15.0989   8
  -2   6  -6 350.854 14.6537   3
   2   6   6 396.314 14.6215   6
   2   6   6 373.791 14.3059  10
  -4  -6  -6 118.041 11.6220  12
   4  -6   6 98.8732 6.83612  11
   4  -6   6 92.3127 8.48371   4
  -4   6  -6 104.044 9.38613   3
  -4   6  -6 108.478 9.19939   8
   4   6   6 108.571 7.28305   7
   4   6   6 92.7761 7.82957  10
   4   6   6 90.4383 7.96583   6
  -6  -6  -6 203.977 13.3353  12
   6   6   6 195.749 10.5672   7
   6   6   6 189.312 11.6741  10
  -6   6  -6 213.819 12.9668   8
  -6   6  -6 203.266 13.5451   3
   9  -7  -6 79.9403 6.37108  11
   9  -7  -6 77.5878 7.47271   5
  -9  -7   6 80.7944 10.8005   2
  -9  -7   6 94.7042 10.9584  15
  -9   7   6 84.8097 8.55463   6
  -9   7   6 107.681 10.7935  15
  -9   7   6 81.7569 7.74801   2
   9   7  -6 87.7171 9.74870   1
  -7  -7   6 306.427 17.2550   2
   7  -7  -6 343.426 15.1855   5
   7  -7  -6 312.119 11.7631  11
  -7  -7   6 295.538 12.9769  14
   7   7  -6 294.439 11.2398   9
   7   7  -6 342.406 15.7100   1
  -7   7   6 303.495 14.1320   2
  -7   7   6 309.782 13.1312   6
  -7   7   6 303.160 13.4050  15
   5  -7  -6 619.577 17.4653  11
  -5  -7   6 619.647 18.6022   4
   5  -7  -6 631.268 20.8243   5
  -5  -7   6 668.241 20.4007  14
  -5   7   6 643.480 19.1852   6
   5   7  -6 633.944 17.5961   9
  -5   7   6 602.107 20.2507   2
   5   7  -6 646.307 21.0006   1
  -5   7   6 622.553 18.4448  15
  -3  -7   6 208.698 11.0223   4
  -3  -7   6 213.459 11.1580  14
   3  -7  -6 206.493 9.53684  12
   3  -7  -6 201.877 9.02522  16
   3  -7  -6 201.614 11.5861   5
   3  -7  -6 213.483 9.04031  11
  -3   7   6 215.100 9.81734   6
   3   7  -6 230.263 10.8389   1
  -3   7   6 220.147 10.9735   2
   3   7  -6 205.369 9.17415   9
  -3   7   6 217.751 8.70220  15
   1  -7  -6 639.813 19.4241  12
  -1  -7   6 641.770 21.0454   4
   1  -7  -6 623.204 18.6295  16
   1  -7  -6 633.015 21.2122   5
  -1  -7   6 634.776 20.0931  14
   1   7  -6 626.793 17.8225   9
  -1   7   6 649.689 18.7484  10
  -1   7   6 618.522 19.0566   2
   1   7  -6 661.405 18.5400   3
  -1   7   6 646.561 19.0369   6
  -1  -7  -6 113.331 8.87847  12
  -1  -7  -6 129.056 8.14122  16
   1  -7   6 119.755 6.11384  11
   1  -7   6 115.731 8.81313  14
   1  -7   6 118.907 9.97411   4
  -1  -7  -6 126.214 10.1460   5
   1   7   6 109.091 7.44290  10
  -1   7  -6 133.986 8.43037   3
  -1   7  -6 112.771 7.82280   8
   1   7   6 115.028 7.95620   6
   3  -7   6 54.3941 8.53040   4
  -3  -7  -6 63.3103 8.75393   5
   3  -7   6 62.3717 5.46219  11
  -3  -7  -6 67.6757 8.75199  12
   3  -7   6 45.0791 6.23268  14
   3   7   6 45.5397 5.79559  10
   3   7   6 36.6398 5.28606   6
  -3   7  -6 39.6440 6.17738   3
   3   7   6 48.9344 5.35744   7
  -3   7  -6 63.7258 8.04717   8
   5  -7   6 79.5887 6.82597  11
   5  -7   6 70.1452 9.21891   4
  -5  -7  -6 73.7402 10.4826   5
  -5  -7  -6 88.9858 11.2443  12
  -5   7  -6 77.7462 9.02567   8
   5   7   6 80.3890 7.25036   7
 -10  -8   6 38.2380 8.14007  15
  10  -8  -6 45.0118 7.21731   5
  10   8  -6 32.9792 6.77775   1
 -10   8   6 43.7833 7.19022  15
 -10   8   6 38.7525 6.55911   6
   8  -8  -6 3.57807 2.15469  11
   8  -8  -6 6.11765 4.43236   5
  -8  -8   6 5.40549 5.45945   2
  -8   8   6 7.86545 4.14674  15
   8   8  -6 -0.7492 2.00332   9
   8   8  -6 5.94592 3.16553   1
  -8   8   6 9.27167 3.63861   2
  -8   8   6 2.78612 3.52587   6
  -6  -8   6 17.1314 4.80078  14
   6  -8  -6 30.7573 6.17130   5
   6  -8  -6 22.4040 4.27368  11
   6   8  -6 23.2708 5.39122   1
   6   8  -6 26.5958 3.95991   9
  -6   8   6 28.5852 5.13893  15
  -6   8   6 26.4171 5.20347   2
  -6   8   6 23.9411 4.73830   6
   4  -8  -6 64.7568 6.41036  11
   4  -8  -6 64.7411 8.48258   5
   4  -8  -6 57.0337 4.74582  16
  -4  -8   6 48.0320 6.82820  14
  -4  -8   6 46.5350 6.24043   4
   4  -8  -6 49.1722 5.95420  12
  -4   8   6 66.3780 7.81423   2
   4   8  -6 44.6046 6.01102   1
  -4   8   6 51.8663 6.28408   6
   4   8  -6 54.7573 5.70133   9
  -4   8   6 45.3958 5.11846  15
   2  -8  -6 116.415 7.40564  11
  -2  -8   6 115.492 9.84287   4
   2  -8  -6 120.586 7.65072  16
   2  -8  -6 113.242 9.98868   5
  -2  -8   6 120.780 9.17649  14
   2  -8  -6 123.795 7.99227  12
  -2   8   6 125.418 7.95604   6
   2   8  -6 108.003 7.81828   1
   2   8  -6 124.797 7.63446   9
   0  -8  -6 155.173 9.07508  16
   0  -8  -6 177.635 10.2766  12
   0  -8  -6 149.625 11.3332   5
   0  -8   6 158.066 11.7248   4
   0  -8   6 164.307 10.4241  14
   0   8   6 166.711 8.99375  10
   0   8   6 170.871 9.43603   6
   0   8  -6 144.959 8.39717   9
  -2  -8  -6 252.469 14.9796   5
   2  -8   6 237.731 12.3210  14
   2  -8   6 233.906 13.5788   4
  -2  -8  -6 227.332 12.7472  12
   2  -8   6 218.930 9.30893  11
   2   8   6 213.069 11.2374   6
  -2   8  -6 199.071 9.72527   9
  -2   8  -6 219.335 12.1632   8
   2   8   6 208.538 10.7801  10
   4  -8   6 57.5969 8.10182   4
  -4  -8  -6 54.5914 9.01605  12
  -4  -8  -6 62.1331 8.87446   5
   4  -8   6 52.2666 5.87649  11
   4   8   6 45.4278 6.56180   6
  -4   8  -6 57.2487 7.57778   8
  -9  -9   6 81.3727 12.0680   2
   9  -9  -6 108.595 8.88601   5
   9  -9  -6 90.7378 7.55612  11
  -9   9   6 91.7632 8.37521   6
   9   9  -6 81.1039 6.93642   9
  -9   9   6 99.3247 9.15048  15
   9   9  -6 107.417 11.4347   1
   7  -9  -6 86.4012 6.80395  11
   7  -9  -6 85.5790 9.42190   5
  -7  -9   6 57.7584 10.1704   2
  -7  -9   6 84.4698 9.24626  14
  -7   9   6 86.3314 9.15531   6
   7   9  -6 84.6081 9.33909   1
  -7   9   6 102.856 8.35326  15
   7   9  -6 67.8085 6.62697   9
   5  -9  -6 84.5244 9.36918   5
   5  -9  -6 89.4545 7.43159  11
  -5  -9   6 91.8885 9.67144  14
   5   9  -6 72.4306 7.03297   9
  -5   9   6 87.8904 7.66959   6
  -5   9   6 91.5272 7.14932  15
   5   9  -6 91.0841 8.82312   1
  -3  -9   6 237.162 13.3736  14
   3  -9  -6 226.615 10.9502  11
   3  -9  -6 244.501 10.8062  16
  -3  -9   6 210.651 12.2211   4
   3  -9  -6 246.754 13.5257   5
  -3   9   6 218.363 11.4509   6
   3   9  -6 233.753 10.8835   9
  -1  -9   6 15.0419 5.80273   4
   1  -9  -6 15.3700 4.25874  12
   1  -9  -6 11.7507 5.42553   5
   1  -9  -6 22.2877 4.17877  16
   1  -9  -6 23.4143 4.55042  11
  -1  -9   6 32.3133 6.25144  14
  -1   9   6 13.0390 4.04486   6
   1   9  -6 23.4405 4.12998   9
  -1   9   6 16.4771 3.44689  10
   1  -9   6 89.4642 10.7549   4
  -1  -9  -6 79.8248 8.92570  12
  -1  -9  -6 84.2543 10.1932   5
   1  -9   6 87.9160 9.26754  14
   1   9   6 88.9487 7.98646   6
  -1   9  -6 78.3777 6.42637   9
   3  -9   6 10.8010 3.27023  11
   3  -9   6 6.97251 5.67139   4
  -3  -9  -6 7.92191 5.02318  12
  -3  -9  -6 14.9620 6.55818   5
  -3   9  -6 6.59806 3.12929   9
   3   9   6 11.7252 4.48751   6
  -3   9  -6 15.5622 4.61368   8
   8 -10  -6 628.467 22.7892   5
   8 -10  -6 597.217 19.1361  11
  -8 -10   6 554.201 26.2241   2
   8  10  -6 577.438 19.0629   9
  -8  10   6 633.303 22.2371  15
   8  10  -6 605.319 23.2176   1
   6 -10  -6 117.586 10.5446   5
  -6 -10   6 123.086 10.7108  14
   6 -10  -6 135.718 9.25768  11
  -6  10   6 125.425 9.72138   6
  -6  10   6 139.129 9.47253  15
   6  10  -6 112.570 9.63853   1
   6  10  -6 128.070 8.67763   9
  -4 -10   6 1081.60 31.8407   4
   4 -10  -6 1077.20 28.7169  11
  -4 -10   6 1123.94 32.4171  14
   4 -10  -6 1130.86 32.3539   5
  -4  10   6 1105.09 30.5218   6
   4  10  -6 1106.51 28.8239   9
  -2 -10   6 218.803 14.1788   4
   2 -10  -6 179.060 13.2175   5
  -2 -10   6 211.779 13.1704  14
   2 -10  -6 217.869 11.4320  11
  -2  10   6 141.076 15.2601  10
   2  10  -6 205.894 10.7613   9
  -2  10   6 210.628 11.7344   6
   0 -10   6 653.161 22.8929  14
   0 -10  -6 660.331 21.0308  11
   0 -10   6 631.735 23.8343   4
   0 -10  -6 616.291 24.2513   5
   0  10  -6 635.919 20.1126   9
   0  10   6 665.081 22.1320   6
   2 -10   6 141.611 10.0389  14
  -2 -10  -6 143.834 12.8295   5
   2 -10   6 152.660 13.2307   4
  -2  10  -6 140.398 8.82112   9
   2  10   6 151.049 10.1061   6
   7 -11  -6 107.851 10.0040   5
  -7 -11   6 113.684 10.5710  14
  -7 -11   6 110.934 12.5767   2
   7 -11  -6 87.3158 7.47369  11
  -7  11   6 102.744 9.53677   6
   7  11  -6 98.8605 8.21111   9
   7  11  -6 80.3563 9.13285   1
  -5 -11   6 115.346 10.0861  14
   5 -11  -6 106.825 9.64345   5
   5 -11  -6 135.124 9.85476  11
   5  11  -6 121.424 8.99528   9
  -5  11   6 108.951 9.01223   6
  -3 -11   6 215.333 13.4489  14
  -3 -11   6 229.517 15.1352   4
   3 -11  -6 218.939 14.4431   5
   3 -11  -6 232.089 12.4220  11
   3  11  -6 246.314 12.4652   9
  -3  11   6 223.468 12.8724   6
   1 -11  -6 122.528 12.7164   5
  -1 -11   6 118.096 13.0168   4
   1 -11  -6 124.568 9.25957  11
  -1 -11   6 118.491 10.6748  14
  -1  11   6 115.986 8.95988   6
   1  11  -6 112.660 8.17347   9
   1 -11   6 193.699 12.7282  14
  -1 -11  -6 221.988 15.3583   5
  -1 -11  -6 211.888 12.1964  11
   1 -11   6 198.679 14.0634   4
   1  11   6 213.581 12.6161   6
  -1  11  -6 196.857 11.1702   9
   4 -12  -6 16.8469 6.51046   5
   4 -12  -6 12.1139 4.95834  11
  -4 -12   6 6.74856 5.37291  14
   4 -12  -6 31.1209 5.73208   4
  -4 -12   6 8.04293 5.92696   4
  -4  12   6 14.4679 4.90769   6
   4  12  -6 10.3232 3.48920   9
   2 -12  -6 36.3572 5.87357  11
   2 -12  -6 38.5879 8.27384   5
  -2 -12   6 40.2113 7.13821  14
  -2 -12   6 31.7706 8.16254   4
  -2  12   6 37.1448 6.86862   6
   2  12  -6 32.7421 5.46310   9
   0 -12  -6 15.0460 4.67025  11
   0 -12   6 29.3868 7.21384  14
   0 -12  -6 7.75370 6.25268   5
   0 -12   6 15.2002 7.43347   4
   0  12   6 15.5300 3.98167   6
   0  12  -6 11.9378 4.11614   9
 -12   0   7 3.02439 4.07756   8
 -12   0   7 4.68802 6.18038  15
 -10   0   7 5.03491 4.15885   8
 -10   0   7 3.42613 5.55116  15
  10   0  -7 -0.2944 2.60144   1
 -10   0   7 4.21360 3.74650   2
   8   0  -7 0.24320 2.00798   1
  -8   0   7 -0.8275 3.86792   2
  -8   0   7 0.82702 3.97463  15
   8   0  -7 1.31186 2.16532   5
  -6   0   7 1.67177 2.77022  15
   6   0  -7 0.77715 1.91880   5
   6   0  -7 1.65707 1.82702  12
  -6   0   7 1.64914 2.60199   2
  -6   0   7 0.26775 1.62952  14
   6   0  -7 2.51206 2.64515   1
   4   0  -7 5.24755 2.44404  12
   4   0  -7 1.50683 1.85173   3
  -4   0   7 1.33307 1.99580  15
  -4   0   7 2.30543 3.36121   2
   4   0  -7 -0.7654 0.95954  16
   4   0  -7 1.70746 1.71204   5
  -4   0   7 -0.7432 1.81038  14
  -2   0   7 1.02539 2.26861  14
   2   0  -7 5.75143 2.53238  12
   2   0  -7 0.29183 1.54461  16
  -2   0   7 0.81298 1.40854   4
  -2   0   7 4.72837 2.92226   2
  -2   0   7 0.79823 1.40431  10
   2   0  -7 -0.0284 2.01307   3
   2   0  -7 2.58541 1.74418   5
  -2   0   7 0.02743 0.80581   6
   0   0   7 0.69538 1.96816   4
   0   0  -7 8.14046 3.32804   3
   0   0  -7 1.56999 2.04820   5
   0   0   7 1.58740 1.99808   2
   0   0   7 2.13719 1.95148  10
   0   0  -7 1.21616 1.66518  16
   0   0  -7 2.04441 1.67399  13
   0   0  -7 2.56268 2.73528  12
   0   0   7 3.89972 2.30495  14
   0   0  -7 0.76014 1.20956   8
  -2   0  -7 -1.1863 2.66416  12
   2   0   7 6.38633 2.61660  14
   2   0   7 1.68813 2.51288   4
  -2   0  -7 2.69316 2.86762  16
  -2   0  -7 0.88304 2.40527   3
  -2   0  -7 1.74332 1.79856   8
   2   0   7 -1.6481 2.22241  10
  -4   0  -7 1.48848 4.99551   3
  -4   0  -7 -2.8611 3.13166  12
   4   0   7 1.54457 2.78314  10
  -4   0  -7 -1.4158 3.25851  16
   4   0   7 1.75495 3.07651   4
  -6   0  -7 4.20444 4.10845  12
   6   0   7 -3.4322 3.33740  10
  -6   0  -7 6.67094 5.87807   3
  11  -1  -7 21.4037 4.11657   7
 -11  -1   7 31.9383 8.11213  15
 -11  -1   7 39.6762 7.77356   8
 -11   1   7 29.8592 7.14748   8
  11   1  -7 29.8338 5.77850   1
 -11   1   7 23.6441 7.35037  15
   9  -1  -7 199.886 8.43917   7
  -9  -1   7 215.331 13.2901  15
  -9  -1   7 210.998 12.8385   2
   9  -1  -7 209.184 10.2547   5
   9  -1  -7 187.069 10.2824   1
   9   1  -7 189.143 11.2569   1
  -9   1   7 196.503 11.7215   2
  -9   1   7 219.539 13.2184  15
  -9   1   7 206.709 12.0678   8
  -7  -1   7 9.36503 3.93083  15
   7  -1  -7 13.0339 3.13412   5
  -7  -1   7 8.38987 2.33388  14
  -7  -1   7 13.1148 4.22604   2
   7  -1  -7 9.30263 3.21890   1
  -7   1   7 12.6988 4.05536  15
   7   1  -7 12.8460 3.54329   1
  -7   1   7 12.2367 4.67586   2
   7   1  -7 11.5107 2.39014   5
  -5  -1   7 1133.37 27.3544  15
  -5  -1   7 1184.19 30.6864   2
  -5  -1   7 1180.76 25.6941  14
   5  -1  -7 1205.03 25.9252   5
   5  -1  -7 1181.80 26.5226  12
   5   1  -7 1190.25 26.2238  12
  -5   1   7 1178.54 25.0932  14
  -5   1   7 1179.83 29.6374   2
  -5   1   7 1159.36 27.0691  15
   5   1  -7 1179.04 23.7653   5
   5   1  -7 1154.63 22.4264   9
  -3  -1   7 3.69589 3.22390   2
   3  -1  -7 5.65994 1.93587  16
  -3  -1   7 4.20414 1.66059  10
   3  -1  -7 0.38759 2.40372   5
   3  -1  -7 0.31427 2.19978  12
  -3  -1   7 4.86471 2.75635  14
  -3  -1   7 4.81345 1.64405   4
   3  -1  -7 5.78627 2.25670   3
   3   1  -7 1.89676 2.16178  12
  -3   1   7 3.33236 1.14682   6
  -3   1   7 3.18241 3.04101   2
   3   1  -7 9.18780 2.00588  16
  -3   1   7 3.48579 2.17102  15
   3   1  -7 3.53559 2.20376   3
   3   1  -7 5.15945 1.58354   5
  -3   1   7 2.91036 2.14652  14
  -1  -1   7 1692.58 36.2258   2
  -1  -1   7 1761.45 35.6549  14
  -1  -1   7 1702.06 34.8711  10
   1  -1  -7 1694.86 34.9783   5
   1  -1  -7 1742.67 36.3853   3
   1  -1  -7 1735.95 36.2985  12
  -1  -1   7 1727.25 35.1404   4
   1  -1  -7 1713.47 34.2836  16
  -1   1   7 1711.61 35.7069  10
  -1   1   7 1741.69 32.7443   6
   1   1  -7 1732.13 36.6945   3
  -1   1   7 1739.17 35.1014  14
   1   1  -7 1670.49 32.5226   5
  -1   1   7 1734.92 34.9576   4
   1   1  -7 1714.12 34.4526  16
   1   1  -7 1633.18 35.7994  13
   1   1  -7 1724.70 35.2318  12
  -1   1   7 1703.72 35.6815   2
  -1  -1  -7 13.3207 4.18569   3
  -1  -1  -7 16.1013 3.82452  16
   1  -1   7 14.6796 3.75058   4
   1  -1   7 13.8120 3.34373  14
  -1  -1  -7 4.91019 3.14772  12
   1  -1   7 12.6631 2.95973  10
  -1   1  -7 8.39283 3.94585   3
  -1   1  -7 8.83020 3.24769  12
   1   1   7 9.51521 2.49203  10
  -1   1  -7 10.1902 2.87576  16
   1   1   7 16.4044 3.35592  14
  -1   1  -7 9.46140 2.52174   8
   1   1   7 10.9040 2.73442   6
   1   1   7 12.7813 3.32889   4
   3  -1   7 519.792 18.4287  10
  -3  -1  -7 555.957 19.2421  12
  -3  -1  -7 515.634 17.5991  16
  -3  -1  -7 555.027 20.4510   3
   3  -1   7 546.814 18.6242   4
   3   1   7 520.274 18.8067  10
  -3   1  -7 517.659 16.5373   8
   3   1   7 532.867 16.2480  14
  -3   1  -7 553.760 20.2446   3
  -3   1  -7 536.661 17.8965  16
  -3   1  -7 543.385 18.1110  12
   5  -1   7 1.05123 2.26723  10
  -5  -1  -7 6.26388 4.26694  12
   5  -1   7 6.59221 3.55474   4
  -5  -1  -7 3.48662 4.46988   3
  -5   1  -7 4.54826 3.39782   8
  -5   1  -7 -3.7575 5.05177   3
   5   1   7 2.32151 3.27161  10
  -5   1  -7 2.63239 3.67823  12
 -12  -2   7 174.557 14.4477  15
 -12  -2   7 181.068 14.3465   8
  12  -2  -7 155.431 9.76410   7
 -12   2   7 170.633 13.5423   8
 -12   2   7 147.568 11.9544  15
 -10  -2   7 257.170 14.5066   2
 -10  -2   7 285.297 16.0909  15
 -10   2   7 271.962 14.5170   8
 -10   2   7 265.097 13.5081   2
 -10   2   7 269.248 14.5953  15
  10   2  -7 280.338 14.4073   1
   8  -2  -7 491.146 16.3068   1
   8  -2  -7 509.635 16.2541   5
  -8  -2   7 513.146 20.0347   2
  -8  -2   7 520.119 19.5097  15
  -8   2   7 504.920 18.3772  15
   8   2  -7 501.870 18.1509   1
  -8   2   7 478.952 18.2338   2
  -8   2   7 467.170 17.1744   8
   6  -2  -7 1101.59 25.6774   5
  -6  -2   7 1082.17 24.4352  14
  -6  -2   7 1105.75 30.1690   2
   6  -2  -7 1083.58 25.6475  12
   6   2  -7 1058.51 21.3945   9
  -6   2   7 1074.46 22.4273   6
  -6   2   7 1059.40 23.3182  14
  -6   2   7 1089.16 28.4296   2
  -6   2   7 1085.60 26.8458  15
   6   2  -7 1073.28 28.6294   1
   4  -2  -7 1122.68 25.6604  12
   4  -2  -7 1110.79 25.4159   5
  -4  -2   7 1050.11 28.3110   2
  -4  -2   7 1132.42 25.4227  14
  -4  -2   7 1077.48 22.4581   4
   4  -2  -7 1092.46 21.8763  16
   4   2  -7 1126.50 24.4986  12
  -4   2   7 1118.72 22.5292   6
  -4   2   7 1052.75 24.4719  15
  -4   2   7 1179.94 28.0944   2
   4   2  -7 1098.57 22.0490  16
  -4   2   7 1103.54 24.2403  14
   2  -2  -7 1455.26 29.8419  16
  -2  -2   7 1483.80 31.9581  14
  -2  -2   7 1517.74 34.3284   2
  -2  -2   7 1487.57 30.9271   4
   2  -2  -7 1478.92 31.1845   3
   2  -2  -7 1498.15 32.5671  12
  -2  -2   7 1530.88 30.6292  10
   2  -2  -7 1469.90 31.7972   5
   2   2  -7 1500.17 30.3519  16
   2   2  -7 1519.50 32.8706   3
  -2   2   7 1485.91 32.6334   2
  -2   2   7 1508.80 31.8887  10
   2   2  -7 1478.68 30.7684  12
  -2   2   7 1491.55 29.2453   6
  -2   2   7 1464.94 30.9555  14
   0  -2  -7 1244.50 28.1305  16
   0  -2   7 1288.15 29.3927   4
   0  -2   7 1293.35 28.5643  10
   0  -2   7 1250.04 28.6238   2
   0  -2  -7 1278.25 29.5583   3
   0  -2  -7 1278.28 29.9929  12
   0  -2  -7 1266.98 29.2787   5
   0  -2   7 1284.72 28.8019  14
   0   2   7 1261.80 26.8786   6
   0   2  -7 1234.85 28.1411  16
   0   2  -7 1269.67 30.3874   3
   0   2  -7 1254.68 27.5742   8
   0   2   7 1266.14 28.3582  14
   0   2  -7 1234.39 27.7141  12
   0   2   7 1270.75 29.4643  10
  -2  -2  -7 682.160 21.2085  12
   2  -2   7 680.232 20.7038   4
   2  -2   7 691.407 18.9825  14
  -2  -2  -7 697.461 21.8077   3
  -2  -2  -7 659.751 19.7663  16
   2  -2   7 655.326 20.1015  10
  -2   2  -7 694.669 19.3945   8
   2   2   7 705.826 19.3242  14
  -2   2  -7 702.513 21.9893   3
  -2   2  -7 658.974 19.5941  16
   2   2   7 705.299 18.8188   6
   2   2   7 695.221 20.8586  10
  -2   2  -7 671.579 19.2372  12
   4  -2   7 491.860 19.0162  10
  -4  -2  -7 519.635 20.8494   3
  -4  -2  -7 494.558 19.2149  12
   4  -2   7 518.340 19.0254   4
  -4  -2  -7 487.448 18.2116  16
  -4   2  -7 471.408 17.2309  12
  -4   2  -7 536.299 21.0322   3
  -4   2  -7 487.395 17.2938   8
   4   2   7 483.972 18.8410  10
  -4   2  -7 460.359 17.4972  16
  -6  -2  -7 206.912 14.1567   3
   6  -2   7 198.854 12.9682  10
   6  -2   7 226.713 12.9733   4
  -6  -2  -7 192.932 13.1888  12
  -6   2  -7 212.117 15.5735   3
   6   2   7 212.800 12.8573  10
  -6   2  -7 217.082 12.4645   8
 -11  -3   7 495.331 22.2429  15
  11  -3  -7 546.267 17.5500   7
 -11  -3   7 535.148 22.9824   8
 -11   3   7 493.898 21.0571   8
 -11   3   7 517.413 21.8570  15
  11   3  -7 501.464 20.7345   1
  -9  -3   7 8.66938 5.32718   2
  -9  -3   7 8.76004 4.08419  15
   9  -3  -7 11.6653 3.69578   5
  -9   3   7 9.91868 5.16352  15
   9   3  -7 4.63077 2.98420   1
  -9   3   7 1.83252 3.08712   2
  -9   3   7 5.57972 3.86403   8
   7  -3  -7 873.805 23.1357   1
  -7  -3   7 893.695 21.5355  14
   7  -3  -7 888.881 22.8132  12
  -7  -3   7 883.324 27.2455   2
   7  -3  -7 904.687 23.3948   5
  -7   3   7 871.452 25.5653   2
   7   3  -7 906.331 26.0244   1
  -7   3   7 854.294 22.7020   8
  -7   3   7 901.891 24.6596  15
  -7   3   7 882.588 20.7083   6
   5  -3  -7 10.2603 3.09541  12
   5  -3  -7 1.26978 2.84254   5
  -5  -3   7 11.3809 3.33197  14
  -5  -3   7 4.26339 2.83117   2
  -5   3   7 7.99026 3.44234   2
   5   3  -7 7.44451 1.69163   9
  -5   3   7 4.27767 1.62500   6
   5   3  -7 4.71428 2.02910  12
   5   3  -7 8.44057 3.18394   1
  -5   3   7 8.02085 2.26915  14
  -5   3   7 9.09420 3.48465  15
  -3  -3   7 595.142 19.5746   2
   3  -3  -7 582.339 17.4912   5
   3  -3  -7 580.210 14.5570  16
   3  -3  -7 576.958 15.1429   3
   3  -3  -7 587.141 17.1478  12
  -3  -3   7 595.561 15.6823   4
  -3  -3   7 592.930 17.1229  14
  -3  -3   7 582.643 14.4963  10
   3   3  -7 568.500 16.6715   3
  -3   3   7 591.944 14.9081   6
   3   3  -7 591.579 14.9079  16
   3   3  -7 574.121 14.9805  12
  -3   3   7 635.009 18.4947   2
  -3   3   7 571.267 14.6357  15
  -3   3   7 582.484 15.9423  14
   1  -3  -7 12.3786 2.83177  16
  -1  -3   7 12.4896 3.63911   2
   1  -3  -7 13.4303 4.06957  12
  -1  -3   7 11.7928 2.50677  10
   1  -3  -7 9.11455 2.93300   3
   1  -3  -7 12.0621 3.49683   5
  -1  -3   7 10.5226 3.53755  14
  -1  -3   7 11.7505 2.95762   4
  -1   3   7 12.7744 2.93916   2
   1   3  -7 11.2346 2.82047  16
  -1   3   7 11.3630 2.92466  14
   1   3  -7 11.7100 2.76585  12
  -1   3   7 10.5721 2.50157  10
  -1   3   7 16.2617 2.65344   6
   1   3  -7 10.3737 3.38258   3
   1  -3   7 380.813 13.4668  10
   1  -3   7 354.460 13.9717   4
   1  -3   7 366.838 13.2881  14
  -1  -3  -7 362.013 14.0920   3
  -1  -3  -7 363.788 13.3644  16
  -1  -3  -7 366.196 14.4832   5
  -1  -3  -7 392.274 14.9295  12
  -1   3  -7 371.925 13.6231  16
   1   3   7 374.352 12.5228   6
   1   3   7 364.076 10.1516   7
   1   3   7 377.936 13.1515  14
   1   3   7 396.303 14.3632  10
  -1   3  -7 374.146 13.1660   8
  -1   3  -7 377.446 14.8896   3
  -1   3  -7 357.831 12.3353  12
   3  -3   7 5.34030 3.60504   4
  -3  -3  -7 -3.4075 4.03881   3
  -3  -3  -7 4.18065 2.67125  16
  -3  -3  -7 4.85721 4.09376  12
   3  -3   7 1.96885 2.57591  14
   3  -3   7 2.52293 2.26127  10
  -3   3  -7 3.66319 4.35427   3
  -3   3  -7 5.61889 3.28930   8
   3   3   7 5.66873 2.08120   7
   3   3   7 7.59429 2.65839  14
   3   3   7 7.68798 3.23934  10
  -3   3  -7 7.25303 3.63653  16
   5  -3   7 250.806 13.2097   4
   5  -3   7 249.807 13.8915  10
  -5  -3  -7 250.320 15.5433   3
  -5  -3  -7 252.385 14.5716  12
  -5   3  -7 242.342 13.1251   8
  -5   3  -7 248.593 15.5479   3
   5   3   7 249.236 13.5131  10
 -10  -4   7 229.911 14.9744  15
  10  -4  -7 208.965 11.9266   5
 -10  -4   7 188.416 13.7009   2
 -10   4   7 220.855 13.8204  15
  10   4  -7 211.772 13.2223   1
 -10   4   7 197.743 11.5659   2
 -10   4   7 208.446 12.5655   8
  -8  -4   7 195.960 12.2998  15
  -8  -4   7 174.277 12.4885   2
   8  -4  -7 188.960 10.4675   5
   8   4  -7 170.822 11.2438   1
  -8   4   7 170.620 9.80796   8
  -8   4   7 178.947 11.0739   2
  -8   4   7 186.857 8.79861   6
  -8   4   7 177.621 10.6441  15
  -6  -4   7 347.896 12.7524  14
  -6  -4   7 343.716 15.9118   2
   6  -4  -7 357.095 13.8078   5
   6  -4  -7 356.293 12.7745  12
  -6   4   7 349.851 14.6210   2
  -6   4   7 338.074 13.3231  15
  -6   4   7 338.442 11.4424   6
   6   4  -7 346.988 14.9273   1
   6   4  -7 341.163 10.4643   9
  -4  -4   7 40.9326 5.38240  14
   4  -4  -7 41.6020 3.24875  16
  -4  -4   7 40.2785 6.41430   2
   4  -4  -7 41.5068 3.38266  11
   4  -4  -7 41.8394 5.25074  12
   4  -4  -7 47.2782 6.01394   5
  -4  -4   7 41.6860 4.30298   4
  -4   4   7 43.3206 4.71858  14
  -4   4   7 40.5017 3.83955   6
  -4   4   7 48.3232 5.91975   2
   4   4  -7 38.4097 3.26823   9
   4   4  -7 28.7236 3.41772  12
  -4   4   7 42.1872 4.51826  15
   4   4  -7 36.0501 5.89644   1
  -2  -4   7 79.5931 6.82901  14
  -2  -4   7 79.1623 8.25446   2
  -2  -4   7 69.3094 6.05120   4
   2  -4  -7 82.1327 5.43702   3
   2  -4  -7 77.2839 6.61655  12
  -2  -4   7 78.8001 4.63529  10
   2  -4  -7 82.5390 6.98918   5
   2  -4  -7 76.5186 5.23642  16
  -2   4   7 74.2099 6.08459   2
  -2   4   7 82.7820 5.36934   6
   2   4  -7 80.6385 4.80878  12
  -2   4   7 89.7377 6.01647  14
   2   4  -7 80.2762 5.42148  16
   2   4  -7 80.3539 6.20628   3
   0  -4  -7 91.1321 7.54908  12
   0  -4  -7 70.3016 5.85977   3
   0  -4   7 58.9261 6.28266   2
   0  -4   7 67.2249 5.18996  10
   0  -4  -7 68.2974 5.67485  16
   0  -4   7 79.7244 6.98594   4
   0  -4  -7 74.6635 6.44898   5
   0  -4   7 67.7513 6.43395  14
   0   4  -7 83.1284 6.25923  16
   0   4  -7 84.4529 6.20564   8
   0   4   7 81.8951 6.03222  10
   0   4   7 71.3850 5.22045   6
   0   4   7 77.5781 5.45189   2
   0   4  -7 81.6106 7.04146   3
   0   4   7 70.2186 5.35070  14
  -2  -4  -7 6.36242 4.02290   3
  -2  -4  -7 6.91961 4.35805  12
   2  -4   7 7.31889 3.42665  14
   2  -4   7 7.11243 3.82772   4
  -2  -4  -7 13.2313 3.30659  16
  -2  -4  -7 5.05408 3.32669   5
   2  -4   7 5.03837 2.32567  10
   2   4   7 9.48186 3.21680  10
   2   4   7 7.86089 2.12908   7
  -2   4  -7 10.5651 3.62297  16
  -2   4  -7 6.71001 2.65684   8
   2   4   7 1.99592 2.38017   6
  -2   4  -7 7.56711 3.38008   3
  -4  -4  -7 75.2901 9.29831   3
   4  -4   7 77.5057 7.26752  10
   4  -4   7 89.2147 8.73888   4
  -4  -4  -7 97.5230 10.9053  12
   4   4   7 81.9771 8.70532  10
  -4   4  -7 81.6084 9.81683   3
   4   4   7 76.1904 5.83116   7
  -4   4  -7 83.9268 8.56306   8
   6  -4   7 31.4929 5.58156   4
  -6  -4  -7 20.7518 6.07018  12
  -6  -4  -7 26.1640 7.50966   3
  -6   4  -7 27.2734 6.66166   3
   6   4   7 22.1984 5.54584  10
  -6   4  -7 4.71117 4.09231   8
 -11  -5   7 -8.7538 4.86932  15
  11  -5  -7 8.14868 3.94207   5
  11   5  -7 -6.0293 3.08910   1
 -11   5   7 0.78947 4.80332  15
  -9  -5   7 82.5515 9.93876  15
  -9  -5   7 83.6447 10.4757   2
   9  -5  -7 78.3595 8.32769   5
  -9   5   7 75.3163 6.18489   6
  -9   5   7 91.6730 8.25548   2
   9   5  -7 66.9655 8.57401   1
  -9   5   7 104.715 10.1392  15
   7  -5  -7 4.79138 2.83338  12
  -7  -5   7 6.60906 3.93380   2
   7  -5  -7 2.91247 2.65215   5
  -7  -5   7 2.01569 3.14942  14
   7   5  -7 -2.1842 2.51719   1
   7   5  -7 1.77766 1.48132   9
  -7   5   7 2.15357 2.89440   2
  -7   5   7 4.05333 2.45829   6
  -7   5   7 -2.6114 3.14416  15
   5  -5  -7 526.526 17.7523   5
   5  -5  -7 528.447 16.2034  12
  -5  -5   7 532.205 21.0045   2
   5  -5  -7 516.378 14.1222  11
  -5  -5   7 540.170 17.2781  14
  -5   5   7 530.543 15.6035   6
  -5   5   7 518.611 18.1884   2
  -5   5   7 529.720 15.9619  15
   5   5  -7 564.088 19.4977   1
   5   5  -7 520.047 14.6422   9
  -3  -5   7 97.8044 7.05825   4
   3  -5  -7 78.7287 5.16060  16
   3  -5  -7 86.6227 5.14004  11
   3  -5  -7 90.6229 6.93106  12
  -3  -5   7 98.1551 8.80774   2
   3  -5  -7 89.5428 7.89693   5
  -3  -5   7 98.0987 7.59858  14
   3   5  -7 87.8107 5.45500   9
  -3   5   7 89.8249 6.95815   2
   3   5  -7 91.9239 6.55257   3
  -3   5   7 98.8800 6.15996   6
   3   5  -7 82.7967 7.37982   1
   1  -5  -7 774.243 22.0176  12
  -1  -5   7 770.702 21.3764  14
   1  -5  -7 735.314 22.5377   5
  -1  -5   7 758.183 23.4875   2
   1  -5  -7 756.964 20.2338  16
  -1  -5   7 729.974 21.2478   4
  -1   5   7 770.878 21.1705   2
  -1   5   7 739.146 19.8435   6
   1   5  -7 755.023 21.5174   3
  -1   5   7 737.044 20.8114  10
   1  -5   7 79.3565 7.89799   4
   1  -5   7 68.9266 4.40893  11
  -1  -5  -7 65.6633 6.83275   3
  -1  -5  -7 72.1083 8.11392   5
  -1  -5  -7 75.7845 8.34042  12
   1  -5   7 71.5877 5.58253  10
   1  -5   7 74.6872 6.25085  14
  -1  -5  -7 62.7548 6.11483  16
  -1   5  -7 83.5452 8.41497   3
  -1   5  -7 66.3772 5.77885  16
   1   5   7 76.6871 6.25802  10
  -1   5  -7 65.7790 5.98175   8
   1   5   7 71.6049 6.16829   6
   3  -5   7 126.485 12.6549  14
   3  -5   7 149.268 10.8648   4
  -3  -5  -7 140.906 9.78100  16
   3  -5   7 146.429 9.34249  10
  -3  -5  -7 149.993 11.2416  12
  -3  -5  -7 137.182 10.2774   3
  -3  -5  -7 156.275 11.3684   5
  -3   5  -7 128.512 9.19230  16
  -3   5  -7 143.159 9.68828   8
   3   5   7 139.249 7.40946   7
   3   5   7 155.624 9.16105   6
   3   5   7 154.923 10.1582  10
  -3   5  -7 147.800 10.8783   3
  -5  -5  -7 1.26331 4.84509   3
   5  -5   7 1.18314 3.12652   4
  -5  -5  -7 1.71308 5.48832  12
   5   5   7 0.89828 2.46162   7
  -5   5  -7 6.34081 4.97925   3
   5   5   7 0.34558 3.16017  10
  -5   5  -7 3.00999 3.93101   8
  10  -6  -7 180.241 11.4597   5
 -10  -6   7 146.074 13.3646   2
 -10  -6   7 166.461 13.8795  15
 -10   6   7 159.029 10.4833   2
  10   6  -7 153.428 11.6348   1
 -10   6   7 202.135 13.1585  15
 -10   6   7 171.165 10.4948   6
   8  -6  -7 207.343 11.7097   5
  -8  -6   7 205.707 14.8344   2
  -8   6   7 203.061 11.8362  15
  -8   6   7 190.696 10.1742   6
   8   6  -7 227.216 13.4113   1
   8   6  -7 201.804 8.78121   9
  -8   6   7 192.399 11.7363   2
   6  -6  -7 26.7490 4.64272  12
  -6  -6   7 22.1152 4.98064  14
   6  -6  -7 24.5271 5.62776   5
   6  -6  -7 23.5601 3.62753  11
  -6  -6   7 31.8596 7.17559   2
  -6   6   7 18.8247 3.92424   6
  -6   6   7 23.6120 4.90577   2
  -6   6   7 27.6277 4.82182  15
   6   6  -7 20.4871 3.39213   9
   6   6  -7 24.7188 5.11136   1
   4  -6  -7 160.593 7.55292  11
   4  -6  -7 158.497 8.73577  12
  -4  -6   7 139.898 8.70430  14
  -4  -6   7 143.837 11.1839   2
   4  -6  -7 154.709 7.20775  16
   4  -6  -7 153.042 10.1338   5
  -4  -6   7 147.942 8.69735   4
  -4   6   7 163.390 8.52717   6
  -4   6   7 160.743 9.77565   2
   4   6  -7 159.272 7.83120   9
   4   6  -7 147.931 9.66576   1
  -4   6   7 161.938 7.74146  15
   2  -6  -7 6.26357 4.00235  12
  -2  -6   7 10.1928 3.41636  14
   2  -6  -7 9.89080 3.64612   5
  -2  -6   7 12.9617 4.38329   4
   2  -6  -7 8.09390 2.55467  16
   2   6  -7 8.37290 2.42448   9
  -2   6   7 8.57744 2.48871   6
   2   6  -7 10.3515 3.91101   1
   2   6  -7 15.0500 3.69348   3
  -2   6   7 9.68570 2.98552   2
   0  -6  -7 5.96670 2.85989  16
   0  -6  -7 5.33585 4.02872  12
   0  -6   7 3.34148 2.81786  14
   0  -6  -7 3.24500 3.64488   5
   0  -6   7 5.22957 3.32465   4
   0   6   7 2.12269 1.85064   2
   0   6  -7 2.42817 2.87938   8
   0   6   7 2.64214 2.45608  10
   0   6   7 2.77311 2.56111   6
   0   6  -7 -1.2727 2.65263   3
  -2  -6  -7 75.4786 7.36556  16
   2  -6   7 82.2008 7.99627   4
  -2  -6  -7 87.9349 9.91444  12
   2  -6   7 99.8971 11.3688  10
   2  -6   7 75.0821 5.34170  11
   2  -6   7 77.1170 7.51270  14
  -2  -6  -7 73.3102 8.98544   5
  -2   6  -7 71.1218 8.00873   3
   2   6   7 77.4221 7.07709  10
  -2   6  -7 80.0086 8.37091   8
   2   6   7 79.5128 7.13663   6
   4  -6   7 6.80321 4.70677   4
  -4  -6  -7 -1.2518 4.89037  12
  -4  -6  -7 5.10670 4.11727   5
  -4   6  -7 7.59755 3.40878   8
   4   6   7 -0.9035 1.92687   6
  -4   6  -7 2.05476 4.61544   3
   4   6   7 4.19714 2.57647   7
   4   6   7 3.13625 2.56783  10
  -9  -7   7 518.321 22.2032  15
   9  -7  -7 516.278 19.8752   5
  -9  -7   7 471.615 23.0188   2
   9   7  -7 538.522 21.7871   1
  -9   7   7 453.488 18.9208   2
  -9   7   7 520.310 20.1964  15
  -9   7   7 509.832 18.4431   6
  -7  -7   7 8.32508 5.56238   2
   7  -7  -7 -0.9218 2.20223  11
  -7  -7   7 -3.7954 3.04753  14
   7  -7  -7 -0.7720 3.69611   5
   7   7  -7 0.38632 1.87668   9
  -7   7   7 6.17459 3.51035  15
   7   7  -7 -1.8980 2.63949   1
  -7   7   7 0.49951 2.86713   2
  -7   7   7 1.46337 2.45852   6
   5  -7  -7 454.210 17.7597   5
  -5  -7   7 453.019 16.9123  14
   5  -7  -7 442.483 14.9069  12
  -5  -7   7 431.581 20.5582   2
   5  -7  -7 469.262 14.6445  11
   5   7  -7 452.161 17.6669   1
  -5   7   7 430.584 17.2993   2
   5   7  -7 438.733 14.3371   9
  -5   7   7 442.842 15.0928  15
  -5   7   7 451.188 15.5774   6
   3  -7  -7 28.9409 6.21153   5
   3  -7  -7 22.9192 3.65946  11
  -3  -7   7 20.7383 5.32441   4
  -3  -7   7 17.3121 4.20331  14
   3  -7  -7 16.0124 3.12418  16
   3  -7  -7 21.0195 5.06683  12
   3   7  -7 20.0515 4.54349   1
  -3   7   7 23.2167 4.29097   2
   3   7  -7 24.6238 3.99363   9
  -3   7   7 21.8295 4.13453   6
   1  -7  -7 179.090 10.5863  12
   1  -7  -7 182.831 11.9028   5
  -1  -7   7 168.422 10.1620  14
   1  -7  -7 156.208 8.94385  16
  -1  -7   7 176.679 10.7013   4
  -1   7   7 176.026 9.57052   6
  -1   7   7 157.147 9.26720   2
   1   7  -7 161.281 10.7452   1
  -1   7   7 170.591 9.15556  10
   1   7  -7 166.053 9.50865   3
   1   7  -7 179.841 9.09332   9
   1  -7   7 4.24132 4.61724   4
  -1  -7  -7 2.92832 4.38423  12
  -1  -7  -7 5.41657 3.08123  16
  -1  -7  -7 8.56695 4.78262   5
   1  -7   7 -5.5133 3.19671  14
  -1   7  -7 3.20484 3.37025   8
   1   7   7 -0.0146 2.44340   6
   1   7   7 7.08870 3.07186  10
  -1   7  -7 2.22388 3.02422   3
  -3  -7  -7 163.395 12.0180  12
   3  -7   7 123.432 8.38295  11
   3  -7   7 161.023 12.1702   4
  -3  -7  -7 150.556 12.1704   5
   3   7   7 130.649 9.52675  10
  -3   7  -7 159.082 10.8641   8
  -3   7  -7 146.377 10.5866   3
   3   7   7 157.145 9.99260   6
  -5  -7  -7 21.4298 9.11392  12
   5  -7   7 17.6788 6.63106   4
  -5   7  -7 19.6695 6.44638   8
   5   7   7 15.3218 3.50951   7
 -10  -8   7 132.449 16.2039  15
  10  -8  -7 189.542 14.2037   5
 -10   8   7 148.675 10.7973   6
  10   8  -7 168.832 13.0760   1
   8  -8  -7 358.172 15.9929   5
  -8  -8   7 335.095 19.6385   2
   8  -8  -7 304.768 18.7296  11
   8   8  -7 346.556 13.1510   9
  -8   8   7 371.339 15.7864   6
  -8   8   7 362.698 16.7537   2
   8   8  -7 376.325 17.3183   1
  -8   8   7 368.272 16.1550  15
   6  -8  -7 266.853 14.4398   5
   6  -8  -7 216.751 10.4006  11
  -6  -8   7 218.260 15.8534   2
  -6  -8   7 236.433 12.8622  14
  -6   8   7 230.034 11.7530   6
   6   8  -7 225.529 10.3389   9
  -6   8   7 239.107 11.7997  15
   6   8  -7 232.390 13.3341   1
  -6   8   7 222.719 12.7667   2
   4  -8  -7 847.415 23.1967  16
   4  -8  -7 949.577 24.1750  11
   4  -8  -7 924.209 24.1512  12
  -4  -8   7 936.484 26.4814   4
  -4  -8   7 962.064 27.4400  14
   4  -8  -7 921.083 28.1287   5
  -4   8   7 912.113 25.2168   6
  -4   8   7 928.431 27.5625   2
   4   8  -7 927.757 26.7017   1
   4   8  -7 939.093 24.3323   9
   2  -8  -7 568.067 21.6890   5
  -2  -8   7 566.149 19.7188  14
   2  -8  -7 534.084 17.7085  16
   2  -8  -7 556.495 17.4950  11
   2  -8  -7 559.062 18.5223  12
  -2  -8   7 548.072 20.4806   4
  -2   8   7 568.733 18.6087   6
  -2   8   7 547.431 18.2895  10
   2   8  -7 571.217 17.9438   9
  -2   8   7 579.489 19.7310   2
   0  -8  -7 407.871 16.7092  12
   0  -8  -7 426.454 19.2640   5
   0  -8   7 404.912 17.0442  14
   0  -8  -7 398.685 15.8100  16
   0  -8   7 404.990 17.3933   4
   0   8  -7 439.630 15.8580   3
   0   8   7 424.860 16.3336   6
   0   8   7 419.707 15.9236  10
   0   8  -7 427.759 15.3100   9
   2  -8   7 529.551 19.3738  14
  -2  -8  -7 588.344 23.5798   5
  -2  -8  -7 557.094 21.4146  12
   2  -8   7 567.025 22.0827   4
   2   8   7 574.436 20.4311   6
   2   8   7 540.118 19.2841  10
  -2   8  -7 542.324 17.9917   9
  -2   8  -7 616.980 21.4609   8
  -4  -8  -7 98.8235 12.2835   5
  -4  -8  -7 104.506 11.6779  12
   4  -8   7 105.881 10.7846   4
   4   8   7 84.3042 8.92000   6
  -4   8  -7 81.7137 9.30272   8
  -9  -9   7 38.1459 9.29664   2
   9  -9  -7 47.6496 7.91178   5
   9   9  -7 34.4051 7.33829   1
  -9   9   7 34.6335 6.20149   6
  -9   9   7 43.7666 7.01669  15
   7  -9  -7 216.531 10.6434  11
  -7  -9   7 212.717 12.6869  14
   7  -9  -7 225.424 13.8171   5
  -7  -9   7 215.750 16.5508   2
  -7   9   7 239.903 12.8165   6
   7   9  -7 225.608 13.5005   1
  -7   9   7 233.303 13.3317   2
  -7   9   7 238.695 12.2625  15
   7   9  -7 209.073 10.7494   9
   5  -9  -7 40.3275 5.70512  11
  -5  -9   7 37.4209 7.06269  14
   5  -9  -7 43.6598 7.06853   5
   5   9  -7 36.8462 6.11094   1
  -5   9   7 34.7654 5.79838   6
  -5   9   7 33.6760 6.19211   2
   5   9  -7 41.8413 5.90668   9
   3  -9  -7 905.990 24.6771  11
  -3  -9   7 900.746 27.7796   4
   3  -9  -7 887.999 24.6950  16
   3  -9  -7 911.143 29.2719   5
  -3  -9   7 947.448 28.2918  14
   3   9  -7 914.606 25.1195   9
  -3   9   7 948.089 26.6619   6
   1  -9  -7 13.4091 6.15282   5
   1  -9  -7 4.45443 3.86865  12
  -1  -9   7 15.7595 6.42412   4
  -1  -9   7 12.8798 4.98347  14
   1  -9  -7 17.7703 3.72822  11
  -1   9   7 13.5021 3.62529  10
   1   9  -7 9.69922 3.00098   9
  -1   9   7 14.1107 4.41343   6
   1  -9   7 668.217 25.3134   4
   1  -9   7 669.473 23.0338  14
  -1  -9  -7 714.018 26.5894   5
  -1  -9  -7 660.930 22.9586  12
  -1   9  -7 696.972 21.2587   9
   1   9   7 677.591 22.8288   6
  -3  -9  -7 51.2697 9.39111   5
  -3  -9  -7 42.6396 8.29710  12
   3  -9   7 44.4933 8.46155   4
  -3   9  -7 47.6506 6.30159   9
   3   9   7 46.6783 7.19542   6
  -3   9  -7 51.4708 8.17847   8
   8 -10  -7 -0.2327 3.98735   5
   8 -10  -7 6.57686 3.78914  11
  -8 -10   7 7.67875 6.82734   2
  -8  10   7 8.05175 4.01760   6
  -8  10   7 4.21059 3.20867  15
   8  10  -7 9.05101 3.65132   9
   8  10  -7 9.95224 5.05604   1
   6 -10  -7 32.4758 5.41170  11
  -6 -10   7 49.3252 10.0136   2
  -6 -10   7 45.2969 7.25768  14
   6 -10  -7 42.6772 7.98367   5
   6  10  -7 23.8735 5.56253   1
  -6  10   7 31.6769 5.95065   6
   6  10  -7 26.5751 4.78638   9
   4 -10  -7 13.2690 4.25315  11
  -4 -10   7 15.0731 5.61203   4
  -4 -10   7 16.6046 5.81479  14
   4 -10  -7 7.01127 5.71576   5
   4  10  -7 14.4679 3.90051   9
  -4  10   7 6.97207 3.57298   6
   2 -10  -7 14.2992 5.40204   5
   2 -10  -7 24.8301 4.86731  11
  -2 -10   7 16.3207 5.43422   4
  -2 -10   7 21.0301 5.81198  14
  -2  10   7 6.83013 3.18553   6
   2  10  -7 9.27197 3.71344   9
  -2  10   7 4.70811 2.96969  10
   0 -10  -7 2.41279 5.76990   5
   0 -10  -7 11.9576 3.57607  11
   0 -10   7 13.4182 4.50960  14
   0 -10   7 9.21975 6.33254   4
   0  10  -7 11.1184 3.71055   9
   0  10   7 3.57137 3.46005   6
   2 -10   7 7.95741 5.57880  14
   2 -10   7 16.1900 6.58019   4
  -2 -10  -7 23.4396 7.24843   5
   2  10   7 26.2190 5.42640   6
  -2  10  -7 18.2304 4.62432   9
  -5 -11   7 5.56732 5.29221  14
   5 -11  -7 5.75899 5.25100   5
   5 -11  -7 1.14726 3.48442  11
   5  11  -7 2.05860 2.19696   9
  -5  11   7 5.16291 3.66305   6
   3 -11  -7 51.6758 7.13226  11
  -3 -11   7 47.7043 7.63743  14
  -3 -11   7 38.9304 7.26168   4
   3 -11  -7 54.9953 9.49504   5
   3  11  -7 54.9778 7.19255   9
  -3  11   7 56.4118 7.29731   6
  -1 -11   7 26.6061 7.97814   4
  -1 -11   7 17.6695 5.84040  14
   1 -11  -7 23.0991 7.41751   5
   1 -11  -7 27.7234 4.94480  11
   1  11  -7 21.1984 4.49769   9
  -1  11   7 33.6426 6.27542   6
 -12   0   8 77.6910 10.2948  15
 -12   0   8 64.2658 9.63229   8
 -10   0   8 99.1443 11.2048  15
  10   0  -8 88.3205 8.93226   1
 -10   0   8 80.8680 9.34662   8
 -10   0   8 75.2768 9.29759   2
   8   0  -8 672.409 21.8202   1
   8   0  -8 662.858 18.6279   5
  -8   0   8 717.506 24.3039   2
  -8   0   8 695.037 22.9393  15
  -6   0   8 2.45804 2.10592  14
  -6   0   8 0.85623 3.80679   2
  -6   0   8 0.83327 2.67037  15
   6   0  -8 4.40709 2.49940  12
   6   0  -8 3.53311 1.93154   5
   4   0  -8 3069.15 58.2179   3
   4   0  -8 2974.70 53.5553  16
  -4   0   8 3056.83 57.2445  14
   4   0  -8 3088.79 58.0139  12
  -4   0   8 3064.49 61.7087   2
   2   0  -8 37.8953 5.26081  12
  -2   0   8 45.5987 4.31343   4
   2   0  -8 38.4385 5.12199   3
  -2   0   8 36.7887 5.34448   2
   2   0  -8 39.1826 4.11620  16
   2   0  -8 37.4537 4.26742   5
  -2   0   8 40.4395 5.06144  14
  -2   0   8 42.9303 4.83144  10
   0   0   8 2334.20 46.8944  14
   0   0   8 2349.63 47.7754   4
   0   0  -8 2361.07 49.5648   3
   0   0  -8 2284.48 45.8442   5
   0   0   8 2331.82 48.1988  10
   0   0  -8 2409.31 48.5082  12
   0   0  -8 2341.03 46.8499  16
  -2   0  -8 439.382 18.2018   3
  -2   0  -8 418.351 16.3095  12
   2   0   8 429.441 16.7118  10
  -2   0  -8 407.696 15.7907  16
   2   0   8 432.553 16.5548   4
   2   0   8 436.108 14.9088  14
   4   0   8 559.087 21.4366  10
  -4   0  -8 620.725 23.8358   3
  -4   0  -8 567.904 21.1433  12
 -11  -1   8 24.1904 7.52582  15
 -11  -1   8 24.5594 6.67662   8
 -11  -1   8 16.0509 8.68372   2
 -11   1   8 10.1616 6.26525  15
 -11   1   8 16.5502 4.86744   2
  11   1  -8 16.2533 4.93745   1
 -11   1   8 22.0567 5.98453   8
   9  -1  -8 264.208 12.8880   1
  -9  -1   8 246.150 13.8030  15
   9  -1  -8 283.494 12.1413   5
  -9  -1   8 264.969 15.1967   2
  -9   1   8 243.213 13.3355   2
   9   1  -8 284.686 14.2073   1
  -9   1   8 279.808 14.1501  15
  -7  -1   8 4.51753 4.74487   2
  -7  -1   8 0.77067 2.02988  14
   7  -1  -8 0.17449 2.44344  12
   7  -1  -8 2.49931 2.35099   5
  -7  -1   8 1.30538 3.11418  15
   7  -1  -8 2.83960 2.82864   1
  -7   1   8 12.2254 3.84293   2
   7   1  -8 3.60295 1.86611   5
  -7   1   8 1.96877 1.66302  14
  -7   1   8 -4.3626 3.06273  15
   7   1  -8 2.03403 2.57844   1
  -5  -1   8 372.324 15.9980   2
   5  -1  -8 381.658 12.4998   5
   5  -1  -8 385.494 13.2975  12
  -5  -1   8 373.954 12.8680  14
  -5  -1   8 380.157 13.7357  15
   5   1  -8 383.336 13.0218  12
  -5   1   8 380.639 15.7433   2
  -5   1   8 367.495 13.2098  15
  -5   1   8 377.125 12.4100  14
  -3  -1   8 248.462 9.55207  10
  -3  -1   8 250.585 12.1561   2
  -3  -1   8 241.350 9.00128   4
  -3  -1   8 247.617 10.5905  14
   3  -1  -8 247.916 8.77047  16
   3  -1  -8 250.242 10.7438  12
   3  -1  -8 242.052 9.86786   5
   3  -1  -8 258.570 10.4637   3
   3   1  -8 267.224 10.4471  12
  -3   1   8 227.474 11.4019   2
  -3   1   8 239.986 9.94682  10
   3   1  -8 233.239 8.58001  16
  -3   1   8 241.621 10.0053  14
   3   1  -8 251.854 10.7045   3
  -3   1   8 237.861 8.71860  15
  -1  -1   8 40.2652 5.24468  14
   1  -1  -8 45.3884 5.77761   3
  -1  -1   8 43.6780 5.36906   4
  -1  -1   8 45.4339 6.01159   2
   1  -1  -8 40.2025 4.88026  16
   1  -1  -8 47.7972 6.19106  12
  -1  -1   8 42.0997 4.73226  10
   1  -1  -8 40.6778 4.90322   5
  -1   1   8 43.0201 5.00725   2
  -1   1   8 44.0211 5.19216  14
   1   1  -8 42.5496 4.98833  16
  -1   1   8 40.2002 3.54626   6
  -1   1   8 47.5284 5.51929   4
   1   1  -8 52.9700 6.29928   3
  -1   1   8 43.1349 4.91215  10
   1   1  -8 43.7087 5.57612  12
  -1  -1  -8 462.437 16.0221  16
  -1  -1  -8 459.573 17.4895   3
   1  -1   8 454.440 15.0808  14
  -1  -1  -8 475.365 17.1441  12
  -1  -1  -8 473.688 16.0343   5
   1  -1   8 467.604 16.3136  10
   1  -1   8 441.434 16.1381   4
   1   1   8 480.430 16.6855  10
  -1   1  -8 460.292 17.5080   3
   1   1   8 489.886 15.9219  14
  -1   1  -8 473.013 16.2322  12
  -1   1  -8 451.267 15.8138  16
  -1   1  -8 456.862 14.3619   8
  -3  -1  -8 33.4160 6.56235  12
   3  -1   8 30.6615 4.56274  14
   3  -1   8 27.9215 5.73990   4
   3  -1   8 22.0087 5.02142  10
  -3  -1  -8 24.8376 5.46772  16
  -3  -1  -8 24.7107 6.76257   3
  -3   1  -8 29.5731 4.49450   8
  -3   1  -8 40.0770 7.67334   3
   3   1   8 34.2472 5.01223  14
  -3   1  -8 30.5478 5.77557  12
  -3   1  -8 27.6734 5.04413  16
   3   1   8 29.4482 5.44894  10
  -5  -1  -8 71.4445 9.79664   3
  -5  -1  -8 72.6433 9.56239  12
   5  -1   8 50.1585 7.58470  10
  -5   1  -8 77.9139 9.89805   3
  -5   1  -8 70.2898 9.40088  12
   5   1   8 71.0904 8.83941  10
 -12  -2   8 0.90841 6.04823  15
 -12  -2   8 0.26451 4.76762   8
 -12   2   8 7.82314 5.25332   8
  12   2  -8 -2.5301 3.63187   1
 -12   2   8 -10.161 4.68799  15
  10  -2  -8 761.115 22.8330   5
 -10  -2   8 757.868 26.9862  15
 -10  -2   8 704.142 26.0173   2
 -10   2   8 717.440 24.5238   2
 -10   2   8 746.539 24.8774   8
  10   2  -8 752.424 25.3221   1
 -10   2   8 733.895 25.8496  15
  -8  -2   8 1.85660 3.88053  15
   8  -2  -8 24.9106 4.43639   5
   8  -2  -8 3.98588 2.82019   1
  -8  -2   8 11.9806 5.69003   2
   8   2  -8 5.45806 3.34636   1
  -8   2   8 12.0833 4.74635  15
  -8   2   8 7.20467 3.16098   8
  -8   2   8 10.4979 4.40351   2
  -6  -2   8 481.331 15.1835  14
  -6  -2   8 504.191 19.9400   2
   6  -2  -8 487.015 15.4898   5
   6  -2  -8 480.714 15.8108  12
  -6   2   8 454.771 17.6782   2
  -6   2   8 527.412 14.7429  14
   6   2  -8 483.762 15.0259  12
   6   2  -8 503.104 19.2822   1
  -6   2   8 506.498 16.6657  15
   4  -2  -8 57.4398 6.31866  12
   4  -2  -8 46.9752 5.62697   5
  -4  -2   8 42.6221 3.65834  10
  -4  -2   8 47.5827 5.36849  14
   4  -2  -8 44.8686 5.01032   3
   4  -2  -8 45.9217 3.46266  16
  -4  -2   8 54.1760 6.97977   2
  -4  -2   8 45.1819 3.97783   4
   4   2  -8 44.6804 4.87153  12
  -4   2   8 50.1772 5.31445  14
   4   2  -8 43.7459 5.34379   3
   4   2  -8 50.2831 3.55351  16
  -4   2   8 37.6498 5.55368   2
  -4   2   8 45.3496 4.81708  15
   2  -2  -8 134.568 8.47385  12
   2  -2  -8 132.664 7.76212   3
  -2  -2   8 126.553 7.26486   4
   2  -2  -8 132.538 7.80588   5
  -2  -2   8 134.691 7.06071  10
   2  -2  -8 116.220 6.47624  16
  -2  -2   8 142.588 7.95349  14
  -2  -2   8 131.979 8.94941   2
  -2   2   8 129.663 8.01817   2
   2   2  -8 129.581 7.28654  12
   2   2  -8 135.859 7.03854  16
  -2   2   8 135.310 6.22953   6
   2   2  -8 140.968 8.53750   3
  -2   2   8 126.601 7.44562  14
  -2   2   8 142.868 7.87660  10
   0  -2  -8 42.0936 5.60700   5
   0  -2   8 45.1399 5.43931  14
   0  -2  -8 42.5553 5.35496  16
   0  -2  -8 44.3742 6.39660  12
   0  -2  -8 47.8925 6.46542   3
   0  -2   8 52.4651 6.47721   4
   0  -2   8 37.4612 4.90032  10
   0   2   8 40.2254 5.23678  14
   0   2  -8 52.0851 5.41745  16
   0   2   8 38.9697 5.22102  10
   0   2   8 36.6961 4.23677   6
   0   2  -8 34.7583 4.61129   8
   0   2  -8 45.8737 6.46661   3
   0   2  -8 40.4392 5.23594  12
   2  -2   8 181.502 10.4422  10
  -2  -2  -8 182.764 12.0761   3
  -2  -2  -8 169.078 9.76552  16
   2  -2   8 172.249 9.29342  14
   2  -2   8 196.337 11.2693   4
  -2  -2  -8 187.516 10.8680   5
  -2  -2  -8 198.521 11.1703  12
   2   2   8 202.524 11.4599  10
  -2   2  -8 189.923 12.2179   3
  -2   2  -8 180.889 9.46734   8
  -2   2  -8 188.363 10.6873  12
   2   2   8 184.311 9.69726  14
  -2   2  -8 173.925 9.75342  16
   4  -2   8 128.594 10.2818  10
   4  -2   8 138.741 10.3468   4
  -4  -2  -8 128.037 10.6066  12
  -4  -2  -8 146.192 12.2879   3
  -4   2  -8 116.595 8.78999   8
   4   2   8 142.868 10.5942  10
  -4   2  -8 138.857 12.4526   3
 -11  -3   8 9.86893 6.58493  15
 -11   3   8 4.55598 4.47154   8
 -11   3   8 -6.5074 4.26522  15
 -11   3   8 7.40997 3.73242   2
  11   3  -8 3.28503 3.74270   1
  -9  -3   8 148.714 12.4675   2
   9  -3  -8 153.450 9.57894   5
  -9  -3   8 156.638 12.3298  15
  -9   3   8 144.775 11.2299  15
  -9   3   8 135.708 9.68817   8
   9   3  -8 141.372 10.8316   1
  -9   3   8 122.996 10.0313   2
   7  -3  -8 18.6790 4.38959   5
  -7  -3   8 19.2480 6.32364   2
  -7  -3   8 14.1662 3.96200  14
   7  -3  -8 27.0832 4.91481  12
   7  -3  -8 18.4448 4.18496   1
  -7   3   8 19.4088 3.22492  14
   7   3  -8 12.7619 3.99977   1
  -7   3   8 9.63117 4.34938   2
  -7   3   8 13.8833 4.49469  15
  -5  -3   8 79.3154 6.89704  14
  -5  -3   8 82.9115 7.96940   2
   5  -3  -8 84.4189 6.74863  12
   5  -3  -8 73.3598 7.25109   5
   5   3  -8 83.4641 5.62020  12
   5   3  -8 79.4858 4.66321   9
  -5   3   8 84.3668 5.88093  14
  -5   3   8 86.6155 5.03859   6
   5   3  -8 82.9124 9.28773   1
  -5   3   8 81.9682 6.47079  15
  -5   3   8 94.3810 7.94668   2
   3  -3  -8 0.66806 1.61827   3
  -3  -3   8 -0.0575 1.37681  10
  -3  -3   8 3.00131 2.23646   4
   3  -3  -8 0.11797 1.75265  16
  -3  -3   8 7.24516 3.71036  14
   3  -3  -8 -0.2501 2.75761  12
  -3  -3   8 0.92485 2.32105   2
   3  -3  -8 1.60272 2.84019   5
  -3   3   8 1.45300 1.88579   2
  -3   3   8 2.19546 1.83705  14
  -3   3   8 2.01771 1.53554   6
   3   3  -8 4.47103 2.07283  12
   3   3  -8 6.11404 2.03572  16
   3   3  -8 2.13429 2.48114   3
   1  -3  -8 105.882 7.32671   3
   1  -3  -8 113.088 8.35242  12
   1  -3  -8 117.057 8.18641   5
  -1  -3   8 120.976 7.01464  10
   1  -3  -8 102.538 6.78171  16
  -1  -3   8 125.288 8.61953   2
  -1  -3   8 116.303 8.09647  14
  -1  -3   8 113.342 7.26697   4
  -1   3   8 105.911 6.95293   2
   1   3  -8 113.544 6.67395  12
  -1   3   8 111.147 7.23650  14
   1   3  -8 104.730 8.05433   3
  -1   3   8 107.567 6.35044   6
   1   3  -8 111.580 6.76797  16
  -1   3   8 110.509 7.46282  10
   1  -3   8 10.2367 3.36067  10
  -1  -3  -8 10.2630 3.78898  16
   1  -3   8 10.0487 4.09210   4
   1  -3   8 8.20538 3.48256  14
  -1  -3  -8 9.43695 3.83801   5
  -1  -3  -8 12.9073 4.63934   3
  -1  -3  -8 13.9905 4.82559  12
   1   3   8 3.31315 2.33213   6
   1   3   8 10.9384 3.38504  10
   1   3   8 9.89134 3.20026  14
  -1   3  -8 8.43330 3.66737  12
  -1   3  -8 12.2129 4.73197   3
  -1   3  -8 14.8467 3.68279   8
  -1   3  -8 4.16981 3.24551  16
   3  -3   8 94.8272 8.43928  10
  -3  -3  -8 90.4916 9.71335   3
   3  -3   8 107.042 9.36677   4
  -3  -3  -8 110.905 9.32804  12
   3   3   8 94.1084 8.20848  10
  -3   3  -8 105.701 11.1079   3
  -3   3  -8 89.4976 7.72708   8
   5  -3   8 12.4108 3.67182   4
  -5  -3  -8 3.46187 4.93404  12
   5  -3   8 6.30043 4.08809  10
  -5  -3  -8 7.30302 5.91438   3
   5   3   8 7.54743 3.58852  10
  -5   3  -8 9.59833 6.10861   3
  -5   3  -8 4.10767 3.41746   8
 -10  -4   8 438.483 20.5864  15
  10  -4  -8 433.324 17.1108   5
 -10  -4   8 401.592 19.6394   2
 -10   4   8 419.881 18.9455  15
 -10   4   8 418.437 18.0149   2
  10   4  -8 401.121 19.0525   1
  -8  -4   8 133.125 10.7846  15
   8  -4  -8 137.024 9.09429   5
  -8  -4   8 124.002 11.9571   2
   8   4  -8 142.561 10.6270   1
  -8   4   8 148.402 10.5516   2
  -8   4   8 133.546 10.0115  15
  -6  -4   8 1459.73 39.9672   2
  -6  -4   8 1469.84 33.7584  14
   6  -4  -8 1499.01 35.1419   5
   6  -4  -8 1516.22 34.4391  12
   6   4  -8 1467.50 30.4624   9
  -6   4   8 1531.02 32.1788  14
   6   4  -8 1556.84 38.9148   1
  -6   4   8 1475.48 31.3787   6
  -6   4   8 1441.15 33.7976  15
  -6   4   8 1489.81 37.2345   2
   4  -4  -8 7.18695 3.63417   5
  -4  -4   8 1.87659 2.13217   4
  -4  -4   8 0.59198 3.31322  14
   4  -4  -8 5.81681 3.30300  12
   4  -4  -8 2.72368 1.67836  11
  -4  -4   8 3.13355 3.95192   2
   4  -4  -8 3.21864 1.49225  16
  -4   4   8 1.35994 1.54440  14
  -4   4   8 5.49100 3.93169  15
   4   4  -8 1.94869 1.63483   9
  -4   4   8 3.92891 2.93020   2
  -4   4   8 3.13533 1.88931   6
   4   4  -8 4.86004 2.06380  12
  -2  -4   8 1536.69 34.3887  14
   2  -4  -8 1495.49 35.2084   5
  -2  -4   8 1307.07 34.8075  10
  -2  -4   8 1527.22 33.9332   4
   2  -4  -8 1565.62 35.6127  12
   2  -4  -8 1478.27 32.0817   3
  -2  -4   8 1522.39 37.4590   2
   2  -4  -8 1525.99 32.4096  16
   2   4  -8 1289.47 30.9227  12
   2   4  -8 1522.25 32.8690  16
  -2   4   8 1621.42 35.3895   2
  -2   4   8 1479.75 34.3454  10
   2   4  -8 1567.11 35.1279   3
  -2   4   8 1550.04 33.9140  14
   0  -4   8 3.92568 3.42261   4
   0  -4  -8 -0.6686 2.99791   5
   0  -4   8 14.6979 3.17589  10
   0  -4   8 -2.1399 1.93574  14
   0  -4  -8 3.83027 2.57536  16
   0  -4  -8 -0.4369 2.61192   3
   0  -4  -8 -1.2787 3.35615  12
   0   4   8 1.24382 1.46025  10
   0   4   8 2.32477 1.99734  14
   0   4  -8 3.94915 2.61791  16
   0   4  -8 3.95466 2.77979   8
   0   4  -8 3.56958 3.36143   3
   0   4   8 2.40750 1.70280   6
   2  -4   8 361.296 15.8887   4
  -2  -4  -8 374.125 16.4852   5
   2  -4   8 344.810 14.7280  10
  -2  -4  -8 360.698 15.8231   3
   2  -4   8 350.280 14.0725  14
  -2  -4  -8 377.812 15.4913  16
  -2  -4  -8 362.344 16.5685  12
   2   4   8 363.908 15.6270  10
  -2   4  -8 382.277 17.0800   3
  -2   4  -8 368.354 14.9700  16
   2   4   8 344.702 13.9046   6
  -2   4  -8 351.921 14.5524   8
  -4  -4  -8 55.1582 8.35009   3
  -4  -4  -8 75.8980 9.33980   5
   4  -4   8 53.3551 7.48097  10
  -4  -4  -8 67.2726 9.60414  12
   4  -4   8 61.9205 8.41451   4
   4   4   8 56.1392 7.21804  10
  -4   4  -8 53.9005 7.28226   8
  -4   4  -8 69.1093 9.30916   3
  11  -5  -8 311.375 14.8878   5
 -11  -5   8 315.874 18.8900  15
  11   5  -8 311.699 17.0839   1
 -11   5   8 335.787 17.2672  15
  -9  -5   8 215.111 14.3450  15
   9  -5  -8 221.274 12.2186   5
  -9  -5   8 198.893 14.9782   2
  -9   5   8 219.788 13.0168  15
  -9   5   8 204.039 12.5002   2
   9   5  -8 199.809 13.3072   1
   7  -5  -8 781.314 22.3875  12
   7  -5  -8 830.067 24.1999   5
  -7  -5   8 807.740 28.6124   2
  -7  -5   8 781.300 22.4011  14
  -7   5   8 764.958 22.9244  15
   7   5  -8 805.987 26.1486   1
  -7   5   8 759.007 20.7558   6
  -7   5   8 796.414 25.3376   2
   7   5  -8 771.492 19.5110   9
   5  -5  -8 205.575 10.4305  12
  -5  -5   8 217.119 11.4673  14
   5  -5  -8 201.778 10.9330   5
  -5  -5   8 205.563 13.7777   2
  -5   5   8 224.675 9.55309   6
  -5   5   8 209.845 11.7217   2
  -5   5   8 214.918 9.66577  15
   5   5  -8 226.336 12.8265   1
   5   5  -8 229.547 9.22418   9
   3  -5  -8 229.199 8.85685  11
  -3  -5   8 223.291 13.3947   2
  -3  -5   8 234.024 11.4717  14
   3  -5  -8 231.423 12.5214   5
  -3  -5   8 233.882 10.9431   4
   3  -5  -8 228.965 9.49698  16
   3  -5  -8 238.363 11.6477  12
  -3   5   8 226.565 10.2030  14
   3   5  -8 236.899 9.54797   9
  -3   5   8 218.655 11.2196   2
  -3   5   8 236.242 10.0169   6
   3   5  -8 230.110 11.3065   3
   1  -5  -8 231.911 12.8944   5
  -1  -5   8 241.250 13.0447   2
  -1  -5   8 265.564 12.7185  14
   1  -5  -8 253.237 11.1202  16
   1  -5  -8 269.767 13.3041  12
  -1  -5   8 256.426 12.5485   4
  -1   5   8 255.236 10.8941   6
  -1   5   8 255.014 11.1907   2
  -1   5   8 245.498 11.7740  10
   1   5  -8 256.528 12.4131   3
  -1   5   8 261.561 11.5289  14
  -1  -5  -8 -3.1481 2.60164   3
   1  -5   8 1.43441 3.56268   4
  -1  -5  -8 5.08719 3.30272  16
  -1  -5  -8 -3.8219 2.93417   5
   1  -5   8 -1.9265 1.75613  10
  -1  -5  -8 -2.2271 3.89377  12
   1  -5   8 2.01810 3.29166  14
   1   5   8 -0.3228 2.11054  10
   1   5   8 -0.4123 2.35563   6
  -1   5  -8 1.49559 3.54320   3
  -1   5  -8 0.19056 1.78529  16
  -1   5  -8 -2.9630 2.43350   8
   3  -5   8 82.1972 9.86584   4
  -3  -5  -8 79.6671 10.1165  12
  -3  -5  -8 70.5472 9.23510   5
  -3  -5  -8 78.4247 9.30037   3
   3  -5   8 78.4708 8.33204  10
   3   5   8 66.2978 7.22009   6
  -3   5  -8 71.2669 9.27498   3
   3   5   8 81.2170 9.04207  10
  -3   5  -8 75.7278 8.32080   8
 -10  -6   8 14.1738 7.12920   2
 -10  -6   8 19.9902 7.08359  15
  10  -6  -8 14.5952 4.24497   5
 -10   6   8 15.6585 4.06819   2
  10   6  -8 11.5319 4.52123   1
 -10   6   8 16.8179 5.81318  15
  -8  -6   8 638.735 27.0623   2
   8  -6  -8 728.336 23.7039   5
  -8   6   8 727.154 23.1306  15
  -8   6   8 705.620 21.1301   6
  -8   6   8 702.154 24.2854   2
   8   6  -8 734.150 25.9041   1
  -6  -6   8 169.751 10.8233  14
  -6  -6   8 188.991 14.1041   2
   6  -6  -8 170.388 11.2476   5
   6  -6  -8 183.597 9.96619  12
  -6   6   8 180.896 11.2784   2
   6   6  -8 175.073 8.44841   9
   6   6  -8 189.005 11.9245   1
  -6   6   8 183.594 9.34853   6
  -6   6   8 177.822 9.69453  15
   4  -6  -8 612.388 17.1263  11
   4  -6  -8 674.265 20.2672  12
  -4  -6   8 626.928 24.5776   2
  -4  -6   8 616.385 19.0257   4
  -4  -6   8 636.066 20.6367  14
   4  -6  -8 648.809 22.0582   5
   4   6  -8 666.398 22.8941   1
  -4   6   8 644.949 18.9204   6
  -4   6   8 672.168 21.8217   2
   4   6  -8 646.294 18.2810   9
  -2  -6   8 261.501 13.1708  14
   2  -6  -8 248.801 10.9672  16
  -2  -6   8 248.749 14.4250   2
   2  -6  -8 251.711 13.7614   5
   2  -6  -8 256.756 12.9928  12
  -2  -6   8 244.817 12.6348   4
   2   6  -8 269.258 12.3540   3
  -2   6   8 244.172 10.9679   6
  -2   6   8 251.943 11.7713  10
  -2   6   8 267.269 12.3749   2
   2   6  -8 256.797 10.7109   9
   0  -6  -8 570.044 20.5119  12
   0  -6  -8 551.585 21.1683   5
   0  -6  -8 560.341 18.6110  16
   0  -6   8 571.824 20.5956   4
   0  -6   8 564.601 19.4675  14
   0   6   8 562.140 19.5839  10
   0   6   8 555.383 18.4031   6
   0   6  -8 568.805 19.9200   3
  -2  -6  -8 27.8615 6.41568   5
   2  -6   8 38.7589 6.71800   4
   2  -6   8 24.4165 5.09072  14
  -2  -6  -8 28.2687 7.23214  12
   2   6   8 22.2469 4.90264  10
  -2   6  -8 27.5284 5.74557   3
   2   6   8 27.9766 5.21824   6
  -2   6  -8 32.9494 6.02859   8
   4  -6   8 366.873 17.5907   4
  -4  -6  -8 349.183 18.1453   5
  -4  -6  -8 362.736 18.5262  12
  -4   6  -8 338.034 17.1666   3
  -4   6  -8 365.513 16.7487   8
   4   6   8 318.914 16.0047  10
   9  -7  -8 4.66312 3.71116   5
  -9  -7   8 4.71468 4.61488   2
  -9   7   8 3.30779 3.93669  15
  -9   7   8 4.73758 2.72117   6
  -9   7   8 4.75767 3.22820   2
   9   7  -8 6.12892 4.04348   1
  -7  -7   8 94.5932 9.17409  14
   7  -7  -8 80.8432 7.00123  12
  -7  -7   8 97.9513 12.1814   2
   7  -7  -8 111.256 9.68028   5
   7   7  -8 99.6839 6.75885   9
  -7   7   8 86.2025 7.32458   6
  -7   7   8 86.2522 9.12605   2
   7   7  -8 116.577 10.2735   1
  -7   7   8 105.794 8.40955  15
   5  -7  -8 13.0535 5.52213   5
  -5  -7   8 13.5346 5.36331  14
   5  -7  -8 11.6915 4.01685  12
  -5  -7   8 19.2225 6.70856   2
   5  -7  -8 16.0969 3.13711  11
  -5   7   8 14.2731 3.24196   6
   5   7  -8 13.9016 4.51585   1
  -5   7   8 14.3504 3.98328   2
   5   7  -8 12.2740 3.32968   9
  -3  -7   8 126.007 10.4181  14
   3  -7  -8 128.604 7.57498  16
   3  -7  -8 142.365 11.2677   5
  -3  -7   8 122.128 9.47076   4
   3  -7  -8 138.401 9.51187  12
   3  -7  -8 125.377 7.59076  11
  -3  -7   8 121.338 11.1804   2
  -3   7   8 124.113 8.94898   2
   3   7  -8 124.865 7.98321   9
  -3   7   8 124.285 8.21222   6
   3   7  -8 124.827 9.85347   1
   1  -7  -8 277.763 15.1268   5
  -1  -7   8 246.058 14.6274   2
   1  -7  -8 268.296 12.3671  16
  -1  -7   8 279.146 14.1828  14
  -1  -7   8 294.949 14.7688   4
   1  -7  -8 270.274 13.7516  12
  -1   7   8 274.693 12.5399   6
   1   7  -8 267.505 12.8509   3
  -1   7   8 261.744 12.2491   2
  -1   7   8 248.296 12.4898  10
   1   7  -8 264.412 11.4750   9
   1  -7   8 58.4708 8.68355   4
  -1  -7  -8 59.8152 8.70405  12
   1  -7   8 68.2315 8.37789  14
  -1  -7  -8 74.8428 9.63448   5
  -1   7  -8 69.2955 8.06664   3
   1   7   8 61.6275 7.06778  10
   1   7   8 66.9030 7.58073   6
  -3  -7  -8 231.729 14.8412  12
   3  -7   8 213.343 13.2860   4
  -3  -7  -8 229.710 15.1475   5
   3   7   8 198.434 12.1838  10
  -3   7  -8 212.364 12.8626   8
  -3   7  -8 190.627 12.6790   3
   3   7   8 189.401 11.7904   6
  -8  -8   8 200.564 16.2172   2
   8  -8  -8 213.193 13.3900   5
   8   8  -8 191.538 9.90297   9
  -8   8   8 208.452 12.9932   2
  -8   8   8 201.322 11.7634  15
  -8   8   8 194.592 11.3439   6
   8   8  -8 203.596 13.9668   1
   6  -8  -8 6.78246 5.15961   5
   6  -8  -8 -0.3943 2.55844  11
  -6  -8   8 8.21711 5.80706   2
  -6  -8   8 7.91905 5.09030  14
   6  -8  -8 2.79754 3.11554  12
   6   8  -8 7.62084 4.10610   1
  -6   8   8 9.92582 4.23168   2
   6   8  -8 2.80265 2.53747   9
  -6   8   8 0.84389 2.74425   6
  -4  -8   8 397.072 20.2272   2
  -4  -8   8 403.710 17.3058  14
   4  -8  -8 408.081 18.8256   5
  -4  -8   8 408.093 16.7648   4
   4   8  -8 395.140 16.9643   1
  -4   8   8 417.055 17.6076   2
  -4   8   8 392.828 15.7246   6
   4   8  -8 417.672 15.4258   9
   2  -8  -8 54.9572 9.17096   5
   2  -8  -8 61.0868 7.86838  12
   2  -8  -8 68.6427 5.97681  16
  -2  -8   8 56.7215 8.42813   4
  -2  -8   8 58.2874 8.38099  14
   2  -8  -8 57.0275 6.38592  11
  -2   8   8 48.1017 6.31517  10
   2   8  -8 58.0591 6.81542   9
  -2   8   8 54.0081 6.37684   6
   0  -8  -8 160.946 12.9522   5
   0  -8  -8 176.946 12.2194  12
   0  -8   8 173.339 12.5990   4
   0  -8   8 170.414 12.0473  14
   0   8  -8 180.180 10.2342   9
   0   8  -8 205.240 11.2762   3
   0   8   8 173.653 10.4940  10
   0   8   8 164.030 10.6602   6
   2  -8   8 18.3981 5.31912   4
   2  -8   8 19.2333 4.67770  14
  -2  -8  -8 25.4239 6.55821   5
  -2  -8  -8 13.2602 6.29300  12
  -2   8  -8 17.3259 4.32864   9
   2   8   8 15.5884 4.93973   6
   2   8   8 10.2363 3.81390  10
  -7  -9   8 -5.0250 4.12674  14
   7  -9  -8 -1.0533 2.71025   5
  -7  -9   8 0.32273 5.91120   2
   7   9  -8 4.70369 4.04897   1
   7   9  -8 3.18733 2.52797   9
  -7   9   8 5.51014 4.91502  15
  -7   9   8 0.56820 2.75538   2
  -7   9   8 -0.9355 2.81764   6
  -5  -9   8 88.8797 10.4159  14
   5  -9  -8 61.4206 9.44774   5
   5  -9  -8 82.3324 7.19486  11
  -5  -9   8 68.1204 11.4436   2
  -5   9   8 58.8808 7.35610   6
   5   9  -8 67.0142 6.94814   9
   5   9  -8 60.2448 8.06346   1
  -5   9   8 69.0586 8.46675   2
   3  -9  -8 39.6917 6.02712  12
   3  -9  -8 50.0915 6.35939  11
   3  -9  -8 50.9584 9.49673   5
  -3  -9   8 31.6308 6.27235  14
  -3  -9   8 61.5086 8.63710   4
   3   9  -8 39.0213 5.46805   9
  -3   9   8 47.2651 6.41544  10
  -3   9   8 36.0466 6.01223   6
   1  -9  -8 47.8818 7.74562  12
   1  -9  -8 47.2107 8.90736   5
  -1  -9   8 36.1816 6.53170  14
   1  -9  -8 44.9102 5.73717  11
  -1  -9   8 42.3745 7.30474   4
  -1   9   8 35.5349 5.46774  10
   1   9  -8 35.5605 5.61151   9
  -1   9   8 35.7902 5.95550   6
   1  -9   8 94.7990 10.0211  14
  -1  -9  -8 99.8819 12.3831   5
   1  -9   8 105.242 11.9896   4
  -1  -9  -8 74.5183 9.42828  12
   1   9   8 94.8680 9.09232   6
  -1   9  -8 104.373 7.88178   9
  -6 -10   8 195.050 16.4272   2
  -6 -10   8 223.274 14.5068  14
   6 -10  -8 235.949 15.0999   5
   6 -10  -8 206.555 11.3693  11
   6  10  -8 224.028 15.3825   1
   6  10  -8 242.282 12.2353   9
  -6  10   8 253.194 13.4415   6
   4 -10  -8 64.9561 7.45470  11
  -4 -10   8 76.1878 10.2041  14
   4 -10  -8 72.4495 10.4304   5
   4  10  -8 79.5374 8.45793   9
  -4  10   8 86.3846 9.36142   6
   2 -10  -8 322.376 14.2642  11
  -2 -10   8 355.025 17.6060  14
  -2 -10   8 327.855 17.3156   4
   2 -10  -8 316.774 17.3089   5
   2  10  -8 322.120 14.7377   9
   0 -10  -8 128.847 8.78388  11
   0 -10  -8 93.8668 11.6295   5
   0 -10   8 131.393 11.3683  14
   0 -10   8 131.011 12.2384   4
   0  10   8 124.228 10.0626   6
   0  10  -8 117.152 9.10649   9
  -5 -11   8 106.198 13.8784  14
  -5 -11   8 87.4230 16.5617   2
   5 -11  -8 115.024 9.39259  11
   5 -11  -8 124.130 15.5522   5
   5  11  -8 124.754 9.48057   9
  -5  11   8 127.243 10.1149   6
  -3 -11   8 51.3322 8.98579   4
  -3 -11   8 58.9062 9.35838  14
   3 -11  -8 56.6133 8.98817   5
   3 -11  -8 60.0913 7.20785  11
  -3  11   8 49.7878 7.15220   6
   3  11  -8 83.0243 8.87686   9
 -12   0   9 -4.3303 6.03121  15
 -12   0   9 -5.2677 3.76409   8
 -10   0   9 8.78096 5.29711  15
  10   0  -9 3.39412 3.31701   1
 -10   0   9 -1.0885 4.36456   2
  -8   0   9 -3.6560 4.35866   2
  -8   0   9 -0.5693 3.88480  15
   8   0  -9 0.01272 2.65427   1
  -6   0   9 -2.1418 2.27145  15
   6   0  -9 5.52296 2.88362  12
  -6   0   9 0.41870 2.35496  14
  -6   0   9 3.48037 4.54709   2
   4   0  -9 -0.3300 2.17640   3
  -4   0   9 0.20237 3.57114   2
  -4   0   9 0.97005 2.63170  14
   4   0  -9 0.98488 2.35737  12
  -4   0   9 0.59742 1.83693  10
  -4   0   9 -0.3908 1.84698  15
  -2   0   9 1.76716 1.57588  10
   2   0  -9 0.46663 2.83777   3
   2   0  -9 -5.6546 2.38615  12
  -2   0   9 -0.6610 2.97583   2
   2   0  -9 0.05195 1.38527  16
  -2   0   9 -2.0360 2.18940  14
  -2   0   9 -0.3902 1.72534   4
   0   0  -9 -3.2971 2.43093  16
   0   0  -9 2.77633 3.80363   3
   0   0   9 1.63536 2.62978  14
   0   0   9 1.16321 2.52686  10
   0   0  -9 -1.3837 3.25316  12
   0   0   9 4.57672 2.80113   4
   2   0   9 -0.1010 1.94973  10
  -2   0  -9 -0.8634 4.30785   3
   2   0   9 0.39567 2.23324  14
   2   0   9 3.07278 3.15588   4
  -2   0  -9 -6.0368 3.56511  12
   4   0   9 -0.8241 3.47461  10
  -4   0  -9 -1.0295 3.98191  12
  -4   0  -9 0.70669 5.31634   3
 -11  -1   9 61.4032 8.83190   2
 -11  -1   9 72.0844 10.6929  15
 -11  -1   9 67.4477 9.54769   8
 -11   1   9 64.8336 8.89944   8
  11   1  -9 55.6249 8.36277   1
 -11   1   9 67.0853 8.71418   2
 -11   1   9 68.2343 10.1121  15
   9  -1  -9 116.923 7.71783   5
  -9  -1   9 117.043 11.2167   2
   9  -1  -9 101.897 8.69149   1
  -9  -1   9 116.492 11.5805  15
  -9   1   9 107.497 10.5617  15
   9   1  -9 109.617 9.49824   1
  -9   1   9 111.540 9.61728   2
  -7  -1   9 98.0109 8.13249  15
   7  -1  -9 96.2029 7.45395  12
   7  -1  -9 102.541 8.97517   1
  -7  -1   9 96.8819 6.89219  14
  -7  -1   9 104.078 10.8203   2
   7  -1  -9 97.8484 6.94737   5
  -7   1   9 98.7070 6.50833  14
  -7   1   9 103.090 8.79510  15
   7   1  -9 90.0326 9.29617   1
   7   1  -9 98.3205 7.10935  12
  -7   1   9 88.1031 9.93177   2
  -5  -1   9 256.330 11.2091  14
  -5  -1   9 247.675 11.2551  15
   5  -1  -9 255.146 10.3959   5
  -5  -1   9 282.118 14.9831   2
  -5  -1   9 255.444 10.2776  10
   5  -1  -9 287.418 11.9196  12
  -5   1   9 255.863 10.5816  14
   5   1  -9 266.609 11.2280  12
  -5   1   9 252.973 11.1339  15
  -5   1   9 251.502 13.6141   2
   3  -1  -9 178.609 9.76855  12
  -3  -1   9 181.029 9.60657  14
  -3  -1   9 175.782 8.17897   4
   3  -1  -9 179.363 9.45658   3
   3  -1  -9 166.216 8.51113   5
   3  -1  -9 179.811 7.94507  16
  -3  -1   9 179.446 8.78902  10
  -3  -1   9 179.606 11.2555   2
  -3   1   9 173.628 9.15769  14
  -3   1   9 173.576 9.04034  10
   3   1  -9 172.024 9.61926   3
  -3   1   9 167.329 10.2184   2
   3   1  -9 169.795 9.04686  12
   3   1  -9 172.662 7.89530  16
  -1  -1   9 71.7666 6.19614  10
   1  -1  -9 65.6186 6.09874  16
  -1  -1   9 71.4294 6.68999  14
   1  -1  -9 66.4871 7.59318  12
  -1  -1   9 65.7188 6.12870   4
   1  -1  -9 74.0884 6.31094   5
  -1  -1   9 55.7682 6.76601   2
   1  -1  -9 64.6003 7.16472   3
   1   1  -9 63.8666 6.92118  12
  -1   1   9 65.0107 5.85316  10
   1   1  -9 74.8082 8.15706   3
  -1   1   9 60.3207 6.11960   2
  -1   1   9 68.2675 6.22951  14
   1   1  -9 64.7118 6.08124  16
  -1  -1  -9 187.245 10.7212  16
  -1  -1  -9 200.640 11.7849  12
  -1  -1  -9 231.876 13.1774   3
   1  -1   9 193.814 11.2323   4
   1  -1   9 199.023 11.2668  10
   1  -1   9 196.219 9.98177  14
  -1   1  -9 180.834 10.5764  16
   1   1   9 189.624 11.1908  10
   1   1   9 189.403 10.1832  14
  -1   1  -9 180.000 12.4456   3
  -1   1  -9 200.602 11.2281  12
   3  -1   9 -1.1813 2.77844  10
   3  -1   9 0.08890 3.27966   4
  -3  -1  -9 -2.5862 3.96179  12
  -3  -1  -9 5.89960 5.10688   3
  -3   1  -9 0.22151 4.97666  12
   3   1   9 -1.9659 1.77698  10
  -3   1  -9 -1.2644 4.49614   3
 -12  -2   9 200.501 16.9159   8
 -12   2   9 183.437 13.5109   8
  12   2  -9 176.377 12.6256   1
 -10  -2   9 179.571 13.8293   2
 -10  -2   9 161.021 12.4147  15
  10  -2  -9 183.726 10.5807   5
  10   2  -9 179.614 12.5828   1
 -10   2   9 188.726 13.4331  15
 -10   2   9 175.957 11.8986   8
 -10   2   9 173.249 12.3856   2
   8  -2  -9 308.787 13.3393  12
   8  -2  -9 294.273 14.2321   1
  -8  -2   9 327.205 16.0341  15
  -8  -2   9 316.792 17.7652   2
  -8   2   9 286.863 15.3189   2
  -8   2   9 313.433 15.0034  15
   8   2  -9 302.091 15.4743   1
   6  -2  -9 326.656 13.5870  12
  -6  -2   9 352.691 17.3142   2
   6  -2  -9 334.736 12.9295   5
  -6  -2   9 354.765 14.5881  15
  -6  -2   9 330.927 12.8850  14
  -6   2   9 346.279 13.7312  15
   6   2  -9 347.127 17.1217   1
   6   2  -9 357.317 13.1829  12
  -6   2   9 349.910 15.4897   2
  -6   2   9 342.397 12.4788  14
   4  -2  -9 309.973 12.4438   5
   4  -2  -9 314.231 13.1285  12
  -4  -2   9 315.077 13.0151  14
   4  -2  -9 316.327 12.3227   3
  -4  -2   9 302.763 15.4137   2
  -4  -2   9 300.397 11.2981  10
  -4   2   9 315.981 14.0720   2
  -4   2   9 304.891 11.9481  14
   4   2  -9 323.680 12.1412  12
   4   2  -9 318.000 13.2587   3
   2  -2  -9 449.663 14.5306  16
  -2  -2   9 477.847 15.4913   4
  -2  -2   9 440.410 14.9285  10
   2  -2  -9 469.007 16.9355  12
   2  -2  -9 456.130 16.0567   5
   2  -2  -9 465.864 16.1827   3
  -2  -2   9 462.503 17.4294   2
  -2  -2   9 486.459 16.6124  14
  -2   2   9 443.981 13.1065   6
   2   2  -9 447.780 15.0669  12
  -2   2   9 473.699 16.3933  10
  -2   2   9 456.727 16.2129   2
  -2   2   9 458.008 15.6974  14
   2   2  -9 459.399 14.8278  16
   2   2  -9 433.824 16.3714   3
   0  -2   9 324.357 14.0373   4
   0  -2  -9 340.754 14.3140   5
   0  -2  -9 296.471 12.5350  16
   0  -2  -9 305.685 14.3824  12
   0  -2   9 325.270 13.5364  14
   0  -2  -9 313.335 14.4899   3
   0  -2   9 314.981 13.3913  10
   0   2   9 325.558 11.8110   6
   0   2  -9 328.893 15.1121   3
   0   2  -9 285.744 12.6071  16
   0   2  -9 291.400 12.5386  12
   0   2   9 313.989 13.2018  14
   0   2   9 304.489 13.8847  10
   2  -2   9 260.807 11.9121  14
  -2  -2  -9 250.807 14.3757   3
   2  -2   9 254.751 13.2590  10
  -2  -2  -9 286.464 15.0134  12
  -2  -2  -9 252.584 13.0461   5
   2  -2   9 279.502 14.0407   4
  -2   2  -9 258.094 12.6844  12
  -2   2  -9 266.743 15.2477   3
  -2   2  -9 252.394 11.6733   8
   2   2   9 238.660 13.3777  10
   2   2   9 281.465 12.5583  14
   4  -2   9 196.998 12.3228  10
  -4  -2  -9 202.481 14.7396   3
  -4  -2  -9 202.854 13.5255  12
   4  -2   9 227.758 13.5983   4
  -4   2  -9 211.279 14.9966   3
   4   2   9 215.652 13.7592  10
 -11  -3   9 44.4440 8.57051   2
 -11  -3   9 37.4041 8.92244  15
  11  -3  -9 56.7128 7.25844   5
 -11   3   9 40.5316 6.33156   2
 -11   3   9 53.7370 9.28009  15
  11   3  -9 36.6229 7.35055   1
  -9  -3   9 639.342 24.3758  15
   9  -3  -9 612.916 20.0925   5
  -9  -3   9 619.569 25.7808   2
  -9   3   9 648.300 23.0550  15
   9   3  -9 638.074 23.9465   1
  -9   3   9 619.126 23.3687   2
   7  -3  -9 190.272 11.5882   1
  -7  -3   9 180.535 11.4123  15
   7  -3  -9 181.497 10.2994  12
   7  -3  -9 177.550 10.0202   5
  -7  -3   9 163.921 13.1764   2
  -7  -3   9 171.981 9.58664  14
  -7   3   9 168.543 10.5171  15
  -7   3   9 193.415 12.2856   2
  -7   3   9 168.098 8.38308  14
   7   3  -9 176.225 12.0584   1
   5  -3  -9 1011.97 26.7099  12
  -5  -3   9 946.754 29.6342   2
  -5  -3   9 950.325 25.4885  14
   5  -3  -9 947.555 25.2653   5
  -5   3   9 943.681 27.8971   2
  -5   3   9 968.508 23.9912  15
   5   3  -9 981.560 22.2088   9
   5   3  -9 992.316 24.2601  12
  -5   3   9 987.023 24.5135  14
  -3  -3   9 69.0379 8.56274   2
  -3  -3   9 84.3407 5.81161  10
   3  -3  -9 84.6310 6.40047   3
   3  -3  -9 94.1431 9.07035  12
   3  -3  -9 80.1608 7.39390   5
   3  -3  -9 75.0470 5.48351  16
  -3  -3   9 79.5237 6.28850   4
  -3  -3   9 76.7290 6.73699  14
   3   3  -9 74.3154 5.70216  12
   3   3  -9 73.8755 7.54738   3
  -3   3   9 65.8400 4.99433   6
   3   3  -9 76.0239 5.56261  16
  -3   3   9 77.1915 6.68257   2
  -3   3   9 75.2655 6.53047  14
  -3   3   9 70.0894 6.35738  10
  -1  -3   9 743.911 21.1098  10
  -1  -3   9 746.533 22.3979  14
  -1  -3   9 747.601 22.0044   4
   1  -3  -9 743.904 20.9817  16
   1  -3  -9 767.728 23.5582  12
   1  -3  -9 773.180 22.3347   3
   1  -3  -9 748.751 22.8766   5
  -1  -3   9 728.875 23.1145   2
   1   3  -9 757.889 23.3922   3
  -1   3   9 752.596 21.8633  14
  -1   3   9 747.112 22.6652  10
   1   3  -9 725.291 20.9002  16
  -1   3   9 750.326 19.7476   6
   1   3  -9 742.617 20.3145  12
   1  -3   9 1.31973 2.52906   4
   1  -3   9 -5.9900 2.41560  14
  -1  -3  -9 3.24871 4.25485  12
   1  -3   9 1.57031 2.73259  10
  -1  -3  -9 0.23594 3.28226  16
  -1  -3  -9 5.80452 4.19621   3
  -1  -3  -9 2.38595 3.31129   5
  -1   3  -9 -1.3126 2.76739  16
   1   3   9 -1.2444 2.35489  10
   1   3   9 -2.9894 1.92051  14
  -1   3  -9 -1.3303 2.43926   8
  -1   3  -9 -4.9262 3.27557   3
   1   3   9 -1.2876 2.30460   6
  -3  -3  -9 241.731 14.7369  12
   3  -3   9 254.180 14.1936   4
  -3  -3  -9 238.356 14.6898   3
   3  -3   9 219.829 13.1355  10
  -3  -3  -9 224.548 13.1221   5
  -3   3  -9 251.212 15.3783   3
   3   3   9 244.238 13.8115  10
  -3   3  -9 236.356 12.2787   8
  10  -4  -9 158.916 10.5206   5
 -10  -4   9 164.891 14.2736   2
 -10  -4   9 146.651 14.2313  15
  10   4  -9 173.631 12.9104   1
 -10   4   9 150.585 12.1792  15
 -10   4   9 152.931 11.4626   2
   8  -4  -9 457.525 17.2893   5
  -8  -4   9 483.867 22.6049   2
  -8  -4   9 488.264 20.0322  15
   8  -4  -9 476.803 17.1951  12
   8   4  -9 485.670 20.5340   1
  -8   4   9 484.816 19.8832   2
  -8   4   9 462.581 18.2293  15
  -6  -4   9 536.938 18.3465  14
   6  -4  -9 528.339 17.8605  12
  -6  -4   9 569.702 23.0221   2
   6  -4  -9 550.466 19.0075   5
  -6   4   9 509.714 17.2468  15
  -6   4   9 519.269 16.3833  14
   6   4  -9 557.018 15.3115   9
   6   4  -9 595.505 22.5261   1
  -6   4   9 538.602 20.3403   2
   4  -4  -9 401.648 15.5907  12
  -4  -4   9 410.812 18.6911   2
  -4  -4   9 407.987 15.8599  14
   4  -4  -9 382.146 15.7859   5
   4   4  -9 381.468 12.5800   9
  -4   4   9 379.680 14.1569  14
  -4   4   9 389.259 12.7754   6
  -4   4   9 387.049 15.9486   2
   2  -4  -9 530.007 18.9727   5
  -2  -4   9 504.998 17.3196   4
   2  -4  -9 515.957 18.8966  12
  -2  -4   9 530.799 20.1071   2
   2  -4  -9 508.263 16.1959  16
  -2  -4   9 510.111 18.3043  14
  -2   4   9 543.387 17.7849  14
  -2   4   9 520.600 15.8641   6
  -2   4   9 516.515 17.7580   2
   2   4  -9 538.627 18.8049   3
  -2   4   9 517.620 18.0887  10
   2   4  -9 507.378 16.5028  16
   0  -4  -9 166.202 11.6603  12
   0  -4  -9 152.170 9.45117  16
   0  -4  -9 158.082 10.9199   5
   0  -4   9 147.138 8.82881  10
   0  -4   9 137.829 10.1854   4
   0  -4  -9 144.538 9.58529   3
   0  -4   9 145.975 9.26151  14
   0   4   9 154.016 9.75651  10
   0   4  -9 139.424 8.74989  16
   0   4  -9 153.903 10.3047   3
   0   4   9 159.687 9.55965  14
   0   4   9 146.906 8.43345   6
   2  -4   9 91.9546 7.87470  10
  -2  -4  -9 104.900 10.2659   3
   2  -4   9 87.8080 7.66885  14
  -2  -4  -9 94.9372 10.9340  12
  -2  -4  -9 98.9336 10.7636   5
   2  -4   9 99.7226 9.48364   4
   2   4   9 112.268 9.45785  10
  -2   4  -9 89.3514 8.10598   8
  -2   4  -9 121.530 10.9289   3
  -4  -4  -9 45.1826 8.72124  12
   4  -4   9 53.5352 7.06523  10
  -4  -4  -9 62.2654 8.57333   5
   4  -4   9 71.3702 9.47204   4
  -4  -4  -9 50.1396 8.46274   3
  -4   4  -9 53.2190 8.38814   3
   4   4   9 52.4227 7.95664  10
  -4   4  -9 65.5237 8.16197   8
 -11  -5   9 33.7497 9.95495  15
 -11  -5   9 34.8640 9.14846   2
  11  -5  -9 37.5179 6.15516   5
 -11   5   9 42.2008 7.71247  15
  11   5  -9 34.4644 6.41505   1
 -11   5   9 37.9678 6.43386   2
  -9  -5   9 56.2487 10.3875   2
   9  -5  -9 69.5591 8.38760   5
  -9  -5   9 40.4202 7.81660  15
  -9   5   9 63.0777 8.51960   2
   9   5  -9 53.2421 7.95047   1
  -9   5   9 60.6275 7.91975  15
  -7  -5   9 246.417 15.6375   2
  -7  -5   9 247.368 12.5202  14
   7  -5  -9 241.002 12.1738  12
   7  -5  -9 253.266 12.9925   5
   7   5  -9 231.331 9.93989   9
  -7   5   9 214.388 13.1325   2
   7   5  -9 242.719 14.4730   1
  -7   5   9 229.888 11.6860  15
   5  -5  -9 122.561 9.07522  12
   5  -5  -9 123.466 9.76808   5
  -5  -5   9 104.359 9.20953  14
  -5  -5   9 95.2403 10.8911   2
  -5   5   9 106.412 6.91078   6
   5   5  -9 109.732 11.1832   1
   5   5  -9 107.548 6.81541   9
  -5   5   9 107.617 9.05688   2
   3  -5  -9 257.581 10.7222  16
   3  -5  -9 268.959 13.9713   5
  -3  -5   9 253.175 14.9504   2
  -3  -5   9 258.365 12.4906  14
  -3  -5   9 256.584 11.9352   4
   3  -5  -9 258.127 9.97738  11
   3  -5  -9 267.809 13.4380  12
  -3   5   9 270.187 13.0188   2
  -3   5   9 268.398 12.0891  14
   3   5  -9 264.935 12.9450   3
  -3   5   9 267.428 11.0704   6
  -3   5   9 257.492 12.3455  10
   1  -5  -9 6.67907 3.03295  16
  -1  -5   9 8.71709 4.50544   2
  -1  -5   9 5.28732 4.57130  14
  -1  -5   9 4.08420 4.02796   4
   1  -5  -9 8.16867 4.59498   5
   1  -5  -9 6.68978 4.77489  12
  -1   5   9 1.96967 2.75766  10
  -1   5   9 7.14700 3.11402   6
   1   5  -9 1.69306 3.32397   3
  -1  -5  -9 90.0485 10.3209  12
  -1  -5  -9 91.7653 8.81663   5
   1  -5   9 95.8412 8.69779  14
   1  -5   9 97.4119 9.59874   4
  -1   5  -9 112.769 10.9071   3
   1   5   9 87.3385 8.26193  10
   1   5   9 92.4462 7.73918   6
  -3  -5  -9 -4.1481 4.97889  12
   3  -5   9 -0.0063 2.19409  10
  -3  -5  -9 2.28970 4.34042   5
   3  -5   9 3.29729 3.06421   4
   3   5   9 -2.7985 2.89050  10
  -3   5  -9 -1.6146 4.52321   3
  -3   5  -9 8.01965 4.01108   8
  10  -6  -9 295.104 14.6649   5
 -10  -6   9 278.234 18.0546  15
 -10  -6   9 277.030 18.5687   2
 -10   6   9 273.887 15.4107   2
  10   6  -9 264.298 16.6613   1
 -10   6   9 271.910 15.2745  15
   8  -6  -9 220.686 11.5592  12
  -8  -6   9 210.727 16.1724   2
   8  -6  -9 241.108 13.5168   5
  -8   6   9 213.975 12.1399  15
  -8   6   9 218.585 13.0708   2
   8   6  -9 227.308 14.6836   1
  -6  -6   9 352.544 15.8410  14
  -6  -6   9 352.045 19.5789   2
   6  -6  -9 352.617 14.8631  12
   6  -6  -9 365.872 16.9206   5
   6   6  -9 375.930 18.0361   1
   6   6  -9 361.175 12.8896   9
  -6   6   9 351.830 13.5707   6
  -6   6   9 365.156 16.7985   2
  -4  -6   9 516.044 18.9319  14
   4  -6  -9 509.649 20.0750   5
   4  -6  -9 498.638 18.3065  12
  -4  -6   9 468.653 21.5985   2
   4   6  -9 495.483 16.0911   9
  -4   6   9 493.382 16.5192   6
   4   6  -9 525.205 21.3871   1
  -4   6   9 494.820 19.0545   2
   2  -6  -9 129.297 8.22953  16
  -2  -6   9 136.198 9.30959   4
  -2  -6   9 139.138 10.5492  14
  -2  -6   9 119.366 10.9202   2
   2  -6  -9 138.105 10.4870   5
   2  -6  -9 144.048 10.0374  12
   2   6  -9 117.294 9.27117   3
  -2   6   9 127.279 9.10989  10
  -2   6   9 135.760 8.55479   6
  -2   6   9 129.887 8.86169   2
   0  -6  -9 198.151 12.9937  12
   0  -6   9 204.724 12.8732   4
   0  -6  -9 223.633 14.1202   5
   0  -6   9 208.316 12.4072  14
   0   6  -9 216.071 12.8022   3
   0   6   9 196.389 11.8046  10
   0   6   9 194.734 10.9652   6
  -2  -6  -9 69.9928 9.69001   5
  -2  -6  -9 69.6334 10.3967  12
   2  -6   9 55.2464 7.44542  14
   2  -6   9 72.5573 9.47258   4
  -2   6  -9 61.8466 8.61328   3
  -2   6  -9 73.5780 8.86014   8
   2   6   9 57.2445 7.51353   6
   2   6   9 74.6890 8.93953  10
  -9  -7   9 33.3172 8.93651   2
  -9  -7   9 32.7317 7.74548  15
   9  -7  -9 41.7398 7.31710   5
   9   7  -9 33.1459 7.27896   1
  -9   7   9 38.7715 6.82789   2
  -9   7   9 33.5629 6.27216  15
   7  -7  -9 234.443 13.8874   5
  -7  -7   9 197.631 16.1770   2
   7  -7  -9 258.616 12.3264  12
  -7  -7   9 247.522 13.7170  14
   7   7  -9 220.519 10.4887   9
  -7   7   9 226.043 13.7201   2
  -7   7   9 215.987 11.3247   6
   7   7  -9 232.041 14.6798   1
  -5  -7   9 92.4843 9.82421  14
  -5  -7   9 86.5128 11.8375   2
   5  -7  -9 88.1706 8.00756  12
   5  -7  -9 89.4518 8.57996   5
  -5   7   9 83.9055 7.03344   6
   5   7  -9 90.0241 7.12770   9
  -5   7   9 97.1396 8.82305   2
   5   7  -9 98.7743 10.6040   1
   3  -7  -9 405.868 18.7399   5
  -3  -7   9 382.296 16.2557   4
  -3  -7   9 379.494 17.6132  14
   3  -7  -9 390.718 14.0598  11
  -3  -7   9 386.922 19.7967   2
   3  -7  -9 401.184 16.6269  12
  -3   7   9 407.995 15.4985   6
   3   7  -9 388.997 15.0121   9
   3   7  -9 425.491 18.7594   1
  -3   7   9 380.779 16.4306   2
  -3   7   9 412.053 16.6723  10
  -1  -7   9 6.57221 4.60204   4
  -1  -7   9 6.66858 4.98842  14
   1  -7  -9 10.2000 5.60047   5
  -1  -7   9 5.30264 4.35538   2
   1  -7  -9 8.64016 5.44413  12
   1   7  -9 4.07491 3.38929   3
  -1   7   9 6.57060 3.36412   6
  -1   7   9 4.51522 3.18851  10
   1   7  -9 6.66097 3.31893   9
   1  -7   9 381.527 17.6229   4
  -1  -7  -9 368.591 18.1315  12
   1  -7   9 375.805 16.4234  14
  -1  -7  -9 386.821 19.1962   5
  -1   7  -9 380.843 17.1946   3
   1   7   9 335.113 16.0229  10
   1   7   9 336.922 15.3611   6
   8  -8  -9 35.4856 6.90463   5
  -8  -8   9 35.5219 9.74185   2
  -8   8   9 23.9860 4.87119   6
  -8   8   9 42.7596 7.04936   2
   8   8  -9 24.1187 6.57550   1
   6  -8  -9 91.8811 7.89429  12
   6  -8  -9 87.2265 10.2640   5
  -6  -8   9 109.107 10.3432  14
  -6  -8   9 79.3568 12.0131   2
  -6   8   9 92.7214 8.01374   6
   6   8  -9 91.8851 7.03429   9
   6   8  -9 100.647 10.7591   1
  -6   8   9 92.6516 10.1323   2
   4  -8  -9 252.788 11.3941  11
   4  -8  -9 251.561 15.4200   5
   4  -8  -9 239.529 12.6778  12
  -4  -8   9 228.331 16.6081   2
  -4  -8   9 240.039 13.7407  14
   4   8  -9 266.992 14.5053   1
  -4   8   9 241.649 13.6556   2
  -4   8   9 259.144 12.7407   6
   4   8  -9 256.670 12.3070   9
   2  -8  -9 63.9445 8.97179  12
   2  -8  -9 73.5869 9.80923   5
  -2  -8   9 67.5450 8.66298   4
   2  -8  -9 84.0226 6.81076  11
  -2  -8   9 85.0043 10.3199  14
  -2  -8   9 69.0564 9.90824   2
  -2   8   9 69.4415 7.86723  10
  -2   8   9 64.2807 7.33261   6
   2   8  -9 65.3528 6.92052   9
   0  -8  -9 276.398 16.5347   5
   0  -8   9 287.268 16.0135   4
   0  -8   9 265.064 14.6093  14
   0  -8  -9 274.365 15.4254  12
   0   8  -9 274.743 14.5636   3
   0   8   9 233.045 13.2293  10
   0   8  -9 304.780 13.7331   9
   0   8   9 278.821 13.6605   6
  -7  -9   9 29.3369 8.04584   2
   7  -9  -9 26.3892 6.96350   5
  -7  -9   9 23.1968 6.83833  14
  -7   9   9 32.0567 6.10589   2
  -7   9   9 16.8182 4.78423   6
   7   9  -9 22.3432 6.26750   1
   7   9  -9 21.4973 4.41145   9
  -5  -9   9 289.546 16.1109  14
   5  -9  -9 249.862 15.6888   5
  -5  -9   9 254.443 17.8985   2
   5   9  -9 292.099 15.6704   1
   5   9  -9 256.818 12.7164   9
  -5   9   9 263.874 14.7931   2
  -5   9   9 243.690 12.8909   6
  -3  -9   9 8.33890 4.25809  14
   3  -9  -9 8.38483 4.45670  12
   3  -9  -9 13.7556 3.92104  11
   3  -9  -9 4.46824 5.78065   5
  -3  -9   9 15.0108 6.47888   2
  -3  -9   9 6.31477 4.67239   4
  -3   9   9 6.97172 3.56489  10
   3   9  -9 1.02962 2.91993   9
  -3   9   9 6.17517 3.63140   6
   1  -9  -9 120.044 12.4221   5
  -1  -9   9 118.923 11.0089  14
   1  -9  -9 126.472 10.7217  12
   1  -9  -9 129.355 8.55620  11
  -1  -9   9 122.444 11.4000   4
  -1   9   9 103.440 8.91970  10
  -1   9   9 122.136 9.14547   6
   1   9  -9 99.6250 8.07107   9
  -6 -10   9 6.07398 5.66833  14
  -6 -10   9 11.3677 7.76563   2
   6  10  -9 9.90438 3.82602   9
  -6  10   9 8.16252 3.92772   6
  -4 -10   9 46.1789 9.62150   2
   4 -10  -9 19.7822 7.05852   5
   4 -10  -9 24.3986 4.97265  11
  -4 -10   9 25.6149 7.55585  14
   4  10  -9 35.8181 5.80696   9
  -4  10   9 29.8163 6.19751   6
  -4  10   9 24.1419 5.04389  10
  -2 -10   9 17.8123 6.11872  14
   2 -10  -9 16.5607 3.95902  11
   2 -10  -9 26.2827 7.99484   5
  -2 -10   9 13.9205 6.03480   2
  -2 -10   9 11.6768 5.74747   4
  -2  10   9 9.84600 3.81799  10
   2  10  -9 13.9388 4.33651   9
  -2  10   9 18.1956 5.11254   6
 -10   0  10 999.676 31.6481  15
  10   0 -10 995.849 30.4558   1
 -10   0  10 897.398 31.0114   2
  -8   0  10 2.80843 5.19749   2
   8   0 -10 5.63137 3.83964   1
  -8   0  10 6.91094 4.61609  15
  -6   0  10 1021.76 25.9382  14
  -6   0  10 1005.71 27.2286  15
  -6   0  10 968.148 30.3147   2
   6   0 -10 1008.58 26.8028  12
  -4   0  10 21.3873 4.01790  10
   4   0 -10 22.5251 4.74002  12
  -4   0  10 12.2755 4.97372   2
   4   0 -10 18.3932 4.35635   3
  -4   0  10 21.6540 4.57312  14
   2   0 -10 360.089 15.3876   3
  -2   0  10 320.418 13.7173  10
  -2   0  10 335.005 13.6405  14
  -2   0  10 338.317 14.6438   2
   2   0 -10 318.336 12.5927  16
   2   0 -10 375.876 15.0830  12
   0   0 -10 110.603 9.34602  12
   0   0  10 123.913 8.79257  10
   0   0  10 106.414 8.25992  14
   0   0 -10 108.108 9.08071   3
   0   0 -10 98.5409 8.21009  16
  -2   0 -10 184.676 12.8771   3
  -2   0 -10 196.846 12.4354  12
   2   0  10 201.356 12.5099  10
   2   0  10 211.342 10.7895  14
 -11  -1  10 193.335 14.8014  15
 -11  -1  10 178.768 13.5657   2
  11   1 -10 190.807 13.0086   1
 -11   1  10 208.132 14.9808  15
 -11   1  10 177.559 13.2121   2
   9  -1 -10 81.7154 9.07245   1
  -9  -1  10 82.6963 11.3945   2
  -9  -1  10 87.7142 10.5270  15
  -9   1  10 87.2283 10.6411   2
   9   1 -10 86.4842 9.78697   1
  -9   1  10 97.8229 10.8481  15
   7  -1 -10 46.4006 6.44081  12
   7  -1 -10 44.7144 7.63908   1
  -7  -1  10 32.8780 5.13553  14
  -7  -1  10 43.7034 6.95321  15
  -7  -1  10 27.2753 6.31187   2
   7   1 -10 34.5429 7.07319   1
   7   1 -10 43.9856 6.05029  12
  -7   1  10 48.9429 5.79488  14
  -7   1  10 43.7438 7.95102   2
  -7   1  10 42.8822 6.75106  15
   5  -1 -10 308.987 13.4136  12
  -5  -1  10 276.424 15.6879   2
  -5  -1  10 302.261 13.0831  15
  -5  -1  10 320.817 13.1561  14
  -5  -1  10 310.598 12.2780  10
   5   1 -10 321.910 13.1022  12
  -5   1  10 293.423 12.2751  14
  -5   1  10 331.068 15.4498   2
  -5   1  10 313.084 12.7925  10
   3  -1 -10 3.48159 2.46460  16
   3  -1 -10 4.98699 3.33018   3
   3  -1 -10 3.39593 3.64922  12
  -3  -1  10 3.61096 2.38384   4
  -3  -1  10 13.3536 4.10410  14
  -3  -1  10 3.25158 3.95728   2
  -3  -1  10 3.04925 2.45466  10
  -3   1  10 -0.6763 3.26420   2
  -3   1  10 4.39047 2.71211  10
   3   1 -10 1.05298 2.09304  16
   3   1 -10 3.25493 3.25393   3
   3   1 -10 7.25570 3.50620  12
  -3   1  10 4.98245 2.60267  14
   1  -1 -10 117.326 9.51747  12
  -1  -1  10 110.204 8.14919  10
  -1  -1  10 129.265 9.08071  14
   1  -1 -10 121.718 9.83634   3
  -1  -1  10 125.672 8.88874   4
   1   1 -10 127.118 9.05640  12
  -1   1  10 126.406 9.01609  10
   1   1 -10 108.649 7.94180  16
   1   1 -10 102.525 9.69027   3
  -1   1  10 122.754 8.75911  14
   1  -1  10 61.7682 7.56851  10
  -1  -1 -10 77.9426 9.69985  12
   1  -1  10 78.8524 8.09713   4
   1  -1  10 75.9586 7.05424  14
  -1  -1 -10 78.7038 9.46131   3
   1   1  10 68.9958 7.83802  10
  -1   1 -10 75.8133 8.77499  12
  -1   1 -10 89.1584 10.1550   3
   1   1  10 75.0182 6.94994  14
  -3  -1 -10 1.52998 5.00291   3
   3  -1  10 1.14266 3.46172  10
  -3  -1 -10 -0.0378 4.30531  12
  -3   1 -10 -1.8993 5.00703   3
   3   1  10 1.79110 3.79400  10
 -10  -2  10 16.8200 7.21780  15
  10  -2 -10 17.6449 4.13487   5
 -10  -2  10 11.0262 5.32915   2
 -10   2  10 11.9339 5.22432   2
 -10   2  10 17.1515 6.39986  15
  10   2 -10 7.21078 4.41364   1
   8  -2 -10 131.919 10.3321   1
   8  -2 -10 139.687 9.50550  12
  -8  -2  10 133.312 12.7848   2
   8  -2 -10 135.211 8.67801   5
  -8  -2  10 150.531 11.6524  15
   8   2 -10 151.137 11.9330   1
  -8   2  10 114.133 10.7767   2
  -8   2  10 122.427 10.2198  15
  -6  -2  10 56.3480 9.18358   2
  -6  -2  10 53.3087 6.97958  15
   6  -2 -10 60.5403 6.44697   5
   6  -2 -10 54.7549 7.19284  12
  -6  -2  10 66.3853 7.31394  14
   6   2 -10 65.7369 6.27225  12
  -6   2  10 57.6735 6.98729  15
  -6   2  10 66.4399 8.43786   2
  -6   2  10 66.2672 5.81995  14
   6   2 -10 55.6609 8.60493   1
   4  -2 -10 648.511 19.9992   3
  -4  -2  10 652.992 20.7686  14
   4  -2 -10 658.664 21.0908  12
  -4  -2  10 636.114 18.8216  10
  -4  -2  10 642.898 23.7091   2
   4   2 -10 662.906 21.3050   3
   4   2 -10 670.811 19.7037  12
  -4   2  10 620.728 21.6717   2
  -4   2  10 640.803 19.8402  14
  -4   2  10 652.128 20.5080  10
   2  -2 -10 1.10060 2.49418  16
  -2  -2  10 4.22243 3.96810   2
   2  -2 -10 1.60005 3.64075  12
   2  -2 -10 1.60883 3.05274   3
  -2  -2  10 1.72003 2.64174   4
  -2  -2  10 6.20900 2.72952  10
   2  -2 -10 3.96604 3.30875   5
  -2  -2  10 3.67065 3.65573  14
  -2   2  10 5.40962 3.03371  14
   2   2 -10 0.80185 2.81773  12
  -2   2  10 0.91387 3.04696   2
   2   2 -10 -3.4067 3.11597   3
  -2   2  10 -0.7989 2.25437  10
   2   2 -10 -0.2732 2.04617  16
   0  -2 -10 640.456 20.6663  16
   0  -2  10 663.241 21.7670   4
   0  -2  10 606.125 20.9222  10
   0  -2  10 620.149 20.3979  14
   0  -2 -10 667.901 22.4227   3
   0  -2 -10 631.565 22.5116  12
   0   2  10 597.860 21.5181  10
   0   2 -10 626.175 20.3293  12
   0   2 -10 649.309 23.3626   3
   0   2  10 645.982 20.5759  14
   0   2 -10 613.175 20.5333  16
   2  -2  10 12.2822 3.79053  14
  -2  -2 -10 0.89264 4.81253  12
   2  -2  10 8.53794 4.01062  10
   2  -2  10 8.91482 4.40535   4
  -2  -2 -10 5.94845 5.15851   3
   2   2  10 16.2726 3.78886  14
  -2   2 -10 18.7919 6.33220   3
   2   2  10 5.97551 3.77135  10
 -11  -3  10 -4.0243 5.30881   2
 -11  -3  10 5.66546 5.83552  15
 -11   3  10 13.3493 4.96102   2
 -11   3  10 2.62036 4.70289  15
  11   3 -10 0.84636 3.88813   1
   9  -3 -10 4.95253 3.41615   5
  -9  -3  10 11.8908 6.96787   2
  -9  -3  10 2.56762 4.22389  15
  -9   3  10 12.6548 5.35743   2
  -9   3  10 2.11546 4.53063  15
   9   3 -10 5.96790 3.32812   1
   7  -3 -10 0.13374 2.94732   5
  -7  -3  10 3.84225 3.63497  14
  -7  -3  10 9.09265 6.41231   2
   7  -3 -10 3.39271 3.60683  12
  -7  -3  10 7.63762 3.50143  15
  -7   3  10 3.24832 3.54328  15
  -7   3  10 3.60264 2.69109  14
  -7   3  10 1.38370 2.96530   2
   7   3 -10 7.32462 4.45603   1
   5  -3 -10 114.601 9.19839  12
  -5  -3  10 117.110 8.50494  14
  -5  -3  10 117.532 12.4296   2
   5  -3 -10 97.6728 8.23204   5
   5   3 -10 105.041 6.22454   9
  -5   3  10 117.342 8.09284  14
   5   3 -10 115.823 7.51363  12
  -5   3  10 100.322 9.06029   2
   3  -3 -10 0.48869 3.60816   5
   3  -3 -10 3.87216 3.79998  12
  -3  -3  10 4.11724 4.06053  14
  -3  -3  10 3.18602 2.95455  10
  -3  -3  10 3.06540 2.71186   4
  -3  -3  10 3.68042 4.48143   2
   3  -3 -10 4.37700 3.11365   3
  -3   3  10 6.06656 3.60381   2
   3   3 -10 4.28800 3.40832   3
  -3   3  10 4.48136 2.68144  14
   3   3 -10 6.21191 3.15235  16
  -3   3  10 7.00298 3.07628  10
   3   3 -10 7.54404 3.46589  12
   1  -3 -10 45.8924 6.17721  16
   1  -3 -10 62.1016 7.63292   5
   1  -3 -10 54.2679 6.74814   3
  -1  -3  10 52.4057 7.28576   4
  -1  -3  10 52.1683 6.78113  14
  -1  -3  10 45.5580 5.70904  10
   1  -3 -10 75.0378 9.36443  12
  -1   3  10 63.9818 7.59814  14
   1   3 -10 62.3323 8.36937   3
  -1   3  10 54.1458 6.82264  10
  -1   3  10 52.0011 5.58460   6
   1   3 -10 47.1699 6.22752  16
  -1  -3 -10 25.2934 5.96399   3
   1  -3  10 17.4499 4.57598  10
   1  -3  10 24.0436 6.02633   4
  -1  -3 -10 35.4432 7.59389  12
  -1  -3 -10 28.9273 6.30929   5
   1  -3  10 19.3706 4.90292  14
   1   3  10 22.4492 4.80108  10
   1   3  10 19.1200 4.55033  14
  -1   3 -10 17.8635 5.97627   3
   3  -3  10 11.5073 4.63556  10
  -3  -3 -10 1.03448 4.85696  12
   3  -3  10 6.64287 4.12943   4
  -3  -3 -10 -1.4218 4.61207   3
   3   3  10 3.78471 3.55645  10
  -3   3 -10 1.96995 5.39422   3
 -10  -4  10 12.5616 6.04177  15
  10  -4 -10 8.06850 3.43312   5
 -10  -4  10 4.48615 6.11542   2
 -10   4  10 -0.0542 4.46728  15
 -10   4  10 1.37038 3.60727   2
  10   4 -10 6.70654 5.21588   1
   8  -4 -10 969.228 27.4043   5
  -8  -4  10 929.229 26.1305  14
  -8  -4  10 979.685 30.6849  15
   8  -4 -10 987.981 27.8049  12
  -8  -4  10 921.151 33.0922   2
  -8   4  10 978.675 30.8971   2
   8   4 -10 992.587 32.1104   1
  -8   4  10 951.473 27.5712  15
   6  -4 -10 53.2673 7.43207  12
   6  -4 -10 54.2149 7.17176   5
  -6  -4  10 46.5057 7.21965  14
  -6  -4  10 30.9321 8.12344   2
  -6   4  10 60.5243 8.34396   2
   6   4 -10 38.4469 7.10002   1
   6   4 -10 41.0406 4.51534   9
  -6   4  10 60.2637 6.74488  14
  -4  -4  10 898.517 29.4735   2
   4  -4 -10 877.896 26.3208   5
   4  -4 -10 898.915 26.5497  12
  -4  -4  10 908.885 26.0211  14
  -4   4  10 863.666 25.7520  10
  -4   4  10 913.362 27.4224   2
  -4   4  10 888.975 24.7422  14
   2  -4 -10 174.441 9.68061  16
  -2  -4  10 184.579 12.6154   2
   2  -4 -10 184.216 11.5827  12
  -2  -4  10 207.907 11.6127   4
  -2  -4  10 180.655 11.7736  14
   2  -4 -10 198.673 12.4315   5
  -2   4  10 184.495 11.1521  10
  -2   4  10 180.855 10.3532   2
   2   4 -10 201.631 10.2996  16
  -2   4  10 206.015 9.77290   6
  -2   4  10 204.144 11.0968  14
   2   4 -10 221.726 12.6112   3
   0  -4 -10 322.285 16.4637  12
   0  -4  10 327.904 15.5368   4
   0  -4 -10 296.932 15.4984   5
   0  -4 -10 315.289 15.0839   3
   0  -4  10 316.578 14.7000  14
   0  -4  10 298.645 13.7173  10
   0   4 -10 314.764 16.0336   3
   0   4  10 322.848 14.4511  14
   0   4  10 316.842 13.1595   6
   0   4  10 325.637 15.7562  10
   2  -4  10 100.863 9.81871   4
  -2  -4 -10 107.873 11.6199  12
   2  -4  10 85.5293 7.82519  10
  -2  -4 -10 116.764 10.4632   5
  -2   4 -10 100.258 11.2351   3
   2   4  10 94.4007 8.81944  10
  -9  -5  10 172.043 13.2435  15
   9  -5 -10 168.511 11.2241   5
  -9  -5  10 138.634 14.7818   2
  -9   5  10 142.909 10.9627   2
  -9   5  10 157.486 11.1198  15
   9   5 -10 164.045 13.3323   1
   7  -5 -10 361.452 16.0310   5
   7  -5 -10 351.276 15.3383  12
  -7  -5  10 350.536 15.6861  14
  -7  -5  10 327.682 19.5377   2
  -7   5  10 330.935 16.8111   2
   7   5 -10 336.529 17.4917   1
  -5  -5  10 171.573 11.9050  14
   5  -5 -10 185.461 12.0474   5
   5  -5 -10 176.990 11.3409  12
  -5  -5  10 184.407 14.1700   2
   5   5 -10 187.917 13.8167   1
   5   5 -10 173.703 8.97625   9
  -5   5  10 163.960 11.4069   2
   3  -5 -10 627.200 21.4867  12
  -3  -5  10 599.051 19.6400   4
   3  -5 -10 601.013 21.9769   5
  -3  -5  10 613.034 21.1590  14
  -3  -5  10 589.200 23.5969   2
  -3   5  10 566.270 20.2463   2
  -3   5  10 585.065 18.1237   6
  -3   5  10 588.515 19.6912  14
   3   5 -10 598.948 21.3574   3
  -3   5  10 569.714 20.2799  10
   1  -5 -10 197.485 13.4141  12
  -1  -5  10 183.040 12.1426  14
   1  -5 -10 189.742 12.7525   5
  -1  -5  10 207.254 12.5830   4
   1   5 -10 208.875 12.6084   3
  -1   5  10 204.290 10.6002   6
  -1   5  10 197.887 12.0235  10
  -1  -5 -10 125.039 11.9029  12
   1  -5  10 148.462 10.2069  14
   1  -5  10 127.620 10.7808   4
  -1  -5 -10 150.659 12.1440   5
   1   5  10 152.850 11.0463  10
   1   5  10 140.987 9.65442   6
  -1   5 -10 148.403 11.7126   3
 -10  -6  10 158.303 16.6467   2
  10  -6 -10 152.480 11.0962   5
 -10   6  10 160.799 11.6706  15
  10   6 -10 157.676 12.8454   1
 -10   6  10 149.421 11.7983   2
   8  -6 -10 102.516 8.73064  12
   8  -6 -10 114.965 10.1357   5
  -8  -6  10 111.318 13.5094   2
  -8  -6  10 96.2606 9.30002  14
   8   6 -10 126.878 13.1938   1
  -8   6  10 110.956 9.58282   2
   6  -6 -10 313.433 16.2826   5
  -6  -6  10 321.330 19.3628   2
  -6  -6  10 311.237 14.9648  14
   6  -6 -10 356.031 15.5330  12
   6   6 -10 384.908 19.0976   1
  -6   6  10 322.159 16.2322   2
   6   6 -10 328.673 12.9206   9
  -4  -6  10 49.3215 9.36265   2
   4  -6 -10 60.1904 8.24540  12
  -4  -6  10 59.6951 8.04574  14
   4  -6 -10 53.3830 8.38806   5
   4   6 -10 62.6799 6.66186   9
  -4   6  10 46.9378 6.47218  10
  -4   6  10 48.9803 6.98361   2
  -4   6  10 42.2798 5.66580   6
   4   6 -10 47.0590 8.15331   1
  -2  -6  10 632.307 21.8612   4
   2  -6 -10 600.518 22.5557  12
   2  -6 -10 614.143 23.5547   5
  -2  -6  10 627.224 22.4861  14
  -2  -6  10 574.984 23.6453   2
  -2   6  10 625.148 22.1351  10
   2   6 -10 650.546 22.4130   3
  -2   6  10 612.583 19.7656   6
   0  -6  10 8.30131 5.13309  14
   0  -6 -10 8.14155 6.22698  12
   0  -6  10 7.60181 4.91409   4
   0  -6 -10 9.61725 5.36531   5
   0   6  10 9.31429 3.64017  10
   0   6  10 9.46756 3.83520   6
   0   6 -10 9.02739 4.67425   3
   9  -7 -10 56.4171 7.67237   5
  -9  -7  10 30.7853 7.91652  15
  -9  -7  10 32.4198 9.81837   2
   9   7 -10 54.1316 8.32266   1
  -9   7  10 43.4871 7.39686   2
   7  -7 -10 32.0095 6.92127   5
   7  -7 -10 32.9892 6.23484  12
  -7  -7  10 23.6071 6.59986  14
  -7  -7  10 29.8999 9.22739   2
  -7   7  10 30.0854 6.52784   2
   7   7 -10 28.0561 6.14096   1
   7   7 -10 23.6556 4.30042   9
   5  -7 -10 2.14726 4.11671  12
   5  -7 -10 -1.7274 4.42027   5
  -5  -7  10 1.72688 5.02385  14
  -5  -7  10 4.74607 5.82222   2
  -5   7  10 6.84409 3.78888   2
  -5   7  10 2.39655 2.81063   6
   5   7 -10 5.88637 2.81164   9
   5   7 -10 -4.1269 3.61024   1
   3  -7 -10 43.4255 7.61028  12
  -3  -7  10 40.6251 8.54584   2
  -3  -7  10 39.6084 6.80804   4
   3  -7 -10 43.9875 8.27038   5
  -3  -7  10 40.0602 7.77892  14
  -3   7  10 40.8065 6.28544   2
   3   7 -10 37.8500 7.62416   1
   3   7 -10 27.3855 5.13850   9
  -3   7  10 48.3580 7.01585  10
  -3   7  10 28.3120 4.88455   6
  -1  -7  10 12.3091 5.32776  14
  -1  -7  10 2.34273 2.88277   4
   1  -7 -10 4.54604 5.67956  12
   1  -7 -10 -1.2505 4.85536   5
   1   7 -10 1.06126 2.04403   9
   1   7 -10 5.00866 3.88393   3
  -1   7  10 -0.2066 3.09657  10
  -1   7  10 2.76494 3.33910   6
  -1  -7 -10 11.0065 5.85126   5
  -1  -7 -10 0.24811 7.04534  12
   1  -7  10 8.73691 4.92605   4
   1  -7  10 9.25800 4.59196  14
   1   7  10 9.51722 4.06259  10
  -1   7 -10 12.5406 5.13986   3
   1   7  10 7.66915 3.98717   6
   8  -8 -10 27.4267 6.73047   5
  -8  -8  10 36.3251 8.52500   2
  -8  -8  10 29.2820 9.74618  14
  -8   8  10 35.1973 7.11520   2
   8   8 -10 32.4123 7.43869   1
  -6  -8  10 192.049 16.3054   2
  -6  -8  10 190.482 12.5574  14
   6  -8 -10 228.701 14.6852   5
   6  -8 -10 206.185 11.9114  12
   6   8 -10 193.963 10.6385   9
   6   8 -10 191.850 13.8023   1
  -6   8  10 178.772 12.4023   2
  -6   8  10 200.514 11.4655   6
  -4  -8  10 4.49485 4.37086  14
  -4  -8  10 8.22018 5.72331   2
   4  -8 -10 -0.8835 5.30903   5
   4  -8 -10 -1.9766 3.99609  12
   4   8 -10 -1.4555 2.47876   9
   4   8 -10 0.74853 4.03195   1
  -4   8  10 -2.0990 2.85659  10
  -4   8  10 1.50697 2.72247   2
  -4   8  10 -1.8824 2.59587   6
   2  -8 -10 120.922 8.30780  11
  -2  -8  10 122.346 11.3642   2
   2  -8 -10 132.186 13.5161   5
   2  -8 -10 142.753 11.4330  12
  -2  -8  10 128.161 11.3627  14
  -2  -8  10 134.526 10.9426   4
  -2   8  10 139.407 10.0120   6
  -2   8  10 135.616 10.3290  10
   2   8 -10 131.085 9.52063   9
   0  -8  10 27.2387 7.08549   4
   0  -8 -10 11.0854 6.55327  12
   0  -8  10 21.8864 6.06842  14
   0  -8 -10 12.3109 6.09031   5
   0   8  10 16.3713 4.69102  10
   0   8 -10 22.8224 8.55655   3
   0   8 -10 18.5396 4.80253   9
   0   8  10 18.4610 4.65699   6
   5  -9 -10 9.35262 6.34467   5
  -5  -9  10 18.1691 7.75369   2
  -5  -9  10 15.0082 6.78409  14
  -5   9  10 15.0209 4.53411  10
   5   9 -10 7.62487 3.72085   9
  -5   9  10 14.9069 4.39742   2
  -5   9  10 4.15542 3.28513   6
  -3  -9  10 3.00173 3.88792  14
   3  -9 -10 3.12752 6.06851   5
  -3  -9  10 -0.2592 5.31118   2
   3  -9 -10 5.79461 4.70480  12
  -3   9  10 2.31899 3.31704   6
  -3   9  10 4.25459 2.86717  10
   3   9 -10 3.14464 2.82773   9
 -10   0  11 6.30776 5.75267   2
  10   0 -11 -1.2238 2.10881   1
 -10   0  11 4.23102 5.52996  15
   8   0 -11 -1.0307 2.74135  12
  -8   0  11 1.39707 4.41737  15
   8   0 -11 3.33291 3.91273   1
  -8   0  11 -0.6706 4.85721   2
  -6   0  11 8.67481 5.46888   2
  -6   0  11 1.08156 2.29497  10
  -6   0  11 2.17726 3.27055  14
   6   0 -11 4.03755 3.45056  12
  -4   0  11 -2.6740 2.17368  10
   4   0 -11 0.38078 3.26399  12
  -4   0  11 3.49157 3.53300  14
  -4   0  11 5.25395 4.16481   2
   4   0 -11 0.18723 3.16519   3
  -2   0  11 -1.4766 3.04003  14
  -2   0  11 -1.1633 2.52973  10
   2   0 -11 1.51281 3.50878  12
   2   0 -11 0.01195 3.36977   3
   2   0 -11 -0.8074 2.63808  16
   0   0 -11 3.64142 4.24991   3
   0   0  11 -0.4444 2.96174  10
   0   0 -11 2.64490 4.19647  12
   0   0  11 3.46133 3.07631  14
   2   0  11 -3.0067 2.04625  10
  -2   0 -11 4.26346 4.76693   3
  -2   0 -11 -3.6130 3.52036  12
 -11  -1  11 22.9337 7.05085   2
 -11  -1  11 17.7318 7.33988  15
 -11   1  11 17.1107 6.88563  15
  11   1 -11 14.6065 5.56938   1
 -11   1  11 20.0909 6.44373   2
  -9  -1  11 339.355 17.0410  15
  -9  -1  11 364.311 19.9069   2
   9  -1 -11 376.393 18.1881   1
  -9   1  11 340.520 17.1658  15
  -9   1  11 314.091 17.7984   2
   9   1 -11 352.954 17.7602   1
  -7  -1  11 -2.4495 2.80662  14
  -7  -1  11 3.68800 3.95854  15
  -7  -1  11 -3.3444 5.02864   2
   7  -1 -11 1.15372 3.26000  12
   7   1 -11 5.93980 3.19789  12
  -7   1  11 -6.0869 2.88302  15
  -7   1  11 -0.7957 4.09359   2
   7   1 -11 -1.6756 3.75308   1
  -7   1  11 5.24788 3.22378  14
  -5  -1  11 198.430 10.4173  10
  -5  -1  11 198.773 13.6242   2
   5  -1 -11 231.118 12.2036  12
  -5  -1  11 219.653 11.8387  14
  -5   1  11 198.997 11.1016  10
   5   1 -11 218.707 11.3158  12
  -5   1  11 222.803 11.5119  14
  -5   1  11 218.981 13.3650   2
  -3  -1  11 31.5230 5.00329   4
  -3  -1  11 27.5076 4.84219  10
  -3  -1  11 26.8310 5.83803   2
   3  -1 -11 30.9754 6.20657  12
   3  -1 -11 25.3711 5.39848   3
  -3  -1  11 29.2587 5.97303  14
   3   1 -11 28.3620 5.31840   3
  -3   1  11 40.3767 6.50618  14
  -3   1  11 26.8916 5.29891   2
   3   1 -11 28.6138 5.33318  12
  -3   1  11 24.4419 4.88819  10
  -1  -1  11 64.6674 7.68527  10
  -1  -1  11 73.7550 7.55442   4
   1  -1 -11 83.9223 9.47338  12
   1  -1 -11 65.1936 8.23275   3
  -1  -1  11 75.4652 8.49564  14
  -1   1  11 77.6701 8.57874  14
  -1   1  11 67.8255 8.06823  10
   1   1 -11 62.1750 8.94604   3
   1   1 -11 58.2167 7.63850  12
  -1  -1 -11 51.2198 8.10314   3
   1  -1  11 41.9221 6.74700  10
   1  -1  11 56.0118 7.17296  14
  -1  -1 -11 44.6374 7.71109  12
  -1   1 -11 43.8483 8.09800   3
   1   1  11 64.4682 7.30670  14
   1   1  11 36.3986 6.48679  10
  -1   1 -11 45.6275 7.30084  12
 -10  -2  11 279.335 18.3686   2
 -10  -2  11 342.581 18.4231  15
 -10   2  11 322.194 17.0129  15
  10   2 -11 311.981 17.5056   1
 -10   2  11 314.544 17.6927   2
  -8  -2  11 474.301 20.1379  15
  -8  -2  11 446.305 21.5834   2
   8  -2 -11 465.630 18.1704  12
  -8  -2  11 464.295 16.7760  14
  -8   2  11 437.706 18.1342  15
   8   2 -11 484.496 22.0022   1
  -8   2  11 457.165 21.0129   2
  -6  -2  11 359.743 15.3886  14
   6  -2 -11 354.166 15.6806  12
  -6  -2  11 362.154 19.2848   2
  -6  -2  11 361.834 15.8892  15
  -6   2  11 362.556 14.7419  14
   6   2 -11 370.227 14.7254  12
  -6   2  11 346.865 15.0630  10
  -6   2  11 341.508 16.8336   2
  -4  -2  11 356.053 17.8027   2
  -4  -2  11 340.962 13.8089  10
   4  -2 -11 363.530 15.8231  12
  -4  -2  11 357.019 15.7565  14
   4  -2 -11 355.174 15.0787   3
   4   2 -11 364.539 14.4046  12
  -4   2  11 343.444 15.0059  10
  -4   2  11 332.119 16.0161   2
  -4   2  11 364.016 14.8988  14
   4   2 -11 394.734 16.8275   3
  -2  -2  11 275.276 13.0014   4
   2  -2 -11 267.995 14.4779  12
  -2  -2  11 248.242 12.3583  10
  -2  -2  11 264.369 13.6451  14
   2  -2 -11 255.306 13.4961   3
   2  -2 -11 238.685 11.6342  16
   2   2 -11 253.389 11.8823  16
  -2   2  11 274.984 13.4328  14
   2   2 -11 301.980 15.1408   3
   2   2 -11 254.355 12.3163  12
  -2   2  11 271.117 13.7704  10
   0  -2 -11 149.047 11.5908  12
   0  -2  11 134.191 9.84188  10
   0  -2  11 133.514 9.67342  14
   0  -2  11 138.644 9.93872   4
   0  -2 -11 114.288 10.5521   3
   0   2 -11 129.544 11.4316   3
   0   2  11 141.995 9.95971  14
   0   2  11 127.193 10.1799  10
  -2  -2 -11 94.4555 11.6383  12
   2  -2  11 106.084 9.07253  10
  -2  -2 -11 89.6467 11.1645   3
   2   2  11 105.826 10.1275  10
  -2   2 -11 102.688 13.4862   3
   2   2  11 122.421 8.66361  14
   9  -3 -11 10.5803 3.79081   5
  -9  -3  11 2.07639 6.41619   2
  -9  -3  11 6.56943 5.20132  15
   9   3 -11 1.32278 3.10598   1
  -9   3  11 7.90649 4.89427  15
  -9   3  11 6.23180 4.81218   2
   7  -3 -11 367.538 16.0837  12
  -7  -3  11 344.975 15.2324  14
  -7  -3  11 333.509 19.6429   2
  -7  -3  11 365.702 16.9219  15
   7  -3 -11 344.742 14.5549   5
  -7   3  11 346.091 14.0416  14
   7   3 -11 369.662 19.4855   1
  -7   3  11 353.289 17.6027   2
  -5  -3  11 1.78055 5.45075   2
   5  -3 -11 10.4421 4.74269  12
   5  -3 -11 9.34982 4.21215   5
  -5  -3  11 2.44178 4.20276  14
   5   3 -11 6.50148 2.35170   9
  -5   3  11 7.37708 3.66728  10
   5   3 -11 13.4032 3.72318  12
  -5   3  11 9.86318 3.47281  14
  -5   3  11 12.3702 4.77163   2
  -3  -3  11 538.996 22.4046   2
  -3  -3  11 582.015 19.7119   4
   3  -3 -11 572.079 19.4952   3
  -3  -3  11 615.557 21.2921  14
   3  -3 -11 596.799 21.8037  12
  -3   3  11 565.756 20.6956  10
   3   3 -11 588.912 21.6121   3
  -3   3  11 595.782 20.1293  14
  -3   3  11 581.918 20.6888   2
   1  -3 -11 25.0461 6.80143  12
  -1  -3  11 19.5269 4.08844  10
   1  -3 -11 22.4726 5.29711   3
  -1  -3  11 27.4998 5.81973   4
  -1  -3  11 21.0974 5.22462  14
  -1   3  11 26.6678 5.59077  10
  -1   3  11 24.4567 5.10912  14
   1   3 -11 24.9412 6.53601   3
   1  -3  11 279.843 13.5795  14
  -1  -3 -11 274.762 15.8834  12
  -1  -3 -11 266.905 15.0054   3
   1  -3  11 256.075 13.8426  10
   1  -3  11 277.683 14.6312   4
   1   3  11 268.199 14.9272  10
  -1   3 -11 265.442 15.8801   3
   1   3  11 281.374 13.6172  14
 -10  -4  11 1.57220 6.17679   2
  10  -4 -11 6.75567 3.34436   5
 -10  -4  11 10.7167 6.12371  15
 -10   4  11 7.01278 4.59935   2
  10   4 -11 1.82034 4.20176   1
 -10   4  11 1.64859 4.49006  15
   8  -4 -11 82.5677 7.75472   5
  -8  -4  11 83.2743 10.3582  15
   8  -4 -11 76.2056 8.71699  12
  -8  -4  11 83.9450 9.06258  14
  -8  -4  11 66.5020 11.1701   2
  -8   4  11 64.6976 9.13605   2
   8   4 -11 84.6403 11.1002   1
   6  -4 -11 34.7425 6.24581   5
  -6  -4  11 51.5847 9.36125   2
   6  -4 -11 54.8379 8.05524  12
  -6  -4  11 49.8137 7.80410  14
   6   4 -11 50.6874 8.91484   1
  -6   4  11 32.4702 6.61593   2
  -6   4  11 47.7184 6.34035  14
  -4  -4  11 171.920 12.0541  14
   4  -4 -11 164.767 11.6082  12
  -4  -4  11 137.141 12.3318   2
   4  -4 -11 153.603 11.0684   5
  -4   4  11 154.459 10.6921   2
  -4   4  11 144.523 9.84421  14
  -4   4  11 151.288 10.4789  10
   2  -4 -11 202.081 13.2385  12
   2  -4 -11 198.986 12.8950   5
  -2  -4  11 190.084 11.3988   4
  -2  -4  11 201.723 12.5036  14
  -2   4  11 202.676 11.6251  14
   2   4 -11 216.361 13.0177   3
  -2   4  11 192.362 11.9855  10
   0  -4 -11 110.009 12.2112  12
   0  -4  11 99.8925 9.23074  14
   0  -4  11 134.728 10.3859   4
   0   4  11 100.119 9.53906  10
   0   4 -11 110.682 11.3956   3
   0   4  11 118.662 8.99044  14
  -9  -5  11 117.134 12.5107  15
   9  -5 -11 120.103 9.82550   5
  -9  -5  11 91.4005 13.2060   2
   9   5 -11 129.541 13.3945   1
  -9   5  11 114.985 10.1219   2
  -7  -5  11 26.5495 8.16032   2
   7  -5 -11 28.3711 5.47223   5
   7  -5 -11 13.9204 4.84022  12
  -7  -5  11 20.5008 6.21342  14
   7   5 -11 16.3413 6.11045   1
  -7   5  11 17.0217 5.64001   2
  -5  -5  11 47.9302 7.90189  14
   5  -5 -11 37.4742 7.42419  12
   5  -5 -11 61.8984 8.52890   5
  -5  -5  11 46.3823 8.97535   2
   5   5 -11 44.5667 5.60241   9
  -5   5  11 37.7360 6.00538  10
   5   5 -11 43.2331 8.83024   1
  -5   5  11 51.2858 7.37493   2
  -3  -5  11 1.50516 4.81042  14
   3  -5 -11 5.26998 4.97479  12
   3  -5 -11 8.08607 5.30813   5
  -3  -5  11 1.55207 5.37630   2
   3   5 -11 4.79841 4.01544   3
  -3   5  11 8.50018 3.83059  14
  -3   5  11 9.88031 3.77832   2
  -3   5  11 7.39385 3.63025  10
   1  -5 -11 40.1415 8.35479  12
   1  -5 -11 32.8768 7.09971   5
  -1  -5  11 45.5067 7.53148  14
  -1  -5  11 40.1669 6.94657   4
   1   5 -11 44.2943 7.59041   3
  -1   5  11 33.4128 6.29963  10
  -8  -6  11 -3.1251 6.36573   2
  -8  -6  11 5.04991 4.69065  15
   8  -6 -11 6.53432 4.23599   5
   8  -6 -11 8.67307 4.15085  12
  -8  -6  11 9.00860 4.93010  14
  -8   6  11 6.61373 4.37691   2
   8   6 -11 5.61027 4.94290   1
  -6  -6  11 119.049 11.0254  14
  -6  -6  11 106.665 13.2197   2
   6  -6 -11 112.331 9.77646  12
   6  -6 -11 128.357 11.0560   5
  -6   6  11 108.467 9.94957   2
   6   6 -11 112.974 7.95695   9
   6   6 -11 105.184 11.9219   1
  -4  -6  11 87.7584 10.1409  14
  -4  -6  11 82.3957 11.5587   2
   4  -6 -11 102.703 10.7726  12
   4  -6 -11 92.7483 10.6220   5
  -4   6  11 87.9902 8.52730  10
  -4   6  11 84.3449 9.35103   2
   4   6 -11 92.0277 7.59127   9
   4   6 -11 99.8710 11.9373   1
   2  -6 -11 114.814 12.2979  12
   2  -6 -11 83.4233 10.4952   5
  -2  -6  11 110.183 10.5208  14
  -2  -6  11 119.160 9.89593   4
   2   6 -11 97.7898 10.1377   3
  -2   6  11 91.9033 9.07731  10
   0  -6 -11 165.839 18.3628  12
   0  -6 -11 171.059 13.3555   5
   0  -6  11 197.624 12.8740   4
   0  -6  11 170.526 11.8240  14
   0   6  11 190.730 12.2272  10
   0   6  11 182.593 11.1471   6
   0   6 -11 183.184 12.8818   3
   7  -7 -11 4.78301 4.11464  12
  -7  -7  11 -1.5154 5.77503   2
   7  -7 -11 1.19404 4.30032   5
  -7  -7  11 -1.2684 5.00474  14
   7   7 -11 6.31462 4.92043   1
  -7   7  11 2.48471 3.60506   2
   5  -7 -11 230.922 13.2907  12
  -5  -7  11 203.748 16.2516   2
   5  -7 -11 219.428 14.3930   5
  -5  -7  11 225.703 14.6372  14
   5   7 -11 224.722 14.8192   1
   5   7 -11 234.730 11.8733   9
  -5   7  11 231.521 13.7785   2
  -5   7  11 206.310 12.9693  10
  -3  -7  11 14.3694 5.75421  14
   3  -7 -11 -2.2634 4.95322   5
  -3  -7  11 5.41762 5.58101   2
   3  -7 -11 12.4024 5.48211  12
  -3   7  11 12.3278 3.78086  10
   3   7 -11 12.5030 4.06269   9
   3   7 -11 3.73749 4.85124   1
  -3   7  11 21.6132 6.18089   2
  -3   7  11 7.50105 4.48762   6
   1  -7 -11 183.569 13.5549   5
  -1  -7  11 168.390 12.7803   4
  -1  -7  11 186.385 12.9330  14
   1   7 -11 205.362 13.0254   3
  -1   7  11 203.873 13.0355  10
   1   7 -11 206.352 11.5963   9
  -1   7  11 196.684 11.4370   6
   6  -8 -11 223.909 15.1966   5
   6  -8 -11 197.131 12.3177  12
  -6  -8  11 200.198 16.9029   2
  -6  -8  11 223.185 15.0251  14
   6   8 -11 232.946 11.8306   9
   6   8 -11 240.199 15.8843   1
  -6   8  11 229.555 13.8341   2
  -6   8  11 238.040 13.4418  10
  -4  -8  11 65.2529 9.45694  14
   4  -8 -11 93.3524 11.8156   5
  -4  -8  11 69.0553 11.4562   2
   4  -8 -11 62.5429 8.69372  12
  -4   8  11 92.7097 8.73288   2
   4   8 -11 87.6620 8.60532   9
  -4   8  11 54.9180 7.36929  10
 -10   0  12 194.217 14.3435  15
  10   0 -12 206.338 14.2541   1
 -10   0  12 181.384 14.3001   2
  -8   0  12 780.850 26.0656  15
   8   0 -12 819.228 25.1061  12
  -8   0  12 733.955 28.7154   2
   8   0 -12 901.969 31.8872   1
  -6   0  12 482.863 18.0147  10
   6   0 -12 513.056 18.9652  12
  -6   0  12 481.829 18.2011  14
  -6   0  12 451.415 21.0749   2
  -4   0  12 550.700 20.1390  10
   4   0 -12 616.454 21.9735   3
  -4   0  12 549.609 20.3698  14
   4   0 -12 601.874 21.2072  12
  -4   0  12 558.469 21.6596   2
  -2   0  12 149.029 10.2031  10
  -2   0  12 163.517 10.9019  14
   2   0 -12 165.576 11.9638   3
   2   0 -12 153.542 10.8701  12
   0   0 -12 360.308 16.9240  12
   0   0  12 354.875 17.2794  10
   0   0 -12 378.893 18.7301   3
   0   0  12 392.543 16.6494  14
  -9  -1  12 33.2070 8.19585   2
  -9  -1  12 24.9021 6.86510  15
   9  -1 -12 23.8643 6.46324   1
  -9   1  12 25.7285 6.80047  15
  -9   1  12 16.3285 6.39832   2
   9   1 -12 24.5187 6.94992   1
   7  -1 -12 225.973 12.6523  12
  -7  -1  12 206.925 11.8633  14
  -7  -1  12 196.244 14.4167   2
   7   1 -12 242.424 12.6247  12
   7   1 -12 217.049 15.5937   1
  -7   1  12 194.462 11.5722  10
  -7   1  12 224.278 14.8424   2
  -5  -1  12 100.057 9.11091  14
  -5  -1  12 121.067 8.78068  10
  -5  -1  12 124.726 11.5485   2
   5  -1 -12 125.893 9.80941  12
   5   1 -12 125.939 9.22992  12
  -5   1  12 114.798 9.07192  10
  -5   1  12 116.163 9.35505  14
  -5   1  12 115.241 10.5535   2
   3  -1 -12 46.8295 6.92850   3
   3  -1 -12 39.8708 7.09560  12
  -3  -1  12 48.5551 7.64314  14
  -3  -1  12 42.9991 5.91475  10
  -3   1  12 38.9950 6.20590  10
   3   1 -12 49.9893 7.59384   3
  -3   1  12 32.3486 5.79939  14
   3   1 -12 47.5497 7.04201  12
   1  -1 -12 158.289 11.6692  12
   1  -1 -12 146.776 11.7340   3
  -1  -1  12 119.565 9.84015  10
  -1  -1  12 129.723 9.79697  14
   1   1 -12 133.760 11.6834   3
  -1   1  12 154.049 10.3765  14
  -1   1  12 141.371 10.7960  10
   1   1 -12 128.501 9.97013  12
 -10  -2  12 7.84764 6.04272  15
 -10  -2  12 11.1642 6.70283   2
 -10   2  12 -1.6519 4.68866  15
  10   2 -12 12.7338 5.55303   1
 -10   2  12 19.1622 8.59060   2
  -8  -2  12 104.089 13.0105   2
   8  -2 -12 98.1251 11.6542   1
   8  -2 -12 109.645 8.84365  12
  -8  -2  12 107.472 8.70410  14
  -8  -2  12 90.2408 10.4880  15
  -8   2  12 102.095 11.9622   2
   8   2 -12 86.8272 11.0141   1
   6  -2 -12 165.539 11.2602  12
  -6  -2  12 160.089 13.4881   2
  -6  -2  12 177.307 11.5228  14
  -6   2  12 179.702 10.9511  14
   6   2 -12 161.470 10.0051  12
  -6   2  12 152.097 10.5187  10
  -6   2  12 155.493 12.3109   2
  -4  -2  12 88.8620 10.2404   2
   4  -2 -12 105.852 9.71182  12
   4  -2 -12 110.241 9.19052   3
  -4  -2  12 97.1759 9.82440  14
  -4   2  12 101.189 8.93517  14
   4   2 -12 111.791 10.8750   3
  -4   2  12 91.5907 8.71489   2
  -4   2  12 98.2958 8.36888  10
   4   2 -12 100.030 8.06895  12
  -2  -2  12 170.112 10.4539   4
   2  -2 -12 149.179 11.1202   3
  -2  -2  12 160.360 11.0430  14
  -2  -2  12 150.989 10.3496  10
   2  -2 -12 166.365 12.0444  12
  -2   2  12 166.969 10.8509  14
   2   2 -12 166.883 12.3006   3
  -2   2  12 148.377 11.0760  10
   0  -2 -12 0.52452 4.15860   3
   0  -2  12 -1.8740 2.88132  10
   0  -2 -12 -2.6863 4.44995  12
   0  -2  12 6.18077 3.10413  14
   0  -2  12 6.64228 3.33529   4
   0   2  12 2.09418 2.15603  14
   0   2  12 -4.8280 3.08092  10
   0   2 -12 -2.8302 4.07084   3
  -9  -3  12 115.218 10.5004  15
  -9  -3  12 94.5811 12.3458   2
  -9   3  12 109.876 12.1190   2
   9   3 -12 98.3086 11.9126   1
  -7  -3  12 12.2949 5.02032  15
   7  -3 -12 15.1061 5.08222  12
  -7  -3  12 10.4894 4.85974  14
  -7  -3  12 18.1526 6.53404   2
   7   3 -12 7.54779 5.63261   1
  -7   3  12 17.2740 4.61281  14
  -7   3  12 7.11116 3.76230  10
  -7   3  12 3.51651 4.20914   2
  -5  -3  12 32.6328 6.97313  14
   5  -3 -12 38.3996 7.26581  12
  -5  -3  12 41.9603 8.63045   2
  -5   3  12 37.3179 6.47410  14
  -5   3  12 35.5532 6.34348  10
  -5   3  12 39.6445 6.93008   2
  -3  -3  12 56.7378 8.34676  14
   3  -3 -12 48.2891 7.10075   3
   3  -3 -12 46.3215 7.75095  12
   3   3 -12 48.1676 7.31047   3
  -3   3  12 51.5995 7.09740  14
  -3   3  12 40.0070 6.37221  10
  -1  -3  12 8.79688 3.45418  14
  -1  -3  12 12.0576 3.92670   4
   1  -3 -12 1.87864 3.81168   3
   1  -3 -12 -2.7868 4.83464  12
  -1   3  12 10.8234 3.70764  14
  -1   3  12 4.66421 3.01937  10
   1   3 -12 3.51527 3.58794   3
  -8  -4  12 19.9634 5.51718  14
  -8  -4  12 20.5422 7.27420   2
  -8  -4  12 24.0361 6.44607  15
   8  -4 -12 35.3068 6.73623  12
   8   4 -12 28.4126 7.68602   1
  -8   4  12 15.4547 5.76588   2
   6  -4 -12 148.825 11.2098  12
  -6  -4  12 156.914 10.8219  14
  -6  -4  12 172.370 13.9394   2
   6   4 -12 198.601 15.4510   1
  -6   4  12 154.113 11.0955  10
  -6   4  12 164.103 10.4333  14
  -6   4  12 160.834 12.1264   2
  -4  -4  12 97.8574 10.4462  14
   4  -4 -12 104.482 9.88852  12
  -4  -4  12 75.8465 10.5454   2
   4   4 -12 86.0612 7.13229   9
  -4   4  12 100.104 8.81243   2
  -4   4  12 91.3163 8.42309  14
  -4   4  12 65.9628 7.88593  10
  -2  -4  12 264.616 13.2387   4
   2  -4 -12 230.282 14.6258  12
  -2  -4  12 238.238 13.3031  14
  -2   4  12 243.035 13.1934  14
  -2   4  12 222.677 13.8690  10
   2   4 -12 261.546 15.0253   3
   7  -5 -12 1.89333 4.11933  12
  -7  -5  12 5.22794 6.95243   2
  -7  -5  12 1.24285 4.49882  14
  -7  -5  12 3.46606 3.95324  15
   7  -5 -12 -3.4040 3.58848   5
  -7   5  12 0.16695 3.31805   2
   7   5 -12 0.36550 4.64163   1
   5  -5 -12 20.3560 5.80148   5
  -5  -5  12 11.0554 6.89377   2
   5  -5 -12 24.3793 6.17914  12
  -5  -5  12 20.7296 6.62441  14
  -5   5  12 24.6939 5.31465   2
  -5   5  12 39.8803 6.24351  10
   5   5 -12 24.4619 4.72743   9
   5   5 -12 28.7411 8.01299   1
  -3  -5  12 81.1653 10.0221  14
   3  -5 -12 66.3780 9.53122  12
  -3   5  12 70.2732 8.92436  10
   3   5 -12 78.8941 9.50239   3
   6  -6 -12 -2.5908 3.79875   5
  -6  -6  12 -10.096 5.86784   2
   6  -6 -12 5.81777 3.60652  12
  -6  -6  12 7.28755 4.08548  14
  -6   6  12 10.1709 4.11152   2
  -6   6  12 -0.3452 3.12170  10
   6   6 -12 13.9495 6.06647   1
  -4  -6  12 343.984 17.6594  14
   4  -6 -12 328.025 17.0711   5
   4  -6 -12 344.319 17.2035  12
  -4  -6  12 312.456 18.9706   2
   4   6 -12 376.352 20.8562   1
   4   6 -12 338.548 14.4994   9
   8   0 -13 14.1845 4.19029  12
   8   0 -13 -2.4820 2.73886   1
  -8   0  13 -3.4975 4.59604   2
  -8   0  13 6.76008 3.68969  14
   6   0 -13 2.61672 3.90045  12
  -6   0  13 -1.9791 4.41883   2
  -6   0  13 2.17688 3.13653  14
  -6   0  13 -2.5216 2.39526  10
  -4   0  13 -0.1886 2.96990  10
   4   0 -13 4.00265 3.70535  12
  -4   0  13 -1.2735 2.59830  14
   4   0 -13 -1.5356 3.48989   3
  -2   0  13 3.87483 3.02419  14
  -2   0  13 -1.1232 3.30112  10
   2   0 -13 1.00430 4.01090  12
   2   0 -13 5.16234 4.73172   3
  -7  -1  13 227.069 15.2890   2
   7  -1 -13 242.771 13.5228  12
  -7  -1  13 247.787 13.3560  14
  -7   1  13 228.572 12.2793  14
   7   1 -13 256.024 13.2753  12
  -7   1  13 247.563 15.7303   2
   7   1 -13 278.488 18.1728   1
  -5  -1  13 9.21625 5.25302   2
   5  -1 -13 12.8434 5.09262  12
  -5  -1  13 16.8361 5.43303  14
  -5   1  13 20.4062 4.93329  14
   5   1 -13 10.6848 4.24800  12
  -5   1  13 18.6687 5.49774   2
  -5   1  13 12.2746 4.66071  10
  -3  -1  13 212.668 12.5886  10
   3  -1 -13 231.896 13.7107  12
  -3  -1  13 230.135 13.5700  14
   3  -1 -13 244.145 14.1233   3
  -3   1  13 213.415 13.1625  10
   3   1 -13 234.155 13.1051  12
   3   1 -13 216.456 13.7908   3
  -3   1  13 224.946 13.3531  14
  -8  -2  13 224.593 16.8161   2
   8  -2 -13 249.391 17.2246   1
  -8  -2  13 234.606 12.8060  14
   8  -2 -13 245.885 14.1089  12
   8   2 -13 257.958 17.5373   1
  -8   2  13 245.229 15.5671   2
  -6  -2  13 244.134 15.7929   2
   6  -2 -13 277.638 14.6946  12
  -6  -2  13 246.641 13.7803  14
  -6   2  13 257.169 15.3300   2
   6   2 -13 263.698 19.0028   1
  -6   2  13 233.985 13.6002  10
   6   2 -13 257.817 12.9243  12
  -4  -2  13 288.764 14.7157  14
   4  -2 -13 306.153 16.1731  12
  -4   2  13 311.228 15.6269  10
  -4   2  13 310.917 15.5706  14
  -7  -3  13 1.41018 4.12878  14
  -7  -3  13 3.35748 6.36451   2
   7  -3 -13 2.03446 4.18841  12
  -7   3  13 8.12416 3.09241  14
  -7   3  13 2.48950 2.66872  10
   7   3 -13 9.16345 6.34009   1
  -7   3  13 3.31358 4.42054   2
  -5  -3  13 114.937 12.7385   2
   5  -3 -13 137.269 10.7820  12
  -5  -3  13 118.925 10.7621  14
  -5   3  13 108.604 9.70153   2
  -5   3  13 122.007 9.21696  14
  -5   3  13 118.489 9.99159  10
  -3  -3  13 0.60067 2.56893  14
   3  -3 -13 3.79966 5.04671  12
  -3   3  13 4.71779 3.87241  10
   3   3 -13 3.01837 5.32175   3
  -3   3  13 2.99196 3.57444  14
  -6  -4  13 5.16311 4.85461  14
  -6  -4  13 4.73401 6.55487   2
  -6   4  13 6.00416 3.89292  10
  -6   4  13 6.29762 3.76972  14
   6   4 -13 12.4309 6.38830   1
  -6   4  13 9.05386 3.95646   2
  -4  -4  13 24.5513 7.51936  14
  -4   4  13 25.4249 5.98632  10
   4   4 -13 20.8945 4.44517   9
   0   0   0    0.00    0.00   0

 _exptl_absorpt_process_details
)
 SADABS 2016/2: Krause, L., Herbst-Irmer, R., Sheldrick G.M. & Stalke D.,
 J. Appl. Cryst. 48 (2015) 3-10
)
 _exptl_absorpt_correction_type   multi-scan
 _exptl_absorpt_correction_T_max  0.7479
 _exptl_absorpt_correction_T_min  0.6849
 _exptl_special_details
)
 The following wavelength and cell were deduced by SADABS from the
 direction cosines etc. They are given here for emergency use only:
 CELL 0.71081    6.923    7.632    7.533   90.064  116.207   89.961
)

;
_shelx_hkl_checksum              86291
loop_
_space_group_symop_operation_xyz
'x, y, z'
'-x, y, -z+1/2'
'x+1/2, y+1/2, z'
'-x+1/2, y+1/2, -z+1/2'
'-x, -y, -z'
'x, -y, z-1/2'
'-x+1/2, -y+1/2, -z'
'x+1/2, -y+1/2, z-1/2'
loop_
_atom_site_label
_atom_site_type_symbol
_atom_site_fract_x
_atom_site_fract_y
_atom_site_fract_z
_atom_site_U_iso_or_equiv
_atom_site_adp_type
_atom_site_occupancy
_atom_site_site_symmetry_order
_atom_site_calc_flag
_atom_site_refinement_flags_posn
_atom_site_refinement_flags_adp
_atom_site_refinement_flags_occupancy
_atom_site_disorder_assembly
_atom_site_disorder_group
Mg Mg 0.000000 0.500000 0.000000 0.00852(7) Uani 1 2 d S . P . .
S S 0.000000 0.15461(3) 0.250000 0.00684(5) Uani 1 2 d S T P . .
O1 O 0.17585(8) 0.04442(7) 0.39411(8) 0.01380(9) Uani 1 1 d . . . . .
O2 O 0.09120(9) 0.26743(7) 0.14908(8) 0.01257(9) Uani 1 1 d . . . . .
O3 O 0.000000 0.63534(10) 0.250000 0.01125(11) Uani 1 2 d S T P . .
H H 0.103(2) 0.703(2) 0.293(2) 0.028(4) Uiso 1 1 d . . . . .
loop_
_atom_site_aniso_label
_atom_site_aniso_U_11
_atom_site_aniso_U_22
_atom_site_aniso_U_33
_atom_site_aniso_U_23
_atom_site_aniso_U_13
_atom_site_aniso_U_12
Mg 0.00750(13) 0.00876(13) 0.00858(13) 0.00055(9) 0.00319(10) -0.00057(9)
S 0.00519(8) 0.00655(8) 0.00819(8) 0.000 0.00267(6) 0.000
O1 0.00842(18) 0.0155(2) 0.0157(2) 0.00690(16) 0.00418(15) 0.00412(15)
O2 0.0126(2) 0.01123(18) 0.0167(2) 0.00498(15) 0.00915(17) 0.00131(14)
O3 0.0110(3) 0.0123(3) 0.0110(2) 0.000 0.0056(2) 0.000
loop_
_atom_type_symbol
_atom_type_description
_atom_type_scat_dispersion_real
_atom_type_scat_dispersion_imag
_atom_type_scat_source
O O 0.0106 0.0060 'International Tables Vol C Tables 4.2.6.8 and 6.1.1.4'
H H 0.0000 0.0000 'International Tables Vol C Tables 4.2.6.8 and 6.1.1.4'
S S 0.1246 0.1234 'International Tables Vol C Tables 4.2.6.8 and 6.1.1.4'
Mg Mg 0.0486 0.0363 'International Tables Vol C Tables 4.2.6.8 and 6.1.1.4'
Fe Fe 0.3463 0.8444 'International Tables Vol C Tables 4.2.6.8 and 6.1.1.4'
loop_
_geom_angle_atom_site_label_1
_geom_angle_atom_site_label_2
_geom_angle_atom_site_label_3
_geom_angle
_geom_angle_site_symmetry_1
_geom_angle_site_symmetry_3
_geom_angle_publ_flag
O1 Mg O1 180.0 8_455 4 ?
O1 Mg O2 94.08(2) 8_455 . ?
O1 Mg O2 85.92(2) 4 . ?
O1 Mg O2 85.92(2) 8_455 5_565 ?
O1 Mg O2 94.08(2) 4 5_565 ?
O2 Mg O2 180.0 . 5_565 ?
O1 Mg O3 88.384(18) 8_455 . ?
O1 Mg O3 91.616(18) 4 . ?
O2 Mg O3 92.80(2) . . ?
O2 Mg O3 87.20(2) 5_565 . ?
O1 Mg O3 91.616(18) 8_455 5_565 ?
O1 Mg O3 88.384(18) 4 5_565 ?
O2 Mg O3 87.20(2) . 5_565 ?
O2 Mg O3 92.80(2) 5_565 5_565 ?
O3 Mg O3 180.0 . 5_565 ?
O1 Mg O2 41.480(18) 8_455 8_455 ?
O1 Mg O2 138.520(18) 4 8_455 ?
O2 Mg O2 81.251(14) . 8_455 ?
O2 Mg O2 98.748(14) 5_565 8_455 ?
O3 Mg O2 128.107(13) . 8_455 ?
O3 Mg O2 51.893(13) 5_565 8_455 ?
O1 Mg O2 138.520(18) 8_455 4 ?
O1 Mg O2 41.480(18) 4 4 ?
O2 Mg O2 98.749(13) . 4 ?
O2 Mg O2 81.252(14) 5_565 4 ?
O3 Mg O2 51.893(14) . 4 ?
O3 Mg O2 128.107(13) 5_565 4 ?
O2 Mg O2 180.0 8_455 4 ?
O1 Mg O2 110.08(2) 8_455 6_565 ?
O1 Mg O2 69.92(2) 4 6_565 ?
O2 Mg O2 138.22(2) . 6_565 ?
O2 Mg O2 41.78(2) 5_565 6_565 ?
O3 Mg O2 120.50(2) . 6_565 ?
O3 Mg O2 59.51(2) 5_565 6_565 ?
O2 Mg O2 94.558(17) 8_455 6_565 ?
O2 Mg O2 85.443(17) 4 6_565 ?
O1 Mg O2 69.92(2) 8_455 2 ?
O1 Mg O2 110.08(2) 4 2 ?
O2 Mg O2 41.783(19) . 2 ?
O2 Mg O2 138.217(19) 5_565 2 ?
O3 Mg O2 59.50(2) . 2 ?
O3 Mg O2 120.49(2) 5_565 2 ?
O2 Mg O2 85.442(17) 8_455 2 ?
O2 Mg O2 94.557(17) 4 2 ?
O2 Mg O2 180.000(11) 6_565 2 ?
O1 Mg O1 117.58(2) 8_455 6_565 ?
O1 Mg O1 62.42(2) 4 6_565 ?
O2 Mg O1 147.922(18) . 6_565 ?
O2 Mg O1 32.079(18) 5_565 6_565 ?
O3 Mg O1 83.64(2) . 6_565 ?
O3 Mg O1 96.36(2) 5_565 6_565 ?
O2 Mg O1 125.488(14) 8_455 6_565 ?
O2 Mg O1 54.512(14) 4 6_565 ?
O2 Mg O1 37.232(12) 6_565 6_565 ?
O2 Mg O1 142.768(12) 2 6_565 ?
O1 Mg O1 62.42(2) 8_455 2 ?
O1 Mg O1 117.58(2) 4 2 ?
O2 Mg O1 32.078(18) . 2 ?
O2 Mg O1 147.921(18) 5_565 2 ?
O3 Mg O1 96.36(2) . 2 ?
O3 Mg O1 83.64(2) 5_565 2 ?
O2 Mg O1 54.512(14) 8_455 2 ?
O2 Mg O1 125.488(14) 4 2 ?
O2 Mg O1 142.768(12) 6_565 2 ?
O2 Mg O1 37.232(12) 2 2 ?
O1 Mg O1 180.0 6_565 2 ?
O1 S O1 109.89(5) 2 . ?
O1 S O2 108.57(3) 2 2 ?
O1 S O2 110.40(3) . 2 ?
O1 S O2 110.40(3) 2 . ?
O1 S O2 108.57(3) . . ?
O2 S O2 109.01(4) 2 . ?
S O1 Mg 140.38(4) . 4_545 ?
S O1 O2 35.979(19) . . ?
Mg O1 O2 104.41(3) 4_545 . ?
S O1 O1 35.06(2) . 2 ?
Mg O1 O1 145.45(4) 4_545 2 ?
O2 O1 O1 60.69(2) . 2 ?
S O1 O2 35.06(2) . 2 ?
Mg O1 O2 143.63(3) 4_545 2 ?
O2 O1 O2 60.23(3) . 2 ?
O1 O1 O2 59.57(2) 2 2 ?
S O1 O2 132.28(4) . 4_545 ?
Mg O1 O2 47.296(16) 4_545 4_545 ?
O2 O1 O2 112.96(2) . 4_545 ?
O1 O1 O2 106.67(3) 2 4_545 ?
O2 O1 O2 166.13(3) 2 4_545 ?
S O1 O3 166.21(4) . 7_556 ?
Mg O1 O3 47.907(13) 4_545 7_556 ?
O2 O1 O3 149.28(3) . 7_556 ?
O1 O1 O3 149.09(2) 2 7_556 ?
O2 O1 O3 131.17(3) 2 7_556 ?
O2 O1 O3 61.297(19) 4_545 7_556 ?
S O1 O2 114.95(3) . 8_556 ?
Mg O1 O2 43.182(16) 4_545 8_556 ?
O2 O1 O2 88.59(2) . 8_556 ?
O1 O1 O2 148.61(2) 2 8_556 ?
O2 O1 O2 101.04(3) 2 8_556 ?
O2 O1 O2 90.48(2) 4_545 8_556 ?
O3 O1 O2 62.29(2) 7_556 8_556 ?
S O1 O3 95.24(3) . 3_545 ?
Mg O1 O3 46.175(15) 4_545 3_545 ?
O2 O1 O3 59.91(2) . 3_545 ?
O1 O1 O3 105.84(3) 2 3_545 ?
O2 O1 O3 116.25(3) 2 3_545 ?
O2 O1 O3 63.59(2) 4_545 3_545 ?
O3 O1 O3 94.08(2) 7_556 3_545 ?
O2 O1 O3 58.121(18) 8_556 3_545 ?
S O1 O2 122.89(3) . 6_556 ?
Mg O1 O2 96.62(2) 4_545 6_556 ?
O2 O1 O2 158.49(3) . 6_556 ?
O1 O1 O2 99.07(2) 2 6_556 ?
O2 O1 O2 104.48(2) 2 6_556 ?
O2 O1 O2 78.28(2) 4_545 6_556 ?
O3 O1 O2 52.016(17) 7_556 6_556 ?
O2 O1 O2 110.25(2) 8_556 6_556 ?
O3 O1 O2 138.88(2) 3_545 6_556 ?
S O1 O3 104.05(3) . 1_545 ?
Mg O1 O3 97.99(2) 4_545 1_545 ?
O2 O1 O3 119.25(3) . 1_545 ?
O1 O1 O3 68.998(11) 2 1_545 ?
O2 O1 O3 118.36(2) 2 1_545 ?
O2 O1 O3 52.493(17) 4_545 1_545 ?
O3 O1 O3 82.559(18) 7_556 1_545 ?
O2 O1 O3 139.12(2) 8_556 1_545 ?
O3 O1 O3 108.22(2) 3_545 1_545 ?
O2 O1 O3 51.944(14) 6_556 1_545 ?
S O1 O2 110.85(3) . 7_556 ?
Mg O1 O2 76.09(2) 4_545 7_556 ?
O2 O1 O2 109.17(3) . 7_556 ?
O1 O1 O2 136.95(3) 2 7_556 ?
O2 O1 O2 78.80(2) 2 7_556 ?
O2 O1 O2 115.04(3) 4_545 7_556 ?
O3 O1 O2 57.11(2) 7_556 7_556 ?
O2 O1 O2 43.84(2) 8_556 7_556 ?
O3 O1 O2 101.82(2) 3_545 7_556 ?
O2 O1 O2 80.012(17) 6_556 7_556 ?
O3 O1 O2 130.971(19) 1_545 7_556 ?
S O2 Mg 134.44(3) . . ?
S O2 O1 35.452(19) . . ?
Mg O2 O1 162.42(3) . . ?
S O2 O2 35.49(2) . 2 ?
Mg O2 O2 103.91(2) . 2 ?
O1 O2 O2 60.44(2) . 2 ?
S O2 O1 34.546(19) . 2 ?
Mg O2 O1 121.29(3) . 2 ?
O1 O2 O1 59.74(3) . 2 ?
O2 O2 O1 59.33(2) 2 2 ?
S O2 O3 106.04(3) . 3_545 ?
Mg O2 O3 118.79(2) . 3_545 ?
O1 O2 O3 71.32(2) . 3_545 ?
O2 O2 O3 126.90(3) 2 3_545 ?
O1 O2 O3 113.63(3) 2 3_545 ?
S O2 O1 156.94(3) . 4 ?
Mg O2 O1 46.784(17) . 4 ?
O1 O2 O1 133.98(2) . 4 ?
O2 O2 O1 125.90(2) 2 4 ?
O1 O2 O1 166.13(3) 2 4 ?
O3 O2 O1 74.48(2) 3_545 4 ?
S O2 O3 139.50(3) . 5_565 ?
Mg O2 O3 48.294(18) . 5_565 ?
O1 O2 O3 148.94(3) . 5_565 ?
O2 O2 O3 138.78(3) 2 5_565 ?
O1 O2 O3 105.20(3) 2 5_565 ?
O3 O2 O3 94.23(2) 3_545 5_565 ?
O1 O2 O3 62.03(2) 4 5_565 ?
S O2 O1 95.96(3) . 8_455 ?
Mg O2 O1 42.738(15) . 8_455 ?
O1 O2 O1 131.40(3) . 8_455 ?
O2 O2 O1 77.51(3) 2 8_455 ?
O1 O2 O1 78.96(3) 2 8_455 ?
O3 O2 O1 155.50(2) 3_545 8_455 ?
O1 O2 O1 89.52(2) 4 8_455 ?
O3 O2 O1 61.571(18) 5_565 8_455 ?
S O2 O3 102.22(3) . . ?
Mg O2 O3 45.316(14) . . ?
O1 O2 O3 117.29(3) . . ?
O2 O2 O3 66.731(11) 2 . ?
O1 O2 O3 116.40(2) 2 . ?
O3 O2 O3 125.00(2) 3_545 . ?
O1 O2 O3 62.053(18) 4 . ?
O3 O2 O3 93.609(18) 5_565 . ?
O1 O2 O3 58.099(15) 8_455 . ?
S O2 O1 97.36(3) . 6 ?
Mg O2 O1 112.96(2) . 6 ?
O1 O2 O1 84.547(18) . 6 ?
O2 O2 O1 132.165(16) 2 6 ?
O1 O2 O1 75.52(2) 2 6 ?
O3 O2 O1 57.035(18) 3_545 6 ?
O1 O2 O1 101.72(2) 4 6 ?
O3 O2 O1 64.78(2) 5_565 6 ?
O1 O2 O1 110.25(2) 8_455 6 ?
O3 O2 O1 158.03(2) . 6 ?
S O2 O1 79.71(3) . 7_556 ?
Mg O2 O1 94.59(2) . 7_556 ?
O1 O2 O1 70.83(3) . 7_556 ?
O2 O2 O1 58.66(2) 2 7_556 ?
O1 O2 O1 113.52(3) 2 7_556 ?
O3 O2 O1 86.49(2) 3_545 7_556 ?
O1 O2 O1 77.300(18) 4 7_556 ?
O3 O2 O1 137.31(2) 5_565 7_556 ?
O1 O2 O1 108.33(2) 8_455 7_556 ?
O3 O2 O1 53.629(14) . 7_556 ?
O1 O2 O1 141.40(2) 6 7_556 ?
Mg O3 Mg 123.32(4) . 2 ?
Mg O3 O2 110.707(16) . 3_455 ?
Mg O3 O2 89.660(14) 2 3_455 ?
Mg O3 O2 89.660(14) . 4 ?
Mg O3 O2 110.706(16) 2 4 ?
O2 O3 O2 137.04(4) 3_455 4 ?
Mg O3 O2 162.78(3) . 6_566 ?
Mg O3 O2 44.508(13) 2 6_566 ?
O2 O3 O2 83.512(18) 3_455 6_566 ?
O2 O3 O2 85.77(2) 4 6_566 ?
Mg O3 O2 44.508(13) . 5_565 ?
Mg O3 O2 162.78(3) 2 5_565 ?
O2 O3 O2 85.77(2) 3_455 5_565 ?
O2 O3 O2 83.513(18) 4 5_565 ?
O2 O3 O2 150.46(4) 6_566 5_565 ?
Mg O3 O1 43.710(14) . 8_455 ?
Mg O3 O1 106.17(3) 2 8_455 ?
O2 O3 O1 70.950(19) 3_455 8_455 ?
O2 O3 O1 132.004(17) 4 8_455 ?
O2 O3 O1 142.000(19) 6_566 8_455 ?
O2 O3 O1 56.677(18) 5_565 8_455 ?
Mg O3 O1 106.17(3) . 7_556 ?
Mg O3 O1 43.710(14) 2 7_556 ?
O2 O3 O1 132.004(17) 3_455 7_556 ?
O2 O3 O1 70.949(19) 4 7_556 ?
O2 O3 O1 56.677(18) 6_566 7_556 ?
O2 O3 O1 142.000(19) 5_565 7_556 ?
O1 O3 O1 124.18(4) 8_455 7_556 ?
Mg O3 O1 121.48(2) . 3_455 ?
Mg O3 O1 42.209(12) 2 3_455 ?
O2 O3 O1 48.763(16) 3_455 3_455 ?
O2 O3 O1 145.867(18) 4 3_455 ?
O2 O3 O1 60.309(17) 6_566 3_455 ?
O2 O3 O1 127.784(17) 5_565 3_455 ?
O1 O3 O1 81.702(18) 8_455 3_455 ?
O1 O3 O1 85.92(2) 7_556 3_455 ?
Mg O3 O1 42.209(12) . 4 ?
Mg O3 O1 121.48(2) 2 4 ?
O2 O3 O1 145.867(18) 3_455 4 ?
O2 O3 O1 48.764(16) 4 4 ?
O2 O3 O1 127.784(17) 6_566 4 ?
O2 O3 O1 60.309(17) 5_565 4 ?
O1 O3 O1 85.92(2) 8_455 4 ?
O1 O3 O1 81.702(18) 7_556 4 ?
O1 O3 O1 153.38(4) 3_455 4 ?
Mg O3 O2 82.66(2) . 2 ?
Mg O3 O2 41.883(16) 2 2 ?
O2 O3 O2 95.691(15) 3_455 2 ?
O2 O3 O2 125.00(2) 4 2 ?
O2 O3 O2 86.391(18) 6_566 2 ?
O2 O3 O2 122.10(2) 5_565 2 ?
O1 O3 O2 69.26(2) 8_455 2 ?
O1 O3 O2 59.61(2) 7_556 2 ?
O1 O3 O2 54.352(16) 3_455 2 ?
O1 O3 O2 99.20(2) 4 2 ?
Mg O3 O2 41.883(16) . . ?
Mg O3 O2 82.66(2) 2 . ?
O2 O3 O2 125.00(3) 3_455 . ?
O2 O3 O2 95.691(15) 4 . ?
O2 O3 O2 122.10(2) 6_566 . ?
O2 O3 O2 86.391(18) 5_565 . ?
O1 O3 O2 59.61(2) 8_455 . ?
O1 O3 O2 69.26(2) 7_556 . ?
O1 O3 O2 99.20(2) 3_455 . ?
O1 O3 O2 54.352(16) 4 . ?
O2 O3 O2 46.54(2) 2 . ?
Mg O3 H 106.9(11) . . ?
Mg O3 H 107.9(11) 2 . ?
O2 O3 H 118.4(11) 3_455 . ?
O2 O3 H 20.4(11) 4 . ?
O2 O3 H 72.5(11) 6_566 . ?
O2 O3 H 88.8(11) 5_565 . ?
O1 O3 H 144.6(11) 8_455 . ?
O1 O3 H 77.0(11) 7_556 . ?
O1 O3 H 131.4(11) 3_455 . ?
O1 O3 H 68.2(11) 4 . ?
O2 O3 H 136.4(11) 2 . ?
O2 O3 H 115.8(11) . . ?
Mg O3 H 107.9(11) . 2 ?
Mg O3 H 106.9(11) 2 2 ?
O2 O3 H 20.4(11) 3_455 2 ?
O2 O3 H 118.4(11) 4 2 ?
O2 O3 H 88.8(11) 6_566 2 ?
O2 O3 H 72.5(11) 5_565 2 ?
O1 O3 H 77.0(11) 8_455 2 ?
O1 O3 H 144.6(11) 7_556 2 ?
O1 O3 H 68.2(11) 3_455 2 ?
O1 O3 H 131.4(11) 4 2 ?
O2 O3 H 115.8(11) 2 2 ?
O2 O3 H 136.4(11) . 2 ?
H O3 H 102(2) . 2 ?
loop_
_geom_bond_atom_site_label_1
_geom_bond_atom_site_label_2
_geom_bond_distance
_geom_bond_site_symmetry_2
_geom_bond_publ_flag
Mg O1 2.0232(6) 8_455 ?
Mg O1 2.0232(6) 4 ?
Mg O2 2.0401(5) . ?
Mg O2 2.0401(5) 5_565 ?
Mg O3 2.1726(4) . ?
Mg O3 2.1726(4) 5_565 ?
Mg O2 3.4941(7) 8_455 ?
Mg O2 3.4942(7) 4 ?
Mg O2 3.5131(6) 6_565 ?
Mg O2 3.5131(6) 2 ?
Mg O1 3.8888(7) 6_565 ?
Mg O1 3.8888(7) 2 ?
S O1 1.4621(5) 2 ?
S O1 1.4621(5) . ?
S O2 1.4809(5) 2 ?
S O2 1.4809(5) . ?
O1 O2 2.3895(8) . ?
O1 O1 2.3937(11) 2 ?
O1 O2 2.4166(8) 2 ?
O1 O2 2.7691(8) 4_545 ?
O1 O3 2.9267(7) 7_556 ?
O1 O2 2.9736(9) 8_556 ?
O1 O3 3.0103(7) 3_545 ?
O1 O2 3.2973(8) 6_556 ?
O1 O3 3.3395(10) 1_545 ?
O1 O2 3.3993(9) 7_556 ?
O2 O2 2.4115(11) 2 ?
O2 O3 2.7495(7) 3_545 ?
O2 O3 2.9067(7) 5_565 ?
O2 O3 3.0521(9) . ?
O3 H 0.812(15) . ?
O3 H 0.812(15) 2 ?
loop_
_geom_hbond_atom_site_label_D
_geom_hbond_atom_site_label_H
_geom_hbond_atom_site_label_A
_geom_hbond_distance_DH
_geom_hbond_distance_HA
_geom_hbond_distance_DA
_geom_hbond_angle_DHA
_geom_hbond_site_symmetry_A
_geom_hbond_publ_flag
O3 H O2 0.812(15) 2.008(15) 2.7495(7) 151.5(15) 4 yes
