#------------------------------------------------------------------------------
#$Date: 2022-01-01 07:13:54 +0200 (Sat, 01 Jan 2022) $
#$Revision: 271676 $
#$URL: file:///home/coder/svn-repositories/cod/cif/1/56/58/1565888.cif $
#------------------------------------------------------------------------------
#
# This file is available in the Crystallography Open Database (COD),
# http://www.crystallography.net/. The original data for this entry
# were provided by IUCr Journals, http://journals.iucr.org/.
#
# The file may be used within the scientific community so long as
# proper attribution is given to the journal article from which the
# data were obtained.
#
data_1565888
loop_
_publ_author_name
'Olejniczak, Anna'
'Katrusiak, Anna'
'Podsiad\/lo, Marcin'
'Katrusiak, Andrzej'
_publ_section_title
;
 Stochastic hydration of a high-nitrogen-content molecular compound
 recrystallized under pressure
;
_journal_issue                   1
_journal_name_full               IUCrJ
_journal_page_first              49
_journal_page_last               54
_journal_paper_doi               10.1107/S2052252521010381
_journal_volume                  9
_journal_year                    2022
_chemical_formula_moiety         'C4 H2 Cl N5'
_chemical_formula_sum            'C4 H2 Cl N5'
_chemical_formula_weight         155.56
_chemical_name_systematic        6-chloro-1,2,3,4-tetrazolo[1,5-b]pyridazine
_space_group_crystal_system      monoclinic
_space_group_IT_number           14
_space_group_name_Hall           '-P 2ybc'
_space_group_name_H-M_alt        'P 1 21/c 1'
_atom_sites_solution_hydrogens   geom
_atom_sites_solution_primary     direct
_audit_creation_date             2020-07-14
_audit_creation_method
;
Olex2 1.3
(compiled 2020.06.28 svn.raecde09e for OlexSys, GUI svn.r6132)
;
_cell_angle_alpha                90
_cell_angle_beta                 101.05(4)
_cell_angle_gamma                90
_cell_formula_units_Z            4
_cell_length_a                   7.824(8)
_cell_length_b                   13.1476(8)
_cell_length_c                   5.6603(6)
_cell_measurement_reflns_used    822
_cell_measurement_temperature    296(2)
_cell_measurement_theta_max      22.1300
_cell_measurement_theta_min      3.0900
_cell_volume                     571.5(6)
_computing_cell_refinement       'CrysAlisPro 1.171.40.67a (Rigaku OD, 2019)'
_computing_data_collection       'CrysAlisPro 1.171.40.67a (Rigaku OD, 2019)'
_computing_data_reduction        'CrysAlisPro 1.171.40.67a (Rigaku OD, 2019)'
_computing_molecular_graphics    'Olex2 1.3 (Dolomanov et al., 2009)'
_computing_publication_material  'Olex2 1.3 (Dolomanov et al., 2009)'
_computing_structure_refinement  'SHELXL 2018/3 (Sheldrick, 2015)'
_computing_structure_solution    'SHELXT 2018/2 (Sheldrick, 2018)'
_diffrn_ambient_environment      'diamond-anvil cell'
_diffrn_ambient_pressure         330000
_diffrn_ambient_temperature      296
_diffrn_detector                 'CCD plate'
_diffrn_detector_area_resol_mean 16.1544
_diffrn_detector_type            Eos
_diffrn_measured_fraction_theta_full 0.300
_diffrn_measured_fraction_theta_max 0.267
_diffrn_measurement_details
;
List of Runs (angles in degrees, time in seconds):

  # Type    Start    End  Width  t~exp~   \w     \q     \k     \f   Frames
--------------------------------------------------------------------------
  1  \f    -35.00  19.75   0.75   20.00   0.00 -30.00   0.00    --    73
  2  \f    140.00 200.00   0.75   20.00   0.00 -30.00   0.00    --    80
  3  \f    160.00 217.00   0.75   20.00   0.00  30.00   0.00    --    76
  4  \f    -20.00  34.75   0.75   20.00   0.00  30.00   0.00    --    73
  5  \w    -24.00  24.00   0.75   20.00    --   30.00  39.46 -12.90   64
  6  \w    -24.00  24.00   0.75   20.00    --   30.00  39.46 167.10   64
  7  \w    -50.00  10.00   0.75   20.00    --  -30.00  39.46 167.10   80
  8  \w    -50.00  10.00   0.75   20.00    --  -30.00  39.46 -12.90   80
  9  \w    -64.00  -8.50   0.75   20.00    --  -30.00  81.40 -28.90   74
 10  \w    -64.00  -8.50   0.75   20.00    --  -30.00  81.40 151.10   74
 11  \w    -19.00   8.00   0.75   20.00    --   30.00  81.40 151.10   36
 12  \w    -19.00   8.00   0.75   20.00    --   30.00  81.40 -28.90   36
 13  \w    -43.00 -21.25   0.75   20.00    --   30.00 134.60 -56.90   29
 14  \w    -43.00 -21.25   0.75   20.00    --   30.00 134.60 123.10   29
 15  \w    -90.00 -36.00   0.75   20.00    --  -30.00 134.60 123.10   72
 16  \w    -90.00 -36.00   0.75   20.00    --  -30.00 134.60 -56.90   72
;
_diffrn_measurement_device       'four-circle diffractometer'
_diffrn_measurement_device_type  'KM-4 CCD'
_diffrn_measurement_method
;
HP omega scans - for more details see:
A. Budzianowski, A. Katrusiak in High-Pressure Crystallography
(Eds.: A. Katrusiak, P. F. McMillan),
Dordrecht: Kluwer Acad. Publ., 2004 pp.157-168
;
_diffrn_orient_matrix_type
'CrysAlisPro convention (1999,Acta A55,543-557)'
_diffrn_orient_matrix_UB_11      0.0922184000
_diffrn_orient_matrix_UB_12      0.0017885000
_diffrn_orient_matrix_UB_13      0.0261062000
_diffrn_orient_matrix_UB_21      0.0023010000
_diffrn_orient_matrix_UB_22      -0.0491689000
_diffrn_orient_matrix_UB_23      0.0523053000
_diffrn_orient_matrix_UB_31      0.0023960000
_diffrn_orient_matrix_UB_32      -0.0222122000
_diffrn_orient_matrix_UB_33      -0.1135575000
_diffrn_radiation_monochromator  graphite
_diffrn_radiation_probe          x-ray
_diffrn_radiation_type           'Mo K\a'
_diffrn_radiation_wavelength     0.71073
_diffrn_reflns_av_R_equivalents  0.0742
_diffrn_reflns_av_unetI/netI     0.0351
_diffrn_reflns_Laue_measured_fraction_full 0.300
_diffrn_reflns_Laue_measured_fraction_max 0.267
_diffrn_reflns_limit_h_max       3
_diffrn_reflns_limit_h_min       -3
_diffrn_reflns_limit_k_max       17
_diffrn_reflns_limit_k_min       -17
_diffrn_reflns_limit_l_max       7
_diffrn_reflns_limit_l_min       -7
_diffrn_reflns_number            3822
_diffrn_reflns_point_group_measured_fraction_full 0.300
_diffrn_reflns_point_group_measured_fraction_max 0.267
_diffrn_reflns_theta_full        25.242
_diffrn_reflns_theta_max         27.918
_diffrn_reflns_theta_min         3.099
_diffrn_source                   'fine-focus sealed X-ray tube'
_diffrn_source_type              'Enhance (Mo) X-ray Source'
_exptl_absorpt_coefficient_mu    0.576
_exptl_absorpt_correction_T_max  1.00000
_exptl_absorpt_correction_T_min  0.76922
_exptl_absorpt_correction_type   multi-scan
_exptl_absorpt_process_details
;
CrysAlisPro 1.171.39.46 (Rigaku Oxford Diffraction, 2018)
Empirical absorption correction using spherical harmonics,
 implemented in SCALE3 ABSPACK scaling algorithm.
;
_exptl_crystal_colour            colourless
_exptl_crystal_density_diffrn    1.808
_exptl_crystal_description       plate
_exptl_crystal_F_000             312
_exptl_crystal_size_max          0.38
_exptl_crystal_size_mid          0.38
_exptl_crystal_size_min          0.28
_refine_diff_density_max         0.218
_refine_diff_density_min         -0.294
_refine_diff_density_rms         0.050
_refine_ls_extinction_method     none
_refine_ls_goodness_of_fit_ref   1.077
_refine_ls_hydrogen_treatment    constr
_refine_ls_matrix_type           full
_refine_ls_number_parameters     41
_refine_ls_number_reflns         366
_refine_ls_number_restraints     0
_refine_ls_restrained_S_all      1.077
_refine_ls_R_factor_all          0.0996
_refine_ls_R_factor_gt           0.0598
_refine_ls_shift/su_max          0.000
_refine_ls_shift/su_mean         0.000
_refine_ls_structure_factor_coef Fsqd
_refine_ls_weighting_details
'w=1/[\s^2^(Fo^2^)+(0.0673P)^2^+1.1248P] where P=(Fo^2^+2Fc^2^)/3'
_refine_ls_weighting_scheme      calc
_refine_ls_wR_factor_gt          0.1455
_refine_ls_wR_factor_ref         0.1766
_reflns_Friedel_coverage         0.000
_reflns_number_gt                230
_reflns_number_total             366
_reflns_threshold_expression     'I > 2\s(I)'
_cod_data_source_file            lt5042.cif
_cod_data_source_block           C4H2N5Cl1@0_33GPa_phase_beta
_cod_original_cell_volume        571.4(6)
_cod_database_code               1565888
_shelx_shelxl_version_number     2018/3
_chemical_oxdiff_formula         C4H2N5Cl1
_shelx_space_group_comment
;
The symmetry employed for this shelxl refinement is uniquely defined
by the following loop, which should always be used as a source of
symmetry information in preference to the above space-group names.
They are only intended as comments.
;
_reflns_odcompleteness_completeness 26.75
_reflns_odcompleteness_iscentric 1
_reflns_odcompleteness_theta     27.86
_olex2_refinement_description
;
1. Fixed Uiso
 At 1.2 times of:
  All C(H) groups
2.a Aromatic/amide H refined with riding coordinates:
 C8(H8), C7(H7)
;
_shelx_res_file
;
TITL 1b_a.res in P2(1)/c
    1b.res
    created by SHELXL-2018/3 at 12:08:10 on 28-Apr-2021
REM Old TITL 1b in P2(1)/c
REM SHELXT solution in P2(1)/c
REM R1 0.130, Rweak 0.184, Alpha 0.058, Orientation as input
REM Formula found by SHELXT: C8 N Cl
CELL 0.71073 7.8237 13.1476 5.6603 90 101.046 90
ZERR 4 0.0082 0.0008 0.0006 0 0.038 0
LATT 1
SYMM -X,0.5+Y,0.5-Z
SFAC C H Cl N
UNIT 16 8 4 20

L.S. 44
PLAN  5
CONF
BOND $H
list 4
MORE -1
fmap 2 53
acta
REM <olex2.extras>
REM <HklSrc "%.\\1b.hkl">
REM </olex2.extras>

WGHT    0.067300    1.124800
FVAR       0.68874
CL1   3    1.028909    0.339557    0.842426    11.00000    0.05821
N4    4    0.548829    0.352796    0.537482    11.00000    0.03637
N5    4    0.695748    0.331961    0.703632    11.00000    0.03839
N1    4    0.388826    0.415319    0.228959    11.00000    0.04961
N3    4    0.395680    0.336043    0.575320    11.00000    0.05354
N2    4    0.299286    0.374213    0.387295    11.00000    0.05549
C8    1    0.705619    0.425074    0.257932    11.00000    0.03678
AFIX  43
H8    2    0.708544    0.457206    0.112389    11.00000   -1.20000
AFIX   0
C6    1    0.838402    0.357271    0.630804    11.00000    0.03275
C9    1    0.541558    0.400844    0.321655    11.00000    0.03502
C7    1    0.856367    0.401263    0.409265    11.00000    0.03528
AFIX  43
H7    2    0.964682    0.413124    0.369796    11.00000   -1.20000
AFIX   0
HKLF 4




REM  1b_a.res in P2(1)/c
REM wR2 = 0.1766, GooF = S = 1.077, Restrained GooF = 1.077 for all data
REM R1 = 0.0598 for 230 Fo > 4sig(Fo) and 0.0996 for all 366 data
REM 41 parameters refined using 0 restraints

END

WGHT      0.0674      1.1239

REM Highest difference peak  0.218,  deepest hole -0.294,  1-sigma level  0.050
Q1    1   1.2676  0.3404  0.8761  11.00000  0.05    0.22
Q2    1   1.0787  0.3046  0.8230  11.00000  0.05    0.20
Q3    1   1.1422  0.3148  0.8403  11.00000  0.05    0.19
Q4    1   0.2291  0.4060  0.2598  11.00000  0.05    0.19
Q5    1   0.9845  0.3798  0.8815  11.00000  0.05    0.18
;
_shelx_res_checksum              2613
_shelx_hkl_file
;
   0  -2   0  212.61   10.01
   0  -2   0  196.68    8.67
   0   2   0  212.79    9.51
   0  -3   0    0.36    0.45
   0   3   0   -1.26    1.27
   0  -3   0   -0.65    1.46
   0  -3   0   -1.91    1.82
   0  -3   0   -0.09    1.08
   0   3   0    0.30    0.39
   0   3   0   -0.43    0.65
   1  -3   0   96.39    9.09
   0   4   0 9780.48  106.60
   0   4   0 9492.29  102.37
   0  -4   0 9585.14  112.46
   0  -4   0 9487.64  100.12
   0  -4   0 9080.37  104.89
   0   4   0 9719.89   89.85
   0   4   0 9999.00  119.45
   0   4   0 9732.05  111.39
   0  -4   0 9697.08   97.09
   0  -4   0 9571.09  106.11
  -1   4   0   18.65    3.96
   1   4   0   12.24    3.79
  -1   4   0   18.99    4.11
   1  -4   0   13.20    3.81
   1   4   0   15.25    4.98
  -1  -4   0   15.42    4.36
   1  -4   0   10.70    3.46
   1  -4   0   17.55    4.57
   1  -4   0   19.38    4.37
   0  -5   0    0.76    1.32
   0  -5   0    1.32    2.13
   0   5   0    0.72    1.55
   0   5   0    0.90    1.09
   0   5   0    0.66    0.64
   0  -5   0   -1.72    1.11
   0  -5   0    0.43    1.31
   0   5   0   -1.31    2.01
   0   5   0    1.05    1.19
   0  -5   0    0.21    1.54
   0  -5   0    0.79    1.21
   0  -5   0   -1.79    1.16
  -1  -5   0    6.01    2.76
   1  -5   0    5.32    2.40
   1  -5   0    7.47    2.90
   1   5   0    6.65    3.39
   1  -5   0    6.79    2.41
  -1  -5   0    7.90    3.08
  -1   5   0    7.15    2.59
  -1  -5   0    9.29    3.45
  -1   5   0    7.06    2.28
   1  -5   0    7.50    3.90
  -1  -5   0    5.70    2.97
   1  -5   0    4.73    1.63
  -1   5   0    7.14    2.54
   1   5   0    9.42    4.45
   1   5   0    2.94    1.35
   1   5   0    6.31    2.77
   0  -6   0  596.42   26.98
   0   6   0  597.58   32.96
   0  -6   0  606.94   29.51
   0   6   0  610.21   23.37
   0   6   0  466.04   25.06
   0  -6   0  519.67   24.24
   0   6   0  589.48   25.40
   0   6   0  549.77   29.78
   0  -6   0  530.96   27.91
   0  -6   0  583.25   23.33
   0   6   0  540.72   26.99
   0   6   0  602.46   29.17
   0  -6   0  582.27   30.78
   1  -6   0  270.52   21.67
  -1  -6   0  316.54   23.96
   1   6   0  201.57   22.19
   1   6   0  312.05   21.72
   1   6   0  310.59   19.64
  -1  -6   0  287.89   19.39
   1  -6   0  264.51   18.62
  -1   6   0  334.03   20.82
   1  -6   0  301.31   20.96
   1   6   0  274.19   25.90
   1  -6   0  267.58   16.56
  -1  -6   0  296.16   19.85
   1  -6   0  272.53   17.36
  -1  -6   0  334.97   23.43
   1   6   0  283.69   22.33
  -1   6   0  322.62   22.68
  -1  -6   0  306.79   21.82
  -1   6   0  330.41   20.68
   1  -6   0  327.81   20.42
   0   7   0   -1.10    2.51
   0  -7   0   -0.25    1.39
   0  -7   0   -0.19    1.67
   0  -7   0   -4.29    3.09
   0  -7   0   -0.90    2.29
   0   7   0    0.17    1.81
   0   7   0   -2.31    2.96
   0  -7   0   -4.00    3.38
   0   7   0   -3.81    2.86
   0  -7   0    1.70    1.10
   0   7   0    0.05    1.63
   0   7   0    1.02    1.65
   0  -7   0    1.95    1.04
   0   7   0   -0.14    1.37
  -1   7   0    8.90    4.10
  -1   7   0    5.76    2.95
   1  -7   0    5.06    3.32
   1  -7   0    4.84    3.46
  -1  -7   0    7.57    3.71
   1   7   0   -0.65    2.27
  -1   7   0    6.16    3.01
   1   7   0    5.05    4.53
   1  -7   0    4.89    3.05
  -1  -7   0    8.08    4.19
  -1  -7   0    6.75    3.00
   1   7   0    5.92    3.71
   1  -7   0    5.26    1.95
  -1  -7   0    1.78    1.56
  -1  -7   0    7.80    3.40
   1   7   0    6.48    4.32
   1  -7   0    7.27    3.85
   1  -7   0    6.82    3.19
   1   7   0    3.36    1.38
   0  -8   0    6.62    3.34
   0   8   0    2.62    3.07
   0  -8   0    3.33    3.16
   0  -8   0    6.66    3.75
   0  -8   0    0.45    1.11
   0   8   0    0.31    1.99
   0  -8   0    3.70    2.88
   0   8   0    1.62    1.20
   0   8   0    0.81    1.78
   1  -8   0   -2.50    3.47
   1  -8   0    0.45    1.85
  -1   8   0    2.06    1.27
   1   8   0   -1.83    3.37
   1  -8   0   -2.06    1.78
  -1  -8   0    1.17    1.34
  -1   8   0    2.40    2.63
  -1   8   0    4.92    3.38
   1  -8   0    0.16    1.16
   1  -8   0    2.07    1.33
  -1  -8   0    1.98    2.53
  -1  -8   0    0.76    2.55
  -1  -8   0    1.97    2.56
   1   8   0    1.29    1.84
   1   8   0   -0.94    2.56
   1   8   0   -1.00    1.82
   1   8   0   -1.14    0.88
  -2   8   0   -0.42    3.54
   2  -8   0   -2.36    2.90
   0  -9   0    2.87    2.70
   0   9   0   -0.88    1.55
   0   9   0    2.22    3.35
   0   9   0   -2.99    2.87
   0  -9   0   -3.57    5.53
   0   9   0   -1.99    3.09
   0  -9   0   -2.49    3.26
   0  -9   0   -2.57    3.01
   1   9   0    6.54    3.33
  -1  -9   0   12.59    5.56
   1  -9   0   15.31    6.53
  -1   9   0    9.68    4.42
  -1  -9   0    9.43    4.09
  -1  -9   0   11.54    5.12
   1   9   0   16.89    8.71
  -1  -9   0   16.87    6.81
   1  -9   0    8.31    3.56
   1  -9   0    6.99    2.97
  -1   9   0   10.76    5.67
   1   9   0   11.92    5.89
   1   9   0    8.72    3.89
  -1   9   0   17.64    6.71
   1  -9   0    8.30    3.32
  -2   9   0    4.41    3.07
   2  -9   0    4.75    3.68
  -2   9   0    1.48    2.36
   2  -9   0    6.80    3.50
   0  10   0  146.26   18.22
   0  10   0  152.41   22.98
   0 -10   0  140.31   19.25
   0  10   0  171.90   21.59
   0 -10   0  133.59   17.18
   0 -10   0  151.76   20.52
   0 -10   0  148.75   20.40
   0  10   0  130.21   20.87
   1 -10   0   37.19   10.13
   1  10   0   47.40   13.87
   1 -10   0   41.06   10.88
  -1 -10   0   45.81   10.60
  -1  10   0   51.95   12.37
  -1  10   0   62.16   12.60
   1 -10   0   43.25    9.82
   1  10   0   38.47   11.31
  -1 -10   0   48.59   10.84
  -1  10   0   54.57   11.14
  -1 -10   0   43.58   11.51
   1 -10   0   43.26   10.54
   1  10   0   43.78   10.25
  -1  10   0   44.35   12.01
   1  10   0   34.60   10.32
  -1 -10   0   43.77   10.22
   2 -10   0   29.04    9.21
  -2  10   0   43.15   10.98
   2 -10   0   20.48    7.12
  -2  10   0   36.63    9.32
   0  11   0   -3.05    2.25
   0 -11   0   -1.26    2.03
   0  11   0   -4.77    6.12
   0 -11   0   -6.37    5.81
   0 -11   0   -2.68    1.82
   0  11   0    0.66    2.88
   0  11   0    0.48    2.27
   0 -11   0    5.55    3.53
  -1  11   0   15.48    6.43
  -1  11   0   17.48    7.01
  -1 -11   0   16.52    7.43
  -1  11   0    7.77    4.03
   1 -11   0   19.02    9.45
  -1 -11   0   11.19    5.28
  -1 -11   0    3.76    2.94
   1 -11   0   12.75    6.03
   1  11   0    7.08    4.78
  -1  11   0   20.13    8.37
   1  11   0   12.63    8.03
   1 -11   0   13.13    5.56
   1  11   0   12.40    6.51
   1  11   0   12.61    6.85
   1 -11   0    9.58    5.52
  -1 -11   0   10.32    4.34
  -2  11   0   25.11   10.48
  -2  11   0   16.05    5.67
   2 -11   0   16.25    7.36
   2 -11   0    5.74    2.44
   0  12   0  247.40   32.23
   0  12   0  335.68   30.97
   0 -12   0  318.90   30.53
   0 -12   0  316.27   33.29
   0  12   0  284.49   30.87
   0  12   0  249.20   32.70
   0 -12   0  327.72   33.87
   0 -12   0  327.34   33.14
  -1  12   0    1.58    3.46
  -1 -12   0    4.97    2.58
  -1  12   0   -5.41    6.93
  -1 -12   0    0.69    2.81
   1 -12   0   -0.65    3.51
  -1  12   0    0.04    5.15
   1 -12   0    0.35    5.13
  -1  12   0   -7.22    5.73
   1 -12   0    6.74    4.82
   1  12   0   -3.36    4.15
   1 -12   0    1.05    3.30
  -1 -12   0   -2.93    3.78
   1  12   0   10.86    8.03
  -1 -12   0    0.33    3.88
   1  12   0    1.37    3.62
   2 -12   0   32.82   10.83
  -2  12   0   43.02   10.66
   2 -12   0   27.85    9.51
  -2  12   0   51.93   14.11
   0  13   0    7.53    5.81
   0  13   0    8.19    4.65
   0 -13   0   15.52    8.55
   0 -13   0   -5.43    5.21
   0 -13   0    7.88    4.14
   0  13   0   -0.41    2.67
   1  13   0    8.50    5.14
  -1  13   0    1.09    3.75
   1 -13   0   -3.19    4.00
  -1  13   0   15.66    8.20
  -1 -13   0   -0.10    4.12
   1  13   0   -3.74    4.63
  -1 -13   0   -1.43    4.16
   1 -13   0   -0.99    3.65
  -1 -13   0   -8.45    6.92
   1  13   0   11.09    8.31
   1 -13   0   -0.51    4.81
  -1  13   0   -4.71    5.61
  -2  13   0    0.64    4.41
   2 -13   0   -2.35    2.34
   2 -13   0   -0.28    3.49
   0  14   0   -5.84    6.61
   0 -14   0   11.04    6.97
   0  14   0    7.56    6.05
   0 -14   0   -4.27    8.14
   0  14   0   -1.81    2.84
   0 -14   0    2.15    3.23
  -1  14   0   -1.93    3.16
  -1 -14   0   -1.10    3.66
   1  14   0    4.90    3.62
   1 -14   0   -1.13    2.70
   1 -14   0    2.71    4.71
   1  14   0    0.61    3.92
   1 -14   0    4.00    7.31
  -1  14   0    7.27   10.36
   1  14   0   -8.24    8.74
  -1  14   0   -0.75    2.92
  -1 -14   0    4.15    7.20
   2 -14   0   -4.62    7.25
  -2  14   0    3.71    5.54
   0 -15   0   -6.61    5.00
   0  15   0  -10.60   13.00
   0 -15   0    4.94    2.56
   0 -15   0   -8.51    3.61
   0  15   0   -0.41    4.13
   1  15   0   -3.34    3.94
  -1  15   0    6.70    2.55
   1 -15   0    8.40    9.40
  -1  15   0    3.39    3.95
   1 -15   0    5.25    6.76
   1 -15   0   -2.56    4.38
  -1 -15   0   -0.17    4.61
  -1  15   0    8.46    4.98
   1  15   0   -6.47    5.36
  -1 -15   0   -2.06    7.14
   0  16   0   46.53   15.76
   0  16   0   61.89   21.29
   0 -16   0   74.80   19.22
   0  16   0   54.59   13.18
   0 -16   0   43.76   14.15
   0 -16   0   61.16   17.91
   1 -16   0   11.81    9.70
   1 -16   0    4.90    5.80
  -1 -16   0   -3.14    5.92
   1  16   0   10.74    7.81
   1 -16   0    5.00    8.16
   1  16   0    7.98    8.88
  -1  16   0    1.97    4.51
  -1 -16   0    8.87    9.93
  -1  16   0  -11.86    6.91
   0  17   0   -6.04    8.08
   0 -17   0  -15.85   11.29
   1 -17   0   -9.30    6.86
  -1  17   0    1.76    7.20
  -1   0   1    0.15    0.34
  -1   0   1   -1.78    1.44
   0   0   1    0.95    1.39
   0   0  -1   -0.04    0.46
   0   0  -1   -0.46    1.15
   0   0  -1    0.03    0.98
   0   0  -1    0.34    0.61
  -1  -1   1  575.91   26.57
  -1   1   1  568.98   25.31
  -1   1   1  617.69   28.40
   1  -1  -1  533.95   25.11
   1  -1  -1  535.58   21.24
   0  -1  -1 1143.11   29.82
   0  -1  -1 1225.10   37.71
   0  -1   1 1207.22   23.33
   0   1   1 1280.85   42.02
   0  -1  -1 1180.63   29.56
   0   1  -1 1206.07   23.24
   0   1  -1 1176.48   31.58
   0  -1   1 1244.39   29.86
   0   1  -1 1216.60   27.32
   0   1   1 1207.10   32.69
   0  -1  -1 1167.57   34.84
  -1  -2   1 2421.08   56.07
   1   2  -1 2310.01   48.27
   1  -2  -1 2253.00   39.44
   1   2  -1 2222.70   48.89
  -1   2   1 2434.29   60.94
   1  -2  -1 2425.90   57.37
  -1  -2   1 2791.77   49.58
   1  -2  -1 2495.67   57.86
   1  -2  -1 2668.42   54.09
  -1  -2   1 2434.34   54.14
   0   2  -1   63.14    6.22
   0   2   1   55.38    7.88
   0   2  -1   63.38    6.26
   0  -2   1   56.60    4.86
   0  -2  -1   61.40    8.79
   0  -2  -1   65.65    8.88
   0  -2   1   58.99    6.11
   0   2  -1   56.66    6.91
   0  -2  -1   61.32    7.66
   0   2  -1   60.40    6.71
   0  -2  -1   61.58    5.77
   0   2   1   58.97    9.54
   0  -2  -1   57.50    6.39
   0  -2   1   69.93    7.55
   0  -2   1   51.78    5.54
   0   2   1   53.32    6.32
   1   3  -1 2947.73   56.78
  -1  -3   1 2977.93   64.40
   1  -3  -1 2976.45   67.63
   1  -3  -1 3083.96   53.00
   1   3  -1 3054.80   60.60
   1   3  -1 3005.85   61.28
  -1   3   1 3269.72   75.03
  -1  -3   1 3061.15   53.82
   1  -3  -1 3058.22   67.74
   1   3  -1 2910.50   59.93
   1  -3  -1 2787.76   52.15
  -1  -3   1 2888.98   51.30
   1  -3  -1 3162.60   65.00
   0  -3  -1  908.92   27.33
   0   3   1 1006.69   32.48
   0  -3   1  959.78   31.51
   0   3  -1  921.54   28.24
   0  -3   1  898.28   26.70
   0   3  -1  902.73   27.64
   0   3  -1  964.62   26.01
   0  -3   1  935.02   25.03
   0  -3  -1  884.25   34.72
   0   3  -1  915.14   29.10
   0   3   1  947.27   37.13
   0  -3  -1  857.30   35.93
   0  -3   1  943.97   28.43
   0   3  -1  936.73   29.57
   0  -3  -1  828.60   24.63
   0   3   1  990.84   42.20
   0  -3  -1  962.09   34.75
   0   3   1  979.34   21.29
   0  -3  -1  904.37   19.45
   1  -4  -1    1.69    1.03
   1   4  -1    0.37    1.45
  -1   4   1    0.55    1.24
   1  -4  -1    1.67    1.07
   1   4  -1    2.04    2.15
   1  -4  -1    2.20    1.70
  -1  -4   1    3.40    1.90
  -1  -4   1   -0.15    1.81
   1   4  -1    5.22    2.89
  -1  -4   1    0.93    0.86
   1   4  -1   -1.41    1.95
   1  -4  -1    0.92    0.56
  -1   4   1    0.66    0.51
  -1  -4   1    1.30    1.06
   1  -4  -1    1.71    1.67
  -1   4   1   -0.94    2.14
   1  -4  -1    0.21    1.82
  -1   4   1    1.83    0.72
   1  -4  -1    5.74    3.32
   1   4  -1   -0.02    1.88
   0   4   1 5210.99  105.82
   0   4  -1 5302.42   76.00
   0  -4  -1 4453.45   90.48
   0  -4  -1 4949.26   90.35
   0  -4   1 4821.47   60.44
   0   4   1 5076.21   97.87
   0  -4   1 5299.86   79.04
   0   4  -1 5126.46   77.83
   0  -4   1 5211.63   83.67
   0  -4   1 5089.67   72.00
   0   4   1 4723.63   66.10
   0   4  -1 5023.54   77.81
   0   4  -1 5140.27   74.23
   0  -4   1 4960.69   74.50
   0  -4  -1 5114.74   91.27
   0  -4  -1 5060.45   77.21
   0  -4  -1 4970.79   59.41
   0   4  -1 5182.55   78.38
   0   4   1 4741.73   84.93
   0   4   1 5353.57   65.14
  -1   4  -1    0.59    0.61
  -1   4  -1    6.31    2.38
   1  -4   1    4.00    2.17
   1  -4   1    1.23    1.29
  -1   4  -1    3.81    2.64
  -1  -5   1  127.08   11.44
  -1  -5   1  124.01   12.71
   1  -5  -1  114.12   13.89
  -1   5   1  131.91   10.66
   1  -5  -1  113.82   14.08
  -1  -5   1  124.20   12.60
  -1  -5   1  108.28   14.03
  -1   5   1  125.46   15.95
   1   5  -1  108.57   12.44
   1  -5  -1  113.02    8.92
  -1  -5   1  154.39   15.86
   1  -5  -1  125.90   12.49
   1   5  -1  108.01   11.05
  -1   5   1  130.05   13.29
  -1   5   1  132.84   10.35
   1  -5  -1  125.51   10.71
   1   5  -1  118.16   12.90
   1   5  -1  114.67   14.60
   1  -5  -1  112.79    9.91
   1   5  -1  112.39   13.64
   0  -5   1  300.61   19.01
   0  -5   1  335.33   21.34
   0   5   1  330.63   27.01
   0   5  -1  362.88   18.58
   0   5   1  329.84   23.49
   0  -5   1  312.08   19.06
   0  -5  -1  286.09   22.91
   0   5  -1  338.61   21.31
   0  -5   1  334.14   17.13
   0   5   1  306.20   17.88
   0  -5   1  296.14   18.01
   0  -5  -1  337.38   20.74
   0   5  -1  319.64   20.28
   0   5  -1  314.97   19.80
   0  -5  -1  334.86   23.36
   0   5  -1  329.99   19.79
   0  -5  -1  313.82   15.94
   0   5   1  328.58   16.92
   0   5  -1  327.44   17.94
   0  -5  -1  305.75   23.51
   0  -5  -1  326.37   18.80
   0   5   1  337.38   26.42
   0  -5   1  345.53   21.78
   1  -5   1   22.74    5.50
  -1  -5  -1   36.98    7.69
  -1  -5  -1   29.82    7.99
   1   5   1   18.37    7.22
   1   5   1   20.67    6.73
  -1   5  -1   23.71    5.52
   1  -5   1   21.57    5.24
  -1   5  -1   30.76    6.01
  -1  -5  -1   21.34    6.79
  -1   5  -1   27.57    5.96
   1  -5   1   25.77    5.87
   2  -6  -1   80.34   13.83
   2  -6  -1   73.54   11.34
  -1   6   1  124.23   14.40
  -1   6   1  113.92   15.79
  -1   6   1  128.93   11.66
   1   6  -1  119.84   14.18
   1  -6  -1  106.11   10.78
   1  -6  -1  107.88   14.63
  -1  -6   1  111.01   12.94
   1   6  -1  103.78   14.11
   1   6  -1  119.15   11.60
  -1  -6   1  104.01   14.19
   1  -6  -1  121.56   15.22
   1  -6  -1  104.27   10.52
  -1   6   1  114.89   10.77
  -1  -6   1  135.25   16.22
   1  -6  -1   88.84   11.62
   1  -6  -1  117.05   15.01
   1   6  -1  122.26   16.45
   1   6  -1  101.05   12.63
  -1  -6   1  128.26   12.75
  -1  -6   1  104.74   12.67
   0   6   1   -0.85    2.79
   0   6  -1    4.32    3.80
   0  -6   1    1.87    2.18
   0  -6  -1   -0.67    1.91
   0  -6  -1    2.09    2.00
   0  -6   1    1.72    2.23
   0  -6   1    3.05    2.27
   0  -6  -1    2.48    1.82
   0   6  -1    4.95    3.84
   0  -6   1    3.76    2.96
   0   6   1    3.16    2.79
   0   6   1   -0.48    2.02
   0   6  -1    1.32    2.48
   0  -6  -1    7.45    5.03
   0   6  -1    0.79    1.96
   0   6   1    2.12    3.19
   0  -6   1    3.15    2.50
   0   6  -1    0.22    1.69
   0   6   1    0.23    2.76
   0  -6  -1    2.14    2.47
   0  -6   1    3.39    2.90
   0  -6  -1   -3.23    3.01
   0   6  -1    4.41    3.49
  -1   6  -1   22.79    5.79
  -1  -6  -1   20.96    6.68
   1  -6   1   24.11    5.87
  -1  -6  -1   34.23    7.58
   1   6   1   19.54    8.03
   1   6   1   21.72    6.77
   1  -6   1   26.06    6.33
  -1   6  -1   33.24    6.97
   1  -6   1   22.03    5.99
  -1   6  -1   24.03    5.97
  -1  -6  -1   26.70    5.72
   1  -6   1   19.69    5.12
   1   6   1   25.77    5.58
  -1  -6  -1   33.80    8.61
  -1   6  -1   27.72    6.43
  -2   7   1   39.31    9.89
  -2   7   1   45.58    7.89
   2  -7  -1   25.68    7.68
   2  -7  -1   27.33    7.59
   2  -7  -1   35.90    9.32
   2  -7  -1   22.68    5.77
   1  -7  -1  775.85   41.61
   1   7  -1  848.55   31.37
   1  -7  -1  868.70   45.29
  -1  -7   1  859.58   38.39
  -1   7   1  855.89   32.83
  -1  -7   1  843.90   36.74
  -1   7   1  888.91   41.69
   1   7  -1  848.46   47.78
   1   7  -1  824.65   42.16
   1  -7  -1  789.13   31.98
   1   7  -1  889.45   39.87
   1  -7  -1  812.70   38.25
  -1  -7   1  859.77   39.33
  -1  -7   1  686.32   38.30
   1  -7  -1  790.70   33.94
  -1   7   1  887.05   35.54
   1  -7  -1  718.59   38.61
  -1  -7   1 1050.79   48.22
  -1   7   1  802.69   44.55
   1   7  -1  795.28   39.08
   0  -7   1   98.22   12.64
   0   7   1  118.97   12.47
   0   7   1   97.08   12.47
   0   7   1   99.09   15.26
   0  -7   1   80.73    9.49
   0  -7   1  100.40   12.03
   0   7  -1  116.71   14.87
   0  -7   1   86.78   12.32
   0   7   1   92.10   15.82
   0  -7  -1  110.52   16.13
   0   7  -1   92.99   13.00
   0  -7  -1  114.55   15.42
   0   7  -1   99.10   12.92
   0  -7   1  113.77   14.32
   0  -7  -1   99.65   12.63
   0  -7  -1  102.25   11.31
   0   7   1  100.48   16.99
   0   7  -1   97.02   12.37
   0  -7  -1  111.10   13.87
   0  -7   1  101.02   12.63
   0   7  -1   86.63    9.70
   0  -7  -1   89.45   14.62
   0   7  -1  121.47   13.56
  -1  -7  -1   36.35    9.08
   1   7   1   46.66    8.53
   1   7   1   30.57    9.79
   1  -7   1   48.20    9.07
  -1   7  -1   43.62    8.36
   1  -7   1   35.54    7.65
  -1   7  -1   43.45    8.72
   1  -7   1   40.16    8.56
   1   7   1   33.45   10.14
  -1   7  -1   33.45    7.07
  -1   7  -1   49.28    9.36
  -1  -7  -1   45.12   11.06
  -1  -7  -1   51.85   10.43
   1  -7   1   34.57    7.76
  -1  -7  -1   48.83    8.41
  -2   8   1  186.80   17.55
  -2   8   1  167.70   19.90
   2  -8  -1  142.39   20.70
   2  -8  -1  152.28   18.59
   2  -8  -1  110.27   16.47
   2   8  -1  136.56   18.52
   2  -8  -1  113.54   13.75
  -1  -8   1    1.28    2.69
   1   8  -1    1.81    2.01
  -1  -8   1    9.59    5.12
   1   8  -1   -2.03    3.80
   1  -8  -1    4.27    3.56
   1   8  -1    7.49    3.86
  -1   8   1    1.33    1.43
   1  -8  -1    4.00    3.53
  -1  -8   1    4.37    4.01
  -1   8   1   -1.16    2.53
  -1   8   1    0.14    2.27
   1  -8  -1    3.33    2.86
   1  -8  -1    1.58    2.02
  -1  -8   1    3.91    3.64
  -1   8   1    0.28    3.60
   1   8  -1    3.55    2.92
  -1  -8   1    3.85    3.48
   1  -8  -1    3.28    3.02
   1  -8  -1    2.23    2.08
   0  -8  -1 1797.47   64.02
   0   8   1 1673.90   67.89
   0   8   1 1386.85   66.06
   0  -8  -1 1704.29   69.04
   0   8  -1 1748.79   55.58
   0  -8  -1 1730.17   60.49
   0   8  -1 1737.25   59.66
   0   8  -1 1651.87   60.12
   0   8   1 1640.75   56.49
   0   8  -1 1692.44   60.46
   0  -8   1 1707.53   56.99
   0   8   1 1775.19   53.12
   0  -8   1 1523.76   56.98
   0  -8   1 1731.50   55.58
   0  -8  -1 1745.56   51.45
   0   8  -1 1533.84   55.21
   0  -8   1 1838.19   63.73
   0   8   1 1602.76   70.35
   0  -8   1 1761.34   58.93
   0  -8  -1 1640.89   57.29
   1   8   1   12.85    4.91
  -1  -8  -1   11.56    6.02
   1   8   1    5.40    4.10
   1  -8   1    5.31    2.66
  -1  -8  -1    8.20    4.10
  -1  -8  -1    9.94    3.68
   1   8   1    2.24    3.13
   1  -8   1   14.83    6.02
  -1   8  -1   12.41    3.94
   1  -8   1   10.28    3.69
  -1   8  -1   10.06    5.60
   1  -8   1    5.22    2.79
  -1   8  -1   12.89    5.63
  -1   8  -1    9.12    4.20
  -1  -8  -1   10.52    5.31
  -2  -9   1   -0.01    3.31
   2  -9  -1    2.75    3.27
   2   9  -1    3.06    4.31
  -2  -9   1    1.12    2.55
   2  -9  -1    0.21    2.80
  -2   9   1    0.65    4.42
   2  -9  -1   -0.28    3.70
  -2   9   1    3.28    2.38
   2   9  -1    3.86    2.00
  -2  -9   1    3.37    3.79
   2   9  -1    5.50    3.78
   2  -9  -1   -3.67    4.38
   1   9  -1  155.93   19.17
  -1   9   1  149.97   21.68
  -1   9   1  153.12   19.88
  -1  -9   1  147.17   18.43
   1  -9  -1   92.80   15.21
   1   9  -1  134.49   16.53
  -1  -9   1  161.04   19.40
  -1  -9   1  157.04   21.06
   1   9  -1  135.92   21.54
   1  -9  -1  140.31   18.25
  -1   9   1  140.04   16.44
  -1   9   1  159.08   16.22
  -1   9   1  143.82   20.16
   1  -9  -1  155.96   21.75
   1  -9  -1  112.40   15.01
  -1  -9   1  109.93   16.92
   1   9  -1  120.13   17.90
  -1  -9   1  126.76   16.12
   1  -9  -1  140.73   15.57
   0  -9  -1   22.76    7.13
   0  -9  -1   19.79    6.89
   0   9   1   20.01    8.45
   0   9   1   23.80    8.95
   0   9   1   21.12    6.63
   0  -9   1   24.79    7.23
   0  -9  -1   31.26    9.80
   0   9  -1   30.66    8.26
   0  -9   1   29.56    8.07
   0   9   1   19.29    7.91
   0   9   1   27.87    6.95
   0   9  -1   18.89    7.06
   0   9  -1   31.05    9.31
   0  -9  -1   26.52    7.21
   0   9   1   20.35    8.68
   0  -9  -1   22.91    7.14
   0  -9   1   30.54    8.04
   0  -9   1   30.65    8.37
   0   9  -1   24.02    7.71
   0   9  -1   29.12    7.34
   0  -9   1   29.36    8.07
   0  -9  -1   17.51    5.02
  -1  -9  -1  114.38   17.26
   1  -9   1  108.09   15.73
  -1   9  -1  124.42   16.50
   1   9   1  107.63   20.61
  -1   9  -1  131.71   16.80
   1   9   1   78.36   18.55
  -1   9  -1  127.08   17.70
  -1  -9  -1  146.34   21.78
   1  -9   1   95.66   14.38
  -1  -9  -1  148.42   19.78
   1  -9   1  115.30   15.70
   1  -9   1  134.51   17.83
  -1  -9  -1  125.87   15.41
   1   9   1  134.55   16.84
  -1   9  -1  132.69   15.99
   2 -10  -1   13.80    5.52
  -2 -10   1   18.41    7.35
  -2 -10   1   19.54    8.29
   2 -10  -1   17.12    7.72
   2 -10  -1   11.90    5.90
  -2  10   1   20.00    8.10
   2  10  -1   19.75    8.05
  -2  10   1   15.96    5.59
   2  10  -1    4.73    1.72
  -1 -10   1   81.95   16.34
   1 -10  -1   57.36   12.57
   1 -10  -1   63.99   11.80
  -1  10   1   69.32   11.57
   1  10  -1   55.35   11.45
   1  10  -1   68.33   13.74
  -1 -10   1   51.75   11.96
  -1  10   1   58.03   12.79
  -1 -10   1   60.46   12.94
   1 -10  -1   59.71   14.02
   1  10  -1   55.29   14.16
   1  10  -1   59.30   13.75
  -1  10   1   73.65   12.64
  -1 -10   1   64.59   12.38
  -1  10   1   49.70   13.20
   1 -10  -1   63.52   11.66
   0 -10  -1   15.62    7.22
   0  10  -1   26.97    8.20
   0 -10   1   31.61    8.50
   0  10   1   22.13    9.73
   0 -10  -1   22.19    8.48
   0 -10   1   28.31    8.76
   0 -10   1   20.95    6.89
   0  10   1   12.71    5.08
   0 -10   1   17.51    6.54
   0  10   1   30.49    8.92
   0  10  -1   28.19    7.60
   0  10   1   20.21    8.93
   0 -10  -1   37.06   11.16
   0  10  -1   15.97    6.70
   0 -10  -1   29.15    7.64
   0  10  -1   19.45    8.68
   1 -10   1    6.97    5.05
   1 -10   1    9.80    5.85
  -1  10  -1   17.26    6.62
   1 -10   1    6.99    5.22
   1  10   1   10.99    5.13
  -1  10  -1   10.79    5.07
  -1 -10  -1   11.54    4.77
  -1 -10  -1    9.53    4.99
   1  10   1    3.11    3.66
   1 -10   1   13.44    6.90
   1  10   1    1.87    2.38
  -1 -10  -1   16.25    5.72
  -1  10  -1   12.23    6.81
  -2  11   1   13.13    7.14
   2 -11  -1   13.21    8.09
   2 -11  -1    7.39    3.57
   2  11  -1    3.92    4.80
   2 -11  -1    9.43    7.20
  -2  11   1   19.28    7.50
   1 -11  -1   16.48    6.68
   1  11  -1   14.46    6.51
   1 -11  -1   23.40    8.92
  -1  11   1   23.12    7.84
  -1  11   1   19.89    8.33
  -1  11   1   22.14    9.10
  -1 -11   1   20.08    8.52
   1  11  -1   25.42    9.52
   1 -11  -1   21.71    6.93
  -1 -11   1   24.74    7.78
  -1  11   1   22.25    8.33
   1  11  -1   16.49    7.59
  -1 -11   1   17.52    5.97
   1 -11  -1   21.50    9.64
   0 -11   1   15.36   11.22
   0 -11   1    6.36    7.89
   0 -11  -1    8.17    5.18
   0  11   1    3.98    3.18
   0  11   1   -4.23    4.53
   0 -11  -1   -2.95    4.09
   0 -11  -1    5.69    5.59
   0  11  -1    8.02    5.01
   0  11  -1   -1.89    2.31
   0 -11  -1    5.46    4.25
   0  11  -1    8.17    6.02
   0  11   1    1.20    2.75
   0 -11   1   -2.77    3.09
   0  11   1    3.76    3.80
   1 -11   1    0.43    3.44
  -1 -11  -1   -5.22    6.32
   1  11   1   -2.31    4.34
   1  11   1   -0.30    4.00
  -1  11  -1    0.73    2.01
   1 -11   1    3.12    2.72
  -1 -11  -1   -0.43    3.76
   1 -11   1    9.24    5.23
  -1 -11  -1    0.28    3.08
   1  11   1   -1.35    4.27
  -1  11  -1   -1.24    3.56
  -1  11  -1   -1.03    2.18
   2 -12  -1   18.88    7.41
  -2  12   1   23.74    9.87
   2 -12  -1   27.50   11.23
  -2  12   1   29.05    9.41
   2 -12  -1   27.98   10.44
   1  12  -1    8.54    7.90
  -1 -12   1    4.19    2.30
  -1  12   1   12.41    7.22
  -1 -12   1   -1.39    4.50
   1 -12  -1   -7.87    7.25
  -1  12   1    5.69    3.90
   1  12  -1    4.34    3.77
   1 -12  -1   10.00    4.70
   1  12  -1   20.55    9.24
   1 -12  -1   -2.42    5.03
   1 -12  -1    7.78    3.92
  -1  12   1    2.07    3.24
  -1  12   1   -1.52    3.37
  -1 -12   1    4.34    3.77
   0  12   1   72.33   13.44
   0  12  -1   57.09   14.23
   0 -12  -1   78.30   16.29
   0  12   1   56.68   15.20
   0  12   1   51.54   13.21
   0  12  -1   59.48   13.76
   0 -12   1   71.52   15.56
   0 -12  -1   71.88   14.04
   0 -12  -1   49.62   11.34
   0  12   1   46.92   15.67
   0 -12  -1   78.69   19.02
   0 -12   1  111.63   21.69
   0 -12   1   65.47   14.59
   0  12  -1   61.36   15.23
  -1 -12  -1   -3.46    7.85
  -1  12  -1   -5.86    5.21
   1  12   1   -5.36    5.44
  -1 -12  -1   -2.47    4.15
   1 -12   1   -4.21    6.92
   1  12   1   -4.75    5.40
   1  12   1   -5.05    7.07
  -1 -12  -1    5.51    4.90
   1 -12   1    1.16    4.04
  -1  12  -1    4.58    4.13
   1 -12   1    4.50    4.54
  -1  12  -1    8.12    5.33
  -2  13   1   -2.15    5.87
   2 -13  -1    1.58    4.14
  -2  13   1   -4.33    8.57
  -1 -13   1   18.06    7.38
  -1  13   1   19.29   10.98
   1 -13  -1   21.80    6.35
  -1  13   1   23.55   10.75
   1 -13  -1   17.52   10.70
  -1 -13   1   19.33    8.57
  -1 -13   1   13.92    7.20
   1  13  -1   13.50    6.74
   1  13  -1   19.15   11.91
   1  13  -1    5.52    5.08
   0 -13  -1   -2.27    5.78
   0 -13  -1  -10.16    9.10
   0  13   1   -8.11   11.05
   0  13  -1   -4.66    6.26
   0 -13   1   -6.85    6.21
   0  13  -1  -11.23    6.47
   0  13   1    8.48    7.09
   0 -13   1   -7.97    4.09
   0 -13   1    5.17    5.61
   0  13  -1   -4.32    5.83
  -1 -13  -1   43.16   12.42
  -1  13  -1   24.63    8.96
   1 -13   1   27.15   10.48
   1 -13   1   22.44   10.13
  -1  13  -1   29.25   11.52
   1 -13   1   51.31   14.40
  -1  13  -1   23.46    7.94
   1  13   1   10.43    5.10
   1  13   1   21.97    6.83
  -1 -13  -1   32.24    9.80
  -2  14   1    7.88    7.02
  -2  14   1    9.51    8.43
   2 -14  -1   10.23    6.23
  -1 -14   1   50.41   14.26
   1  14  -1   54.87   15.86
  -1  14   1   51.38   17.49
  -1 -14   1   67.17   16.96
   1  14  -1   52.02   13.04
   1  14  -1   50.73   18.24
  -1  14   1   59.24   17.17
   1 -14  -1   56.55   24.21
  -1 -14   1   37.19   12.91
   1 -14  -1   39.86   11.72
   0 -14   1   20.62   10.19
   0  14  -1   16.25    7.76
   0  14  -1    8.35    7.11
   0 -14   1   11.79    7.14
   0  14   1    3.30    2.52
   0  14   1   15.49    9.32
   0 -14  -1   12.86    9.74
   0  14  -1   22.79   11.30
   0 -14  -1    2.27    2.77
   0 -14   1   18.38    9.12
  -1  14  -1   12.53    7.82
   1 -14   1   -2.33    4.83
  -1 -14  -1   13.60    7.68
   1 -14   1   -2.87    7.45
   1 -14   1   11.63    7.49
   1  14   1   15.30   11.10
  -1  14  -1   -4.06    5.65
  -1 -14  -1    7.87    3.16
  -1  14  -1    1.29    3.62
  -2  15   1    6.00    5.77
  -2  15   1    8.81    8.40
   2 -15  -1    8.81    9.54
  -1 -15   1    5.44    6.26
  -1  15   1    4.63    7.11
   1  15  -1    6.71    5.82
  -1 -15   1   -7.88    8.09
   1  15  -1    4.33    4.59
  -1 -15   1    3.61    5.44
   1  15  -1  -12.75   11.76
   0  15  -1    5.98    9.48
   0  15   1    1.74    6.11
   0 -15   1   -6.48    5.30
   0  15   1    4.37    4.45
   0  15  -1   -6.95    6.99
   0 -15   1   -2.17    5.36
   0 -15  -1   13.19    7.87
   0 -15   1   -6.30    8.01
   0 -15  -1   -1.28    3.96
   0  15  -1    0.69    5.92
   1 -15   1    0.26    4.53
  -1  15  -1   14.66   12.29
   1 -15   1   15.73    9.15
  -1 -15  -1   12.49    7.12
  -1  15  -1    8.35    8.50
  -1  15  -1    2.46    4.57
   1 -15   1    5.82    6.20
   1  15   1    4.48    6.93
  -2  16   1   -0.01    2.83
   2 -16  -1   -6.59    6.03
  -1 -16   1    3.36    6.06
  -1  16   1  -11.76   14.19
  -1 -16   1    8.73    9.68
   1 -16  -1   -5.70    5.94
   1  16  -1  -10.19   10.92
   1  16  -1   -5.82    7.84
  -1 -16   1   -1.49    5.35
   1  16  -1    3.04    5.91
   0 -16  -1   13.30    7.93
   0  16  -1   -6.27    8.18
   0 -16   1   10.86    7.80
   0  16  -1   -5.34    5.29
   0  16  -1    4.07    6.37
   0  16   1   -5.31   13.38
   0 -16   1    2.79    4.33
   0 -16   1    3.90    4.80
  -1  16  -1   -4.38    4.49
   1 -16   1  -17.15   10.49
   1 -16   1    4.73    8.01
  -1  16  -1   10.94    6.51
  -1  16  -1    5.41    6.82
   1 -16   1  -10.91    5.43
   0  17  -1   -2.70    7.37
   0 -17   1   -5.88    6.04
  -1  17  -1   -8.52   12.34
   1   0  -2  524.08   30.64
   1   0  -2  432.77   21.45
   1   0  -2  481.48   28.46
  -1   0   2  428.93   23.95
   1   0  -2  470.80   20.81
  -1   0   2  446.74   29.24
  -1   0   2  402.77   27.72
   1   0  -2  466.03   27.94
  -1   0   2  473.42   14.36
   1   0  -2  403.85   13.90
   0   0   2  782.70   43.64
   0   0  -2  788.18   27.19
   0   0  -2  851.94   41.42
   0   0  -2  799.75   19.64
   0   0  -2  804.46   27.26
   0   0   2  778.01   29.49
   0   0  -2  807.98   35.94
   0   0  -2  743.65   35.69
   0   0   2  796.87   19.59
  -1  -1   2 1422.90   50.04
  -1  -1   2 1534.68   54.76
   1   1  -2 1648.27   51.85
   1   1  -2 1463.09   37.19
   1   1  -2 1439.04   50.30
  -1  -1   2 1603.74   47.76
   1   1  -2 1483.93   43.37
   1  -1  -2 1477.69   49.74
  -1   1   2 1550.32   54.20
  -1   1   2 1495.08   40.45
   1  -1  -2 1484.73   41.88
  -1   1   2 1397.56   54.23
   1  -1  -2 1607.64   56.12
   1   1  -2 1463.64   47.62
   1   1  -2 1352.38   31.55
   1  -1  -2 1406.52   51.45
  -1  -1   2 1669.51   36.96
  -1  -1   2 1523.07   31.92
   1  -1  -2 1436.25   36.37
   0   1  -2  223.63   18.58
   0  -1   2  189.77   11.75
   0  -1   2  220.86   22.22
   0  -1  -2  232.14   19.02
   0   1  -2  240.12   12.64
   0   1  -2  239.47   21.69
   0  -1  -2  221.34   20.41
   0   1   2  246.18   25.35
   0   1  -2  198.95   11.38
   0   1  -2  217.31   11.96
   0  -1  -2  222.46   16.14
   0   1  -2  241.31   16.09
   0  -1   2  228.10   16.84
   0   1   2  216.51   14.27
   0   1   2  201.78   17.86
   0  -1  -2  210.20   12.78
   0   1  -2  226.66   19.55
   0  -1  -2  232.20   22.35
   0  -1   2  224.27   12.24
  -2   2   2   39.89   10.73
   2  -2  -2   38.36    9.48
   2  -2  -2   30.47    7.86
   1   2  -2  621.14   26.71
   1  -2  -2  615.80   35.11
   1  -2  -2  655.18   37.27
   1  -2  -2  562.31   18.94
  -1  -2   2  617.04   22.80
   1   2  -2  585.12   29.03
  -1  -2   2  561.74   29.97
  -1   2   2  536.61   34.84
  -1   2   2  623.65   34.25
  -1   2   2  701.00   21.67
  -1   2   2  530.60   22.69
   1  -2  -2  622.55   29.31
  -1  -2   2  669.11   32.29
  -1  -2   2  607.12   34.78
   1   2  -2  672.52   31.44
   1   2  -2  625.69   33.42
   1  -2  -2  610.40   31.03
   1  -2  -2  587.08   20.68
  -1  -2   2  829.32   30.90
   1   2  -2  612.09   29.36
   1   2  -2  553.88   22.73
   0   2  -2   36.57    5.47
   0  -2   2   41.36    5.94
   0  -2  -2   34.19    6.91
   0  -2  -2   33.83    8.77
   0  -2  -2   35.29    4.72
   0  -2  -2   35.39    8.76
   0  -2   2   39.78    9.10
   0   2  -2   37.18    5.59
   0   2   2   33.77    7.98
   0   2   2   30.89    5.05
   0   2  -2   39.75    8.23
   0  -2  -2   41.93    7.79
   0   2  -2   33.82    7.51
   0   2   2   37.14   10.13
   0  -2   2   29.23    6.62
   0   2  -2   33.65    6.57
   0   2  -2   36.81    6.59
   0  -2   2   36.60    5.70
   2  -3  -2    3.02    2.72
   2  -3  -2    3.89    3.49
  -2  -3   2    3.14    1.95
  -2   3   2    6.61    5.25
   2   3  -2    3.04    1.78
   2  -3  -2    1.04    2.79
   2  -3  -2   -1.29    2.87
   1   3  -2    6.62    2.37
  -1  -3   2    7.25    2.55
   1   3  -2    2.86    1.83
   1  -3  -2    8.44    4.78
  -1  -3   2    8.24    2.16
  -1  -3   2    9.20    2.93
  -1  -3   2    7.82    3.62
   1  -3  -2    6.89    2.26
   1  -3  -2    5.75    3.21
  -1   3   2   13.53    5.84
  -1   3   2    7.75    2.58
   1   3  -2    9.60    3.47
  -1   3   2    7.43    4.60
   1  -3  -2    0.85    3.51
   1   3  -2    6.63    2.70
   1  -3  -2    4.37    2.87
  -1  -3   2   15.32    5.45
  -1  -3   2    5.08    2.76
   1   3  -2    5.41    1.90
   1   3  -2    5.77    3.75
   1  -3  -2    8.24    2.32
   0  -3  -2  268.03   25.92
   0  -3  -2  266.26   24.02
   0   3  -2  248.45   17.01
   0   3  -2  278.48   17.27
   0   3   2  272.93   28.79
   0   3   2  232.02   21.75
   0  -3   2  283.80   17.58
   0  -3  -2  287.36   22.16
   0   3  -2  300.55   13.81
   0   3  -2  262.91   17.14
   0  -3  -2  266.73   15.31
   0   3   2  297.13   13.67
   0  -3   2  269.74   20.64
   0   3  -2  292.73   22.11
   0   3   2  220.30   17.86
   0   3  -2  275.46   21.89
   0  -3  -2  283.72   20.89
   0  -3   2  196.38   19.55
   0   3  -2  274.70   19.57
   0  -3   2  284.81   17.60
  -1   3  -2    5.32    3.21
   2  -4  -2   18.02    6.26
   2   4  -2    8.60    4.11
  -2   4   2   11.65    6.91
   2  -4  -2    8.00    4.71
  -2  -4   2   15.41    4.15
   2  -4  -2    5.57    2.29
  -2  -4   2   12.45    5.82
   2   4  -2   11.98    4.66
   2  -4  -2   11.25    3.84
   2   4  -2   13.17    4.48
  -1  -4   2  317.61   22.59
   1   4  -2  280.35   17.44
   1  -4  -2  249.08   24.34
   1   4  -2  202.46   17.10
  -1   4   2  256.74   21.67
  -1   4   2  225.87   24.64
  -1  -4   2  261.93   14.86
   1  -4  -2  229.19   20.88
   1   4  -2  249.83   19.94
  -1   4   2  270.69   18.13
  -1  -4   2  233.19   22.15
   1  -4  -2  240.22   15.79
   1  -4  -2  244.17   24.46
  -1  -4   2  231.62   21.36
   1  -4  -2  217.28   18.12
   1   4  -2  266.34   22.04
   1   4  -2  227.55   19.33
  -1  -4   2  246.19   17.39
   1   4  -2  217.87   17.09
   0   4   2   40.57    8.27
   0   4  -2   48.60    6.83
   0  -4  -2   49.36    7.45
   0   4  -2   46.51    7.55
   0  -4   2   46.95    7.75
   0   4  -2   44.26    6.31
   0   4   2   46.56   12.39
   0  -4  -2   51.74   11.59
   0  -4  -2   50.14    9.77
   0   4  -2   39.10    7.90
   0   4  -2   46.98    7.85
   0   4   2   44.69   10.07
   0   4  -2   51.33    9.45
   0  -4   2   46.76    9.23
   0  -4  -2   42.79   10.38
   0  -4  -2   38.84    7.42
   0  -4   2   42.74    6.04
   0  -4  -2   42.23    4.06
   0   4   2   52.20    4.70
   0  -4   2   49.08    8.15
   1  -4   2   18.80    5.09
  -1   4  -2   13.85    4.82
  -1   4  -2   25.82    5.78
  -2  -5   2   37.31    7.70
  -2  -5   2   46.15    8.27
   2  -5  -2   44.37   10.53
   2  -5  -2   39.97    9.92
   2  -5  -2   43.34    8.71
  -2   5   2   50.61   13.02
   2   5  -2   32.75    7.80
   2   5  -2   29.91    8.44
  -2   5   2   41.35    5.67
  -2   5   2   41.61    7.84
  -2  -5   2   32.84    9.57
   2  -5  -2   50.32   10.21
   2   5  -2   28.57    7.97
   2   5  -2   33.46    7.92
   1   5  -2  588.50   30.64
  -1  -5   2  554.81   35.31
   1   5  -2  643.88   34.71
   1  -5  -2  588.68   36.11
  -1   5   2  635.64   30.91
  -1  -5   2  591.71   25.84
   1  -5  -2  585.03   38.98
   1  -5  -2  543.19   20.14
   1   5  -2  633.27   34.90
   1   5  -2  566.43   32.21
  -1  -5   2  611.13   36.69
   1   5  -2  764.23   27.05
  -1   5   2  598.05   42.18
   1  -5  -2  622.08   28.51
   1  -5  -2  573.40   28.49
  -1   5   2  641.20   34.07
  -1   5   2  608.84   20.20
   1  -5  -2  637.66   40.86
   1   5  -2  591.10   32.65
  -1  -5   2  788.64   38.76
  -1  -5   2  618.74   30.09
   0  -5   2   25.16    4.80
   0   5  -2   24.78    6.54
   0  -5  -2   24.95    8.01
   0   5  -2   25.47    6.18
   0  -5  -2   23.13    8.35
   0  -5   2   23.31    5.48
   0  -5  -2   27.22    6.20
   0   5  -2   29.37    4.62
   0   5   2   21.30    6.70
   0   5   2   29.19    4.30
   0   5  -2   28.81    5.92
   0   5   2   28.77    8.57
   0   5  -2   24.72    6.45
   0  -5   2   23.02    5.90
   0   5  -2   27.62    7.22
   0  -5   2   26.88    7.40
   0   5   2   29.59   10.70
   0  -5  -2   28.06    6.90
   0  -5  -2   30.36    4.26
   0  -5  -2   24.88    7.07
  -1  -5  -2  231.55   26.48
   1  -5   2  220.01   20.93
   1   5   2  202.93   26.22
  -1   5  -2  295.38   21.62
  -1   5  -2  303.24   23.57
  -1  -5  -2  303.31   28.48
  -1   5  -2  330.16   22.63
   1  -5   2  273.23   21.96
   1  -5   2  244.80   19.82
  -2  -6   2   57.61   13.03
   2  -6  -2   61.51   10.16
   2  -6  -2   55.74   13.18
  -2  -6   2   81.07   13.55
  -2   6   2   62.84   14.59
   2   6  -2   45.29    9.77
  -2   6   2   73.76    8.30
  -2   6   2   57.97   10.19
  -2  -6   2   64.57   10.38
   2   6  -2   55.88   11.74
   2  -6  -2   56.58   12.62
   2  -6  -2   52.81    9.69
  -2  -6   2   55.62   10.10
   2   6  -2   59.72   11.44
   2  -6  -2   52.47   12.65
   2   6  -2   56.98   11.37
   2  -6  -2   40.68    6.13
   1   6  -2 1330.07   50.02
   1  -6  -2 1438.69   63.63
  -1   6   2 1515.28   52.84
   1  -6  -2 1398.15   63.16
  -1   6   2 1630.12   40.62
  -1   6   2 1486.50   51.80
   1  -6  -2 1469.41   48.09
   1   6  -2 1437.02   55.36
   1   6  -2 1458.74   56.95
  -1  -6   2 1381.99   57.54
   1  -6  -2 1445.69   60.46
  -1   6   2 1468.20   33.62
   1   6  -2 1420.91   52.85
   1  -6  -2 1256.40   41.62
  -1   6   2 1394.74   66.93
  -1  -6   2 1508.72   46.15
   1   6  -2 1428.39   53.38
  -1  -6   2 1818.61   63.42
   1  -6  -2 1339.12   37.77
  -1  -6   2 1156.33   51.92
  -1  -6   2 1556.38   51.82
   0  -6   2   69.73   11.02
   0   6   2   70.56    7.76
   0  -6  -2   62.72   12.84
   0   6  -2   72.38   11.11
   0  -6   2   61.66    9.28
   0   6   2   51.40   13.20
   0   6  -2   67.11    9.73
   0   6  -2   61.49   10.83
   0   6   2   49.82   10.48
   0  -6  -2   66.75   13.86
   0   6   2   42.50   11.33
   0  -6   2   62.93   11.63
   0  -6  -2   71.25   10.75
   0   6  -2   79.02   12.56
   0  -6  -2   54.91   13.43
   0   6  -2   69.62   11.52
   0  -6   2   67.77   11.48
   0  -6  -2   62.58    6.93
   1  -6   2   76.94   12.59
   1   6   2   60.66   14.25
  -1  -6  -2   83.47   12.79
  -1  -6  -2   77.62   15.56
  -1   6  -2   71.30   11.00
  -1   6  -2   94.66   12.98
  -1   6  -2   88.90   11.52
  -1  -6  -2   92.81   16.85
   1  -6   2   59.59   11.14
  -1   6  -2   83.93   12.78
   1  -6   2   72.15   11.62
  -2  -7   2   33.08    8.88
   2  -7  -2   32.68    8.04
   2   7  -2   32.95    9.12
   2  -7  -2   37.76   11.46
  -2  -7   2   35.50    7.91
  -2  -7   2   31.76    8.43
   2  -7  -2   21.05    5.02
  -2  -7   2   22.46    8.00
  -2   7   2   40.21   12.43
   2   7  -2   31.96    8.42
   2   7  -2   26.24    8.60
  -2   7   2   40.43    9.05
   2  -7  -2   35.94    9.92
  -2   7   2   38.82    6.79
   2   7  -2   32.36    8.77
   1   7  -2  468.29   31.05
   1  -7  -2  450.71   36.95
   1  -7  -2  435.70   21.73
  -1  -7   2  512.94   28.87
   1  -7  -2  481.44   29.60
   1  -7  -2  518.50   41.49
   1   7  -2  476.48   33.86
  -1   7   2  487.80   41.10
   1   7  -2  491.64   35.58
  -1  -7   2  429.31   31.75
  -1   7   2  538.49   26.29
  -1  -7   2  448.52   33.75
   1  -7  -2  469.02   36.35
  -1   7   2  521.64   32.79
   1   7  -2  511.92   32.21
  -1   7   2  486.29   22.06
  -1  -7   2  620.34   38.79
   1   7  -2  449.52   31.50
   1  -7  -2  433.79   23.78
  -1  -7   2  496.76   31.29
   0  -7   2   87.53   13.44
   0  -7   2   75.81   12.64
   0   7   2   78.74    9.03
   0   7   2   78.20   17.56
   0   7  -2   80.33   12.66
   0  -7  -2   79.96   12.05
   0  -7   2   61.35   11.40
   0   7  -2   74.30   11.18
   0   7   2   76.05   13.97
   0  -7  -2   71.37   15.76
   0   7  -2   66.86   11.93
   0  -7  -2   77.88   15.16
   0   7   2   73.47   15.97
   0  -7   2   74.31   13.47
   0  -7  -2   78.09   14.81
   0   7  -2   71.08   11.97
   0  -7   2   77.99   11.32
   0   7  -2   73.28   12.44
   0  -7  -2   77.05    8.82
  -1  -7  -2   80.97   13.47
  -1  -7  -2   78.58   16.23
  -1   7  -2   76.23   12.63
  -1   7  -2   86.68   12.80
  -1  -7  -2   78.17   15.92
   1  -7   2   83.04   13.39
  -1   7  -2   77.82   11.65
   1   7   2   58.54   14.97
   1  -7   2   56.30   11.32
   1   7   2   82.55   10.92
  -1  -7  -2   80.41   10.31
  -1   7  -2   80.70   13.27
   1  -7   2   68.06   11.79
  -2  -8   2   -0.69    2.58
   2  -8  -2    0.78    3.00
   2  -8  -2   -4.29    5.11
  -2  -8   2   -1.40    2.48
   2   8  -2   -2.19    3.21
   2   8  -2   -1.92    3.61
  -2   8   2   -0.98    2.58
  -2  -8   2    0.03    1.23
  -2  -8   2    0.29    1.54
   2  -8  -2    1.98    6.60
  -2   8   2    4.12    6.72
   2   8  -2   -3.86    4.67
   1   8  -2   52.42   10.57
   1   8  -2   55.91   12.62
   1  -8  -2   43.91   11.33
  -1  -8   2   64.19   12.69
  -1  -8   2   62.61   11.98
   1  -8  -2   56.19   13.88
  -1   8   2   62.01   15.50
   1   8  -2   54.38   11.25
  -1   8   2   48.40   13.26
   1   8  -2   54.94   12.42
  -1   8   2   71.70   14.03
  -1   8   2   69.49   15.95
  -1  -8   2   61.80   10.93
   1  -8  -2   55.56   13.08
   1  -8  -2   59.01   10.69
  -1  -8   2   50.91   12.25
   0  -8   2  137.03   17.83
   0  -8  -2  104.95   20.41
   0  -8  -2  137.07   21.33
   0  -8  -2  128.97   16.50
   0   8  -2  123.90   16.24
   0   8   2  105.61   21.00
   0   8   2  113.46   18.01
   0   8  -2  144.78   18.81
   0   8  -2  126.83   17.25
   0   8   2  117.50   21.79
   0  -8  -2  127.56   20.62
   0  -8   2  122.43   17.33
   0  -8   2  113.25   14.49
   0  -8   2  139.10   18.35
   0   8  -2  136.40   17.17
  -1  -8  -2   13.69    6.38
  -1   8  -2    6.07    4.24
   1   8   2    3.72    2.79
  -1   8  -2    5.32    2.84
  -1  -8  -2   13.22    6.68
   1  -8   2    8.10    5.18
   1  -8   2   11.77    2.78
  -1   8  -2    8.90    4.76
  -1   8  -2    6.94    4.62
   1  -8   2   12.45    5.97
  -1  -8  -2    7.86    5.58
  -2  -9   2    4.48    2.59
  -2  -9   2    4.76    3.48
   2  -9  -2   -1.17    2.58
   2  -9  -2    4.71    4.20
  -2   9   2    1.54    2.26
   2   9  -2    0.56    1.83
  -2  -9   2    7.12    4.71
   2  -9  -2    1.57    3.14
   2   9  -2    5.86    5.44
   2   9  -2    6.04    3.79
   1   9  -2   11.86    7.04
   1   9  -2    2.31    4.05
   1  -9  -2    4.96    3.79
   1  -9  -2   -0.10    5.81
  -1  -9   2   10.80    5.36
  -1   9   2   -0.39    2.15
  -1  -9   2   -4.16    4.79
  -1   9   2   -3.28    4.57
  -1   9   2    1.57    1.74
   1  -9  -2   -1.68    6.81
   1   9  -2    1.91    3.33
  -1   9   2    6.43    6.31
   1   9  -2    7.76    5.51
   1  -9  -2   -1.40    4.28
  -1  -9   2    1.24    3.64
  -1  -9   2    5.21    3.47
   0  -9   2   13.88    6.31
   0   9   2   16.50    9.05
   0  -9  -2   12.20    5.50
   0  -9   2    1.99    4.57
   0  -9  -2    4.31    1.93
   0  -9   2    0.52    1.59
   0   9  -2   11.02    6.72
   0  -9   2    6.38    4.15
   0  -9  -2    9.89    5.84
   0   9   2   17.15    7.98
   0   9  -2    7.39    3.23
   0   9  -2    4.54    5.45
   0   9   2    2.26    4.43
   0  -9  -2    6.57    6.08
   0   9  -2   10.85    6.06
  -1   9  -2   14.10    4.33
  -1  -9  -2    1.74    4.05
   1  -9   2    6.56    3.86
   1  -9   2   14.42    6.72
   1  -9   2   10.66    6.00
   1   9   2    8.20    6.01
  -1   9  -2   10.67    4.50
  -1  -9  -2    8.34    4.26
  -1   9  -2   15.37    6.21
  -1   9  -2   10.10    4.87
   1  -9   2    0.43    5.69
  -1  -9  -2    3.86    3.45
  -2 -10   2    6.06    5.29
  -2 -10   2    6.02    4.70
   2  10  -2   -5.63    5.97
   2 -10  -2   -0.27    2.48
   2 -10  -2    5.54    5.02
   2  10  -2    3.56    4.97
  -2  10   2   -2.93    2.31
   2 -10  -2   -4.65    8.18
  -2 -10   2   11.81    6.03
   2  10  -2    3.53    6.45
  -1 -10   2  367.50   31.25
   1 -10  -2  366.53   32.09
  -1 -10   2  394.91   31.61
   1 -10  -2  349.24   36.14
   1 -10  -2  293.23   34.04
  -1  10   2  358.79   38.97
   1  10  -2  392.85   36.09
   1  10  -2  292.44   29.33
  -1  10   2  365.46   41.21
  -1  10   2  365.94   36.18
   1  10  -2  367.56   37.45
  -1  10   2  350.73   39.07
  -1 -10   2  285.53   31.16
   1 -10  -2  388.57   39.33
  -1 -10   2  468.08   40.10
   1  10  -2  387.32   32.33
   0  10  -2   11.65    6.19
   0 -10  -2   20.49   10.44
   0 -10  -2   18.19    8.63
   0 -10   2    2.00    2.60
   0 -10  -2   14.02    5.62
   0  10   2    3.16    4.98
   0  10   2   11.10    4.63
   0  10  -2   18.31    6.76
   0 -10   2    5.22    3.19
   0  10   2   10.59    4.55
   0  10  -2   10.10    5.59
   0 -10  -2   11.19    6.14
   0 -10   2    3.06    4.75
   0  10  -2    5.39    3.36
   0 -10   2    3.92    2.06
   0  10   2    9.57    8.53
  -1  10  -2    6.74    1.85
  -1 -10  -2   10.07    5.22
   1 -10   2    5.05    4.77
   1 -10   2   -1.15    4.37
   1  10   2    2.72    5.22
  -1 -10  -2    6.58    5.27
   1  10   2   14.76   11.25
  -1  10  -2   10.60    5.52
  -1 -10  -2   12.88    8.37
   1 -10   2    7.79    4.53
  -1  10  -2    8.40    5.24
   1 -10   2    5.12    3.47
  -1  10  -2   14.80    5.54
   2  11  -2   35.71   11.81
  -2 -11   2   38.24   12.70
  -2 -11   2   42.74   11.49
  -2 -11   2   44.35   12.23
   2 -11  -2   29.28   10.37
   2  11  -2   27.98   10.54
  -2  11   2   29.14   10.12
   2  11  -2   33.15   10.66
   2 -11  -2   52.78   14.16
  -1 -11   2  225.39   25.87
   1 -11  -2  227.66   26.48
  -1 -11   2  235.85   26.00
   1  11  -2  191.81   29.02
  -1  11   2  229.57   30.89
   1  11  -2  168.54   23.31
   1  11  -2  189.78   26.62
  -1 -11   2  166.74   24.86
   1 -11  -2  215.81   30.24
  -1 -11   2  239.83   29.74
   1  11  -2  220.01   25.91
  -1  11   2  185.32   30.14
   0 -11  -2    4.27    4.86
   0 -11   2    9.03    5.04
   0  11  -2    5.84    2.22
   0 -11   2   13.63    7.41
   0  11   2    3.36    2.95
   0  11  -2   -2.90    4.31
   0 -11  -2   -5.01    4.67
   0  11  -2    0.39    2.05
   0  11   2    2.59    2.11
   0 -11   2   15.66    8.25
   0 -11   2   -0.49    3.27
   0  11  -2    6.35    2.28
   1 -11   2   43.24   12.67
  -1 -11  -2   60.63   14.55
  -1  11  -2   55.53   13.26
   1 -11   2   51.59   11.45
   1  11   2   31.62   13.01
  -1  11  -2   57.00   13.91
  -1 -11  -2   55.76   16.16
   1 -11   2   47.11   12.19
  -1  11  -2   58.99   14.90
   1 -11   2   28.59    9.78
  -2 -12   2    2.71    4.13
   2  12  -2   17.11    8.20
  -2 -12   2   -1.38    5.39
  -2  12   2  -10.69    8.70
  -2 -12   2    3.91    2.74
   2  12  -2    4.85    5.26
  -2  12   2    9.22    8.40
   2  12  -2    5.99    5.88
   2 -12  -2    4.90    3.38
   2 -12  -2   -3.47    6.74
  -1  12   2    5.79    6.18
   1  12  -2    2.72    4.76
  -1 -12   2   18.86    8.21
  -1 -12   2    1.40    3.34
   1  12  -2    5.16    3.13
  -1  12   2    4.77    7.45
   1 -12  -2   16.88    8.77
   1  12  -2    4.20    5.48
  -1 -12   2    3.88    3.62
   1 -12  -2   19.79   11.70
  -1 -12   2   10.61    5.90
   1  12  -2    5.59    3.25
   0  12   2   71.48   18.33
   0 -12  -2   81.92   16.77
   0 -12   2   58.81   15.16
   0 -12  -2   75.51   19.68
   0 -12   2   72.33   15.71
   0  12   2   42.04   16.10
   0  12  -2   62.23   14.55
   0  12  -2   85.37   18.32
   0 -12   2   52.62   13.34
   0  12  -2   49.58   13.56
   0 -12   2   66.54   16.98
   0  12  -2   58.28   12.63
  -1 -12  -2   13.98    8.18
   1 -12   2    5.77    5.53
   1 -12   2    3.08    5.42
  -1  12  -2    7.45    5.28
  -1  12  -2    5.36    3.83
  -1 -12  -2    6.68    8.05
  -1  12  -2    3.11    2.24
   1 -12   2   -2.09    3.75
   1 -12   2    3.80    4.23
  -2  13   2   -5.63    5.31
   2 -13  -2    1.37    3.67
   2  13  -2    5.21    3.82
  -2  13   2   -5.86    5.75
   2  13  -2   -9.15    8.68
   2 -13  -2  -11.24   10.18
  -2 -13   2    2.78    4.54
  -2 -13   2    4.44    5.47
   1 -13  -2   29.62   10.23
   1  13  -2   23.47   12.81
  -1 -13   2   20.62    8.83
  -1 -13   2   23.35    9.93
   1  13  -2   24.03    9.23
  -1 -13   2   28.29    9.42
  -1  13   2   15.73   10.84
   1  13  -2   19.09    8.89
   1 -13  -2   20.02   10.24
  -1  13   2   19.79    9.45
   0 -13   2   31.43   13.42
   0 -13  -2   28.39   11.21
   0 -13   2   17.07    5.81
   0  13   2   21.39   12.46
   0  13  -2    7.41    6.49
   0 -13   2   27.56   10.83
   0  13  -2   25.54   10.28
   0  13  -2   11.81    5.64
   0 -13  -2   29.80   13.21
   0  13   2    3.83    7.51
   1 -13   2   14.66    6.34
   1 -13   2    9.48    7.47
   1 -13   2   16.51    7.04
  -1  13  -2   21.97   10.81
  -1  13  -2   15.21    5.95
  -1  13  -2   21.59    9.79
   2 -14  -2    5.32    4.35
  -2  14   2   21.75   11.72
  -2  14   2    9.22    3.39
   2 -14  -2    5.25    7.66
  -1  14   2   26.98   13.08
   1  14  -2   19.82    8.80
  -1 -14   2   33.25   10.14
   1 -14  -2   27.32   12.68
   1 -14  -2   12.81    9.47
  -1 -14   2   22.31    8.90
   1  14  -2   22.10   11.80
  -1  14   2   28.09   14.45
   1  14  -2   28.16   11.88
  -1 -14   2   13.06    6.30
   0 -14  -2   -3.54    4.28
   0 -14   2   -6.45    7.89
   0 -14   2   -5.62    9.66
   0  14   2   12.60   13.15
   0  14  -2   -5.88    5.25
   0  14   2   -4.60    7.09
   0 -14   2   -6.97    4.15
   0  14  -2    0.96    7.15
   0 -14  -2    0.11    5.15
   0  14  -2  -16.02   10.00
  -1  14  -2   -8.89    2.69
  -1  14  -2    0.59    3.32
   1 -14   2   -3.36    2.74
   1 -14   2   -0.17    4.72
   2 -15  -2    6.54    7.39
  -2  15   2    9.56    3.80
   2 -15  -2   11.66    8.26
  -2  15   2    5.79    3.42
  -1 -15   2   -4.42    8.20
  -1 -15   2   12.75    8.41
   1 -15  -2   -8.32    8.25
   1  15  -2   -6.31    5.66
   1  15  -2   -6.45    7.14
  -1 -15   2   10.53    6.48
  -1  15   2    5.97    8.04
   1  15  -2    4.97    7.07
  -1  15   2    2.53    5.94
   1 -15  -2   10.61    8.37
   0 -15   2   -8.80    8.45
   0 -15   2  -12.15    7.84
   0  15  -2  -29.70   12.72
   0 -15  -2   -8.42    5.51
   0  15   2   -6.13   11.57
   0  15  -2    6.51   10.56
   0  15   2   -3.52   11.51
   0  15  -2    8.63    8.52
   0 -15   2    5.49    9.16
   0 -15  -2    1.39    8.07
  -1  15  -2   18.35   10.80
   1 -15   2   -0.19   10.01
  -1  15  -2    0.36    7.79
  -1  15  -2   10.71    5.57
   1 -15   2   20.27    9.82
  -2  16   2   -2.09    8.53
  -2  16   2    5.00   10.57
  -1 -16   2   -9.10   10.65
   1 -16  -2    5.82    3.51
   1  16  -2   -4.10    8.09
  -1 -16   2    6.58    4.89
  -1  16   2   -7.60   13.21
   1  16  -2  -14.50   12.50
  -1 -16   2   -7.72    9.05
  -1  16   2    3.78   10.02
   1  16  -2    0.51    5.57
   1 -16  -2   13.64    9.01
   0 -16  -2  -14.53   10.73
   0 -16  -2    0.51    4.58
   0 -16   2   -7.30    3.46
   0  16  -2    9.77    8.15
   0  16   2   -5.92    7.73
   0  16   2   -9.42   10.47
   0  16  -2  -11.85    8.25
   0  16  -2    2.34    6.76
   0 -16   2    1.65    3.67
   1 -16   2   12.27    9.54
  -1  16  -2    3.49    6.50
  -2   0   3    1.03    1.39
   2   0  -3    1.72    1.78
   2   0  -3   -0.29    1.71
  -2   0   3    0.68    2.35
  -2   0   3    3.18    4.68
   2   0  -3    2.04    2.37
  -2   0   3    1.95    2.04
   2   0  -3   -0.45    2.99
   2   0  -3    1.63    2.81
  -1   0   3   -0.42    1.05
   1   0  -3   -2.07    2.61
   1   0  -3   -1.28    2.60
   1   0  -3   -0.24    0.42
   1   0  -3   -0.30    1.38
  -1   0   3   -0.35    0.85
  -1   0   3   -3.80    4.87
   1   0  -3   -0.89    3.28
   1   0  -3    0.24    1.41
  -1   0   3    0.55    3.49
  -1   0   3   -0.79    2.50
   1   0  -3   -2.62    3.17
  -1   0   3   -0.57    2.63
   0   0  -3   -1.78    2.12
   0   0   3   -1.68    2.42
   0   0  -3   -3.56    2.90
   0   0  -3   -0.27    3.50
   0   0  -3   -0.08    2.25
   0   0   3    0.17    1.12
   0   0  -3    0.75    3.31
   0   0  -3   -0.07    1.10
   0   0   3   -2.15    2.33
   2  -1  -3  178.46   22.54
   2   1  -3  192.57   22.74
  -2   1   3  160.73   22.94
  -2  -1   3  200.17   24.43
  -2   1   3  206.53   26.04
  -2  -1   3  207.46   25.75
  -2  -1   3  208.19   22.82
   2   1  -3  219.32   23.83
   2   1  -3  209.34   24.00
   2  -1  -3  218.78   24.13
   2  -1  -3  240.01   26.60
  -2   1   3  205.16   10.45
  -2  -1   3  199.05   13.61
   2   1  -3  135.74   11.95
   2  -1  -3  162.37   16.40
   2   1  -3  196.95   19.31
  -1  -1   3   92.38    8.55
   1  -1  -3  102.44   16.52
   1  -1  -3   93.94   15.64
   1   1  -3   95.94   15.23
   1   1  -3  124.09   18.38
   1   1  -3  100.36   10.63
  -1  -1   3   71.24   13.59
  -1  -1   3   94.24   16.51
  -1   1   3   88.62   15.71
  -1  -1   3   95.49   10.69
  -1   1   3  114.54   14.90
  -1   1   3   90.62   12.38
   1  -1  -3   85.67   11.12
  -1  -1   3  108.02   14.61
   1   1  -3   88.95    9.35
   1   1  -3   94.69   15.33
   1  -1  -3  106.36   16.15
  -1  -1   3  136.87   12.28
   1   1  -3   78.40    8.16
   1   1  -3   93.69   12.15
   1  -1  -3   86.82   10.48
   0  -1   3    8.88    6.93
   0  -1  -3    9.24    6.26
   0   1  -3    4.23    3.29
   0   1  -3   10.66    4.33
   0  -1  -3    7.10    2.91
   0  -1   3    5.70    2.42
   0   1   3    8.16    5.93
   0   1   3    9.46    2.35
   0   1   3    3.47    1.75
   0  -1  -3    9.58    5.14
   0   1  -3    3.73    1.99
   0  -1  -3    8.08    5.20
   0   1  -3    4.10    3.22
   0   1  -3    9.37    3.17
   0   1  -3    5.76    4.21
   0  -1  -3    7.53    1.96
   0  -1  -3    9.82    4.51
   0  -1   3    4.91    3.04
   0   1   3   10.95    4.12
   2   2  -3   37.87    8.88
  -2  -2   3   37.76    6.62
   2   2  -3   30.88    6.20
  -2   2   3   21.35    8.97
  -2   2   3   41.68    5.71
  -2   2   3   45.89   11.98
  -2  -2   3   28.97    9.56
   2  -2  -3   44.03   11.81
   2  -2  -3   35.49   10.55
  -2  -2   3   29.87    8.68
   2  -2  -3   30.40    7.48
   2   2  -3   33.24   10.03
   2  -2  -3   32.93    9.48
   2  -2  -3   27.08    6.38
   2   2  -3   24.85    6.42
  -1  -2   3  555.39   23.88
   1  -2  -3  686.51   48.12
   1   2  -3  702.48   43.18
   1   2  -3  503.67   23.55
   1  -2  -3  577.06   40.94
  -1  -2   3  428.05   32.48
   1   2  -3  575.54   28.65
  -1   2   3  546.38   23.37
   1   2  -3  556.98   34.80
  -1   2   3  567.15   39.51
  -1   2   3  602.59   36.98
  -1   2   3  541.97   29.54
   1  -2  -3  568.96   31.84
  -1  -2   3  582.19   35.89
  -1  -2   3  491.77   38.06
   1   2  -3  556.99   38.15
   1  -2  -3  607.54   38.26
  -1  -2   3  811.17   33.83
   1   2  -3  553.78   31.50
   1  -2  -3  530.97   24.11
   0   2  -3  214.91   25.38
   0  -2  -3  168.29   21.99
   0   2  -3  176.53   19.53
   0  -2   3  160.00   23.75
   0   2   3  163.29   26.05
   0  -2  -3  205.62   27.61
   0   2  -3  153.73   12.99
   0  -2  -3  175.76   10.94
   0   2  -3  184.83   14.51
   0  -2  -3  165.32   17.82
   0   2  -3  186.19   11.81
   0  -2   3  120.94   15.63
   0   2   3  184.54   15.92
   0   2   3  124.73   18.08
   0  -2   3  166.09   14.25
   0   2  -3  204.76   22.60
   0  -2  -3  197.62   21.99
   0   2  -3  181.78   17.80
   0  -2   3  191.51   14.65
   2   3  -3  575.46   36.51
   2  -3  -3  574.73   44.00
   2  -3  -3  508.31   40.75
  -2   3   3  479.75   42.18
  -2   3   3  605.57   25.26
  -2   3   3  511.07   39.89
  -2  -3   3  504.59   40.74
  -2  -3   3  511.59   37.26
   2  -3  -3  516.14   34.37
   2   3  -3  505.88   38.50
   2  -3  -3  505.56   36.37
  -2  -3   3  546.43   27.42
   2  -3  -3  448.72   23.11
   2   3  -3  357.23   28.38
   2   3  -3  357.72   23.15
  -1  -3   3  304.30   19.52
   1  -3  -3  358.86   35.55
  -1  -3   3  199.31   21.00
  -1  -3   3  267.51   27.56
   1   3  -3  277.81   23.83
   1  -3  -3  263.62   15.15
   1  -3  -3  294.42   30.13
   1   3  -3  313.75   22.65
  -1   3   3  285.84   18.42
  -1   3   3  278.78   27.70
   1   3  -3  236.71   17.71
  -1   3   3  327.32   28.95
  -1   3   3  249.75   18.45
   1  -3  -3  266.02   23.59
  -1  -3   3  314.74   28.00
   1   3  -3  286.58   27.51
   1  -3  -3  303.07   26.56
   1   3  -3  381.12   30.61
  -1  -3   3  398.55   25.73
   1   3  -3  258.12   22.38
   1  -3  -3  255.62   15.13
   0  -3  -3  164.80   25.13
   0   3  -3  145.13   20.72
   0  -3   3  126.80   13.61
   0  -3  -3  136.40   11.23
   0  -3  -3  115.40   19.07
   0  -3   3  111.08   19.33
   0   3   3   99.30   20.99
   0   3  -3  130.28   13.24
   0   3  -3  142.40   16.88
   0   3   3  107.85   18.05
   0  -3  -3  126.86   16.92
   0  -3   3  127.57   16.52
   0   3   3  116.28   11.77
   0   3  -3  138.08   19.19
   0  -3  -3  139.82   18.36
   0   3  -3  112.98   12.06
   0   3  -3  121.58   14.99
   0  -3   3  131.05   13.45
   1  -3   3  107.88   15.69
  -2  -4   3    2.77    2.96
  -2  -4   3   -0.01    0.98
   2  -4  -3   -2.82    2.80
  -2   4   3    2.88    2.53
   2   4  -3   -1.37    1.17
  -2   4   3    3.92    4.03
  -2  -4   3    0.27    2.81
   2   4  -3   -1.65    1.43
  -2   4   3    5.26    2.83
   2  -4  -3    4.60    4.38
  -2  -4   3    6.24    4.90
   2   4  -3    2.59    2.56
   2  -4  -3   -1.58    2.98
   2  -4  -3    2.11    3.70
   2   4  -3   -0.96    3.30
   2   4  -3    3.09    3.69
   1   4  -3    0.35    2.74
   1  -4  -3   -3.29    3.87
  -1  -4   3   -0.78    2.23
   1   4  -3    2.06    2.24
   1  -4  -3    1.59    1.08
  -1  -4   3    1.19    1.54
  -1  -4   3    2.62    3.10
   1   4  -3    2.26    3.26
  -1  -4   3    2.74    2.19
   1  -4  -3   -1.64    2.93
  -1  -4   3    1.16    2.37
  -1   4   3   -0.58    3.87
  -1   4   3    1.37    2.01
  -1   4   3   -4.56    3.97
   1  -4  -3    3.50    4.56
   1   4  -3   -2.32    2.60
   1   4  -3   -0.37    1.38
   1   4  -3   -0.03    3.25
  -1  -4   3   -1.83    1.80
   1  -4  -3    1.79    3.68
   0   4  -3    2.30    2.86
   0  -4  -3   -8.55    6.66
   0  -4  -3    1.84    1.90
   0  -4  -3   -0.15    2.26
   0   4  -3   -3.08    3.20
   0   4   3    2.86    5.43
   0   4  -3    0.34    1.27
   0   4   3    1.04    2.11
   0  -4   3   -1.01    2.34
   0  -4   3   -2.23    2.19
   0  -4  -3   -1.74    2.12
   0   4  -3    0.13    1.84
   0   4  -3    3.26    5.04
   0   4   3    0.31    1.02
   0  -4   3   -1.24    1.56
   0  -4  -3   -1.24    2.78
  -1   4  -3   98.92   12.68
   1  -4   3   82.49   14.04
  -1   4  -3  116.33   15.84
   1  -4   3   88.11   12.31
  -2  -5   3    3.30    4.46
  -2  -5   3   -1.91    2.47
   2   5  -3    0.34    2.90
  -2   5   3    7.39    4.51
   2  -5  -3    2.76    4.80
  -2   5   3   -1.96    4.05
  -2  -5   3    0.63    2.93
   2   5  -3    0.62    2.90
  -2   5   3   -0.32    3.36
   2  -5  -3    5.23    4.70
   2  -5  -3    3.82    3.76
  -2  -5   3    1.40    3.55
   2   5  -3    3.03    3.51
   2  -5  -3   -0.10    1.59
   2   5  -3    5.34    4.83
   1   5  -3   61.19   11.67
  -1  -5   3   41.73   11.02
   1  -5  -3   55.54    8.77
   1  -5  -3   47.19   12.16
   1  -5  -3   55.36   15.38
  -1  -5   3   53.75    9.36
  -1   5   3   67.59   11.40
  -1   5   3   53.83   15.79
  -1   5   3   53.63   11.96
  -1   5   3   62.26   13.68
   1  -5  -3   52.87   11.52
   1   5  -3   64.37   11.55
   1   5  -3   47.74    9.51
  -1  -5   3   50.99   11.41
   1   5  -3   54.80   11.63
   1  -5  -3   59.75   11.57
  -1  -5   3   84.89   13.87
   0  -5  -3  118.25   22.70
   0  -5   3   83.42   12.14
   0  -5  -3   99.58   19.38
   0  -5  -3   86.97   11.10
   0   5  -3   91.74   12.41
   0   5  -3   94.20   13.36
   0   5   3   80.52   16.74
   0   5   3   55.19   15.99
   0  -5  -3   98.05   16.67
   0  -5   3   95.67   15.43
   0   5  -3  126.45   19.37
   0  -5  -3   97.87   15.30
   0   5  -3  101.29   14.92
   0  -5   3  110.86   14.59
   1  -5   3   -0.22    2.22
  -1   5  -3    0.00    1.49
  -1   5  -3   -0.19    1.83
   1  -5   3   -3.80    3.62
  -2  -6   3   -0.94    1.51
  -2  -6   3    5.93    3.63
   2  -6  -3    4.48    4.48
  -2  -6   3   -0.84    3.26
   2  -6  -3    1.47    1.62
  -2   6   3   -1.33    3.33
   2  -6  -3   16.28    7.85
   2   6  -3   -1.72    2.92
   2   6  -3   -1.28    1.87
  -2   6   3   -0.55    3.26
   2  -6  -3    0.48    4.09
  -2  -6   3    3.54    3.18
   2   6  -3    7.80    4.49
   2  -6  -3    3.00    1.71
   2   6  -3    9.64    5.55
   1   6  -3    1.40    2.62
  -1  -6   3   -3.76    4.67
   1  -6  -3   -0.67    5.13
   1  -6  -3    4.85    3.13
  -1  -6   3    3.86    3.66
  -1   6   3    5.62    1.84
  -1   6   3    6.49    8.35
   1  -6  -3   13.82    8.40
  -1   6   3    4.61    5.18
  -1  -6   3   -1.72    1.58
  -1   6   3   -0.87    2.94
  -1   6   3    5.21    4.80
   1  -6  -3    1.48    4.50
   1   6  -3   -1.28    2.46
  -1  -6   3    0.40    1.70
   1   6  -3    1.63    3.81
   1  -6  -3   -0.33    2.83
   1   6  -3   -2.22    3.33
   0   6  -3    2.25    1.62
   0  -6  -3   -4.37    6.72
   0  -6  -3    3.59    6.40
   0  -6   3   -4.71    3.41
   0   6   3    1.37    2.13
   0   6   3   -2.68    2.51
   0  -6   3    2.22    4.24
   0  -6  -3   -2.36    2.82
   0  -6  -3   -1.78    2.50
   0   6  -3   -0.67    3.41
   0   6  -3    1.33    3.30
   0  -6   3   -2.51    4.40
   0   6  -3    3.69    4.98
   0   6   3    0.93    2.82
  -1   6  -3   -0.68    1.89
   1  -6   3   -1.58    2.91
  -1   6  -3    1.16    1.53
   1  -6   3    1.53    1.75
   2   7  -3  108.63   16.50
   2  -7  -3  163.80   25.80
   2  -7  -3  155.39   17.82
   2   7  -3  146.10   21.30
  -2   7   3  166.10   27.61
   2  -7  -3  156.54   25.56
  -2   7   3  205.16   21.52
  -2  -7   3  148.91   22.87
   2  -7  -3  175.32   24.39
   2   7  -3  167.07   22.76
  -2  -7   3  216.99   23.90
   2   7  -3  153.59   21.30
  -2  -7   3  172.74   19.61
   1   7  -3   10.06    5.27
  -1  -7   3   -0.21    2.26
   1  -7  -3    6.23    2.75
   1  -7  -3    7.15    5.13
  -1  -7   3    6.76    4.53
   1  -7  -3    5.45    5.26
  -1   7   3    6.89    5.82
  -1   7   3    5.11    4.76
  -1  -7   3    2.22    2.19
  -1   7   3    7.24    5.39
  -1   7   3   13.61    7.61
   1  -7  -3    4.66    3.82
   1   7  -3   -0.48    2.96
  -1  -7   3    1.41    2.38
   1   7  -3   -2.08    2.74
   1   7  -3    1.12    3.05
   0  -7  -3   54.71   15.74
   0  -7   3   63.29   11.93
   0   7  -3   65.52   12.87
   0   7   3   58.93   19.05
   0   7   3   48.37   11.98
   0  -7  -3   55.77   16.22
   0  -7  -3   53.37    9.93
   0  -7   3   33.22    9.79
   0  -7   3   50.11   10.29
   0   7   3   51.89   14.52
   0  -7  -3   71.66   16.39
   0   7  -3   62.54   11.23
   0   7  -3   58.12   12.21
   0  -7   3   56.39   12.70
   0   7  -3   66.95   13.61
   1  -7   3   29.39    8.52
  -1   7  -3   32.65    8.71
  -1   7  -3   29.45    8.62
   1  -7   3   29.23    8.93
   1  -7   3   19.73    7.40
  -1   7  -3   42.70   11.04
  -2  -8   3    6.49    4.06
  -2  -8   3   -3.29    4.06
   2  -8  -3    6.26    6.86
   2  -8  -3    2.76    4.11
   2  -8  -3    5.64    1.87
  -2   8   3    2.28    3.67
   2   8  -3    2.34    1.69
  -2   8   3    6.55    4.48
   2   8  -3    5.12    5.31
  -2  -8   3    8.46    5.74
   2  -8  -3   -9.07    7.99
   2   8  -3    1.26    4.10
   2   8  -3   -7.00    5.40
   1   8  -3    8.70    4.52
  -1  -8   3    0.89    4.09
   1  -8  -3    4.74    4.99
   1  -8  -3    2.09    2.94
   1  -8  -3    3.01    2.48
  -1   8   3   -2.63    7.03
  -1  -8   3   -0.16    1.43
  -1   8   3    4.44    6.38
  -1  -8   3   -6.89    4.55
  -1   8   3   -0.16    4.92
  -1   8   3    1.59    3.15
   1   8  -3    1.02    2.49
   1  -8  -3    2.53    3.19
  -1  -8   3   -1.94    5.22
   1   8  -3    9.66    6.74
   1   8  -3   -0.36    2.80
   0   8  -3   13.15    5.74
   0  -8   3   24.85    8.02
   0  -8  -3   14.17    7.85
   0   8   3   22.49   11.78
   0  -8  -3   25.98    7.61
   0  -8  -3   15.80    8.34
   0   8   3   14.73    9.36
   0  -8   3   10.09    8.07
   0  -8   3   23.42    7.55
   0   8   3   10.48    7.64
   0  -8  -3   17.15    8.50
   0   8  -3   24.94    8.58
   0   8  -3   15.83    6.80
   0  -8   3   13.10    6.92
   0   8  -3   21.19    8.31
  -1   8  -3   68.86   13.71
   1  -8   3   47.79   11.23
  -1   8  -3   48.23   11.39
  -1   8  -3   52.96   10.92
   1  -8   3   63.20   13.34
   1  -8   3   44.94   12.54
   2   9  -3   32.18   10.37
   2  -9  -3   37.73   12.93
  -2  -9   3   44.19   11.55
   2  -9  -3   38.64    9.25
  -2   9   3   69.63   20.30
  -2  -9   3   48.18   12.69
   2  -9  -3   54.87   16.68
   2   9  -3   39.33   11.61
  -2   9   3   45.14   10.35
  -2   9   3   56.22   16.58
   2   9  -3   29.89    9.09
  -2  -9   3   30.62   11.31
   2  -9  -3   53.16   14.51
   1   9  -3   68.77   13.82
   1  -9  -3   49.31   14.50
   1  -9  -3   68.52   13.12
  -1   9   3   42.39   16.23
  -1  -9   3   51.25   11.95
  -1   9   3   49.77   16.35
  -1  -9   3   64.33   14.98
  -1   9   3   42.48   12.20
  -1   9   3   44.08   13.97
   1   9  -3   59.57   13.89
   1  -9  -3   38.08   11.51
  -1  -9   3   34.40   10.71
   1  -9  -3   54.60   16.93
   1   9  -3   48.11   11.58
   0  -9   3  118.53   18.41
   0  -9  -3  155.85   26.90
   0  -9  -3  135.68   18.69
   0   9  -3  122.52   18.40
   0   9   3   93.12   23.93
   0   9  -3  123.36   19.12
   0   9   3   94.00   19.59
   0   9   3  115.30   24.89
   0  -9  -3  122.85   22.84
   0  -9   3  100.89   18.69
   0  -9  -3  120.49   25.63
   0  -9   3  127.37   19.51
   0   9  -3  156.82   21.81
   1  -9   3   24.19    8.18
  -1   9  -3   21.31    8.70
  -1   9  -3   17.47    7.42
  -1   9  -3   18.66    8.05
   1  -9   3   15.54    6.77
   1  -9   3    8.86    4.75
   2  10  -3   -0.13    5.78
  -2 -10   3   10.48    8.20
   2 -10  -3    1.68    5.76
   2 -10  -3   -0.43    6.15
  -2 -10   3    2.97    3.58
  -2  10   3   -1.05    5.07
   2 -10  -3   -3.35    4.03
  -2  10   3   -2.72    8.81
   2  10  -3    3.27    2.07
  -2  10   3    0.03    4.23
  -2  10   3    4.93    3.30
   2  10  -3    6.09    4.46
  -2 -10   3    4.04    7.81
   2 -10  -3   -2.35    5.86
   1  10  -3   77.38   16.38
   1  10  -3   57.42   14.13
   1 -10  -3   66.56   18.42
  -1 -10   3  101.98   19.23
   1 -10  -3   78.94   20.17
   1 -10  -3   80.29   15.54
  -1  10   3   76.57   20.97
  -1 -10   3   66.50   14.79
  -1  10   3   74.01   20.18
  -1  10   3   82.96   18.03
  -1  10   3   80.10   20.42
   1  10  -3   78.58   16.98
   1 -10  -3   71.28   17.24
  -1 -10   3   62.61   15.14
   0  10   3   10.51    8.64
   0 -10  -3   33.91   13.40
   0 -10  -3   28.94   10.33
   0 -10   3   34.50   11.13
   0 -10  -3   32.71   10.08
   0  10   3   14.15    7.31
   0  10  -3   30.63   10.87
   0  10   3   27.19   13.55
   0 -10   3   39.70   11.52
   0 -10  -3   54.85   17.01
   0  10  -3   28.85    9.19
   0 -10   3   26.66    9.53
   0  10  -3   31.59   10.27
  -1  10  -3   -0.05    3.10
   1 -10   3   11.52    6.21
  -1  10  -3   12.55    7.10
  -1  10  -3   -0.97    2.06
   1 -10   3   -2.92    3.91
   1 -10   3    4.92    5.98
   2  11  -3    2.74    5.56
  -2 -11   3   12.15    7.25
   2 -11  -3    1.27    6.20
  -2 -11   3   13.85    7.31
  -2  11   3   17.17   11.03
   2 -11  -3    3.70    2.65
  -2  11   3   22.01   12.73
   2  11  -3   15.29    8.61
  -2  11   3    7.03    4.58
  -2  11   3   -3.25    5.53
  -2 -11   3    5.39    5.29
   2 -11  -3    2.36    4.96
   2  11  -3    8.14    6.05
  -1 -11   3  126.08   21.22
   1 -11  -3   72.96   19.93
   1  11  -3   77.56   15.97
   1 -11  -3  131.98   21.15
   1 -11  -3  109.86   23.66
  -1  11   3  127.42   29.85
  -1  11   3   99.23   24.69
  -1  11   3  116.94   22.44
  -1  11   3  102.93   23.63
   1 -11  -3   97.75   21.82
  -1 -11   3   99.63   20.98
   1  11  -3  110.36   21.31
  -1 -11   3  123.24   22.80
   1  11  -3  138.34   22.56
   0  11  -3    3.68    3.89
   0  11  -3    0.27    3.11
   0 -11   3   -1.43    4.64
   0 -11  -3    0.38    5.23
   0  11   3   -5.07    9.28
   0  11   3    0.99    3.64
   0  11   3    0.30    4.35
   0 -11  -3    2.12    6.18
   0  11   3    2.97    4.72
   0 -11   3    5.81    5.39
   0 -11  -3   -8.92    6.83
   0  11  -3    6.99    5.90
   0 -11   3    5.04    4.90
   1 -11   3    7.42    7.10
  -1  11  -3   -5.31    5.80
   1 -11   3   -1.40    6.12
   1 -11   3   -0.29    5.62
  -1  11  -3    5.23    6.30
   2  12  -3   24.49    9.84
  -2 -12   3    4.33    3.78
  -2 -12   3   15.92    8.15
   2 -12  -3   18.67    7.18
   2  12  -3   41.66   14.88
  -2  12   3   96.48   24.67
  -2  12   3  101.89   26.35
  -2 -12   3   13.37    7.59
   2 -12  -3   15.14    9.02
   2  12  -3   13.95    8.51
   1  12  -3   -9.81    8.84
   1  12  -3    0.80    2.33
   1 -12  -3    7.06    6.75
  -1 -12   3    7.34    6.09
  -1  12   3    5.65    5.60
  -1  12   3    3.35    5.06
   1  12  -3    5.47    6.79
   1 -12  -3    2.44    5.43
  -1 -12   3   -5.07    2.80
  -1 -12   3   -7.41    8.86
   0  12  -3   64.12   15.92
   0 -12   3   28.70   12.54
   0 -12  -3   96.64   20.96
   0  12   3   61.24   21.08
   0  12   3   39.72   18.07
   0 -12   3   38.04   12.86
   0 -12  -3   90.48   25.07
   0  12  -3   41.30   12.75
   0 -12   3   26.85   12.17
   0  12  -3   35.27   11.23
   1 -12   3    2.68    6.84
  -1  12  -3    6.43    4.08
  -1  12  -3    9.91    5.01
   1 -12   3   -4.66    6.34
   1 -12   3   13.45    7.66
  -2 -13   3   14.21    9.15
   2  13  -3    4.91    7.73
   2 -13  -3   21.97    9.42
  -2 -13   3    5.20    5.42
   2  13  -3   20.05   11.69
  -2  13   3   15.53    7.28
  -2  13   3    6.71    7.43
   2 -13  -3   21.10   13.70
   2  13  -3    6.49    5.98
   1  13  -3   -0.96    4.77
   1 -13  -3   12.03    8.27
  -1 -13   3   -0.51    5.22
   1  13  -3   -2.03    7.85
  -1 -13   3  -14.69    9.73
  -1  13   3    0.64    7.81
  -1  13   3    9.68   11.82
   1  13  -3    3.45    5.09
   1 -13  -3   -0.45    3.83
  -1 -13   3    5.29    4.64
   0 -13   3   25.50   11.41
   0 -13  -3   47.56   13.90
   0  13  -3   46.91   15.07
   0  13  -3   20.25    7.38
   0  13   3   16.80    4.82
   0  13   3   13.28    5.41
   0 -13   3   22.56    8.73
   0 -13  -3   22.82   13.19
   0  13  -3   43.26   14.16
   0 -13   3   14.42    6.73
  -1  13  -3    1.76    5.83
   1 -13   3    8.30    7.68
  -1  13  -3   -4.82    5.86
   1 -13   3   -8.11    6.98
   2  14  -3    9.89    9.12
   2 -14  -3    6.49    7.16
  -2 -14   3    1.23    4.42
   2  14  -3   -4.13    4.68
  -2  14   3   -1.79    5.10
  -2  14   3   -3.30   10.42
   2 -14  -3    4.65    4.75
  -1 -14   3   25.86   12.88
   1 -14  -3   21.81   10.79
  -1  14   3   43.12   17.99
  -1 -14   3   34.13   12.99
   1  14  -3   29.13   12.39
  -1  14   3   37.06   17.59
   1  14  -3   26.98   12.93
   1 -14  -3   17.11   13.54
   0 -14   3    9.96    9.43
   0 -14  -3    1.25    2.92
   0  14   3   -1.56    3.35
   0  14   3    2.13    7.85
   0  14  -3    3.34    5.48
   0 -14  -3   30.57   16.85
   0 -14   3   22.11    9.59
   0  14  -3    6.63    6.28
   2 -15  -3  -18.09   11.68
  -2  15   3   -8.91   11.95
  -2  15   3   -2.20    6.41
   2 -15  -3   14.06   12.93
  -1 -15   3  113.55   23.96
   1 -15  -3   99.12   22.64
  -1  15   3   89.39   26.48
  -1 -15   3   83.54   20.77
  -1  15   3   80.67   25.70
   1  15  -3  113.41   26.62
   1  15  -3   71.73   17.23
   1 -15  -3   93.90   24.97
   0 -15   3    7.04    9.90
   0  15  -3   16.58   10.14
   0 -15  -3    4.29    5.79
   0  15   3  -17.50   14.16
   0  15  -3   10.26   10.26
   0 -15  -3   -4.88    9.94
   0 -15   3   -6.40    5.97
   3   0  -4    0.36    4.55
  -3   0   4    2.26    4.91
   3   0  -4   -1.47    1.97
   3   0  -4   -0.91    4.26
   2   0  -4    0.79    3.42
   2   0  -4    0.55    4.07
   2   0  -4    4.13    2.33
  -2   0   4   -1.83    2.48
  -2   0   4    4.71    5.95
  -2   0   4    2.84    1.93
   2   0  -4   -0.99    4.72
   1   0  -4  167.86   26.63
   1   0  -4  154.66   23.25
  -1   0   4  179.18   29.41
  -1   0   4  102.32   20.28
  -1   0   4  117.44   22.13
  -1   0   4  163.87   20.24
   1   0  -4  175.61   24.02
   1   0  -4  144.67   16.84
   0   0  -4  125.46   20.78
   0   0   4  116.07   24.38
   0   0  -4  126.43   23.71
   0   0   4  108.20   16.28
   0   0  -4  163.31   23.89
   0   0  -4  130.56   15.80
   3   1  -4    8.31    5.57
   3  -1  -4    3.78    4.35
  -3   1   4    5.48    4.69
  -3  -1   4    6.36    5.96
   3   1  -4    2.22    2.28
   3  -1  -4   21.83    9.63
   3  -1  -4    6.40    2.84
   3   1  -4   10.67    5.25
   2   1  -4  111.29   19.98
   2  -1  -4  156.57   24.17
   2   1  -4  107.22   18.96
   2  -1  -4  182.11   26.77
  -2  -1   4   98.64   19.18
  -2   1   4  107.43   21.22
  -2   1   4  122.24   22.57
  -2  -1   4  129.08   23.19
  -2   1   4  149.20   19.63
  -2  -1   4  120.71   19.74
   2   1  -4  153.23   23.64
   2  -1  -4  149.86   22.71
   2   1  -4  121.63   16.27
   2  -1  -4  121.80   15.59
   1   1  -4   31.40    8.41
   1  -1  -4   26.40    6.75
   1   1  -4   33.76   10.44
   1  -1  -4   30.39   10.69
   1   1  -4   30.55   10.28
  -1  -1   4   21.05   10.56
  -1   1   4   40.73   14.76
  -1  -1   4   25.61   10.07
  -1   1   4   15.50    7.31
   1  -1  -4   31.80   11.85
  -1  -1   4   24.42    9.86
  -1   1   4   21.29    8.30
  -1   1   4   25.36    8.70
   1  -1  -4   23.09    6.38
  -1   1   4   25.27    8.30
  -1  -1   4   31.14    9.36
   1   1  -4   35.55   11.13
   1  -1  -4   28.74   10.31
   0  -1  -4  153.86   26.43
   0   1  -4  115.72   22.83
   0  -1  -4   94.75   18.76
   0   1  -4  102.38   18.39
   0  -1   4   86.00   20.88
   0   1   4   73.85   18.37
   0  -1  -4   89.91   13.37
   0   1   4   93.10   14.22
   0  -1   4   99.46   16.12
   0   1  -4  116.26   19.63
   0  -1  -4   97.50   18.73
   0   1  -4   95.68   14.26
   3   2  -4    8.69    6.07
   3  -2  -4    3.40    5.52
  -3   2   4    5.89    5.98
  -3  -2   4    6.64    7.22
   3   2  -4    6.38    5.17
   3  -2  -4    4.34    4.81
   3  -2  -4    6.31    5.59
   3   2  -4    5.61    3.17
   2  -2  -4   23.78    6.88
   2  -2  -4   25.96   10.01
   2   2  -4   22.14    8.82
  -2  -2   4   21.79    8.67
  -2   2   4   13.68    7.59
  -2   2   4   22.54    9.75
   2   2  -4   39.60   10.95
  -2  -2   4   16.17    7.96
  -2   2   4   21.80    8.03
  -2  -2   4   25.93    8.49
   2  -2  -4   31.52    8.48
   2   2  -4   21.46    8.75
   2  -2  -4   37.56   11.47
   2  -2  -4   36.12   12.63
   2   2  -4   24.05    8.07
   1   2  -4    0.94    2.46
   1   2  -4   -0.66    6.75
   1  -2  -4    3.04    2.98
   1  -2  -4    6.85    6.24
   1   2  -4    3.87    3.16
   1  -2  -4    4.28    3.02
  -1  -2   4    9.54    5.50
  -1   2   4    6.90    8.97
  -1  -2   4   -0.68    1.94
  -1  -2   4    4.01    5.36
  -1   2   4    6.67    5.18
  -1   2   4    2.94    3.22
   1  -2  -4    1.03    2.33
  -1   2   4    6.73    3.43
  -1  -2   4    7.65    2.07
   1   2  -4   10.23    3.11
   1  -2  -4    0.85    4.40
   0  -2  -4   53.75   16.98
   0   2  -4   48.98   14.11
   0  -2  -4   34.62   12.08
   0   2  -4   31.27    8.99
   0  -2   4   24.09   10.34
   0   2   4   28.87   13.45
   0  -2  -4   45.93   10.46
   0   2  -4   43.24    9.42
   0   2   4   41.87    9.39
   0  -2   4   40.20   10.69
   0   2  -4   41.49   12.43
   0  -2  -4   50.56   13.65
   3  -3  -4   57.22   16.13
  -3  -3   4   38.60    7.74
   3   3  -4   60.03   14.70
  -3   3   4   49.20   15.74
   3   3  -4   29.11    7.83
   3   3  -4   46.68   13.75
   3  -3  -4   36.49   11.15
   3   3  -4   44.60   11.79
   2  -3  -4   -1.28    5.22
   2   3  -4   -0.75    4.38
  -2  -3   4   -2.98    3.38
  -2  -3   4    1.12    6.81
  -2   3   4   -4.17    6.52
   2  -3  -4    5.82    2.32
  -2   3   4    3.56    5.40
   2   3  -4    0.32    1.68
   2  -3  -4    5.62    2.42
  -2  -3   4   -0.48    8.21
   2   3  -4   -6.73    6.31
   2  -3  -4    7.59    4.41
   2   3  -4   -0.06    2.35
   1   3  -4   15.37    5.58
   1  -3  -4   22.97   11.57
  -1  -3   4   29.30    8.49
   1  -3  -4   21.52    8.89
   1   3  -4   18.99    7.14
  -1  -3   4   10.64    9.35
  -1   3   4   15.49    6.12
  -1  -3   4    6.87    1.99
  -1  -3   4   21.37   10.52
  -1   3   4   11.25    6.82
  -1  -3   4   16.98    4.98
  -1   3   4   10.53    6.82
   1   3  -4   19.90    5.77
   1   3  -4   23.04   11.45
   1  -3  -4   20.50    7.99
   1   3  -4   13.42    4.67
  -1  -3   4   17.29    7.98
   1   3  -4   13.40    6.76
   1  -3  -4   30.67   10.34
   0  -3  -4   -1.66    5.01
   0  -3  -4    1.59    4.00
   0   3  -4   -1.57    3.78
   0   3  -4    0.33    1.96
   0  -3   4   -2.51    2.04
   0   3   4   -0.40    4.40
   0   3   4    0.48    2.68
   0  -3  -4   -0.99    1.59
   0   3  -4   -4.31    3.37
   0  -3   4    1.65    2.54
   0   3  -4   -0.92    4.60
   0  -3  -4   -0.98    4.85
   3  -4  -4    3.16    4.74
  -3  -4   4    1.00    2.34
  -3   4   4   10.52    8.99
   3   4  -4    1.72    4.13
   3   4  -4   -3.03    5.48
   3  -4  -4    2.44    3.01
   3   4  -4   -4.73    7.24
   2   4  -4   22.71    7.63
   2  -4  -4   27.23   10.63
  -2  -4   4   30.08    7.14
  -2   4   4   29.59   12.21
  -2   4   4   28.35   11.07
   2   4  -4   12.92    4.64
  -2  -4   4   21.79   10.30
   2   4  -4   14.43    4.85
   2  -4  -4   29.99    8.35
   2  -4  -4   24.17   12.08
  -2  -4   4   17.90    7.53
   2   4  -4   21.59   10.18
   2  -4  -4   25.21   10.07
   1   4  -4   64.18   13.31
   1  -4  -4   79.52   19.87
   1  -4  -4   66.97   16.87
  -1   4   4   64.90   19.58
   1   4  -4   82.53   13.41
  -1   4   4   55.60   16.79
  -1  -4   4   40.22   13.26
  -1   4   4   56.16   15.34
  -1  -4   4   65.51   10.86
   1   4  -4   47.49    8.92
  -1   4   4   56.55   14.69
   1  -4  -4   57.54   12.91
  -1  -4   4   59.68   13.76
   1   4  -4   74.91   16.55
   1  -4  -4   76.73   15.79
  -1  -4   4  105.29   15.69
   0  -4  -4  149.35   28.58
   0  -4   4   97.29   14.13
   0  -4  -4  103.70   21.56
   0   4   4   45.76   16.23
   0   4  -4  112.09   14.79
   0   4   4   77.53   17.97
   0  -4  -4  100.87   17.40
   0   4  -4  140.40   23.37
   0  -4  -4   96.16   18.05
   0  -4   4   79.26   15.61
   0  -4   4  103.30   14.48
   0   4  -4   92.38   15.38
  -3   5   4   79.45   21.72
   3   5  -4   47.77   11.04
   3  -5  -4   72.89   15.95
   3   5  -4   56.04   12.92
   2   5  -4   65.60   14.16
   2  -5  -4  124.94   24.81
   2  -5  -4   96.63   20.95
   2   5  -4   81.67   15.05
  -2   5   4   74.52   20.13
  -2   5   4   85.14   17.67
  -2  -5   4   69.84   17.30
  -2   5   4   93.26   18.76
   2  -5  -4   86.17   17.54
   2   5  -4   50.47   10.01
  -2  -5   4   78.92   17.72
   2   5  -4  102.34   19.41
   2  -5  -4   74.34   15.23
  -2  -5   4  114.20   16.75
  -2  -5   4   88.06   13.76
   1   5  -4   33.75   10.66
  -1  -5   4   33.15    9.36
   1  -5  -4   12.81    7.43
   1  -5  -4   36.83   13.87
  -1   5   4   32.01   13.24
  -1   5   4   28.29   12.63
   1   5  -4   19.16    6.02
  -1  -5   4   22.73    7.14
  -1  -5   4    8.57    7.11
  -1   5   4   15.33    6.41
  -1   5   4   15.12    6.39
   1   5  -4   19.37    5.99
   1  -5  -4   21.63    8.56
  -1  -5   4   21.90    8.38
   1   5  -4   30.63   11.38
   1  -5  -4   29.55   10.23
   0  -5  -4  109.46   24.33
   0  -5  -4   97.71   21.74
   0  -5   4   91.17   14.51
   0   5   4   78.73   23.74
   0   5  -4   89.67   13.50
   0   5  -4   91.31   14.67
   0   5   4   74.03   18.78
   0  -5  -4  121.06   20.44
   0   5  -4  129.14   22.57
   0  -5  -4  109.21   19.30
   0  -5   4   91.69   17.16
   0  -5   4  104.52   15.17
   0   5  -4  118.27   18.33
   3  -6  -4   19.45    9.13
  -3   6   4    6.26    7.06
   3  -6  -4    5.47    4.96
   2   6  -4   50.40   12.21
  -2  -6   4   95.79   15.82
   2  -6  -4   50.01   16.40
  -2  -6   4   82.98   13.56
  -2   6   4   44.33   15.78
  -2   6   4   57.95   14.87
  -2  -6   4   50.91   15.67
   2   6  -4   55.25   13.51
   2  -6  -4   90.04   22.68
  -2   6   4   83.16   18.52
   2  -6  -4   67.32   15.70
  -2  -6   4   51.59   14.47
   2   6  -4   41.70    9.78
   2   6  -4   87.90   18.68
   2  -6  -4   56.44   12.99
   1   6  -4    1.34    2.75
   1  -6  -4   11.60    8.11
  -1  -6   4    2.79    3.83
   1  -6  -4    1.00    3.60
  -1   6   4    9.11    8.41
   1   6  -4   -0.35    1.69
  -1   6   4   -8.96    8.38
  -1  -6   4    1.81    3.17
  -1  -6   4    5.90    5.67
  -1   6   4   -5.83    4.05
  -1   6   4   -0.40    2.21
   1   6  -4    4.82    3.66
   1  -6  -4    6.29    4.18
  -1  -6   4   -7.86    6.44
   1   6  -4   14.46    8.07
   1  -6  -4    2.52    3.40
   0  -6  -4  130.00   27.84
   0  -6  -4  127.81   25.24
   0  -6   4   92.18   15.04
   0   6   4  105.25   28.08
   0   6  -4   90.49   14.07
   0   6  -4  120.30   17.57
   0  -6   4   56.23   14.70
   0   6   4   69.78   18.59
   0  -6  -4  109.72   20.04
   0  -6   4   86.82   14.34
   0  -6   4   77.26   15.76
   0   6  -4  117.34   21.79
   0   6  -4  109.81   18.18
   3  -7  -4   58.90   18.41
  -3   7   4   52.63   18.09
   3  -7  -4   53.04   15.02
   2   7  -4   44.02   13.22
  -2  -7   4   37.78   10.66
   2  -7  -4   62.96   19.38
   2  -7  -4   56.03   18.55
  -2  -7   4   42.38   10.63
  -2   7   4   30.55   13.37
  -2  -7   4   19.07    9.60
   2   7  -4   36.04   11.39
  -2   7   4   33.55   12.73
   2  -7  -4   43.63   14.03
  -2  -7   4   33.25   11.78
   2   7  -4   37.49   10.63
   2   7  -4   55.60   16.65
   1   7  -4   89.28   16.95
  -1  -7   4  106.99   16.61
   1  -7  -4  109.70   23.47
   1  -7  -4  114.10   25.83
  -1   7   4  126.98   28.81
   1   7  -4   98.28   17.45
   1   7  -4   81.64   14.45
  -1   7   4   58.23   20.26
  -1  -7   4   66.80   17.78
  -1   7   4   99.97   22.15
   1  -7  -4  123.04   22.33
  -1  -7   4   90.59   18.46
   1   7  -4   97.29   19.84
  -1  -7   4  123.25   19.87
   0  -7  -4   40.63   15.99
   0  -7  -4   18.54    9.97
   0  -7   4   24.92    8.16
   0   7   4   17.88   11.59
   0  -7   4   17.72   10.13
   0   7  -4   27.85    8.43
   0   7   4   24.33   11.04
   0  -7  -4   26.46   10.10
   0   7  -4   24.82    8.78
   0  -7   4   27.49    8.41
   0   7  -4   29.86    9.21
   0  -7   4   25.29    9.56
   0   7  -4   40.33   13.18
   3  -8  -4   -8.15    9.40
   3  -8  -4    8.64    6.22
   2   8  -4   53.87   13.13
  -2  -8   4   88.56   17.25
   2  -8  -4   68.34   20.70
   2  -8  -4   58.24   18.20
  -2  -8   4   77.09   14.48
  -2   8   4   91.19   27.44
  -2   8   4   66.55   22.21
  -2  -8   4   44.76   14.45
   2   8  -4   47.24   13.23
  -2   8   4   71.65   18.82
   2  -8  -4   80.06   19.39
  -2  -8   4   49.53   13.71
   2   8  -4   80.59   18.51
   2   8  -4   44.20   10.91
   1   8  -4   10.23    6.89
   1  -8  -4   -7.85    6.97
  -1   8   4    2.21    4.59
  -1  -8   4    0.02    4.72
  -1   8   4   -8.07    9.24
   1   8  -4   -7.80    7.04
  -1  -8   4   11.55    8.79
  -1  -8   4    9.17    6.62
  -1   8   4    2.87    3.47
   1   8  -4   -5.42    6.26
   1  -8  -4    4.50    5.51
  -1  -8   4    9.52    6.23
   1  -8  -4  -13.46    9.01
   1   8  -4    3.40    7.41
   0  -8  -4   31.93   14.59
   0   8  -4   26.60    8.78
   0  -8   4   34.61   10.50
   0   8   4   37.16   18.52
   0   8  -4   44.52   12.91
   0  -8   4   38.34   13.06
   0   8   4   25.98   12.61
   0  -8  -4   29.15   12.35
   0  -8  -4   67.98   20.02
   0  -8   4   41.23    9.95
   0   8  -4   40.40   11.33
   0  -8   4   16.48    8.54
   0   8  -4   52.21   15.58
   3  -9  -4   16.94    9.47
   3  -9  -4   21.37   10.46
   2   9  -4    0.13    3.84
  -2  -9   4   -4.06    4.47
   2  -9  -4    6.58    9.22
   2  -9  -4    9.12    8.12
  -2   9   4    3.89    7.82
  -2  -9   4   -0.37    2.44
  -2   9   4   -1.08    3.21
   2   9  -4   -6.26    6.42
  -2   9   4    5.31    6.26
   2  -9  -4  -11.39    8.65
  -2  -9   4    2.71    3.35
   2   9  -4    1.80    4.65
   1   9  -4    0.14    4.99
  -1  -9   4    4.85    5.21
   1  -9  -4    0.24    3.52
  -1   9   4   -3.34    9.75
  -1   9   4   -5.10    6.06
   1   9  -4    4.15    4.91
  -1  -9   4    5.74    2.25
  -1   9   4   -1.47    4.51
   1   9  -4    6.23    5.97
   1  -9  -4    2.63    6.85
  -1  -9   4    0.82    3.05
   1  -9  -4    1.07    6.33
   0   9  -4    1.66    3.59
   0  -9  -4   10.48    8.84
   0  -9  -4   20.80   12.43
   0  -9   4   13.70    7.56
   0   9   4   12.10    9.35
   0   9  -4   11.69    7.64
   0   9   4   12.03    9.88
   0  -9  -4   18.66   10.83
   0  -9   4   16.14    7.22
   0   9  -4    5.10    4.75
   0  -9   4    4.09    5.03
   3 -10  -4    3.84    3.37
  -3  10   4   -0.55    3.59
   3 -10  -4    6.27    6.15
   2  10  -4    6.71    6.40
  -2 -10   4    6.41    4.28
   2 -10  -4   10.48    8.28
   2 -10  -4   19.57   13.13
  -2  10   4    6.56    8.80
  -2 -10   4   12.08    5.63
  -2  10   4   -5.70    6.12
   2  10  -4    5.42    4.04
  -2  10   4   18.34   11.89
  -2 -10   4   12.98    7.59
   2 -10  -4   17.03    7.38
   2  10  -4   13.58    7.81
   1  10  -4   14.75    6.56
   1 -10  -4   13.42    9.36
   1 -10  -4   17.13   12.28
  -1 -10   4   14.50    7.90
  -1  10   4   17.48   14.96
  -1  10   4   15.73    8.89
  -1 -10   4    4.24    4.65
  -1  10   4   13.16   11.84
   1  10  -4   16.09    7.59
   1  10  -4   21.38    8.99
   1 -10  -4    7.97    4.68
  -1 -10   4   17.74    8.45
   0  10  -4   13.94    6.67
   0 -10  -4    4.03    5.91
   0 -10   4   28.51   11.49
   0  10  -4   14.24    7.73
   0  10   4    8.20   10.59
   0  10   4   15.39    9.42
   0 -10  -4   14.56    9.54
   0  10  -4   15.03    8.98
   0 -10   4    8.38    4.69
   0 -10   4    3.79    5.51
  -3  11   4   17.18    9.70
   3 -11  -4   33.50   15.36
   2  11  -4   17.54   10.72
  -2 -11   4   24.88    9.01
   2  11  -4    5.92    4.42
   2 -11  -4    5.78    5.63
   2 -11  -4   16.89   11.18
  -2  11   4   14.82   14.21
  -2  11   4   17.01   11.95
  -2 -11   4   19.18    8.31
   2  11  -4   24.01   11.55
  -2  11   4   10.64    4.36
  -2 -11   4   21.21    9.59
   2 -11  -4   11.69    8.35
   1  11  -4   31.27   11.41
   1 -11  -4   37.23   12.85
   1 -11  -4   16.35   11.46
  -1  11   4   33.01   18.14
  -1  11   4   15.95   11.60
  -1 -11   4   30.78   11.65
  -1  11   4   23.93   10.89
   1  11  -4   20.54    9.02
   1  11  -4   25.95   10.82
   1 -11  -4   23.80   11.73
  -1 -11   4   32.68   13.37
  -1 -11   4   38.47   13.79
   0  11  -4   41.94   14.82
   0 -11   4   16.36    9.33
   0 -11  -4   13.91   12.38
   0  11   4   28.25   16.04
   0  11  -4   22.36    9.35
   0  11   4   20.14   12.31
   0 -11  -4   25.01   14.82
   0  11  -4    7.75    6.57
   0 -11   4   30.42   12.36
   0 -11   4   16.26    7.75
  -2 -12   4   24.39   12.01
   2  12  -4   30.94   11.97
   2 -12  -4    0.64    9.06
   2  12  -4   20.28   10.39
   2 -12  -4   22.71    9.68
  -2  12   4   23.01   14.68
  -2  12   4   23.25   14.66
  -2 -12   4   20.29    6.96
   2  12  -4   22.83   10.32
  -2  12   4   39.65   15.89
  -2 -12   4   18.55   14.23
   2 -12  -4   15.09    8.93
  -1 -12   4    3.46    4.02
   1  12  -4  -17.02   11.94
   1 -12  -4   -7.22   15.20
   1 -12  -4   -9.73    9.89
  -1  12   4   21.18   15.81
  -1  12   4   18.71   14.87
  -1  12   4    7.14    6.44
  -1 -12   4    4.17    6.87
   1  12  -4    0.32    6.69
   1 -12  -4    1.62    7.48
  -1 -12   4   -1.03    4.32
   1  12  -4    2.58    2.06
   0  12  -4   -7.71   10.30
   0 -12   4    0.39    2.96
   0 -12  -4   -0.03    6.26
   0  12   4   -9.04    7.18
   0  12   4   -9.17   11.66
   0 -12  -4    0.34   10.23
   0  12  -4   -9.31    7.00
   0  12  -4   11.19    8.36
   0 -12   4   13.59    5.73
   0 -12   4    3.37    5.91
  -2 -13   4   12.93    6.21
   2  13  -4   39.03   14.12
   2  13  -4   13.87    4.14
  -2 -13   4   44.59   13.53
   2  13  -4   32.86   14.70
  -2  13   4   13.06    9.17
  -2 -13   4    8.66    4.77
   2 -13  -4   22.85   15.54
  -1 -13   4   -7.68    5.32
   1  13  -4    0.71    4.68
  -1  13   4   10.30   13.41
   1  13  -4   -3.91    8.30
  -1 -13   4    2.45    4.06
   1 -13  -4   -3.39    4.78
  -1 -13   4    3.92    4.72
   1  13  -4    6.65    6.55
   0  13  -4   -2.85    5.96
   0 -13   4   -2.77    6.73
   0  13   4   -0.86    3.30
   0  13  -4   14.95   10.74
   0 -13  -4   -6.66   10.94
   0 -13   4   -5.03    7.40
   0 -13   4   11.49   10.16
   0  13  -4   -9.42    8.69
   2  14  -4    1.86    4.23
   2  14  -4    6.53    9.87
  -1 -14   4   18.37   11.02
   1  14  -4   12.49    8.26
  -1  14   4   31.88   18.05
   1  14  -4    4.43    8.16
  -1 -14   4   -6.08   12.24
   0 -14   4   -1.42    5.14
   0  14  -4   11.39    9.69
   0  14  -4    9.57    4.18
   0 -14   4   -4.57    6.30
   3   0  -5   -0.59    2.16
   3   0  -5   -6.18    9.51
  -3   0   5    1.81    7.49
   3   0  -5   -6.19    7.17
   2   0  -5    0.84    1.96
   2   0  -5   -1.72    4.96
   2   0  -5   -4.46    4.53
  -2   0   5   -0.72    6.59
  -2   0   5    2.78    4.54
  -2   0   5   -8.62   10.60
  -2   0   5   -5.65    6.07
   2   0  -5   -2.46    7.74
   1   0  -5   -1.64    2.63
   1   0  -5    0.63    8.16
   1   0  -5   -2.87    6.55
  -1   0   5   -4.39    8.05
  -1   0   5   -1.23    2.63
  -1   0   5    9.35    9.00
  -1   0   5    5.84    5.04
   1   0  -5   -1.19    5.85
   0   0  -5   -3.90    5.81
   0   0   5   -0.45    5.89
   0   0   5    5.81    4.51
   0   0  -5   -5.64    7.75
   3  -1  -5   59.13   19.39
  -3   1   5   34.01   12.50
  -3   1   5   20.66    9.53
  -3  -1   5   51.01   15.86
   3   1  -5   46.55   15.31
   3   1  -5   56.98   16.25
   3  -1  -5   71.99   18.79
   3   1  -5   29.93    8.66
   2   1  -5    2.33    3.85
   2  -1  -5   11.12    6.92
   2   1  -5    9.80    9.79
   2  -1  -5    7.41    6.05
   2   1  -5    7.20    6.20
  -2  -1   5    6.22    2.47
  -2   1   5   -5.34    8.94
  -2  -1   5    0.93    4.88
  -2   1   5    5.45    6.94
  -2   1   5   -9.12    8.07
  -2  -1   5   10.92    7.39
  -2  -1   5   11.89    7.73
   2   1  -5    1.50    4.40
   2  -1  -5    6.75    2.37
   1   1  -5    4.78    3.10
   1  -1  -5    8.72    5.31
   1   1  -5   15.56   13.16
   1  -1  -5   12.07    7.21
   1   1  -5    3.85    6.23
  -1  -1   5    8.33    9.37
  -1   1   5   12.42   11.36
  -1  -1   5   -0.03    5.37
  -1   1   5   -2.74    5.73
  -1  -1   5    0.94    6.77
  -1   1   5    1.19    4.49
  -1  -1   5    2.26    2.83
   1   1  -5    2.37    4.95
   1  -1  -5   -1.97    4.64
   0   1  -5   12.22    3.31
   0  -1  -5   18.91   13.86
   0  -1  -5   12.45    9.36
   0   1  -5   15.30    9.65
   0  -1   5   -3.34    9.50
   0   1   5    3.90    4.28
   0  -1   5    3.23    2.07
   0   1  -5    0.17    6.28
   0  -1  -5   13.04    6.94
   3  -2  -5   32.91   14.24
   3   2  -5   16.24    7.52
   3  -2  -5   16.74   10.52
  -3   2   5   31.98   13.92
  -3   2   5   19.63    9.40
  -3  -2   5   16.48    8.65
   3   2  -5   16.75    9.77
   3  -2  -5   40.22   13.75
   3   2  -5   18.24    8.49
   2  -2  -5  174.30   32.39
   2   2  -5  224.18   33.60
   2  -2  -5  159.99   28.22
   2   2  -5  154.48   25.44
  -2  -2   5  187.46   33.30
  -2   2   5  167.21   34.66
  -2  -2   5   72.77   18.99
  -2   2   5   97.40   23.13
  -2  -2   5  148.08   28.69
  -2   2   5  128.72   26.65
  -2  -2   5  142.99   23.98
   2   2  -5  154.44   27.34
   2  -2  -5  177.36   28.24
   2   2  -5  115.13   18.20
   1   2  -5   83.55   15.43
   1   2  -5  123.46   26.54
   1  -2  -5   84.16   20.48
   1   2  -5   85.69   18.74
  -1  -2   5   84.15   23.42
  -1   2   5   95.38   25.86
  -1  -2   5   32.12   12.31
  -1   2   5   52.68   17.34
  -1  -2   5   45.01   15.45
  -1   2   5   69.32   18.77
  -1  -2   5   81.00   17.34
   1   2  -5   92.37   21.58
   1  -2  -5  121.61   27.29
   1  -2  -5   92.55   20.26
   0   2  -5   84.42   15.64
   0  -2  -5  103.11   25.36
   0  -2  -5   79.81   19.86
   0   2  -5   95.09   19.69
   0   2   5   65.88   21.71
   0  -2   5   66.53   15.65
   0   2  -5   82.62   19.33
   0  -2  -5   93.68   20.50
   3  -3  -5   24.07   12.79
   3  -3  -5   28.61   12.89
  -3   3   5   21.84   10.93
  -3   3   5   18.14   10.64
  -3  -3   5   26.52   12.42
  -3  -3   5   32.35   11.62
   3   3  -5   20.10   11.32
   3  -3  -5   21.62   10.30
   3   3  -5   12.76    4.82
   2   3  -5   15.49    6.94
   2  -3  -5   -1.45    5.05
   2  -3  -5    1.31    3.69
  -2   3   5   -2.35    9.24
  -2   3   5    7.62    3.76
  -2   3   5    3.63    4.75
  -2  -3   5   -3.43    6.65
  -2  -3   5    8.21    6.04
   2   3  -5   12.74    9.43
   2  -3  -5    2.87    4.98
   1   3  -5   11.19    5.85
   1  -3  -5   28.24   13.87
   1  -3  -5   12.00    7.78
  -1   3   5    2.13    8.19
  -1   3   5    8.03    9.07
  -1  -3   5   10.54    8.65
  -1   3   5   11.31    9.51
  -1  -3   5   28.62   11.54
   1   3  -5    8.00    5.50
   1  -3  -5    2.65    5.37
   0   3  -5    6.26    6.13
   0  -3  -5   -3.05    6.52
   0   3   5   -0.59    8.47
   0  -3  -5    3.56    6.26
   0  -3   5   -4.50    7.18
   0   3  -5    3.06    3.28
   0  -3  -5    7.32    6.81
   3   4  -5    0.16    4.67
   3  -4  -5   -3.97    4.21
   3  -4  -5   -2.85    2.72
  -3   4   5   -5.95    9.90
  -3   4   5    3.00    7.92
  -3  -4   5   -2.39    7.13
  -3  -4   5    3.55    3.43
   3   4  -5   -8.23   10.10
   3  -4  -5   -0.95    4.73
   2   4  -5   32.15   10.46
   2  -4  -5   50.49   19.03
   2  -4  -5   40.79   14.86
  -2   4   5   48.07   20.01
  -2   4   5   42.87   15.60
  -2   4   5   43.58   15.90
  -2  -4   5   42.59   15.42
  -2   4   5   40.57   12.91
   2  -4  -5   33.86   10.79
  -2  -4   5   31.32   12.41
   2   4  -5   25.73   13.32
   2  -4  -5   45.55   14.88
   1   4  -5   51.79   12.16
   1  -4  -5   76.34   23.31
   1  -4  -5   54.39   17.37
  -1   4   5   60.74   22.27
  -1   4   5   34.39   16.06
  -1  -4   5   47.36   16.49
  -1   4   5   46.88   15.82
  -1   4   5   34.14   12.40
   1  -4  -5   64.15   15.33
  -1  -4   5   43.78   13.42
   1   4  -5   80.35   19.12
   1  -4  -5   56.94   14.70
   0   4  -5    7.44    6.75
   0  -4  -5    1.85    2.94
   0  -4  -5    3.91    6.44
   0   4   5    5.70    5.70
   0  -4  -5    2.39    3.82
   0  -4   5    1.18    2.90
   0   4  -5   10.23    8.02
   0  -4  -5   -1.12    5.59
   3   5  -5   18.94    9.37
   3  -5  -5   13.20    8.33
   3  -5  -5   19.55   12.42
  -3   5   5   15.22   10.13
  -3  -5   5    8.73    5.93
  -3   5   5   20.71   12.33
  -3  -5   5   12.45    8.15
   3   5  -5    9.34    5.59
   3  -5  -5    7.49    8.33
   2   5  -5   90.53   18.06
   2  -5  -5  125.94   29.86
   2  -5  -5  100.38   23.88
  -2   5   5  115.12   31.14
  -2   5   5   39.67   16.47
  -2   5   5   74.14   18.81
  -2  -5   5   63.48   18.07
  -2   5   5  114.83   23.03
   2  -5  -5   91.53   18.43
  -2  -5   5   69.55   17.89
   2   5  -5   89.30   21.50
   2  -5  -5   98.99   19.65
   1   5  -5    0.53    4.14
   1  -5  -5    0.43    8.34
   1  -5  -5   -6.23    9.37
  -1   5   5    3.49    5.92
  -1   5   5    8.65    6.61
  -1  -5   5    3.44    6.64
  -1   5   5    3.98    3.53
  -1   5   5   -3.36    6.56
   1  -5  -5    4.49    6.06
  -1  -5   5   -8.26    8.09
   1   5  -5   -7.27    8.12
   1  -5  -5    2.15    2.71
   0   5  -5    6.34    4.57
   0  -5  -5   23.33    9.39
   0  -5  -5   -6.05   11.69
   0   5   5    6.43    9.82
   0  -5   5   -2.77    5.10
   0   5   5   -0.35    3.24
   0  -5  -5   11.09    6.90
   0  -5   5   11.05    6.49
   0   5  -5   14.13    7.76
   3   6  -5   -5.04    3.05
   3  -6  -5   -3.39    7.46
   3  -6  -5   -4.21    4.81
  -3   6   5   11.82   12.57
  -3   6   5    2.72    6.79
  -3  -6   5   -7.77    8.52
   3   6  -5   11.05    7.99
   3  -6  -5   -5.08    3.75
   2   6  -5   21.41   11.79
   2  -6  -5   13.58    6.71
   2  -6  -5    9.41    8.71
  -2   6   5   27.75   17.36
  -2   6   5    4.74    6.14
  -2   6   5   12.05    4.13
  -2  -6   5    4.54    5.14
  -2   6   5   23.29   10.58
   2  -6  -5   15.03    6.74
  -2  -6   5    3.37    4.15
   2   6  -5   19.05   10.79
   2  -6  -5   12.15    9.28
   1   6  -5   23.50    9.88
   1  -6  -5   38.92   17.02
   1  -6  -5   34.18   14.89
  -1   6   5   19.95   14.16
  -1   6   5    9.41    7.07
  -1   6   5   35.77   13.71
  -1  -6   5   31.61   15.19
  -1   6   5   33.91   13.15
   1  -6  -5   17.95    8.83
  -1  -6   5   23.25    9.91
   1   6  -5   54.65   17.45
   1  -6  -5   26.94   12.21
   0   6  -5    0.94    5.87
   0  -6  -5   -4.00    8.50
   0  -6  -5    4.55    6.47
   0   6   5    4.95    5.28
   0  -6   5    6.56    6.62
   0   6   5    7.01    3.13
   0  -6  -5   -0.76    5.35
   0  -6   5    5.03    6.65
   0   6  -5   -3.45    5.96
   3   7  -5    3.07    4.14
   3  -7  -5    9.30    7.45
   3  -7  -5   -0.51    4.95
  -3   7   5   -5.94    5.90
  -3   7   5   -1.89    8.40
  -3  -7   5   -1.42    7.64
   3  -7  -5    1.00    5.29
   3   7  -5   -6.83    7.56
   2   7  -5    4.50    4.22
   2  -7  -5   -3.31    5.26
   2  -7  -5   13.85   10.62
  -2   7   5    2.54    4.76
  -2   7   5   16.04   13.79
  -2  -7   5    6.63    3.57
  -2   7   5   -1.99    6.20
   2  -7  -5    0.79    5.89
  -2  -7   5    5.00    4.85
   2   7  -5   -8.53    7.86
   1   7  -5    0.08    3.46
   1  -7  -5   -2.46   12.25
   1  -7  -5    8.89    6.98
  -1   7   5   -6.92   12.75
  -1   7   5   -8.32    7.16
  -1  -7   5   -2.11    8.00
  -1   7   5   -0.64    6.52
   1  -7  -5   -4.97    6.72
  -1  -7   5    0.23    2.83
   1   7  -5   -5.40    9.57
   0   7  -5    6.22    8.32
   0  -7  -5    6.17    7.65
   0  -7  -5   -2.29    5.62
   0   7   5   -3.42    9.56
   0  -7   5   -4.73    6.74
   0  -7  -5   10.27    9.23
   0  -7   5    5.55    6.63
   0   7  -5   -4.50    5.64
   3   8  -5    5.49    5.32
   3  -8  -5   -4.57    6.80
  -3   8   5   -2.37    3.33
  -3   8   5  -10.94   12.26
  -3  -8   5   14.53    9.10
   3  -8  -5   -2.51    6.72
   2   8  -5   17.26    8.73
   2  -8  -5   21.23    9.52
   2  -8  -5   11.92    7.55
   2   8  -5    7.99    5.62
  -2   8   5   21.73   17.11
  -2   8   5   14.39    9.20
  -2  -8   5   -1.82    9.96
  -2  -8   5   12.90    7.10
   2   8  -5   19.39    7.68
  -2   8   5   25.35   14.13
   2  -8  -5   17.46    9.06
  -2  -8   5    6.87    3.16
   2   8  -5    6.51    4.92
   1   8  -5   38.79   13.67
  -1  -8   5   52.87   15.87
   1  -8  -5   52.67   21.42
   1  -8  -5   43.76   17.36
  -1   8   5   64.03   26.98
  -1   8   5   10.66    6.13
  -1  -8   5   31.37   14.00
   1   8  -5   29.72    9.41
  -1   8   5   49.18   19.38
   1   8  -5   31.73   10.90
  -1  -8   5   54.99   13.85
   1  -8  -5   42.39   14.73
  -1  -8   5   21.89   10.98
   1   8  -5   51.85   16.87
   0   8  -5   25.62   11.00
   0  -8  -5   11.27    7.25
   0  -8   5    0.22    5.08
   0   8   5    3.85    7.01
   0  -8   5    9.81   10.22
   0  -8  -5   13.88    8.78
   0   8  -5   13.93    8.20
   0  -8   5    0.23    5.78
   3  -9  -5    4.69   10.84
  -3   9   5   10.24    7.13
  -3   9   5  -11.47   11.35
  -3   9   5   -3.13    7.21
   3  -9  -5   -5.02    9.37
  -2  -9   5   67.86   15.76
   2   9  -5   35.24   12.30
   2  -9  -5   74.85   26.05
   2  -9  -5   45.65   18.88
  -2   9   5   60.50   24.47
  -2   9   5   34.25   18.58
   2   9  -5   41.52   13.05
  -2  -9   5   59.79   14.89
   2   9  -5   57.56   15.99
  -2   9   5   65.29   21.34
  -2  -9   5   35.32   13.16
   2  -9  -5   67.45   19.64
   1   9  -5    6.55    7.00
  -1  -9   5   -3.39    6.58
   1  -9  -5   -3.64   10.37
   1  -9  -5   -7.47    7.35
  -1   9   5   12.47   15.53
  -1   9   5   13.44    9.89
   1   9  -5    2.53    3.62
  -1   9   5   -6.00   10.73
   1   9  -5   -2.44    3.68
  -1  -9   5    1.67    2.45
   1  -9  -5   -0.77    8.51
  -1  -9   5    8.63    4.69
   0   9  -5    0.59    5.19
   0  -9   5   -1.37    3.03
   0  -9  -5   -5.29    7.40
   0  -9  -5   -3.61    6.64
   0   9  -5   -0.40    4.94
   0  -9   5   13.15    8.53
   3 -10  -5   -1.42   11.14
  -3  10   5    4.48   13.60
  -3  10   5   15.12   12.20
   3 -10  -5   10.23    9.50
  -2 -10   5    7.66    6.81
   2  10  -5    2.34    5.48
   2 -10  -5  -10.39   11.58
   2 -10  -5   -5.21   10.17
  -2  10   5    8.80   10.56
  -2  10   5   16.86   12.47
   2  10  -5   -1.12    3.18
  -2 -10   5    7.62    5.44
   2  10  -5    8.12    6.50
  -2  10   5    1.84    6.33
  -2 -10   5   -4.53    7.05
   2 -10  -5    7.00    7.90
   1  10  -5   -3.44    5.67
  -1 -10   5    7.37    8.27
   1 -10  -5   -6.78    6.84
   1 -10  -5   -4.66    9.90
  -1  10   5    7.82   11.92
  -1  10   5    0.83    9.11
  -1  10   5    0.22    6.50
   1  10  -5   -6.08    6.89
   1  10  -5   -3.46    2.88
  -1 -10   5    6.97    6.87
   1 -10  -5   -5.72    6.25
  -1 -10   5  -18.17   12.03
   0  10  -5   22.49    9.87
   0 -10   5   32.20   12.84
   0  10  -5   18.64   10.76
   0 -10   5    1.84    4.98
  -3  11   5   -7.28   14.32
  -3  11   5  -13.37   13.55
   3 -11  -5   13.07   12.33
  -2 -11   5   -4.73    6.25
   2  11  -5   14.64   11.34
   2 -11  -5   -8.34   11.30
   2 -11  -5    9.34   10.10
  -2  11   5   22.56   20.11
  -2  11   5   -8.65    8.42
   2  11  -5   13.54   12.24
  -2 -11   5    9.06    5.39
  -2  11   5   -4.28    4.36
   2  11  -5    6.30    4.91
  -2 -11   5    4.55   10.62
   2 -11  -5    5.25    7.56
   1  11  -5    5.79    4.85
  -1 -11   5   -5.15    5.21
   1 -11  -5   -9.06   14.71
   1 -11  -5    9.94   13.22
  -1  11   5    0.52    8.52
  -1  11   5  -15.25   15.91
  -1  11   5   -2.71    5.05
   1  11  -5    0.49    4.48
   1 -11  -5    7.38    5.31
  -1 -11   5    0.53    3.02
  -1 -11   5   24.11   12.78
   1  11  -5   -3.07    3.63
   0  11  -5    4.69   11.30
   0 -11   5   -4.09    7.75
   0  11  -5    8.29    8.47
   0 -11   5   -9.17   11.89
  -2 -12   5   11.68    8.50
   2  12  -5    4.60    7.09
   2 -12  -5   23.12   20.13
   2 -12  -5    0.66    5.26
  -2  12   5  -21.58   22.22
  -2  12   5  -18.04   18.24
   2  12  -5   -1.76    4.91
  -2 -12   5   12.83    9.01
  -2  12   5    9.28   10.05
   2  12  -5    8.92    7.95
  -2 -12   5   10.00   11.47
   1  12  -5   -3.43    6.86
  -1 -12   5    6.91    7.85
   1  12  -5    7.71    5.96
   1 -12  -5    8.84   11.64
   1 -12  -5   20.64   16.41
  -1  12   5   -7.69   15.43
  -1  12   5   -2.14   11.88
  -1  12   5   -4.91    9.45
   1  12  -5   -4.61    6.73
   1 -12  -5  -27.62   18.27
  -1 -12   5   22.32   12.02
  -1 -12   5   16.45   10.00
   0 -12   5   14.52    7.54
   0  12  -5   13.29    9.98
   0 -12   5  -10.10   11.48
   3   0  -6   20.93   11.26
  -3   0   6    5.65    4.54
  -3   0   6    7.03    5.24
  -3   0   6   12.23   10.48
   3   0  -6   11.76    9.09
   2   0  -6  160.87   36.32
   2   0  -6  112.15   25.06
  -2   0   6  119.64   31.62
  -2   0   6   67.79   21.45
  -2   0   6  107.55   27.20
   2   0  -6  140.41   28.28
   1   0  -6   54.62   19.00
   1   0  -6   49.05   17.54
  -1   0   6   50.57   19.32
  -1   0   6   24.41   10.65
  -1   0   6   37.93   15.95
   1   0  -6   95.93   23.79
   0   0  -6   19.85   11.42
   0   0   6    3.41    6.54
   0   0  -6    2.53    8.85
   3  -1  -6   33.18   15.20
   3   1  -6    1.96    4.58
  -3  -1   6   18.56   12.32
  -3   1   6   10.14    6.34
  -3   1   6   24.79   14.86
  -3   1   6   21.91   11.87
  -3  -1   6   14.18   13.58
   3   1  -6   20.54   10.27
   3  -1  -6    6.83    7.17
   2   1  -6   11.13    6.76
   2  -1  -6   13.59    7.09
   2   1  -6   24.04   12.28
   2  -1  -6    6.68    5.13
   2   1  -6    7.80    6.05
  -2  -1   6    8.43    8.95
  -2   1   6    0.38   13.01
  -2  -1   6    8.82    4.65
  -2   1   6   -4.17    8.96
  -2   1   6    4.15    3.29
  -2  -1   6   -5.86    8.04
  -2  -1   6    7.22    9.23
   2   1  -6    7.77    8.45
   2  -1  -6    8.59    6.34
   1   1  -6    0.51    4.06
   1  -1  -6   -0.41    6.62
   1   1  -6  -19.02   10.22
   1  -1  -6   14.74   12.06
   1   1  -6    0.90    4.13
  -1  -1   6    6.34    6.95
  -1   1   6    5.21    7.97
  -1  -1   6   -7.71    8.19
  -1   1   6    6.50   12.22
  -1  -1   6   -2.41    6.63
  -1   1   6    2.22    5.12
  -1  -1   6   -7.59    8.01
   1   1  -6   -7.05    7.54
   1  -1  -6    0.48    3.93
   0  -1  -6   45.26   15.94
   0   1  -6   34.63   14.56
   0  -1   6   19.95   14.45
   0   1   6   11.80    8.81
   0   1  -6   63.77   19.65
   0  -1  -6   58.78   19.19
   3   2  -6    0.06    2.36
   3  -2  -6   17.21   13.67
   3  -2  -6   21.74   14.92
  -3   2   6   -2.21    6.66
  -3   2   6   -3.02    9.23
  -3   2   6   17.11   11.55
  -3  -2   6    3.29    3.36
   3   2  -6   11.56    6.03
   3  -2  -6   14.50    9.81
   2   2  -6   -2.91    3.40
   2  -2  -6   11.09    8.25
   2  -2  -6    3.98    4.20
  -2   2   6   30.70   17.90
  -2   2   6   15.82   12.88
  -2   2   6    5.40    3.22
  -2  -2   6   -0.35    5.62
  -2  -2   6   -5.94   13.09
   2   2  -6    9.21    6.67
   2  -2  -6   26.36   12.87
   1   2  -6   10.18    5.93
   1  -2  -6   10.84   13.41
   1  -2  -6    9.88    6.12
  -1   2   6   10.14    8.34
  -1   2   6   10.10    7.26
  -1  -2   6   15.70   10.66
  -1   2   6    0.64    4.33
  -1  -2   6    7.52    9.29
   1   2  -6    7.72    9.11
   1  -2  -6    0.98    5.59
   0  -2  -6   18.68   11.28
   0  -2   6   -9.63   13.13
   0   2   6   15.74    8.69
   0  -2   6   14.00    7.51
   0   2  -6   15.78   11.36
   3   3  -6   12.63    8.05
   3  -3  -6   27.85   13.21
   3  -3  -6   17.97    7.50
  -3   3   6   41.31   21.48
  -3   3   6   16.50   10.08
  -3   3   6   11.02    7.66
  -3  -3   6   23.38   12.86
   3   3  -6   20.81   10.44
   3  -3  -6   -1.23    5.21
   2   3  -6   -2.21    7.02
   2  -3  -6    5.97    6.43
   2  -3  -6    0.06    4.69
  -2   3   6    6.31    5.31
  -2   3   6    3.30    7.80
  -2   3   6    5.14    6.30
  -2  -3   6  -15.31   12.64
  -2  -3   6   -4.41    4.61
   2   3  -6    9.47    8.98
   2  -3  -6    8.84    9.55
   1   3  -6    4.48    5.91
   1  -3  -6    1.21   10.45
   1  -3  -6   -2.72    8.00
  -1   3   6    2.71    5.81
  -1   3   6    1.84    6.95
  -1  -3   6    2.44    3.57
  -1   3   6   17.90   13.00
  -1  -3   6   -1.74    6.44
   1   3  -6   -4.88    8.09
   1  -3  -6    0.16    2.75
   0  -3   6   11.03    8.23
   0  -3   6   12.54   10.25
   0   3  -6    4.72    4.14
   3   4  -6    2.35    8.06
   3  -4  -6   -8.15    9.60
   3  -4  -6   -6.79   11.03
  -3   4   6    3.52    7.37
  -3   4   6   -4.13   12.56
  -3   4   6   -0.27    9.87
  -3  -4   6   -9.58   13.39
  -3  -4   6   -6.40    7.66
   3   4  -6   -2.11    6.44
   3  -4  -6   10.07   10.41
   2   4  -6   37.99   12.47
   2  -4  -6   68.07   22.87
   2  -4  -6   29.88   14.07
  -2   4   6   29.83   16.82
  -2   4   6    8.05    5.39
  -2   4   6   24.55   12.02
  -2  -4   6   17.20   10.36
  -2  -4   6   40.04   14.05
   2   4  -6   49.21   16.63
   2  -4  -6   37.57   13.53
   1   4  -6   18.65    8.37
   1  -4  -6   21.10   14.82
   1  -4  -6   21.38   13.43
  -1   4   6  -10.45   14.89
  -1   4   6   13.69   11.16
  -1  -4   6   18.39   11.75
  -1   4   6  -12.34    4.80
  -1  -4   6    4.86    6.14
   1   4  -6   37.53   15.06
   1  -4  -6   16.46    8.42
   0  -4   6    1.34    9.63
   0  -4   6    0.37    4.57
   0   4  -6  -14.27   10.80
   3   5  -6   -1.88    6.63
   3  -5  -6   -6.65   12.56
   3  -5  -6    3.20    4.55
  -3   5   6   11.76   15.23
  -3   5   6    4.76    6.37
  -3  -5   6   -5.48   10.47
  -3  -5   6   17.36   12.20
   3   5  -6    7.75    4.99
   3  -5  -6  -17.35   10.64
   2   5  -6   -9.33    7.88
   2  -5  -6   13.49   15.27
   2  -5  -6    1.18    6.99
  -2   5   6    7.01   10.16
  -2   5   6    2.66    7.12
  -2   5   6   -4.00   12.04
  -2  -5   6    3.93    6.62
  -2  -5   6    0.35    7.19
   2   5  -6   -0.52    6.92
   2  -5  -6    6.73    5.90
   1   5  -6    2.83    5.38
   1  -5  -6   -7.75   12.83
   1  -5  -6  -13.26   13.06
  -1   5   6   -3.29   14.40
  -1   5   6   -5.87    8.47
  -1   5   6   -6.23    8.76
  -1  -5   6    5.09    8.59
  -1  -5   6   -8.36    9.67
   1   5  -6    5.18   10.69
   1  -5  -6  -10.21    7.00
   0  -5   6   -3.24    9.71
   0  -5   6   23.45   12.87
   3   6  -6   -4.77    5.60
   3  -6  -6   16.57   13.40
   3  -6  -6   26.09   13.66
  -3   6   6   19.27   11.37
  -3   6   6   14.90   11.19
  -3  -6   6   28.30   14.97
   3   6  -6    8.73    8.03
   2   6  -6   26.65   11.17
   2  -6  -6   65.64   24.87
   2  -6  -6   62.48   24.00
  -2   6   6   30.82   17.70
  -2   6   6   20.87   15.26
  -2  -6   6   21.47   10.96
  -2  -6   6   16.54    9.12
   2   6  -6   38.15   15.50
   1   6  -6   32.47   11.92
   1  -6  -6   61.33   23.18
   1  -6  -6   32.28   17.44
  -1   6   6   17.60   16.73
  -1   6   6   10.21   13.76
  -1  -6   6   10.79    9.88
  -1  -6   6   11.93   10.31
   1   6  -6   47.85   16.43
   0  -6   6   36.24   14.10
   3   7  -6    4.53    3.67
   3  -7  -6   -2.81   13.26
   3  -7  -6   -4.85    9.38
  -3   7   6  -13.21   16.98
  -3   7   6    0.44    3.19
  -3  -7   6    2.29    3.41
   3   7  -6  -13.04   13.13
   2   7  -6   -0.92    6.76
   2  -7  -6  -16.26   16.82
   2  -7  -6   -3.63    8.18
  -2   7   6  -25.86   23.67
  -2   7   6   17.00   14.43
  -2  -7   6    0.92    4.97
  -2  -7   6    4.08    7.28
   2  -7  -6   -3.23    9.22
   2   7  -6   -5.04    6.89
   1   7  -6    1.92    3.44
   1  -7  -6  -18.05   18.00
   1  -7  -6   -3.80    6.34
  -1   7   6   -1.59    4.88
  -1   7   6    6.82   17.96
  -1  -7   6   -9.23    4.83
   1  -7  -6    2.46    3.03
  -1  -7   6   -7.79    8.38
   1   7  -6   -4.71    8.69
   3   8  -6    2.02    5.80
   3  -8  -6  -10.35   16.27
   3  -8  -6    6.92   10.92
  -3   8   6    6.45   11.65
  -3   8   6   11.24   10.45
  -3   8   6   -1.28    7.34
  -3  -8   6  -10.91   13.45
   2   8  -6   -0.26    3.85
   2  -8  -6    6.44   10.78
   2  -8  -6   -4.06   10.27
  -2   8   6   12.37   14.39
  -2   8   6   -8.94   11.84
  -2  -8   6    1.48    4.10
  -2   8   6    5.26    8.52
  -2  -8   6   13.88   10.85
   2  -8  -6   -6.80    7.24
   2   8  -6   -8.68    8.30
   1   8  -6    0.40    3.51
   1  -8  -6   -7.98    4.40
   1  -8  -6   -9.74    7.79
  -1   8   6   -8.02    8.82
  -1   8   6   -6.63   11.50
  -1  -8   6  -11.27   10.84
  -1   8   6   22.42   14.56
   1  -8  -6  -12.68   12.57
  -1  -8   6   -0.79    4.73
   1   8  -6   14.03    7.30
  -3   9   6   -8.57   15.70
  -3   9   6  -12.38   16.10
  -3   9   6   11.88   11.13
   2   9  -6   -0.97    5.49
   2  -9  -6   31.51   18.48
   2  -9  -6   32.20   15.83
  -2   9   6    1.18    7.66
  -2   9   6   13.85    8.71
  -2   9   6    3.55    5.23
  -2  -9   6   -9.54   10.65
   2  -9  -6   23.71   15.44
   1   9  -6  -20.59   12.12
   1  -9  -6  -18.46   19.32
   1  -9  -6   -6.97    5.87
  -1   9   6   -8.38   15.18
  -1   9   6    7.81    8.60
  -1   9   6    4.23    7.43
   1  -9  -6    0.61   10.40
  -1  -9   6   -2.53    5.60
  -3  10   6   -6.68   15.12
  -2  10   6   24.39   15.12
  -1  10   6   20.42   16.80
   3   0  -7    5.34    9.47
  -3   0   7   21.39   15.42
  -3   0   7    8.33   12.48
   3   0  -7  -13.27    7.22
   2   0  -7   13.36    8.69
   2   0  -7    5.49   10.01
  -2   0   7   -7.97   13.96
  -2   0   7  -11.73   15.56
  -2   0   7    3.73    9.29
   2   0  -7   -0.48    5.43
   1   0  -7  -13.07   10.74
  -1   0   7   -7.63    4.64
  -1   0   7   -1.22   14.83
   1   0  -7  -12.09    9.53
   3  -1  -7   14.82   13.58
  -3   1   7    3.45    5.03
  -3   1   7   -8.41    9.91
  -3  -1   7  -22.99   16.96
   3   1  -7   -6.59    6.77
   3  -1  -7   13.39   11.08
   2  -1  -7    8.55   12.20
   2  -1  -7    9.71    9.97
  -2   1   7   10.88    9.84
  -2   1   7    0.34    6.76
  -2   1   7   -8.95    5.86
  -2  -1   7   -2.81    6.05
   2   1  -7    1.95    8.89
   2  -1  -7   13.81   11.43
   1  -1  -7    9.23   11.59
  -1   1   7   -5.57   13.16
  -1   1   7    3.88    3.56
  -1   1   7   27.99   15.85
  -1  -1   7  -11.85   15.05
   1   1  -7   29.59   16.47
   1  -1  -7    8.17    5.11
   3  -2  -7   23.00    7.90
  -3   2   7   25.91   16.38
  -3   2   7   20.85   14.75
  -3   2   7   26.21   16.51
  -3  -2   7   26.59   18.04
   3   2  -7   29.29   15.54
   3  -2  -7   -1.43    8.02
   2  -2  -7  -10.13   15.79
   2  -2  -7   11.97   13.54
  -2   2   7   10.27    7.73
  -2   2   7    9.72   11.55
  -2   2   7    3.25    6.57
  -2  -2   7   -8.32   12.40
   2   2  -7    1.48   10.63
   2  -2  -7   -1.88   13.48
   1  -2  -7   20.76   12.21
  -1   2   7    3.43    4.77
  -1   2   7  -21.26   19.74
  -1   2   7   -1.05    7.08
  -1  -2   7  -11.20   12.77
   1   2  -7   -3.92   10.04
   1  -2  -7   -4.07    5.33
   3   3  -7    9.29    3.55
   3  -3  -7   34.28   19.88
  -3   3   7   37.30   23.13
  -3   3   7    3.44    4.46
  -3   3   7   31.62   18.77
   3   3  -7   24.59   14.42
   3  -3  -7   33.96   17.53
   2   3  -7    4.27    7.44
   2  -3  -7   11.56   17.69
   2  -3  -7   -5.39    5.48
  -2   3   7    6.14   11.12
  -2   3   7   -9.83   11.40
  -2   3   7    9.07    8.73
  -2  -3   7  -13.20   16.08
   2   3  -7   11.21   13.36
   2  -3  -7    3.31    9.57
   1  -3  -7    0.47   10.13
  -1   3   7   -2.20   11.17
  -1   3   7    0.22    7.66
  -1   3   7   16.35   13.56
  -1  -3   7   11.87   15.01
  -1  -3   7    1.29    3.24
   1   3  -7    4.74    3.46
   1  -3  -7   25.23   16.73
   3   4  -7    6.96    4.89
  -3   4   7   13.45   13.33
  -3   4   7    0.80   10.00
  -3   4   7    8.57    5.47
  -3  -4   7    6.77    6.70
   3  -4  -7   -3.27    3.75
   2   4  -7   11.43    7.13
   2  -4  -7   55.52   22.93
   2  -4  -7   29.76   15.43
  -2   4   7   36.39   18.65
  -2   4   7   17.13   14.45
  -2   4   7   21.94   12.31
  -2  -4   7   17.76   15.71
  -2  -4   7    7.14   10.24
   2  -4  -7   39.76   18.58
   1   4  -7    3.31    4.47
  -1   4   7    9.02   12.53
  -1   4   7   11.49    9.98
  -1   4   7   13.07    4.82
  -1  -4   7    6.22   13.22
  -1  -4   7   29.72   15.69
   3   5  -7   -6.80   11.68
   3  -5  -7   -9.36   11.61
   2   5  -7    2.40    3.28
  -2   5   7    7.43   12.61
  -2  -5   7  -13.24   13.74
   2  -5  -7  -19.28   10.52
   1   5  -7    5.60    6.28
  -1   5   7    2.02   10.17
  -1  -5   7   -7.60    8.90
   0   0   0    0.00    0.00


TITL 1b in P2(1)/c
REM P2(1)/c (#14 in standard setting)
CELL 0.71073   7.823715  13.147586   5.660277  90.0000 101.0460  90.0000
ZERR    4.00   0.008175   0.000753   0.000608   0.0000   0.0382   0.0000
LATT  1
SYMM -x, y+1/2,-z+1/2
SFAC C H N Cl
UNIT 16.00 8.00 20.00 4.00
TREF
HKLF 4
END
_computing_structure_solution     'SHELXT 2014/5 (Sheldrick, 2014)'
;
_shelx_hkl_checksum              43121
_olex2_submission_special_instructions 'No special instructions were received'
_oxdiff_exptl_absorpt_empirical_details
;
Empirical correction (ABSPACK) includes:
- Absorption correction using spherical harmonics
- Frame scaling
;
_oxdiff_exptl_absorpt_empirical_full_max 1.897
_oxdiff_exptl_absorpt_empirical_full_min 0.620
loop_
_space_group_symop_operation_xyz
'x, y, z'
'-x, y+1/2, -z+1/2'
'-x, -y, -z'
'x, -y-1/2, z-1/2'
loop_
_atom_site_label
_atom_site_type_symbol
_atom_site_fract_x
_atom_site_fract_y
_atom_site_fract_z
_atom_site_U_iso_or_equiv
_atom_site_adp_type
_atom_site_occupancy
_atom_site_site_symmetry_order
_atom_site_calc_flag
_atom_site_refinement_flags_posn
_atom_site_refinement_flags_adp
_atom_site_refinement_flags_occupancy
_atom_site_disorder_assembly
_atom_site_disorder_group
Cl1 Cl 1.0289(12) 0.33956(14) 0.8424(5) 0.0582(9) Uiso 1 1 d . . . . .
N4 N 0.549(5) 0.3528(4) 0.5375(19) 0.0364(18) Uiso 1 1 d . . . . .
N5 N 0.696(5) 0.3320(4) 0.7036(19) 0.0384(17) Uiso 1 1 d . . . . .
N1 N 0.389(3) 0.4153(5) 0.2290(17) 0.050(2) Uiso 1 1 d . . . . .
N3 N 0.396(4) 0.3360(5) 0.575(2) 0.054(2) Uiso 1 1 d . . . . .
N2 N 0.299(3) 0.3742(5) 0.3873(16) 0.055(2) Uiso 1 1 d . . . . .
C8 C 0.706(3) 0.4251(5) 0.2579(17) 0.0368(19) Uiso 1 1 d . . . . .
H8 H 0.708544 0.457206 0.112389 0.044 Uiso 1 1 calc R U . . .
C6 C 0.838(5) 0.3573(4) 0.6308(19) 0.033(2) Uiso 1 1 d . . . . .
C9 C 0.542(6) 0.4008(5) 0.322(2) 0.035(2) Uiso 1 1 d . . . . .
C7 C 0.856(4) 0.4013(4) 0.4093(16) 0.035(2) Uiso 1 1 d . . . . .
H7 H 0.964682 0.413124 0.369796 0.042 Uiso 1 1 calc R U . . .
loop_
_atom_type_symbol
_atom_type_description
_atom_type_scat_dispersion_real
_atom_type_scat_dispersion_imag
_atom_type_scat_source
C C 0.0033 0.0016 'International Tables Vol C Tables 4.2.6.8 and 6.1.1.4'
H H 0.0000 0.0000 'International Tables Vol C Tables 4.2.6.8 and 6.1.1.4'
Cl Cl 0.1484 0.1585 'International Tables Vol C Tables 4.2.6.8 and 6.1.1.4'
N N 0.0061 0.0033 'International Tables Vol C Tables 4.2.6.8 and 6.1.1.4'
loop_
_geom_angle_atom_site_label_1
_geom_angle_atom_site_label_2
_geom_angle_atom_site_label_3
_geom_angle
_geom_angle_site_symmetry_1
_geom_angle_site_symmetry_3
_geom_angle_publ_flag
N5 N4 C9 126(4) . . ?
N3 N4 N5 122.9(9) . . ?
N3 N4 C9 110(3) . . ?
C6 N5 N4 112.9(8) . . ?
C9 N1 N2 103.9(14) . . ?
N4 N3 N2 102.4(13) . . ?
N3 N2 N1 114(2) . . ?
C9 C8 H8 119.9 . . ?
C7 C8 H8 119.9 . . ?
C7 C8 C9 120.2(9) . . ?
N5 C6 Cl1 114.8(11) . . ?
N5 C6 C7 128(3) . . ?
C7 C6 Cl1 117(2) . . ?
N4 C9 C8 116(4) . . ?
N1 C9 N4 109(3) . . ?
N1 C9 C8 134.8(10) . . ?
C8 C7 C6 116(3) . . ?
C8 C7 H7 122.2 . . ?
C6 C7 H7 122.2 . . ?
loop_
_geom_bond_atom_site_label_1
_geom_bond_atom_site_label_2
_geom_bond_distance
_geom_bond_site_symmetry_2
_geom_bond_publ_flag
Cl1 C6 1.74(3) . ?
N4 N5 1.37(5) . ?
N4 N3 1.28(5) . ?
N4 C9 1.367(13) . ?
N5 C6 1.30(5) . ?
N1 N2 1.35(2) . ?
N1 C9 1.22(5) . ?
N3 N2 1.28(3) . ?
C8 H8 0.9300 . ?
C8 C9 1.43(5) . ?
C8 C7 1.35(4) . ?
C6 C7 1.412(11) . ?
C7 H7 0.9300 . ?
loop_
_geom_torsion_atom_site_label_1
_geom_torsion_atom_site_label_2
_geom_torsion_atom_site_label_3
_geom_torsion_atom_site_label_4
_geom_torsion
_geom_torsion_site_symmetry_1
_geom_torsion_site_symmetry_2
_geom_torsion_site_symmetry_3
_geom_torsion_site_symmetry_4
_geom_torsion_publ_flag
Cl1 C6 C7 C8 -172.8(5) . . . . ?
N4 N5 C6 Cl1 176.3(4) . . . . ?
N4 N5 C6 C7 -0.3(9) . . . . ?
N4 N3 N2 N1 0.0(8) . . . . ?
N5 N4 N3 N2 174.4(6) . . . . ?
N5 N4 C9 N1 -173.7(7) . . . . ?
N5 N4 C9 C8 4.6(10) . . . . ?
N5 C6 C7 C8 3.8(10) . . . . ?
N3 N4 N5 C6 -178.4(7) . . . . ?
N3 N4 C9 N1 1.1(10) . . . . ?
N3 N4 C9 C8 179.4(6) . . . . ?
N2 N1 C9 N4 -1.0(9) . . . . ?
N2 N1 C9 C8 -178.9(8) . . . . ?
C9 N4 N5 C6 -4.1(10) . . . . ?
C9 N4 N3 N2 -0.6(8) . . . . ?
C9 N1 N2 N3 0.7(9) . . . . ?
C9 C8 C7 C6 -3.0(9) . . . . ?
C7 C8 C9 N4 -0.6(10) . . . . ?
C7 C8 C9 N1 177.2(9) . . . . ?
