#------------------------------------------------------------------------------
#$Date: 2021-12-14 11:39:55 +0200 (Tue, 14 Dec 2021) $
#$Revision: 271390 $
#$URL: file:///home/coder/svn-repositories/cod/cif/1/56/57/1565737.cif $
#------------------------------------------------------------------------------
#
# This file is available in the Crystallography Open Database (COD),
# http://www.crystallography.net/
#
# All data on this site have been placed in the public domain by the
# contributors.
#
data_1565737
loop_
_publ_author_name
'\.Ibi\,so\(glu, Hanife'
'Erdemir, Eda'
'Atilla, Devrim'
'Zorlu, Yunus'
'\,Senkuytu, Elif'
_publ_section_title
;
 Synthesis, characterization and photophysical properties of
 cyclotriphosphazenes including heterocyclic rings
;
_journal_name_full               'Inorganica Chimica Acta'
_journal_page_first              119120
_journal_paper_doi               10.1016/j.ica.2019.119120
_journal_volume                  498
_journal_year                    2019
_chemical_formula_moiety         'C12 H8 Cl4 N3 O2 P3'
_chemical_formula_sum            'C12 H8 Cl4 N3 O2 P3'
_chemical_formula_weight         460.92
_space_group_crystal_system      triclinic
_space_group_IT_number           2
_space_group_name_Hall           '-P 1'
_space_group_name_H-M_alt        'P -1'
_atom_sites_solution_hydrogens   geom
_atom_sites_solution_primary     dual
_cell_angle_alpha                87.973(9)
_cell_angle_beta                 85.334(9)
_cell_angle_gamma                76.965(7)
_cell_formula_units_Z            2
_cell_length_a                   8.278(3)
_cell_length_b                   9.383(3)
_cell_length_c                   12.172(4)
_cell_measurement_reflns_used    3860
_cell_measurement_temperature    296(2)
_cell_measurement_theta_max      27.21
_cell_measurement_theta_min      2.53
_cell_volume                     917.9(5)
_computing_molecular_graphics    'Olex2 (Dolomanov et al., 2009)'
_computing_publication_material  'Olex2 (Dolomanov et al., 2009)'
_computing_structure_refinement  'ShelXL (Sheldrick, 2015)'
_computing_structure_solution    'ShelXT (Sheldrick, 2015)'
_diffrn_ambient_temperature      296.15
_diffrn_measured_fraction_theta_full 0.970
_diffrn_measured_fraction_theta_max 0.970
_diffrn_measurement_device_type  'Bruker APEX-II CCD'
_diffrn_measurement_method       '\f and \w scans'
_diffrn_radiation_type           MoK\a
_diffrn_radiation_wavelength     0.71073
_diffrn_reflns_av_R_equivalents  0.0333
_diffrn_reflns_av_unetI/netI     0.0373
_diffrn_reflns_Laue_measured_fraction_full 0.970
_diffrn_reflns_Laue_measured_fraction_max 0.970
_diffrn_reflns_limit_h_max       9
_diffrn_reflns_limit_h_min       -9
_diffrn_reflns_limit_k_max       11
_diffrn_reflns_limit_k_min       -9
_diffrn_reflns_limit_l_max       14
_diffrn_reflns_limit_l_min       -14
_diffrn_reflns_number            7513
_diffrn_reflns_point_group_measured_fraction_full 0.970
_diffrn_reflns_point_group_measured_fraction_max 0.970
_diffrn_reflns_theta_full        25.025
_diffrn_reflns_theta_max         25.025
_diffrn_reflns_theta_min         1.679
_diffrn_standards_number         0
_exptl_absorpt_coefficient_mu    0.917
_exptl_absorpt_correction_T_max  0.7456
_exptl_absorpt_correction_T_min  0.6212
_exptl_absorpt_correction_type   multi-scan
_exptl_absorpt_process_details   'SADABS V2014/5 (Bruker AXS)'
_exptl_crystal_colour            colourless
_exptl_crystal_colour_primary    colourless
_exptl_crystal_density_diffrn    1.668
_exptl_crystal_description       block
_exptl_crystal_F_000             460
_exptl_crystal_size_max          0.53
_exptl_crystal_size_mid          0.51
_exptl_crystal_size_min          0.37
_refine_diff_density_max         0.706
_refine_diff_density_min         -0.567
_refine_diff_density_rms         0.094
_refine_ls_extinction_coef       .
_refine_ls_extinction_method     none
_refine_ls_goodness_of_fit_ref   1.133
_refine_ls_hydrogen_treatment    constr
_refine_ls_matrix_type           full
_refine_ls_number_parameters     217
_refine_ls_number_reflns         3147
_refine_ls_number_restraints     0
_refine_ls_restrained_S_all      1.133
_refine_ls_R_factor_all          0.0603
_refine_ls_R_factor_gt           0.0486
_refine_ls_shift/su_max          0.000
_refine_ls_shift/su_mean         0.000
_refine_ls_structure_factor_coef Fsqd
_refine_ls_weighting_details
'w=1/[\s^2^(Fo^2^)+(0.0746P)^2^+1.2266P] where P=(Fo^2^+2Fc^2^)/3'
_refine_ls_weighting_scheme      calc
_refine_ls_wR_factor_gt          0.1414
_refine_ls_wR_factor_ref         0.1600
_reflns_Friedel_coverage         0.000
_reflns_Friedel_fraction_full    .
_reflns_Friedel_fraction_max     .
_reflns_number_gt                2595
_reflns_number_total             3147
_reflns_threshold_expression     'I > 2\s(I)'
_cod_data_source_file            1.cif
_cod_data_source_block           19gtu052_118z646_0m
_cod_database_code               1565737
_shelx_space_group_comment
;
The symmetry employed for this shelxl refinement is uniquely defined
by the following loop, which should always be used as a source of
symmetry information in preference to the above space-group names.
They are only intended as comments.
;
_shelx_estimated_absorpt_t_max   0.728
_shelx_estimated_absorpt_t_min   0.642
_olex2_refinement_description
;
1. Fixed Uiso
 At 1.2 times of:
  All C(H) groups
2.a Aromatic/amide H refined with riding coordinates:
 C2(H2), C3(H3), C4(H4), C5(H5), C8(H8), C9(H9), C10(H10), C11(H11)
;
_shelx_res_file
;
TITL 19gtu052_118z646_0m_a.res in P-1
    19gtu052_118z646_0m.res
    created by SHELXL-2018/3 at 14:01:50 on 26-Aug-2019
CELL 0.71073 8.2778 9.3826 12.1725 87.973 85.334 76.965
ZERR 2 0.0028 0.0031 0.004 0.009 0.009 0.007
LATT 1
SFAC C H Cl N O P
UNIT 24 16 8 6 4 6

L.S. 30
PLAN  5
SIZE 0.37 0.51 0.53
TEMP 23
list 4
fmap 2 53
acta
REM <olex2.extras>
REM <HklSrc "%.\\19gtu052_118Z646_0m.hkl">
REM </olex2.extras>

WGHT    0.074600    1.226600
FVAR       0.73258
CL1   3    0.754973    0.492845    0.547702    11.00000    0.09496    0.08338 =
         0.07285   -0.01573    0.02150   -0.02626
CL2   3    0.909305    0.552057    0.759767    11.00000    0.03923    0.07493 =
         0.14100   -0.01156   -0.02133   -0.01599
CL3   3    0.408604    0.211457    0.734918    11.00000    0.07038    0.07670 =
         0.06834   -0.01916   -0.00031   -0.03264
CL4   3    0.470214    0.312701    0.962318    11.00000    0.09024    0.07670 =
         0.05346    0.01465   -0.02167   -0.03662
P1    6    0.696163    0.527939    0.709403    11.00000    0.02964    0.04349 =
         0.06763   -0.00012    0.00113   -0.00865
P2    6    0.370477    0.673104    0.751826    11.00000    0.03125    0.04637 =
         0.04655    0.00246   -0.00530   -0.00289
P3    6    0.471607    0.378702    0.804590    11.00000    0.03551    0.04618 =
         0.05163    0.00638   -0.00544   -0.01220
O1    5    0.262146    0.723899    0.650146    11.00000    0.04830    0.05203 =
         0.04370   -0.00537   -0.01258   -0.00045
O2    5    0.300909    0.795473    0.839107    11.00000    0.03623    0.05504 =
         0.04252   -0.00512   -0.00846   -0.00367
N1    4    0.560916    0.676043    0.726069    11.00000    0.03854    0.04189 =
         0.06748    0.00364    0.00134   -0.00782
N2    4    0.330677    0.519991    0.790268    11.00000    0.02877    0.05932 =
         0.07444    0.01106   -0.00154   -0.01046
N3    4    0.657115    0.381964    0.763252    11.00000    0.03416    0.04789 =
         0.09825    0.01517    0.00122   -0.00573
C1    1    0.222314    0.873726    0.617931    11.00000    0.03788    0.05800 =
         0.04131    0.00347   -0.01448   -0.00944
C2    1    0.297133    0.915111    0.520300    11.00000    0.05225    0.08947 =
         0.04171    0.00391   -0.00920   -0.01993
AFIX  43
H2    2    0.379369    0.848593    0.480391    11.00000   -1.20000
AFIX   0
C3    1    0.246494    1.058523    0.483223    11.00000    0.06833    0.09428 =
         0.05926    0.02376   -0.01935   -0.03697
AFIX  43
H3    2    0.296145    1.088996    0.417997    11.00000   -1.20000
AFIX   0
C4    1    0.123358    1.156364    0.542025    11.00000    0.06412    0.06586 =
         0.08991    0.02753   -0.02890   -0.02321
AFIX  43
H4    2    0.088333    1.251484    0.515246    11.00000   -1.20000
AFIX   0
C5    1    0.052235    1.113957    0.639945    11.00000    0.04629    0.05325 =
         0.08120    0.01030   -0.01842   -0.00996
AFIX  43
H5    2   -0.030169    1.181351    0.678983    11.00000   -1.20000
AFIX   0
C6    1    0.101114    0.971385    0.682303    11.00000    0.03207    0.04808 =
         0.05457   -0.00175   -0.01284   -0.00664
C7    1    0.027372    0.924520    0.788213    11.00000    0.03702    0.04318 =
         0.05357   -0.00824   -0.00635   -0.00768
C8    1   -0.142977    0.969943    0.819210    11.00000    0.03709    0.05853 =
         0.07722   -0.00820   -0.00133   -0.00191
AFIX  43
H8    2   -0.212363    1.029860    0.771760    11.00000   -1.20000
AFIX   0
C9    1   -0.208779    0.926693    0.919371    11.00000    0.04324    0.07166 =
         0.09144   -0.01435    0.01620   -0.01199
AFIX  43
H9    2   -0.322130    0.957077    0.938629    11.00000   -1.20000
AFIX   0
C10   1   -0.108028    0.839135    0.990743    11.00000    0.06617    0.08215 =
         0.06467   -0.01284    0.01887   -0.02859
AFIX  43
H10   2   -0.153991    0.810824    1.057989    11.00000   -1.20000
AFIX   0
C11   1    0.062053    0.792098    0.963874    11.00000    0.05869    0.06624 =
         0.04972   -0.00340   -0.00072   -0.01900
AFIX  43
H11   2    0.130736    0.732976    1.012123    11.00000   -1.20000
AFIX   0
C12   1    0.125115    0.836192    0.863286    11.00000    0.03854    0.04783 =
         0.04490   -0.01076   -0.00244   -0.00849
HKLF 4




REM  19gtu052_118z646_0m_a.res in P-1
REM wR2 = 0.1600, GooF = S = 1.133, Restrained GooF = 1.133 for all data
REM R1 = 0.0486 for 2595 Fo > 4sig(Fo) and 0.0603 for all 3147 data
REM 217 parameters refined using 0 restraints

END

WGHT      0.0746      1.2266

REM Highest difference peak  0.706,  deepest hole -0.567,  1-sigma level  0.094
Q1    1   0.8240  0.5057  0.5988  11.00000  0.05    0.71
Q2    1   0.3152  0.2792  0.7206  11.00000  0.05    0.36
Q3    1   0.8771  0.5542  0.8372  11.00000  0.05    0.35
Q4    1   0.5844  0.3959  0.8240  11.00000  0.05    0.33
Q5    1   0.5003  0.3823  0.9063  11.00000  0.05    0.32
;
_shelx_hkl_file
;
  -1   0   0  832.52   26.70
   1   0   0  854.71   26.60
  -2   0   0   93.99    4.00
   2   0   0   89.29    3.70
  -3   0   0   63.49    3.50
   3   0   0   65.49    3.30
  -4   0   0    6.60    1.50
   4   0   0    4.80    1.20
  -5   0   0  816.52   28.30
   5   0   0  806.42   27.80
  -6   0   0   70.99    5.00
   6   0   0   68.69    4.80
  -7   0   0   15.90    3.10
   7   0   0   12.60    2.50
  -8   0   0    0.40    1.40
  -8   0   0   -2.50    1.70
   8   0   0    1.00    1.90
  -9   0   0   13.00    3.60
  -9   0   0    9.30    4.10
   9   0   0    9.20    3.10
   9  -1   0   16.20    3.70
  -9   1   0   23.40    5.00
  -9   1   0   24.50    4.30
   8  -1   0    0.40    1.40
  -8   1   0   -1.50    1.80
  -8   1   0    1.70    1.50
   7  -1   0  136.09    7.60
  -7   1   0  128.89    7.90
  -7   1   0  131.39    7.50
   6  -1   0  296.57   12.10
  -6   1   0  265.17   12.20
   5  -1   0 1309.07   43.20
  -5   1   0 1300.67   43.60
   4  -1   0 1185.18   38.20
  -4   1   0 1139.39   38.50
   3  -1   0  565.54   19.00
  -3   1   0  557.04   19.20
   2  -1   0   32.90    2.00
  -2   1   0   42.40    2.20
   1  -1   0 1666.23   52.09
  -1  -1   0 4390.36  145.59
  -1  -1   0 4761.32  146.09
   1   1   0 4721.83  144.89
   1   1   0 4696.33  146.09
   1   1   0 4633.64  145.89
  -2  -1   0    3.40    0.70
  -2  -1   0    3.60    0.60
   2   1   0    3.70    0.40
   2   1   0    3.00    0.60
  -3  -1   0 2742.73   86.89
   3   1   0 2763.92   86.49
  -4  -1   0  824.82   27.60
   4   1   0  792.22   27.00
  -5  -1   0    1.10    1.00
   5   1   0    1.50    1.00
  -6  -1   0  166.98    8.50
   6   1   0  173.18    8.30
  -7  -1   0    0.50    1.20
   7   1   0    0.20    1.50
  -8  -1   0   44.30    5.20
   8   1   0   46.90    4.60
  -9  -1   0    2.60    2.90
  -9  -1   0    5.30    2.50
   9   1   0    2.30    2.10
   9  -2   0   46.40    5.90
  -9   2   0   49.10    6.30
  -9   2   0   46.00    5.70
   8  -2   0    1.00    1.50
  -8   2   0   -0.80    1.80
  -8   2   0    1.70    2.00
   7  -2   0  132.19    7.50
  -7   2   0  117.29    7.60
  -7   2   0  119.39    7.30
   6  -2   0  495.35   18.60
  -6   2   0  467.45   18.50
  -6   2   0  496.55   19.10
   5  -2   0 1293.57   41.90
  -5   2   0 1279.57   42.30
  -5   2   0 1201.08   41.70
   4  -2   0   82.09    4.40
  -4   2   0   82.09    4.70
   3  -2   0    1.10    0.70
  -3   2   0    1.20    0.70
   2  -2   0 2072.39   65.59
  -2   2   0 2100.29   65.69
   1  -2   0 2187.58   73.99
  -1   2   0 2565.14   75.19
   0  -2   0  157.18    4.90
   0   2   0  140.69    5.00
  -1  -2   0 1811.52   53.49
   1   2   0 1675.43   52.99
   1   2   0 1703.93   53.49
   1   2   0 1551.34   53.09
  -2  -2   0 1365.06   41.20
   2   2   0 1267.77   40.80
   2   2   0 1242.88   41.10
  -3  -2   0  283.87   10.70
   3   2   0  290.07   10.30
   3   2   0  287.17   10.00
  -4  -2   0   51.89    3.20
  -4  -2   0   49.10    3.40
   4   2   0   47.20    3.00
  -5  -2   0   32.40    3.10
  -5  -2   0   37.70    2.90
   5   2   0   33.30    2.80
  -6  -2   0  542.65   20.50
   6   2   0  534.35   19.90
  -7  -2   0  146.79    8.30
   7   2   0  144.99    8.00
  -8  -2   0  178.28   10.10
   8   2   0  175.68    9.60
  -9  -2   0    9.80    3.60
   9   2   0    6.70    2.50
   8  -3   0   30.20    4.50
  -8   3   0   24.90    4.10
  -8   3   0   36.00    5.50
   7  -3   0   38.30    4.10
  -7   3   0   40.60    4.70
  -7   3   0   38.90    4.30
   6  -3   0    0.60    1.20
  -6   3   0    1.60    1.40
  -6   3   0   -0.50    1.00
   5  -3   0  296.87   11.90
  -5   3   0  290.57   12.20
  -5   3   0  282.17   11.80
   4  -3   0  119.69    5.70
  -4   3   0  116.79    5.70
  -4   3   0  114.69    5.90
   3  -3   0  359.16   12.90
  -3   3   0  370.56   13.00
  -3   3   0  350.96   13.00
   2  -3   0 2576.34   81.29
  -2   3   0 2603.54   81.29
   1  -3   0  583.84   18.90
  -1   3   0  586.74   18.80
   0  -3   0  406.56   13.70
   0   3   0  454.95   14.00
  -1  -3   0 4365.36  119.99
   1   3   0 3415.26  120.79
   1   3   0 3700.13  121.19
  -2  -3   0  191.98    7.30
   2   3   0  196.58    7.70
   2   3   0  208.78    7.80
   2   3   0  198.38    7.00
  -3  -3   0  247.68    9.40
   3   3   0  249.78    9.00
   3   3   0  261.97    9.50
   3   3   0  227.08    9.40
  -4  -3   0   93.49    5.10
  -4  -3   0  104.89    5.30
   4   3   0   98.79    4.70
   4   3   0   84.99    4.50
   4   3   0   94.89    4.40
  -5  -3   0   11.10    2.10
  -5  -3   0   14.70    2.40
   5   3   0   11.60    1.80
  -6  -3   0  561.74   21.20
   6   3   0  557.24   20.50
  -7  -3   0  119.99    7.50
   7   3   0  133.39    7.30
  -8  -3   0  260.97   13.00
   8   3   0  240.58   12.00
  -9  -3   0    2.20    2.30
   9   3   0    0.10    1.90
   8  -4   0   14.20    3.50
  -8   4   0   11.30    3.00
  -8   4   0   15.90    4.00
   7  -4   0  189.88   10.10
  -7   4   0  202.88   10.20
  -7   4   0  204.98   10.80
   6  -4   0   97.29    5.90
  -6   4   0   87.49    6.10
  -6   4   0   84.29    5.60
   5  -4   0   -1.10    1.40
  -5   4   0   -1.20    1.00
  -5   4   0   -0.70    1.20
   4  -4   0  136.39    6.40
  -4   4   0  135.59    6.50
  -4   4   0  128.89    6.30
   3  -4   0    6.60    1.20
  -3   4   0    6.10    1.10
  -3   4   0    5.20    1.20
   2  -4   0  541.95   17.90
  -2   4   0  524.95   17.80
  -1   4   0   36.80    1.80
   0  -4   0  133.99    4.70
   0   4   0  136.69    5.00
   0   4   0  130.19    4.60
  -1  -4   0  409.96   13.90
   1   4   0  442.76   14.70
   1   4   0  416.36   14.50
   1   4   0  421.56   13.50
  -2  -4   0 1198.88   36.30
   2   4   0 1052.99   36.70
   2   4   0 1139.59   35.80
   2   4   0 1123.49   36.90
  -3  -4   0 1208.48   40.80
   3   4   0 1343.87   41.70
   3   4   0 1260.17   40.40
   3   4   0 1238.48   41.40
  -4  -4   0  370.16   13.70
   4   4   0  375.46   13.20
   4   4   0  385.36   13.90
   4   4   0  329.77   13.70
  -5  -4   0  207.48    9.30
   5   4   0  196.58    8.60
   5   4   0  206.08    8.30
   5   4   0  198.58    8.70
  -6  -4   0   30.00    3.90
  -6  -4   0   30.80    3.60
   6   4   0   26.00    2.90
  -7  -4   0   17.50    3.30
  -7  -4   0   25.20    3.80
   7   4   0   17.30    3.00
  -8  -4   0   10.10    3.00
   8   4   0    8.20    2.60
  -9  -4   0   54.89    6.60
   9   4   0   64.89    6.00
   7  -5   0    6.70    2.50
  -7   5   0    8.50    2.40
  -7   5   0    5.80    2.70
   6  -5   0   12.90    2.60
  -6   5   0   19.80    3.10
  -6   5   0   17.70    3.20
   5  -5   0  179.78    8.20
  -5   5   0  163.98    8.30
  -5   5   0  164.18    8.10
   4  -5   0    2.40    1.30
  -4   5   0    2.40    1.30
  -4   5   0    3.60    1.20
   3  -5   0   40.50    2.90
  -3   5   0   43.40    2.90
  -3   5   0   45.90    2.90
  -2   5   0  178.08    6.90
  -2   5   0  190.98    7.20
  -1   5   0  263.07    8.90
  -1   5   0  265.57    9.00
   0  -5   0  327.47   10.50
   0   5   0  316.57   10.40
   0   5   0  309.47   11.10
  -1  -5   0  145.79    5.20
   1   5   0  144.59    6.10
   1   5   0  130.59    5.80
   1   5   0  127.79    4.70
  -2  -5   0  570.94   18.70
   2   5   0  555.54   19.60
   2   5   0  562.84   19.60
   2   5   0  542.35   18.10
  -3  -5   0   98.29    4.60
   3   5   0   83.69    4.90
   3   5   0   86.69    4.00
  -4  -5   0  864.21   29.40
   4   5   0  855.91   29.90
   4   5   0  885.21   28.80
  -5  -5   0  190.38    8.80
   5   5   0  177.68    8.00
   5   5   0  173.48    8.50
  -6  -5   0   99.39    6.20
   6   5   0   98.69    5.20
   6   5   0  103.99    5.80
  -7  -5   0  147.69    8.60
   7   5   0  148.59    7.90
  -8  -5   0    2.50    2.40
   8   5   0   -1.00    1.80
  -9  -5   0   52.29    6.60
   9   5   0   35.10    5.30
   6  -6   0   16.00    3.00
  -6   6   0   17.10    2.80
   5  -6   0    0.00    1.10
  -5   6   0   -0.20    1.30
   4  -6   0  657.33   23.00
  -4   6   0  642.84   22.60
  -3   6   0    3.50    1.10
  -2   6   0  124.49    5.10
  -2   6   0  129.49    5.60
  -2   6   0  124.59    4.30
  -1   6   0  182.18    6.80
   0   6   0  488.35   16.90
   0   6   0  472.65   15.70
   0   6   0  511.15   17.10
  -1  -6   0  156.38    5.30
   1   6   0  146.29    6.50
   1   6   0  129.79    4.90
   1   6   0  140.49    6.60
  -2  -6   0   82.19    3.70
   2   6   0   77.59    4.50
   2   6   0   71.09    3.10
   2   6   0   82.09    4.70
  -3  -6   0   12.80    1.80
   3   6   0   11.70    1.30
   3   6   0    7.20    1.90
   3   6   0   15.20    2.60
  -4  -6   0  399.66   14.60
   4   6   0  390.76   13.80
   4   6   0  356.06   15.20
   4   6   0  399.26   15.70
  -5  -6   0   41.80    3.70
  -5  -6   0   23.60    4.10
   5   6   0   38.60    3.90
   5   6   0   33.50    4.00
   5   6   0   40.70    3.10
  -6  -6   0   29.80    3.40
   6   6   0   27.20    3.20
   6   6   0   24.20    3.20
  -7  -6   0   30.00    4.40
  -7  -6   0   33.10    5.10
   7   6   0   33.10    3.70
   7   6   0   31.50    2.90
  -8  -6   0    2.50    2.70
  -8  -6   0    1.60    2.40
   8   6   0    2.90    1.90
  -9  -6   0   54.89    6.60
   9   6   0   52.09    5.50
  -3   7   0  116.99    4.10
  -2   7   0   29.50    1.90
  -1   7   0  300.77   11.00
   0   7   0  260.27   10.30
   1   7   0   77.19    4.70
   1   7   0   82.29    4.90
   2   7   0    1.60    1.40
   2   7   0    1.90    1.40
  -3  -7   0   45.90    3.20
   3   7   0   45.70    4.20
   3   7   0   40.50    3.90
  -4  -7   0   99.99    5.60
   4   7   0   93.69    6.20
   4   7   0   91.79    4.70
  -5  -7   0  118.39    6.90
   5   7   0  122.89    6.00
   5   7   0  126.89    7.50
  -6  -7   0   93.59    6.40
   6   7   0   93.79    6.40
   6   7   0   93.59    5.40
  -7  -7   0   18.40    3.50
   7   7   0   12.50    2.60
   7   7   0   17.50    3.10
  -8  -7   0   -2.80    2.10
  -8  -7   0   -1.50    1.70
   8   7   0    2.10    1.40
  -3   8   0    5.20    1.10
  -2   8   0   14.60    1.80
  -1   8   0   24.60    2.40
   0   8   0   20.90    2.70
   1   8   0   14.30    2.40
   2   8   0   84.09    5.50
   2   8   0   85.19    5.60
   3   8   0    0.80    1.40
   3   8   0   -1.30    1.30
   4   8   0   47.20    5.00
   5   8   0    7.10    2.50
   5   8   0    5.30    2.40
  -6  -8   0   -0.10    1.80
   6   8   0   -3.40    1.70
  -7  -8   0    5.50    2.70
  -7  -8   0    3.70    3.40
   7   8   0    4.00    2.60
  -8  -8   0   -0.80    3.90
  -8  -8   0    6.10    3.00
   8   8   0    3.60    2.40
  -3   9   0   17.40    2.20
  -2   9   0    0.20    1.50
  -1   9   0    4.10    1.70
   0   9   0    2.30    1.60
   1   9   0   20.40    3.10
   2   9   0   36.90    4.00
   2   9   0   33.40    3.90
   3   9   0   52.79    5.00
   3   9   0   48.00    4.90
   4   9   0  376.36   16.90
   5   9   0   56.09    6.10
   6   9   0    2.40    3.00
   7   9   0   40.90    5.50
  -2  10   0   15.00    2.60
  -1  10   0   51.99    4.50
   0  10   0    6.40    2.20
   1  10   0   12.60    2.90
   2  10   0    1.50    2.40
   3  10   0    5.20    2.60
   3  10   0    1.40    2.60
   4  10   0   58.29    6.60
   5  10   0   -0.70    3.00
   6  10   0   -0.80    2.70
   1  11   0    4.80    2.50
   2  11   0   18.60    4.00
   3  11   0    7.40    3.80
   3  11   0    9.80    3.40
   3  11  -1   25.00    4.80
   3  11  -1   25.00    4.90
   2  11  -1  122.29    9.00
   1  11  -1   44.70    5.60
   6  10  -1   26.60    5.10
   5  10  -1    4.20    3.40
   4  10  -1   10.30    3.60
   4  10  -1    9.20    3.10
   3  10  -1  131.69    8.90
   3  10  -1  139.49    9.20
   2  10  -1   70.79    6.30
   1  10  -1   90.79    6.70
   0  10  -1   11.80    2.80
  -1  10  -1   15.70    2.90
  -2  10  -1   32.00    3.80
   7   9  -1  108.09    8.40
   6   9  -1  249.58   13.00
   5   9  -1    1.70    2.40
   4   9  -1    3.00    2.60
   4   9  -1   -0.70    2.60
   3   9  -1   22.20    4.00
   3   9  -1   19.20    3.90
   2   9  -1    8.80    2.70
   2   9  -1   10.00    2.80
   1   9  -1    2.00    1.90
   0   9  -1   12.60    2.50
  -1   9  -1   14.20    2.50
  -2   9  -1  147.39    7.10
  -3   9  -1    3.90    1.50
   8   8  -1   83.19    5.50
  -8  -8   1   85.99    7.20
   7   8  -1    1.60    2.40
  -7  -8   1    1.00    2.20
  -7  -8   1    0.80    3.20
   6   8  -1    4.50    2.50
  -6  -8   1   -3.50    2.30
  -6  -8   1    0.50    2.50
   5   8  -1   -0.50    1.80
   4   8  -1   38.20    4.50
   3   8  -1  131.99    7.70
   3   8  -1  121.59    7.40
   2   8  -1    4.00    1.70
   2   8  -1    3.40    1.60
   1   8  -1   25.40    3.40
   1   8  -1   23.50    3.20
   0   8  -1  280.27   11.40
  -1   8  -1    9.00    1.90
  -2   8  -1   89.89    4.60
  -3   8  -1   22.50    2.10
  -4   8  -1    5.50    1.20
   8   7  -1    1.90    1.90
  -8  -7   1    3.80    2.40
  -8  -7   1    0.70    2.60
   7   7  -1   -0.60    1.20
   7   7  -1    0.10    1.60
  -7  -7   1   -0.60    2.60
  -7  -7   1    1.00    2.10
   6   7  -1    2.50    1.90
   6   7  -1    1.60    1.20
  -6  -7   1    4.00    1.90
  -6  -7   1   -1.10    2.20
   5   7  -1  163.38    8.90
   5   7  -1  220.58   11.90
   5   7  -1  166.48    7.80
  -5  -7   1  174.68    8.60
   4   7  -1   31.70    2.60
   4   7  -1   26.60    3.50
   4   7  -1   24.20    3.70
   3   7  -1  234.68   10.90
   3   7  -1  263.97   11.40
   3   7  -1  240.18    9.10
   2   7  -1   82.19    5.20
   2   7  -1   78.69    5.00
   1   7  -1   58.29    4.10
   1   7  -1   56.39    4.00
   0   7  -1  997.90   33.20
  -1   7  -1  166.88    7.00
  -2   7  -1   34.30    2.30
  -3   7  -1    2.80    0.80
   9   6  -1   12.10    3.30
  -9  -6   1   10.70    3.80
   8   6  -1   60.59    5.30
  -8  -6   1   71.89    6.50
  -8  -6   1   48.50    6.30
   7   6  -1   31.20    3.50
   7   6  -1   36.30    2.70
  -7  -6   1   38.20    4.60
   6   6  -1    1.30    1.00
   6   6  -1    0.60    1.50
  -6  -6   1    0.30    1.40
  -6  -6   1    0.30    1.70
   5   6  -1  302.17   13.50
   5   6  -1  312.77   12.20
   5   6  -1  313.07   13.00
  -5  -6   1  304.37   12.60
   4   6  -1    8.30    2.10
   4   6  -1    9.90    2.30
   4   6  -1    6.80    1.30
  -4  -6   1    8.60    1.90
   3   6  -1  331.87   11.60
   3   6  -1  317.77   13.00
   3   6  -1  306.37   12.90
  -3  -6   1  331.67   11.80
   2   6  -1   30.60    2.90
   2   6  -1   33.20    2.80
   2   6  -1   30.80    1.90
  -2  -6   1   30.80    2.00
   1   6  -1  299.67   11.60
   1   6  -1  303.47   11.40
   1   6  -1  288.87   10.10
   0   6  -1  791.52   26.10
   0   6  -1  774.92   25.20
   0   6  -1  792.12   26.30
  -1   6  -1  138.69    5.50
  -1   6  -1  128.79    5.20
  -2   6  -1   12.70    1.40
  -2   6  -1   12.90    1.10
  -3   6  -1   49.20    3.10
  -4   6  -1   -1.90    1.30
  -5   6  -1   64.79    4.60
  -6   6  -1   23.10    3.30
   9   5  -1   71.69    6.40
  -9  -5   1   61.79    7.20
   8   5  -1  102.79    7.40
  -8  -5   1  117.39    7.90
   7   5  -1    9.30    2.40
  -7  -5   1    8.40    2.60
  -7  -5   1    5.10    2.60
   6   5  -1   92.29    5.50
   6   5  -1   89.09    4.70
  -6  -5   1   91.19    5.90
   5   5  -1 1179.78   40.40
   5   5  -1 1151.18   38.50
   5   5  -1 1140.89   38.70
  -5  -5   1 1144.99   39.00
   4   5  -1  476.75   18.20
   4   5  -1  496.05   17.50
  -4  -5   1  517.05   18.00
   3   5  -1   49.99    2.90
   3   5  -1   59.29    4.00
   3   5  -1   50.19    3.60
  -3  -5   1   46.50    3.10
   2   5  -1  430.56   14.30
   2   5  -1  414.56   15.30
   2   5  -1  421.16   15.40
  -2  -5   1  429.06   14.40
   1   5  -1  274.67    9.30
   1   5  -1  264.77   10.10
   1   5  -1  267.07   10.40
  -1  -5   1  277.17    9.00
   0   5  -1 1566.74   50.59
   0   5  -1 1638.24   50.79
   0   5  -1 1574.14   50.09
  -1   5  -1  546.45   17.30
  -1   5  -1  525.35   17.20
  -1   5  -1  502.05   16.60
  -2   5  -1  127.49    5.20
  -2   5  -1  126.59    5.10
  -3   5  -1   27.70    2.20
  -3   5  -1   30.40    2.30
  -4   5  -1   33.10    2.90
  -4   5  -1   35.20    3.00
   4  -5   1   32.10    2.90
  -5   5  -1  165.18    8.10
  -5   5  -1  174.48    8.50
   5  -5   1  173.18    8.50
  -6   5  -1  161.88    8.60
  -6   5  -1  162.18    8.30
   6  -5   1  163.68    8.60
  -7   5  -1   15.90    3.00
   9   4  -1   -0.10    2.20
  -9  -4   1   -0.40    2.40
   8   4  -1    4.50    2.00
  -8  -4   1   11.50    3.10
   7   4  -1   -0.40    1.00
  -7  -4   1    0.00    1.50
   6   4  -1    1.70    1.20
  -6  -4   1    2.40    1.90
  -6  -4   1    3.50    1.90
   5   4  -1 1272.07   40.70
   5   4  -1 1242.88   41.50
  -5  -4   1 1243.18   42.00
   4   4  -1  247.38    9.90
   4   4  -1  276.67   10.60
   4   4  -1  249.38   10.20
  -4  -4   1  257.17   10.40
   3   4  -1   -0.20    0.40
   3   4  -1    1.30    0.90
  -3  -4   1   -0.50    0.70
  -3  -4   1   -0.10    0.70
   2   4  -1 1106.99   36.60
   2   4  -1 1149.98   35.70
   2   4  -1 1109.29   36.50
  -2  -4   1 1108.29   35.80
   1   4  -1  481.85   15.60
   1   4  -1  479.15   16.30
   1   4  -1  470.75   16.40
  -1  -4   1  476.55   15.40
   0   4  -1    1.70    0.50
   0   4  -1    2.40    0.70
  -1   4  -1   25.40    1.40
  -1   4  -1   23.10    1.20
  -1   4  -1   22.80    1.50
  -2   4  -1    2.70    0.70
  -2   4  -1    5.90    0.90
  -3   4  -1   22.90    2.00
  -3   4  -1   28.10    2.10
   3  -4   1   25.80    2.20
  -4   4  -1   94.79    5.10
  -4   4  -1  101.09    5.30
   4  -4   1   92.49    5.10
  -5   4  -1  280.37   11.90
  -5   4  -1  286.07   12.20
   5  -4   1  317.17   12.30
  -6   4  -1    1.60    1.60
  -6   4  -1    0.00    1.50
   6  -4   1   -2.00    1.10
  -7   4  -1   12.50    3.10
  -7   4  -1   19.70    3.40
   7  -4   1   16.90    3.30
  -8   4  -1   48.30    5.00
  -8   4  -1   41.40    5.70
   8  -4   1   33.40    4.80
   9   3  -1    5.10    2.40
  -9  -3   1    1.80    3.00
   8   3  -1   49.40    4.90
  -8  -3   1   51.69    5.50
   7   3  -1    3.00    1.50
  -7  -3   1   -0.60    1.20
   6   3  -1   25.40    3.20
  -6  -3   1   27.00    3.20
   5   3  -1    1.00    0.80
  -5  -3   1    0.40    1.10
  -5  -3   1    2.90    1.30
   4   3  -1   89.29    4.10
   4   3  -1   87.69    4.50
  -4  -3   1   88.19    4.90
   3   3  -1   86.49    4.60
   3   3  -1  102.89    4.50
   3   3  -1  105.49    4.70
  -3  -3   1  100.89    4.70
   2   3  -1    5.50    0.80
   2   3  -1    6.80    1.10
   2   3  -1    6.30    1.10
  -2  -3   1    7.50    1.00
   1   3  -1  266.97    9.30
   1   3  -1  276.17    8.90
   1   3  -1  267.07    9.40
  -1  -3   1  244.08    8.70
   0   3  -1 2005.00   64.29
   0   3  -1 2064.29   63.49
  -1   3  -1  141.29    5.00
  -1   3  -1  143.09    5.20
  -2   3  -1   19.20    1.50
  -2   3  -1   16.70    1.40
   2  -3   1   15.60    1.50
  -3   3  -1   46.20    2.90
  -3   3  -1   45.20    2.80
   3  -3   1   49.20    3.00
  -4   3  -1   72.29    4.30
  -4   3  -1   73.79    4.10
   4  -3   1   75.99    4.30
  -5   3  -1    2.40    1.40
  -5   3  -1    2.10    1.30
   5  -3   1    2.20    1.60
  -6   3  -1   29.90    3.30
  -6   3  -1   33.60    3.80
   6  -3   1   31.70    3.50
  -7   3  -1   -0.70    1.70
  -7   3  -1    1.50    1.50
   7  -3   1    0.00    1.70
  -8   3  -1   73.39    5.90
  -8   3  -1   69.69    6.50
   8  -3   1   64.29    5.80
   9   2  -1    5.70    2.60
  -9  -2   1    8.10    3.60
   8   2  -1    5.80    2.20
  -8  -2   1    8.10    2.90
   7   2  -1   13.70    2.60
  -7  -2   1   13.40    2.90
   6   2  -1   26.00    2.90
  -6  -2   1   23.60    3.50
   5   2  -1  173.88    7.70
  -5  -2   1  170.98    7.30
  -5  -2   1  171.28    8.10
  -5  -2   1  165.58    7.50
   4   2  -1  178.18    7.50
  -4  -2   1  178.48    7.80
   3   2  -1    6.90    1.10
   3   2  -1    5.60    0.80
  -3  -2   1    4.90    1.00
   2   2  -1   29.10    1.70
   2   2  -1   30.60    1.80
   2   2  -1   26.70    1.80
  -2  -2   1   28.80    1.80
   1   2  -1 3998.80  109.89
   1   2  -1 3389.26  110.79
   1   2  -1 3358.66  110.99
  -1  -2   1 3280.47  109.99
   0   2  -1 1823.62   57.09
   0   2  -1 1815.02   57.39
  -1   2  -1 2595.84   82.19
  -1   2  -1 2638.84   82.29
  -2   2  -1  264.57    9.50
  -2   2  -1  270.57    9.50
   2  -2   1  272.57    9.60
  -3   2  -1  918.81   30.70
  -3   2  -1  960.00   31.00
   3  -2   1  939.81   30.80
  -4   2  -1    3.40    1.10
  -4   2  -1    7.00    1.50
   4  -2   1    4.50    1.30
  -5   2  -1   28.90    3.30
  -5   2  -1   24.20    2.90
   5  -2   1   26.60    3.00
  -6   2  -1  451.05   17.90
  -6   2  -1  439.76   17.40
   6  -2   1  477.75   17.70
  -7   2  -1   24.60    3.90
  -7   2  -1   22.40    3.30
   7  -2   1   19.40    3.20
  -8   2  -1    0.40    1.60
  -8   2  -1   -1.80    1.50
   8  -2   1   -0.40    1.80
  -9   2  -1   12.50    3.60
  -9   2  -1   15.60    4.50
   9  -2   1   10.50    3.10
   9   1  -1  106.99    7.80
  -9  -1   1  103.89    8.50
   8   1  -1   39.90    4.30
  -8  -1   1   32.00    4.80
   7   1  -1    7.10    2.00
  -7  -1   1    7.00    2.20
   6   1  -1   40.20    3.50
  -6  -1   1   32.80    3.50
   5   1  -1  273.47   11.00
  -5  -1   1  275.77   11.50
   4   1  -1  259.27   10.00
  -4  -1   1  265.87    9.10
  -4  -1   1  237.48   10.10
   3   1  -1  168.78    6.90
  -3  -1   1  173.98    7.20
  -3  -1   1  188.98    6.50
   2   1  -1 4180.28  137.39
   2   1  -1 4888.91  139.09
  -2  -1   1 4146.19  138.79
   1   1  -1   21.90    1.20
   1   1  -1   20.50    1.10
   1   1  -1   19.90    1.10
  -1  -1   1   22.70    1.20
   0   1  -1  482.25   16.20
   0   1  -1  525.65   16.30
   0   1  -1  531.55   16.20
   0  -1   1  508.05   16.30
  -1   1  -1 3629.74  114.89
   1  -1   1 3690.03  114.99
  -2   1  -1 1919.01   59.49
  -2   1  -1 1825.62   59.29
   2  -1   1 1907.21   59.39
  -3   1  -1  463.05   16.30
  -3   1  -1  482.45   16.20
   3  -1   1  464.75   16.20
  -4   1  -1   81.19    4.40
  -4   1  -1   87.09    4.70
   4  -1   1   84.99    4.50
  -5   1  -1  187.78    8.80
  -5   1  -1  191.38    8.60
   5  -1   1  197.48    8.60
  -6   1  -1  180.18    8.90
  -6   1  -1  182.88    9.20
   6  -1   1  187.68    8.80
  -7   1  -1    2.10    1.50
  -7   1  -1    0.30    1.80
   7  -1   1    2.00    1.50
  -8   1  -1   -0.40    1.70
  -8   1  -1    2.20    1.70
   8  -1   1    0.50    1.70
  -9   1  -1  102.89    7.50
  -9   1  -1  106.89    8.30
   9  -1   1   99.69    7.60
   9   0  -1  153.88   10.00
  -9   0   1  168.58   11.00
   8   0  -1    1.40    1.70
  -8   0   1    1.80    1.90
   7   0  -1    7.50    2.10
  -7   0   1    5.10    2.10
   6   0  -1    2.90    1.40
  -6   0   1    5.10    1.80
   5   0  -1  120.49    6.10
  -5   0   1  123.29    6.60
   4   0  -1    9.80    1.50
  -4   0   1   11.10    1.90
   3   0  -1 1672.33   53.29
   2   0  -1 6986.60  219.38
   1   0  -1  893.31   28.20
   0   0  -1    5.90    0.40
   0   0   1    5.40    0.40
  -1   0  -1    4.00    0.50
  -1   0  -1    1.90    0.30
   1   0   1    2.00    0.40
  -2   0  -1  297.37   10.50
  -2   0  -1  314.47   10.40
   2   0   1  291.47   10.30
  -3   0  -1    9.50    1.40
   3   0   1    6.10    1.10
  -4   0  -1  592.24   20.80
   4   0   1  596.34   20.50
  -5   0  -1    3.90    1.40
   5   0   1    1.50    1.10
  -6   0  -1  440.96   16.90
  -6   0  -1  441.86   17.50
   6   0   1  447.46   17.00
  -7   0  -1   11.60    2.70
  -7   0  -1    9.20    2.30
   7   0   1   15.40    2.70
  -8   0  -1    1.90    1.90
  -8   0  -1   -0.20    1.30
   8   0   1    1.10    1.60
  -9   0  -1  195.98   11.80
  -9   0  -1  182.48   10.40
   9   0   1  189.68   10.70
   9  -1  -1  157.28   10.00
  -9   1   1  163.88   10.00
  -9   1   1  156.88   10.60
   8  -1  -1   77.79    6.20
  -8   1   1   77.79    7.00
   7  -1  -1   78.69    5.60
  -7   1   1   66.79    5.70
   6  -1  -1    4.40    1.60
  -6   1   1    3.50    1.80
   5  -1  -1   58.09    4.20
  -5   1   1   64.19    4.50
   4  -1  -1  854.61   28.40
  -4   1   1  836.82   28.80
   3  -1  -1  736.73   24.40
   2  -1  -1  395.86   13.40
   1  -1  -1 1146.69   36.10
   0  -1  -1  377.16   12.20
   0   1   1  371.96   12.10
   0   1   1  384.26   12.00
  -1  -1  -1  346.17   11.20
  -1  -1  -1  331.27   11.40
   1   1   1  346.27   11.20
   1   1   1  362.86   11.60
  -2  -1  -1 1638.44   53.59
   2   1   1 1749.92   53.69
   2   1   1 1700.03   53.39
  -3  -1  -1    9.20    1.40
   3   1   1    9.90    1.30
  -4  -1  -1 2465.35   80.19
   4   1   1 2564.64   79.79
  -5  -1  -1  128.29    6.70
   5   1   1  135.09    6.40
  -6  -1  -1    3.80    1.70
   6   1   1    5.90    1.70
  -7  -1  -1   11.40    2.90
  -7  -1  -1    7.40    2.00
   7   1   1    9.30    2.30
  -8  -1  -1   13.50    2.90
  -8  -1  -1   20.90    3.90
   8   1   1   13.80    3.00
  -9  -1  -1  238.18   12.70
  -9  -1  -1  265.37   13.90
   9   1   1  248.08   12.70
   8  -2  -1    8.60    2.50
  -8   2   1    5.20    3.10
  -8   2   1   12.60    3.00
   7  -2  -1   54.69    4.80
  -7   2   1   63.79    5.70
   6  -2  -1   69.49    5.10
  -6   2   1   71.19    5.70
   5  -2  -1   46.40    3.70
  -5   2   1   40.30    3.80
   4  -2  -1  428.76   15.40
  -4   2   1  415.16   15.70
   3  -2  -1  114.29    5.10
   2  -2  -1   38.20    2.10
   1  -2  -1 3682.03  108.99
   1  -2  -1 3271.77  108.69
   0  -2  -1 1707.13   50.49
   0   2   1 1497.75   50.39
  -1  -2  -1 2392.16   77.79
   1   2   1 2545.85   78.99
  -3  -2  -1  940.61   31.90
  -3  -2  -1 1021.00   32.00
   3   2   1  964.70   31.40
   3   2   1  969.70   31.50
  -4  -2  -1 2359.86   78.99
  -4  -2  -1 2698.33   78.89
   4   2   1 2377.16   78.59
  -5  -2  -1  728.53   25.20
   5   2   1  696.83   24.60
  -6  -2  -1  119.79    6.90
   6   2   1  117.69    6.40
  -7  -2  -1   98.89    6.80
   7   2   1  109.49    6.50
  -8  -2  -1   22.80    3.50
  -8  -2  -1   24.00    4.20
   8   2   1   21.00    3.50
  -9  -2  -1   61.69    6.70
  -9  -2  -1   62.89    5.80
   9   2   1   66.29    6.00
   8  -3  -1   32.00    4.80
  -8   3   1   42.80    5.90
  -8   3   1   30.60    4.40
   7  -3  -1    4.40    2.00
  -7   3   1    2.70    1.90
  -7   3   1    2.30    1.70
   6  -3  -1   66.99    4.80
  -6   3   1   65.69    5.00
  -6   3   1   55.19    4.80
   5  -3  -1    2.00    1.30
  -5   3   1    0.10    1.40
   4  -3  -1  146.29    6.60
  -4   3   1  141.49    6.90
   3  -3  -1  113.09    5.10
   2  -3  -1    3.70    0.80
   1  -3  -1 1216.08   39.50
   1  -3  -1 1309.67   39.90
  -1   3   1 1245.38   39.60
   0  -3  -1   36.90    1.80
   0   3   1   36.70    1.70
  -1  -3  -1 1908.01   57.89
   1   3   1 1904.91   58.19
   1   3   1 1715.53   58.09
  -2  -3  -1   38.30    2.30
   2   3   1   33.90    2.50
   2   3   1   34.20    1.80
   2   3   1   35.90    2.40
  -3  -3  -1  401.46   14.70
   3   3   1  430.16   15.00
   3   3   1  421.76   14.30
  -4  -3  -1 2269.07   73.59
   4   3   1 2349.06   73.09
   4   3   1 2287.37   73.09
  -5  -3  -1   24.80    2.60
  -5  -3  -1   27.00    2.80
   5   3   1   27.40    2.60
   5   3   1   32.90    1.70
  -6  -3  -1   80.69    5.10
  -6  -3  -1   78.29    5.60
   6   3   1   79.29    5.10
  -7  -3  -1   20.90    3.50
   7   3   1   26.40    3.60
  -8  -3  -1    1.40    2.60
   8   3   1    2.40    2.00
  -9  -3  -1    2.20    1.80
  -9  -3  -1    1.80    2.40
   9   3   1    2.70    1.90
   8  -4  -1   80.09    7.00
  -8   4   1   81.79    7.10
  -8   4   1   90.89    6.90
   7  -4  -1   54.19    5.30
  -7   4   1   55.99    5.10
  -7   4   1   47.90    5.20
   6  -4  -1   33.10    3.60
  -6   4   1   35.40    3.80
  -6   4   1   37.60    3.70
   5  -4  -1  181.58    8.50
  -5   4   1  167.08    8.30
  -5   4   1  188.98    8.90
   4  -4  -1   -1.40    0.70
  -4   4   1    1.50    1.00
  -4   4   1   -1.20    0.70
   3  -4  -1   30.10    2.30
  -3   4   1   28.90    2.30
   2  -4  -1   19.70    1.60
  -2   4   1   19.20    1.60
   1  -4  -1 1775.22   54.59
  -1   4   1 1710.13   54.49
   0   4   1  609.34   19.70
  -1  -4  -1   73.99    3.40
   1   4   1   84.49    3.80
   1   4   1   70.19    3.60
  -2  -4  -1   69.99    3.40
   2   4   1   70.19    3.80
   2   4   1   69.99    2.80
   2   4   1   54.79    3.60
  -3  -4  -1    1.30    1.10
  -3  -4  -1    1.50    0.90
   3   4   1    1.50    1.00
   3   4   1    0.10    1.20
  -4  -4  -1    5.70    1.40
   4   4   1    6.70    1.60
   4   4   1    5.20    1.10
   4   4   1    5.70    1.70
  -5  -4  -1 1361.76   46.40
   5   4   1 1371.86   45.70
   5   4   1 1460.05   45.70
  -6  -4  -1  506.85   19.00
  -6  -4  -1  495.65   19.10
   6   4   1  485.75   18.20
   6   4   1  471.95   16.00
  -7  -4  -1  219.88   10.80
  -7  -4  -1  206.38   10.60
   7   4   1  210.98   10.00
  -8  -4  -1   53.49    5.80
   8   4   1   46.20    5.30
  -9  -4  -1   -0.70    2.80
  -9  -4  -1    0.50    1.70
   9   4   1    1.80    1.90
   7  -5  -1   26.90    3.80
  -7   5   1   35.20    5.00
  -7   5   1   34.90    4.20
   6  -5  -1   64.79    4.80
  -6   5   1   54.39    4.80
  -6   5   1   51.59    5.00
   5  -5  -1   15.50    2.60
  -5   5   1   12.80    2.60
  -5   5   1   14.10    2.30
   4  -5  -1   18.40    2.40
  -4   5   1   14.10    2.20
  -4   5   1   18.40    2.70
   3  -5  -1    9.00    1.50
  -3   5   1    6.80    1.30
   2  -5  -1   15.30    1.40
  -2   5   1   12.90    1.30
  -1   5   1   38.70    1.90
  -1   5   1   40.50    1.70
   0  -5  -1   42.30    2.20
   0   5   1   39.80    2.30
  -1  -5  -1    4.60    1.00
   1   5   1    2.90    1.00
   1   5   1    2.90    0.90
  -2  -5  -1 1214.88   39.50
   2   5   1 1206.98   40.30
   2   5   1 1254.57   40.40
   2   5   1 1229.98   38.50
  -3  -5  -1  187.08    7.70
   3   5   1  180.68    8.30
   3   5   1  188.18    7.00
  -4  -5  -1  162.08    7.30
   4   5   1  155.58    6.60
   4   5   1  150.28    7.60
   4   5   1  162.18    8.00
  -5  -5  -1 1410.76   47.40
   5   5   1 1453.45   46.70
   5   5   1 1440.06   47.50
   5   5   1 1407.76   47.60
  -6  -5  -1  549.85   20.50
   6   5   1  535.25   19.20
   6   5   1  516.55   19.50
  -7  -5  -1   52.89    5.60
  -7  -5  -1   57.09    5.30
   7   5   1   52.89    4.40
  -8  -5  -1   39.90    5.40
  -8  -5  -1   50.89    5.80
   8   5   1   56.19    5.10
  -9  -5  -1  111.59    8.30
  -9  -5  -1   96.39    7.10
   9   5   1  101.79    7.50
   6  -6  -1   41.80    4.40
  -6   6   1   40.60    4.10
   5  -6  -1    5.80    1.90
  -5   6   1    1.90    1.40
   4  -6  -1   10.70    2.10
  -4   6   1   11.80    2.30
  -4   6   1   10.90    2.40
   3  -6  -1    2.80    1.20
  -3   6   1    2.60    1.00
  -2   6   1   96.79    4.20
  -1   6   1  654.63   21.40
  -1   6   1  687.73   21.80
   0  -6  -1  971.80   31.10
   0   6   1  969.10   31.70
  -1  -6  -1  280.37    9.90
   1   6   1  268.87   10.70
   1   6   1  291.37   11.00
  -2  -6  -1   70.49    3.70
   2   6   1   79.09    4.60
   2   6   1   68.69    4.30
  -3  -6  -1   57.69    3.60
   3   6   1   63.39    4.40
   3   6   1   56.79    4.60
   3   6   1   65.69    3.00
  -4  -6  -1   24.70    2.80
   4   6   1   28.70    3.10
   4   6   1   22.70    2.00
   4   6   1   26.30    3.80
  -5  -6  -1  278.17   11.40
   5   6   1  243.38   11.50
   5   6   1  243.38   10.10
  -6  -6  -1   27.00    4.30
  -6  -6  -1   34.00    4.00
   6   6   1   33.10    3.20
   6   6   1   38.70    3.80
  -7  -6  -1   68.29    6.50
  -7  -6  -1   70.99    6.10
   7   6   1   74.39    5.20
   7   6   1   73.59    4.60
  -8  -6  -1  112.49    8.00
  -8  -6  -1  102.69    8.30
   8   6   1  107.49    6.90
  -9  -6  -1   18.60    4.40
  -9  -6  -1   14.50    3.30
  -9  -6  -1    6.30    5.80
   9   6   1   17.00    3.70
  -2   7   1   27.80    1.80
  -1   7   1   17.10    1.90
   0   7   1  836.22   28.00
   1   7   1   38.30    3.30
   1   7   1   40.40    3.30
  -2  -7  -1    9.60    1.60
   2   7   1    4.80    1.70
   2   7   1    6.80    2.00
  -3  -7  -1  966.80   31.80
   3   7   1  940.91   33.30
  -4  -7  -1  263.37   11.30
   4   7   1  272.57   12.50
   4   7   1  303.27   13.10
  -5  -7  -1   35.10    3.90
   5   7   1   43.80    4.30
   5   7   1   47.80    3.30
  -6  -7  -1   42.00    4.70
   6   7   1   48.50    4.60
   6   7   1   40.80    3.40
  -7  -7  -1   22.40    4.10
  -7  -7  -1   22.60    4.60
   7   7   1   26.80    3.90
   7   7   1   26.50    3.60
  -8  -7  -1   17.10    4.50
  -8  -7  -1   34.40    5.10
  -8  -7  -1   32.30    4.00
   8   7   1   30.60    4.10
   8   7   1   30.60    2.80
  -3   8   1   60.89    3.00
  -2   8   1   71.39    3.70
  -1   8   1    2.10    1.20
   0   8   1    0.80    1.20
   1   8   1   82.99    5.30
   2   8   1   72.59    5.30
   2   8   1   68.79    5.10
   3   8   1  166.68    9.20
   3   8   1  156.78    8.60
  -5  -8  -1    0.80    1.50
   5   8   1    1.00    2.20
   5   8   1   -0.70    1.40
  -6  -8  -1    3.80    2.00
   6   8   1    6.70    2.80
  -7  -8  -1   -2.00    2.10
   7   8   1   -2.00    1.80
  -8  -8  -1  136.29    9.70
   8   8   1  130.09    7.80
  -3   9   1    0.20    1.00
  -2   9   1   95.69    5.10
  -1   9   1    9.30    2.00
   0   9   1    4.40    1.70
   1   9   1   -1.30    1.40
   2   9   1   98.49    6.60
   2   9   1   90.49    6.30
   3   9   1    1.10    1.90
   3   9   1    9.30    3.00
   4   9   1   14.20    4.40
   4   9   1   23.40    4.30
   5   9   1    5.40    3.10
   5   9   1    8.50    3.40
   6   9   1   41.90    6.10
   7   9   1   15.70    4.20
  -2  10   1    4.50    2.00
  -1  10   1   -1.10    1.40
   0  10   1    4.00    2.00
   1  10   1   25.10    3.70
   2  10   1   10.90    3.20
   3  10   1   69.39    6.30
   4  10   1   23.30    4.90
   4  10   1   12.80    4.10
   5  10   1    5.50    3.40
   6  10   1    0.90    2.80
   1  11   1   17.40    3.70
   2  11   1   47.30    6.20
   3  11   1   33.30    5.50
   3  11   1   18.50    4.60
   2  11  -2   12.30    3.60
   5  10  -2   58.99    6.90
   4  10  -2    5.60    2.80
   4  10  -2   13.20    3.70
   3  10  -2    2.90    2.60
   3  10  -2    5.80    2.80
   2  10  -2   31.40    4.70
   2  10  -2   29.30    4.60
   1  10  -2   34.80    4.80
   0  10  -2   17.30    3.30
  -1  10  -2   12.60    2.80
  -2  10  -2   10.50    2.40
   7   9  -2   29.90    5.00
   6   9  -2   19.10    4.00
  -6  -9   2   -0.90    2.80
   5   9  -2    6.90    2.70
   4   9  -2   38.70    4.90
   4   9  -2   39.20    5.20
   3   9  -2   42.30    4.80
   3   9  -2   49.99    5.30
   2   9  -2   13.80    3.10
   2   9  -2   14.60    3.10
   1   9  -2   23.60    3.40
   0   9  -2   92.89    6.10
  -1   9  -2   26.30    3.30
  -2   9  -2   17.00    2.70
  -3   9  -2   18.10    2.50
   7   8  -2   31.50    4.50
   6   8  -2    5.40    2.70
  -6  -8   2   -4.20    3.00
   5   8  -2    0.10    1.60
  -5  -8   2    1.40    2.40
   4   8  -2  140.79    8.70
   4   8  -2  174.98    9.20
   3   8  -2   27.60    3.80
   3   8  -2   31.40    4.20
   2   8  -2   36.90    3.80
   2   8  -2   32.40    4.00
   1   8  -2   -2.00    1.00
   1   8  -2   -1.20    1.40
   0   8  -2    4.00    1.50
  -1   8  -2  148.29    6.90
  -2   8  -2    9.20    1.80
  -3   8  -2   13.70    2.00
  -4   8  -2   47.10    3.00
  -5   8  -2   42.70    3.00
   8   7  -2   43.10    4.60
  -8  -7   2   44.10    5.60
  -8  -7   2   35.80    6.20
   7   7  -2    7.20    2.20
   7   7  -2    8.10    2.20
  -7  -7   2    7.60    2.80
  -7  -7   2    1.90    2.80
   6   7  -2    7.60    2.10
   6   7  -2    6.40    2.40
  -6  -7   2    7.00    2.40
   5   7  -2   57.59    4.00
   5   7  -2   51.29    4.60
  -5  -7   2   58.49    4.50
   4   7  -2   49.50    4.40
   4   7  -2   53.09    3.60
   3   7  -2  172.58    8.90
   3   7  -2  186.58    9.00
   3   7  -2  180.58    7.40
   2   7  -2  180.58    7.20
   2   7  -2  191.48    8.70
   2   7  -2  181.18    8.70
   1   7  -2   19.60    1.70
   1   7  -2   21.80    2.80
   1   7  -2   19.80    2.50
   0   7  -2  141.39    5.70
   0   7  -2  135.09    6.50
  -1   7  -2  442.06   15.20
  -1   7  -2  404.36   15.10
  -2   7  -2    0.10    0.90
  -2   7  -2   -0.60    0.70
  -3   7  -2   38.00    2.40
  -3   7  -2   36.70    2.90
  -4   7  -2   66.69    3.20
  -4   7  -2   60.89    5.00
   9   6  -2   70.69    6.40
  -9  -6   2   73.49    7.30
   8   6  -2   -0.90    1.60
  -8  -6   2    1.80    2.60
  -8  -6   2   -0.20    2.40
   7   6  -2   31.60    2.30
   7   6  -2   43.60    4.10
  -7  -6   2   38.30    4.60
   6   6  -2    5.80    1.90
   6   6  -2    6.40    1.90
  -6  -6   2    2.50    2.50
  -6  -6   2    4.30    2.00
   5   6  -2    1.50    1.60
   5   6  -2    1.60    1.00
  -5  -6   2    1.60    1.50
  -5  -6   2   -0.50    1.80
   4   6  -2   63.09    4.80
   4   6  -2   66.59    4.70
   4   6  -2   73.19    4.20
  -4  -6   2   65.39    4.20
   3   6  -2   95.49    5.60
   3   6  -2   98.49    5.60
   3   6  -2   97.69    4.70
  -3  -6   2   99.99    4.80
   2   6  -2   97.39    4.40
   2   6  -2  101.89    5.40
   2   6  -2  103.39    5.50
  -2  -6   2   84.09    4.00
   1   6  -2  137.39    6.40
   1   6  -2  134.49    6.50
   1   6  -2  131.69    5.40
   0   6  -2   18.90    2.10
   0   6  -2   22.80    2.50
   0   6  -2   23.90    1.80
  -1   6  -2  488.15   16.70
  -1   6  -2  498.15   16.90
  -2   6  -2    0.70    0.70
  -2   6  -2    0.20    0.70
  -3   6  -2  245.68    9.30
  -3   6  -2  226.18    8.10
  -4   6  -2  514.65   18.50
  -5   6  -2    5.20    1.80
  -6   6  -2   23.90    3.20
   9   5  -2   38.70    5.30
  -9  -5   2   42.10    6.10
   8   5  -2    0.80    1.70
  -8  -5   2    3.20    2.50
   7   5  -2  179.38    9.30
  -7  -5   2  175.48    9.60
   6   5  -2   19.80    3.10
   6   5  -2   17.80    2.10
  -6  -5   2   22.10    3.30
   5   5  -2   57.59    4.30
   5   5  -2   50.09    4.20
  -5  -5   2   56.39    4.40
   4   5  -2   19.10    2.10
   4   5  -2   21.50    3.00
   4   5  -2   17.90    2.80
  -4  -5   2   17.80    2.50
   3   5  -2  729.23   25.50
   3   5  -2  709.93   25.40
   3   5  -2  733.63   24.60
  -3  -5   2  772.62   24.80
   2   5  -2   13.50    2.20
   2   5  -2   12.00    1.30
   2   5  -2   12.10    1.80
  -2  -5   2   10.10    1.10
   1   5  -2  740.23   25.50
   1   5  -2  771.72   24.60
   1   5  -2  751.12   25.30
   0   5  -2  194.28    7.20
   0   5  -2  202.08    7.90
   0   5  -2  198.08    7.70
  -1   5  -2   82.49    3.70
  -1   5  -2   83.79    3.70
  -2   5  -2   28.00    1.70
  -2   5  -2   23.70    1.50
  -2   5  -2   27.70    2.00
  -3   5  -2    2.20    0.90
  -3   5  -2    1.50    0.80
  -4   5  -2  191.28    8.30
  -4   5  -2  189.28    8.10
  -5   5  -2  303.77   12.30
  -5   5  -2  289.27   12.10
  -6   5  -2    7.80    2.10
  -7   5  -2    9.20    2.50
   7  -5   2    3.80    2.10
   9   4  -2   18.00    3.80
  -9  -4   2   14.80    4.00
   8   4  -2   35.40    4.70
  -8  -4   2   42.90    5.60
   7   4  -2   34.40    3.70
  -7  -4   2   38.40    4.50
   6   4  -2   25.40    3.40
  -6  -4   2   28.50    3.50
   5   4  -2   21.10    2.10
   5   4  -2   25.30    3.00
  -5  -4   2   21.00    3.30
   4   4  -2    9.60    1.70
   4   4  -2   10.50    1.70
   4   4  -2   11.10    1.90
  -4  -4   2   11.70    2.00
   3   4  -2  102.99    5.10
   3   4  -2   92.29    4.50
   3   4  -2   91.49    4.80
  -3  -4   2   92.09    4.60
   2   4  -2  386.26   14.00
   2   4  -2  401.46   13.50
   2   4  -2  382.06   14.00
  -2  -4   2  391.26   13.40
   1   4  -2 1509.75   47.90
   1   4  -2 1502.55   47.70
   1   4  -2 1560.24   47.20
  -1  -4   2 1389.36   46.60
   0   4  -2  446.36   14.50
   0   4  -2  430.66   14.90
   0   4  -2  427.66   14.70
  -1   4  -2  702.33   23.00
  -1   4  -2  726.33   23.30
  -2   4  -2    4.30    0.90
  -2   4  -2    4.10    0.80
  -3   4  -2    0.50    0.60
  -3   4  -2    1.50    0.80
  -4   4  -2  376.76   13.90
  -4   4  -2  367.66   13.90
   4  -4   2  375.36   14.30
  -5   4  -2  186.18    8.90
  -5   4  -2  205.68    9.10
   5  -4   2  202.08    9.20
  -6   4  -2  245.18   10.90
  -6   4  -2  232.98   10.90
   6  -4   2  237.48   10.90
  -7   4  -2   98.39    6.60
  -7   4  -2  101.89    7.00
   7  -4   2   98.99    6.80
  -8   4  -2    1.00    2.40
  -8   4  -2    4.60    2.30
   8  -4   2    2.50    2.50
   9   3  -2   22.40    4.40
  -9  -3   2   21.10    4.50
   8   3  -2  150.98    8.90
  -8  -3   2  135.59    8.90
   7   3  -2   69.69    5.20
  -7  -3   2   56.59    5.10
   6   3  -2  368.16   14.80
  -6  -3   2  366.26   15.20
   5   3  -2   65.29    4.20
  -5  -3   2   63.19    4.50
   4   3  -2 1011.30   32.10
   4   3  -2  974.50   32.90
  -4  -3   2  982.80   33.20
   3   3  -2  236.88    8.80
   3   3  -2  226.28    8.60
   3   3  -2  213.78    8.60
  -3  -3   2  219.58    8.80
   2   3  -2  288.47   10.30
   2   3  -2  265.27   10.20
   2   3  -2  292.67   10.10
  -2  -3   2  282.77   10.10
   1   3  -2 1154.78   35.40
   1   3  -2 1066.49   35.60
   1   3  -2 1110.09   35.80
   0   3  -2  137.69    5.30
   0   3  -2  131.59    5.10
   0   3  -2  137.29    5.10
  -1   3  -2  329.87   11.30
  -1   3  -2  343.17   11.50
  -1   3  -2  379.46   11.90
  -2   3  -2   54.39    2.80
  -2   3  -2   56.29    2.70
  -3   3  -2  326.37   11.50
  -3   3  -2  303.87   11.40
   3  -3   2  310.27   11.70
  -4   3  -2  175.88    7.60
  -4   3  -2  177.18    7.70
   4  -3   2  174.08    7.70
  -5   3  -2   13.50    2.30
  -5   3  -2   18.40    2.80
   5  -3   2   12.80    2.30
  -6   3  -2  161.28    8.30
  -6   3  -2  165.78    8.20
   6  -3   2  157.48    8.20
  -7   3  -2   32.90    4.20
  -7   3  -2   38.70    4.50
   7  -3   2   36.20    4.00
  -8   3  -2   55.99    5.90
  -8   3  -2   51.19    5.10
   8  -3   2   47.20    5.10
   9   2  -2    3.60    2.20
  -9  -2   2    0.10    2.20
   8   2  -2   79.79    6.20
  -8  -2   2   75.89    6.60
   7   2  -2    3.00    1.60
  -7  -2   2    3.20    2.00
   6   2  -2   55.19    4.30
  -6  -2   2   52.89    4.40
   5   2  -2   12.90    2.10
  -5  -2   2   12.30    1.80
  -5  -2   2   11.40    2.20
   4   2  -2   41.40    2.90
  -4  -2   2   38.90    3.20
   3   2  -2  417.66   13.60
   3   2  -2  394.86   14.30
   2   2  -2  940.01   29.80
   2   2  -2  936.41   29.90
   2   2  -2  896.31   29.80
   1   2  -2 2718.93   83.99
   1   2  -2 2611.64   84.09
   1   2  -2 2740.43   85.69
   0   2  -2 1058.09   33.60
   0   2  -2 1064.19   33.60
  -1   2  -2  805.72   25.00
  -1   2  -2  753.32   24.70
  -2   2  -2  329.37   11.10
  -2   2  -2  312.07   11.10
  -3   2  -2  378.96   12.20
  -3   2  -2  299.87   11.80
   3  -2   2  315.07   12.10
  -4   2  -2  145.69    6.70
  -4   2  -2  145.39    6.80
   4  -2   2  170.28    7.10
  -5   2  -2 1101.89   37.90
  -5   2  -2 1145.39   37.70
   5  -2   2 1132.59   37.80
  -6   2  -2  218.88   10.20
  -6   2  -2  214.88    9.80
   6  -2   2  214.18    9.90
  -7   2  -2   32.90    3.70
  -7   2  -2   34.20    3.90
   7  -2   2   31.70    3.90
  -8   2  -2   18.90    3.30
  -8   2  -2   15.20    3.50
   8  -2   2   16.20    3.20
  -9   2  -2   55.69    6.90
  -9   2  -2   43.40    5.40
   9  -2   2   41.40    5.30
   9   1  -2   25.30    4.40
  -9  -1   2   29.10    5.60
   8   1  -2   58.49    5.40
  -8  -1   2   57.69    5.70
   7   1  -2    8.60    2.20
  -7  -1   2   16.20    3.20
   6   1  -2   38.20    3.50
  -6  -1   2   35.00    3.80
   5   1  -2    6.40    1.60
  -5  -1   2    2.30    0.80
  -5  -1   2    0.30    1.10
   4   1  -2 2020.90   66.49
  -4  -1   2 2133.29   65.49
   3   1  -2 1453.75   47.60
  -3  -1   2 1514.65   47.00
   2   1  -2  150.38    5.00
   2   1  -2  164.28    5.40
   2   1  -2  147.39    5.90
  -2  -1   2  146.39    5.50
   1   1  -2 1663.83   52.09
   1   1  -2 1650.73   52.69
   1   1  -2 1586.24   52.19
  -1  -1   2 1736.93   52.59
   0   1  -2 2005.30   70.89
   0   1  -2 2354.56   71.89
   0   1  -2 2404.96   71.29
  -1   1  -2   57.89    2.50
  -1   1  -2   59.69    2.50
  -2   1  -2   57.39    2.80
  -2   1  -2   55.39    2.80
   2  -1   2   58.29    2.90
  -3   1  -2  501.95   17.30
  -3   1  -2  495.65   17.10
   3  -1   2  506.65   17.20
  -4   1  -2  297.67   11.60
  -4   1  -2  307.17   11.40
   4  -1   2  294.17   11.40
  -5   1  -2 1406.86   46.90
  -5   1  -2 1419.26   46.50
   5  -1   2 1416.36   46.60
  -6   1  -2  196.58    9.20
  -6   1  -2  173.68    8.60
   6  -1   2  183.38    8.80
  -7   1  -2  113.59    6.90
  -7   1  -2   87.09    5.90
   7  -1   2   96.69    6.20
  -8   1  -2   22.30    3.50
  -8   1  -2   26.30    4.50
   8  -1   2   20.40    3.40
  -9   1  -2   69.69    6.10
  -9   1  -2   73.09    7.40
   9  -1   2   60.49    6.00
   9   0  -2    5.00    2.70
  -9   0   2   -0.70    2.50
   8   0  -2   17.50    3.40
  -8   0   2   18.50    3.90
   7   0  -2   88.59    6.10
  -7   0   2   86.79    6.40
   6   0  -2   85.99    5.50
  -6   0   2   83.89    5.70
   5   0  -2    1.20    0.90
  -5   0   2   -0.20    0.80
   4   0  -2  804.32   27.20
   3   0  -2 1110.99   36.10
   2   0  -2   25.80    1.70
   1   0  -2  766.02   23.90
   1   0  -2  733.13   24.00
  -1   0   2  744.23   23.70
   0   0  -2 3085.79  110.99
   0   0  -2 4229.08  111.39
   0   0  -2 3499.25  111.09
   0   0   2 3328.37  110.89
  -1   0  -2 1195.58   38.90
  -1   0  -2 1270.17   38.80
  -2   0  -2 2438.36   71.89
  -2   0  -2 2071.09   71.89
   2   0   2 2362.36   71.99
  -3   0  -2 1305.87   42.00
  -3   0  -2 1302.17   41.70
   3   0   2 1287.77   41.80
  -4   0  -2 1320.67   44.20
  -4   0  -2 1376.36   43.90
   4   0   2 1354.96   43.90
  -5   0  -2   83.49    4.80
  -5   0  -2   88.09    5.10
   5   0   2   89.09    4.90
  -6   0  -2  221.88   10.30
  -6   0  -2  220.58    9.90
   6   0   2  229.18   10.10
  -7   0  -2  187.18    9.80
  -7   0  -2  199.48    9.60
   7   0   2  191.98    9.50
  -8   0  -2    2.40    1.70
  -8   0  -2    2.80    2.30
   8   0   2    4.00    1.80
  -9   0  -2   -2.30    2.00
  -9   0  -2    3.10    2.90
   9   0   2    1.60    2.00
   9  -1  -2   61.09    6.80
  -9   1   2   65.39    8.00
   8  -1  -2   87.39    6.80
  -8   1   2   89.39    7.60
   7  -1  -2   23.90    3.50
  -7   1   2   20.40    3.80
   6  -1  -2   48.80    4.20
  -6   1   2   55.49    4.70
   5  -1  -2  777.32   26.80
  -5   1   2  762.12   27.40
   4  -1  -2   50.09    3.30
   3  -1  -2   99.99    4.70
   2  -1  -2   26.20    1.70
   1  -1  -2   28.30    1.50
   1  -1  -2   25.80    1.60
   0  -1  -2 2405.66   75.39
   0  -1  -2 2415.46   75.79
   0  -1  -2 2393.66   75.29
   0   1   2 2404.96   75.99
  -1  -1  -2 5421.16  196.68
   1   1   2 7139.29  198.68
  -2  -1  -2   88.69    3.60
  -2  -1  -2   83.29    3.80
   2   1   2   81.19    3.60
   2   1   2   87.69    3.60
  -3  -1  -2  496.65   16.60
  -3  -1  -2  437.06   16.70
  -3  -1  -2  519.45   16.70
   3   1   2  490.75   16.60
  -4  -1  -2   18.70    1.90
  -4  -1  -2   16.70    2.00
   4   1   2   17.70    1.90
  -5  -1  -2  265.77   10.40
  -5  -1  -2  244.08   10.60
   5   1   2  248.88   10.20
  -6  -1  -2   12.20    2.70
  -6  -1  -2    6.60    1.80
   6   1   2    6.90    1.80
  -7  -1  -2  150.98    8.50
  -7  -1  -2  151.58    7.90
   7   1   2  144.39    7.90
  -8  -1  -2    9.20    2.90
  -8  -1  -2    9.80    2.50
   8   1   2    9.90    2.60
  -9  -1  -2   20.10    5.00
  -9  -1  -2   15.70    3.70
   9   1   2   15.50    3.40
   8  -2  -2    1.40    1.80
  -8   2   2    5.60    3.10
   7  -2  -2    5.40    2.10
  -7   2   2    2.50    1.90
   6  -2  -2  631.84   23.20
  -6   2   2  619.74   23.80
   5  -2  -2 1565.94   49.50
  -5   2   2 1424.96   49.80
   4  -2  -2    0.80    1.00
   3  -2  -2  596.24   20.30
   2  -2  -2  160.58    6.20
   1  -2  -2 1229.78   38.20
   1  -2  -2 1161.28   37.70
   0  -2  -2 2176.68   74.39
   0  -2  -2 2313.37   74.29
   0   2   2 2428.06   74.79
   0   2   2 2595.34   75.09
  -1  -2  -2  414.86   14.30
  -1  -2  -2  409.06   13.60
   1   2   2  455.35   14.50
  -2  -2  -2 9760.82  306.87
  -2  -2  -2 9578.94  309.07
   2   2   2 9991.30  309.57
   2   2   2 9999.00  307.37
  -3  -2  -2   70.69    3.40
  -3  -2  -2   71.79    3.70
  -3  -2  -2   67.89    3.70
   3   2   2   65.99    3.30
   3   2   2   61.39    3.30
  -4  -2  -2   13.60    2.10
  -4  -2  -2   13.00    2.00
  -4  -2  -2   10.70    1.60
   4   2   2   11.00    1.10
   4   2   2   11.70    1.60
  -5  -2  -2 1023.50   33.80
  -5  -2  -2 1004.90   34.40
   5   2   2 1001.10   33.80
  -6  -2  -2   13.00    2.40
  -6  -2  -2   14.30    2.70
   6   2   2   14.70    2.40
  -7  -2  -2   18.00    2.80
  -7  -2  -2   17.70    3.20
   7   2   2   10.70    2.40
  -8  -2  -2  312.37   14.50
  -8  -2  -2  299.57   13.40
   8   2   2  283.67   13.30
  -9  -2  -2   -0.40    1.80
  -9  -2  -2    0.10    2.50
   9   2   2   -1.20    1.40
   8  -3  -2   16.80    3.50
  -8   3   2   26.10    4.80
  -8   3   2   29.60    4.40
   7  -3  -2   13.10    2.80
  -7   3   2   15.90    3.70
   6  -3  -2  107.09    6.40
  -6   3   2  101.29    6.90
   5  -3  -2  522.55   19.10
  -5   3   2  503.75   19.60
   4  -3  -2  110.89    5.60
   3  -3  -2   11.50    1.60
   2  -3  -2    3.40    0.80
   1  -3  -2    3.80    0.90
   1  -3  -2    3.30    0.60
   0  -3  -2  120.59    4.70
   0   3   2  109.69    4.20
  -1  -3  -2 2001.00   65.99
   1   3   2 2188.48   66.19
  -2  -3  -2  145.79    6.10
  -2  -3  -2  150.78    5.40
   2   3   2  155.88    5.40
   2   3   2  146.29    6.40
  -3  -3  -2  556.94   18.10
  -3  -3  -2  534.75   18.80
   3   3   2  540.35   19.00
   3   3   2  536.25   18.10
  -4  -3  -2    2.40    1.20
  -4  -3  -2    2.20    0.90
  -4  -3  -2    0.70    1.50
   4   3   2    1.70    0.90
   4   3   2    1.80    1.20
  -5  -3  -2   13.60    2.00
  -5  -3  -2   11.80    2.10
  -5  -3  -2   12.70    2.30
   5   3   2   13.40    1.40
   5   3   2   11.80    1.90
  -6  -3  -2  101.69    5.50
  -6  -3  -2   89.69    5.70
  -6  -3  -2   90.89    6.10
   6   3   2   89.79    5.50
  -7  -3  -2  258.67   11.90
  -7  -3  -2  246.98   11.10
   7   3   2  234.78   11.00
  -8  -3  -2  732.63   27.10
  -8  -3  -2  747.63   28.30
   8   3   2  727.83   27.30
  -9  -3  -2   11.30    2.90
  -9  -3  -2   12.10    4.00
   9   3   2   11.70    2.90
   7  -4  -2   99.49    6.90
  -7   4   2   97.69    6.90
  -7   4   2  107.99    7.80
   6  -4  -2    1.70    1.30
  -6   4   2    1.10    1.60
  -6   4   2    1.30    1.70
   5  -4  -2   21.80    2.90
  -5   4   2   22.20    3.30
   4  -4  -2   24.90    2.60
   3  -4  -2  295.97   11.10
   2  -4  -2    3.70    0.90
   1  -4  -2    0.30    0.40
   1  -4  -2    1.30    0.80
   0  -4  -2  298.07   10.30
   0   4   2  283.97    9.90
  -1  -4  -2  845.92   27.60
   1   4   2  832.72   27.70
   1   4   2  848.42   27.70
  -2  -4  -2  433.46   14.70
  -2  -4  -2  410.16   13.60
   2   4   2  406.96   15.10
   2   4   2  426.16   13.70
  -3  -4  -2 2279.47   72.99
  -3  -4  -2 2259.47   72.09
   3   4   2 2328.17   73.69
   3   4   2 2305.67   72.09
  -4  -4  -2  507.75   17.90
  -4  -4  -2  523.85   18.90
   4   4   2  529.15   19.00
   4   4   2  527.25   18.00
  -5  -4  -2  157.38    6.90
  -5  -4  -2  150.98    7.60
  -5  -4  -2  151.28    8.00
   5   4   2  142.29    6.80
   5   4   2  147.09    7.00
  -6  -4  -2    2.70    1.30
  -6  -4  -2    0.80    1.60
  -6  -4  -2    4.80    1.90
   6   4   2    6.60    1.40
   6   4   2    0.00    0.90
  -7  -4  -2    0.70    1.70
  -7  -4  -2    2.10    1.40
  -7  -4  -2    0.10    2.10
   7   4   2    0.70    1.30
  -8  -4  -2  234.38   12.00
  -8  -4  -2  221.68   10.90
   8   4   2  234.28   11.30
  -9  -4  -2   11.60    2.90
  -9  -4  -2   14.50    4.30
   9   4   2    7.90    2.70
   7  -5  -2   40.80    4.50
  -7   5   2   31.10    4.30
  -7   5   2   40.30    5.50
   6  -5  -2    2.70    1.60
  -6   5   2   -1.40    1.20
  -6   5   2    2.40    1.50
   5  -5  -2    2.00    1.40
  -5   5   2    0.60    1.50
  -5   5   2    0.80    1.30
   4  -5  -2  386.06   14.50
  -4   5   2  377.96   14.50
   3  -5  -2  150.58    6.40
  -3   5   2  137.09    6.30
   2  -5  -2   99.49    4.40
  -2   5   2  100.89    4.40
   1  -5  -2    6.50    0.80
   1  -5  -2    8.90    1.40
  -1   5   2    6.10    0.60
  -1   5   2    6.20    0.70
  -1   5   2    6.70    0.60
   0  -5  -2  313.17   12.30
   0   5   2  398.26   12.40
  -1  -5  -2 1922.81   60.09
   1   5   2 1799.72   60.29
   1   5   2 1948.01   60.49
  -2  -5  -2   64.89    2.50
  -2  -5  -2   67.69    3.70
   2   5   2   65.49    4.00
  -3  -5  -2 1644.64   52.19
  -3  -5  -2 1689.63   53.39
   3   5   2 1554.44   54.09
   3   5   2 1722.63   52.29
  -4  -5  -2    6.00    1.20
  -4  -5  -2    2.80    1.50
   4   5   2    3.00    0.90
   4   5   2   -0.50    1.00
   4   5   2    2.00    1.70
  -5  -5  -2  116.89    5.60
  -5  -5  -2  102.89    6.30
  -5  -5  -2  110.19    7.00
   5   5   2  116.49    6.60
   5   5   2  124.19    5.90
  -6  -5  -2    6.80    2.40
  -6  -5  -2    7.60    1.70
  -6  -5  -2    7.80    2.60
   6   5   2    6.90    2.00
   6   5   2    7.80    2.00
  -7  -5  -2    7.30    2.90
  -7  -5  -2    0.90    2.50
  -7  -5  -2    4.10    1.80
   7   5   2    4.30    2.00
   7   5   2    5.60    1.20
  -8  -5  -2   21.60    3.40
  -8  -5  -2   24.10    4.70
  -8  -5  -2   25.00    4.40
   8   5   2   27.10    3.80
  -9  -5  -2   45.70    6.20
  -9  -5  -2   34.10    4.70
   9   5   2   40.80    5.20
  -6   6   2    6.30    2.10
  -5   6   2   27.50    3.90
  -5   6   2   29.20    3.20
   4  -6  -2  287.07   12.70
  -4   6   2  307.07   11.80
  -3   6   2  262.97   10.00
  -2   6   2  738.63   25.60
   1  -6  -2   29.90    2.50
  -1   6   2   29.70    1.90
   0  -6  -2   41.50    2.60
   0   6   2   35.80    2.60
  -1  -6  -2  318.07   11.40
   1   6   2  320.67   12.10
   1   6   2  307.17   12.00
  -2  -6  -2   39.00    2.80
   2   6   2   38.20    3.30
  -3  -6  -2  114.39    5.60
  -3  -6  -2  108.99    4.20
   3   6   2   96.29    6.20
   3   6   2  109.39    6.20
   3   6   2  112.89    4.30
  -4  -6  -2  210.38    9.00
   4   6   2  183.78    9.60
   4   6   2  193.48    9.60
   4   6   2  210.98    7.80
  -5  -6  -2   10.90    1.70
  -5  -6  -2    9.70    2.40
   5   6   2    8.10    1.60
   5   6   2    7.50    2.60
   5   6   2    6.90    2.20
  -6  -6  -2   39.50    4.40
  -6  -6  -2   34.80    3.20
   6   6   2   32.50    3.10
   6   6   2   39.70    3.80
  -7  -6  -2    2.20    1.60
  -7  -6  -2    1.20    2.20
  -7  -6  -2    0.90    2.40
   7   6   2    0.50    1.60
   7   6   2    1.90    1.80
  -8  -6  -2   31.20    5.20
  -8  -6  -2   23.40    4.80
  -8  -6  -2   19.70    3.40
   8   6   2   29.60    4.10
  -9  -6  -2   97.89    8.80
  -9  -6  -2   99.89    8.20
  -9  -6  -2  106.39    7.10
   9   6   2  104.49    7.30
  -2   7   2    8.00    1.00
  -1   7   2   34.20    2.50
   0  -7  -2   15.80    2.20
   0   7   2   12.60    2.00
   1   7   2  505.15   18.40
   1   7   2  501.75   18.30
  -2  -7  -2  387.06   14.20
   2   7   2  380.86   15.30
   2   7   2  401.96   15.50
  -3  -7  -2   35.30    3.20
   3   7   2   29.60    3.50
  -4  -7  -2    0.60    1.20
   4   7   2    1.60    1.70
   4   7   2   -0.20    1.50
  -5  -7  -2   -0.80    1.50
   5   7   2    0.60    1.60
   5   7   2    0.90    1.70
  -6  -7  -2   61.19    5.30
   6   7   2   44.80    4.20
   6   7   2   49.40    4.90
  -7  -7  -2    3.50    2.00
  -7  -7  -2    8.90    3.50
   7   7   2    8.20    2.90
   7   7   2    2.90    2.00
  -8  -7  -2    1.60    1.80
  -8  -7  -2    3.30    2.80
   8   7   2    2.60    1.60
   8   7   2    4.50    1.90
  -3   8   2   31.10    1.90
  -2   8   2    0.70    0.90
  -1   8   2  140.69    6.40
   0   8   2   36.20    3.20
   1   8   2    8.00    2.10
   2   8   2   33.10    3.80
   2   8   2   31.50    3.60
   3   8   2   16.30    3.40
   3   8   2   17.80    3.70
  -4  -8  -2  159.98    7.60
   4   8   2  136.19    8.90
   4   8   2  146.59    8.90
  -5  -8  -2   17.60    3.10
   5   8   2   19.00    3.80
   5   8   2   19.30    4.00
  -6  -8  -2   64.79    5.60
   6   8   2   58.59    5.70
  -7  -8  -2   -1.00    2.10
   7   8   2   -0.20    2.00
  -8  -8  -2    0.40    3.10
   8   8   2    0.90    2.50
  -3   9   2   11.40    1.70
  -2   9   2   16.50    2.30
  -1   9   2   21.80    2.80
   0   9   2    9.90    2.20
   1   9   2    4.20    1.90
   2   9   2    2.20    2.10
   3   9   2   22.30    4.20
   4   9   2   75.59    7.00
   5   9   2   35.90    5.40
   6   9   2   35.80    5.70
   7   9   2   39.10    5.40
  -2  10   2   20.60    2.90
  -1  10   2   44.20    4.10
   0  10   2   -0.50    1.50
   1  10   2   18.60    3.50
   2  10   2   19.70    4.10
   3  10   2    2.20    2.30
   3  10   2    1.00    2.70
   4  10   2    2.30    2.50
   4  10   2    0.80    2.30
   5  10   2    3.90    3.20
   5  10   2   -2.10    3.00
   6  10   2   -3.00    2.80
   1  11   2    3.30    2.50
   2  11   2    2.90    3.00
   3  11   2    2.90    3.60
   5  10  -3   17.60    4.60
   4  10  -3   50.89    5.80
   4  10  -3   45.50    5.80
   3  10  -3   -0.60    2.30
   3  10  -3    3.70    2.80
   2  10  -3    2.40    2.40
   2  10  -3    0.20    1.90
   1  10  -3  114.89    7.80
   0  10  -3   15.80    3.40
  -1  10  -3    2.60    2.00
   6   9  -3   18.80    4.10
  -6  -9   3    2.90    3.20
   5   9  -3   15.90    3.60
   4   9  -3    0.30    2.20
   4   9  -3    0.60    1.80
   3   9  -3   -0.50    1.90
   3   9  -3   -0.50    1.50
   2   9  -3   30.10    4.10
   2   9  -3   30.10    4.10
   1   9  -3   36.20    4.50
   0   9  -3   39.30    4.60
  -1   9  -3   38.30    3.80
  -2   9  -3  162.08    7.90
  -3   9  -3   78.69    5.10
   7   8  -3   34.10    4.70
   7   8  -3   22.60    3.70
   6   8  -3  141.19    8.50
   6   8  -3  140.59    7.80
   4   8  -3    7.10    2.50
   4   8  -3   10.40    2.90
   3   8  -3  186.28    9.50
   3   8  -3  173.18    9.40
   2   8  -3  131.39    7.70
   2   8  -3  135.29    7.50
   1   8  -3  296.57   12.80
   1   8  -3  294.57   12.50
   0   8  -3   12.10    2.30
  -1   8  -3    0.30    1.20
  -2   8  -3  114.29    5.80
  -3   8  -3  127.69    6.10
  -4   8  -3   20.80    2.50
   8   7  -3   56.19    5.70
  -8  -7   3   42.40    7.10
  -8  -7   3   53.39    6.00
   7   7  -3   -1.40    1.00
   7   7  -3   -0.40    1.40
  -7  -7   3    0.90    2.20
  -7  -7   3   -1.60    2.60
   6   7  -3   23.60    3.90
   6   7  -3   18.70    3.10
  -6  -7   3   29.40    4.10
   5   7  -3   65.29    5.20
   5   7  -3   54.59    4.20
  -5  -7   3   61.69    4.70
   4   7  -3  547.15   20.40
   4   7  -3  481.95   19.70
   3   7  -3   85.69    5.70
   3   7  -3   75.69    4.30
   3   7  -3   67.49    5.10
   2   7  -3   56.89    4.60
   2   7  -3   58.19    4.40
   2   7  -3   59.79    3.50
   1   7  -3   96.09    4.50
   1   7  -3   93.29    5.70
   1   7  -3   99.09    5.70
   0   7  -3  230.68    8.80
   0   7  -3  228.88    9.60
  -1   7  -3  472.05   16.60
  -1   7  -3  454.45   16.10
  -2   7  -3   78.79    4.20
  -2   7  -3   74.79    4.20
  -3   7  -3    2.70    1.20
  -3   7  -3    4.80    1.30
  -4   7  -3   26.20    2.20
  -4   7  -3   26.50    3.10
  -5   7  -3   50.29    4.30
   8   6  -3  189.08   10.30
  -8  -6   3  167.18   10.30
   7   6  -3   -0.40    1.30
  -7  -6   3   -1.50    2.00
  -7  -6   3   -2.70    1.70
   6   6  -3    0.40    1.50
   6   6  -3    1.70    1.60
  -6  -6   3    0.00    1.60
  -6  -6   3    0.20    1.60
   5   6  -3  108.49    6.40
   5   6  -3  109.39    6.10
  -5  -6   3  111.39    6.40
   4   6  -3   25.40    2.60
   4   6  -3   25.60    3.10
  -4  -6   3   24.90    3.00
   3   6  -3   68.09    3.80
   3   6  -3   70.09    4.80
   3   6  -3   63.39    4.50
  -3  -6   3   63.59    3.70
   2   6  -3  123.49    5.60
   2   6  -3  135.99    6.80
   2   6  -3  136.19    6.70
  -2  -6   3  122.29    5.10
   1   6  -3   76.69    4.60
   1   6  -3   75.29    4.50
   1   6  -3   74.59    3.80
   0   6  -3 1161.18   38.00
   0   6  -3 1141.19   37.40
   0   6  -3 1172.18   38.30
  -1   6  -3  583.64   20.00
  -1   6  -3  593.44   19.90
  -2   6  -3  292.87   10.90
  -2   6  -3  288.37   10.60
  -3   6  -3   12.20    1.60
  -3   6  -3   13.60    1.90
  -4   6  -3   11.60    2.10
  -5   6  -3   33.20    3.60
  -6   6  -3   -0.90    1.30
   9   5  -3   29.90    5.00
  -9  -5   3   39.80    6.20
   8   5  -3   81.29    6.50
  -8  -5   3   77.89    6.80
   7   5  -3   30.60    4.10
  -7  -5   3   29.30    4.40
   6   5  -3  358.56   14.60
   6   5  -3  334.07   12.20
  -6  -5   3  361.06   15.00
   5   5  -3 1178.98   39.80
   5   5  -3 1181.28   39.30
  -5  -5   3 1176.18   40.00
   4   5  -3  514.75   19.20
   4   5  -3  537.25   19.10
  -4  -5   3  539.35   19.20
   3   5  -3  599.14   20.90
   3   5  -3  583.94   20.30
   3   5  -3  571.34   20.80
  -3  -5   3  590.84   20.20
   2   5  -3    0.90    1.00
   2   5  -3    0.30    0.80
   2   5  -3   -0.60    0.50
  -2  -5   3    0.00    0.50
  -2  -5   3   -0.30    0.80
   1   5  -3    4.60    0.90
   1   5  -3    4.90    1.30
   1   5  -3    6.50    1.50
  -1  -5   3    5.50    0.70
   0   5  -3  380.56   13.70
   0   5  -3  383.46   13.20
   0   5  -3  377.36   13.50
  -1   5  -3   31.40    2.10
  -1   5  -3   25.00    2.00
  -2   5  -3   72.79    3.10
  -2   5  -3   74.89    3.50
  -2   5  -3   80.29    3.90
  -3   5  -3    5.60    1.30
  -3   5  -3    4.20    1.10
  -4   5  -3   12.30    2.10
  -4   5  -3   10.60    2.00
  -5   5  -3  102.69    6.00
  -6   5  -3   14.50    2.80
  -7   5  -3    2.80    1.90
   9   4  -3    1.90    2.30
  -9  -4   3    1.30    2.50
   8   4  -3    9.90    2.90
  -8  -4   3    7.80    3.00
   7   4  -3   86.59    6.10
  -7  -4   3   69.49    5.80
   6   4  -3   29.90    3.70
  -6  -4   3   28.40    3.60
   5   4  -3  968.70   31.10
   5   4  -3  950.60   32.60
  -5  -4   3  935.21   32.90
   4   4  -3  137.19    6.30
   4   4  -3  133.79    6.50
   4   4  -3  140.49    6.60
  -4  -4   3  139.29    6.70
   3   4  -3  337.87   12.40
   3   4  -3  332.27   12.60
   3   4  -3  352.36   12.80
  -3  -4   3  325.37   12.40
   2   4  -3  287.47   10.70
   2   4  -3  267.77   10.60
   2   4  -3  283.37   10.30
   1   4  -3 1652.03   54.79
   1   4  -3 1747.53   54.69
   1   4  -3 1734.43   54.29
   0   4  -3   13.20    1.50
   0   4  -3   11.30    1.30
   0   4  -3   12.10    1.30
  -1   4  -3  102.49    4.40
  -1   4  -3  106.39    4.50
  -2   4  -3  104.69    4.20
  -2   4  -3  100.79    4.20
  -2   4  -3  106.59    4.70
  -3   4  -3   69.39    3.80
  -3   4  -3   72.29    3.80
  -4   4  -3   28.20    2.90
  -4   4  -3   26.90    2.70
  -5   4  -3  204.48    9.30
  -5   4  -3  217.48    9.40
  -6   4  -3    0.70    1.60
  -7   4  -3   50.79    4.70
  -7   4  -3   59.69    5.00
   7  -4   3   59.09    5.50
  -8   4  -3   37.20    4.80
  -8   4  -3   45.80    5.80
   9   3  -3   57.79    5.90
  -9  -3   3   59.59    7.10
   8   3  -3    3.10    2.20
  -8  -3   3   11.60    3.30
   7   3  -3   29.30    3.90
  -7  -3   3   31.00    4.00
   6   3  -3    4.40    1.70
  -6  -3   3    2.70    1.80
   5   3  -3   44.00    3.60
  -5  -3   3   45.60    3.90
   4   3  -3  179.38    8.00
   4   3  -3  193.38    7.10
  -4  -3   3  184.88    8.30
   3   3  -3    0.90    0.80
   3   3  -3   -0.40    0.50
   3   3  -3    1.40    0.70
  -3  -3   3   -0.80    0.50
   2   3  -3    1.80    0.80
   2   3  -3    0.30    0.40
   2   3  -3   -0.30    0.30
  -2  -3   3   -0.20    0.70
   1   3  -3  499.35   16.70
   1   3  -3  504.95   16.50
   1   3  -3  473.75   16.80
   0   3  -3    1.60    0.40
   0   3  -3    1.70    0.50
   0   3  -3    2.20    0.70
   0   3  -3    1.20    0.60
   0  -3   3    0.00    0.50
  -1   3  -3  565.44   18.70
  -1   3  -3  557.64   18.90
  -1   3  -3  589.84   18.40
  -2   3  -3  446.46   14.60
  -2   3  -3  422.36   14.90
  -3   3  -3  794.62   26.10
  -3   3  -3  774.22   26.10
  -4   3  -3   38.60    3.00
  -4   3  -3   38.70    3.00
  -5   3  -3   65.89    4.30
  -5   3  -3   57.59    4.30
   5  -3   3   62.89    4.50
  -6   3  -3   37.10    3.70
  -6   3  -3   42.20    3.90
   6  -3   3   43.00    4.10
  -7   3  -3    1.00    1.80
  -7   3  -3    0.10    1.50
   7  -3   3    0.10    1.30
  -8   3  -3  148.79    9.40
  -8   3  -3  146.29    8.70
   8  -3   3  152.48    9.10
   9   2  -3    7.80    3.10
  -9  -2   3    8.00    3.70
   8   2  -3   41.80    5.20
  -8  -2   3   47.70    5.30
   7   2  -3    3.10    1.80
  -7  -2   3    4.20    2.10
   6   2  -3    2.30    1.40
  -6  -2   3    1.60    1.50
   5   2  -3   23.30    2.60
  -5  -2   3   21.60    2.80
   3   2  -3  306.47   10.70
   3   2  -3  316.87   11.70
   3   2  -3  323.17   11.10
   2   2  -3   10.00    1.10
   2   2  -3    9.00    1.00
   2   2  -3   11.50    1.20
   1   2  -3   82.19    3.50
   1   2  -3   72.19    3.30
   1   2  -3   74.69    3.20
   1   2  -3   73.79    3.40
   0   2  -3   33.10    2.00
   0   2  -3   34.20    1.70
   0   2  -3   35.00    2.00
  -1   2  -3   22.50    1.40
  -1   2  -3   21.00    1.50
  -1   2  -3   21.50    1.40
  -2   2  -3  307.37   11.00
  -2   2  -3  316.17   10.90
  -3   2  -3 1181.38   38.60
  -3   2  -3 1197.88   38.70
  -4   2  -3   35.70    2.80
  -4   2  -3   37.80    2.90
   4  -2   3   40.80    3.10
  -5   2  -3   43.20    3.60
  -5   2  -3   42.80    3.60
   5  -2   3   48.20    3.90
  -6   2  -3   31.00    3.30
  -6   2  -3   32.60    4.10
   6  -2   3   31.50    3.40
  -7   2  -3    3.50    1.90
  -7   2  -3    3.90    2.00
   7  -2   3    5.20    2.00
  -8   2  -3    7.80    2.80
  -8   2  -3    7.70    2.40
   8  -2   3    7.90    2.50
   9   1  -3    5.90    2.70
  -9  -1   3    3.50    3.30
   8   1  -3    6.30    2.40
  -8  -1   3    4.60    2.70
   7   1  -3   27.30    3.80
  -7  -1   3   38.60    4.30
   6   1  -3  173.28    8.60
  -6  -1   3  166.98    8.90
   5   1  -3  161.68    7.90
  -5  -1   3  171.28    6.80
   4   1  -3  148.69    7.10
  -4  -1   3  169.78    6.40
   3   1  -3   14.70    1.80
  -3  -1   3   16.00    1.30
   2   1  -3  331.07   10.70
   2   1  -3  332.17   11.70
  -2  -1   3  326.57   11.20
   1   1  -3   12.90    1.00
   1   1  -3   11.30    1.10
   1   1  -3   13.10    1.00
   1   1  -3   11.60    1.00
   0   1  -3   -0.30    0.30
   0   1  -3    0.70    0.40
   0   1  -3    0.00    0.20
   0   1  -3    1.20    0.40
   0  -1   3    0.20    0.50
  -1   1  -3   96.49    3.80
  -1   1  -3   92.39    3.80
  -1   1  -3   90.19    3.70
  -2   1  -3  398.46   13.70
  -2   1  -3  398.06   13.60
  -3   1  -3  168.18    7.00
  -3   1  -3  173.58    6.90
   3  -1   3  172.68    7.10
  -4   1  -3    3.70    1.30
  -4   1  -3    2.40    1.00
   4  -1   3    1.60    0.90
  -5   1  -3    0.50    1.20
  -5   1  -3    2.60    1.50
   5  -1   3    0.70    1.20
  -6   1  -3   14.40    2.60
  -6   1  -3   20.80    3.30
   6  -1   3   15.20    2.60
  -7   1  -3    9.60    2.70
  -7   1  -3   10.30    2.40
   7  -1   3   12.80    2.60
  -8   1  -3   13.30    3.40
  -8   1  -3   11.10    2.60
   8  -1   3    9.70    2.50
  -9   1  -3   71.29    6.30
  -9   1  -3   82.49    7.30
   9  -1   3   86.09    6.80
   9   0  -3   62.39    6.70
  -9   0   3   58.49    7.40
   8   0  -3   10.70    2.90
  -8   0   3   11.20    3.60
   7   0  -3   26.30    3.80
  -7   0   3   30.00    4.50
   6   0  -3  132.99    7.20
  -6   0   3  122.89    7.40
   5   0  -3    1.20    1.10
   4   0  -3  529.05   18.70
  -4   0   3  518.65   16.50
   3   0  -3   13.90    1.60
  -3   0   3   15.90    0.90
   2   0  -3  220.78    8.30
  -2   0   3  224.48    7.50
   1   0  -3    8.70    0.50
   1   0  -3    8.50    1.00
   1   0  -3    8.30    0.90
   1   0  -3    8.10    0.60
  -1   0   3    8.10    0.70
   0   0  -3   51.69    2.20
   0   0  -3   52.29    2.50
   0   0  -3   46.70    2.30
   0   0  -3   55.79    2.40
   0   0   3   50.19    2.50
  -1   0  -3    4.50    0.70
  -1   0  -3    3.60    0.60
  -1   0  -3    5.40    0.90
  -2   0  -3 2801.62   82.59
  -2   0  -3 2466.15   82.69
  -3   0  -3   47.50    2.70
  -3   0  -3   46.40    2.90
   3   0   3   48.50    2.90
  -4   0  -3  438.96   15.30
  -4   0  -3  419.16   15.60
   4   0   3  421.36   15.40
  -5   0  -3   82.29    4.60
  -5   0  -3   75.89    4.90
   5   0   3   79.39    4.60
  -6   0  -3  735.63   24.80
  -6   0  -3  673.23   25.20
   6   0   3  672.53   24.70
  -7   0  -3   18.70    3.00
  -7   0  -3   21.60    3.80
   7   0   3   15.00    2.80
  -8   0  -3   69.79    6.20
  -8   0  -3   75.49    5.90
   8   0   3   70.19    5.80
  -9   0  -3  122.79    8.00
  -9   0  -3  126.79    9.40
   9   0   3  111.69    8.00
   8  -1  -3   95.29    7.10
  -8   1   3   90.49    7.60
   7  -1  -3  107.59    7.00
  -7   1   3  101.79    7.30
   6  -1  -3  103.49    6.40
  -6   1   3   95.29    6.50
   5  -1  -3   15.00    2.40
   4  -1  -3  110.49    5.60
   3  -1  -3  270.07   10.30
   2  -1  -3  156.88    6.20
   1  -1  -3  175.58    6.20
   1  -1  -3  169.38    6.50
  -1   1   3  160.48    5.50
   0  -1  -3   23.70    1.30
   0  -1  -3   24.40    1.60
   0  -1  -3   23.70    1.20
  -1  -1  -3   22.50    1.60
  -1  -1  -3   22.40    1.40
   1   1   3   26.40    1.80
  -2  -1  -3 1426.56   44.00
  -2  -1  -3 1361.96   44.60
   2   1   3 1384.86   44.40
  -3  -1  -3 1252.17   42.00
  -3  -1  -3 1329.17   41.60
   3   1   3 1302.17   41.70
  -4  -1  -3  475.35   16.80
  -4  -1  -3  464.65   17.30
   4   1   3  498.65   17.00
  -5  -1  -3    5.80    1.70
  -5  -1  -3    4.00    1.20
   5   1   3    4.60    1.30
  -6  -1  -3   72.09    5.10
  -6  -1  -3   73.19    4.80
   6   1   3   76.09    4.90
  -7  -1  -3  415.46   17.20
  -7  -1  -3  406.36   16.20
   7   1   3  403.36   16.40
  -8  -1  -3   11.30    3.20
  -8  -1  -3   11.90    2.60
   8   1   3   11.80    2.70
  -9  -1  -3  246.68   13.20
  -9  -1  -3  232.98   11.90
   9   1   3  238.68   12.20
   8  -2  -3   53.49    5.90
  -8   2   3   56.19    6.50
   7  -2  -3  118.69    7.50
  -7   2   3  107.69    7.70
   6  -2  -3   62.69    5.10
  -6   2   3   65.49    5.70
   5  -2  -3   11.00    2.30
   4  -2  -3    7.60    1.50
   3  -2  -3   28.90    2.30
   2  -2  -3  336.97   11.90
   2  -2  -3  339.67   12.30
   1  -2  -3  430.56   15.20
   1  -2  -3  459.05   14.80
   0  -2  -3 5250.98  164.08
   0  -2  -3 5497.65  166.48
   0   2   3 5028.20  164.88
  -1  -2  -3  323.27   10.50
  -1  -2  -3  309.17   10.70
  -1  -2  -3  302.37   11.20
   1   2   3  335.37   11.50
  -2  -2  -3  168.58    6.80
  -2  -2  -3  174.38    6.10
   2   2   3  159.48    6.80
  -3  -2  -3  810.22   25.90
  -3  -2  -3  798.92   26.60
   3   2   3  766.62   26.20
   3   2   3  786.72   26.00
  -4  -2  -3    4.10    1.10
  -4  -2  -3    6.70    1.70
  -4  -2  -3    6.90    1.70
   4   2   3    3.80    1.00
   4   2   3    7.80    1.40
  -5  -2  -3  673.53   23.10
  -5  -2  -3  650.43   23.80
   5   2   3  676.93   23.30
  -6  -2  -3  553.64   19.80
  -6  -2  -3  534.15   20.50
   6   2   3  533.05   19.90
  -7  -2  -3    9.90    2.40
  -7  -2  -3    9.80    2.70
   7   2   3    6.00    2.00
  -8  -2  -3   17.70    3.20
  -8  -2  -3   17.60    4.10
   8   2   3   12.40    3.00
  -9  -2  -3   87.09    7.70
  -9  -2  -3   96.69    6.80
   9   2   3   95.99    7.10
   8  -3  -3    4.70    2.20
  -8   3   3    3.00    2.50
   7  -3  -3    4.20    2.10
  -7   3   3   10.10    3.30
   6  -3  -3   26.10    3.50
  -6   3   3   32.70    4.40
   5  -3  -3  160.68    8.00
   4  -3  -3  397.56   14.90
   3  -3  -3   44.90    3.00
   2  -3  -3   74.99    4.10
   2  -3  -3   83.09    3.80
   1  -3  -3  327.27   11.20
   1  -3  -3  329.77   11.80
   0  -3  -3  610.34   20.10
   0  -3  -3  634.74   19.20
   0   3   3  597.24   19.40
   0   3   3  563.24   19.60
  -1  -3  -3   22.60    1.40
  -1  -3  -3   24.00    1.20
  -1  -3  -3   21.30    1.90
   1   3   3   22.80    1.90
  -2  -3  -3  196.08    8.10
  -2  -3  -3  208.78    7.20
   2   3   3  219.58    8.70
  -3  -3  -3  116.59    4.80
  -3  -3  -3  112.19    5.50
   3   3   3  120.59    4.90
   3   3   3  112.39    5.60
  -4  -3  -3 2472.95   78.49
  -4  -3  -3 2405.86   77.39
   4   3   3 2433.16   77.59
   4   3   3 2473.65   77.99
  -5  -3  -3   30.80    3.10
  -5  -3  -3   34.90    2.70
  -5  -3  -3   35.90    3.50
   5   3   3   31.70    2.40
   5   3   3   30.00    2.60
  -6  -3  -3  673.63   23.50
  -6  -3  -3  725.33   24.70
  -6  -3  -3  636.24   24.40
   6   3   3  611.04   23.40
  -7  -3  -3   35.10    3.80
  -7  -3  -3   37.00    4.50
   7   3   3   37.40    3.70
  -8  -3  -3    1.30    2.30
  -8  -3  -3    5.80    3.20
   8   3   3    5.40    2.70
  -9  -3  -3   18.70    3.50
  -9  -3  -3   21.50    4.70
   9   3   3   21.30    3.80
   7  -4  -3   -0.20    1.60
  -7   4   3   -1.00    1.80
   6  -4  -3  140.59    7.90
  -6   4   3  151.08    8.90
   5  -4  -3   97.59    5.80
   4  -4  -3  192.48    8.50
   3  -4  -3   40.10    2.80
   2  -4  -3  680.93   22.50
   1  -4  -3 1851.81   56.79
   1  -4  -3 1703.03   55.79
   0  -4  -3  557.54   17.90
   0  -4  -3  553.04   19.00
   0   4   3  579.54   18.70
  -1  -4  -3 1056.69   35.20
  -1  -4  -3 1137.19   36.40
   1   4   3 1152.58   36.40
  -2  -4  -3 1335.77   43.80
  -2  -4  -3 1392.36   45.20
   2   4   3 1465.05   45.80
  -3  -4  -3  147.09    5.70
  -3  -4  -3  148.09    6.70
   3   4   3  141.59    7.10
   3   4   3  155.98    5.90
  -4  -4  -3  103.59    4.70
  -4  -4  -3   94.99    5.40
   4   4   3  103.29    5.60
   4   4   3  101.69    4.70
  -5  -4  -3   -0.50    0.90
  -5  -4  -3    0.20    1.50
   5   4   3    0.10    0.70
   5   4   3   -0.10    1.10
  -6  -4  -3   16.60    3.40
  -6  -4  -3   12.20    2.10
  -6  -4  -3    8.20    2.30
   6   4   3   10.00    1.70
   6   4   3    8.80    1.90
  -7  -4  -3   20.40    3.60
  -7  -4  -3   15.00    3.50
  -7  -4  -3   16.90    2.70
   7   4   3   15.90    2.80
  -8  -4  -3   61.29    6.30
  -8  -4  -3   54.69    4.80
   8   4   3   60.19    5.20
  -9  -4  -3   53.89    5.10
  -9  -4  -3   55.29    7.00
   9   4   3   57.69    5.90
   7  -5  -3   48.50    5.00
  -7   5   3   59.39    6.30
  -7   5   3   54.69    5.20
   6  -5  -3  140.89    8.20
  -6   5   3  157.28    8.50
  -6   5   3  146.99    9.10
   5  -5  -3   14.50    2.50
   4  -5  -3   34.40    3.00
   3  -5  -3   13.30    1.90
   2  -5  -3  441.66   15.20
   1  -5  -3  395.16   13.20
   1  -5  -3  397.56   14.20
  -1   5   3  401.36   13.00
  -1   5   3  399.66   12.90
   0  -5  -3   71.19    3.80
   0   5   3   69.79    3.50
  -1  -5  -3 1318.27   43.80
   1   5   3 1394.16   44.20
  -2  -5  -3  237.88    9.50
   2   5   3  238.58   10.00
  -3  -5  -3   30.20    2.60
  -3  -5  -3   28.30    1.70
   3   5   3   25.80    2.90
  -4  -5  -3   27.90    2.70
  -4  -5  -3   23.80    1.90
   4   5   3   22.70    2.80
   4   5   3   23.60    1.90
  -5  -5  -3  294.87   11.40
  -5  -5  -3  308.07   12.70
   5   5   3  295.97   12.50
   5   5   3  300.97   11.50
  -6  -5  -3   21.80    2.60
  -6  -5  -3   19.60    3.50
   6   5   3   16.80    2.70
   6   5   3   18.20    2.60
  -7  -5  -3  261.97   11.40
  -7  -5  -3  258.17   12.50
   7   5   3  255.07   11.40
  -8  -5  -3   35.00    5.30
  -8  -5  -3   37.30    5.90
  -8  -5  -3   36.80    4.00
   8   5   3   34.80    4.40
  -9  -5  -3   95.19    8.10
  -9  -5  -3  100.69    7.20
   9   5   3  109.99    7.70
  -6   6   3  131.79    8.70
   1  -6  -3  102.69    5.20
  -1   6   3  100.49    4.30
   0  -6  -3  851.21   28.80
   0   6   3  890.91   28.90
  -1  -6  -3   37.60    2.80
   1   6   3   29.10    2.70
   1   6   3   27.60    2.70
  -2  -6  -3   49.10    3.40
   2   6   3   45.20    3.60
  -3  -6  -3   25.00    2.60
   3   6   3   27.00    3.10
  -4  -6  -3   -1.00    1.00
  -4  -6  -3    2.80    0.80
   4   6   3   -0.60    1.20
   4   6   3   -0.50    1.20
   4   6   3   -0.20    0.60
  -5  -6  -3  198.28    8.00
  -5  -6  -3  188.28    9.30
   5   6   3  204.78   10.00
   5   6   3  193.78    8.10
  -6  -6  -3  110.49    5.80
  -6  -6  -3  113.19    7.20
   6   6   3  114.99    6.90
   6   6   3  110.59    5.90
  -7  -6  -3  280.67   14.50
  -7  -6  -3  343.57   13.60
   7   6   3  330.57   13.40
   7   6   3  356.46   13.90
  -8  -6  -3   -0.20    2.90
  -8  -6  -3    3.40    1.80
   8   6   3    1.60    2.00
  -9  -6  -3    7.90    4.00
  -9  -6  -3    6.70    2.40
   9   6   3    2.70    2.20
  -2   7   3  126.09    4.90
   1  -7  -3  296.17   11.40
  -1   7   3  291.87   10.80
   0  -7  -3 1261.67   41.10
   0   7   3 1263.17   41.40
  -1  -7  -3  107.29    5.20
   1   7   3  101.69    5.70
  -2  -7  -3   29.40    2.90
   2   7   3   20.40    3.20
  -3  -7  -3  141.29    7.00
   3   7   3  143.39    8.00
  -4  -7  -3   33.10    3.30
   4   7   3   41.50    4.40
  -5  -7  -3  116.29    6.70
   5   7   3  106.59    7.30
   5   7   3   85.39    7.00
  -6  -7  -3  191.78   10.20
   6   7   3  191.48   10.20
  -7  -7  -3  380.46   16.40
   7   7   3  345.47   15.40
  -8  -7  -3    6.10    3.00
   8   7   3    9.00    2.30
   8   7   3    8.10    2.20
  -3   8   3    9.50    1.20
  -2   8   3   63.69    3.60
  -1   8   3    4.50    1.40
   0   8   3  175.58    8.20
   1   8   3  440.36   17.10
  -3  -8  -3    6.70    2.00
   3   8   3    2.20    2.30
   3   8   3    8.70    2.80
  -4  -8  -3    0.70    1.50
   4   8   3    0.20    2.00
   4   8   3    2.40    2.10
  -5  -8  -3    8.90    2.60
   5   8   3    8.30    2.90
   5   8   3    9.20    3.20
  -6  -8  -3    0.20    1.70
   6   8   3    3.20    2.10
  -7  -8  -3   13.30    3.40
   7   8   3   17.30    4.00
  -8  -8  -3   54.19    6.60
   8   8   3   52.19    5.50
  -3   9   3    6.60    1.60
  -2   9   3   79.69    4.60
  -1   9   3    1.70    1.30
   0   9   3   89.89    5.70
   1   9   3    5.40    2.10
   2   9   3   17.80    3.50
   3   9   3   10.40    3.30
   3   9   3    5.60    2.90
   4   9   3    7.00    3.10
   4   9   3   -2.80    2.40
   6   9   3   96.19    8.20
  -7  -9  -3   49.60    6.00
   7   9   3   45.30    5.80
  -1  10   3    6.00    2.30
   0  10   3    3.90    2.10
   1  10   3    3.70    2.00
   2  10   3    3.60    2.40
   4  10   3    0.20    2.30
   4  10   3    5.80    3.00
   5  10   3   31.80    5.50
   5  10   3   31.30    5.80
   6  10   3    3.50    3.30
   4  10  -4    2.20    3.10
   3  10  -4   -0.50    2.20
   3  10  -4    3.70    2.60
   2  10  -4   -0.70    2.10
   2  10  -4   -1.50    2.00
   1  10  -4   10.50    3.20
   0  10  -4   47.50    5.10
  -1  10  -4   -0.50    1.70
   6   9  -4    1.60    2.50
  -6  -9   4   -0.20    3.20
   5   9  -4   10.60    3.40
  -5  -9   4   -1.30    2.70
   4   9  -4   16.00    4.50
   4   9  -4    9.90    3.50
   3   9  -4   22.00    3.70
   3   9  -4   22.60    4.20
   2   9  -4    4.60    2.30
   2   9  -4    5.70    2.40
   1   9  -4  102.49    7.20
   1   9  -4  104.89    6.70
   0   9  -4  176.58    9.00
  -1   9  -4   30.20    3.60
  -2   9  -4   11.60    2.40
  -3   9  -4   17.90    2.80
   7   8  -4   49.00    4.90
   7   8  -4   45.10    4.70
   6   8  -4   34.80    4.60
   6   8  -4   36.80    4.00
   5   8  -4   17.30    3.70
   5   8  -4   19.60    3.00
   4   8  -4   30.60    3.20
   4   8  -4   28.30    4.10
   4   8  -4   29.50    3.70
   3   8  -4   32.40    4.20
   3   8  -4   28.30    4.20
   2   8  -4   45.30    4.40
   2   8  -4   61.79    5.10
   1   8  -4    2.40    2.00
   1   8  -4    1.10    1.70
   0   8  -4   67.99    4.90
  -1   8  -4   15.00    2.50
  -2   8  -4    7.20    1.90
  -3   8  -4   14.20    2.30
  -4   8  -4    8.50    2.00
   8   7  -4    0.80    2.00
  -8  -7   4    3.40    2.50
  -8  -7   4    0.10    3.20
   7   7  -4   58.49    4.10
   7   7  -4   67.09    5.80
  -7  -7   4   58.79    5.80
   6   7  -4  160.18    8.90
   6   7  -4  188.48    9.20
  -6  -7   4  166.58    9.30
   5   7  -4  108.59    6.30
   5   7  -4  110.09    6.90
  -5  -7   4   95.39    7.40
   4   7  -4  107.49    6.90
   4   7  -4  111.59    7.00
   4   7  -4  117.29    6.20
   3   7  -4    0.30    1.10
   3   7  -4   -0.70    1.80
   3   7  -4    0.70    1.90
  -3  -7   4   -3.00    1.90
   2   7  -4   66.19    5.10
   2   7  -4   68.49    4.10
   2   7  -4   72.59    5.10
   1   7  -4   99.39    5.00
   1   7  -4  103.29    6.00
   1   7  -4   97.69    6.00
   0   7  -4  198.58    9.10
   0   7  -4  199.78    8.80
   0   7  -4  205.48    8.20
  -1   7  -4  258.67   10.40
  -1   7  -4  252.47   10.00
  -2   7  -4    9.70    1.80
  -2   7  -4    9.70    1.70
  -3   7  -4   27.90    2.90
  -3   7  -4   32.50    2.80
  -4   7  -4    2.80    1.50
  -4   7  -4    4.20    1.40
  -5   7  -4    7.20    2.10
  -5   7  -4   10.30    1.90
   8   6  -4    2.30    2.60
  -8  -6   4    1.20    3.20
  -8  -6   4   -0.50    2.90
   7   6  -4   68.19    5.80
  -7  -6   4   68.39    6.30
   6   6  -4    8.00    2.30
   6   6  -4   14.50    2.60
  -6  -6   4    1.70    2.70
  -6  -6   4   14.10    3.00
   5   6  -4   58.29    4.50
   5   6  -4   56.39    4.40
  -5  -6   4   58.19    4.60
   4   6  -4  220.38   10.10
   4   6  -4  217.68    9.50
   4   6  -4  213.18    9.90
  -4  -6   4  213.28    9.40
   3   6  -4   94.29    5.10
   3   6  -4   93.89    5.80
   3   6  -4   98.39    5.80
  -3  -6   4   94.79    4.90
   2   6  -4  505.25   19.00
   2   6  -4  539.75   18.30
   2   6  -4  515.05   19.30
   1   6  -4  153.08    6.70
   1   6  -4  163.88    7.70
   1   6  -4  159.18    7.40
   0   6  -4  250.17   10.10
   0   6  -4  235.98    9.80
   0   6  -4  244.08    9.40
  -1   6  -4  393.96   14.00
  -1   6  -4  384.76   14.10
  -2   6  -4  122.29    5.70
  -2   6  -4  115.69    5.50
  -3   6  -4   17.10    1.90
  -3   6  -4   17.50    2.30
  -4   6  -4   58.39    4.20
  -4   6  -4   64.19    3.60
  -5   6  -4    9.30    2.10
  -6   6  -4   29.10    3.80
   8   5  -4   85.99    7.30
  -8  -5   4   83.69    7.60
   7   5  -4   22.50    3.80
   6   5  -4  295.57   12.60
   6   5  -4  261.77    9.50
  -6  -5   4  282.87   12.70
   5   5  -4  371.36   15.00
   5   5  -4  372.36   14.30
  -5  -5   4  379.06   15.20
   4   5  -4  341.17   13.70
   4   5  -4  369.76   14.00
  -4  -5   4  358.16   13.90
   3   5  -4   24.80    2.50
   3   5  -4   23.30    2.60
   3   5  -4   27.50    2.80
  -3  -5   4   29.90    2.50
   2   5  -4    7.90    1.50
   2   5  -4   11.00    2.10
   2   5  -4   12.40    2.10
  -2  -5   4    9.90    1.40
   1   5  -4    0.70    1.00
   1   5  -4   -0.10    0.90
   1   5  -4    1.60    0.80
  -1  -5   4    0.10    0.90
   0   5  -4   61.59    3.60
   0   5  -4   65.39    3.90
   0   5  -4   61.39    3.40
  -1   5  -4  279.87   10.40
  -1   5  -4  277.67   10.40
  -2   5  -4  166.58    7.10
  -2   5  -4  174.68    6.90
  -3   5  -4   46.80    2.90
  -3   5  -4   47.20    3.20
  -4   5  -4  315.37   12.40
  -5   5  -4   58.09    4.50
  -6   5  -4    1.60    1.40
  -7   5  -4   16.90    3.30
   9   4  -4   75.39    7.00
  -9  -4   4   77.29    8.00
   8   4  -4    8.50    2.80
  -8  -4   4    6.60    3.10
   7   4  -4    5.20    2.10
  -7  -4   4   11.10    3.00
   6   4  -4   23.40    3.50
  -6  -4   4   26.70    4.00
   5   4  -4  223.38   10.10
   5   4  -4  219.78    8.30
  -5  -4   4  220.08   10.40
   4   4  -4  383.86   14.20
   4   4  -4  387.36   14.80
   4   4  -4  382.56   14.50
  -4  -4   4  395.26   15.00
   3   4  -4  119.49    5.80
   3   4  -4  126.59    6.00
   3   4  -4  124.69    5.90
   2   4  -4  438.56   16.40
   2   4  -4  456.25   16.00
   2   4  -4  476.25   16.40
   1   4  -4  341.17   13.00
   1   4  -4  362.36   12.90
   1   4  -4  356.46   12.60
   0   4  -4   22.40    2.10
   0   4  -4   24.40    1.90
   0   4  -4   19.70    1.20
   0   4  -4   21.40    1.80
  -1   4  -4    2.70    0.60
  -1   4  -4    5.50    1.10
  -1   4  -4    3.10    0.80
  -2   4  -4   10.10    1.20
  -2   4  -4   10.30    1.50
  -2   4  -4   11.90    1.20
  -3   4  -4   36.60    2.70
  -3   4  -4   39.60    2.60
  -4   4  -4  563.14   20.40
  -4   4  -4  590.74   20.40
  -5   4  -4  360.16   14.30
  -5   4  -4  364.86   14.30
  -6   4  -4  176.88    9.00
  -6   4  -4  173.98    8.80
  -7   4  -4    6.10    2.40
  -7   4  -4    4.00    2.10
   9   3  -4   40.50    5.60
  -9  -3   4   36.90    6.50
   8   3  -4   51.89    5.20
  -8  -3   4   42.60    5.20
   7   3  -4   57.39    5.20
  -7  -3   4   58.19    5.40
   6   3  -4  527.55   19.90
  -6  -3   4  495.55   20.00
   5   3  -4  219.58    9.90
  -5  -3   4  226.88   10.30
   4   3  -4   95.19    4.70
   3   3  -4  118.19    5.30
   3   3  -4  121.19    5.70
   3   3  -4  119.79    5.40
   2   3  -4   24.90    2.00
   2   3  -4   30.70    2.20
   2   3  -4   24.10    2.00
   1   3  -4 1892.21   58.69
   1   3  -4 1830.42   58.89
   1   3  -4 1818.22   58.69
   0   3  -4  404.16   14.00
   0   3  -4  401.96   13.30
   0   3  -4  395.56   13.90
   0   3  -4  410.36   14.20
  -1   3  -4 1108.69   35.10
  -1   3  -4 1090.79   35.60
  -1   3  -4 1104.79   35.40
  -2   3  -4  644.04   21.00
  -2   3  -4  629.54   21.30
  -2   3  -4  631.44   20.90
  -3   3  -4   73.59    4.00
  -3   3  -4   76.59    4.00
  -4   3  -4  230.68    9.50
  -4   3  -4  232.48    9.50
  -5   3  -4   60.49    4.50
  -5   3  -4   56.59    4.10
  -6   3  -4    0.60    1.30
  -6   3  -4    4.40    1.90
  -7   3  -4   56.19    5.30
  -7   3  -4   59.19    5.00
  -8   3  -4    4.80    2.50
  -8   3  -4    1.10    2.50
   9   2  -4   19.80    4.10
  -9  -2   4   23.40    5.30
   8   2  -4   -1.90    1.80
  -8  -2   4    0.30    2.40
   7   2  -4  294.97   13.30
  -7  -2   4  270.37   13.60
   6   2  -4  175.18    9.00
  -6  -2   4  168.68    9.10
   5   2  -4    1.30    1.00
   3   2  -4   79.09    3.30
   3   2  -4   73.89    4.10
   2   2  -4 1553.44   48.10
   2   2  -4 1446.46   47.70
   2   2  -4 1499.55   47.80
   1   2  -4  298.27   10.60
   1   2  -4  297.17   10.40
   1   2  -4  284.37   10.60
   1   2  -4  304.27   10.50
   0   2  -4  165.18    6.50
   0   2  -4  181.18    6.70
   0   2  -4  171.28    6.70
   0   2  -4  170.38    6.30
  -1   2  -4 1926.71   62.79
  -1   2  -4 1975.50   62.59
  -1   2  -4 2055.09   62.59
  -2   2  -4  290.17   10.20
  -2   2  -4  274.87   10.20
  -3   2  -4    1.10    0.80
  -3   2  -4    3.00    1.00
  -4   2  -4   28.80    2.80
  -4   2  -4   28.80    2.60
  -5   2  -4  896.41   31.20
  -5   2  -4  911.61   30.90
  -6   2  -4   24.80    3.60
  -6   2  -4   23.60    3.00
   6  -2   4   20.70    3.20
  -7   2  -4  213.38   10.90
  -7   2  -4  236.88   10.80
   7  -2   4  223.08   11.00
  -8   2  -4   15.10    3.80
  -8   2  -4   14.50    3.10
   8  -2   4   15.00    3.30
   9   1  -4   25.60    4.60
  -9  -1   4   30.10    5.50
   8   1  -4    0.90    2.00
  -8  -1   4    1.20    2.10
   7   1  -4    6.60    2.40
  -7  -1   4    7.70    3.00
   6   1  -4  634.14   23.70
   5   1  -4    0.40    1.00
   4   1  -4  228.38    9.80
  -4  -1   4  242.18    8.80
   3   1  -4  843.12   28.80
  -3  -1   4  883.81   28.10
   2   1  -4   59.99    3.20
   2   1  -4   61.69    2.70
   2   1  -4   59.79    2.50
   1   1  -4   27.40    1.90
   1   1  -4   28.20    1.70
   1   1  -4   30.50    1.90
   1   1  -4   29.20    1.80
   0   1  -4 2021.50   62.19
   0   1  -4 1936.01   62.09
   0   1  -4 1943.81   61.99
   0   1  -4 1982.10   62.19
  -1   1  -4  737.43   24.20
  -1   1  -4  774.52   24.50
  -1   1  -4  726.83   24.40
  -2   1  -4   65.59    3.20
  -2   1  -4   63.59    3.30
  -3   1  -4   36.40    2.60
  -3   1  -4   37.80    2.50
  -4   1  -4    1.40    1.00
  -4   1  -4    2.70    1.10
  -5   1  -4  342.47   13.10
  -5   1  -4  336.27   13.50
   5  -1   4  333.37   13.40
  -6   1  -4  635.94   23.90
  -6   1  -4  639.84   23.20
   6  -1   4  656.73   23.70
  -7   1  -4  116.89    7.10
  -7   1  -4  135.19    8.10
   7  -1   4  129.99    7.50
  -8   1  -4    2.10    1.90
  -8   1  -4    3.90    2.60
   8  -1   4    0.90    1.50
  -9   1  -4   47.00    6.60
  -9   1  -4   42.60    5.20
   9  -1   4   33.10    4.90
   9   0  -4    3.40    2.70
  -9   0   4    8.80    4.10
   8   0  -4    0.70    1.90
  -8   0   4    2.40    2.30
   7   0  -4  120.79    7.60
  -7   0   4  123.29    8.20
   6   0  -4  184.28    9.40
   5   0  -4   74.29    5.00
  -5   0   4   72.49    3.40
   4   0  -4   78.19    4.50
  -4   0   4   67.79    3.10
   3   0  -4  119.89    5.80
  -3   0   4  132.49    4.80
   2   0  -4    1.40    0.80
   2   0  -4    0.70    0.50
  -2   0   4    1.90    0.50
   1   0  -4 1167.88   37.60
   1   0  -4 1245.88   37.40
   1   0  -4 1130.49   36.70
   1   0  -4 1158.08   36.70
  -1   0   4 1160.68   37.50
  -1   0   4 1140.89   37.00
   0   0  -4 5627.64  187.18
   0   0  -4 5566.64  187.98
   0   0  -4 6460.25  187.08
   0   0   4 6283.27  190.38
  -1   0  -4  947.91   29.90
  -1   0  -4  914.71   30.20
  -1   0  -4  923.31   29.80
  -2   0  -4 1401.56   45.60
  -2   0  -4 1440.86   45.30
  -4   0  -4  778.52   27.50
  -4   0  -4  825.12   27.00
   4   0   4  805.02   27.30
  -5   0  -4    4.20    1.30
  -5   0  -4    5.70    1.70
   5   0   4    3.40    1.30
  -6   0  -4   31.10    4.00
  -6   0  -4   27.70    3.10
   6   0   4   26.70    3.40
  -7   0  -4  450.95   18.00
  -7   0  -4  430.26   17.00
   7   0   4  407.86   17.20
  -8   0  -4    3.40    2.00
  -8   0  -4    0.90    2.40
   8   0   4    2.50    1.80
  -9   0  -4    1.90    3.00
  -9   0  -4    2.40    2.10
   9   0   4    2.70    2.20
   8  -1  -4    5.50    2.50
  -8   1   4    5.90    3.50
   7  -1  -4    6.40    2.40
  -7   1   4    7.80    3.20
   6  -1  -4    5.50    2.00
   5  -1  -4  826.42   29.00
   4  -1  -4  175.78    8.00
   3  -1  -4   45.60    3.10
   2  -1  -4  383.36   13.60
   2  -1  -4  380.96   13.20
  -2   1   4  352.26   11.90
   1  -1  -4  338.87   11.80
   1  -1  -4  341.27   12.20
  -1   1   4  342.87   11.30
   0  -1  -4 1456.35   46.80
   0  -1  -4 1503.05   46.40
   0  -1  -4 1570.84   46.70
   0  -1  -4 1338.27   47.00
   0   1   4 1512.85   47.20
  -1  -1  -4  650.33   21.70
  -1  -1  -4  654.63   22.30
  -1  -1  -4  693.63   21.70
   1   1   4  665.93   22.30
  -2  -1  -4   99.99    4.70
  -2  -1  -4  107.59    4.30
   2   1   4   93.69    4.60
  -3  -1  -4   40.50    2.90
  -3  -1  -4   45.70    2.60
  -4  -1  -4  608.14   22.00
  -4  -1  -4  633.34   21.40
   4   1   4  631.84   21.70
  -5  -1  -4   50.39    3.50
  -5  -1  -4   53.29    4.20
   5   1   4   48.60    3.60
  -6  -1  -4   85.99    5.80
  -6  -1  -4   85.19    5.20
   6   1   4   81.99    5.30
  -7  -1  -4  432.86   18.20
  -7  -1  -4  463.85   17.60
   7   1   4  430.76   17.60
  -8  -1  -4   -1.10    1.90
  -8  -1  -4   -0.90    1.40
   8   1   4    0.20    1.40
  -9  -1  -4    1.40    3.50
  -9  -1  -4    0.30    2.00
   9   1   4    0.40    1.80
   8  -2  -4    7.10    2.80
  -8   2   4    8.00    3.70
   7  -2  -4   41.90    5.10
  -7   2   4   49.30    5.50
   6  -2  -4   83.49    5.80
   5  -2  -4 1109.69   37.90
   4  -2  -4  509.65   18.60
   3  -2  -4  219.18    8.90
   2  -2  -4 3155.28   97.59
   2  -2  -4 3046.70   97.99
   1  -2  -4  377.76   12.60
   1  -2  -4  364.46   13.10
  -1   2   4  360.76   11.90
   0  -2  -4  569.74   19.90
   0  -2  -4  546.35   18.60
   0  -2  -4  624.74   19.30
   0   2   4  578.24   19.30
   0   2   4  635.64   20.60
  -1  -2  -4    1.50    0.70
  -1  -2  -4    3.90    0.70
  -1  -2  -4    1.70    0.50
   1   2   4    1.10    0.70
   1   2   4    1.10    0.80
  -2  -2  -4   34.90    2.00
  -2  -2  -4   35.20    2.50
   2   2   4   36.30    2.70
  -3  -2  -4  255.67    9.00
  -3  -2  -4  245.08    9.70
   3   2   4  225.68    9.40
  -4  -2  -4  786.92   24.60
  -4  -2  -4  696.83   25.30
   4   2   4  704.63   24.70
  -6  -2  -4   38.10    4.10
  -6  -2  -4   41.30    3.90
  -6  -2  -4   44.00    3.60
   6   2   4   36.50    3.50
  -7  -2  -4   19.90    3.50
  -7  -2  -4   15.40    2.70
   7   2   4   15.70    2.70
  -8  -2  -4   57.89    5.40
  -8  -2  -4   67.99    6.20
   8   2   4   67.69    5.70
  -9  -2  -4    2.90    3.20
  -9  -2  -4    3.20    2.10
   9   2   4    2.20    2.00
   8  -3  -4    0.40    1.60
  -8   3   4   -0.40    2.50
   7  -3  -4   65.09    5.70
  -7   3   4   71.49    6.80
   6  -3  -4   63.89    5.00
   5  -3  -4  368.26   14.80
   4  -3  -4  236.18   10.00
   2  -3  -4  461.75   16.70
   2  -3  -4  462.65   16.00
   1  -3  -4   85.89    3.80
   1  -3  -4   90.19    4.50
  -1   3   4   85.89    3.20
  -1   3   4   87.29    3.30
   0  -3  -4  103.69    4.80
   0  -3  -4  109.89    4.10
   0   3   4  101.19    4.20
  -1  -3  -4  500.35   17.90
  -1  -3  -4  553.04   17.80
  -1  -3  -4  550.34   19.00
   1   3   4  593.34   19.20
  -2  -3  -4  360.76   12.20
  -2  -3  -4  355.26   13.30
   2   3   4  375.16   13.80
  -3  -3  -4   32.50    2.70
  -3  -3  -4   31.80    2.00
   3   3   4   30.50    2.80
  -4  -3  -4   43.30    3.50
  -4  -3  -4   46.90    2.90
   4   3   4   51.49    3.20
   4   3   4   47.80    3.50
  -5  -3  -4    5.60    1.30
  -5  -3  -4    3.40    1.50
   5   3   4    2.00    1.10
   5   3   4    3.00    1.10
  -6  -3  -4   14.50    2.50
  -6  -3  -4   15.90    3.00
   6   3   4   14.80    2.50
  -7  -3  -4    4.90    1.70
   7   3   4    3.30    1.50
  -8  -3  -4  299.97   13.50
  -8  -3  -4  311.47   14.90
   8   3   4  321.67   13.90
  -9  -3  -4   10.60    2.90
  -9  -3  -4   11.10    3.70
   9   3   4   10.30    3.10
   7  -4  -4   70.89    6.30
  -7   4   4   84.89    7.40
   6  -4  -4    0.60    1.40
   5  -4  -4   39.10    3.70
   4  -4  -4  110.19    5.90
   3  -4  -4  330.67   12.40
   2  -4  -4    7.20    1.30
   2  -4  -4    8.90    1.90
   1  -4  -4  694.43   23.50
   1  -4  -4  690.63   22.50
  -1   4   4  690.53   21.90
  -1   4   4  681.53   22.00
   0  -4  -4  192.98    6.70
   0  -4  -4  182.78    7.60
  -1  -4  -4 1259.67   43.70
  -1  -4  -4 1416.66   43.80
  -1  -4  -4 1380.56   45.20
  -1  -4  -4 1458.15   43.70
   1   4   4 1439.16   45.30
  -2  -4  -4  229.98    9.20
  -2  -4  -4  221.08    7.80
   2   4   4  222.58    9.50
  -3  -4  -4  484.15   16.20
  -3  -4  -4  485.55   17.60
   3   4   4  491.25   18.30
  -4  -4  -4   71.89    4.50
  -4  -4  -4   65.19    3.50
   4   4   4   67.69    3.70
   4   4   4   60.29    4.40
  -5  -4  -4    1.20    0.80
  -5  -4  -4    1.80    1.60
   5   4   4    1.10    1.00
   5   4   4   -1.50    1.10
  -6  -4  -4    2.30    1.20
  -6  -4  -4    2.70    1.70
   6   4   4    2.40    1.30
   6   4   4    1.50    1.10
  -7  -4  -4  139.79    8.50
  -7  -4  -4  152.58    7.70
   7   4   4  139.09    7.50
  -8  -4  -4   77.49    7.00
  -8  -4  -4   66.49    5.50
   8   4   4   66.69    5.40
  -9  -4  -4   -1.20    2.40
  -9  -4  -4   -1.30    1.50
   9   4   4    2.00    1.80
   7  -5  -4   17.70    3.60
  -7   5   4   20.80    3.60
  -7   5   4   21.00    4.50
   6  -5  -4    1.00    1.80
   5  -5  -4   70.09    4.90
   4  -5  -4   -0.80    0.90
   3  -5  -4  102.99    5.20
   2  -5  -4   33.50    3.10
   2  -5  -4   34.10    2.40
   1  -5  -4  151.78    6.70
   1  -5  -4  133.99    5.60
  -1   5   4  150.88    5.50
  -1   5   4  158.18    5.70
   0  -5  -4   12.10    0.90
   0  -5  -4   10.90    1.70
   0   5   4   14.90    1.60
  -1  -5  -4   46.00    3.30
   1   5   4   53.19    3.50
  -2  -5  -4  760.52   26.40
  -2  -5  -4  750.72   24.50
   2   5   4  801.62   27.00
  -3  -5  -4   70.79    4.40
  -3  -5  -4   66.99    3.00
   3   5   4   64.69    4.60
  -4  -5  -4   92.09    4.20
  -4  -5  -4   91.39    5.40
   4   5   4   89.79    5.80
  -5  -5  -4    0.00    0.70
  -5  -5  -4   -0.10    1.50
   5   5   4   -0.50    1.40
   5   5   4    1.70    1.10
  -6  -5  -4   30.90    3.00
  -6  -5  -4   32.80    4.30
   6   5   4   32.40    3.00
   6   5   4   29.80    3.20
  -7  -5  -4    8.00    2.60
  -7  -5  -4    8.20    2.00
   7   5   4   10.90    2.40
   7   5   4    8.00    1.80
  -8  -5  -4   59.49    6.70
  -8  -5  -4   70.39    5.30
   8   5   4   69.29    5.30
  -9  -5  -4    8.80    2.90
  -9  -5  -4    3.20    3.80
   9   5   4   11.20    3.10
  -6   6   4    0.90    2.40
  -2   6   4  888.01   27.90
   1  -6  -4  156.18    7.00
  -1   6   4  143.89    6.00
   0  -6  -4  108.39    5.50
   0   6   4  114.09    5.50
   1   6   4    7.40    1.70
  -2  -6  -4   27.50    2.80
   2   6   4   32.60    3.20
  -3  -6  -4  108.59    5.90
   3   6   4   98.29    6.30
  -4  -6  -4    5.80    1.00
  -4  -6  -4    4.30    1.60
   4   6   4    6.50    2.20
  -5  -6  -4  275.67   11.90
  -5  -6  -4  260.97   10.10
   5   6   4  259.57   12.30
   5   6   4  264.87   10.40
  -6  -6  -4   20.40    3.80
  -6  -6  -4   21.60    2.70
   6   6   4   20.20    3.60
   6   6   4   25.40    3.00
  -7  -6  -4   99.89    6.00
  -7  -6  -4   94.29    7.60
   7   6   4   91.29    6.20
   7   6   4   90.79    5.80
  -8  -6  -4   68.79    5.20
  -8  -6  -4   73.19    7.20
   8   6   4   76.59    5.80
  -9  -6  -4    5.90    3.80
  -9  -6  -4    4.80    2.00
   9   6   4    3.20    2.40
  -2   7   4  255.67    9.20
   1  -7  -4    0.10    1.20
  -1   7   4    0.00    0.80
   0  -7  -4   75.59    4.50
   0   7   4   67.69    4.50
  -1  -7  -4    4.20    1.50
   1   7   4   -0.10    1.20
  -2  -7  -4   25.10    3.10
   2   7   4   18.60    3.00
  -3  -7  -4  393.26   15.10
   3   7   4  364.96   15.70
  -4  -7  -4   -0.60    1.50
   4   7   4    3.10    2.20
   4   7   4    0.50    1.90
  -5  -7  -4  198.18   10.00
   5   7   4  212.28   11.10
  -6  -7  -4  122.69    7.80
   6   7   4  125.49    7.90
  -7  -7  -4    4.10    3.40
   7   7   4    4.00    3.00
  -8  -7  -4   -3.20    2.00
   8   7   4   -0.40    1.70
  -3   8   4    8.30    1.20
  -2   8   4   52.09    3.30
  -1   8   4    2.20    1.30
   0   8   4  103.99    6.10
   1   8   4    1.10    1.90
  -2  -8  -4  165.38    7.80
   2   8   4  149.99    8.50
  -3  -8  -4   25.00    3.50
   3   8   4   29.00    4.40
  -4  -8  -4   64.79    5.10
   4   8   4   59.99    5.70
  -5  -8  -4   14.50    3.20
   5   8   4   15.00    3.60
  -6  -8  -4  135.19    8.30
   6   8   4  138.39    9.20
  -7  -8  -4    0.20    2.20
   7   8   4    0.60    2.50
  -8  -8  -4   16.40    4.10
   8   8   4   16.00    3.60
  -3   9   4   31.30    2.70
  -2   9   4    3.20    1.50
  -1   9   4   16.60    2.70
   0   9   4    2.00    1.80
   1   9   4    0.60    1.80
   2   9   4   -1.50    2.20
   3   9   4   65.19    6.60
   4   9   4  146.59   10.30
  -6  -9  -4   83.89    7.00
   6   9   4   92.09    8.10
  -7  -9  -4   -0.80    2.00
   7   9   4    2.00    2.70
  -1  10   4   84.69    6.00
   0  10   4   54.39    5.20
   1  10   4    2.20    2.40
   2  10   4    0.30    2.60
   3  10   4   27.80    5.50
   4  10   4   53.79    7.30
   4  10   4   71.39    6.90
   5  10   4   -0.50    2.40
   5  10   4   -0.30    2.70
   3  10  -5    3.60    2.60
   3  10  -5    5.90    2.60
   2  10  -5    1.20    2.50
   2  10  -5    3.90    2.30
   1  10  -5    9.40    3.30
   0  10  -5   12.80    3.40
   5   9  -5    6.80    2.70
  -5  -9   5   -3.80    2.50
   3   9  -5   24.80    4.50
   3   9  -5   21.50    4.10
   2   9  -5    5.80    2.50
   2   9  -5    4.10    2.50
   1   9  -5    3.80    2.30
   1   9  -5    0.00    2.30
   0   9  -5    6.80    2.70
  -1   9  -5   11.00    2.30
  -2   9  -5   16.90    2.80
   6   8  -5   29.60    4.20
   6   8  -5   39.10    4.70
   5   8  -5   41.10    4.90
   5   8  -5   39.70    4.30
   4   8  -5   -0.20    1.00
   4   8  -5    0.30    1.90
  -4  -8   5   -1.20    2.00
   3   8  -5   29.50    4.10
   3   8  -5   38.70    3.50
   3   8  -5   37.00    4.20
   2   8  -5    2.50    2.30
   2   8  -5    1.80    1.20
   2   8  -5    3.30    1.90
   1   8  -5   94.49    6.40
   1   8  -5   81.09    5.20
   1   8  -5   91.89    6.20
   0   8  -5   11.00    2.50
  -1   8  -5   29.70    3.30
  -2   8  -5   26.70    3.10
  -3   8  -5   33.70    3.30
  -4   8  -5   64.89    4.60
   7   7  -5   -0.40    1.60
  -7  -7   5    1.20    2.20
  -7  -7   5   -0.50    2.40
   6   7  -5   46.00    4.70
   6   7  -5   45.70    4.50
  -6  -7   5   47.60    6.10
   5   7  -5   37.50    4.40
   5   7  -5   42.70    4.10
   4   7  -5   22.20    3.10
   4   7  -5   20.30    3.50
   3   7  -5  307.37   13.20
   3   7  -5  284.27   12.90
   3   7  -5  305.87   12.30
   2   7  -5  482.25   17.70
   2   7  -5  429.56   16.20
   2   7  -5  420.06   17.40
   1   7  -5   11.40    2.70
   1   7  -5   12.70    3.00
   1   7  -5   12.70    2.10
   0   7  -5   13.30    2.40
   0   7  -5   10.50    1.80
   0   7  -5    7.70    2.10
  -1   7  -5   37.60    3.10
  -1   7  -5   39.40    3.30
  -2   7  -5    4.00    1.40
  -2   7  -5    4.40    1.50
  -3   7  -5   29.80    2.90
  -3   7  -5   32.60    3.10
  -4   7  -5   73.19    5.10
  -4   7  -5   74.09    4.70
  -5   7  -5    0.00    1.10
  -5   7  -5    1.20    1.60
   8   6  -5   89.79    7.40
  -8  -6   5   97.79    8.30
   7   6  -5  127.99    8.50
  -7  -6   5  129.19    8.70
   6   6  -5   48.10    4.60
   6   6  -5   41.50    3.60
  -6  -6   5   47.80    4.90
   5   6  -5   27.30    3.70
   5   6  -5   26.60    3.50
  -5  -6   5   26.80    3.60
   4   6  -5  108.19    6.50
   4   6  -5  118.89    6.50
  -4  -6   5  125.69    6.50
   3   6  -5  342.57   13.40
   3   6  -5  347.07   14.00
   3   6  -5  334.07   13.90
  -3  -6   5  347.27   13.00
   2   6  -5   43.70    3.20
   2   6  -5   46.90    3.90
   2   6  -5   39.50    3.90
   1   6  -5   95.29    5.60
   1   6  -5   94.39    5.60
   1   6  -5   92.09    5.00
   0   6  -5   58.19    4.20
   0   6  -5   57.69    4.10
   0   6  -5   62.79    3.80
  -1   6  -5   35.50    3.50
  -1   6  -5   29.00    2.70
  -1   6  -5   33.00    2.80
  -2   6  -5   85.29    4.50
  -2   6  -5   74.79    4.40
  -3   6  -5   16.90    2.40
  -3   6  -5   15.20    2.00
  -4   6  -5   57.59    4.20
  -4   6  -5   61.59    3.80
  -5   6  -5   -0.70    1.10
  -5   6  -5    0.80    1.20
  -6   6  -5   -0.50    1.40
   8   5  -5  122.79    8.70
  -8  -5   5  126.59    9.50
   7   5  -5  164.28    9.50
  -7  -5   5  165.88   10.00
   6   5  -5   24.60    3.50
  -6  -5   5   20.20    3.60
   5   5  -5  486.55   17.90
   5   5  -5  504.75   19.20
  -5  -5   5  504.85   19.30
   4   5  -5  176.28    8.50
   4   5  -5  180.08    8.30
  -4  -5   5  192.08    8.70
   3   5  -5   -0.80    0.90
   3   5  -5    0.80    0.90
   3   5  -5    0.30    1.30
  -3  -5   5   -0.50    1.50
   2   5  -5  265.07   10.40
   2   5  -5  264.27   10.90
   2   5  -5  261.67   10.80
   1   5  -5   39.50    3.20
   1   5  -5   35.20    2.80
   1   5  -5   37.10    3.10
   0   5  -5   64.99    3.90
   0   5  -5   64.29    3.70
   0   5  -5   61.79    4.00
  -1   5  -5    0.50    1.20
  -1   5  -5    2.30    1.10
  -2   5  -5  154.78    7.10
  -2   5  -5  166.18    6.90
  -3   5  -5   67.99    4.30
  -3   5  -5   72.79    3.90
  -4   5  -5    2.50    1.30
  -4   5  -5    0.90    0.90
  -5   5  -5   69.39    4.80
  -6   5  -5   37.40    4.20
  -7   5  -5   16.90    3.30
   8   4  -5    1.90    2.10
  -8  -4   5    2.80    3.00
   7   4  -5   36.00    4.60
  -7  -4   5   34.70    5.10
   6   4  -5    4.80    1.80
  -6  -4   5    0.20    1.90
  -6  -4   5    5.40    2.30
   5   4  -5  651.83   23.80
   5   4  -5  641.84   21.20
  -5  -4   5  658.03   24.10
   4   4  -5  349.47   13.00
   4   4  -5  338.87   13.60
   3   4  -5    6.60    1.50
   3   4  -5    8.20    1.80
   3   4  -5    7.50    1.60
   2   4  -5   25.10    2.50
   2   4  -5   25.10    2.40
   2   4  -5   30.00    2.50
   1   4  -5   26.10    2.20
   1   4  -5   27.20    2.50
   1   4  -5   26.80    2.40
   0   4  -5  105.99    4.40
   0   4  -5  115.49    5.20
   0   4  -5  113.49    5.30
   0   4  -5  116.99    5.50
  -1   4  -5    3.70    1.00
  -1   4  -5    7.60    1.00
  -1   4  -5   15.50    1.90
  -2   4  -5  467.45   15.40
  -2   4  -5  442.66   15.70
  -2   4  -5  440.26   16.00
  -3   4  -5  400.46   13.90
  -3   4  -5  380.36   14.40
  -3   4  -5  386.56   13.80
  -4   4  -5  227.48    9.70
  -4   4  -5  226.08    9.40
  -5   4  -5  145.59    7.50
  -5   4  -5  140.09    7.20
  -6   4  -5    4.40    1.90
  -6   4  -5    6.90    2.30
  -7   4  -5   28.50    4.70
   8   3  -5    1.00    1.90
  -8  -3   5    5.80    3.20
   7   3  -5   94.59    6.80
  -7  -3   5   87.79    7.20
   6   3  -5   36.70    4.30
  -6  -3   5   32.00    4.60
   4   3  -5  119.69    6.30
   4   3  -5  114.59    4.80
   3   3  -5  115.79    5.40
   3   3  -5  117.99    5.40
   3   3  -5  122.59    5.90
   2   3  -5   73.19    3.90
   2   3  -5   64.49    3.70
   2   3  -5   67.49    3.80
   1   3  -5 1262.97   39.90
   1   3  -5 1213.08   40.40
   1   3  -5 1256.67   40.20
   1   3  -5 1232.78   40.30
   0   3  -5 1120.29   37.30
   0   3  -5 1208.28   37.70
   0   3  -5 1149.58   36.80
   0   3  -5 1126.99   37.40
  -1   3  -5   25.90    1.90
  -1   3  -5   24.60    2.00
  -1   3  -5   27.00    2.10
  -2   3  -5   14.10    1.50
  -2   3  -5   14.30    1.60
  -2   3  -5   15.40    1.70
  -3   3  -5  139.59    6.10
  -3   3  -5  129.79    6.10
  -4   3  -5   86.89    4.90
  -4   3  -5   91.49    5.00
  -5   3  -5  104.59    5.90
  -5   3  -5  103.89    6.10
  -6   3  -5    2.00    1.50
  -6   3  -5    1.80    1.80
  -7   3  -5    7.10    2.50
  -7   3  -5   10.90    2.60
  -8   3  -5   37.70    4.60
  -8   3  -5   25.70    4.30
   8   2  -5   63.79    6.30
  -8  -2   5   71.19    7.20
   7   2  -5   15.30    3.20
  -7  -2   5   19.30    4.10
   6   2  -5   98.39    6.50
   5   2  -5  715.03   25.70
   3   2  -5  106.09    4.30
   3   2  -5  103.99    5.30
   2   2  -5   92.49    4.50
   2   2  -5  104.79    4.60
   2   2  -5  107.19    5.00
   1   2  -5  447.26   15.60
   1   2  -5  448.06   15.70
   1   2  -5  475.55   15.90
   1   2  -5  445.26   15.60
   0   2  -5  269.77   10.00
   0   2  -5  265.87    9.80
   0   2  -5  283.27   10.30
   0   2  -5  278.67   10.10
  -1   2  -5  231.48    8.90
  -1   2  -5  234.98    8.80
  -1   2  -5  236.48    8.80
  -2   2  -5  266.27   10.00
  -2   2  -5  274.77   10.00
  -2   2  -5  258.77    9.70
  -3   2  -5  540.45   19.10
  -3   2  -5  561.34   19.10
  -4   2  -5  617.34   21.40
  -4   2  -5  604.54   21.60
  -5   2  -5   70.99    4.70
  -5   2  -5   63.99    4.80
  -6   2  -5    1.30    1.20
  -6   2  -5    0.70    1.40
  -7   2  -5    1.90    1.60
  -7   2  -5    1.50    2.20
  -8   2  -5   71.59    5.80
  -8   2  -5   67.09    6.50
   8   1  -5    4.80    2.40
  -8  -1   5    3.20    2.70
   7   1  -5    1.40    1.60
  -7  -1   5   -0.70    1.70
   6   1  -5  204.48   10.30
   5   1  -5   24.30    3.10
   4   1  -5   78.09    4.80
  -4  -1   5   81.59    3.90
   2   1  -5  266.97    9.20
   2   1  -5  285.67   10.50
   2   1  -5  261.37   10.10
   2   1  -5  258.27    9.40
   1   1  -5  506.75   17.10
   1   1  -5  502.65   16.80
   1   1  -5  495.95   17.10
   1   1  -5  486.25   16.60
   0   1  -5  866.11   28.30
   0   1  -5  861.61   28.50
   0   1  -5  901.11   28.60
   0   1  -5  857.01   28.50
  -1   1  -5 1056.09   34.20
  -1   1  -5 1075.59   34.10
  -1   1  -5 1029.30   34.30
  -2   1  -5   91.99    4.50
  -2   1  -5   91.99    4.20
  -2   1  -5   93.09    4.30
  -3   1  -5  677.03   23.70
  -3   1  -5  711.83   23.50
  -4   1  -5   19.20    2.10
  -4   1  -5   18.80    2.50
  -5   1  -5  278.57   11.30
  -5   1  -5  277.67   11.90
  -6   1  -5  131.29    7.50
  -6   1  -5  128.49    6.90
  -7   1  -5   -0.20    1.40
  -7   1  -5    1.30    2.10
  -8   1  -5   58.09    5.90
  -8   1  -5   60.29    5.20
   8   0  -5   -1.60    1.30
  -8   0   5    2.00    2.70
   7   0  -5   70.89    6.00
  -7   0   5   75.39    6.60
   6   0  -5    8.60    2.40
   5   0  -5   89.39    5.70
   4   0  -5  334.87   12.80
  -4   0   5  303.77   11.00
   3   0  -5 1630.74   53.09
  -3   0   5 1651.43   51.89
   2   0  -5 2068.89   67.29
   2   0  -5 2021.60   67.59
  -2   0   5 2256.07   66.69
   1   0  -5  782.32   25.20
   1   0  -5  754.72   24.50
   1   0  -5  746.73   25.40
  -1   0   5  771.62   25.50
   0   0  -5  101.59    4.30
   0   0  -5  102.69    4.40
   0   0  -5   97.89    4.70
   0   0  -5  104.19    4.50
  -1   0  -5  635.94   20.40
  -1   0  -5  598.94   20.20
  -1   0  -5  594.44   20.70
  -2   0  -5    5.00    1.20
  -2   0  -5    8.10    1.20
  -3   0  -5  246.08   10.00
  -3   0  -5  255.47    9.50
  -4   0  -5  167.58    7.10
  -4   0  -5  157.68    7.50
  -5   0  -5  230.38   10.40
  -5   0  -5  232.88    9.70
  -6   0  -5  275.57   11.70
  -6   0  -5  281.37   12.60
  -7   0  -5   49.50    4.90
  -7   0  -5   50.99    5.30
   7   0   5   48.40    4.60
  -8   0  -5   57.69    6.40
  -8   0  -5   60.39    5.20
   8   0   5   56.69    5.30
  -9   0  -5   52.29    5.30
  -9   0  -5   42.00    6.00
   9   0   5   54.49    5.60
   8  -1  -5   54.29    5.80
  -8   1   5   54.99    7.00
   7  -1  -5  279.47   13.40
   6  -1  -5    4.60    1.90
   5  -1  -5   94.99    5.90
  -5   1   5   87.19    3.60
   4  -1  -5    2.40    1.20
  -4   1   5    1.20    0.50
   3  -1  -5  112.59    5.50
  -3   1   5  102.29    4.00
   2  -1  -5  142.39    6.10
   2  -1  -5  131.79    6.30
  -2   1   5  142.79    5.20
   1  -1  -5  759.52   24.80
   1  -1  -5  760.92   25.30
  -1   1   5  738.53   24.40
   0  -1  -5  123.79    4.80
   0  -1  -5  125.59    4.80
   0  -1  -5  122.29    5.50
   0  -1  -5  130.69    5.20
   0   1   5  118.99    5.50
  -1  -1  -5  276.67   10.60
  -1  -1  -5  277.47    9.90
  -1  -1  -5  281.27    9.90
   1   1   5  275.17   10.60
  -2  -1  -5  212.78    8.00
  -2  -1  -5  222.28    8.80
   2   1   5  211.08    8.60
  -3  -1  -5   60.09    3.30
  -3  -1  -5   58.89    3.70
  -4  -1  -5  375.76   14.40
  -4  -1  -5  366.76   13.50
  -5  -1  -5    1.50    1.10
  -5  -1  -5    3.40    1.50
  -6  -1  -5    7.60    1.90
  -6  -1  -5    8.60    2.60
   6   1   5    9.00    2.00
  -7  -1  -5  123.89    7.90
  -7  -1  -5  123.49    7.00
   7   1   5  115.69    7.20
  -8  -1  -5    0.90    1.60
  -8  -1  -5   -3.40    1.80
   8   1   5   -0.70    1.70
  -9  -1  -5   66.69    6.00
  -9  -1  -5   79.89    7.50
   9   1   5   85.89    6.80
   8  -2  -5   35.70    5.10
  -8   2   5   40.10    6.50
   7  -2  -5   76.69    6.20
   6  -2  -5    1.10    1.40
   5  -2  -5   37.60    4.20
   4  -2  -5  201.48    9.10
   3  -2  -5   74.09    4.30
   2  -2  -5   52.09    3.20
   2  -2  -5   49.50    3.50
  -2   2   5   52.49    2.20
   1  -2  -5  283.97   11.10
   1  -2  -5  289.67   10.50
  -1   2   5  303.77   10.10
   0  -2  -5   56.09    2.50
   0  -2  -5   58.99    3.50
   0  -2  -5   69.99    3.10
   0  -2  -5   61.99    2.40
   0   2   5   63.99    3.60
  -1  -2  -5  529.65   17.00
  -1  -2  -5  494.15   17.00
  -1  -2  -5  495.45   17.90
   1   2   5  515.95   18.10
  -2  -2  -5  205.08    8.60
  -2  -2  -5  209.88    7.70
   2   2   5  207.68    8.80
  -3  -2  -5  415.76   14.40
  -3  -2  -5  429.16   15.40
   3   2   5  402.66   15.30
  -4  -2  -5 1704.13   56.89
  -4  -2  -5 1784.12   55.99
  -5  -2  -5  413.86   14.90
  -5  -2  -5  380.96   15.70
  -6  -2  -5  146.69    8.30
  -6  -2  -5  146.19    7.30
   6   2   5  137.59    7.40
  -7  -2  -5   71.29    5.20
  -7  -2  -5   84.89    6.60
   7   2   5   76.49    5.50
  -8  -2  -5   37.50    5.20
  -8  -2  -5   45.60    4.50
   8   2   5   50.39    4.80
  -9  -2  -5   76.69    6.10
  -9  -2  -5   72.49    7.20
   9   2   5   75.39    6.40
   7  -3  -5   14.50    3.40
   6  -3  -5    9.00    2.40
   5  -3  -5   14.20    2.60
   4  -3  -5   76.49    5.00
   3  -3  -5  167.58    7.50
   2  -3  -5    9.50    1.60
   2  -3  -5    9.20    2.00
  -2   3   5   10.30    0.80
  -2   3   5    7.60    0.60
   1  -3  -5  904.61   31.30
   1  -3  -5  960.20   30.60
  -1   3   5  951.70   30.00
   0  -3  -5  316.17   12.30
   0  -3  -5  349.87   11.50
   0   3   5  338.47   11.70
   0   3   5  323.07   12.10
  -1  -3  -5  122.79    4.80
  -1  -3  -5  118.79    5.80
  -1  -3  -5  114.09    5.00
   1   3   5  135.09    6.10
  -2  -3  -5    3.30    0.70
  -2  -3  -5    3.00    0.90
  -2  -3  -5    3.70    1.20
   2   3   5    3.10    1.20
  -3  -3  -5  596.64   20.80
  -3  -3  -5  577.14   19.50
   3   3   5  576.24   21.00
  -4  -3  -5  138.09    6.00
  -4  -3  -5  134.19    7.00
   4   3   5  144.19    7.00
  -5  -3  -5    0.10    1.00
  -5  -3  -5    0.30    1.20
   5   3   5   -0.40    0.90
  -6  -3  -5  504.45   19.30
  -6  -3  -5  466.65   17.70
   6   3   5  469.95   18.20
  -7  -3  -5   11.70    2.30
  -7  -3  -5    8.80    2.80
   7   3   5   11.10    2.50
  -8  -3  -5    0.00    2.40
  -8  -3  -5   -1.80    1.40
   8   3   5    0.10    1.60
  -9  -3  -5    2.00    1.80
  -9  -3  -5    0.10    2.90
   9   3   5    0.50    1.60
   7  -4  -5    5.20    2.40
  -7   4   5    2.80    2.50
   6  -4  -5   36.40    4.10
   5  -4  -5   29.30    3.30
   4  -4  -5  102.99    5.80
   3  -4  -5  506.25   18.20
   2  -4  -5   48.80    3.10
   2  -4  -5   45.50    3.70
   1  -4  -5 1430.56   45.80
   1  -4  -5 1430.56   46.70
  -1   4   5 1431.76   45.30
   0  -4  -5  737.73   24.70
   0  -4  -5  765.12   23.50
   0   4   5  668.63   24.20
  -1  -4  -5   30.50    1.50
  -1  -4  -5   26.20    1.60
  -1  -4  -5   25.20    1.40
  -1  -4  -5   23.60    2.60
  -1  -4  -5   29.00    1.70
   1   4   5   28.80    2.50
  -2  -4  -5  236.18    9.40
  -2  -4  -5  271.77   10.70
  -2  -4  -5  268.47    9.20
   2   4   5  257.27   10.90
  -3  -4  -5   32.60    3.10
  -3  -4  -5   30.00    2.00
   3   4   5   25.50    2.90
  -4  -4  -5   70.59    4.80
  -4  -4  -5   73.69    3.80
   4   4   5   74.49    5.10
  -5  -4  -5  156.48    6.90
  -5  -4  -5  160.98    8.30
   5   4   5  149.29    7.70
  -6  -4  -5   69.09    4.50
  -6  -4  -5   77.49    5.80
   6   4   5   67.59    4.80
   6   4   5   92.79    5.00
  -7  -4  -5   10.60    3.00
  -7  -4  -5    9.20    2.10
   7   4   5   12.30    2.50
  -8  -4  -5   34.40    4.20
  -8  -4  -5   36.40    5.20
   8   4   5   31.90    4.30
  -9  -4  -5   37.40    6.10
  -9  -4  -5   29.40    4.10
   9   4   5   30.00    4.50
   6  -5  -5   18.30    3.40
   5  -5  -5   99.39    6.30
   4  -5  -5   24.00    2.90
   3  -5  -5   62.79    3.90
   2  -5  -5   11.30    1.60
   2  -5  -5   11.00    2.30
  -2   5   5   12.80    1.00
  -2   5   5   11.20    0.90
   1  -5  -5  730.03   25.70
   1  -5  -5  723.63   24.50
  -1   5   5  786.92   24.80
   0  -5  -5   42.50    3.30
   0  -5  -5   42.00    2.20
  -1  -5  -5    6.20    1.50
  -1  -5  -5    6.40    0.80
   1   5   5    6.60    1.60
  -2  -5  -5   92.59    3.70
  -2  -5  -5   87.79    5.20
   2   5   5   91.59    5.60
  -3  -5  -5    5.40    1.00
  -3  -5  -5    4.40    1.70
   3   5   5    5.60    2.10
   3   5   5    0.50    1.60
  -4  -5  -5    6.20    1.10
  -4  -5  -5    2.20    1.50
   4   5   5    7.80    2.20
  -5  -5  -5  252.47    9.90
  -5  -5  -5  261.47   11.60
   5   5   5  250.27   11.70
  -6  -5  -5   27.70    4.00
  -6  -5  -5   21.20    2.40
   6   5   5   26.20    3.60
  -7  -5  -5   14.80    3.50
  -7  -5  -5   16.00    2.60
   7   5   5   15.60    2.60
   7   5   5   13.20    2.60
  -8  -5  -5   72.89    5.60
  -8  -5  -5   81.09    7.30
   8   5   5   61.79    5.40
  -9  -5  -5   55.59    5.50
  -9  -5  -5   64.29    7.40
   9   5   5   63.59    5.80
   2  -6  -5    5.10    1.90
  -2   6   5    4.90    1.00
   1  -6  -5    4.70    1.70
  -1   6   5    5.00    1.20
  -1  -6  -5   40.20    3.40
   1   6   5   41.00    3.50
  -2  -6  -5   17.60    2.60
   2   6   5   17.20    2.90
  -3  -6  -5  422.26   16.50
   3   6   5  427.36   17.30
  -4  -6  -5  371.66   14.50
   4   6   5  325.77   15.00
  -5  -6  -5    6.10    2.10
  -5  -6  -5    3.60    1.20
   5   6   5    2.90    2.10
  -6  -6  -5   53.69    3.80
  -6  -6  -5   54.29    5.10
   6   6   5   50.79    5.00
  -7  -6  -5   69.89    4.90
  -7  -6  -5   67.19    6.40
   7   6   5   59.59    5.20
   7   6   5   65.29    5.00
  -8  -6  -5   14.30    2.70
  -8  -6  -5   10.80    4.00
   8   6   5   14.20    2.80
  -3   7   5    9.80    1.10
  -2   7   5   35.20    2.60
   1  -7  -5   -1.70    1.10
  -1   7   5   -0.30    0.80
   0  -7  -5    0.30    1.30
   0   7   5   -0.30    1.10
  -1  -7  -5   16.00    2.40
  -2  -7  -5  131.19    7.00
   2   7   5  121.09    7.20
  -3  -7  -5  685.13   24.40
   3   7   5  649.34   25.20
  -4  -7  -5   50.59    4.70
   4   7   5   43.00    4.90
  -5  -7  -5    8.60    2.60
   5   7   5    8.60    2.80
  -6  -7  -5  148.19    9.00
   6   7   5  136.89    8.90
  -7  -7  -5  362.26   16.80
   7   7   5  347.07   15.80
  -8  -7  -5    3.20    2.90
   8   7   5    5.30    2.40
  -3   8   5    0.00    0.80
  -2   8   5   43.30    3.30
  -1   8   5  108.89    6.00
   0   8   5    7.40    2.20
   1   8   5  110.29    7.30
  -2  -8  -5  120.69    6.90
   2   8   5  121.99    9.00
  -3  -8  -5   35.10    4.20
   3   8   5   36.70    5.20
  -4  -8  -5    1.30    1.60
   4   8   5   -1.00    2.00
   4   8   5    0.90    2.00
  -5  -8  -5   61.19    5.50
   5   8   5   68.39    6.60
  -6  -8  -5   13.30    3.20
   6   8   5    8.70    3.60
  -7  -8  -5   68.99    6.90
   7   8   5   54.49    6.30
  -2   9   5   14.30    2.50
  -1   9   5    0.50    1.60
   0   9   5    0.10    1.70
   1   9   5   46.00    5.70
   2   9   5   18.90    3.90
   3   9   5   19.40    4.30
   3   9   5    2.30    2.80
   4   9   5    5.30    3.20
   4   9   5    8.30    3.90
  -5  -9  -5   -0.60    2.20
   5   9   5    1.00    2.60
   5   9   5    0.90    2.70
  -6  -9  -5    4.70    2.60
   6   9   5    0.90    3.00
   0  10   5    0.90    2.10
   1  10   5    1.60    2.50
   2  10   5    1.20    2.70
   3  10   5    7.50    3.70
   4  10   5    1.30    2.70
   4  10   5    9.90    4.10
   5  10   5   -3.00    2.90
   5  10   5    0.20    3.20
   5   9  -6    6.00    2.90
  -5  -9   6   -0.40    2.70
   4   9  -6   13.50    3.70
  -4  -9   6   -2.50    2.90
   3   9  -6   32.60    4.90
   3   9  -6   26.90    4.80
   2   9  -6   10.60    3.00
   2   9  -6   10.60    3.30
   1   9  -6    3.10    2.20
   1   9  -6    2.90    2.20
   0   9  -6   59.59    5.60
  -1   9  -6    7.90    2.20
  -2   9  -6   -1.60    1.50
   6   8  -6    9.70    2.70
   6   8  -6   14.00    3.70
   5   8  -6   31.70    4.20
   5   8  -6   32.60    4.80
   4   8  -6    2.20    1.50
   4   8  -6    0.90    2.00
  -4  -8   6   -2.10    2.20
   3   8  -6   14.90    2.50
   3   8  -6   12.20    3.30
   3   8  -6   14.20    3.00
   2   8  -6    0.50    1.10
   2   8  -6    1.60    1.80
   2   8  -6    0.70    1.80
  -2  -8   6   -2.40    1.70
   1   8  -6   49.90    5.00
   1   8  -6   43.20    4.50
   1   8  -6   43.60    3.80
   0   8  -6   33.00    3.10
   0   8  -6   37.50    4.10
   0   8  -6   33.00    4.00
  -1   8  -6   -0.60    1.00
  -1   8  -6    0.30    1.20
  -2   8  -6    3.40    1.50
  -2   8  -6    1.60    1.50
  -3   8  -6   -0.60    1.40
   7   7  -6   -2.70    1.30
  -7  -7   6    0.80    2.40
   6   7  -6   57.89    4.90
   6   7  -6   58.19    5.30
   5   7  -6  176.68    9.50
   5   7  -6  178.88    9.40
   4   7  -6    4.50    2.10
   4   7  -6    3.50    1.90
  -4  -7   6    0.80    1.80
   3   7  -6    2.40    1.90
   3   7  -6    2.20    1.80
   3   7  -6    3.10    1.50
  -3  -7   6   -2.70    1.90
   2   7  -6   87.39    6.20
   2   7  -6   94.39    5.60
   2   7  -6   91.59    6.40
   1   7  -6   19.30    3.60
   1   7  -6   16.80    2.90
   1   7  -6   12.10    2.30
   0   7  -6    1.40    1.70
   0   7  -6    2.40    1.40
   0   7  -6    1.70    1.70
  -1   7  -6    1.50    1.50
  -1   7  -6    1.00    1.10
  -2   7  -6   16.30    2.40
  -2   7  -6   15.80    2.50
  -3   7  -6    8.70    1.90
  -3   7  -6    7.40    2.00
  -4   7  -6   39.80    3.60
  -4   7  -6   31.90    3.40
  -5   7  -6    0.80    1.40
  -5   7  -6   -0.60    1.50
   7   6  -6   -0.20    1.70
  -7  -6   6    4.30    2.80
  -7  -6   6   -0.40    2.70
   6   6  -6   23.90    3.80
   6   6  -6   26.30    3.10
  -6  -6   6   30.50    4.50
   5   6  -6   73.99    5.60
   5   6  -6   78.39    5.30
  -5  -6   6   73.89    5.60
   4   6  -6    4.30    2.00
   4   6  -6    2.40    1.70
  -4  -6   6    0.70    1.70
  -4  -6   6    5.70    1.80
   3   6  -6   30.90    3.50
   3   6  -6   38.00    3.90
   3   6  -6   33.00    3.40
   2   6  -6  110.79    5.90
   2   6  -6  106.09    6.50
   2   6  -6  104.29    6.20
   1   6  -6    1.00    1.60
   1   6  -6    1.10    1.20
   1   6  -6    0.20    1.50
  -1  -6   6   -2.00    1.60
   0   6  -6   27.40    3.30
   0   6  -6   26.70    2.70
   0   6  -6   26.20    3.30
  -1   6  -6  123.99    6.30
  -1   6  -6  134.79    6.90
  -1   6  -6  133.49    6.50
  -2   6  -6    0.50    1.20
  -2   6  -6    3.60    1.30
  -3   6  -6   10.80    2.00
  -3   6  -6    7.90    2.00
  -4   6  -6    1.50    1.30
  -4   6  -6    0.40    1.20
  -5   6  -6    2.40    1.50
  -5   6  -6    2.60    1.40
  -6   6  -6   11.50    2.20
  -6   6  -6    8.70    2.50
   8   5  -6    3.20    3.00
  -8  -5   6   -0.80    2.80
   7   5  -6   76.79    6.40
  -7  -5   6   58.79    6.00
   6   5  -6   10.60    2.60
  -6  -5   6   10.90    3.00
   5   5  -6    2.10    1.70
   5   5  -6    3.90    1.70
  -5  -5   6    4.60    1.90
  -5  -5   6    1.40    1.90
   4   5  -6   47.40    3.90
   4   5  -6   42.50    3.60
   3   5  -6    8.00    2.00
   3   5  -6    5.60    1.70
   2   5  -6    4.40    1.80
   2   5  -6    3.50    1.40
   2   5  -6    2.70    1.70
  -2  -5   6    0.20    1.90
   1   5  -6  396.66   15.50
   1   5  -6  416.16   15.30
   1   5  -6  409.26   15.10
   0   5  -6  158.28    6.60
   0   5  -6  171.28    7.60
   0   5  -6  180.28    8.00
   0   5  -6  164.38    7.40
  -1   5  -6  889.91   29.80
  -1   5  -6  840.82   29.70
  -1   5  -6  923.51   30.30
  -2   5  -6  359.46   13.30
  -2   5  -6  355.16   13.60
  -3   5  -6  115.59    6.10
  -3   5  -6  120.39    5.80
  -4   5  -6   39.90    3.20
  -4   5  -6   41.00    3.80
  -5   5  -6    1.00    1.60
  -5   5  -6    1.70    1.30
  -6   5  -6   -0.70    1.70
   8   4  -6   11.10    3.10
  -8  -4   6    4.00    3.40
   7   4  -6   52.69    5.40
  -7  -4   6   62.79    6.50
   6   4  -6   26.20    3.80
  -6  -4   6   18.70    3.60
   4   4  -6  335.77   12.50
   4   4  -6  320.47   13.40
   3   4  -6  342.27   13.10
   3   4  -6  350.26   13.20
   3   4  -6  329.37   13.20
   2   4  -6  101.39    5.50
   2   4  -6  103.19    5.30
   2   4  -6   97.39    5.30
   1   4  -6  126.09    6.20
   1   4  -6  121.99    6.00
   1   4  -6  131.09    6.00
   0   4  -6  145.29    6.90
   0   4  -6  149.19    5.90
   0   4  -6  152.38    6.70
   0   4  -6  151.18    6.70
  -1   4  -6  806.72   26.70
  -1   4  -6  794.72   26.90
  -1   4  -6  784.72   25.90
  -2   4  -6  703.33   23.70
  -2   4  -6  684.13   23.20
  -2   4  -6  700.63   24.00
  -3   4  -6  147.19    6.60
  -3   4  -6  149.49    7.10
  -3   4  -6  150.28    6.70
  -4   4  -6   85.29    5.00
  -4   4  -6   76.69    5.00
  -4   4  -6   89.89    4.70
  -5   4  -6   48.60    4.10
  -5   4  -6   51.79    4.40
  -6   4  -6   33.00    4.00
  -6   4  -6   35.80    3.80
  -7   4  -6    4.10    2.30
   8   3  -6   -0.80    1.70
  -8  -3   6   -1.10    2.00
   7   3  -6    0.50    1.60
  -7  -3   6   -1.20    2.20
   6   3  -6    7.90    2.30
   5   3  -6   13.90    2.70
   4   3  -6  716.83   25.30
   4   3  -6  704.93   23.10
   3   3  -6 1242.38   40.80
   3   3  -6 1271.67   41.70
   2   3  -6  207.88    8.60
   2   3  -6  227.78    9.00
   2   3  -6  209.38    8.70
   1   3  -6  217.28    8.50
   1   3  -6  225.48    9.00
   1   3  -6  217.98    8.80
   1   3  -6  226.98    9.10
   0   3  -6  119.29    5.80
   0   3  -6  116.09    5.60
   0   3  -6  124.29    5.20
   0   3  -6  117.89    5.50
  -1   3  -6   99.09    4.60
  -1   3  -6  104.09    4.90
  -1   3  -6  106.59    5.10
  -2   3  -6   30.10    2.40
  -2   3  -6   28.60    2.30
  -2   3  -6   29.00    2.50
  -3   3  -6    2.40    1.00
  -3   3  -6    2.90    1.30
  -3   3  -6    3.30    1.30
  -4   3  -6  155.98    7.30
  -4   3  -6  154.08    7.30
  -5   3  -6   58.59    4.40
  -5   3  -6   61.99    4.60
  -6   3  -6  115.39    7.10
  -6   3  -6  128.89    7.20
  -7   3  -6   12.30    2.80
  -7   3  -6   12.40    3.10
   8   2  -6    9.10    2.90
  -8  -2   6   17.60    4.40
   7   2  -6    9.50    2.80
  -7  -2   6    7.80    3.00
   6   2  -6   65.19    5.40
   5   2  -6   12.20    2.80
   3   2  -6   75.39    4.40
   3   2  -6   65.39    3.50
   3   2  -6   73.49    3.30
   2   2  -6  185.48    7.70
   2   2  -6  181.38    7.70
   2   2  -6  173.08    7.10
   2   2  -6  168.98    7.00
   1   2  -6 1397.46   44.50
   1   2  -6 1369.06   44.60
   1   2  -6 1365.56   44.60
   1   2  -6 1393.56   44.80
   0   2  -6  548.55   19.30
   0   2  -6  566.54   19.10
   0   2  -6  562.74   19.30
  -1   2  -6  658.13   22.90
  -1   2  -6  672.93   22.70
  -1   2  -6  692.13   22.70
  -2   2  -6 1127.89   38.20
  -2   2  -6 1182.58   38.00
  -2   2  -6 1190.68   38.20
  -3   2  -6  654.33   21.90
  -3   2  -6  628.84   22.20
  -3   2  -6  647.64   22.30
  -4   2  -6   82.19    4.80
  -4   2  -6   74.99    4.60
  -5   2  -6  105.29    6.20
  -5   2  -6  105.09    5.90
  -6   2  -6    9.90    2.40
  -6   2  -6   15.10    2.50
  -7   2  -6    0.80    1.40
  -7   2  -6   -1.70    1.80
  -8   2  -6   51.49    5.10
  -8   2  -6   56.19    6.40
   8   1  -6   32.10    4.90
  -8  -1   6   46.40    6.80
   7   1  -6    1.10    1.70
   6   1  -6  778.42   28.70
   5   1  -6  181.08    9.10
   4   1  -6  300.67   12.40
   2   1  -6  829.92   26.80
   2   1  -6  851.61   28.30
   2   1  -6  817.22   27.90
   1   1  -6 3701.73  115.09
   1   1  -6 3913.41  115.79
   1   1  -6 3363.26  115.49
   1   1  -6 3740.93  115.29
   0   1  -6  201.28    7.50
   0   1  -6  192.88    7.70
   0   1  -6  185.58    7.50
   0   1  -6  179.18    7.50
  -1   1  -6    1.20    0.70
  -1   1  -6    1.20    0.80
  -1   1  -6    0.80    0.70
   1  -1   6    0.10    0.70
  -2   1  -6   35.90    2.70
  -2   1  -6   37.10    2.60
  -2   1  -6   34.20    2.50
  -3   1  -6  676.53   23.30
  -3   1  -6  688.93   23.70
  -4   1  -6  487.75   17.40
  -4   1  -6  475.65   17.80
  -5   1  -6   25.60    3.50
  -5   1  -6   27.10    3.10
  -6   1  -6  129.49    6.80
  -6   1  -6  107.29    6.90
  -7   1  -6   52.29    4.60
  -7   1  -6   52.19    5.60
  -8   1  -6   -3.20    1.30
  -8   1  -6   -0.10    2.60
   8   0  -6    3.90    2.30
  -8   0   6    4.30    3.50
   7   0  -6   10.90    3.00
   6   0  -6   80.39    6.00
   5   0  -6 1212.18   41.40
   4   0  -6  188.98    8.80
   3   0  -6   10.70    1.80
  -3   0   6    9.80    1.40
   2   0  -6  155.48    6.90
   2   0  -6  159.38    7.20
  -2   0   6  161.18    7.00
   1   0  -6   93.09    4.90
   1   0  -6   93.29    4.70
   1   0  -6   97.19    4.10
  -1   0   6  109.89    5.20
   0   0  -6   41.50    2.50
   0   0  -6   38.30    2.80
   0   0  -6   46.10    2.60
   0   0  -6   41.90    2.70
  -1   0  -6 1172.68   38.20
  -1   0  -6 1156.08   38.80
  -1   0  -6 1219.88   38.40
  -2   0  -6  510.05   18.50
  -2   0  -6  533.95   18.10
  -2   0  -6  522.45   17.90
  -3   0  -6  438.06   16.10
  -3   0  -6  435.76   15.50
  -4   0  -6  318.97   12.00
  -4   0  -6  300.47   12.40
  -5   0  -6   35.50    3.30
  -5   0  -6   33.00    3.50
  -6   0  -6    1.90    1.40
  -6   0  -6   -1.30    1.80
  -7   0  -6  592.74   22.30
  -8   0  -6   33.40    4.20
  -8   0  -6   25.00    4.80
  -9   0  -6   14.20    4.10
  -9   0  -6   16.70    3.60
   8  -1  -6   19.60    3.80
  -8   1   6   28.10    5.50
   7  -1  -6   13.10    3.30
   6  -1  -6   11.30    2.70
   5  -1  -6  343.27   14.50
   4  -1  -6    3.50    1.60
   3  -1  -6   37.90    3.00
  -3   1   6   34.10    2.10
   2  -1  -6   47.50    3.50
   2  -1  -6   46.20    3.20
  -2   1   6   47.90    2.60
   1  -1  -6  122.89    5.30
   1  -1  -6  116.59    5.70
  -1   1   6  115.39    5.50
   0  -1  -6  915.91   30.20
   0  -1  -6  925.11   30.10
   0  -1  -6  876.31   31.10
   0  -1  -6  994.10   30.80
   0   1   6  981.70   31.50
  -1  -1  -6  644.94   23.60
  -1  -1  -6  704.13   22.90
  -1  -1  -6  754.22   23.20
   1   1   6  660.93   23.80
  -2  -1  -6  598.44   19.80
  -2  -1  -6  577.54   19.80
  -2  -1  -6  569.34   20.50
  -3  -1  -6   25.50    2.70
  -3  -1  -6   23.40    2.30
  -4  -1  -6    3.80    1.70
  -4  -1  -6    3.30    1.20
   4   1   6    0.10    1.10
  -5  -1  -6  194.98    9.20
  -5  -1  -6  185.38    8.30
  -6  -1  -6  160.28    8.80
  -6  -1  -6  160.28    7.90
  -7  -1  -6  133.89    8.60
  -7  -1  -6  118.89    7.10
  -8  -1  -6   46.00    5.80
  -8  -1  -6   47.10    5.20
  -9  -1  -6   39.90    5.00
  -9  -1  -6   32.40    5.70
   7  -2  -6   -0.10    1.80
   6  -2  -6   16.20    3.10
   5  -2  -6  194.48    9.50
  -5   2   6  189.18    6.90
   4  -2  -6  416.56   16.60
  -4   2   6  443.06   14.40
   3  -2  -6  266.67   10.80
  -3   2   6  265.47    9.10
   2  -2  -6  542.55   19.10
   2  -2  -6  543.55   19.70
  -2   2   6  554.14   18.10
   1  -2  -6  559.44   18.80
   1  -2  -6  532.05   19.40
  -1   2   6  552.94   19.20
  -1   2   6  558.44   18.50
   0  -2  -6  568.04   19.70
   0  -2  -6  611.44   19.60
   0  -2  -6  643.34   20.60
   0  -2  -6  613.74   21.30
   0   2   6  629.64   21.40
  -1  -2  -6 1158.08   38.10
  -1  -2  -6 1144.29   36.90
  -1  -2  -6 1145.19   37.10
   1   2   6 1146.29   38.30
  -2  -2  -6 1816.22   55.49
  -2  -2  -6 1651.53   56.39
  -2  -2  -6 1723.23   55.59
   2   2   6 1769.52   56.79
  -3  -2  -6   19.50    2.70
  -3  -2  -6   19.80    2.10
   3   2   6   22.00    2.60
  -4  -2  -6  296.77   12.30
  -4  -2  -6  296.27   11.30
  -5  -2  -6   24.10    2.60
  -5  -2  -6   22.20    3.50
  -6  -2  -6    6.60    2.10
  -6  -2  -6    5.30    1.70
  -7  -2  -6   33.70    3.60
  -7  -2  -6   29.40    4.40
  -8  -2  -6   97.29    7.60
  -8  -2  -6   80.69    6.10
  -9  -2  -6    3.30    3.40
  -9  -2  -6    3.90    2.40
   7  -3  -6   31.40    4.50
   6  -3  -6    9.70    2.50
   5  -3  -6   43.50    4.30
   4  -3  -6  306.07   12.70
   3  -3  -6  668.43   22.60
  -3   3   6  608.14   20.20
   2  -3  -6   45.10    3.50
   2  -3  -6   49.10    3.20
  -2   3   6   45.00    2.30
   1  -3  -6  151.38    6.40
   1  -3  -6  160.08    7.30
  -1   3   6  154.78    6.20
   0  -3  -6  136.29    5.60
   0  -3  -6  127.69    6.30
   0   3   6  142.89    6.50
  -1  -3  -6  589.24   21.20
  -1  -3  -6  599.84   20.00
   1   3   6  613.74   21.50
  -2  -3  -6  186.28    7.20
  -2  -3  -6  189.88    8.40
  -2  -3  -6  175.28    7.20
   2   3   6  178.78    8.40
  -3  -3  -6  260.67    9.70
  -3  -3  -6  256.77   10.90
   3   3   6  256.37   11.20
  -4  -3  -6   10.10    1.70
  -4  -3  -6   11.60    2.50
   4   3   6   16.00    2.80
  -5  -3  -6   47.90    3.40
  -5  -3  -6   46.30    4.30
  -6  -3  -6  226.08   11.20
  -6  -3  -6  233.98   10.00
  -7  -3  -6    9.60    2.30
  -7  -3  -6    9.00    2.70
  -8  -3  -6  172.98    9.10
  -8  -3  -6  178.38   11.00
  -9  -3  -6   -0.50    3.20
  -9  -3  -6    2.40    1.90
   6  -4  -6   -0.10    1.40
   5  -4  -6    2.50    1.50
   4  -4  -6  117.89    6.60
  -3   4   6  322.67   10.40
   2  -4  -6   25.90    2.40
   2  -4  -6   21.20    2.70
   1  -4  -6   52.39    3.10
   1  -4  -6   46.60    3.70
   0  -4  -6   87.89    4.00
   0  -4  -6   82.79    4.90
   0   4   6   89.39    4.80
  -1  -4  -6   25.00    1.80
  -1  -4  -6   24.90    1.40
  -1  -4  -6   24.10    1.40
  -1  -4  -6   21.30    2.70
   1   4   6   24.90    2.80
  -2  -4  -6  116.39    5.30
  -2  -4  -6  121.69    5.10
  -2  -4  -6  131.19    6.70
   2   4   6  126.69    6.80
  -3  -4  -6 1293.87   43.00
  -3  -4  -6 1284.37   41.30
   3   4   6 1268.47   43.50
  -4  -4  -6   83.39    5.40
  -4  -4  -6   77.59    4.10
   4   4   6   78.49    5.50
  -5  -4  -6    8.20    1.50
  -5  -4  -6    7.80    2.40
   5   4   6    6.80    2.10
  -6  -4  -6  148.79    8.50
  -6  -4  -6  129.19    6.70
   6   4   6  130.69    7.00
  -7  -4  -6    0.50    1.20
  -7  -4  -6    0.90    2.30
   7   4   6   -0.20    0.90
  -8  -4  -6   52.19    6.50
  -8  -4  -6   61.99    5.30
  -9  -4  -6   -0.30    3.40
  -9  -4  -6    1.40    1.90
   6  -5  -6   -1.40    1.80
   5  -5  -6    1.50    1.70
   4  -5  -6    3.40    1.60
   3  -5  -6   27.20    2.90
  -3   5   6   32.60    1.60
   2  -5  -6  148.89    7.50
   2  -5  -6  138.39    6.40
   1  -5  -6   98.19    4.60
   1  -5  -6   95.49    5.50
   0  -5  -6    8.50    2.00
   0  -5  -6   11.40    1.40
  -1  -5  -6    5.00    1.60
  -1  -5  -6    4.00    0.90
   1   5   6    6.10    1.80
  -2  -5  -6  142.89    5.70
  -2  -5  -6  149.79    7.40
   2   5   6  143.39    7.70
  -3  -5  -6  322.87   12.60
  -3  -5  -6  352.86   12.10
  -3  -5  -6  369.66   14.20
   3   5   6  331.07   14.40
  -4  -5  -6    4.40    1.10
  -4  -5  -6    4.20    1.70
   4   5   6    5.40    2.10
  -5  -5  -6   75.09    5.40
  -5  -5  -6   76.89    4.30
   5   5   6   78.49    5.80
  -6  -5  -6   95.89    5.40
  -6  -5  -6  104.29    7.00
   6   5   6   97.19    6.30
  -7  -5  -6   24.10    3.10
  -7  -5  -6   26.60    4.50
  -8  -5  -6   63.99    6.60
  -8  -5  -6   71.09    5.60
  -3   6   6   47.90    2.50
   2  -6  -6  170.08    8.70
  -2   6   6  196.98    7.60
   1  -6  -6    0.70    1.30
  -1   6   6    0.40    1.00
  -1  -6  -6  368.06   14.20
   1   6   6  347.37   14.40
  -2  -6  -6  281.97   12.20
   2   6   6  303.07   13.00
  -3  -6  -6  233.68   10.60
   3   6   6  226.18   11.30
  -4  -6  -6    1.40    1.60
   4   6   6    3.10    2.00
   4   6   6    1.80    2.00
  -5  -6  -6   15.20    3.00
   5   6   6   18.60    3.80
  -6  -6  -6    2.80    2.40
  -6  -6  -6    0.70    1.00
   6   6   6   -1.40    1.60
  -7  -6  -6    7.90    2.00
  -7  -6  -6    4.40    3.00
   7   6   6    1.90    2.50
  -8  -6  -6   32.30    3.90
  -8  -6  -6   34.70    5.70
  -3   7   6    2.00    1.00
   2  -7  -6   30.20    3.90
  -2   7   6   32.40    2.80
   1  -7  -6    3.10    1.50
  -1   7   6   -0.90    0.90
  -2  -7  -6   20.80    3.30
   2   7   6   19.40    3.60
  -3  -7  -6   42.40    4.60
   3   7   6   39.50    5.30
  -4  -7  -6   28.80    4.00
   4   7   6   28.80    4.60
  -5  -7  -6   88.29    6.50
   5   7   6   90.49    7.10
  -6  -7  -6   14.10    3.50
   6   7   6   14.00    4.00
  -7  -7  -6   34.60    5.80
   7   7   6   37.60    5.80
  -8  -7  -6    5.70    3.10
   8   7   6   -2.50    2.10
  -3   8   6    1.20    1.10
  -2   8   6   70.29    4.70
  -1  -8  -6    4.50    2.00
   1   8   6   -1.70    1.90
  -3  -8  -6  103.49    6.70
   3   8   6   86.69    6.90
  -4  -8  -6   26.50    4.00
   4   8   6   19.10    4.30
  -5  -8  -6   35.30    4.70
   5   8   6   32.90    5.60
  -6  -8  -6   19.70    4.10
   6   8   6   22.20    4.70
  -7  -8  -6   70.09    7.20
   7   8   6   61.49    6.90
  -2   9   6   12.40    2.60
  -1   9   6    4.60    2.30
   0   9   6    1.90    2.00
   1   9   6    3.80    2.80
   2   9   6    0.80    2.50
   3   9   6   37.90    5.60
  -4  -9  -6   61.49    5.90
   4   9   6   57.49    6.50
  -5  -9  -6   53.49    6.00
   5   9   6   52.49    6.90
  -6  -9  -6   33.70    5.20
   6   9   6   52.29    6.70
   1  10   6    1.00    2.00
   2  10   6    9.40    3.60
   3  10   6    1.10    3.10
   4  10   6    1.20    2.50
   4  10   6   -1.50    3.00
   4   9  -7   20.80    4.10
  -4  -9   7    0.70    2.90
   2   9  -7    2.50    2.10
   2   9  -7   -0.60    1.90
   1   9  -7   46.10    5.40
   1   9  -7   56.49    6.00
   0   9  -7   15.80    3.30
  -1   9  -7   24.60    3.80
   5   8  -7   41.10    5.00
   5   8  -7   43.50    5.20
   4   8  -7    0.50    1.20
   4   8  -7   -1.20    1.50
  -4  -8   7   -1.80    2.60
   3   8  -7   -0.60    0.90
   3   8  -7    1.60    1.80
  -3  -8   7   -0.50    2.10
   2   8  -7   20.70    3.90
   2   8  -7   17.80    3.60
   2   8  -7   18.40    2.80
   1   8  -7   49.90    5.00
   1   8  -7   57.29    5.40
   1   8  -7   49.40    4.10
   0   8  -7    7.00    2.00
   0   8  -7    8.30    2.40
   0   8  -7    9.20    2.70
  -1   8  -7    0.40    1.10
  -1   8  -7    0.50    1.60
  -2   8  -7   11.90    2.30
  -2   8  -7   13.10    2.70
  -3   8  -7   10.10    2.40
  -3   8  -7   13.20    2.70
   6   7  -7   36.60    4.00
   6   7  -7   37.10    5.10
   5   7  -7   30.50    4.20
   5   7  -7   35.80    4.60
   4   7  -7   14.50    3.20
   4   7  -7   15.10    2.80
   3   7  -7   59.89    4.70
   3   7  -7   64.19    5.30
   2   7  -7   60.19    5.00
   2   7  -7   57.49    4.70
   2   7  -7   57.29    5.30
   1   7  -7   -0.90    1.40
   1   7  -7   -0.80    1.40
   1   7  -7    1.50    2.00
  -1  -7   7    0.40    1.80
   0   7  -7   38.40    4.00
   0   7  -7   34.60    3.60
   0   7  -7   35.30    3.60
  -1   7  -7   72.99    5.00
  -1   7  -7   75.59    4.90
  -2   7  -7    4.60    1.80
  -2   7  -7    1.90    1.30
  -3   7  -7    1.20    1.50
  -3   7  -7    1.90    1.60
  -4   7  -7   16.70    2.80
  -4   7  -7   12.10    2.70
   7   6  -7   10.20    3.00
  -7  -6   7    1.10    2.40
  -7  -6   7    7.00    3.20
   6   6  -7   73.19    6.10
   6   6  -7   67.19    4.00
  -6  -6   7   73.79    6.00
   5   6  -7    2.60    1.80
   5   6  -7    4.80    2.20
  -5  -6   7    3.60    2.10
  -5  -6   7    0.90    2.40
   4   6  -7   20.10    3.10
   4   6  -7   20.90    2.90
   3   6  -7   49.70    4.10
   3   6  -7   51.09    4.20
   2   6  -7  110.49    6.30
   2   6  -7  122.49    6.90
   2   6  -7  121.39    7.00
   1   6  -7  266.07   11.90
   1   6  -7  261.77   11.20
   1   6  -7  272.47   11.70
   0   6  -7  475.85   18.30
   0   6  -7  483.55   17.80
   0   6  -7  482.85   18.00
  -1   6  -7   81.39    5.20
  -1   6  -7   80.29    5.10
  -1   6  -7   81.49    5.00
  -2   6  -7   39.90    3.60
  -2   6  -7   35.80    3.40
  -3   6  -7   37.20    3.30
  -3   6  -7   37.70    3.50
  -4   6  -7   29.40    3.60
  -4   6  -7   27.40    3.20
  -5   6  -7   -1.20    1.20
  -5   6  -7    0.10    1.40
   7   5  -7    9.20    2.90
  -7  -5   7   20.40    4.50
   6   5  -7   -0.20    1.40
  -6  -5   7   -0.40    2.40
  -6  -5   7    0.10    1.60
   5   5  -7   15.60    2.90
   5   5  -7   14.50    2.40
   4   5  -7  209.48    9.30
   4   5  -7  201.18    9.80
   3   5  -7   48.30    3.90
   3   5  -7   50.09    4.00
   2   5  -7   47.30    3.80
   2   5  -7   48.50    4.10
   2   5  -7   53.79    4.00
   1   5  -7  234.88   10.10
   1   5  -7  232.98   10.00
   1   5  -7  234.18   10.50
   0   5  -7  299.27   12.40
   0   5  -7  300.67   12.10
   0   5  -7  315.57   12.20
  -1   5  -7   31.10    3.10
  -1   5  -7   27.70    3.10
  -1   5  -7   30.80    3.00
  -2   5  -7   20.20    2.70
  -2   5  -7   22.30    2.70
  -3   5  -7    1.50    1.10
  -3   5  -7   -1.10    1.00
  -4   5  -7   24.80    3.40
  -4   5  -7   24.20    2.90
  -5   5  -7    2.70    1.90
  -5   5  -7    5.40    1.70
  -6   5  -7    2.00    1.90
  -6   5  -7    0.50    1.50
   8   4  -7   11.80    3.40
  -8  -4   7   10.70    3.80
   7   4  -7   15.90    3.60
  -7  -4   7   24.30    4.80
   6   4  -7   26.10    4.10
   5   4  -7   17.40    3.00
   4   4  -7   18.20    2.30
   4   4  -7   22.10    3.00
   3   4  -7   25.60    3.00
   3   4  -7   18.40    2.40
   2   4  -7  227.28    9.90
   2   4  -7  231.18    9.80
   2   4  -7  249.48   10.20
   1   4  -7  353.36   13.70
   1   4  -7  361.66   13.70
   1   4  -7  365.46   13.10
   1   4  -7  362.86   14.00
   0   4  -7    0.90    1.00
   0   4  -7    0.70    1.20
   0   4  -7    0.90    0.90
   0   4  -7   -0.60    1.20
   0  -4   7    0.30    1.50
  -1   4  -7   64.09    3.50
  -1   4  -7   65.69    4.30
  -1   4  -7   69.49    4.10
  -1   4  -7   60.79    4.10
  -2   4  -7    1.30    1.40
  -2   4  -7    2.50    1.20
  -2   4  -7    1.80    1.50
  -3   4  -7    1.00    1.50
  -3   4  -7    2.20    1.20
  -3   4  -7    0.90    1.20
  -4   4  -7   87.79    5.50
  -4   4  -7   89.99    5.10
  -4   4  -7   88.49    5.20
  -5   4  -7   53.19    3.90
  -5   4  -7   53.79    4.40
  -5   4  -7   37.20    4.70
  -6   4  -7   10.60    2.60
  -7   4  -7   10.20    3.00
   8   3  -7    0.50    1.90
  -8  -3   7   -1.30    2.80
   7   3  -7   49.10    5.30
  -7  -3   7   48.50    6.40
   6   3  -7  185.48   10.10
   5   3  -7    7.00    2.00
  -5  -3   7    0.70    1.90
   4   3  -7   14.60    1.30
   4   3  -7   16.80    2.70
   3   3  -7   91.79    5.50
   3   3  -7   95.19    4.90
   2   3  -7   61.59    4.20
   2   3  -7   57.29    3.80
   2   3  -7   60.89    3.90
   1   3  -7    6.20    1.50
   1   3  -7    6.30    1.40
   1   3  -7    6.50    1.60
   1   3  -7    5.20    1.50
   0   3  -7  594.64   20.40
   0   3  -7  590.04   20.70
   0   3  -7  612.14   21.00
   0   3  -7  600.94   21.10
  -1   3  -7   42.10    3.20
  -1   3  -7   47.10    3.00
  -1   3  -7   46.20    3.20
  -2   3  -7    1.80    1.10
  -2   3  -7    2.00    1.00
  -2   3  -7    4.20    1.20
  -3   3  -7   19.40    2.60
  -3   3  -7   20.30    2.30
  -3   3  -7   24.10    2.60
  -4   3  -7   47.30    4.10
  -4   3  -7   54.99    3.70
  -4   3  -7   45.80    3.80
  -5   3  -7  150.78    7.60
  -5   3  -7  131.19    7.40
  -6   3  -7   35.70    3.80
  -6   3  -7   37.10    4.20
  -7   3  -7   38.60    4.20
  -7   3  -7   25.90    4.00
   8   2  -7   13.50    3.70
  -8  -2   7   17.00    5.00
   7   2  -7    3.90    2.40
   6   2  -7   25.90    3.80
   5   2  -7   10.60    2.40
   3   2  -7  422.06   15.80
   3   2  -7  413.96   14.00
   2   2  -7   38.50    3.10
   2   2  -7   40.40    2.70
   2   2  -7   36.80    3.00
   2   2  -7   36.40    2.60
   1   2  -7   64.49    3.90
   1   2  -7   71.79    3.80
   1   2  -7   64.29    4.00
   1   2  -7   69.09    4.00
   0   2  -7  549.45   18.90
   0   2  -7  543.05   18.60
   0   2  -7  513.85   18.80
  -1   2  -7  693.23   23.10
  -1   2  -7  667.73   23.30
  -1   2  -7  675.93   23.10
  -2   2  -7   20.10    2.20
  -2   2  -7   19.20    2.00
  -2   2  -7   20.80    2.20
  -3   2  -7  294.97   11.90
  -3   2  -7  312.07   11.70
  -3   2  -7  299.07   11.90
  -4   2  -7    5.80    1.80
  -4   2  -7    6.90    1.80
  -5   2  -7  117.29    6.40
  -5   2  -7  117.39    6.80
  -6   2  -7   37.80    4.30
  -6   2  -7   37.40    3.70
  -7   2  -7   48.30    5.50
  -7   2  -7   49.99    4.70
  -8   2  -7   10.00    3.40
  -8   2  -7    8.30    2.70
   8   1  -7   28.40    4.90
  -8  -1   7   39.70    6.60
   7   1  -7   85.29    6.80
   6   1  -7   79.49    6.20
   5   1  -7   -0.70    1.40
   4   1  -7  260.57   11.30
   2   1  -7  182.28    7.90
   2   1  -7  171.88    6.50
   2   1  -7  170.88    7.60
   1   1  -7   14.10    2.10
   1   1  -7   14.00    2.00
   1   1  -7   12.00    1.50
   1   1  -7   13.10    1.70
   0   1  -7  334.57   12.50
   0   1  -7  339.67   12.50
   0   1  -7  338.97   12.40
   0   1  -7  328.87   12.10
  -1   1  -7  324.07   12.10
  -1   1  -7  322.27   11.80
  -1   1  -7  312.87   12.10
  -2   1  -7  119.99    5.90
  -2   1  -7  127.29    5.80
  -2   1  -7  127.69    6.20
  -3   1  -7   28.20    2.70
  -3   1  -7   29.50    2.90
  -3   1  -7   25.50    2.60
  -4   1  -7    9.60    1.90
  -4   1  -7   12.40    2.40
  -5   1  -7   52.89    4.00
  -5   1  -7   49.99    4.30
  -6   1  -7   10.70    2.20
  -6   1  -7   11.30    2.70
  -7   1  -7    7.70    3.10
  -7   1  -7    7.50    2.40
  -8   1  -7   22.10    4.40
  -8   1  -7   18.30    3.40
   8   0  -7    5.40    2.90
  -8   0   7   13.10    4.40
   7   0  -7    2.50    2.10
   6   0  -7   57.09    5.20
   5   0  -7   97.79    6.40
   4   0  -7  147.89    7.70
   3   0  -7   23.40    2.60
  -3   0   7   27.00    2.80
   2   0  -7  303.37   11.10
   2   0  -7  302.47   11.40
  -2   0   7  234.18   10.90
   1   0  -7   17.20    2.10
   1   0  -7   16.60    1.50
   1   0  -7   19.50    2.50
   0   0  -7    2.20    1.10
   0   0  -7    2.50    0.90
   0   0  -7    2.10    0.90
   0   0  -7    2.10    0.70
   0   0   7    0.00    0.90
  -1   0  -7   75.89    4.00
  -1   0  -7   76.19    4.40
  -1   0  -7   77.29    4.10
  -2   0  -7   15.20    2.10
  -2   0  -7   13.20    1.90
  -2   0  -7   16.00    2.30
  -3   0  -7  197.18    9.10
  -3   0  -7  212.28    8.60
  -3   0  -7  211.08    8.70
  -4   0  -7   24.80    2.70
  -4   0  -7   32.20    3.60
  -5   0  -7  119.79    6.20
  -5   0  -7  109.69    6.60
  -6   0  -7  372.66   15.90
  -6   0  -7  380.36   15.10
  -7   0  -7  393.36   16.30
  -8   0  -7  142.39    9.50
  -8   0  -7  141.89    8.40
   7  -1  -7   55.79    5.70
   6  -1  -7    1.20    1.70
   5  -1  -7    1.20    1.70
   4  -1  -7  163.08    8.20
   3  -1  -7   10.30    1.90
   3  -1  -7   11.60    2.40
   2  -1  -7  334.87   12.50
   2  -1  -7  321.47   12.90
  -2   1   7  326.27   12.60
   1  -1  -7  252.57    9.70
   1  -1  -7  248.98   10.20
  -1   1   7  240.58   10.10
   0  -1  -7   10.10    1.40
   0  -1  -7   11.10    1.90
   0  -1  -7    8.70    1.50
   0  -1  -7    8.90    1.20
   0   1   7   10.30    2.00
  -1  -1  -7  342.07   12.10
  -1  -1  -7  338.97   12.80
  -1  -1  -7  321.67   11.80
   1   1   7  307.17   12.80
  -2  -1  -7  926.21   32.50
  -2  -1  -7  969.20   31.70
  -2  -1  -7  977.20   31.80
  -3  -1  -7 1025.00   35.90
  -3  -1  -7 1086.99   35.10
  -3  -1  -7 1065.99   35.00
  -4  -1  -7    1.80    1.70
  -4  -1  -7    0.20    1.00
   4   1   7    0.10    1.40
  -5  -1  -7  127.99    6.50
  -5  -1  -7  130.19    7.30
  -6  -1  -7   45.30    4.70
  -6  -1  -7   43.70    3.90
  -7  -1  -7  135.39    7.70
  -7  -1  -7  136.79    9.20
  -8  -1  -7  131.69    8.00
  -8  -1  -7  133.99    9.80
   7  -2  -7   39.10    5.20
   6  -2  -7   14.00    3.00
   5  -2  -7   71.79    5.50
   4  -2  -7   30.20    3.60
   3  -2  -7   30.40    3.20
   3  -2  -7   34.20    3.60
   2  -2  -7  359.96   14.20
   2  -2  -7  365.06   13.60
   1  -2  -7  215.88    8.50
   1  -2  -7  208.88    9.20
  -1   2   7  204.68    8.90
   0  -2  -7 1032.10   32.50
   0  -2  -7 1085.89   33.70
   0  -2  -7  978.00   34.30
   0   2   7 1004.60   34.60
  -1  -2  -7  315.37   11.30
  -1  -2  -7  299.87   12.20
  -1  -2  -7  295.17   11.00
   1   2   7  312.87   12.50
  -2  -2  -7 1004.60   34.90
  -2  -2  -7 1076.09   33.80
  -2  -2  -7 1010.20   33.80
   2   2   7 1016.40   35.10
  -3  -2  -7  212.18    8.80
  -3  -2  -7  230.08   10.10
  -3  -2  -7  221.08    9.00
   3   2   7  221.08    9.90
  -4  -2  -7  273.97   10.80
  -4  -2  -7  276.07   11.90
  -5  -2  -7  146.99    8.10
  -5  -2  -7  155.08    7.20
  -6  -2  -7  148.39    8.50
  -6  -2  -7  141.09    7.30
  -7  -2  -7   11.80    2.50
  -7  -2  -7   10.60    3.50
  -8  -2  -7    0.40    3.20
  -8  -2  -7    1.70    1.80
   7  -3  -7    6.40    2.90
   6  -3  -7   -1.80    1.30
   5  -3  -7   82.09    5.90
   4  -3  -7  219.38   10.20
   3  -3  -7   12.00    2.40
   3  -3  -7   14.00    2.90
   2  -3  -7  108.29    5.60
   2  -3  -7  111.59    6.20
   1  -3  -7    8.30    2.00
   1  -3  -7    8.10    1.50
   0  -3  -7  152.38    7.20
   0  -3  -7  146.79    6.20
   0   3   7  146.09    7.20
  -1  -3  -7  131.79    6.80
  -1  -3  -7  137.29    5.80
  -1  -3  -7  131.19    5.50
   1   3   7  134.39    7.10
  -2  -3  -7   84.39    5.70
  -2  -3  -7   97.29    4.60
  -2  -3  -7   89.89    4.60
   2   3   7   96.89    5.90
  -3  -3  -7    0.70    1.60
  -3  -3  -7    0.50    1.00
  -3  -3  -7    0.30    1.10
   3   3   7   -0.40    1.20
  -4  -3  -7  670.93   24.60
  -4  -3  -7  677.43   23.10
   4   3   7  679.93   24.60
  -6  -3  -7  289.67   13.40
  -6  -3  -7  290.57   11.90
  -7  -3  -7   44.70    4.10
  -7  -3  -7   41.60    5.10
  -8  -3  -7   65.79    6.70
  -8  -3  -7   56.69    5.50
   6  -4  -7    0.40    1.60
   5  -4  -7   86.99    6.40
   4  -4  -7    2.60    1.80
   3  -4  -7   27.30    3.00
   3  -4  -7   36.20    4.60
   2  -4  -7   12.50    2.60
   2  -4  -7   13.00    2.00
   1  -4  -7  493.05   18.50
   1  -4  -7  497.85   17.40
   0  -4  -7  746.93   24.30
   0   4   7  713.13   25.60
  -1  -4  -7 1113.99   35.00
  -1  -4  -7 1084.79   36.50
  -1  -4  -7 1022.70   33.80
   1   4   7 1088.49   36.90
  -2  -4  -7   92.09    5.70
  -2  -4  -7   91.89    4.40
  -2  -4  -7   89.39    4.80
   2   4   7   87.19    5.80
  -3  -4  -7   63.19    3.60
  -3  -4  -7   62.89    4.80
  -3  -4  -7   60.89    3.80
   3   4   7   57.79    5.00
  -4  -4  -7  100.99    5.00
  -4  -4  -7  106.59    6.40
   4   4   7   90.69    6.10
  -5  -4  -7   -0.50    1.50
  -5  -4  -7    3.60    1.20
   5   4   7    0.70    1.40
  -6  -4  -7  207.08    9.20
  -6  -4  -7  210.58   10.90
  -7  -4  -7   14.20    3.50
  -7  -4  -7   17.30    2.80
  -8  -4  -7   10.50    2.60
  -8  -4  -7   13.80    3.80
   5  -5  -7    6.10    2.40
   4  -5  -7    2.00    1.40
  -4   5   7   -0.30    0.60
   3  -5  -7   20.60    2.80
   2  -5  -7   31.40    3.70
   2  -5  -7   29.90    2.80
   1  -5  -7   95.99    5.90
   1  -5  -7   98.79    4.90
   0  -5  -7  122.19    5.20
   0  -5  -7  114.49    6.70
  -1  -5  -7  337.67   13.90
  -1  -5  -7  351.46   12.30
   1   5   7  358.96   14.50
  -2  -5  -7   42.70    2.70
  -2  -5  -7   40.50    3.90
   2   5   7   42.20    4.00
  -3  -5  -7   -0.80    1.30
  -3  -5  -7    1.00    0.70
   3   5   7   -0.40    1.70
  -4  -5  -7    3.30    1.10
  -4  -5  -7    3.20    1.90
   4   5   7    4.50    2.00
  -5  -5  -7    2.00    1.80
  -5  -5  -7   -0.10    0.60
   5   5   7   -0.10    1.50
  -6  -5  -7    0.00    1.00
  -6  -5  -7    1.60    1.80
   6   5   7    1.80    1.90
  -7  -5  -7   52.19    4.30
  -7  -5  -7   56.89    6.50
  -8  -5  -7   81.99    6.00
  -8  -5  -7   98.49    8.20
  -4   6   7    7.90    1.30
  -3   6   7    0.10    0.90
   2  -6  -7    9.10    2.50
  -2   6   7    0.70    1.10
   1  -6  -7   19.00    2.90
   0  -6  -7    0.90    1.20
   0   6   7   -0.30    1.20
  -1  -6  -7    1.00    1.50
   1   6   7   -0.40    1.20
  -2  -6  -7   25.60    3.70
   2   6   7   29.40    4.40
  -3  -6  -7   56.09    5.00
   3   6   7   56.49    5.20
  -4  -6  -7   96.29    6.50
   4   6   7   93.99    6.90
  -5  -6  -7    0.00    1.60
   5   6   7    1.20    1.80
  -6  -6  -7   44.50    5.20
   6   6   7   48.70    5.30
  -7  -6  -7  200.48   11.80
  -7  -6  -7  205.88    9.80
   7   6   7  211.88   10.80
  -8  -6  -7    9.50    2.60
  -8  -6  -7    6.00    4.00
  -4   7   7    2.90    1.10
  -3   7   7   -0.60    1.10
   2  -7  -7    4.80    2.10
  -2   7   7    1.00    1.30
   1  -7  -7    2.80    1.60
  -1   7   7    1.00    1.30
   0  -7  -7    0.30    1.40
   0   7   7    0.60    1.40
  -1  -7  -7    9.20    2.40
   1   7   7    0.50    1.80
  -2  -7  -7   86.89    6.00
   2   7   7   75.69    6.40
  -3  -7  -7    3.40    2.20
   3   7   7   -1.10    2.10
   3   7   7    2.50    2.50
  -4  -7  -7   35.20    4.20
   4   7   7   37.30    4.70
  -5  -7  -7    1.20    2.40
   5   7   7    1.50    2.20
  -6  -7  -7   75.59    7.00
   6   7   7   69.19    6.90
   7   7   7  313.87   15.10
  -3   8   7    1.20    1.40
  -2   8   7    2.50    1.70
   1  -8  -7    0.30    1.80
  -1   8   7   -0.10    1.40
   0  -8  -7    8.60    2.40
   0   8   7   -0.20    1.60
  -1  -8  -7    4.00    2.20
   1   8   7   -2.70    2.00
  -3  -8  -7   91.99    6.40
   3   8   7   93.59    7.40
  -4  -8  -7    1.90    2.20
   4   8   7    1.90    2.30
   4   8   7    1.10    2.40
  -5  -8  -7   19.90    4.00
   5   8   7   19.30    4.60
  -6  -8  -7    1.20    2.90
   6   8   7    1.40    2.90
  -1   9   7   -0.60    1.70
   0   9   7    0.10    2.00
   1   9   7    4.30    2.50
   2   9   7    4.90    2.90
  -3  -9  -7    0.70    2.40
   3   9   7    6.90    3.10
   3   9   7    1.90    3.10
  -4  -9  -7   11.40    3.00
   4   9   7   12.80    4.30
  -5  -9  -7   78.59    7.30
   5   9   7   83.39    8.30
   2   9  -8    9.20    3.30
   2   9  -8    4.70    2.60
   1   9  -8   41.90    5.00
   1   9  -8   44.10    5.80
   4   8  -8   37.90    4.60
   4   8  -8   40.30    4.70
   3   8  -8    4.70    2.30
   3   8  -8    2.10    1.60
  -3  -8   8   -1.90    2.10
   2   8  -8    7.70    2.10
   2   8  -8    6.40    2.60
   2   8  -8    5.90    2.50
  -2  -8   8    1.80    2.10
   1   8  -8   37.60    5.10
   1   8  -8   36.20    4.60
   1   8  -8   29.20    3.60
   0   8  -8   42.20    4.30
   0   8  -8   46.50    5.10
   0   8  -8   49.70    5.10
  -1   8  -8   13.40    2.70
  -1   8  -8   17.60    3.30
  -2   8  -8    1.10    1.30
  -2   8  -8    1.80    2.00
   6   7  -8   22.60    4.30
   6   7  -8   23.60    3.40
   5   7  -8   52.79    5.20
   5   7  -8   55.29    5.40
   4   7  -8   19.10    3.40
   4   7  -8   20.40    3.80
   3   7  -8    3.20    2.10
   3   7  -8    0.40    1.30
  -3  -7   8   -1.50    2.00
   2   7  -8   72.49    5.30
   2   7  -8   83.49    6.40
   2   7  -8   81.09    6.00
   1   7  -8   75.89    5.20
   1   7  -8   78.69    6.10
   1   7  -8   71.49    5.60
   0   7  -8    2.60    1.40
   0   7  -8    4.30    2.20
   0   7  -8    2.20    1.70
  -1   7  -8    0.00    1.70
  -1   7  -8   -0.60    1.80
  -1   7  -8    0.90    1.10
  -2   7  -8   10.20    2.30
  -2   7  -8   16.50    2.80
  -3   7  -8    3.50    1.70
  -3   7  -8   -0.90    1.50
  -4   7  -8   -0.50    2.00
  -4   7  -8   -0.10    1.70
   6   6  -8    1.60    2.10
  -6  -6   8    4.10    2.60
  -6  -6   8    3.50    3.30
   5   6  -8    4.10    2.10
   5   6  -8    4.70    2.20
  -5  -6   8    4.20    2.30
  -5  -6   8   -1.70    2.50
   4   6  -8   11.80    2.50
   4   6  -8    8.00    2.40
   3   6  -8   -0.20    1.10
   3   6  -8    0.60    1.30
  -3  -6   8   -0.30    1.60
   2   6  -8  104.59    6.60
   2   6  -8   99.59    6.60
   2   6  -8  105.89    6.40
   1   6  -8   67.49    4.80
   1   6  -8   64.39    5.10
   1   6  -8   69.09    5.00
   0   6  -8    5.10    2.40
   0   6  -8    6.30    2.20
   0   6  -8    4.60    1.90
  -1   6  -8   18.90    2.70
  -1   6  -8   21.80    3.50
  -1   6  -8   18.50    2.80
  -2   6  -8   25.40    3.30
  -2   6  -8   25.60    3.40
  -3   6  -8   17.00    3.00
  -3   6  -8   16.50    2.90
  -4   6  -8    4.90    2.10
  -4   6  -8    3.40    1.90
  -5   6  -8    7.50    2.30
  -5   6  -8    5.20    2.40
   7   5  -8   11.00    3.50
  -7  -5   8   11.90    3.60
   6   5  -8    4.30    2.20
  -6  -5   8   -1.60    2.40
   5   5  -8    6.20    1.70
   5   5  -8    2.90    2.00
  -5  -5   8   -0.70    2.50
   4   5  -8   20.80    2.80
   4   5  -8   21.90    3.40
   3   5  -8   13.30    2.60
   3   5  -8    8.40    2.20
   2   5  -8    4.90    1.70
   2   5  -8    6.00    1.70
   2   5  -8    5.30    2.10
  -2  -5   8    0.80    2.10
   1   5  -8  195.08    9.00
   1   5  -8  192.48    8.90
   1   5  -8  189.68    9.20
   0   5  -8   64.89    4.90
   0   5  -8   62.69    4.50
   0   5  -8   61.29    4.40
  -1   5  -8  121.39    6.80
  -1   5  -8  117.39    6.50
  -1   5  -8  116.49    6.40
  -2   5  -8  112.49    6.20
  -2   5  -8  103.19    6.10
  -3   5  -8   64.99    4.90
  -3   5  -8   72.99    4.80
  -4   5  -8   61.59    5.20
  -4   5  -8   62.99    4.70
  -5   5  -8    4.70    2.00
  -5   5  -8    9.20    2.30
  -6   5  -8   10.30    2.60
  -6   5  -8   10.20    2.70
   7   4  -8   -1.00    1.70
  -7  -4   8    3.20    2.90
   6   4  -8    1.50    1.90
   5   4  -8   -0.60    1.50
  -5  -4   8    0.30    2.20
   4   4  -8   -0.90    1.00
   4   4  -8    3.10    1.30
  -4  -4   8    0.20    1.90
   3   4  -8   27.20    3.40
   3   4  -8   25.30    2.80
   2   4  -8   40.00    3.50
   2   4  -8   28.00    3.20
   2   4  -8   39.20    3.50
   1   4  -8   14.10    2.10
   1   4  -8   10.50    2.20
   1   4  -8   10.70    2.30
   1   4  -8   10.60    2.10
   0   4  -8  438.36   15.60
   0   4  -8  446.36   16.40
   0   4  -8  444.86   16.50
   0   4  -8  427.06   16.60
  -1   4  -8  124.59    6.20
  -1   4  -8  115.79    5.60
  -1   4  -8  112.79    6.40
  -1   4  -8  116.99    6.20
  -2   4  -8  403.86   14.70
  -2   4  -8  391.46   15.40
  -2   4  -8  410.46   15.30
  -3   4  -8   66.69    4.40
  -3   4  -8   58.99    4.50
  -3   4  -8   68.49    4.50
  -4   4  -8   28.40    3.00
  -4   4  -8   29.30    3.50
  -4   4  -8   20.80    3.60
  -5   4  -8   95.39    6.40
  -5   4  -8  110.79    6.20
  -6   4  -8   31.00    3.60
  -6   4  -8   26.20    3.90
   7   3  -8    7.60    2.70
   6   3  -8    2.30    2.30
   3   3  -8  140.49    7.40
   3   3  -8  151.48    6.60
   2   3  -8  280.27   11.00
   2   3  -8  265.47   11.20
   2   3  -8  280.07   11.40
   2   3  -8  267.17   11.10
   1   3  -8   52.29    3.80
   1   3  -8   52.49    3.60
   1   3  -8   60.79    4.10
   0   3  -8   36.60    3.10
   0   3  -8   37.20    3.10
   0   3  -8   35.20    2.80
   0   3  -8   31.40    3.00
  -1   3  -8  270.87   10.50
  -1   3  -8  257.87   10.80
  -1   3  -8  250.77   10.60
  -1   3  -8  258.57   10.20
  -2   3  -8   25.80    2.80
  -2   3  -8   30.30    3.00
  -2   3  -8   36.70    3.20
  -3   3  -8  112.69    5.90
  -3   3  -8   99.09    5.90
  -3   3  -8  107.69    5.90
  -4   3  -8   20.00    2.80
  -4   3  -8   23.70    3.20
  -4   3  -8   19.90    2.80
  -5   3  -8   -0.90    1.50
  -5   3  -8    2.70    1.70
  -5   3  -8    1.90    1.50
  -6   3  -8    6.20    2.30
  -6   3  -8   10.70    2.50
  -7   3  -8   -1.30    1.50
  -7   3  -8    1.00    1.70
   7   2  -8    4.30    2.70
   6   2  -8   13.30    3.00
   5   2  -8   87.89    6.10
   3   2  -8   72.39    4.80
   3   2  -8   74.39    3.30
   2   2  -8  161.58    7.70
   2   2  -8  155.38    6.90
   2   2  -8  176.48    7.90
   1   2  -8   73.99    4.10
   1   2  -8   71.39    4.40
   1   2  -8   72.99    4.30
   1   2  -8   76.29    4.50
   0   2  -8  202.18    8.70
   0   2  -8  215.98    8.80
   0   2  -8  192.98    8.30
  -1   2  -8   90.69    5.00
  -1   2  -8   89.09    4.90
  -1   2  -8   89.49    4.80
  -2   2  -8   12.50    2.20
  -2   2  -8   13.00    2.10
  -2   2  -8   15.70    2.50
  -3   2  -8   34.20    3.00
  -3   2  -8   27.00    2.90
  -3   2  -8   32.40    3.10
  -4   2  -8    4.90    1.90
  -4   2  -8    5.50    1.70
  -4   2  -8    7.20    1.80
  -5   2  -8    8.40    2.20
  -5   2  -8   11.50    2.20
  -6   2  -8   21.80    3.30
  -6   2  -8   20.10    3.40
  -7   2  -8   47.40    5.70
  -7   2  -8   45.80    4.70
   7   1  -8   -0.30    2.20
   6   1  -8   26.60    4.00
   5   1  -8   65.19    5.30
   4   1  -8   55.09    4.40
   3   1  -8   -0.30    0.90
  -3  -1   8   -1.10    0.90
   2   1  -8   24.90    2.70
   2   1  -8   24.60    1.80
   2   1  -8   21.50    2.70
   1   1  -8    7.90    1.70
   1   1  -8   10.20    1.60
   1   1  -8    8.10    1.60
   1   1  -8    9.80    1.60
   0   1  -8   20.40    2.40
   0   1  -8   25.30    2.40
   0   1  -8   19.30    2.20
   0   1  -8   26.00    2.20
  -1   1  -8    9.80    1.80
  -1   1  -8    8.20    1.60
  -1   1  -8   11.50    1.90
  -2   1  -8   85.39    4.90
  -2   1  -8   82.29    5.00
  -2   1  -8   87.99    4.70
  -3   1  -8   27.20    3.00
  -3   1  -8   31.30    3.20
  -3   1  -8   24.80    2.60
  -4   1  -8  190.98    8.70
  -4   1  -8  187.28    9.20
  -4   1  -8  195.68    8.50
  -5   1  -8   13.20    2.50
  -5   1  -8   15.10    2.50
  -6   1  -8    2.70    2.10
  -6   1  -8    2.70    1.50
  -7   1  -8   15.80    3.50
  -7   1  -8   18.40    3.40
  -8   1  -8    0.40    3.10
  -8   1  -8   -1.00    1.80
   7   0  -8    8.20    2.70
   6   0  -8  111.69    7.50
   5   0  -8   21.40    3.40
   4   0  -8   88.29    5.70
   3   0  -8   74.79    5.20
   3   0  -8   69.39    4.70
   2   0  -8    1.30    1.10
   2   0  -8    2.10    1.10
  -2   0   8    0.60    1.20
   1   0  -8   -0.20    0.60
   1   0  -8    0.90    0.80
   1   0  -8    0.80    1.00
  -1   0   8    0.40    1.20
   0   0  -8   10.50    1.40
   0   0  -8   17.80    2.40
   0   0  -8   13.90    1.70
  -1   0  -8   14.20    2.00
  -1   0  -8   12.70    1.80
  -1   0  -8   14.50    2.30
  -2   0  -8   13.70    2.10
  -2   0  -8   17.80    2.30
  -2   0  -8   12.20    2.50
  -3   0  -8  237.28   10.00
  -3   0  -8  239.68    9.90
  -3   0  -8  245.18   10.70
  -4   0  -8  649.83   22.80
  -4   0  -8  651.83   22.90
  -4   0  -8  637.14   23.70
  -5   0  -8  234.58   10.90
  -5   0  -8  234.38   10.40
  -6   0  -8   32.60    3.60
  -6   0  -8   27.30    4.20
  -7   0  -8   80.19    6.00
  -7   0  -8   86.59    7.20
  -8   0  -8    2.20    2.90
  -8   0  -8    0.10    1.70
   7  -1  -8   13.80    3.40
   6  -1  -8    1.40    1.70
   5  -1  -8   57.79    4.90
   4  -1  -8  186.78    9.40
   3  -1  -8    5.40    1.70
   3  -1  -8    6.30    2.20
   2  -1  -8  111.69    5.80
   2  -1  -8  106.99    6.10
  -2   1   8  118.69    6.20
   1  -1  -8  766.02   25.60
   1  -1  -8  729.33   26.10
  -1   1   8  744.03   26.30
   0  -1  -8  143.79    6.60
   0  -1  -8  139.79    5.90
   0  -1  -8  147.99    7.30
   0  -1  -8  156.88    6.10
   0   1   8  136.59    7.20
  -1  -1  -8   91.29    4.80
  -1  -1  -8   93.19    5.40
  -1  -1  -8   95.89    4.70
  -2  -1  -8  249.88   10.00
  -2  -1  -8  251.17   10.10
  -2  -1  -8  254.07   10.90
  -3  -1  -8  157.38    8.10
  -3  -1  -8  170.68    7.50
  -3  -1  -8  165.28    7.40
  -4  -1  -8  281.07   11.20
  -4  -1  -8  271.67   12.10
  -5  -1  -8    8.90    2.50
  -5  -1  -8   12.10    2.20
  -6  -1  -8    7.00    2.00
  -6  -1  -8    6.60    2.50
  -7  -1  -8   59.49    5.40
  -7  -1  -8   60.39    6.70
  -8  -1  -8   11.30    4.30
  -8  -1  -8   13.20    3.20
   7  -2  -8   45.30    5.70
   6  -2  -8   -0.50    1.60
   5  -2  -8   10.50    2.60
   4  -2  -8   99.19    6.40
   3  -2  -8  248.48   11.40
   3  -2  -8  233.48   10.40
   2  -2  -8  234.38   10.50
   2  -2  -8  243.08   10.00
   1  -2  -8   81.09    4.60
   1  -2  -8   90.79    5.40
  -1   2   8   83.89    5.20
   0  -2  -8  376.66   13.60
   0  -2  -8  357.76   12.30
   0  -2  -8  366.46   14.40
   0   2   8  373.56   14.80
  -1  -2  -8   55.79    3.40
  -1  -2  -8   70.49    4.80
  -1  -2  -8   56.29    3.40
  -1  -2  -8   58.99    3.70
   1   2   8   59.09    4.50
  -2  -2  -8  894.71   31.30
  -2  -2  -8  921.51   30.20
  -2  -2  -8  912.21   30.00
   2   2   8  858.51   31.30
  -3  -2  -8  369.46   13.40
  -3  -2  -8  377.26   13.40
  -3  -2  -8  357.56   14.40
   3   2   8  296.27   14.00
  -4  -2  -8   31.50    3.50
  -4  -2  -8   31.70    3.00
  -5  -2  -8   -0.60    1.00
  -5  -2  -8   -1.20    1.60
   5   2   8    0.20    1.60
  -6  -2  -8   30.30    3.40
  -6  -2  -8   29.00    4.20
  -7  -2  -8  159.78    9.90
  -7  -2  -8  165.68    8.60
  -8  -2  -8   17.70    3.60
  -8  -2  -8   18.10    4.00
   6  -3  -8   23.20    4.00
   5  -3  -8   69.79    5.90
   4  -3  -8   -0.20    1.60
   3  -3  -8  251.77   10.90
   3  -3  -8  242.88   11.60
   2  -3  -8   27.60    3.30
   2  -3  -8   30.10    2.90
   1  -3  -8   41.80    3.10
   1  -3  -8   50.69    4.20
   0  -3  -8   43.40    3.80
   0  -3  -8   42.90    3.10
   0   3   8   43.20    3.80
  -1  -3  -8   31.80    3.40
  -1  -3  -8   29.00    2.20
  -1  -3  -8   29.50    2.50
   1   3   8   35.60    3.50
  -2  -3  -8  735.63   25.20
  -2  -3  -8  729.83   25.20
  -2  -3  -8  743.93   26.80
   2   3   8  779.62   27.30
  -3  -3  -8  361.06   13.50
  -3  -3  -8  348.77   14.70
  -3  -3  -8  351.96   13.30
   3   3   8  368.36   15.10
  -4  -3  -8   59.79    3.80
  -4  -3  -8   57.49    4.70
  -4  -3  -8   54.09    3.80
   4   3   8   53.79    4.70
  -5  -3  -8    2.70    1.80
  -5  -3  -8    2.40    1.50
   5   3   8   -0.60    1.60
  -6  -3  -8   15.90    2.60
  -6  -3  -8    8.40    2.80
  -7  -3  -8  102.09    8.00
  -7  -3  -8   89.19    6.20
  -8  -3  -8    0.30    2.00
  -8  -3  -8    1.80    3.30
   6  -4  -8    5.60    2.40
   5  -4  -8   55.79    5.40
   4  -4  -8  165.78    8.70
   3  -4  -8  157.38    9.00
   3  -4  -8  147.19    7.70
   2  -4  -8  150.28    7.20
   2  -4  -8  142.29    7.80
   1  -4  -8  191.18    8.20
   1  -4  -8  194.38    9.20
   0  -4  -8   50.29    4.20
   0  -4  -8   50.99    3.30
   0   4   8   49.99    4.10
  -1  -4  -8   16.40    3.10
  -1  -4  -8    2.00    0.90
   1   4   8    1.10    1.70
  -2  -4  -8    3.50    1.10
  -2  -4  -8    4.10    2.10
   2   4   8    2.40    1.90
  -3  -4  -8   86.79    5.80
  -3  -4  -8   82.89    4.50
   3   4   8   89.39    6.20
  -4  -4  -8   74.19    4.60
  -4  -4  -8   81.19    5.70
  -4  -4  -8   75.39    4.30
   4   4   8   73.49    5.70
  -5  -4  -8   29.70    3.70
  -5  -4  -8   24.30    2.90
   5   4   8   29.30    3.70
  -6  -4  -8  132.39    6.90
  -6  -4  -8  130.69    8.40
  -7  -4  -8   10.40    2.50
  -7  -4  -8    5.60    3.50
   7   4   8    2.80    2.00
  -8  -4  -8    2.30    1.90
  -8  -4  -8    4.00    3.00
  -5   5   8    1.40    1.20
  -4   5   8    3.40    1.40
   3  -5  -8    6.80    2.60
  -3   5   8    0.20    1.20
   2  -5  -8    1.70    1.90
   2  -5  -8   -0.20    1.40
  -2   5   8   -0.50    1.20
   1  -5  -8    6.40    1.80
   1  -5  -8    7.40    2.20
   0  -5  -8   38.60    2.80
   0  -5  -8   33.80    3.60
  -1  -5  -8   14.30    2.70
  -1  -5  -8   14.60    1.80
   1   5   8   15.70    3.00
  -2  -5  -8   32.20    2.50
  -2  -5  -8   31.50    3.60
   2   5   8   26.30    3.70
  -3  -5  -8   61.59    5.10
  -3  -5  -8   55.89    3.40
   3   5   8   52.59    5.10
  -4  -5  -8   78.99    4.40
  -4  -5  -8   83.39    6.20
   4   5   8   84.39    6.40
  -5  -5  -8    0.40    1.10
  -5  -5  -8   -0.40    1.50
   5   5   8    0.30    1.90
  -6  -5  -8   58.19    4.30
  -6  -5  -8   70.79    6.30
   6   5   8   62.89    5.60
  -7  -5  -8   52.89    4.30
  -7  -5  -8   34.70    5.30
  -8  -5  -8  175.08    9.20
  -4   6   8    3.40    1.40
  -3   6   8   -0.20    1.10
   2  -6  -8   17.00    3.40
   1  -6  -8    0.40    1.20
  -1   6   8    0.30    1.20
   0  -6  -8   -0.10    1.20
   0   6   8   -0.20    1.20
  -1  -6  -8   22.40    3.50
  -2  -6  -8   51.59    4.50
   2   6   8   41.10    4.50
  -3  -6  -8   19.40    3.50
   3   6   8   26.70    4.50
  -4  -6  -8  108.69    7.70
   4   6   8  116.39    8.10
  -5  -6  -8  320.77   15.20
   5   6   8  358.26   16.20
  -6  -6  -8   19.80    3.90
   6   6   8   28.20    4.50
  -7  -6  -8   36.70    5.30
   7   6   8   39.20    5.50
  -3   7   8    4.90    1.80
   2  -7  -8   31.60    4.40
   1  -7  -8   19.70    3.40
   0  -7  -8    7.30    2.40
   0   7   8   -0.80    1.50
  -1  -7  -8    5.30    2.00
   1   7   8   -1.50    1.60
  -2  -7  -8   13.10    3.00
   2   7   8    9.70    3.00
  -3  -7  -8   41.80    5.00
   3   7   8   44.20    5.30
  -4  -7  -8   94.69    6.90
   4   7   8   87.49    7.20
  -5  -7  -8  172.08   10.30
   5   7   8  194.98   11.60
  -6  -7  -8    7.40    3.00
   6   7   8    7.40    3.60
  -7  -7  -8   13.00    4.60
   7   7   8    4.10    3.90
   1  -8  -8   24.60    4.10
  -1  -8  -8   10.00    2.70
   1   8   8   -1.50    2.30
  -2  -8  -8   28.50    4.30
   2   8   8    4.70    3.20
  -3  -8  -8    7.60    3.10
   3   8   8    8.70    3.60
   3   8   8    2.00    3.00
  -4  -8  -8   22.50    4.00
   4   8   8   16.60    4.10
  -5  -8  -8    3.30    2.60
   5   8   8    1.70    3.10
  -6  -8  -8   23.70    4.80
   6   8   8   30.00    5.90
   0   9   8   -0.70    2.10
   1   9   8    4.30    3.00
  -2  -9  -8    1.60    2.70
   2   9   8   -0.40    2.30
  -3  -9  -8   15.10    3.70
   3   9   8   17.30    4.70
   3   9   8    4.60    3.50
  -4  -9  -8   27.50    4.70
   4   9   8   32.10    6.00
   3   8  -9    5.70    3.00
   3   8  -9    5.80    2.20
  -3  -8   9    1.20    2.70
   2   8  -9   18.90    4.10
   2   8  -9   11.40    2.60
   1   8  -9   11.90    3.30
   1   8  -9    8.00    2.40
   1   8  -9   10.50    3.50
   0   8  -9   15.80    3.50
   0   8  -9    8.40    2.60
   0   8  -9   12.80    3.40
  -1   8  -9   11.20    2.60
  -1   8  -9   18.50    3.30
   5   7  -9   11.90    3.20
   5   7  -9   12.10    3.40
   4   7  -9   60.99    5.60
   4   7  -9   58.99    5.60
   3   7  -9   57.59    5.40
   3   7  -9   58.69    5.40
   2   7  -9   47.90    4.40
   2   7  -9   50.59    5.30
   1   7  -9   67.29    5.40
   1   7  -9   66.29    5.50
   1   7  -9   70.59    6.20
   0   7  -9    5.10    2.10
   0   7  -9    6.30    2.00
   0   7  -9    5.00    2.40
  -1   7  -9    1.60    1.40
  -1   7  -9    1.50    2.10
  -1   7  -9    2.10    1.70
  -2   7  -9    0.40    1.80
  -2   7  -9   -0.80    1.20
  -3   7  -9   26.80    4.00
  -3   7  -9   30.70    4.20
   5   6  -9   15.10    3.40
   5   6  -9   18.40    3.10
   4   6  -9   14.50    3.00
   4   6  -9   19.20    3.40
  -4  -6   9    5.70    3.40
   3   6  -9   32.50    3.90
   3   6  -9   29.30    3.90
   2   6  -9   57.69    5.10
   2   6  -9   61.29    5.10
   1   6  -9   60.79    5.50
   1   6  -9   67.19    5.00
   1   6  -9   68.79    5.50
   0   6  -9   19.90    3.00
   0   6  -9   24.40    3.60
   0   6  -9   20.70    3.10
  -1   6  -9    2.20    1.60
  -1   6  -9    2.70    2.00
  -1   6  -9    2.70    1.70
  -2   6  -9   21.00    4.00
  -2   6  -9   17.80    2.90
  -2   6  -9   21.60    3.20
  -3   6  -9    3.80    2.20
  -3   6  -9    1.60    1.90
  -4   6  -9   28.40    3.90
  -4   6  -9   21.90    3.50
   6   5  -9   14.10    3.60
  -6  -5   9   -0.30    2.50
   5   5  -9    7.00    2.40
  -5  -5   9    1.00    2.30
   4   5  -9   21.70    3.50
   4   5  -9   16.60    2.80
   3   5  -9   16.60    2.90
   3   5  -9   14.20    2.70
   2   5  -9    3.40    1.90
   2   5  -9    4.60    1.70
  -2  -5   9   -0.20    2.20
   1   5  -9  163.78    8.00
   1   5  -9  154.88    8.10
   1   5  -9  148.39    8.00
   0   5  -9   39.20    3.90
   0   5  -9   45.70    4.10
   0   5  -9   44.00    4.10
  -1   5  -9   46.50    4.10
  -1   5  -9   51.49    4.60
  -1   5  -9   54.69    4.50
  -2   5  -9   37.20    3.90
  -2   5  -9   38.00    3.80
  -2   5  -9   36.10    3.80
  -3   5  -9   25.00    3.50
  -3   5  -9   19.30    3.10
  -4   5  -9    7.30    2.40
  -4   5  -9    5.90    2.00
  -5   5  -9   25.60    3.70
  -5   5  -9   26.80    3.90
   6   4  -9    1.30    1.90
   5   4  -9   35.70    4.60
   4   4  -9    0.10    1.30
   4   4  -9    0.20    1.40
  -4  -4   9   -1.30    2.20
   3   4  -9   70.19    4.70
   3   4  -9   66.89    5.10
   2   4  -9   28.80    3.60
   2   4  -9   28.00    3.20
   1   4  -9    3.30    1.50
   1   4  -9    4.80    1.50
   1   4  -9    5.60    1.70
   1   4  -9    4.90    2.00
   0   4  -9   -1.80    1.10
   0   4  -9    1.10    1.50
   0   4  -9    0.00    1.50
   0   4  -9   -0.10    1.00
   0  -4   9   -0.80    1.80
  -1   4  -9   32.30    3.80
  -1   4  -9   33.80    3.60
  -1   4  -9   31.70    3.60
  -2   4  -9  326.67   12.60
  -2   4  -9  336.37   13.60
  -2   4  -9  324.27   13.10
  -3   4  -9   14.60    2.80
  -3   4  -9   12.90    2.60
  -4   4  -9   16.80    2.90
  -4   4  -9   16.40    2.90
  -5   4  -9   55.19    4.50
  -5   4  -9   56.29    5.00
  -6   4  -9   32.20    4.60
  -6   4  -9   37.60    4.30
   7   3  -9   45.20    5.70
   6   3  -9   27.40    4.30
   5   3  -9    0.30    1.50
   4   3  -9   30.50    3.80
   3   3  -9   12.00    2.50
   3   3  -9   11.90    2.10
   2   3  -9   88.19    5.60
   2   3  -9   89.19    5.40
   2   3  -9   98.69    5.30
   1   3  -9   71.19    4.70
   1   3  -9   71.69    4.70
   1   3  -9   70.89    4.50
   1   3  -9   66.09    4.30
   0   3  -9    2.50    1.40
   0   3  -9    5.40    1.80
   0   3  -9    5.90    1.70
   0   3  -9    4.80    1.70
   0  -3   9   -2.00    1.60
  -1   3  -9   76.09    4.60
  -1   3  -9   70.19    4.50
  -1   3  -9   68.89    4.90
  -1   3  -9   67.99    4.70
  -2   3  -9   15.10    2.40
  -2   3  -9   11.60    2.40
  -2   3  -9   15.00    2.40
  -3   3  -9   12.40    2.40
  -3   3  -9   15.40    2.70
  -3   3  -9    7.30    2.10
  -4   3  -9   20.00    3.00
  -4   3  -9   20.70    2.70
  -4   3  -9   13.80    2.60
  -5   3  -9   11.80    2.60
  -5   3  -9   10.60    2.50
  -5   3  -9    8.80    2.30
  -6   3  -9   43.80    4.40
  -6   3  -9   39.10    4.70
  -6   3  -9   38.50    4.80
   7   2  -9    9.00    2.80
   6   2  -9    4.50    2.50
   5   2  -9    7.10    2.50
   4   2  -9    0.50    1.20
  -4  -2   9   -0.40    1.70
   3   2  -9   59.89    4.40
   3   2  -9   50.99    2.50
   2   2  -9   15.40    1.90
   2   2  -9   15.40    2.40
   2   2  -9   15.60    2.60
   1   2  -9    6.90    1.60
   1   2  -9    8.90    2.00
   1   2  -9    5.20    1.70
   1   2  -9    9.20    1.90
   0   2  -9    4.20    1.50
   0   2  -9    6.70    1.50
   0   2  -9    6.50    1.80
   0   2  -9    5.10    1.70
   0  -2   9    0.10    1.70
  -1   2  -9    9.10    2.10
  -1   2  -9    9.90    2.00
  -1   2  -9    6.80    1.90
  -1   2  -9    6.70    1.60
  -2   2  -9    3.90    1.50
  -2   2  -9    4.50    1.80
  -2   2  -9    6.00    1.70
   2  -2   9   -0.10    1.70
  -3   2  -9  127.79    6.90
  -3   2  -9  135.49    6.80
  -3   2  -9  124.09    6.90
  -4   2  -9   34.50    3.60
  -4   2  -9   35.10    3.50
  -4   2  -9   36.50    3.50
  -5   2  -9   20.40    3.00
  -5   2  -9   18.90    3.10
  -5   2  -9   22.40    3.10
  -6   2  -9   24.70    3.50
  -6   2  -9   17.90    3.20
  -6   2  -9   26.70    3.50
  -7   2  -9   60.59    5.60
   7   1  -9    1.20    1.90
   6   1  -9   23.50    4.10
   5   1  -9   70.09    5.80
   4   1  -9   35.40    3.80
   3   1  -9   47.90    4.00
   3   1  -9   47.40    4.30
   2   1  -9   55.59    4.30
   2   1  -9   54.89    2.90
   2   1  -9   52.59    4.00
   1   1  -9    1.10    1.10
   1   1  -9    1.70    1.10
   1   1  -9    3.60    1.30
  -1  -1   9   -1.80    1.20
   0   1  -9    3.70    1.50
   0   1  -9   16.70    2.30
   0   1  -9    5.90    1.50
   0   1  -9    7.70    1.80
  -1   1  -9    3.00    1.20
  -1   1  -9    1.60    1.40
  -1   1  -9    2.20    1.20
  -1   1  -9    1.80    1.30
   1  -1   9   -0.80    1.60
  -2   1  -9  196.98    9.20
  -2   1  -9  206.88    9.10
  -2   1  -9  202.18    8.70
  -3   1  -9    3.40    1.30
  -3   1  -9    2.60    1.50
  -3   1  -9    2.90    1.40
   3  -1   9    0.30    1.20
  -4   1  -9    1.60    1.40
  -4   1  -9   -0.50    1.00
  -4   1  -9    0.00    1.00
   4  -1   9   -0.30    0.80
  -5   1  -9    8.30    2.40
  -5   1  -9    8.60    2.10
  -5   1  -9    5.70    1.80
  -6   1  -9    0.40    1.80
  -6   1  -9   -0.20    1.60
  -7   1  -9    4.10    2.20
  -7   1  -9    3.10    2.60
   7   0  -9    8.00    2.80
   6   0  -9   23.50    4.00
   5   0  -9   35.00    4.40
   4   0  -9    0.00    1.40
   3   0  -9   12.70    2.50
   3   0  -9   16.10    3.20
   2   0  -9   38.50    3.60
   2   0  -9   41.90    3.50
   1   0  -9    0.50    1.40
   1   0  -9   -0.10    0.90
   1   0  -9    0.60    0.80
  -1   0   9   -0.90    1.30
   0   0  -9   42.00    3.50
   0   0  -9   37.80    2.90
   0   0  -9   35.20    3.10
   0   0  -9   38.40    2.70
  -1   0  -9  691.73   23.90
  -1   0  -9  693.53   24.70
  -1   0  -9  699.83   24.20
  -1   0  -9  707.43   24.40
  -2   0  -9  154.38    8.00
  -2   0  -9  152.58    7.40
  -2   0  -9  156.98    7.10
  -3   0  -9   13.20    2.70
  -3   0  -9   10.60    2.00
  -3   0  -9   10.00    1.90
  -4   0  -9    6.00    1.80
  -4   0  -9    4.40    1.70
  -4   0  -9    4.40    2.00
   4   0   9    0.20    1.50
  -5   0  -9   24.00    3.10
  -5   0  -9   22.20    3.50
  -5   0  -9   23.20    3.10
  -6   0  -9    2.30    1.60
  -6   0  -9    0.50    1.90
  -7   0  -9   21.60    3.60
  -7   0  -9   22.90    4.20
   6  -1  -9    9.10    2.80
   5  -1  -9   38.80    4.30
   4  -1  -9   52.79    4.50
   3  -1  -9   34.40    4.10
   3  -1  -9   40.40    3.90
   2  -1  -9  161.88    7.90
   2  -1  -9  166.48    8.40
  -2   1   9  173.78    9.40
   1  -1  -9   33.70    3.10
   1  -1  -9   38.10    3.70
  -1   1   9   36.50    3.60
   0  -1  -9  137.69    6.20
   0  -1  -9  142.69    7.00
   0  -1  -9  148.49    7.60
   0   1   9  177.58    8.40
  -1  -1  -9   23.20    2.70
  -1  -1  -9   23.00    2.40
  -1  -1  -9   23.90    2.50
  -1  -1  -9   24.00    3.20
  -2  -1  -9  124.69    6.10
  -2  -1  -9  119.99    6.20
  -2  -1  -9  123.09    6.90
  -3  -1  -9   20.20    2.40
  -3  -1  -9   23.20    3.30
  -3  -1  -9   22.70    2.80
  -4  -1  -9   48.20    4.30
  -4  -1  -9   51.69    3.90
  -4  -1  -9   47.40    3.80
  -5  -1  -9   35.00    4.30
  -5  -1  -9   29.50    3.20
  -6  -1  -9    1.70    2.10
  -6  -1  -9   -0.40    1.30
  -7  -1  -9   57.19    5.20
  -8  -1  -9   51.39    5.30
   6  -2  -9    5.50    2.30
   5  -2  -9  104.19    7.00
   4  -2  -9    2.30    1.70
   3  -2  -9    6.90    2.10
   3  -2  -9    4.70    2.30
   2  -2  -9   13.30    2.90
   2  -2  -9   17.10    2.50
   1  -2  -9   38.20    3.80
   1  -2  -9   33.70    3.10
  -1   2   9   35.10    3.50
   0  -2  -9  346.47   13.40
   0  -2  -9  343.27   12.00
   0  -2  -9  372.06   14.60
   0   2   9  360.76   14.80
  -1  -2  -9  679.53   23.80
  -1  -2  -9  639.24   22.20
  -1  -2  -9  640.14   22.60
   1   2   9  649.83   24.30
  -2  -2  -9  364.66   13.50
  -2  -2  -9  372.96   13.90
  -2  -2  -9  364.36   15.00
   2   2   9  340.67   15.00
  -3  -2  -9   49.99    3.60
  -3  -2  -9   55.99    3.80
  -3  -2  -9   56.89    4.90
  -4  -2  -9   18.50    2.50
  -4  -2  -9   13.90    2.80
  -4  -2  -9   16.80    2.50
  -5  -2  -9    0.50    1.60
  -5  -2  -9   -0.50    1.00
   5   2   9    0.60    1.80
  -6  -2  -9    8.40    2.90
  -6  -2  -9    8.30    2.40
  -7  -2  -9    9.10    3.20
  -7  -2  -9   10.70    2.60
  -8  -2  -9   52.59    5.10
   6  -3  -9    4.70    2.70
   5  -3  -9   16.70    3.20
   4  -3  -9   46.30    4.40
   3  -3  -9  259.07   12.30
   3  -3  -9  250.97   11.40
   2  -3  -9   36.60    3.40
   2  -3  -9   43.50    4.20
   1  -3  -9   14.00    2.10
   1  -3  -9   14.80    2.70
   0  -3  -9    8.90    1.60
   0  -3  -9    6.40    2.00
   0   3   9    7.30    2.30
  -1  -3  -9   75.19    3.80
  -1  -3  -9   78.39    4.40
  -1  -3  -9   82.39    5.40
   1   3   9   75.99    5.50
  -2  -3  -9  197.88    8.50
  -2  -3  -9  207.18   10.10
   2   3   9  206.78   10.30
  -3  -3  -9  155.88    7.70
  -3  -3  -9  159.68    8.40
  -3  -3  -9  146.19    6.90
   3   3   9  139.09    8.20
  -4  -3  -9    4.30    1.70
  -4  -3  -9    2.50    1.40
  -4  -3  -9    3.70    1.50
   4   3   9    2.20    1.80
  -5  -3  -9    4.70    1.60
  -5  -3  -9    2.70    2.20
   5   3   9    0.90    1.80
  -6  -3  -9   42.60    4.00
  -6  -3  -9   29.60    4.60
  -7  -3  -9    4.80    2.90
  -7  -3  -9   10.60    2.60
  -8  -3  -9   12.10    4.20
  -8  -3  -9   14.90    3.00
   5  -4  -9   20.40    3.50
   4  -4  -9   72.29    5.90
   3  -4  -9  214.28   11.10
   3  -4  -9  205.08    9.80
   2  -4  -9   -0.30    1.40
   2  -4  -9    0.30    1.30
   1  -4  -9  100.69    6.40
   1  -4  -9   99.19    5.40
   0  -4  -9    1.30    1.80
   0  -4  -9    1.20    0.90
  -1  -4  -9  171.88    8.60
  -1  -4  -9  162.58    7.20
   1   4   9  158.78    8.70
  -2  -4  -9   23.90    2.50
  -2  -4  -9   22.10    3.50
   2   4   9   30.10    4.50
  -3  -4  -9  115.39    5.90
  -3  -4  -9  118.69    7.30
   3   4   9  119.69    7.60
  -4  -4  -9   68.49    5.50
  -4  -4  -9   65.69    4.30
   4   4   9   66.89    5.70
  -5  -4  -9   -1.90    1.90
  -5  -4  -9    0.40    1.20
  -5  -4  -9    7.30    1.90
   5   4   9   -0.60    1.80
  -7  -4  -9    0.00    2.90
  -7  -4  -9    0.10    1.50
   7   4   9    1.50    2.20
  -8  -4  -9    2.90    3.00
  -8  -4  -9    8.30    2.60
  -4   5   9    0.50    1.50
   3  -5  -9   -3.50    2.00
  -3   5   9    1.00    1.40
   2  -5  -9    0.10    1.70
  -2   5   9    0.10    1.30
   0  -5  -9   14.60    3.00
  -1  -5  -9    6.90    2.20
   1   5   9    3.80    2.10
  -2  -5  -9   57.29    5.10
  -2  -5  -9   52.99    3.50
  -2  -5  -9   53.49    2.90
   2   5   9   59.29    5.40
  -3  -5  -9   41.80    4.50
  -3  -5  -9   43.80    3.20
   3   5   9   38.10    4.70
  -4  -5  -9    0.50    1.20
  -4  -5  -9    2.10    2.20
   4   5   9    3.50    2.50
  -5  -5  -9   11.30    2.10
  -5  -5  -9   10.80    3.00
   5   5   9   15.90    3.60
  -6  -5  -9  112.29    6.40
   6   5   9  123.09    8.20
  -7  -5  -9   49.50    4.60
  -7  -5  -9   39.10    5.80
  -4   6   9   -0.50    1.40
  -3   6   9    6.00    2.10
   2  -6  -9   21.40    3.80
   1  -6  -9   20.60    3.40
   0  -6  -9    0.60    1.90
   0   6   9   -0.20    1.60
  -2  -6  -9   66.89    5.80
   2   6   9   64.59    5.90
  -3  -6  -9  244.98   11.90
   3   6   9  229.68   12.20
  -4  -6  -9  270.67   13.40
   4   6   9  284.17   14.50
  -5  -6  -9   11.40    3.70
   5   6   9   16.70    4.40
  -6  -6  -9   14.70    3.70
   6   6   9   17.00    4.30
  -7  -6  -9   27.20    4.90
   7   6   9   17.50    4.10
   2  -7  -9    0.30    2.60
  -2   7   9   -0.20    1.60
   0  -7  -9   17.10    3.50
  -1  -7  -9   13.20    3.10
   1   7   9   -1.60    2.10
  -2  -7  -9    2.20    2.60
   2   7   9    4.20    2.80
   2   7   9   -1.00    1.90
  -3  -7  -9   74.39    6.30
   3   7   9   64.79    6.30
  -4  -7  -9    5.60    3.10
   4   7   9   -1.40    2.20
  -5  -7  -9   10.80    3.60
   5   7   9    4.90    3.70
  -6  -7  -9   21.30    4.30
   6   7   9   29.00    5.40
   1  -8  -9   11.30    3.40
  -1   8   9    0.70    2.10
   0  -8  -9    2.00    2.60
   0   8   9    1.70    2.30
  -1  -8  -9   50.69    5.70
  -2  -8  -9   95.59    7.50
  -3  -8  -9   23.60    4.20
   3   8   9   26.80    5.10
  -4  -8  -9   18.40    3.90
   4   8   9   30.00    5.60
  -5  -8  -9    8.20    3.30
   5   8   9    4.70    3.20
   3   7 -10    9.80    2.70
   3   7 -10   12.50    3.10
   2   7 -10    0.90    2.30
   2   7 -10    1.00    1.70
  -2  -7  10   -1.40    2.50
   1   7 -10    5.70    2.20
   1   7 -10    4.40    2.80
  -1  -7  10    2.20    2.40
   0   7 -10   20.50    3.50
   0   7 -10   26.30    3.90
   0   7 -10   27.60    4.50
  -1   7 -10   44.50    5.20
  -1   7 -10   46.80    4.70
  -1   7 -10   44.60    4.40
  -2   7 -10   65.89    5.70
  -2   7 -10   53.39    4.90
   5   6 -10   38.50    3.90
   5   6 -10   36.70    5.10
   4   6 -10   16.40    3.20
   4   6 -10   14.40    3.10
   3   6 -10   31.40    4.30
   3   6 -10   34.50    4.40
   2   6 -10   16.90    3.40
   2   6 -10   15.70    3.00
   1   6 -10    5.10    2.30
   1   6 -10    6.30    2.10
   0   6 -10    2.40    2.10
   0   6 -10    3.30    2.10
   0   6 -10    0.60    1.90
   0  -6  10   -0.30    2.00
  -1   6 -10    3.90    2.30
  -1   6 -10    2.80    1.80
  -1   6 -10    4.80    2.20
  -2   6 -10   -0.40    1.90
  -2   6 -10   -0.60    1.60
  -2   6 -10    0.50    1.50
  -3   6 -10   10.20    2.60
  -3   6 -10    4.60    2.40
   5   5 -10    8.20    2.60
  -5  -5  10    0.70    2.20
   4   5 -10   -0.10    1.50
   4   5 -10   -0.90    1.50
  -4  -5  10   -2.30    2.60
   3   5 -10    6.00    2.20
   3   5 -10    2.80    2.00
  -3  -5  10    3.80    3.30
   2   5 -10    0.00    1.40
   2   5 -10   -0.50    1.70
  -2  -5  10   -0.80    2.30
   1   5 -10   15.00    3.20
   1   5 -10   13.50    2.70
   0   5 -10   26.00    3.50
   0   5 -10   25.50    3.50
   0   5 -10   21.40    3.20
  -1   5 -10   82.19    5.50
  -1   5 -10   79.49    5.60
  -1   5 -10   78.99    5.90
  -2   5 -10  258.77   11.70
  -2   5 -10  281.07   12.60
  -3   5 -10  189.38    9.40
  -3   5 -10  172.48    9.40
  -4   5 -10   24.20    3.60
  -4   5 -10   15.60    3.40
   6   4 -10    2.20    2.20
   5   4 -10    5.00    2.30
  -5  -4  10   -0.90    2.70
   4   4 -10   80.79    4.50
   4   4 -10   83.39    6.30
   3   4 -10  138.29    7.80
   3   4 -10  118.39    6.70
   2   4 -10   17.80    2.90
   2   4 -10   13.40    2.70
   1   4 -10    3.40    1.70
   1   4 -10    4.90    2.00
   1   4 -10    4.20    1.80
  -1  -4  10   -0.40    1.70
   0   4 -10  142.19    7.20
   0   4 -10  125.79    7.10
   0   4 -10  126.79    7.20
   0   4 -10  125.39    6.50
  -1   4 -10  163.08    8.40
  -1   4 -10  165.38    8.50
  -1   4 -10  174.48    8.40
  -1   4 -10  168.68    7.80
  -2   4 -10   69.99    5.20
  -2   4 -10   68.19    5.40
  -2   4 -10   58.99    4.90
  -3   4 -10  145.69    7.80
  -3   4 -10  138.49    8.20
  -4   4 -10   42.10    4.70
  -4   4 -10   42.20    4.10
  -5   4 -10    5.20    2.40
  -5   4 -10    6.10    2.40
   6   3 -10   -1.70    1.80
   5   3 -10   22.20    3.70
   3   3 -10  220.38    9.20
   3   3 -10  232.98   10.90
   2   3 -10  122.89    7.00
   2   3 -10  118.39    6.40
   2   3 -10  124.99    7.10
   1   3 -10   23.60    3.20
   1   3 -10   23.50    3.30
   1   3 -10   21.80    3.00
   0   3 -10   20.40    3.20
   0   3 -10   20.80    2.80
   0   3 -10   21.30    2.70
   0   3 -10   16.90    2.70
  -1   3 -10  105.59    5.90
  -1   3 -10   88.59    5.70
  -1   3 -10  100.39    6.00
  -2   3 -10   14.80    2.60
  -2   3 -10   16.10    2.60
  -2   3 -10   11.70    2.50
  -3   3 -10    7.90    2.20
  -3   3 -10    8.90    2.20
  -3   3 -10    9.20    2.30
  -4   3 -10   32.90    3.50
  -4   3 -10   35.70    4.00
  -4   3 -10   30.40    3.70
  -5   3 -10    0.90    1.90
  -5   3 -10    1.80    1.60
  -5   3 -10    0.20    1.40
  -6   3 -10   20.80    3.70
  -6   3 -10   29.50    4.20
   6   2 -10   23.90    4.10
   5   2 -10    2.10    2.20
   2   2 -10    1.40    1.20
   2   2 -10   -0.30    1.30
   2   2 -10    1.30    1.30
  -2  -2  10    0.30    1.90
   1   2 -10   93.29    5.80
   1   2 -10   91.39    5.70
   1   2 -10   92.49    5.30
   0   2 -10  303.67   13.10
   0   2 -10  321.17   13.00
   0   2 -10  342.47   12.80
   0   2 -10  316.67   12.90
  -1   2 -10   74.49    4.70
  -1   2 -10   78.29    5.10
  -1   2 -10   71.29    4.80
  -1   2 -10   67.59    4.80
  -2   2 -10  151.88    7.90
  -2   2 -10  157.48    7.90
  -2   2 -10  163.28    7.70
  -3   2 -10    3.20    1.50
  -3   2 -10    2.80    1.60
  -3   2 -10    3.60    1.60
   3  -2  10    0.20    1.40
  -4   2 -10    0.00    1.10
  -4   2 -10    0.10    1.20
  -4   2 -10    1.00    1.50
  -5   2 -10   18.60    3.40
  -5   2 -10   17.60    3.10
  -5   2 -10   23.70    3.60
  -6   2 -10   -0.60    2.30
  -6   2 -10    0.70    2.00
  -6   2 -10   -0.20    1.70
   6   1 -10   57.29    5.80
   5   1 -10   79.49    6.30
   4   1 -10   39.40    4.20
   3   1 -10    0.70    1.90
   3   1 -10   -0.20    1.30
  -3  -1  10    0.40    2.00
   2   1 -10   10.80    2.20
   2   1 -10   15.90    1.60
   2   1 -10   10.30    2.50
   1   1 -10   19.70    2.80
   1   1 -10   21.20    3.00
   1   1 -10   21.20    2.40
   0   1 -10    4.90    1.60
   0   1 -10   14.10    2.50
   0   1 -10    8.30    1.90
  -1   1 -10  160.78    7.80
  -1   1 -10  164.78    8.00
  -1   1 -10  155.68    7.80
  -1   1 -10  169.98    7.60
  -2   1 -10    9.20    2.00
  -2   1 -10    7.60    2.20
  -2   1 -10    6.80    1.70
  -3   1 -10    8.70    2.30
  -3   1 -10    9.20    2.10
  -3   1 -10    7.30    1.90
  -4   1 -10   26.70    3.30
  -4   1 -10   24.60    3.60
  -4   1 -10   24.40    3.30
  -5   1 -10   12.50    2.60
  -5   1 -10    6.50    2.60
  -5   1 -10    9.10    2.30
  -6   1 -10   20.30    3.40
  -6   1 -10   13.90    3.20
  -6   1 -10   25.60    3.70
  -7   1 -10   33.90    4.60
  -7   1 -10   29.90    4.80
  -7   1 -10   48.10    4.70
   6   0 -10   54.79    5.90
   5   0 -10   45.70    4.80
   4   0 -10   10.50    2.60
   3   0 -10   13.50    3.10
   3   0 -10   13.10    2.70
   2   0 -10   -0.10    1.20
   2   0 -10    0.30    1.50
  -2   0  10    1.00    1.60
   1   0 -10    1.40    1.30
   1   0 -10    2.10    1.00
   1   0 -10    1.10    1.50
  -1   0  10   -0.70    1.40
   0   0 -10  155.48    7.40
   0   0 -10  141.69    6.60
  -1   0 -10   16.80    2.20
  -1   0 -10   14.40    2.40
  -1   0 -10   14.40    2.60
  -1   0 -10   16.60    2.60
  -2   0 -10   15.40    2.80
  -2   0 -10   12.40    2.10
  -2   0 -10   15.00    2.50
  -3   0 -10    7.50    1.80
  -3   0 -10    4.90    1.90
  -3   0 -10    6.70    1.60
  -4   0 -10   40.20    3.70
  -4   0 -10   41.30    4.50
  -4   0 -10   41.50    3.80
  -5   0 -10    6.00    2.10
  -5   0 -10    7.20    2.10
  -5   0 -10    5.50    2.30
  -6   0 -10    8.30    2.40
  -6   0 -10    8.40    3.00
  -6   0 -10    8.50    2.40
  -7   0 -10   15.00    3.30
  -7   0 -10    9.40    3.70
   6  -1 -10   25.00    4.20
   5  -1 -10    1.00    1.70
   4  -1 -10   95.19    6.60
   3  -1 -10   24.30    3.80
   3  -1 -10   16.10    2.90
   2  -1 -10  302.57   13.10
   2  -1 -10  294.97   12.40
   1  -1 -10  144.79    7.20
   1  -1 -10  137.19    7.70
   0  -1 -10   12.60    2.40
   0  -1 -10   14.20    2.00
   0  -1 -10   12.80    2.20
  -1  -1 -10  106.09    5.40
  -1  -1 -10  103.59    5.70
  -1  -1 -10   97.79    6.30
  -2  -1 -10   21.90    2.60
  -2  -1 -10   21.70    3.40
  -2  -1 -10   16.00    2.50
  -3  -1 -10   20.60    2.80
  -3  -1 -10   20.70    2.50
  -3  -1 -10   16.90    3.00
  -4  -1 -10    1.10    1.80
  -4  -1 -10   -0.60    1.20
  -4  -1 -10   -0.50    1.20
   4   1  10    0.20    1.60
  -5  -1 -10   16.00    2.80
  -5  -1 -10    9.60    2.80
  -5  -1 -10   15.80    2.90
  -6  -1 -10    0.10    2.10
  -6  -1 -10    0.10    1.90
  -6  -1 -10    2.30    1.80
  -7  -1 -10   20.30    4.00
  -7  -1 -10   21.80    3.70
   5  -2 -10    0.50    1.50
   4  -2 -10   -1.30    1.20
   3  -2 -10   15.70    2.80
   3  -2 -10   17.80    3.90
   2  -2 -10   42.10    4.00
   2  -2 -10   45.70    4.60
   1  -2 -10  365.86   14.90
  -1   2  10  334.07   14.90
   0  -2 -10   97.19    6.30
   0  -2 -10   96.89    4.00
   0  -2 -10  105.99    5.80
   0   2  10  104.79    6.80
  -1  -2 -10   17.30    3.00
  -1  -2 -10   14.50    2.40
  -1  -2 -10   14.50    2.00
   1   2  10   17.00    3.50
  -2  -2 -10  329.97   14.10
  -2  -2 -10  327.47   13.00
  -3  -2 -10   42.30    4.60
  -3  -2 -10   45.90    3.50
  -3  -2 -10   44.30    3.80
  -4  -2 -10    6.80    2.00
  -4  -2 -10    6.80    1.90
  -4  -2 -10   10.50    2.50
   4   2  10    1.50    1.90
  -5  -2 -10   17.20    2.80
  -5  -2 -10   10.90    2.30
  -5  -2 -10    8.80    2.80
  -6  -2 -10   36.10    4.20
  -6  -2 -10   38.00    4.00
  -6  -2 -10   28.40    4.70
  -7  -2 -10   -0.50    2.80
  -7  -2 -10    1.70    1.70
   5  -3 -10   -1.00    1.70
   4  -3 -10   13.50    3.00
   3  -3 -10   65.99    6.10
   3  -3 -10   58.39    4.90
   2  -3 -10   43.40    3.80
   2  -3 -10   45.60    4.70
   1  -3 -10   -1.10    1.30
   1  -3 -10   -0.30    1.00
   0  -3 -10   15.50    2.30
   0  -3 -10    9.90    2.30
   0   3  10   17.20    3.40
  -1  -3 -10   61.49    5.20
  -1  -3 -10   59.39    4.00
  -1  -3 -10   58.19    3.20
   1   3  10   67.49    5.50
  -2  -3 -10    0.10    1.60
  -2  -3 -10    3.90    1.50
   2   3  10    3.60    2.20
  -3  -3 -10    1.50    1.10
  -3  -3 -10    0.20    1.90
   3   3  10    0.10    1.40
  -4  -3 -10   15.50    2.60
  -4  -3 -10   15.10    3.10
  -5  -3 -10   25.50    3.30
  -5  -3 -10   24.60    3.20
  -5  -3 -10   18.30    3.40
  -6  -3 -10   14.10    2.70
  -6  -3 -10   10.00    2.40
  -6  -3 -10    5.50    3.10
  -7  -3 -10   -1.10    3.10
  -7  -3 -10    3.80    2.20
   4  -4 -10  162.38    9.20
   3  -4 -10   37.20    4.00
   3  -4 -10   48.40    5.90
   2  -4 -10    4.90    2.40
   2  -4 -10    4.90    1.80
   1  -4 -10    4.90    2.30
   1  -4 -10    9.50    2.00
   0  -4 -10    0.30    1.60
   0  -4 -10    1.50    1.10
  -1  -4 -10   -0.40    1.50
  -1  -4 -10    3.50    1.40
   1   4  10    1.50    1.60
  -2  -4 -10   87.99    5.10
  -2  -4 -10   89.69    4.70
  -2  -4 -10   92.69    6.40
   2   4  10   89.89    6.80
  -3  -4 -10   47.70    3.80
  -3  -4 -10   50.89    5.00
   3   4  10   52.99    5.30
  -4  -4 -10   17.60    3.50
  -4  -4 -10   21.40    2.80
   4   4  10   22.40    4.20
  -5  -4 -10   32.40    3.30
  -5  -4 -10   25.20    4.20
   5   4  10   30.30    4.90
   3  -5 -10  108.29    8.50
   2  -5 -10   45.70    4.90
   1  -5 -10   -0.60    2.00
   0  -5 -10   20.30    3.60
  -1  -5 -10   55.19    5.10
   1   5  10   55.39    5.40
  -2  -5 -10   31.90    2.10
  -2  -5 -10   36.90    4.40
   2   5  10   38.70    5.50
  -3  -5 -10    1.50    2.10
  -3  -5 -10    1.00    1.30
   3   5  10   -0.10    2.30
  -4  -5 -10   50.69    3.90
  -4  -5 -10   61.29    5.80
   4   5  10   62.39    6.40
  -5  -5 -10   81.69    5.30
  -5  -5 -10   88.69    7.50
   5   5  10   87.19    7.20
  -6  -5 -10   62.49    6.50
  -6  -5 -10   56.09    4.50
   6   5  10   55.89    6.10
  -7  -5 -10   20.90    4.80
  -7  -5 -10   38.20    4.30
   3  -6 -10   -1.30    2.40
  -3   6  10   -2.50    2.00
   2  -6 -10    2.30    2.40
  -2   6  10   -1.20    1.60
   1  -6 -10   -0.90    2.10
   0  -6 -10  159.38    9.40
  -1  -6 -10  188.88   10.20
  -2  -6 -10  111.39    7.80
   2   6  10   94.89    7.70
  -3  -6 -10   -2.40    2.50
  -3  -6 -10    1.20    1.40
   3   6  10    2.10    2.90
  -4  -6 -10    1.30    3.00
   4   6  10    1.20    2.90
  -5  -6 -10   45.10    5.70
   5   6  10   51.39    6.30
  -6  -6 -10    1.90    2.90
   6   6  10    0.90    2.60
   1  -7 -10   -0.50    2.60
  -1   7  10   -1.30    1.60
   0  -7 -10    3.00    2.40
   0   7  10    0.10    2.50
  -1  -7 -10   72.09    6.80
  -2  -7 -10    6.00    3.30
   2   7  10    4.20    2.90
  -3  -7 -10   42.30    5.60
   3   7  10   48.20    6.30
  -4  -7 -10   33.40    5.10
   4   7  10   42.30    6.40
  -5  -7 -10   37.50    5.40
   5   7  10   48.20    6.10
  -1  -8 -10   30.30    4.80
   1   8  10    5.30    3.40
  -2  -8 -10   19.90    4.40
  -3  -8 -10   20.20    4.50
   3   8  10   23.60    5.20
  -4  -8 -10    5.50    3.20
   4   8  10    5.80    3.70
   3   6 -11    1.80    1.90
   3   6 -11    1.70    2.40
  -3  -6  11    2.10    2.90
   2   6 -11   10.20    3.00
   2   6 -11   12.60    3.00
   1   6 -11   20.40    4.00
   1   6 -11   19.60    3.40
   0   6 -11    8.00    2.40
   0   6 -11    5.50    2.80
   0   6 -11    9.50    2.90
   0  -6  11    0.30    2.10
  -1   6 -11    7.00    2.60
  -1   6 -11    5.30    2.10
  -1   6 -11    8.50    2.70
  -2   6 -11    1.80    2.20
  -2   6 -11    2.30    1.80
  -2   6 -11    3.30    2.20
   4   5 -11    2.80    1.90
   4   5 -11    1.60    2.00
  -4  -5  11   -0.30    2.40
   3   5 -11    0.40    2.00
   3   5 -11    3.10    1.90
  -3  -5  11    2.60    3.10
   2   5 -11   91.39    6.50
   2   5 -11   89.09    6.40
   0   5 -11   78.99    6.00
   0   5 -11   94.59    6.70
   0   5 -11  106.59    9.50
  -1   5 -11  126.69    7.90
  -1   5 -11  124.59    7.30
  -1   5 -11  132.49    8.00
  -2   5 -11   15.90    3.10
  -2   5 -11   17.40    3.40
  -2   5 -11   15.60    3.40
  -3   5 -11    0.30    1.70
  -3   5 -11   -1.10    1.60
   5   4 -11   17.50    3.50
  -5  -4  11    4.60    3.60
   4   4 -11    1.20    1.90
  -4  -4  11   -2.80    2.30
   3   4 -11    4.00    2.30
   3   4 -11    2.60    1.90
  -3  -4  11   -1.40    3.40
   2   4 -11  104.49    7.00
   2   4 -11  112.89    6.80
   1   4 -11  112.19    6.70
   1   4 -11  122.19    7.10
   1   4 -11  120.49    7.30
   0   4 -11   28.00    3.40
   0   4 -11   28.80    3.90
   0   4 -11   25.90    3.50
  -1   4 -11    0.20    1.80
  -1   4 -11    2.30    1.90
  -1   4 -11    2.10    1.90
   1  -4  11    1.20    2.30
  -2   4 -11   10.90    2.50
  -2   4 -11   10.00    2.80
  -2   4 -11    9.40    2.40
  -3   4 -11    7.40    2.50
  -3   4 -11    7.60    2.80
  -4   4 -11   20.80    3.60
  -4   4 -11   15.90    3.30
   5   3 -11   19.30    3.80
   4   3 -11   -0.60    1.80
  -4  -3  11   -0.50    2.50
   3   3 -11   20.10    2.80
   3   3 -11   18.40    3.40
   2   3 -11   25.60    4.00
   2   3 -11   25.00    3.40
   2   3 -11   24.60    3.60
   1   3 -11    6.60    2.20
   1   3 -11   11.00    2.50
   1   3 -11   12.60    2.60
   0   3 -11    5.70    2.20
   0   3 -11    4.10    1.80
   0   3 -11   10.30    2.30
   0  -3  11   -1.50    1.90
  -1   3 -11   11.00    2.40
  -1   3 -11   10.00    2.30
  -1   3 -11   15.30    3.10
  -1   3 -11    9.80    2.10
  -2   3 -11   48.60    4.40
  -2   3 -11   47.60    4.30
  -2   3 -11   40.80    4.10
  -2   3 -11   51.99    4.30
  -3   3 -11   22.20    3.60
  -3   3 -11   21.90    3.50
  -3   3 -11   27.50    3.60
  -4   3 -11    0.50    1.50
  -4   3 -11    0.40    1.80
  -4   3 -11   -1.40    1.80
  -5   3 -11   27.60    4.00
  -5   3 -11   22.00    4.00
  -5   3 -11   24.40    4.00
   5   2 -11    0.70    1.80
   4   2 -11   20.40    3.60
   2   2 -11    3.20    1.80
   2   2 -11    6.00    2.70
   2   2 -11    4.50    1.70
  -2  -2  11   -1.10    2.20
   1   2 -11  138.89    7.10
   1   2 -11  150.88    8.00
   1   2 -11  138.49    7.70
   0   2 -11  222.18   10.00
   0   2 -11  219.98   10.10
  -1   2 -11    0.70    2.00
  -1   2 -11    2.50    1.40
  -1   2 -11    4.40    1.80
  -1   2 -11    3.10    2.00
   1  -2  11   -0.20    1.70
  -2   2 -11   40.80    4.20
  -2   2 -11   39.70    4.00
  -2   2 -11   43.10    3.90
  -2   2 -11   45.50    4.10
  -3   2 -11    3.70    1.70
  -3   2 -11    0.20    1.30
  -3   2 -11   -0.30    1.50
   3  -2  11   -1.90    1.60
  -4   2 -11   47.20    4.80
  -4   2 -11   45.60    4.20
  -4   2 -11   46.80    4.50
  -5   2 -11    2.20    2.50
  -5   2 -11    1.50    1.90
  -5   2 -11    2.80    1.90
  -6   2 -11   24.40    4.00
  -6   2 -11   13.70    3.30
  -6   2 -11   20.30    3.70
   5   1 -11   29.00    4.40
   4   1 -11   60.19    5.80
   3   1 -11    9.30    2.40
   3   1 -11    7.50    3.00
   2   1 -11   19.10    3.10
   2   1 -11   15.50    1.60
   2   1 -11   18.40    3.30
   1   1 -11    3.10    1.60
   1   1 -11    2.20    1.60
   1   1 -11    3.60    1.70
  -1  -1  11    0.40    1.70
   0   1 -11  103.39    6.40
   0   1 -11  112.29    6.10
   0   1 -11  118.09    6.80
  -1   1 -11  177.28    9.00
  -1   1 -11  189.58    8.80
  -1   1 -11  178.98    8.90
  -2   1 -11    4.50    1.80
  -2   1 -11    3.70    1.50
  -2   1 -11    5.70    2.10
   2  -1  11   -0.50    1.90
  -3   1 -11   10.00    2.80
  -3   1 -11   10.80    2.20
  -3   1 -11    9.10    2.20
  -4   1 -11    1.30    1.50
  -4   1 -11    1.70    1.70
  -4   1 -11   -0.60    2.10
   4  -1  11    2.00    1.90
  -5   1 -11   -2.30    1.80
  -5   1 -11    1.80    2.10
  -5   1 -11   -2.80    1.70
  -6   1 -11    2.90    2.50
  -6   1 -11    1.30    2.00
  -6   1 -11    1.00    2.30
   5   0 -11   10.40    3.00
   4   0 -11   52.79    5.10
   3   0 -11    1.90    2.10
   3   0 -11    4.00    1.90
   2   0 -11  159.08    8.40
   2   0 -11  166.88    9.10
   1   0 -11    5.50    1.90
   1   0 -11    6.60    1.40
   1   0 -11    8.20    2.50
   0   0 -11   35.70    3.50
   0   0 -11   36.80    3.30
   0   0 -11   35.90    4.10
  -1   0 -11   78.19    5.00
  -1   0 -11   93.89    6.10
  -1   0 -11   77.79    5.40
  -2   0 -11    6.30    2.20
  -2   0 -11    5.10    1.70
   2   0  11   -1.20    1.90
  -3   0 -11   18.30    3.30
  -3   0 -11    9.50    2.40
  -3   0 -11   13.60    2.40
  -4   0 -11    7.50    2.20
  -4   0 -11    7.50    2.10
  -4   0 -11    8.70    3.00
  -5   0 -11   82.69    5.80
  -5   0 -11   78.39    5.90
  -5   0 -11   77.89    7.20
  -6   0 -11   27.30    4.10
  -6   0 -11   25.90    3.80
  -6   0 -11   13.70    3.70
   5  -1 -11    6.10    2.30
   4  -1 -11   71.39    5.80
   3  -1 -11   65.59    5.30
   3  -1 -11   80.59    6.60
   2  -1 -11   36.50    4.80
   2  -1 -11   34.10    3.70
   1  -1 -11   35.20    4.00
   1  -1 -11   38.00    4.40
   0  -1 -11    7.50    2.30
   0  -1 -11    8.40    1.70
   0  -1 -11    6.60    1.80
  -1  -1 -11   54.29    3.90
  -1  -1 -11   53.29    4.30
  -1  -1 -11   70.69    5.20
  -2  -1 -11    3.90    2.50
  -2  -1 -11    4.70    1.70
  -2  -1 -11    5.20    1.90
   2   1  11    3.80    2.70
  -3  -1 -11  132.59    8.30
  -3  -1 -11  133.19    7.30
  -3  -1 -11  129.59    7.60
  -4  -1 -11   -0.90    1.50
  -4  -1 -11   -2.20    1.90
  -4  -1 -11    0.50    1.40
   4   1  11   -0.80    2.30
  -5  -1 -11    2.20    2.70
  -5  -1 -11   10.00    2.60
  -5  -1 -11    6.00    2.20
   5   1  11    0.10    1.90
  -6  -1 -11   14.60    3.90
  -6  -1 -11   22.30    3.50
  -6  -1 -11   23.40    3.80
   5  -2 -11    1.30    1.90
   4  -2 -11   29.90    4.20
   3  -2 -11    1.00    1.80
   3  -2 -11   -1.10    2.70
   2  -2 -11    8.10    2.70
   2  -2 -11    3.10    1.90
   1  -2 -11   11.90    3.00
   1  -2 -11   11.20    2.40
  -1   2  11    9.80    2.90
   0  -2 -11  112.59    6.90
   0  -2 -11   96.39    5.70
   0   2  11   81.09    6.40
  -1  -2 -11   55.29    5.00
  -1  -2 -11   53.39    4.20
  -1  -2 -11   57.29    3.80
  -2  -2 -11  210.98    9.20
  -2  -2 -11  196.08   10.30
  -2  -2 -11  197.18    9.30
  -3  -2 -11    4.20    2.40
  -3  -2 -11    5.00    2.20
  -4  -2 -11   12.40    3.20
  -4  -2 -11   12.90    2.50
  -5  -2 -11   33.30    3.60
  -5  -2 -11   29.30    3.70
  -5  -2 -11   31.10    4.50
  -6  -2 -11   59.59    5.10
  -6  -2 -11   84.79    7.10
  -6  -2 -11   68.19    5.40
  -7  -2 -11    1.30    2.10
  -7  -2 -11    3.50    3.20
  -7  -2 -11    2.70    2.30
   4  -3 -11    4.50    2.10
   3  -3 -11   53.29    5.80
   3  -3 -11   44.70    4.40
   2  -3 -11  107.49    6.60
   2  -3 -11  123.09    8.10
   1  -3 -11   11.50    3.00
   1  -3 -11   12.90    2.40
   0  -3 -11  108.69    7.40
   0  -3 -11  105.89    6.00
   0   3  11  104.09    7.40
  -1  -3 -11   -0.90    1.80
  -1  -3 -11    1.10    1.00
  -1  -3 -11    0.80    1.50
   1   3  11    0.00    2.00
  -2  -3 -11   47.10    4.00
  -2  -3 -11   39.50    3.50
  -2  -3 -11   47.60    5.00
   2   3  11   39.00    5.20
  -3  -3 -11   27.40    3.40
  -3  -3 -11   26.30    4.10
  -4  -3 -11   50.99    5.30
  -4  -3 -11   47.00    4.10
  -5  -3 -11   12.30    3.20
  -5  -3 -11   16.10    2.80
  -6  -3 -11   16.10    3.60
  -6  -3 -11   24.10    3.50
   4  -4 -11    5.90    2.30
   3  -4 -11    2.60    3.50
   3  -4 -11   -1.20    1.50
   2  -4 -11   39.60    4.90
   2  -4 -11   44.90    4.10
   1  -4 -11   17.50    2.70
   1  -4 -11   17.70    3.50
   0  -4 -11   98.09    7.40
   0  -4 -11   89.69    5.50
  -1  -4 -11  121.39    7.60
  -1  -4 -11   92.69    5.70
   1   4  11  106.79    7.80
  -2  -4 -11   34.00    3.00
  -2  -4 -11   44.00    5.00
  -2  -4 -11   39.60    3.80
   2   4  11   43.40    6.00
  -3  -4 -11   99.79    6.10
  -3  -4 -11  111.59    8.10
   3   4  11  121.19    8.50
  -4  -4 -11   31.30    4.90
  -4  -4 -11   35.90    3.80
   4   4  11   42.00    5.20
  -5  -4 -11    7.30    2.00
  -5  -4 -11    5.10    3.00
   5   4  11   -1.20    2.30
  -6  -4 -11    0.70    2.30
  -6  -4 -11    2.90    2.00
   6   4  11   -2.80    2.40
   3  -5 -11   33.80    5.80
   2  -5 -11   32.80    5.10
   1  -5 -11    1.10    2.10
   0  -5 -11   29.80    4.50
  -1  -5 -11    2.40    2.90
   1   5  11    1.70    2.60
  -2  -5 -11   44.30    5.30
   2   5  11   43.40    5.70
  -3  -5 -11   22.20    4.10
  -3  -5 -11   27.80    3.00
   3   5  11   36.50    5.80
  -4  -5 -11    1.60    2.60
   4   5  11    2.30    2.30
  -5  -5 -11   -3.60    1.70
  -5  -5 -11    4.90    1.80
   5   5  11    1.20    2.40
  -6  -5 -11    1.30    1.50
  -6  -5 -11    3.60    2.60
   6   5  11    0.70    2.70
   2  -6 -11   53.59    5.90
   1  -6 -11   29.20    4.50
   0  -6 -11   -1.00    2.20
  -1  -6 -11   54.99    6.60
  -2  -6 -11    2.60    2.50
   2   6  11    4.00    2.80
  -3  -6 -11   22.20    2.30
  -3  -6 -11   27.50    4.70
   3   6  11   31.30    5.70
  -4  -6 -11   29.90    4.90
   4   6  11   27.70    5.30
  -5  -6 -11    8.70    3.70
   5   6  11   18.10    4.30
   0  -7 -11   11.60    3.40
  -1  -7 -11    6.70    3.20
  -2  -7 -11   18.80    4.30
   2   7  11   14.20    5.00
  -3  -7 -11    6.20    3.10
   3   7  11   13.00    4.40
  -4  -7 -11   20.20    4.20
   4   7  11   28.40    5.90
   3   5 -12   36.20    4.60
   3   5 -12   35.10    4.80
   1   5 -12   23.50    4.10
   1   5 -12   24.60    3.90
   0   5 -12   29.20    4.30
   0   5 -12   21.80    3.60
  -1   5 -12   -1.20    2.40
  -1   5 -12    0.00    1.60
   1  -5  12    1.30    2.20
  -2   5 -12   15.40    3.00
  -2   5 -12   20.10    4.10
  -2   5 -12   12.70    3.00
   4   4 -12    9.50    3.00
  -4  -4  12   -1.80    3.10
   3   4 -12   -0.10    1.70
   3   4 -12    1.20    1.80
  -3  -4  12   -2.20    2.30
   2   4 -12    3.70    2.40
   2   4 -12    4.30    2.60
  -2  -4  12   -0.80    3.20
   1   4 -12    1.40    2.00
   1   4 -12    2.10    2.10
   1   4 -12    4.60    2.20
  -1  -4  12    2.30    3.30
   0   4 -12   -0.30    1.80
   0   4 -12    1.60    1.70
   0  -4  12   -0.20    2.60
  -1   4 -12    2.20    1.60
  -1   4 -12    1.60    2.30
   1  -4  12   -2.40    1.90
  -2   4 -12   34.60    4.30
  -2   4 -12   31.50    4.30
  -2   4 -12   33.90    4.40
  -3   4 -12  150.08    8.90
  -3   4 -12  166.18    9.70
   4   3 -12   30.40    4.40
   3   3 -12  126.29    8.20
   3   3 -12  123.09    5.80
   2   3 -12   84.69    6.90
   2   3 -12   91.19    6.00
   2   3 -12   87.89    6.70
   1   3 -12    2.60    2.00
   1   3 -12    0.70    1.70
   1   3 -12   -1.70    1.70
  -1  -3  12    0.00    2.90
   0   3 -12   -1.10    1.40
   0   3 -12   -1.70    1.70
   0   3 -12   -1.20    1.60
   0  -3  12   -3.20    2.00
  -1   3 -12   30.60    3.90
  -1   3 -12   32.90    3.80
  -1   3 -12   23.50    3.50
  -2   3 -12   46.80    4.30
  -2   3 -12   46.70    4.70
  -2   3 -12   55.59    5.10
  -2   3 -12   42.10    4.60
  -3   3 -12   15.80    3.10
  -3   3 -12   14.50    3.10
  -3   3 -12   14.50    3.30
  -4   3 -12   96.99    7.10
  -4   3 -12   68.29    7.10
  -4   3 -12  105.09    7.00
   4   2 -12    6.70    2.60
  -4  -2  12   -2.00    2.90
   2   2 -12  206.28   10.80
   2   2 -12  206.08    8.90
   2   2 -12  230.38   11.60
   1   2 -12    5.30    2.70
   1   2 -12    5.10    2.20
   1   2 -12   10.70    2.70
  -1  -2  12   -0.80    2.60
   0   2 -12   31.30    3.90
   0   2 -12   30.00    3.70
   0   2 -12   34.30    3.90
  -1   2 -12    0.90    2.00
  -1   2 -12    1.80    1.80
  -1   2 -12    2.50    2.00
   1  -2  12   -1.50    2.50
  -2   2 -12   67.79    5.50
  -2   2 -12   52.09    4.80
  -2   2 -12   58.59    5.00
  -3   2 -12   75.09    5.80
  -3   2 -12   76.89    5.60
  -3   2 -12   77.09    6.20
  -4   2 -12    1.90    2.40
  -4   2 -12    1.10    1.70
  -4   2 -12    0.60    1.60
  -5   2 -12   -0.40    2.40
  -5   2 -12    1.00    1.80
  -5   2 -12    0.90    1.90
   4   1 -12   17.00    3.70
   3   1 -12   13.30    3.20
   3   1 -12   20.60    4.80
   2   1 -12  122.59    7.80
   2   1 -12  146.29    8.90
   1   1 -12   11.40    2.80
   1   1 -12   14.20    2.30
   1   1 -12   14.10    3.10
   0   1 -12    1.30    1.70
   0   1 -12   -0.70    1.70
   0   1 -12    2.70    1.60
   0  -1  12   -1.30    2.60
  -1   1 -12   23.00    3.40
  -1   1 -12   21.10    3.70
  -1   1 -12   26.10    3.70
  -2   1 -12    2.30    1.90
  -2   1 -12   -0.30    1.60
  -2   1 -12   -0.50    2.20
   2  -1  12   -1.00    2.30
  -3   1 -12   15.10    2.80
  -3   1 -12   18.70    3.80
  -3   1 -12   19.60    3.30
  -4   1 -12   21.40    4.00
  -4   1 -12   23.50    3.60
  -4   1 -12   22.40    3.50
  -5   1 -12   15.50    3.90
  -5   1 -12   16.00    3.30
  -5   1 -12   16.20    3.30
   4   0 -12   34.80    4.90
   3   0 -12    2.20    2.50
   3   0 -12   -1.20    1.50
   2   0 -12    5.30    2.50
   2   0 -12    5.10    2.10
  -2   0  12   -1.30    2.30
   1   0 -12    3.50    1.90
   1   0 -12    4.20    2.10
   1   0 -12    3.40    1.20
  -1   0  12    1.00    2.70
   0   0 -12   42.10    5.00
   0   0 -12   28.80    3.80
   0   0 -12   34.80    3.60
  -1   0 -12    0.40    1.60
  -1   0 -12    1.00    2.10
  -1   0 -12   -0.10    1.80
   1   0  12   -0.80    2.40
  -2   0 -12   60.09    4.70
  -2   0 -12   57.19    5.00
  -2   0 -12   63.99    5.60
  -3   0 -12   83.29    7.10
  -3   0 -12   89.59    6.40
  -4   0 -12  175.38   10.20
  -4   0 -12  170.38    9.30
  -4   0 -12  182.08    9.20
  -5   0 -12  115.69    7.40
  -5   0 -12  111.99    7.50
  -5   0 -12  110.59    8.30
   4  -1 -12   13.90    3.30
   3  -1 -12    1.60    2.40
   3  -1 -12    0.20    1.70
   2  -1 -12   44.00    4.60
   2  -1 -12   46.10    5.00
   1  -1 -12  108.09    7.10
   1  -1 -12  127.79    7.90
   0  -1 -12  154.18    6.80
   0  -1 -12  160.98    9.10
   0  -1 -12  154.88    8.40
  -1  -1 -12   56.29    4.70
  -1  -1 -12   59.19    4.40
  -1  -1 -12   73.69    6.20
  -2  -1 -12   59.59    4.80
  -2  -1 -12   71.29    5.90
  -2  -1 -12   57.89    5.00
  -3  -1 -12   11.00    3.40
  -3  -1 -12    9.50    2.70
   3   1  12    1.50    2.90
  -4  -1 -12   10.00    3.50
  -4  -1 -12   11.70    2.80
  -5  -1 -12   32.20    3.90
  -5  -1 -12   31.60    4.30
  -5  -1 -12   21.60    4.50
  -6  -1 -12    5.80    3.20
  -6  -1 -12   11.90    3.00
  -6  -1 -12   10.50    3.10
   4  -2 -12   13.10    3.30
   3  -2 -12   -0.20    2.30
   3  -2 -12   -0.40    1.60
   2  -2 -12    2.40    2.10
   2  -2 -12    3.60    2.30
   1  -2 -12  209.58   10.80
   1  -2 -12  201.58    9.90
  -1   2  12  173.78   10.90
   0  -2 -12   26.10    4.20
   0  -2 -12   23.20    3.50
  -1  -2 -12   13.50    2.40
  -1  -2 -12   11.90    2.50
  -1  -2 -12   13.00    3.70
  -2  -2 -12   81.29    6.80
  -2  -2 -12   83.79    5.60
  -2  -2 -12   85.59    6.00
  -3  -2 -12   97.19    7.80
  -3  -2 -12   84.39    6.00
  -4  -2 -12   13.60    3.50
  -4  -2 -12   12.40    2.60
  -5  -2 -12    5.50    2.60
  -5  -2 -12    9.70    2.60
   5   2  12   -0.30    2.10
  -6  -2 -12    4.10    2.70
  -6  -2 -12   11.10    2.80
   6   2  12    0.00    2.00
   3  -3 -12   25.80    4.00
   3  -3 -12   34.90    5.40
   2  -3 -12   58.99    5.80
   2  -3 -12   46.40    4.90
   1  -3 -12    3.50    1.90
   1  -3 -12    4.10    2.50
   0  -3 -12   63.89    5.00
   0  -3 -12   72.69    6.30
   0   3  12   68.09    6.60
  -1  -3 -12   23.90    4.10
  -1  -3 -12   21.00    2.20
  -1  -3 -12   17.60    3.00
   1   3  12   26.90    5.10
  -2  -3 -12   94.19    5.50
  -2  -3 -12  108.29    8.10
  -2  -3 -12   95.69    6.10
  -3  -3 -12   11.60    3.70
  -3  -3 -12    9.90    2.60
  -4  -3 -12   -0.70    1.20
  -4  -3 -12   -3.00    2.20
   4   3  12    0.40    2.50
  -5  -3 -12   -0.30    1.90
  -5  -3 -12    0.40    1.30
   5   3  12   -0.90    2.20
  -6  -3 -12   20.70    4.20
  -6  -3 -12   27.80    3.90
   2  -4 -12   41.10    5.60
   2  -4 -12   43.10    4.60
   1  -4 -12   -0.60    1.80
   1  -4 -12    0.90    1.40
   0  -4 -12    9.10    3.20
   0  -4 -12    9.90    2.50
  -1  -4 -12   30.10    4.50
  -1  -4 -12   27.50    3.50
   1   4  12   28.10    5.20
  -2  -4 -12    3.70    3.10
  -2  -4 -12    2.10    1.50
  -2  -4 -12    0.70    1.50
   2   4  12    6.20    3.40
  -3  -4 -12    7.40    2.20
  -3  -4 -12    8.30    2.10
  -3  -4 -12    4.60    3.20
   3   4  12    5.80    3.00
  -4  -4 -12   -1.50    1.70
  -4  -4 -12   -1.60    1.40
   4   4  12   -3.10    2.00
  -5  -4 -12    0.50    1.40
  -5  -4 -12   -1.90    1.90
   5   4  12   -0.30    1.70
   1  -5 -12   -2.30    2.00
   0  -5 -12   15.00    4.00
  -1  -5 -12    5.70    3.50
   1   5  12   -2.30    2.40
  -2  -5 -12   18.30    4.00
   2   5  12   17.50    4.30
  -3  -5 -12   -0.80    1.90
  -3  -5 -12   -0.40    1.60
   3   5  12   -1.30    1.90
  -4  -5 -12   -0.70    2.60
   4   5  12   -0.50    2.50
  -5  -5 -12    1.90    2.90
   5   5  12    0.20    2.50
   0  -6 -12    5.70    2.90
  -1  -6 -12   68.09    7.40
  -2  -6 -12   30.80    5.10
   2   6  12   30.80    5.80
  -3  -6 -12   -2.50    1.80
   3   6  12   -2.70    2.40
  -4  -6 -12    5.30    3.30
   4   6  12   12.60    4.40
   2   4 -13    0.50    2.10
   2   4 -13   -0.20    1.80
  -2  -4  13   -1.50    3.00
   1   4 -13   38.20    4.70
   1   4 -13   39.30    4.90
   0   4 -13   23.90    4.20
  -1   4 -13   12.30    3.50
  -1   4 -13    8.40    2.60
   1  -4  13    2.10    3.00
   3   3 -13    3.60    2.30
  -3  -3  13   -2.90    2.80
   2   3 -13   -1.10    1.80
   2   3 -13    2.50    1.90
   2   3 -13   -2.60    2.00
  -2  -3  13   -0.10    3.50
   1   3 -13   13.70    3.10
   1   3 -13   17.30    3.50
   1   3 -13   19.10    3.60
   0   3 -13   30.00    3.90
   0   3 -13   24.90    3.80
   0   3 -13   30.10    4.10
  -1   3 -13   10.00    2.60
  -1   3 -13   12.10    2.80
  -1   3 -13    9.70    3.10
  -2   3 -13    9.70    2.80
  -2   3 -13   14.90    3.40
  -2   3 -13   11.40    3.00
  -3   3 -13   82.59    7.10
  -3   3 -13   73.39    7.80
   3   2 -13   -1.90    1.70
  -3  -2  13   -2.40    2.40
   2   2 -13    2.70    2.80
   2   2 -13    2.80    3.10
   2   2 -13    3.20    1.70
  -2  -2  13   -3.10    3.60
   1   2 -13    2.10    2.20
   1   2 -13    5.90    2.90
   1   2 -13    8.70    2.50
  -1  -2  13    1.50    2.80
   0   2 -13   15.30    3.20
   0   2 -13   20.90    3.50
   0   2 -13   17.70    3.50
  -1   2 -13    1.60    1.80
  -1   2 -13    2.40    2.40
  -1   2 -13   -0.20    2.10
   1  -2  13   -1.10    2.80
  -2   2 -13    3.50    2.00
  -2   2 -13    3.90    2.20
  -2   2 -13   -2.90    2.20
   2  -2  13   -1.00    2.60
  -3   2 -13    0.70    2.60
  -3   2 -13    2.90    2.60
  -3   2 -13   -0.60    1.90
   3  -2  13   -0.80    2.60
   3   1 -13    1.60    2.00
   3   1 -13   -2.40    2.20
  -3  -1  13    4.50    3.70
   2   1 -13    5.70    2.70
   2   1 -13    9.40    3.70
  -2  -1  13   -0.60    2.70
   1   1 -13    5.10    3.00
   1   1 -13    7.10    2.10
   1   1 -13    2.30    2.10
  -1  -1  13    0.60    2.60
   0   1 -13   29.30    4.40
   0   1 -13   31.30    4.10
   0   1 -13   27.00    3.60
  -1   1 -13  125.89    8.00
  -1   1 -13  115.99    7.30
  -2   1 -13   80.79    7.20
  -2   1 -13   91.89    6.70
  -2   1 -13   82.99    6.40
  -3   1 -13   23.60    4.40
  -3   1 -13   16.10    3.20
  -4   1 -13   19.60    4.00
  -4   1 -13   22.40    3.70
   3   0 -13   16.90    3.50
   3   0 -13   22.90    4.80
   2   0 -13    2.10    2.00
   2   0 -13    4.40    2.70
  -2   0  13   -1.70    2.80
   1   0 -13    5.30    2.90
   1   0 -13    6.10    2.60
  -1   0  13   -0.60    2.90
   0   0 -13   21.60    3.50
   0   0 -13   23.90    4.30
   0   0 -13   22.50    3.10
  -1   0 -13  173.38   10.40
  -1   0 -13  169.78    8.70
  -2   0 -13  306.47   14.30
  -2   0 -13  303.57   13.40
  -3   0 -13   26.70    3.90
  -3   0 -13   31.40    4.70
  -4   0 -13    0.80    2.90
  -4   0 -13    2.90    2.50
   4   0  13    0.40    2.30
   3  -1 -13   81.69    6.70
   3  -1 -13  111.29    9.00
   2  -1 -13   65.19    6.20
   2  -1 -13   50.89    5.00
   1  -1 -13    1.60    1.80
   1  -1 -13   -5.00    2.10
  -1   1  13   -0.80    2.30
   0  -1 -13    1.00    1.50
   0  -1 -13   -2.00    2.00
   0  -1 -13   -1.10    1.60
   0   1  13    0.40    3.30
  -1  -1 -13    9.30    2.50
  -1  -1 -13    8.10    2.40
  -1  -1 -13   13.50    3.40
   1   1  13    0.50    3.20
  -2  -1 -13   -3.20    2.00
  -2  -1 -13    3.70    3.10
  -2  -1 -13   -0.90    1.70
   2   1  13    0.90    3.40
  -3  -1 -13    1.30    2.40
  -3  -1 -13   -0.80    1.60
   3   1  13   -0.20    2.80
  -4  -1 -13    1.00    1.70
  -4  -1 -13    0.70    2.60
   4   1  13    0.70    2.50
  -5  -1 -13    3.00    2.40
  -5  -1 -13   -0.50    2.60
   5   1  13   -2.30    2.20
   2  -2 -13    0.90    1.60
   2  -2 -13   -0.50    2.10
   1  -2 -13   30.80    4.60
   1  -2 -13   24.20    3.80
   0  -2 -13   79.09    6.10
   0  -2 -13   90.29    7.70
  -1  -2 -13    3.50    2.40
  -1  -2 -13    4.10    2.80
  -1  -2 -13    5.90    1.90
   1   2  13    0.20    3.20
  -2  -2 -13   42.20    4.50
  -2  -2 -13   56.59    5.90
  -2  -2 -13   53.09    4.50
  -3  -2 -13   82.59    7.10
  -3  -2 -13   81.59    5.80
  -3  -2 -13   77.89    6.10
  -4  -2 -13   14.50    3.00
  -4  -2 -13   12.50    3.90
  -5  -2 -13    5.80    2.90
  -5  -2 -13    1.20    2.10
   5   2  13   -2.70    2.20
   2  -3 -13    0.50    1.50
   2  -3 -13   -0.50    2.30
   1  -3 -13    7.80    2.30
   1  -3 -13   10.50    3.60
   0  -3 -13   49.20    5.80
   0   3  13   44.00    5.60
  -1  -3 -13   12.20    3.90
  -1  -3 -13   11.60    2.80
   1   3  13    5.00    3.50
  -2  -3 -13    5.20    2.90
  -2  -3 -13    6.20    2.10
  -2  -3 -13    8.00    2.30
   2   3  13   -0.40    2.60
  -3  -3 -13   97.59    8.30
  -3  -3 -13   98.19    6.40
  -3  -3 -13  100.99    6.30
  -4  -3 -13   34.70    5.10
  -4  -3 -13   33.20    4.20
   1  -4 -13    1.90    2.50
   1  -4 -13    0.20    1.50
   0  -4 -13   15.50    3.90
   0  -4 -13    7.10    2.40
  -1  -4 -13    6.80    2.40
  -1  -4 -13    3.40    2.70
   1   4  13    6.50    3.50
  -2  -4 -13   53.49    4.00
  -2  -4 -13   47.30    5.80
  -2  -4 -13   41.60    4.50
   2   4  13   51.09    6.20
  -3  -4 -13   -1.20    1.30
  -3  -4 -13    0.80    1.90
  -3  -4 -13    4.90    3.40
   3   4  13    0.90    3.20
  -4  -4 -13   43.00    4.30
  -4  -4 -13   49.10    6.00
  -1  -5 -13   20.90    4.70
   1   5  13   32.00    6.10
  -2  -5 -13    7.70    3.60
   2   5  13    7.50    3.90
  -3  -5 -13   25.40    2.90
  -3  -5 -13   24.00    4.70
   3   5  13   30.70    6.00
   1   2 -14   -1.00    1.80
   1   2 -14    0.50    1.90
   1   2 -14    1.80    2.20
  -1  -2  14    0.50    3.60
   0   2 -14    1.00    2.20
   0   2 -14    3.30    2.70
   0   2 -14    2.50    2.00
   0  -2  14    4.40    3.40
  -1   2 -14   12.70    3.40
  -1   2 -14   15.60    3.30
  -1   2 -14   17.60    3.50
   1   1 -14   48.80    5.40
   1   1 -14   60.49    4.20
   1   1 -14   56.19    5.70
   0   1 -14   24.00    4.30
   0   1 -14   19.20    3.50
   0   1 -14   29.10    3.90
  -1   1 -14    2.10    2.30
  -1   1 -14    1.60    1.80
  -1   1 -14   -0.60    2.70
   1  -1  14   -3.40    2.80
  -2   1 -14    5.60    2.60
  -2   1 -14   16.20    4.00
  -2   1 -14    7.00    2.60
   2  -1  14   -1.70    3.00
   1   0 -14   47.80    5.50
   1   0 -14   51.29    5.20
   0   0 -14   25.50    3.50
   0   0 -14   19.80    3.60
   0   0 -14   21.60    4.20
  -1   0 -14    5.70    2.60
  -1   0 -14    1.70    1.90
  -1   0 -14    3.20    2.60
   1   0  14   -1.80    2.50
  -2   0 -14   -0.50    2.00
  -2   0 -14    2.50    2.50
  -2   0 -14    6.30    3.10
   2   0  14    2.90    2.90
  -3   0 -14    0.00    2.10
  -3   0 -14   -0.40    1.70
  -3   0 -14   -1.20    2.50
   3   0  14    1.00    2.90
   1  -1 -14   -1.50    1.50
   1  -1 -14    0.20    2.40
  -1   1  14   -1.60    2.90
   0  -1 -14    4.80    2.20
   0  -1 -14    5.00    3.00
   0   1  14   -2.20    2.50
  -1  -1 -14   21.30    4.60
  -1  -1 -14   16.90    3.40
  -1  -1 -14   26.90    3.50
  -2  -1 -14    0.00    3.00
  -2  -1 -14    0.00    1.70
  -2  -1 -14    3.10    2.20
   2   1  14   -0.70    3.30
  -3  -1 -14    0.90    1.80
  -3  -1 -14    2.00    2.70
  -3  -1 -14    3.40    1.90
   3   1  14   -1.10    2.80
   0  -2 -14   10.10    3.70
   0  -2 -14   13.00    2.90
   0   2  14    3.50    3.80
  -1  -2 -14   29.90    3.10
  -1  -2 -14   26.70    3.90
  -1  -2 -14   26.30    4.90
  -2  -2 -14   16.10    2.90
  -2  -2 -14   14.90    3.00
  -2  -2 -14   16.70    4.10
  -3  -2 -14   10.20    2.80
  -3  -2 -14   10.50    2.90
  -3  -2 -14   11.20    3.40
  -1  -3 -14   12.10    4.10
  -1  -3 -14   12.10    3.00
  -2  -3 -14    6.20    3.00
  -2  -3 -14    4.50    2.20
  -2  -3 -14    5.20    1.80
   2   3  14    4.00    3.40
   0   0   0    0.00    0.00

_computing_structure_solution     'SHELXT 2014/5 (Sheldrick, 2014)'
;
loop_
_space_group_symop_operation_xyz
'x, y, z'
'-x, -y, -z'
loop_
_atom_site_label
_atom_site_type_symbol
_atom_site_fract_x
_atom_site_fract_y
_atom_site_fract_z
_atom_site_U_iso_or_equiv
_atom_site_adp_type
_atom_site_occupancy
_atom_site_site_symmetry_order
_atom_site_calc_flag
_atom_site_refinement_flags_posn
_atom_site_refinement_flags_adp
_atom_site_refinement_flags_occupancy
_atom_site_disorder_assembly
_atom_site_disorder_group
Cl1 Cl 0.7550(2) 0.49284(18) 0.54770(12) 0.0839(5) Uani 1 1 d . . . . .
Cl2 Cl 0.90930(15) 0.55206(16) 0.75977(15) 0.0835(5) Uani 1 1 d . . . . .
Cl3 Cl 0.40860(17) 0.21146(16) 0.73492(11) 0.0691(4) Uani 1 1 d . . . . .
Cl4 Cl 0.47021(19) 0.31270(15) 0.96232(10) 0.0701(4) Uani 1 1 d . . . . .
P1 P 0.69616(13) 0.52794(12) 0.70940(10) 0.0471(3) Uani 1 1 d . . . . .
P2 P 0.37048(12) 0.67310(12) 0.75183(9) 0.0423(3) Uani 1 1 d . . . . .
P3 P 0.47161(13) 0.37870(12) 0.80459(9) 0.0440(3) Uani 1 1 d . . . . .
O1 O 0.2621(4) 0.7239(3) 0.6501(2) 0.0491(7) Uani 1 1 d . . . . .
O2 O 0.3009(3) 0.7955(3) 0.8391(2) 0.0452(7) Uani 1 1 d . . . . .
N1 N 0.5609(4) 0.6760(4) 0.7261(3) 0.0499(9) Uani 1 1 d . . . . .
N2 N 0.3307(4) 0.5200(4) 0.7903(3) 0.0545(10) Uani 1 1 d . . . . .
N3 N 0.6571(4) 0.3820(4) 0.7633(4) 0.0614(11) Uani 1 1 d . . . . .
C1 C 0.2223(5) 0.8737(5) 0.6179(3) 0.0454(10) Uani 1 1 d . . . . .
C2 C 0.2971(6) 0.9151(6) 0.5203(4) 0.0603(13) Uani 1 1 d . . . . .
H2 H 0.379369 0.848593 0.480391 0.072 Uiso 1 1 calc R . . . .
C3 C 0.2465(7) 1.0585(7) 0.4832(4) 0.0708(15) Uani 1 1 d . . . . .
H3 H 0.296145 1.088996 0.417997 0.085 Uiso 1 1 calc R . . . .
C4 C 0.1234(7) 1.1564(6) 0.5420(5) 0.0713(15) Uani 1 1 d . . . . .
H4 H 0.088333 1.251484 0.515246 0.086 Uiso 1 1 calc R . . . .
C5 C 0.0522(6) 1.1140(5) 0.6399(4) 0.0599(12) Uani 1 1 d . . . . .
H5 H -0.030169 1.181351 0.678983 0.072 Uiso 1 1 calc R . . . .
C6 C 0.1011(5) 0.9714(5) 0.6823(4) 0.0447(9) Uani 1 1 d . . . . .
C7 C 0.0274(5) 0.9245(5) 0.7882(4) 0.0444(9) Uani 1 1 d . . . . .
C8 C -0.1430(5) 0.9699(5) 0.8192(4) 0.0590(12) Uani 1 1 d . . . . .
H8 H -0.212363 1.029860 0.771760 0.071 Uiso 1 1 calc R . . . .
C9 C -0.2088(6) 0.9267(6) 0.9194(5) 0.0698(14) Uani 1 1 d . . . . .
H9 H -0.322130 0.957077 0.938629 0.084 Uiso 1 1 calc R . . . .
C10 C -0.1080(7) 0.8391(7) 0.9907(5) 0.0701(14) Uani 1 1 d . . . . .
H10 H -0.153991 0.810824 1.057989 0.084 Uiso 1 1 calc R . . . .
C11 C 0.0621(6) 0.7921(6) 0.9639(4) 0.0575(12) Uani 1 1 d . . . . .
H11 H 0.130736 0.732976 1.012123 0.069 Uiso 1 1 calc R . . . .
C12 C 0.1251(5) 0.8362(5) 0.8633(3) 0.0437(9) Uani 1 1 d . . . . .
loop_
_atom_site_aniso_label
_atom_site_aniso_U_11
_atom_site_aniso_U_22
_atom_site_aniso_U_33
_atom_site_aniso_U_23
_atom_site_aniso_U_13
_atom_site_aniso_U_12
Cl1 0.0950(11) 0.0834(10) 0.0729(9) -0.0157(7) 0.0215(8) -0.0263(8)
Cl2 0.0392(6) 0.0749(9) 0.1410(14) -0.0116(9) -0.0213(8) -0.0160(6)
Cl3 0.0704(8) 0.0767(9) 0.0683(8) -0.0192(6) -0.0003(6) -0.0326(7)
Cl4 0.0902(10) 0.0767(9) 0.0535(7) 0.0147(6) -0.0217(6) -0.0366(7)
P1 0.0296(5) 0.0435(6) 0.0676(7) -0.0001(5) 0.0011(5) -0.0086(4)
P2 0.0312(5) 0.0464(6) 0.0466(6) 0.0025(5) -0.0053(4) -0.0029(4)
P3 0.0355(6) 0.0462(6) 0.0516(6) 0.0064(5) -0.0054(5) -0.0122(5)
O1 0.0483(17) 0.0520(17) 0.0437(15) -0.0054(13) -0.0126(13) -0.0005(13)
O2 0.0362(15) 0.0550(18) 0.0425(15) -0.0051(13) -0.0085(12) -0.0037(12)
N1 0.0385(19) 0.042(2) 0.067(2) 0.0036(17) 0.0013(17) -0.0078(15)
N2 0.0288(17) 0.059(2) 0.074(3) 0.0111(19) -0.0015(17) -0.0105(16)
N3 0.0342(19) 0.048(2) 0.098(3) 0.015(2) 0.001(2) -0.0057(16)
C1 0.038(2) 0.058(3) 0.041(2) 0.0035(19) -0.0145(17) -0.0094(19)
C2 0.052(3) 0.089(4) 0.042(2) 0.004(2) -0.009(2) -0.020(3)
C3 0.068(3) 0.094(4) 0.059(3) 0.024(3) -0.019(3) -0.037(3)
C4 0.064(3) 0.066(3) 0.090(4) 0.028(3) -0.029(3) -0.023(3)
C5 0.046(3) 0.053(3) 0.081(3) 0.010(2) -0.018(2) -0.010(2)
C6 0.032(2) 0.048(2) 0.055(2) -0.0017(19) -0.0128(18) -0.0066(17)
C7 0.037(2) 0.043(2) 0.054(2) -0.0082(18) -0.0063(18) -0.0077(17)
C8 0.037(2) 0.059(3) 0.077(3) -0.008(2) -0.001(2) -0.002(2)
C9 0.043(3) 0.072(3) 0.091(4) -0.014(3) 0.016(3) -0.012(2)
C10 0.066(3) 0.082(4) 0.065(3) -0.013(3) 0.019(3) -0.029(3)
C11 0.059(3) 0.066(3) 0.050(2) -0.003(2) -0.001(2) -0.019(2)
C12 0.039(2) 0.048(2) 0.045(2) -0.0108(18) -0.0024(17) -0.0085(18)
loop_
_atom_type_symbol
_atom_type_description
_atom_type_scat_dispersion_real
_atom_type_scat_dispersion_imag
_atom_type_scat_source
C C 0.0033 0.0016 'International Tables Vol C Tables 4.2.6.8 and 6.1.1.4'
H H 0.0000 0.0000 'International Tables Vol C Tables 4.2.6.8 and 6.1.1.4'
Cl Cl 0.1484 0.1585 'International Tables Vol C Tables 4.2.6.8 and 6.1.1.4'
N N 0.0061 0.0033 'International Tables Vol C Tables 4.2.6.8 and 6.1.1.4'
O O 0.0106 0.0060 'International Tables Vol C Tables 4.2.6.8 and 6.1.1.4'
P P 0.1023 0.0942 'International Tables Vol C Tables 4.2.6.8 and 6.1.1.4'
loop_
_geom_angle_atom_site_label_1
_geom_angle_atom_site_label_2
_geom_angle_atom_site_label_3
_geom_angle
_geom_angle_site_symmetry_1
_geom_angle_site_symmetry_3
Cl2 P1 Cl1 101.76(9) . .
N1 P1 Cl1 109.81(16) . .
N1 P1 Cl2 109.33(15) . .
N1 P1 N3 118.7(2) . .
N3 P1 Cl1 107.50(19) . .
N3 P1 Cl2 108.36(16) . .
O1 P2 N1 113.19(19) . .
O1 P2 N2 104.79(19) . .
O2 P2 O1 103.89(15) . .
O2 P2 N1 105.47(18) . .
O2 P2 N2 112.3(2) . .
N1 P2 N2 116.65(18) . .
Cl4 P3 Cl3 100.73(7) . .
N2 P3 Cl3 108.76(16) . .
N2 P3 Cl4 109.97(17) . .
N2 P3 N3 119.1(2) . .
N3 P3 Cl3 108.95(18) . .
N3 P3 Cl4 107.76(17) . .
C1 O1 P2 120.0(3) . .
C12 O2 P2 117.9(2) . .
P1 N1 P2 120.2(2) . .
P3 N2 P2 122.2(2) . .
P3 N3 P1 119.2(2) . .
C2 C1 O1 118.1(4) . .
C2 C1 C6 122.8(4) . .
C6 C1 O1 118.9(4) . .
C1 C2 C3 118.3(5) . .
C4 C3 C2 120.7(5) . .
C5 C4 C3 120.3(5) . .
C4 C5 C6 121.4(5) . .
C1 C6 C7 121.4(4) . .
C5 C6 C1 116.6(4) . .
C5 C6 C7 122.1(4) . .
C8 C7 C6 121.7(4) . .
C12 C7 C6 121.3(4) . .
C12 C7 C8 116.9(4) . .
C9 C8 C7 120.7(5) . .
C10 C9 C8 120.4(5) . .
C9 C10 C11 120.9(5) . .
C12 C11 C10 117.7(5) . .
C7 C12 O2 119.1(4) . .
C11 C12 O2 117.5(4) . .
C11 C12 C7 123.3(4) . .
loop_
_geom_bond_atom_site_label_1
_geom_bond_atom_site_label_2
_geom_bond_distance
_geom_bond_site_symmetry_2
Cl1 P1 2.009(2) .
Cl2 P1 1.9763(17) .
Cl3 P3 1.9972(17) .
Cl4 P3 1.9963(17) .
P1 N1 1.583(4) .
P1 N3 1.585(4) .
P2 O1 1.584(3) .
P2 O2 1.571(3) .
P2 N1 1.588(4) .
P2 N2 1.591(4) .
P3 N2 1.571(4) .
P3 N3 1.583(4) .
O1 C1 1.418(5) .
O2 C12 1.427(5) .
C1 C2 1.379(6) .
C1 C6 1.403(6) .
C2 C3 1.387(8) .
C3 C4 1.378(8) .
C4 C5 1.372(7) .
C5 C6 1.400(6) .
C6 C7 1.477(6) .
C7 C8 1.402(6) .
C7 C12 1.393(6) .
C8 C9 1.380(8) .
C9 C10 1.372(8) .
C10 C11 1.392(7) .
C11 C12 1.379(6) .
