#------------------------------------------------------------------------------
#$Date: 2022-01-01 07:13:54 +0200 (Sat, 01 Jan 2022) $
#$Revision: 271676 $
#$URL: file:///home/coder/svn-repositories/cod/cif/1/56/58/1565874.cif $
#------------------------------------------------------------------------------
#
# This file is available in the Crystallography Open Database (COD),
# http://www.crystallography.net/. The original data for this entry
# were provided by IUCr Journals, http://journals.iucr.org/.
#
# The file may be used within the scientific community so long as
# proper attribution is given to the journal article from which the
# data were obtained.
#
data_1565874
loop_
_publ_author_name
'Olejniczak, Anna'
'Katrusiak, Anna'
'Podsiad\/lo, Marcin'
'Katrusiak, Andrzej'
_publ_section_title
;
 Stochastic hydration of a high-nitrogen-content molecular compound
 recrystallized under pressure
;
_journal_issue                   1
_journal_name_full               IUCrJ
_journal_page_first              49
_journal_page_last               54
_journal_paper_doi               10.1107/S2052252521010381
_journal_volume                  9
_journal_year                    2022
_chemical_formula_moiety         'C4 H2 Cl N5'
_chemical_formula_sum            'C4 H2 Cl N5'
_chemical_formula_weight         155.56
_chemical_name_systematic        6-chloro-1,2,3,4-tetrazolo[1,5-b]pyridazine
_space_group_crystal_system      orthorhombic
_space_group_IT_number           19
_space_group_name_Hall           'P 2ac 2ab'
_space_group_name_H-M_alt        'P 21 21 21'
_atom_sites_solution_hydrogens   geom
_atom_sites_solution_primary     direct
_audit_creation_date             2021-05-17
_audit_creation_method
;
Olex2 1.3
(compiled 2020.11.12 svn.r5f609507 for OlexSys, GUI svn.r6272)
;
_cell_angle_alpha                90
_cell_angle_beta                 90
_cell_angle_gamma                90
_cell_formula_units_Z            4
_cell_length_a                   7.0753(7)
_cell_length_b                   8.7825(7)
_cell_length_c                   10.099(10)
_cell_measurement_reflns_used    958
_cell_measurement_temperature    296
_cell_measurement_theta_max      22.9020
_cell_measurement_theta_min      4.1930
_cell_volume                     627.5(6)
_computing_cell_refinement       'CrysAlisPro 1.171.40.67a (Rigaku OD, 2019)'
_computing_data_collection       'CrysAlisPro 1.171.40.67a (Rigaku OD, 2019)'
_computing_data_reduction        'CrysAlisPro 1.171.40.67a (Rigaku OD, 2019)'
_computing_molecular_graphics    'Olex2 1.3 (Dolomanov et al., 2009)'
_computing_publication_material  'Olex2 1.3 (Dolomanov et al., 2009)'
_computing_structure_refinement  'SHELXL 2018/3 (Sheldrick, 2015)'
_computing_structure_solution    'SHELXT 2018/2 (Sheldrick, 2018)'
_diffrn_ambient_environment      'diamond-anvil cell'
_diffrn_ambient_pressure         100
_diffrn_ambient_temperature      296
_diffrn_detector                 'CCD plate'
_diffrn_detector_area_resol_mean 16.2413
_diffrn_detector_type            Eos
_diffrn_measured_fraction_theta_full 0.403
_diffrn_measured_fraction_theta_max 0.366
_diffrn_measurement_details
;
List of Runs (angles in degrees, time in seconds):

  # Type    Start    End  Width  t~exp~   \w     \q     \k     \f   Frames
--------------------------------------------------------------------------
  1  \f    -35.00  19.75   0.75   35.00   0.00 -30.00   0.00    --    73
  2  \f    140.00 200.00   0.75   35.00   0.00 -30.00   0.00    --    80
  3  \f    160.00 217.00   0.75   35.00   0.00  30.00   0.00    --    76
  4  \f    -20.00  34.75   0.75   35.00   0.00  30.00   0.00    --    73
  5  \w    -24.00  24.00   0.75   35.00    --   30.00  39.46 -12.90   64
  6  \w    -24.00  24.00   0.75   35.00    --   30.00  39.46 167.10   64
  7  \w    -50.00  10.00   0.75   35.00    --  -30.00  39.46 167.10   80
  8  \w    -50.00  10.00   0.75   35.00    --  -30.00  39.46 -12.90   80
  9  \w    -64.00  -8.50   0.75   35.00    --  -30.00  81.40 -28.90   74
 10  \w    -64.00  -8.50   0.75   35.00    --  -30.00  81.40 151.10   74
 11  \w    -19.00   8.00   0.75   35.00    --   30.00  81.40 151.10   36
 12  \w    -19.00   8.00   0.75   35.00    --   30.00  81.40 -28.90   36
 13  \w    -43.00 -21.25   0.75   35.00    --   30.00 134.60 -56.90   29
 14  \w    -43.00 -21.25   0.75   35.00    --   30.00 134.60 123.10   29
 15  \w    -90.00 -36.00   0.75   35.00    --  -30.00 134.60 123.10   72
 16  \w    -90.00 -36.00   0.75   35.00    --  -30.00 134.60 -56.90   72
;
_diffrn_measurement_device       'four-circle diffractometer'
_diffrn_measurement_device_type  'KM-4 CCD'
_diffrn_measurement_method
;
HP omega scans - for more details see:
A. Budzianowski, A. Katrusiak in High-Pressure Crystallography
(Eds.: A. Katrusiak, P. F. McMillan),
Dordrecht: Kluwer Acad. Publ., 2004 pp.157-168       
;
_diffrn_orient_matrix_type
'CrysAlisPro convention (1999,Acta A55,543-557)'
_diffrn_orient_matrix_UB_11      0.0112419000
_diffrn_orient_matrix_UB_12      -0.0070319000
_diffrn_orient_matrix_UB_13      -0.0694676000
_diffrn_orient_matrix_UB_21      0.0953191000
_diffrn_orient_matrix_UB_22      -0.0227209000
_diffrn_orient_matrix_UB_23      0.0093381000
_diffrn_orient_matrix_UB_31      -0.0290168000
_diffrn_orient_matrix_UB_32      -0.0772388000
_diffrn_orient_matrix_UB_33      0.0034090000
_diffrn_radiation_monochromator  graphite
_diffrn_radiation_probe          x-ray
_diffrn_radiation_type           'Mo K\a'
_diffrn_radiation_wavelength     0.71073
_diffrn_reflns_av_R_equivalents  0.0403
_diffrn_reflns_av_unetI/netI     0.0344
_diffrn_reflns_Laue_measured_fraction_full 0.403
_diffrn_reflns_Laue_measured_fraction_max 0.366
_diffrn_reflns_limit_h_max       8
_diffrn_reflns_limit_h_min       -8
_diffrn_reflns_limit_k_max       11
_diffrn_reflns_limit_k_min       -11
_diffrn_reflns_limit_l_max       3
_diffrn_reflns_limit_l_min       -3
_diffrn_reflns_number            3465
_diffrn_reflns_point_group_measured_fraction_full 0.390
_diffrn_reflns_point_group_measured_fraction_max 0.348
_diffrn_reflns_theta_full        25.242
_diffrn_reflns_theta_max         26.963
_diffrn_reflns_theta_min         4.213
_diffrn_source                   'fine-focus sealed X-ray tube'
_diffrn_source_type              'Enhance (Mo) X-ray Source'
_exptl_absorpt_coefficient_mu    0.525
_exptl_absorpt_correction_T_max  1.00000
_exptl_absorpt_correction_T_min  0.30067
_exptl_absorpt_correction_type   multi-scan
_exptl_absorpt_process_details
;
CrysAlisPro 1.171.40.67a (Rigaku Oxford Diffraction, 2019)
Empirical absorption correction using spherical harmonics,
 implemented in SCALE3 ABSPACK scaling algorithm.
;
_exptl_crystal_colour            colorless
_exptl_crystal_density_diffrn    1.647
_exptl_crystal_description       plate
_exptl_crystal_F_000             312
_exptl_crystal_size_max          0.30
_exptl_crystal_size_mid          0.30
_exptl_crystal_size_min          0.11
_refine_diff_density_max         0.087
_refine_diff_density_min         -0.090
_refine_diff_density_rms         0.023
_refine_ls_abs_structure_details
;
 Flack x determined using 108 quotients [(I+)-(I-)]/[(I+)+(I-)]
 (Parsons, Flack and Wagner, Acta Cryst. B69 (2013) 249-259).
;
_refine_ls_abs_structure_Flack   0.54(7)
_refine_ls_extinction_method     none
_refine_ls_goodness_of_fit_ref   1.038
_refine_ls_hydrogen_treatment    constr
_refine_ls_matrix_type           full
_refine_ls_number_parameters     91
_refine_ls_number_reflns         475
_refine_ls_number_restraints     0
_refine_ls_restrained_S_all      1.038
_refine_ls_R_factor_all          0.0620
_refine_ls_R_factor_gt           0.0318
_refine_ls_shift/su_max          0.000
_refine_ls_shift/su_mean         0.000
_refine_ls_structure_factor_coef Fsqd
_refine_ls_weighting_details
'w=1/[\s^2^(Fo^2^)+(0.0239P)^2^+0.1128P] where P=(Fo^2^+2Fc^2^)/3'
_refine_ls_weighting_scheme      calc
_refine_ls_wR_factor_gt          0.0518
_refine_ls_wR_factor_ref         0.0610
_reflns_Friedel_coverage         0.594
_reflns_Friedel_fraction_full    0.370
_reflns_Friedel_fraction_max     0.323
_reflns_number_gt                347
_reflns_number_total             475
_reflns_threshold_expression     'I > 2\s(I)'
_cod_data_source_file            lt5042.cif
_cod_data_source_block           C4H2N5Cl1@0_0001GPa_phase_alpha
_cod_database_code               1565874
_shelx_shelxl_version_number     2018/3
_chemical_oxdiff_formula         C4H2N5Cl1
_shelx_space_group_comment
;
The symmetry employed for this shelxl refinement is uniquely defined
by the following loop, which should always be used as a source of
symmetry information in preference to the above space-group names.
They are only intended as comments.
;
_reflns_odcompleteness_completeness 36.78
_reflns_odcompleteness_iscentric 1
_reflns_odcompleteness_theta     26.90
_olex2_refinement_description
;
1. Fixed Uiso
 At 1.2 times of:
  All C(H) groups
2.a Aromatic/amide H refined with riding coordinates:
 C7(H7), C8(H8)
;
_shelx_res_file
;
TITL 1a_a.res in P2(1)2(1)2(1)
    1a.res
    created by SHELXL-2018/3 at 10:38:52 on 17-May-2021
REM Old TITL 1a in P2(1)2(1)2(1)
REM SHELXT solution in P2(1)2(1)2(1): R1 0.156, Rweak 0.155, Alpha 0.065
REM <I/s> 0.658 for 7 systematic absences, Orientation as input
REM Flack x = 0.492 ( 0.072 ) from 110 Parsons' quotients
REM Formula found by SHELXT: C6 N3 Cl
CELL 0.71073 7.0753 8.7825 10.0988 90 90 90
ZERR 4 0.0007 0.0007 0.0102 0 0 0
LATT -1
SYMM 0.5-X,-Y,0.5+Z
SYMM -X,0.5+Y,0.5-Z
SYMM 0.5+X,0.5-Y,-Z
SFAC C H Cl N
UNIT 16 8 4 20

L.S. 44
PLAN  5
CONF
BOND
list 4
MORE -1
BOND $H
fmap 2 53
acta
REM <olex2.extras>
REM <HklSrc "%.\\1a.hkl">
REM </olex2.extras>

WGHT    0.023900    0.112800
FVAR       7.34509
CL1   3    0.290466    0.334848    0.320653    11.00000    0.07917    0.03869 =
         0.12198   -0.00335    0.02324   -0.00158
N4    4    0.356324    0.749865    0.412511    11.00000    0.04690    0.04273 =
         0.04412    0.00247   -0.01303   -0.00382
N5    4    0.366846    0.595099    0.421055    11.00000    0.05153    0.04111 =
         0.13319    0.00013    0.00668   -0.00097
N3    4    0.428058    0.839527    0.506240    11.00000    0.07668    0.06617 =
         0.09018   -0.00533   -0.00789   -0.01379
N2    4    0.387802    0.978772    0.465803    11.00000    0.08945    0.05553 =
         0.05732   -0.02525   -0.00711   -0.01439
N1    4    0.296837    0.978929    0.346784    11.00000    0.07828    0.04487 =
         0.06733   -0.01146   -0.00155   -0.00734
C9    1    0.277172    0.834461    0.317736    11.00000    0.04545    0.04064 =
         0.07798    0.00324   -0.00334    0.00089
C7    1    0.201756    0.603601    0.207544    11.00000    0.05957    0.06014 =
         0.05626   -0.01620   -0.00751   -0.00940
AFIX  43
H7    2    0.150825    0.546684    0.138571    11.00000   -1.20000
AFIX   0
C6    1    0.287616    0.531872    0.319164    11.00000    0.04808    0.03871 =
         0.08448    0.00738    0.00958   -0.00087
C8    1    0.197252    0.759412    0.205911    11.00000    0.05598    0.06368 =
         0.06258    0.01725    0.00687    0.00813
AFIX  43
H8    2    0.144889    0.813322    0.135649    11.00000   -1.20000
AFIX   0
HKLF 4




REM  1a_a.res in P2(1)2(1)2(1)
REM wR2 = 0.0610, GooF = S = 1.038, Restrained GooF = 1.038 for all data
REM R1 = 0.0318 for 347 Fo > 4sig(Fo) and 0.0620 for all 475 data
REM 91 parameters refined using 0 restraints

END

WGHT      0.0235      0.1155

REM Highest difference peak  0.087,  deepest hole -0.090,  1-sigma level  0.023
Q1    1   0.4968  0.5415  0.4100  11.00000  0.05    0.09
Q2    1   0.1513  0.6015  0.0625  11.00000  0.05    0.09
Q3    1   0.2139  0.9569  0.3644  11.00000  0.05    0.07
Q4    1   0.2816  0.3049  0.2486  11.00000  0.05    0.07
Q5    1   0.2277  1.0123  0.5931  11.00000  0.05    0.07
;
_shelx_res_checksum              3738
_shelx_hkl_file
;
   0  -2   0 8379.85 327.929  15
   0  -2   0 8291.35 321.447  10
   0   2  -1 56148.3 1130.23  14
   0  -2   1 56609.1 934.415  15
   0  -2   1 57114.3 960.897  16
   0   2  -1 56465.5 1123.08  11
   0  -2   1 57113.6 950.944  10
   0   3   0 11.7694 85.2879  12
   0  -3   0 99.2930 78.9604   7
   0  -3   0 79.7752 96.5799  15
   0  -3   0-48.5318 75.9109   9
   0  -3   0-29.9231 96.4203  10
   0   3   0 70.7422 129.764  13
   0   3   0 20.8101 92.4923   6
   0  -3   0-11.4454 102.028  16
   0   3  -1 13480.5 605.736  14
   0  -3   1 13379.0 528.211  10
   0   3  -1 12524.7 597.517  11
   0  -3  -1 13990.2 536.030  10
   0  -3   1 13144.9 525.290  15
   0  -3   1 13840.5 462.148   7
   0  -3  -1 12902.5 525.655  15
   0  -3   1 13677.7 530.622  16
   0  -3   1 13244.8 466.696   9
   0   3  -1 13399.8 543.083   6
   0   3   1 13122.2 567.923  13
   0  -3  -1 13076.1 519.989  16
   0   3  -2 85453.5 2427.72  11
   0  -3   2 82052.1 1465.48  15
   0  -3   2 82530.7 1494.87  10
   0   4   0 170.503 187.410  13
   0  -4   0 126.978 108.929   9
   0  -4   0 29.1579 152.396  15
   0   4   0 23.0336 133.307  12
   0  -4   0 83.8312 146.197  10
   0   4   0-187.982 165.557   6
   0  -4   0 252.495 110.386   7
   0  -4   0 182.106 162.030  16
   0  -4   1 141794. 1639.93   9
   0   4  -1 140003. 2208.52  11
   0   4   1 137247. 1813.08   6
   0  -4  -1 137163. 1935.57  16
   0  -4   1 134406. 1910.68  15
   0   4  -1 141026. 2205.66  14
   0  -4  -1 140169. 1664.06   9
   0   4   1 136396. 2079.11  13
   0  -4   1 143666. 1945.98  16
   0  -4  -1 136119. 1955.70  15
   0  -4   1 141068. 1673.90   7
   0  -4   1 138147. 1919.73  10
   0  -4  -1 138117. 1929.52  10
   0   4  -1 138770. 1952.77   6
   0  -4   2 3906.74 389.723  15
   0   4  -2 3468.47 581.292  14
   0  -4   2 4761.16 428.037  16
   0   4  -2 3744.73 571.827  11
   0  -4   2 4441.13 419.143  10
   0  -4   2 4224.91 345.795   7
   0   5   0 27.2732 187.055   6
   0   5   0 54.3278 153.034  12
   0  -5   0-98.6981 130.077   7
   0  -5   0 12.6006 131.496   9
   0  -5   0-571.154 244.175  15
   0   5   0-112.299 209.837  13
   0  -5   0-75.2319 168.481  16
   0  -5   0 84.4134 166.207  10
   0  -5   1 24533.1 920.368  16
   0   5   1 24781.3 870.894   6
   0   5  -1 24608.5 1051.15  14
   0   5  -1 23469.6 1042.53  11
   0  -5  -1 23601.4 920.740  15
   0  -5  -1 23420.3 905.364  10
   0   5   1 24442.6 1005.73  13
   0  -5  -1 24834.2 936.044  16
   0  -5  -1 25283.8 794.686   9
   0  -5   1 25460.6 775.192   9
   0   5  -1 24180.2 843.158  12
   0  -5   1 24422.9 904.588  10
   0  -5   1 23905.7 769.561   7
   0  -5   1 24072.0 924.788  15
   0   5  -1 25044.2 943.920   6
   0  -5   2 240.714 180.915  16
   0  -5   2 97.2495 211.223  10
   0  -5   2 256.090 189.157   7
   0   5  -2 285.918 380.658  11
   0   5  -2 127.714 357.759  14
   0  -5   2 12.6856 185.375  15
   0   6   0 40199.7 1187.62   6
   0  -6   0 39627.5 1095.16   7
   0   6   0 38410.0 1340.31  13
   0  -6   0 38982.0 1273.00  15
   0  -6   0 36938.0 1230.08  16
   0  -6   0 38029.6 1240.17  10
   0   6   0 38006.8 1387.41  11
   0  -6  -1 1244.10 308.360  15
   0  -6   1 1537.64 344.644  15
   0   6  -1 1201.33 357.110   6
   0  -6  -1 1043.85 285.971  16
   0  -6  -1 987.499 256.371   9
   0  -6   1 1138.09 293.740  16
   0   6   1 1166.10 347.645  13
   0  -6  -1 1273.40 295.122  10
   0   6  -1 719.090 356.937  11
   0  -6   1 1064.59 322.847  10
   0   6  -1 1109.28 400.487  14
   0  -6   1 753.973 236.211   7
   0   6   1 1139.60 328.023   6
   0  -6   2 7507.40 623.609  15
   0  -6   2 7807.43 613.289  16
   0   6  -2 6151.72 812.718  14
   0  -6   2 8148.49 543.715   7
   0  -6   2 7835.36 631.183  10
   0   6  -2 6726.31 879.039  11
   0  -6   3 1280.08 325.204  10
   0  -6   3 1091.23 314.966  15
   0  -6   3 670.524 223.802   7
   0   7   0 158.413 356.967  11
   0  -7   0-159.140 285.365  15
   0   7   0 46.8065 387.724  13
   0  -7   0 254.339 302.965  10
   0  -7   0 576.509 376.704  16
   0  -7   1-196.127 302.094  16
   0   7   1-270.845 390.264  13
   0   7  -1-448.220 457.087  14
   0  -7   1-47.4011 328.151  15
   0  -7  -1 13.5581 249.738  15
   0  -7  -1 29.7721 268.683  10
   0  -7  -1-106.704 256.466  16
   0  -7   1 354.970 297.474  10
   0   7  -1-21.2821 456.721  11
   0   7  -1 775.098 494.323  13
   0   7  -2-214.954 545.204  14
   0  -7   2-54.7763 256.521  16
   0  -7   2 273.978 305.887  10
   0   7  -2-278.109 601.388  11
   0  -7   2-248.704 326.193  15
   0   7  -3 1103.57 1101.75  11
   0  -7   3 612.096 300.849  10
   0  -7   3 363.263 359.186  15
   0  -8   0 146.394 337.643  15
   0  -8   0 221.903 297.822  10
   0   8   0 67.5373 462.449  11
   0  -8   0 125.888 324.175  16
   0   8   0 696.383 508.118  13
   0   8   0 280.022 521.071  14
   0  -8  -1 19202.5 1089.64  10
   0   8   1 20039.1 1316.91  13
   0   8  -1 19101.6 1381.10  13
   0  -8   1 17715.7 1077.72  15
   0  -8  -1 18786.9 1099.71  15
   0   8  -1 20228.8 1414.77  14
   0  -8   1 18411.7 1067.73  16
   0   8  -1 21219.2 1435.31  11
   0  -8   1 19566.9 1104.07  10
   0  -8  -1 19857.9 1138.58  16
   0  -8   2 1317.86 444.786  10
   0   8  -2 597.580 682.487  13
   0   8  -2 414.762 623.696  14
   0  -8   2 1091.28 393.729  16
   0   8  -2-91.1640 779.383  11
   0  -8   2 1321.53 475.730  15
   0  -8   3 564.675 413.752  10
   0   8  -3 1114.19 1133.15  11
   0  -8   3 626.591 376.421  15
   0   9   0 1131.18 708.686  11
   0   9   0 21.1154 566.898  13
   0  -9   0 1042.28 448.609  16
   0   9   0-743.474 621.304  14
   0  -9   0-75.8098 370.200  10
   0  -9   0 295.007 366.047  15
   0   9  -1 1778.88 739.752  14
   0  -9  -1 1665.41 486.910  15
   0  -9  -1 2276.36 517.700  16
   0   9  -1 2301.25 793.020  13
   0  -9   1 1612.56 512.554  15
   0   9  -1 1517.85 803.994  11
   0  -9   1 989.331 411.453  16
   0  -9  -1 1403.03 436.529  10
   0   9   1 979.979 596.359  11
   0  -9   1 1913.16 436.943  10
   0   9  -2 5189.87 1173.57  11
   0  -9   2 4391.86 609.564  10
   0  -9   2 4605.97 682.368  15
   0  -9   2 3450.47 585.580  16
   0   9  -2 4644.34 1165.98  14
   0   9  -2 3512.42 1004.22  13
   0  -9   3-458.021 420.294  15
   0  -9   3 341.421 397.127  10
   0  10   0 3240.35 844.296  11
   0 -10   0 2652.58 568.924  15
   0  10   0 2666.74 903.120  14
   0 -10   0 3713.23 633.779  10
   0  10   0 3065.17 850.329  13
   0 -10   0 3196.27 649.492  16
   0 -10   1 3072.59 655.072  15
   0  10  -1 3991.68 1092.81  11
   0 -10   1 3281.27 610.119  16
   0  10  -1 4818.69 1218.77  14
   0 -10   1 3736.82 664.225  10
   0  10  -1 4032.75 1086.85  13
   0 -10   2 1391.86 510.148  16
   0  10  -2 2881.78 1277.24  14
   0 -10   2 1245.91 515.538  10
   0 -10   2 400.139 456.639  15
   0  10  -2 1026.22 1124.61  13
   0  10  -2-1085.15 1151.33  11
   0 -10   3 1321.22 566.871  15
   0 -11   0 829.539 543.396  16
   0 -11   0 1216.82 539.928  10
   0 -11   1-347.218 533.614  16
   0 -11   2 219.295 430.346  16
   1   1   1 37187.4 718.529  12
  -1   1  -1 35917.9 775.736   6
   1   2  -1 39319.2 1047.04  14
   1   2  -1 37500.2 1222.31  11
  -1  -2  -1 40561.7 807.182  16
  -1  -2  -1 40274.2 740.360   8
   1  -2   1 39110.1 803.880  10
   1  -2   1 39656.7 814.950   7
   1  -2   1 40008.6 733.927   4
  -1  -2  -1 42835.2 835.144  15
  -1  -2  -1 40423.2 807.967   9
   1  -2   0 36279.9 746.431   7
  -1  -2   0 38224.8 769.773  15
  -1  -2   0 38530.1 771.830  16
  -1   2   0 37263.3 771.464   6
   1  -2   0 36304.7 732.073  10
   1  -2   0 37230.7 653.586   4
  -1  -2   0 39195.4 766.546   9
  -1  -2   1 40768.6 858.557  15
   1   2   1 41097.4 863.414  12
  -1   2  -1 38699.4 735.087   1
  -1  -2   1 37738.5 842.755  16
  -1   2  -1 39087.8 916.335  11
  -1  -2   1 41551.1 838.553   9
  -1   2  -1 39622.6 892.135   6
  -1   2  -1 38363.7 767.541   3
   1   2   1 42252.6 876.258  13
   1  -3   2 8965.19 489.702   7
   1  -3   2 9118.46 467.681  15
   1  -3   2 9610.46 522.513  10
  -1  -3  -1 5414.32 354.882   9
   1  -3   1 5987.29 334.770  15
   1   3  -1 5224.96 438.298  14
  -1  -3  -1 4500.84 336.282  16
   1   3  -1 5558.90 303.262   5
   1   3  -1 5784.93 434.237  11
  -1  -3  -1 5795.63 293.921   8
   1  -3   1 5870.67 302.179   4
   1  -3   1 5546.94 356.906  10
  -1   3   1 4917.65 318.341   3
  -1  -3  -1 5969.97 387.299  15
  -1  -3  -1 5844.66 334.303  10
   1  -3   1 6127.02 300.791   2
   1  -3   1 5834.84 339.003  16
   1  -3   1 5441.76 353.081   7
  -1   3   0 89037.8 1169.61   1
  -1  -3   0 94733.6 1253.94  10
   1  -3   0 94403.2 1119.93   4
   1  -3   0 84714.3 1343.95  10
   1   3   0 93497.7 1418.23  12
  -1  -3   0 89268.3 1406.87  15
  -1  -3   0 91788.6 1411.21  16
  -1   3   0 90256.6 1402.52   6
  -1   3   0 92338.7 1279.62  13
   1  -3   0 90903.5 1338.43   7
  -1   3   0 92572.4 1147.81   3
   1  -3   0 91267.8 1141.62   2
   1  -3   0 91486.5 1217.65  16
  -1  -3   0 95999.2 1358.36   9
   1  -3   0 89008.7 1250.66  15
  -1   3  -1 5100.60 401.769  11
  -1  -3   1 5642.80 382.314  15
   1  -3  -1 5664.35 359.167   7
  -1  -3   1 5771.64 336.475  10
  -1   3  -1 5354.02 313.614   3
   1   3   1 5839.92 384.987  12
  -1  -3   1 5610.58 353.568   9
  -1  -3   1 5894.34 385.860  16
   1  -3  -1 5833.57 333.841  16
  -1   3  -1 5648.98 398.525   6
  -1   3  -1 5854.16 394.589  14
   1  -3  -1 5400.24 367.378  10
   1   3   1 5472.00 389.805  13
  -1  -3   2 9142.63 526.703  15
  -1   3  -2 8893.50 755.327  11
  -1   3  -2 8591.22 618.614   6
   1  -4   2 723.772 173.202  16
   1   4  -2 547.795 451.633  11
   1  -4   2 830.516 237.981  10
   1  -4   2 1094.22 182.473   2
   1   4  -2 776.383 419.068  14
   1  -4   2 545.854 188.297  15
   1  -4   2 603.179 185.925   7
   1   4  -1 18888.7 897.884  14
   1  -4   1 19282.6 702.509  15
  -1  -4  -1 19128.1 554.996   8
   1   4  -1 17372.0 548.115   5
   1   4  -1 18074.7 831.630  11
   1  -4   1 17241.3 732.294  10
  -1  -4  -1 17746.5 737.406  16
   1  -4   1 19001.4 706.693  16
  -1   4   1 18954.9 635.497   3
   1  -4   1 18887.9 556.978   2
   1  -4   1 19383.1 581.879   4
  -1  -4  -1 20545.7 803.944  15
  -1  -4  -1 18933.8 705.495  10
  -1   4   1 19317.8 812.370   6
   1  -4   1 18538.1 711.193   7
  -1  -4  -1 18923.3 717.714   9
  -1  -4   0 13711.3 646.150  15
  -1   4   0 11097.4 538.965   1
  -1  -4   0 12753.4 419.422   8
   1  -4   0 12067.8 478.802   2
   1  -4   0 12436.7 448.947   4
   1  -4   0 12243.8 575.853  15
  -1   4   0 12441.4 473.883   3
  -1  -4   0 12783.3 556.171  10
   1  -4   0 12511.0 589.218   7
  -1  -4   0 13630.2 643.401  16
   1  -4   0 12735.8 565.996  16
  -1   4   0 13376.3 630.604  13
   1   4   0 12870.8 474.007   5
   1   4   0 13207.4 667.671  13
   1   4   0 13653.2 465.604   6
  -1  -4   0 13032.1 583.654   9
   1  -4   0 12481.5 610.486  10
  -1   4   0 13298.5 634.332   6
   1   4   0 13444.6 621.551  12
   1  -4  -1 18842.5 767.346  10
  -1  -4   1 17934.3 673.861  10
  -1   4  -1 17592.0 597.177   1
   1   4   1 18316.9 792.564  13
   1  -4  -1 19101.4 699.919  16
  -1  -4   1 19037.2 523.419   7
   1  -4  -1 18145.6 711.860  15
   1  -4  -1 18927.3 535.957   9
   1  -4  -1 19077.0 742.708   7
   1   4   1 19082.6 558.868   6
   1  -4  -1 20806.8 620.150   4
  -1   4  -1 19111.5 636.018   3
  -1   4  -1 18558.7 839.798  11
  -1  -4   1 19237.2 778.500  15
  -1   4  -1 18839.2 791.892  14
  -1  -4   1 18199.6 692.868   9
  -1   4  -1 19496.9 787.528   6
  -1  -4   1 18505.8 752.329  16
   1   4   1 18914.3 763.709  12
  -1   4  -2 979.567 392.935  11
  -1   4  -2 680.999 262.366   6
  -1  -4   2 788.542 213.927  16
  -1   4  -2-322.222 423.067  14
  -1  -4   2 569.358 188.747  10
  -1  -4   2 770.131 138.846   7
  -1  -4   2 747.517 224.644  15
  -1   4  -2 618.999 215.708   1
   1  -5   3 1981.03 320.972  15
   1  -5   3 1681.27 336.229  10
   1   5  -2 15572.5 1238.32  11
   1  -5   2 16057.8 833.813  10
   1  -5   2 15991.4 757.190  15
   1   5  -2 12924.6 1079.37  14
   1  -5   2 15572.8 744.385  16
   1  -5   2 15566.7 754.369   7
   1  -5   1 84114.6 1640.65  15
   1   5  -1 84355.7 1993.06  11
  -1  -5  -1 84034.3 1787.69  15
  -1   5   1 84919.7 1801.32   6
   1  -5   1 87672.1 1636.37   7
  -1  -5  -1 86502.6 1771.49  16
   1   5  -1 85031.8 2041.63  14
  -1  -5  -1 85612.3 1656.55  10
  -1  -5  -1 84475.2 1608.68   9
   1  -5   1 89135.3 1659.28  16
  -1   5   1 83653.3 1867.46  13
   1  -5   1 82652.6 1727.08  10
  -1  -5   0 12810.1 623.183   9
   1  -5   0 12980.8 690.337  10
   1   5   0 11503.4 737.227  13
  -1  -5   0 12664.2 702.155  15
   1   5   0 12874.9 702.224  11
   1  -5   0 11874.9 611.571  16
  -1  -5   0 12686.3 693.085  16
  -1   5   0 12979.1 691.329   6
  -1   5   0 12184.4 672.487  13
   1  -5   0 12728.0 631.132   7
   1  -5   0 13128.1 653.473  15
   1   5   0 13700.1 699.923  12
  -1  -5   0 13337.6 648.941  10
   1  -5  -1 85440.9 1685.05  15
  -1  -5   1 84891.4 1780.77  16
   1  -5  -1 86573.4 1777.00  10
   1  -5  -1 85601.6 1698.83   7
  -1  -5   1 86336.4 1584.37   9
   1  -5  -1 87129.3 1678.55  16
  -1  -5   1 84636.0 1641.36  10
  -1   5  -1 77307.6 1785.89  14
   1   5   1 84015.1 1736.94  12
  -1   5  -1 85746.1 1835.09   6
   1   5   1 83552.8 1880.49  13
  -1   5  -1 88191.2 1987.76  11
  -1  -5   1 86265.8 1760.78  15
  -1  -5   2 14642.9 789.626  16
  -1   5  -2 14024.3 1085.97  14
  -1   5  -2 13932.6 1012.51  11
  -1  -5   2 15078.3 746.505  10
  -1   5  -2 14164.7 901.860   6
  -1  -5   2 14250.2 768.621  15
  -1   5  -3 2175.54 809.176  11
   1  -6   3 5556.65 558.369  15
   1  -6   3 5418.41 524.553   7
   1  -6   3 4562.16 562.270  10
   1   6  -2 26917.1 1697.51  11
   1  -6   2 27537.6 1066.37   7
   1  -6   2 27096.5 1073.22  16
   1  -6   2 27949.2 1116.14  15
   1  -6   2 25540.7 1120.22  10
   1   6  -2 24363.4 1559.30  14
  -1  -6  -1 2027.40 401.046  15
   1   6  -1 2340.66 436.354  12
   1  -6   1 2110.40 325.643   7
  -1   6   1 3112.23 460.005   6
  -1  -6  -1 2301.02 343.440   9
   1  -6   1 2408.08 406.311  10
   1  -6   1 2225.85 356.495  15
  -1  -6  -1 2510.78 368.994  10
   1   6  -1 2543.89 536.927  11
  -1  -6  -1 2300.39 374.960  16
  -1   6   1 2560.43 426.816  13
   1  -6   1 2080.66 344.730  16
   1   6  -1 2334.49 490.606  14
  -1  -6   0 632.721 295.708  16
   1  -6   0 785.188 267.438   7
   1  -6   0 581.865 269.498  16
  -1  -6   0 331.256 274.384  15
   1   6   0 510.855 298.836  12
   1   6   0 553.039 310.142  11
   1  -6   0 389.170 248.599  15
  -1  -6   0 606.067 243.284  10
   1  -6   0 62.7535 245.575  10
   1   6   0 578.412 345.819  13
  -1  -6   0 600.519 224.309   9
  -1   6   0 404.009 310.981  11
  -1   6   0 425.935 294.687  13
  -1   6   0 498.735 283.452   6
  -1  -6   1 2367.16 322.842   9
   1  -6  -1 2470.30 373.902  15
  -1   6  -1 2629.09 484.704  11
  -1   6  -1 2026.02 419.892  13
   1   6   1 2407.90 452.654  13
  -1   6  -1 2598.79 463.495  14
   1  -6  -1 2853.40 422.897  16
   1   6   1 2408.81 380.590  12
  -1  -6   1 2434.40 425.870  15
  -1  -6   1 2236.64 402.706  16
   1  -6  -1 2378.56 397.795  10
  -1   6  -1 2380.26 404.797   6
  -1  -6   1 2786.26 394.646  10
  -1   6  -2 25784.8 1518.25  14
  -1   6  -2 26460.6 1305.17   6
  -1  -6   2 26925.1 1146.35  16
  -1  -6   2 27267.6 1158.44  15
  -1  -6   2 28037.4 1095.66  10
  -1   6  -2 26936.8 1506.33  11
  -1   6  -3 4935.11 1140.54  11
   1  -7   3 987.617 322.923   7
   1  -7   3 884.928 363.929  10
   1  -7   3 892.387 391.745  15
   1   7  -2 5925.45 1008.93  14
   1  -7   2 5252.32 520.681   7
   1  -7   2 5748.13 597.027  10
   1  -7   2 6116.36 591.415  16
   1  -7   2 5969.57 617.071  15
   1   7  -2 5863.93 1038.16  11
  -1  -7  -1 10210.1 725.629  10
  -1  -7  -1 10320.5 702.247   9
   1   7  -1 10308.0 972.289  13
   1   7  -1 9876.23 970.061  14
  -1   7   1 10382.3 797.509   6
   1  -7   1 10084.7 733.286  16
   1   7  -1 10004.4 948.340  11
  -1  -7  -1 9006.61 748.573  15
   1  -7   1 8975.83 754.091  10
   1  -7   1 8922.96 711.457  15
   1  -7   1 10503.9 693.237   7
  -1  -7  -1 8922.83 746.091  16
  -1  -7   0-218.933 290.799  15
  -1  -7   0 164.861 276.332   9
   1  -7   0 502.090 300.444  15
  -1   7   0-198.988 359.438  14
  -1  -7   0 81.8903 297.384  16
   1  -7   0 198.985 277.668  16
  -1   7   0 8.26078 334.615   6
   1   7   0 154.103 327.109  12
  -1   7   0 365.278 349.798  13
   1   7   0 143.425 408.254  13
  -1   7   0 325.461 425.896  11
   1   7   0-254.564 376.530  11
   1  -7   0 568.656 296.755   7
   1  -7   0 483.348 357.565  10
  -1  -7   0 174.663 270.748  10
   1   7   0-127.659 429.221  14
   1   7   1 9359.10 783.840  12
   1  -7  -1 10218.7 753.312  16
   1   7   1 8401.98 798.382  13
  -1  -7   1 9695.01 705.012  10
  -1   7  -1 10231.8 890.668  14
  -1   7  -1 8589.45 868.666  11
  -1   7  -1 9885.98 908.797  13
   1  -7  -1 8835.13 724.868  10
   1  -7  -1 9914.72 725.885  15
  -1  -7   1 9154.57 748.129  15
  -1  -7   1 9138.07 740.294  16
  -1   7  -1 9949.61 800.110   6
  -1   7  -2 6529.82 948.162  14
  -1  -7   2 5694.65 640.567  15
  -1  -7   2 5186.40 587.460  10
  -1   7  -2 6090.00 918.210  11
  -1  -7   2 5047.56 574.113  16
  -1   7  -2 6332.33 818.960   6
  -1  -7   3 1877.53 460.578  15
  -1  -7   3 1485.69 409.914  10
  -1   7  -3 780.114 995.533  11
   1  -8   3 6097.83 690.177  15
   1  -8   3 6059.70 712.482  10
   1  -8   2 997.445 393.950  10
   1   8  -2 1042.57 722.920  14
   1  -8   2 1129.79 428.855  15
   1  -8   2 653.123 325.599  16
   1   8  -2 1188.58 892.037  11
   1  -8   1 8294.75 747.352  15
   1  -8   1 9668.49 772.762  16
   1  -8   1 8373.15 782.579  10
   1   8  -1 7746.95 960.818  11
  -1  -8  -1 8671.94 752.996  10
   1   8  -1 8400.31 1054.16  14
   1   8  -1 8089.82 1030.94  13
  -1  -8  -1 7985.95 747.004  15
  -1  -8  -1 8075.65 784.600  16
   1  -8   0 6866.73 694.033  16
   1   8   0 7023.36 798.838  11
  -1  -8   0 6586.20 675.393  16
   1   8   0 7713.40 918.015  14
  -1  -8   0 6390.73 697.913  15
  -1  -8   0 6337.10 632.838  10
  -1   8   0 7163.01 816.493  13
  -1   8   0 8119.10 918.531  11
   1   8   0 6170.69 839.080  13
   1  -8   0 7254.85 736.260  10
  -1   8   0 7852.43 878.130  14
   1  -8   0 7364.32 683.598  15
  -1  -8   1 9674.46 837.419  15
  -1   8  -1 7712.24 904.223  14
  -1  -8   1 8243.52 765.633  16
   1  -8  -1 9354.14 812.050  10
  -1   8  -1 8711.44 900.699  13
  -1   8  -1 7629.82 941.268  11
   1  -8  -1 8457.95 759.548  16
  -1  -8   1 8021.84 727.561  10
   1   8   1 8935.23 905.210  11
   1   8   1 8670.65 910.091  13
  -1   8  -2 341.609 693.497  11
  -1   8  -2 540.819 608.670  13
  -1  -8   2 812.836 354.054  16
  -1  -8   2 772.036 382.642  15
  -1  -8   2 1796.10 438.666  10
  -1   8  -2 1120.84 740.743  14
  -1  -8   3 5505.57 659.340  10
  -1   8  -3 6087.55 1397.56  11
  -1  -8   3 6441.25 726.399  15
   1  -9   3 981.519 482.750  10
   1  -9   3 611.894 428.504  15
   1  -9   2 2544.81 490.664  16
   1  -9   2 2146.96 531.366  10
   1   9  -2 2272.74 1119.48  13
   1  -9   2 2621.58 586.364  15
   1   9  -2 4598.58 1198.56  14
   1   9  -2 3463.45 1144.50  11
   1  -9   1 802.185 384.558  15
  -1  -9  -1 1122.93 444.077  15
   1   9  -1 2461.00 831.908  11
  -1  -9  -1 1376.74 480.085  16
   1  -9   1 961.391 469.638  10
   1  -9   1 664.931 384.735  16
  -1   9   1 1248.36 684.515  11
   1   9  -1 1055.49 753.950  14
   1   9  -1 2794.06 870.574  13
  -1   9   0 4366.00 806.810  14
  -1  -9   0 5300.22 693.578  16
  -1   9   0 3984.24 727.051  13
  -1  -9   0 4458.56 645.014  15
   1  -9   0 3592.71 566.904  10
   1   9   0 4099.63 872.350  13
   1  -9   0 4630.17 657.990  16
   1  -9   0 3988.46 590.880  15
  -1  -9   0 3884.86 591.789  10
   1   9   0 4731.62 835.381  11
   1   9   0 4139.19 887.241  14
  -1   9   0 5249.56 927.008  11
  -1  -9   1 1687.46 492.658  16
  -1   9  -1 2692.69 866.099  11
   1   9   1 1633.78 657.031  11
  -1  -9   1 1438.04 463.735  15
  -1   9  -1 1322.88 641.000  13
   1   9   1 1587.42 658.310  13
   1  -9  -1 1012.15 440.153  16
   1   9   1 2854.42 791.590  14
  -1  -9   1 872.016 422.752  10
   1  -9  -1 1144.79 454.169  10
  -1   9  -1 2423.06 825.624  14
  -1   9  -2 2112.03 818.467  11
  -1  -9   2 2796.53 613.390  15
  -1  -9   2 2584.54 594.717  16
  -1   9  -2 3308.00 1026.02  13
  -1  -9   2 3146.82 569.283  10
  -1   9  -2 3413.49 1107.04  14
  -1  -9   3 1056.93 480.687  15
  -1   9  -3 1652.86 1202.43  13
  -1   9  -3 648.988 1237.68  11
   1 -10   3 3456.30 638.461  15
   1 -10   3 3668.92 683.297  10
   1  10  -2 3906.66 1510.50  11
   1  10  -2 2445.86 1390.37  13
   1 -10   2 1740.56 571.644  15
   1 -10   2 1577.56 605.282  10
   1  10  -2 1583.48 1363.39  14
   1 -10   1 651.849 435.177  15
  -1 -10  -1 501.611 453.286  15
  -1 -10  -1 613.772 430.621  16
   1  10  -1-1020.21 924.511  13
   1  10  -1-1234.14 989.470  14
   1  10  -1 683.667 859.138  11
   1 -10   1 1847.57 631.675  10
   1  10   0-1175.21 888.254  14
   1  10   0-42.1870 822.807  13
  -1 -10   0 183.274 458.981  16
  -1 -10   0-555.524 426.850  10
  -1  10   0-523.329 808.705  13
   1 -10   0 319.029 371.792  15
  -1 -10   0-248.075 466.572  15
   1  10   0 716.250 870.398  11
  -1  10   0-158.298 776.472  14
  -1  10   0 76.7726 777.420  11
   1 -10   0-244.369 377.712  10
   1 -10   0 763.988 467.701  16
   1  10   1 721.955 897.042  14
  -1  10  -1 998.618 855.330  13
  -1 -10   1 139.064 438.570  16
   1  10   1 762.743 753.544  11
  -1  10  -1 1860.43 1078.50  11
  -1 -10   1 214.253 450.566  15
  -1  10  -1-636.365 899.502  14
  -1 -10   1 657.694 440.699  10
  -1 -10   2 1855.10 574.788  16
  -1 -10   2 1891.23 524.397  15
  -1  10  -2 1510.62 1327.03  14
  -1 -10   2 2173.69 602.815  10
  -1  10  -2 2923.92 1287.91  11
  -1  10  -3 2608.24 1507.41  11
   1 -11   1 3195.21 689.030  15
   1  11  -1 3690.78 1551.86  11
   1  11   0 1167.24 1044.26  11
  -1 -11   0 353.760 432.292  10
  -1 -11   1 2689.93 616.877  10
  -1  11  -1 2946.05 1537.84  14
  -1 -11   2 1.85647 445.275  10
   2   0   0 648038. 3292.10   5
  -2   0   0 663941. 3275.66   8
  -2   0   0 665956. 3299.34   3
   2   0   0 659747. 3227.84   4
   2   0   1 505720. 2680.36  12
  -2   0   1 504856. 3257.89   3
   2   0   1 507402. 2967.51   4
   2   0  -1 506862. 3322.56   4
   2   0  -1 507796. 3254.40   2
  -2   0  -1 513574. 3094.83   3
   2   0   1 511306. 2956.78   2
  -2   0  -1 511338. 2995.74   1
  -2   0   1 506534. 3277.27   8
   2   0   1 506820. 3023.09   5
  -2   0  -1 509695. 3117.80   6
  -2   0  -1 508247. 2608.89   9
  -2   0  -1 500100. 3012.00   8
   2   0   1 508614. 2617.91   7
  -2   0   1 518517. 3071.90   1
   2  -1   2 91964.0 1467.28   7
   2  -1   1 17932.5 584.604   2
  -2  -1  -1 17531.6 564.257   3
  -2  -1  -1 18543.6 609.964   8
  -2  -1  -1 16578.2 566.571   9
  -2   1   1 17094.7 633.971   3
   2  -1   1 17419.6 581.444   4
   2  -1   1 18629.7 554.233   5
   2   1  -1 17958.2 592.934   4
  -2   1   1 16297.6 588.332   1
  -2  -1  -1 18407.0 536.894   1
   2  -1   1 17205.5 561.631   7
  -2   1   0 10739.0 446.847   6
   2   1   0 11439.1 409.326   2
  -2  -1   0 11936.7 462.991   8
  -2   1   0 11443.3 421.401   8
   2  -1   0 10827.1 443.132   4
  -2   1   0 10211.5 435.687   1
  -2   1   0 10523.7 447.758   3
   2   1   0 11621.7 416.366   4
   2  -1   0 11404.8 456.589   2
  -2  -1   0 11332.7 398.652   1
   2  -1   0 11171.5 436.324   7
  -2  -1   0 11438.2 416.187   3
   2   1   0 10231.6 445.310   5
  -2  -1   0 10260.1 432.016   9
   2  -1   0 10869.9 411.338   5
   2   1   1 18299.0 568.740   4
  -2  -1   1 17135.8 558.342   3
   2   1   1 18300.4 597.707  12
   2  -1  -1 17595.6 632.502   4
  -2   1  -1 17090.9 610.985   6
  -2   1  -1 18099.4 553.157   8
   2   1   1 17516.9 528.581   2
  -2   1  -1 17536.0 630.592  11
  -2  -1   1 17795.5 607.051   8
   2   1   1 18333.5 609.397   5
  -2   1  -1 18162.3 615.073   3
   2  -1  -1 17017.5 625.443   2
  -2  -1   1 17380.7 627.405   9
  -2   1  -2 90752.7 1670.37   3
   2  -2   2 4325.81 343.591   4
   2  -2   2 4772.72 347.532  10
   2  -2   2 5074.58 360.985   2
   2  -2   2 4635.85 361.846   7
  -2  -2  -1 42500.2 898.311  16
  -2   2   1 38897.8 985.656   1
  -2  -2  -1 46178.7 980.796   8
   2   2  -1 44745.8 866.046   4
  -2   2   1 40925.7 996.126   3
  -2  -2  -1 43089.2 890.101  15
  -2  -2  -1 42725.4 994.171   9
   2   2  -1 43039.1 1289.18  14
   2   2  -1 42388.5 1034.77   5
  -2  -2  -1 42405.7 919.399   3
   2  -2   1 42522.5 798.181   5
   2  -2   1 41322.3 862.766  10
   2  -2   1 41065.5 967.938   7
   2  -2   1 41519.6 919.453   2
   2  -2   1 43517.5 948.246   4
   2  -2   0 3265.38 282.223   7
   2  -2   0 3290.49 273.847   4
  -2  -2   0 3820.68 278.048  15
   2  -2   0 3527.91 230.703   5
  -2   2   0 3830.65 260.375   8
  -2   2   0 3436.14 301.584   6
  -2   2   0 3427.37 281.712   1
  -2  -2   0 3881.35 225.911   3
  -2   2   0 3411.23 285.857   3
   2   2   0 3753.77 295.302   5
  -2  -2   0 3506.41 267.321  16
   2  -2   0 3603.16 282.903   2
   2  -2   0 3576.59 263.355  10
  -2  -2   0 3376.04 284.161   9
  -2  -2   0 3602.99 277.944   8
   2   2   1 44714.5 987.438   5
   2  -2  -1 40970.1 977.166   4
  -2  -2   1 41277.1 931.163   8
   2   2   1 41867.2 938.958  13
  -2   2  -1 42962.1 811.786   8
   2  -2  -1 42134.8 993.367   7
  -2  -2   1 43586.7 803.810   3
   2   2   1 44680.9 1051.72  12
  -2  -2   1 43834.8 995.392  16
  -2   2  -1 42255.2 1048.08   6
  -2   2  -1 43622.5 1016.31  11
  -2  -2   1 43865.4 945.355  15
   2   2   1 41936.7 770.686   2
   2  -2  -1 43615.6 1060.58   2
  -2   2  -1 43276.7 988.755   3
  -2   2  -1 41557.1 943.428   1
  -2  -2   1 41575.3 979.491   9
  -2   2  -2 4478.60 336.491   8
  -2   2  -2 3643.18 362.760   1
  -2   2  -2 4081.84 432.988   6
  -2   2  -2 4975.50 424.161   3
   2  -3   2 15283.4 657.147   4
   2  -3   2 14606.2 681.840   7
   2  -3   2 14223.0 611.673   2
   2  -3   2 15517.6 565.702  15
  -2  -3  -2 15695.9 705.827   9
   2  -3   2 14317.4 661.061  10
   2   3  -1 19144.4 878.082  14
  -2  -3  -1 20408.0 676.059   8
   2  -3   1 20152.6 679.471   2
   2  -3   1 19214.5 588.462  16
   2  -3   1 17697.1 662.230  10
  -2   3   1 19281.4 791.980   6
  -2  -3  -1 20187.9 721.495  15
   2  -3   1 19739.6 726.696   7
   2  -3   1 19004.5 665.399   4
  -2   3   1 19500.5 725.328   3
   2  -3   1 18459.0 507.935   5
   2   3  -1 18125.2 699.226   5
  -2  -3  -1 19959.9 743.258   9
  -2  -3  -1 19736.6 708.049  16
   2  -3   1 19212.2 544.392  15
  -2   3   0 7663.30 438.613   3
   2   3   0 8401.20 441.223   5
  -2  -3   0 8936.68 437.037   8
   2   3   0 8945.05 412.013  11
   2   3   0 8448.72 525.736  12
   2  -3   0 8113.86 361.353  15
   2  -3   0 8115.96 445.057   2
  -2   3   0 8070.63 442.271   1
   2  -3   0 7530.57 460.841   7
   2  -3   0 8660.87 466.551  10
  -2   3   0 8408.98 508.272   6
  -2  -3   0 9000.46 479.691  15
   2  -3   0 7852.90 421.984   4
  -2   3   0 8615.74 383.717  13
  -2  -3   0 8229.19 355.393  10
   2  -3   0 8625.53 330.573   5
   2  -3   0 8695.67 357.264  16
  -2  -3   0 8512.64 477.478  16
  -2  -3   0 8386.16 486.629   9
  -2  -3   1 18318.3 709.302  16
   2   3   1 19028.7 479.592   2
  -2  -3   1 19694.3 657.121   8
   2   3   1 19318.5 741.723  13
  -2  -3   1 19492.4 715.840  15
   2  -3  -1 19794.6 697.220   4
  -2   3  -1 18810.9 514.345   8
   2  -3  -1 18415.1 732.222   7
  -2   3  -1 18392.6 686.337   3
  -2   3  -1 19001.9 779.162   6
   2  -3  -1 19362.4 719.206  10
  -2  -3   1 20506.1 742.628   9
  -2   3  -1 19130.8 718.164   1
   2   3   1 18668.2 753.116  12
  -2   3  -1 19978.3 777.856  11
  -2  -3   1 20182.8 589.456  10
   2   3   1 18438.7 692.487   5
  -2   3  -1 18543.9 704.832  14
  -2   3  -2 14786.2 544.247   8
  -2   3  -2 14783.9 704.222   1
  -2   3  -2 14288.4 717.368   3
  -2   3  -2 14554.0 959.256  11
   2   3   2 15377.6 779.364  12
  -2   3  -2 15206.7 840.042   6
  -2  -3   2 14498.0 691.420  15
   2  -4   3 5275.01 492.708  10
   2  -4   3 5317.21 480.092   7
  -2  -4  -2 19255.6 732.029   8
   2  -4   2 19712.5 742.080   2
   2  -4   2 18865.9 828.232  10
   2   4  -2 18700.5 1338.31  14
   2  -4   2 18212.8 819.427   7
  -2  -4  -2 19382.3 827.475  16
   2  -4   2 19379.5 696.522  15
   2   4  -2 18681.7 953.406   5
  -2  -4  -2 18735.6 819.776   9
   2  -4   1 65775.0 1276.48   4
   2  -4   1 66008.1 1237.55  16
  -2  -4  -1 64291.2 1434.47   9
  -2  -4  -1 68128.3 1479.47  15
   2  -4   1 62933.3 1393.25  10
   2   4  -1 64846.5 1726.55  14
   2  -4   1 69972.8 1245.07  15
   2   4  -1 65614.9 1813.89  11
   2   4  -1 66200.7 1393.83   5
  -2   4   1 65798.7 1392.14   3
  -2   4   1 65703.0 1592.82   6
   2  -4   1 68543.4 1299.48   2
  -2  -4  -1 68858.1 1268.50   8
  -2  -4  -1 67674.8 1260.25  10
  -2  -4  -1 65230.6 1466.45  16
   2  -4   1 65429.0 1461.18   7
   2  -4   0-168.980 189.648  10
  -2  -4   0-226.403 177.825   9
   2   4   0-66.4900 146.655   5
   2  -4   0 65.3693 176.659   7
  -2   4   0 2.12066 175.116   3
  -2   4   0-129.497 171.306   1
   2   4   0 55.3191 171.567  11
  -2  -4   0 76.4856 128.069   8
  -2  -4   0-306.323 220.690  16
   2  -4   0 158.237 125.735  16
   2   4   0 105.858 204.448  13
  -2  -4   0 140.157 197.728  15
   2  -4   0 473.912 150.587  15
  -2   4   0-6.48743 147.337  13
   2   4   0 68.1579 238.597  12
   2  -4   0 121.668 146.924   2
  -2   4   0 47.5072 205.808   6
   2  -4   0-99.2005 142.962   4
  -2  -4   0 178.595 140.991  10
  -2   4  -1 66568.1 1358.25   1
  -2  -4   1 68190.1 1272.87   8
   2  -4  -1 63559.7 1459.91   7
  -2   4  -1 66215.2 1453.83  14
   2   4   1 66796.4 1541.42  13
   2  -4  -1 65457.6 1303.05   4
  -2   4  -1 65678.5 1357.44   3
  -2  -4   1 63704.4 1443.53  15
   2   4   1 63200.3 1407.88   5
   2   4   1 64993.8 1519.32  12
  -2   4  -1 66704.8 1593.01   6
  -2   4  -1 67637.1 1605.72  11
   2  -4  -1 68122.5 1265.59  16
  -2  -4   1 67705.5 1238.31  10
   2  -4  -1 64510.6 1457.93  10
  -2  -4   1 64985.4 1473.41  16
  -2  -4   1 62902.2 1400.08   9
  -2  -4   2 18994.6 727.764  10
  -2  -4   2 18753.3 830.616  15
  -2  -4   2 18113.8 820.251  16
  -2   4  -2 17485.6 838.402   3
  -2   4  -2 17722.7 1061.31  11
  -2   4  -2 17985.1 983.027   6
   2   4   2 17891.4 902.109  12
  -2  -4   2 17146.9 795.516   9
   2  -5   3 18724.8 785.487   2
   2  -5   3 17763.0 925.488   7
   2  -5   3 18789.1 821.345  15
   2  -5   3 17066.5 913.623  10
   2  -5   2 1811.54 297.114  15
  -2  -5  -2 801.302 269.834   9
  -2  -5  -2 1057.62 215.698   8
  -2  -5  -2 1580.01 323.608  16
  -2  -5  -2 1475.84 317.231  15
   2  -5   2 1485.29 316.834   7
   2  -5   2 1313.55 274.589  16
   2  -5   2 918.899 332.055  10
   2  -5   2 1617.60 260.231   2
   2   5  -2 1699.94 651.726  14
   2  -5   1 10068.2 645.125  10
   2  -5   1 10211.0 537.139   4
  -2  -5  -1 11040.0 682.721  15
   2  -5   1 10471.6 543.604   2
  -2  -5  -1 11253.5 540.158   8
   2  -5   1 10754.1 674.924   7
   2   5  -1 9558.78 798.983  14
  -2   5   1 9564.55 705.488   6
   2  -5   1 11024.1 573.232  16
  -2   5   1 11107.9 634.250   3
   2   5  -1 9887.04 817.011  11
  -2  -5  -1 10867.6 592.880  10
  -2  -5  -1 10281.1 640.527   9
  -2  -5  -1 9522.58 643.410  16
   2  -5   1 10526.4 553.253  15
  -2   5   0 23054.8 898.763  13
   2  -5   0 21833.8 919.449  10
   2  -5   0 23663.0 793.430   4
  -2  -5   0 22018.0 938.551  15
  -2  -5   0 22675.6 918.801   9
  -2  -5   0 22669.1 725.458   8
   2  -5   0 21385.6 808.592   2
  -2  -5   0 22892.5 951.156  16
   2   5   0 21689.9 980.042  12
   2  -5   0 22863.3 825.843  15
   2   5   0 22735.4 1013.44  13
  -2   5   0 23115.7 827.552   3
   2   5   0 22320.4 912.373  11
   2  -5   0 23483.0 814.276  16
  -2   5   0 22844.0 998.701   6
  -2  -5   0 22444.4 804.078  10
   2  -5   0 22172.0 925.181   7
   2   5   1 10300.6 713.023  13
   2   5   1 10064.2 683.503  12
  -2  -5   1 9220.31 626.219  15
   2  -5  -1 11028.4 578.479   4
  -2  -5   1 10347.7 665.941  16
  -2   5  -1 9641.90 603.942  13
  -2   5  -1 9878.93 575.241   3
  -2   5  -1 11265.5 641.035   1
   2  -5  -1 9895.23 655.923   7
  -2   5  -1 10765.1 740.828   6
  -2   5  -1 10177.3 674.383  14
  -2   5  -1 10229.1 735.295  11
   2  -5  -1 9418.43 641.924  10
   2  -5  -1 11099.4 605.164  16
  -2  -5   1 10251.9 562.820  10
  -2  -5   1 10370.6 617.916   9
  -2  -5   2 962.850 274.106  16
  -2  -5   2 1054.00 260.075   9
  -2   5  -2 2484.34 674.629  14
  -2   5  -2 1152.78 402.237   6
   2   5   2 1350.73 367.336  12
  -2   5  -2 1093.97 454.707  11
  -2  -5   2 951.124 333.522  15
  -2  -5   2 1732.38 300.521  10
  -2   5  -2 1534.31 340.530   1
  -2   5  -3 12567.6 999.259   1
  -2   5  -3 15719.3 1208.61   6
  -2   5  -3 15374.2 1483.95  11
   2  -6   3 1098.50 357.048   7
   2  -6   3 1927.89 386.985  15
   2  -6   3 1398.23 375.405  10
   2  -6   2 13747.6 831.214   7
  -2  -6  -2 14099.3 871.616  15
   2  -6   2 15496.7 790.950  15
   2   6  -2 13231.5 1310.94  14
  -2  -6  -2 14306.4 844.559   9
   2  -6   2 14122.4 776.630  16
   2  -6   2 14148.7 878.837  10
  -2  -6  -2 12720.7 838.991  16
  -2  -6  -1 602.388 297.606   9
   2  -6   1 185.834 255.513   7
   2  -6   1 576.188 249.263  16
   2   6  -1 342.772 374.266  12
   2  -6   1 485.957 233.386  15
   2   6  -1 619.478 474.470  14
  -2   6   1 883.969 403.664   6
  -2  -6  -1-175.449 288.180  15
   2  -6   1 804.709 337.480  10
  -2  -6  -1-22.1424 300.023  16
  -2  -6  -1 450.358 218.230  10
   2   6  -1 1164.56 471.152  11
   2   6   0 16264.4 1022.41  14
   2  -6   0 16989.6 796.325  16
  -2  -6   0 17957.9 813.836  10
  -2  -6   0 16328.9 907.092  16
   2  -6   0 17112.0 806.107  15
  -2   6   0 17936.9 931.998  13
  -2   6   0 17529.6 981.823   6
  -2  -6   0 17503.4 860.619   9
  -2  -6   0 16759.3 903.570  15
   2   6   0 16355.6 894.061  11
   2   6   0 17784.2 1006.10  12
   2  -6   0 16129.3 877.900  10
  -2   6   0 17316.4 1007.07  11
   2   6   0 16180.9 1000.23  13
   2  -6   0 18056.4 891.611   7
   2  -6  -1 517.821 273.957  16
  -2   6  -1 696.764 364.955  14
  -2  -6   1 566.332 254.018   9
  -2  -6   1 395.322 278.947  16
  -2  -6   1 765.835 266.414  10
   2   6   1 926.777 379.761  12
   2  -6  -1 395.392 269.660   7
  -2   6  -1 790.744 369.155   6
   2   6   1 491.465 316.899  13
  -2  -6   1 351.789 318.736  15
  -2   6  -1 559.615 272.704  13
   2  -6  -1 699.897 291.304  10
  -2   6  -1 334.203 382.706  11
  -2  -6   2 13672.1 866.686  15
  -2  -6   2 13688.6 865.257  16
  -2   6  -2 14470.5 1264.87  14
  -2   6  -2 14668.8 1043.13   6
  -2   6  -2 13881.9 1139.04  11
  -2  -6   2 14847.2 835.613   9
  -2  -6   2 14523.4 791.961  10
  -2   6  -3 617.791 524.501   6
  -2   6  -3 607.911 809.745  11
   2  -7   3 852.142 372.479  10
   2  -7   3 1455.37 434.358   7
  -2  -7  -2 32.2013 317.194   9
  -2  -7  -2 256.415 337.653  16
   2  -7   2 130.954 278.771  15
   2  -7   2 334.635 313.129   7
   2  -7   2 936.930 429.130  10
  -2  -7  -1 950.848 368.800   9
  -2  -7  -1 1205.65 437.210  15
  -2  -7  -1 1197.36 454.184  16
   2  -7   1 552.507 274.168  15
   2   7  -1 1647.32 629.474  11
   2  -7   1 71.6899 290.222   7
   2   7  -1 660.560 581.415  14
   2  -7   1 1167.01 432.984  10
   2   7  -1 491.282 524.855  13
   2   7  -1 180.873 479.439  12
  -2   7   1-31.5078 440.063   6
  -2  -7  -1 147.314 407.580  10
  -2  -7   0 427.598 357.434  15
  -2   7   0 528.747 393.168  13
  -2  -7   0 832.963 299.536   9
   2  -7   0 185.789 276.607   7
  -2   7   0 607.138 477.150  11
  -2   7   0-313.299 392.957   6
  -2   7   0 1204.45 476.669  14
   2   7   0 299.385 394.701  13
   2  -7   0 339.622 279.606  15
   2   7   0 83.2035 383.234  11
   2   7   0 844.671 457.839  12
   2  -7   0 582.914 364.048  10
  -2  -7   0 662.470 296.928  10
  -2  -7   0 541.443 320.680  16
   2   7   0 630.608 523.530  14
  -2  -7   1 580.542 335.698  15
  -2  -7   1 574.822 304.181   9
   2   7   1 706.048 430.163  13
   2   7   1 427.384 372.846  12
  -2   7  -1 1157.43 569.424  11
  -2   7  -1 1261.72 464.081  14
   2  -7  -1 1110.36 324.518  16
  -2   7  -1 863.265 417.609   6
   2   7   1 661.619 367.742  11
  -2  -7   1 810.108 356.029  16
  -2  -7   1 981.120 309.623  10
   2  -7  -1 638.958 350.028  10
  -2  -7   2 450.886 345.353  16
  -2  -7   2 187.082 249.176   9
  -2  -7   2-64.5150 376.178  15
  -2  -7   2 358.768 320.236  10
  -2   7  -2-334.761 579.576  11
  -2   7  -2 707.662 472.566   6
  -2   7  -3 2282.25 1014.91  11
  -2   7  -3 1910.50 774.739   6
   2  -8   3-110.766 411.910  10
   2  -8   3-54.3980 352.648   7
   2  -8   2 5308.75 612.444   7
   2   8  -2 6744.89 1252.44  14
   2   8  -2 4156.97 1207.40  11
   2  -8   2 5091.86 689.214  10
  -2  -8  -1 8754.19 836.999  16
  -2  -8  -1 10078.1 785.482   9
   2  -8   1 8330.67 790.977  10
   2   8  -1 9319.44 1127.16  13
   2   8  -1 9566.55 1117.99  14
  -2  -8  -1 8705.65 802.419  15
   2  -8   1 11945.4 901.867   7
   2   8  -1 9539.04 1162.62  11
   2   8  -1 9208.97 1067.71  12
  -2   8   1 9665.77 977.770   6
  -2  -8   0 366.677 319.153   9
   2   8   0-132.379 490.059  11
   2   8   0 105.021 534.152  13
   2   8   0 871.960 531.957  12
   2   8   0-720.775 622.742  14
  -2  -8   0-341.856 381.878  15
  -2   8   0 279.252 474.704   6
  -2  -8   0 470.492 397.064  16
  -2   8   0 839.656 556.555  11
   2  -8   0 67.9760 332.277  10
   2  -8   0-293.986 411.248   7
  -2  -8   1 9573.19 878.952  16
   2   8   1 9934.65 1021.01  13
   2   8   1 10210.6 999.126  12
  -2  -8   1 9443.45 861.263  15
  -2   8  -1 10062.3 979.959   6
  -2   8  -1 8323.49 967.174  11
  -2  -8   1 8635.17 749.632  10
   2  -8  -1 10016.2 882.561  10
  -2  -8   1 8995.47 747.065   9
  -2   8  -2 6569.11 995.959   6
  -2  -8   2 5113.55 650.053  16
  -2  -8   2 5401.61 697.160  15
  -2  -8   2 5015.80 594.578  10
  -2   8  -2 7024.12 1092.91  11
  -2   8  -3-664.218 1032.60  11
   2  -9   3 816.922 491.622  10
   2   9  -2-2601.00 1205.34  14
   2   9  -2-2222.07 1521.70  13
  -2  -9  -1 737.672 403.452  16
   2   9  -1 2305.81 973.120  14
  -2  -9  -1 1226.41 459.848  15
   2   9  -1 1043.84 692.351  13
   2  -9   1 1604.83 485.701  10
   2   9   0 728.888 666.028  14
  -2  -9   0 1013.88 430.335  15
  -2  -9   0 1426.52 493.841  16
   2   9   0 1442.38 604.173  13
  -2   9   0 1067.12 638.119  11
   2  -9   0 1965.06 509.049  10
  -2  -9   1 915.755 425.351  16
  -2  -9   1 1280.87 506.922  15
   2   9   1 1495.52 775.310  14
   2   9   1 1822.99 705.258  13
  -2   9  -1 1507.63 666.454  11
  -2  -9   2 1283.04 417.942  16
  -2  -9   2 2932.49 599.451  15
  -2   9  -2 2772.29 985.883  11
  -2   9  -3 1854.43 1169.98  11
   2 -10   3 640.016 611.476  10
   2  10  -2 1108.69 1461.76  14
   2  10  -2 2887.85 1618.87  13
   2 -10   2 1784.85 595.378  10
  -2 -10  -1 1835.66 556.348  15
   2  10  -1 2549.90 1166.65  14
  -2 -10  -1 3412.38 726.957  16
   2  10  -1 2249.33 1012.92  13
   2 -10   1 1532.43 488.673  10
  -2  10   0-277.384 948.366  11
  -2 -10   0 1403.92 520.765  15
  -2 -10   0 1288.02 541.320  16
   2  10   0 2515.97 987.016  14
   2  10   0 575.571 867.092  13
   2 -10   0 1345.00 491.430  10
  -2 -10   1 2856.00 624.266  15
  -2 -10   1 3696.88 711.042  16
   2  10   1 1540.92 874.685  14
  -2  10  -1 2155.55 843.120  11
  -2 -10   2 1159.78 467.953  16
  -2 -10   2 1440.23 589.415  15
  -2  10  -2 2950.64 1411.90  11
  -2  10  -3-1605.37 1586.55  11
  -3   0   0 71.7512 120.856   9
  -3   0   0 76.1311 138.738   3
   3   0   0 114.073 154.919   5
  -3   0   0 81.2007 139.108   8
   3   0   0 100.305 149.424   4
  -3   0   0 5.17027 121.424   1
   3   0   0-32.1091 97.7931   7
  -3   0   0 33.1300 113.153   6
   3   0   0 40.3479 138.245   2
  -3   0  -1 65536.2 1306.41   8
  -3   0   1 64524.4 1347.20   8
   3   0   1 65873.2 1298.46   4
   3   0   1 65491.6 1280.55   2
  -3   0  -1 62152.6 1235.73   6
  -3   0   1 65807.1 1349.35   3
   3   0  -1 64910.8 1394.71   4
   3   0  -1 60945.5 1320.19   2
   3   0   1 64035.1 1122.54   7
   3   0   1 66881.6 1321.60   5
   3   0   1 65358.2 1162.03  12
  -3   0  -1 66178.8 1350.33   3
   3   0  -1 64881.3 1454.54   5
  -3   0  -1 60425.4 1115.60   9
  -3   0  -1 66069.3 1291.24   1
   3   0   2 13453.9 629.460   2
   3   0   2 13619.4 647.418   4
  -3   0  -2 14067.8 682.398   1
   3   0   2 14144.3 584.383   7
  -3   0  -2 14447.7 675.655   8
  -3   0  -2 14116.2 706.670   3
  -3   0  -2 14652.8 586.782   9
   3   0   2 14811.0 681.608   5
  -3  -1  -2 10885.7 603.897   8
   3  -1   2 10563.9 588.865   4
   3  -1   2 9205.65 529.330   7
   3  -1   2 9917.84 557.921   2
  -3  -1  -2 9078.63 584.607   3
   3  -1   2 8955.21 425.877  10
   3  -1   2 10408.3 562.611   5
  -3  -1  -2 9837.05 543.307   9
   3   1  -1 4471.29 379.103   4
   3  -1   1 4259.40 340.245   7
  -3  -1  -1 4541.38 344.129   1
  -3  -1  -1 4546.09 370.209   8
  -3  -1  -1 3742.95 336.109   6
  -3   1   1 4010.51 366.883   8
   3  -1   1 3836.97 350.740   4
   3  -1   1 4253.35 366.099   2
   3   1  -1 4662.14 368.017   2
   3  -1   1 4408.00 269.955  12
  -3  -1  -1 4424.79 361.023   3
  -3   1   1 4234.91 368.028   6
  -3   1   1 4032.11 355.132   1
  -3   1   1 3698.38 360.966   3
   3  -1   1 4238.49 246.855  10
   3  -1   1 4237.00 342.853   5
   3   1  -1 4275.77 412.444   5
  -3  -1  -1 4247.57 260.400  16
  -3  -1  -1 4073.14 343.262   9
  -3   1   0 28245.3 867.715   1
   3   1   0 28857.9 821.224   2
  -3   1   0 26887.1 817.907   8
   3   1   0 26791.7 805.364   4
   3  -1   0 27202.2 852.932   4
  -3  -1   0 27805.8 708.663  16
   3  -1   0 29195.6 821.767   7
  -3  -1   0 28132.6 625.889   6
   3   1   0 27508.1 783.375  14
  -3   1   0 29745.1 854.883   6
  -3  -1   0 26948.4 805.819   3
   3  -1   0 27608.8 877.767   2
  -3   1   0 27440.7 873.870   3
  -3  -1   0 29233.8 624.676  15
   3  -1   0 26264.5 616.339  10
  -3  -1   0 26871.1 786.456   1
   3   1   0 26899.1 877.575   5
   3   1   0 27831.3 634.265   7
   3  -1   0 28177.7 838.572   5
  -3  -1   0 25860.0 794.980   9
  -3  -1   0 27805.0 860.564   8
  -3   1   0 24439.2 747.817   9
  -3   1  -1 3915.30 372.678   3
  -3   1  -1 4243.82 380.806  11
  -3   1  -1 4398.16 358.430   8
   3   1   1 4606.92 363.811   4
  -3  -1   1 4217.08 365.572   8
   3   1   1 4272.57 340.813   2
   3  -1  -1 4466.87 396.082   4
  -3   1  -1 4505.45 378.999   1
  -3  -1   1 4446.43 292.098  15
   3   1   1 4314.38 266.699   7
   3  -1  -1 4724.91 394.431   2
   3  -1  -1 4433.22 353.262   7
   3   1   1 4595.58 368.251  12
  -3   1  -1 4519.58 382.183   6
  -3  -1   1 3961.44 324.310   1
  -3  -1   1 4091.22 347.907   3
   3   1   1 4136.25 365.750   5
   3  -1  -1 4327.87 391.247   5
  -3   1  -1 4081.74 265.013   9
  -3  -1   1 4383.87 368.293   9
   3   1   2 9761.91 545.567   2
   3   1   2 9754.64 459.288   7
  -3   1  -2 8763.58 648.222   6
   3   1   2 9212.67 559.279  12
   3   1   2 9583.15 573.197   5
   3  -2   2 23864.2 887.047   4
   3  -2   2 25305.3 896.691   2
   3  -2   2 23079.8 864.521   7
  -3  -2  -2 25980.9 939.065   8
   3  -2   2 25520.7 769.979  10
   3  -2   2 26603.1 860.146   5
  -3  -2  -2 22619.2 862.686   9
  -3  -2  -2 24682.1 767.368  16
   3  -2   1 2321.68 266.703   5
   3   2  -1 3368.25 583.629  14
  -3   2   1 2543.68 332.540   3
   3   2  -1 2780.24 379.236   5
  -3  -2  -1 2390.37 296.907   8
   3  -2   1 2082.85 291.104   7
   3  -2   1 2213.42 300.589   4
   3   2  -1 2526.42 300.542   4
  -3   2   1 2319.47 295.750   1
   3  -2   1 2584.63 321.725   2
  -3  -2  -1 2835.13 287.006  15
  -3   2   1 1748.28 287.416   6
  -3  -2  -1 2203.58 287.872   3
   3  -2   1 2433.77 257.096  10
  -3  -2  -1 2258.07 255.080  16
  -3  -2  -1 2448.97 263.878   1
  -3  -2  -1 2352.12 307.704   9
  -3  -2   0 20337.1 779.964   8
  -3   2   0 19708.0 722.336   8
   3   2   0 20948.6 707.275   4
   3  -2   0 19360.9 768.004   4
  -3  -2   0 20508.7 660.602  15
   3  -2   0 19632.3 762.414   7
   3   2   0 21987.3 766.090  14
  -3  -2   0 18581.6 637.305   1
  -3  -2   0 20557.8 674.433   3
  -3   2   0 19390.4 787.215   3
  -3   2   0 19611.6 785.434   6
   3  -2   0 19026.4 765.087   2
   3   2   0 20398.5 670.323   2
  -3   2   0 18991.4 753.402   1
  -3  -2   0 19847.6 682.748  16
   3  -2   0 18883.1 635.676  10
   3   2   0 19842.4 812.485   5
   3  -2   0 19390.4 686.786   5
  -3  -2   0 21035.0 806.577   9
   3   2   1 2426.27 325.165   5
  -3  -2   1 2235.32 319.047  16
  -3  -2   1 2577.77 327.995   9
  -3  -2   1 2320.84 266.598   3
   3   2   1 2668.89 281.654   2
   3   2   1 2376.56 287.708  13
  -3   2  -1 2399.78 285.907   8
   3   2   1 2319.54 302.295   4
  -3  -2   1 2404.34 272.074  15
   3   2   1 2214.68 314.172  12
   3  -2  -1 2853.22 351.643   4
   3  -2  -1 2536.54 322.559   7
  -3   2  -1 2397.43 342.973   6
  -3   2  -1 2936.75 335.780  11
   3  -2  -1 3110.21 336.247   5
  -3   2  -1 1858.21 293.189   3
  -3  -2   1 2532.82 306.579   8
   3  -2  -1 2563.30 329.134   2
  -3   2  -1 2254.97 309.249   1
   3   2   2 25223.9 823.157   2
  -3   2  -2 25705.8 856.642   8
  -3   2  -2 24958.4 953.220   1
  -3   2  -2 25194.0 986.925   3
  -3   2  -2 24533.0 1062.32   6
   3   2   2 25949.2 971.051  12
   3   2   2 25519.1 962.851   5
   3  -3   3 4441.73 448.128   7
   3  -3   3 5049.78 453.576   2
   3  -3   3 5081.75 447.126  10
   3  -3   2 1693.61 269.525  10
  -3  -3  -2 2681.30 340.722   8
   3  -3   2 1777.41 290.937   4
   3  -3   2 1668.81 297.882   7
  -3  -3  -2 1666.72 261.010  16
   3  -3   2 1988.00 308.020   2
  -3  -3  -2 1653.61 235.273   1
  -3  -3  -2 1678.40 302.399   9
  -3  -3  -1 15457.2 705.986   8
   3  -3   1 15822.6 716.817   4
   3   3  -1 16828.9 634.997   4
  -3  -3  -1 15893.8 557.033   1
  -3  -3  -1 15689.8 695.602  16
   3  -3   1 16624.6 755.644   7
  -3  -3  -1 15633.5 662.964  15
   3   3  -1 14382.8 917.317  14
  -3  -3  -1 16036.4 679.958   3
   3  -3   1 15033.3 701.931   2
  -3   3   1 16261.9 820.920   6
  -3   3   1 14529.8 732.714   3
  -3   3   1 14790.9 760.129   1
   3  -3   1 15400.3 655.886  10
   3  -3   1 14938.3 579.021   5
   3   3  -1 16100.3 815.939   5
  -3  -3  -1 15736.8 742.113   9
  -3   3   0 10648.4 620.496   3
  -3  -3   0 11805.7 607.543   8
   3   3   0 12021.3 532.048   4
  -3   3   0 11693.7 618.756   8
   3  -3   0 11230.4 606.954   4
  -3  -3   0 11729.8 596.342  16
   3   3   0 11196.8 551.198   2
   3  -3   0 11886.1 632.448   2
   3  -3   0 11245.3 629.928   7
  -3   3   0 11444.2 622.075   1
  -3  -3   0 10385.4 446.145   1
  -3  -3   0 12341.8 497.460   3
  -3   3   0 10949.4 659.883   6
   3   3   0 12754.5 702.959  12
   3  -3   0 11765.0 576.314  10
   3   3   0 12275.0 663.369   5
   3  -3   0 12055.8 522.160   5
  -3  -3   0 11772.5 602.688  15
  -3  -3   0 10881.7 615.677   9
   3   3   0 10939.7 661.563  14
  -3   3  -1 14480.3 727.902   1
  -3   3  -1 15362.8 633.897   8
  -3  -3   1 15717.4 712.789   8
   3   3   1 15659.2 567.651   2
  -3  -3   1 16132.4 735.331  16
   3  -3  -1 15042.0 715.633   4
   3  -3  -1 14179.1 729.602   7
   3  -3  -1 16676.8 804.412   2
  -3   3  -1 15265.0 802.256   6
   3   3   1 15583.4 712.230  13
  -3   3  -1 15815.0 757.799   3
  -3   3  -1 16643.5 769.075  11
  -3  -3   1 15348.7 667.807  15
  -3  -3   1 15985.7 496.199  10
   3   3   1 15813.6 759.056   5
   3   3   1 15206.2 764.175  12
   3  -3  -1 15726.3 638.619   5
  -3  -3   1 15077.1 548.413   3
  -3  -3   1 14826.2 716.827   9
   3   3   2 2223.58 373.453  12
  -3  -3   2 1538.57 306.246   9
  -3   3  -2 1742.82 274.142   8
  -3   3  -2 1885.19 334.577   3
  -3   3  -2 2125.60 417.638   6
  -3   3  -2 2254.71 469.142  11
   3   3   2 1774.74 236.841   2
  -3   3  -2 2091.26 349.574   1
  -3  -3   2 2129.41 315.257  15
   3   3   2 2345.93 357.292   5
  -3   3  -3 4211.94 624.929   6
  -3   3  -3 4396.65 530.887   1
   3  -4   3 16992.8 915.083   7
   3  -4   3 18667.3 857.533   2
   3  -4   3 17279.4 861.423  10
   3   4  -2 4803.29 652.187   5
   3  -4   2 4605.68 463.442   4
  -3  -4  -2 4363.89 418.023   8
   3  -4   2 4767.86 455.332   2
  -3  -4  -2 3959.60 421.859  16
   3  -4   2 4154.66 472.867   7
   3  -4   2 3905.98 415.821  10
  -3  -4  -2 3795.99 429.500   9
  -3  -4  -1 689.195 251.440   9
   3  -4   1 587.442 226.175   2
   3   4  -1 600.267 290.611   5
  -3   4   1 715.770 283.338   3
  -3  -4  -1 565.300 219.944   8
  -3  -4  -1 573.616 246.147  16
  -3  -4  -1 682.402 239.611  15
   3  -4   1 681.399 230.243   7
   3   4  -1 295.882 374.496  14
   3  -4   1 701.213 233.583   4
  -3   4   1 479.903 290.813   6
   3  -4   1 611.377 240.663  10
  -3   4   0 11082.9 652.863   1
  -3  -4   0 11254.0 610.650   8
   3  -4   0 10751.0 630.404   4
  -3  -4   0 11397.6 642.036  16
   3  -4   0 11427.0 655.336   2
  -3  -4   0 10628.9 614.673  15
   3   4   0 11805.4 715.863  14
   3   4   0 10724.5 728.781  12
   3   4   0 11358.0 681.025  13
  -3   4   0 9464.86 617.270   3
  -3   4   0 10709.3 695.938   6
   3  -4   0 10612.9 619.360  10
   3   4   0 10022.4 634.748   5
   3  -4   0 10228.0 651.113   7
  -3  -4   0 9942.95 636.291   9
  -3  -4   1 644.213 270.330   9
  -3   4  -1 544.758 254.869   1
  -3  -4   1 471.796 229.373  15
  -3  -4   1 661.873 243.646  16
   3  -4  -1 354.622 217.369   4
   3  -4  -1 219.518 221.262   7
   3   4   1 734.454 283.268  13
  -3  -4   1 337.132 174.863   8
  -3   4  -1 516.990 276.095   6
  -3   4  -1 485.726 288.041  11
   3  -4  -1 459.608 207.521  10
  -3   4  -1 784.341 268.976   3
   3   4   1 630.245 317.765  12
   3   4   1 934.762 267.010   5
  -3  -4   2 3710.91 439.682   9
  -3  -4   2 4229.24 447.294  16
  -3  -4   2 4381.03 464.880  15
   3   4   2 3940.28 503.777  12
  -3   4  -2 3757.60 551.880   6
  -3   4  -2 5199.70 690.467  11
  -3   4  -2 3853.26 470.433   3
  -3   4  -2 3707.24 460.742   1
  -3   4  -3 16290.4 1009.67   1
  -3   4  -3 17417.6 1240.81   6
   3  -5   3 5160.25 507.887   2
   3  -5   3 4382.16 551.586   7
   3  -5   3 4834.71 516.830  10
  -3  -5  -2 25674.4 993.115   8
   3  -5   2 24888.2 992.657   4
   3  -5   2 27251.5 1041.88   2
   3  -5   2 24538.2 1099.07   7
   3   5  -2 23708.3 1790.03  14
   3  -5   2 25264.4 1065.65  10
  -3  -5  -2 25450.6 1085.02  16
   3   5  -2 25340.2 1337.82   5
  -3  -5  -2 24523.1 1096.43   9
   3  -5   1 10936.1 667.455   2
  -3   5   1 10975.4 832.200   6
  -3  -5  -1 10676.9 621.008   8
   3  -5   1 10875.4 644.847   4
  -3  -5  -1 11129.0 708.438  15
   3   5  -1 10510.9 924.699  14
  -3   5   1 10363.6 717.552   3
   3  -5   1 9579.72 677.535   7
   3  -5   1 10348.4 680.115  10
   3   5  -1 10115.5 732.707   5
  -3  -5  -1 10052.6 688.346  16
  -3  -5  -1 9480.84 681.270   9
   3   5   0 3679.47 460.240   5
  -3   5   0 3611.62 443.964   3
  -3  -5   0 4191.40 489.261   9
  -3  -5   0 3396.04 435.851  15
  -3  -5   0 4015.95 387.588   8
  -3  -5   0 4086.61 452.337  16
   3   5   0 3660.48 509.586  13
   3  -5   0 4117.27 424.157   4
   3  -5   0 3648.59 448.055   7
   3   5   0 4053.57 550.026  12
  -3   5   0 3565.27 528.197   6
   3   5   0 3651.19 531.723  14
   3  -5   0 4285.30 461.723  10
   3  -5   0 3822.35 426.765   2
  -3   5   0 3535.49 459.561   1
  -3   5  -1 10060.9 698.237   1
  -3  -5   1 10734.3 621.809   8
   3  -5  -1 11059.2 666.151   4
  -3  -5   1 10391.0 689.677  15
   3   5   1 10432.0 776.687  12
   3  -5  -1 11156.7 743.332   7
  -3  -5   1 11472.3 747.047  16
   3   5   1 10614.0 763.519  13
  -3   5  -1 10703.2 693.875   3
  -3   5  -1 11441.9 826.929   6
  -3   5  -1 10060.6 768.143  11
   3   5   1 9600.33 697.661   5
   3  -5  -1 10489.3 707.035  10
  -3  -5   1 10394.8 708.927   9
  -3  -5   2 24230.9 1085.61  15
  -3  -5   2 24969.4 1092.81  16
   3   5   2 23615.5 1180.93  12
  -3   5  -2 23686.7 1163.82   1
  -3   5  -2 24747.7 1119.87   3
  -3   5  -2 25819.6 1319.39   6
  -3   5  -2 22995.6 1359.15  11
  -3  -5   2 25483.8 1116.66   9
  -3   5  -3 2479.40 653.122   6
  -3   5  -3 3302.53 1041.68  11
  -3   5  -3 4056.55 662.973   1
   3  -6   3 6380.70 680.934   7
   3  -6   3 7266.97 711.112  10
   3  -6   2 20088.2 1071.62   7
  -3  -6  -2 19709.5 1038.36  15
   3   6  -2 20429.5 1825.91  14
  -3  -6  -2 19905.9 1065.92  16
   3  -6   2 19588.5 1022.61  10
  -3  -6  -2 20760.4 1073.42   9
  -3  -6  -1 15187.3 897.508  15
   3  -6   1 13087.1 852.566   7
   3   6  -1 14020.9 1158.06  14
  -3   6   1 12588.7 966.621   6
   3   6  -1 13760.3 1091.62  12
  -3  -6  -1 12452.6 831.767  16
   3  -6   1 13573.3 841.350  10
  -3  -6  -1 14571.8 869.462   9
  -3  -6   0-171.727 268.595   9
   3   6   0-423.940 438.464  14
  -3  -6   0 601.660 357.252  16
  -3  -6   0 475.292 330.033  15
   3  -6   0 63.8791 295.513   7
   3   6   0-42.2198 400.914  13
   3   6   0 611.991 414.447  12
  -3   6   0-812.076 456.022   6
  -3   6   0-339.280 369.656  11
   3  -6   0-328.877 307.648  10
  -3  -6   1 14435.6 907.066  16
  -3  -6   1 13321.4 860.293  15
   3  -6  -1 15236.7 935.733   7
   3   6   1 13072.8 914.296  12
   3   6   1 14402.2 972.988  13
  -3   6  -1 16072.1 1059.83   6
   3  -6  -1 14752.9 909.200  10
  -3   6  -1 14410.5 1007.86  11
  -3  -6   1 14336.8 892.001   9
  -3  -6   2 18578.5 1031.88  15
  -3   6  -2 20961.1 1298.07   6
   3   6   2 20818.2 1210.94  12
  -3   6  -2 19072.8 1339.35  11
  -3  -6   2 20495.0 1111.09  16
  -3  -6   2 21200.1 1070.20   9
  -3   6  -3 5762.06 881.145   6
  -3   6  -3 5666.78 1118.58  11
   3  -7   3 3094.28 589.558   7
   3  -7   3 2414.56 518.754  10
  -3  -7  -2 3880.53 571.117   9
  -3  -7  -2 4534.02 623.169  16
   3   7  -2 3423.83 1092.77  14
   3  -7   2 4634.48 596.527   7
   3   7  -2 6168.17 1151.46  12
   3  -7   2 4101.96 597.900  10
  -3  -7  -1 774.675 358.628   9
  -3  -7  -1 111.690 322.810  16
  -3  -7  -1 646.286 377.530  15
   3   7  -1 1700.96 752.128  14
   3  -7   1 1123.05 394.463   7
   3   7  -1 966.328 624.031  13
   3   7  -1-79.6262 537.603  12
  -3   7   1-202.608 531.280   6
   3  -7   1 611.778 356.933  10
  -3  -7   0 3707.29 530.012   9
  -3  -7   0 3268.59 520.420  15
  -3  -7   0 3943.33 595.480  16
   3   7   0 3549.17 651.196  14
   3  -7   0 3494.22 531.701   7
   3   7   0 3855.80 645.916  13
   3   7   0 4097.31 711.376  12
  -3   7   0 4443.41 700.522   6
  -3   7   0 3380.58 625.187  11
   3  -7   0 3606.50 538.037  10
  -3  -7   1 68.1403 291.514  16
  -3  -7   1 548.287 344.040   9
  -3  -7   1 970.138 429.127  15
   3   7   1 1253.38 569.729  13
   3   7   1 499.838 471.240  12
  -3   7  -1 449.768 429.980   6
  -3   7  -1 262.886 495.860  11
   3  -7  -1 294.483 273.279  10
  -3  -7   2 5113.24 640.301   9
  -3  -7   2 5214.04 690.499  15
  -3  -7   2 4255.93 598.243  16
  -3   7  -2 3525.99 747.927   6
  -3   7  -2 4188.13 854.508  11
  -3   7  -3 2103.84 807.897   6
  -3   7  -3 2253.63 1006.99  11
   3  -8   3 7642.49 825.481   7
   3  -8   3 7140.88 801.354  10
   3  -8   2 1992.95 479.227   7
   3   8  -2-540.385 1026.84  13
   3   8  -2 1720.88 1142.72  14
   3   8  -2 2922.89 1204.98  12
   3  -8   2 1506.44 475.753  10
  -3  -8  -1 1090.49 422.587   9
   3   8  -1 187.065 654.370  12
   3  -8   1 1197.45 416.548   7
  -3  -8  -1 1332.56 486.580  15
   3   8  -1 804.653 684.418  13
  -3   8   1 311.842 518.674   6
   3  -8   1 554.870 396.713  10
  -3  -8  -1 347.215 381.183  16
   3   8  -1 1604.98 797.835  14
   3   8   0 6456.97 961.915  14
   3   8   0 6332.57 899.952  12
  -3  -8   0 7430.96 787.016  15
  -3  -8   0 5794.66 723.955  16
   3  -8   0 6205.33 695.708   7
   3   8   0 6216.43 902.396  13
  -3   8   0 7542.26 907.068   6
  -3   8   0 6613.63 896.228  11
   3  -8   0 6153.23 719.861  10
  -3  -8   0 7577.10 767.696   9
  -3  -8   1 1961.27 490.164   9
   3   8   1 1164.80 625.087  13
  -3  -8   1 162.549 364.932  16
  -3  -8   1 857.950 460.727  15
   3   8   1-17.6971 514.684  12
  -3   8  -1 1364.01 563.210   6
  -3   8  -1 1845.46 767.721  11
   3   8   1 1183.04 563.915  14
  -3  -8   2 1739.17 460.241  16
  -3  -8   2 1999.94 533.879  15
  -3   8  -2 2487.93 762.300   6
  -3   8  -2 2856.93 922.165  11
  -3   8  -3 6780.80 1188.43   6
  -3   8  -3 6514.75 1476.98  11
   3  -9   3 2910.65 644.521   7
   3  -9   3 62.3433 462.652  10
   3   9  -2-165.662 1207.23  14
   3  -9   2-59.0323 416.389   7
   3  -9   2 670.093 460.616  10
  -3  -9  -1 301.180 428.434   9
  -3  -9  -1-426.180 481.264  16
   3   9  -1 186.908 875.347  14
  -3  -9  -1 1184.36 496.937  15
   3   9  -1 2186.35 982.702  13
   3   9  -1-236.972 972.162  12
   3  -9   1-557.728 442.003   7
   3  -9   1 743.664 464.264  10
  -3  -9   0 4047.48 674.610   9
   3   9   0 2666.38 841.400  14
  -3  -9   0 3036.00 578.781  15
   3  -9   0 3318.01 633.354   7
   3   9   0 1207.32 675.263  13
  -3   9   0 3196.35 771.405   6
  -3   9   0 3514.50 839.820  11
   3   9   0 4414.80 1017.38  12
   3  -9   0 2596.78 529.223  10
  -3  -9   0 3447.27 621.447  16
  -3  -9   1 426.178 389.716  16
  -3  -9   1 438.659 422.304  15
   3   9   1 684.695 748.815  14
   3   9   1 164.579 634.453  13
   3   9   1 1188.78 773.763  12
  -3   9  -1-210.013 652.341   6
  -3   9  -1 502.874 685.900  11
  -3  -9   2 859.027 466.677  16
  -3  -9   2 504.939 413.732  15
  -3   9  -2 2385.64 880.153   6
  -3   9  -2 1263.36 915.152  11
  -3   9  -3 3079.41 1481.71  11
  -3 -10  -1 1659.48 581.506  16
  -3 -10  -1 1067.50 607.622  15
   3 -10   1 1845.95 615.655  10
  -3 -10   0 1463.54 564.182  16
  -3 -10   0 743.606 518.773  15
  -3 -10   1 824.739 522.416  16
  -3 -10   1 559.709 534.813  15
  -4   0   0 22.6385 222.072   3
  -4   0   0 158.639 178.483   9
   4   0   0-26.5262 259.460   5
  -4   0   0-123.626 207.890   8
   4   0   0-75.5971 231.337   4
   4   0   0 209.420 169.045   7
  -4   0   0-82.0868 157.486   1
   4   0   0 310.894 230.232   2
  -4   0   0 325.237 187.443   6
  -4   0  -1 16186.1 756.103   8
  -4   0   1 15480.9 770.000   8
   4   0   1 14776.2 739.479   4
   4   0   1 15839.6 752.479   2
   4   0  -1 15494.9 823.261   4
  -4   0  -1 17005.4 781.141   1
   4   0   1 16361.3 656.017   7
   4   0  -1 15599.8 789.509   2
  -4   0  -1 16762.3 747.523   6
   4   0   1 15215.3 648.182  12
  -4   0   1 17553.7 720.047   6
  -4   0   1 14833.5 724.614   1
  -4   0   1 16271.9 803.555   3
  -4   0  -1 16198.3 774.557   3
   4   0   1 16359.8 781.457   5
   4   0  -1 15445.0 846.494   5
  -4   0  -1 15584.4 666.882   9
  -4   0  -2 68945.0 1666.56   8
   4   0   2 69922.1 1628.10   4
   4   0   2 66533.3 1576.21   2
  -4   0  -2 69211.9 1658.78   1
   4   0   2 71085.4 1440.28   7
  -4   0  -2 64742.9 1669.09   3
   4   0   2 69794.6 1647.04   5
  -4   0  -2 68567.2 1447.24   9
   4  -1   3 720.218 267.783   7
   4  -1   3 831.579 287.592   2
  -4  -1  -2 5762.36 529.282   8
   4  -1   2 6465.28 542.260   4
   4  -1   2 5977.74 514.204   2
  -4  -1  -2 6368.30 519.457   1
   4  -1   2 6440.56 490.192   7
  -4  -1  -2 6200.17 547.322   3
   4  -1   2 5789.69 499.920   5
  -4  -1  -2 6424.81 510.804   9
  -4  -1  -1 13514.2 723.604   8
  -4   1   1 12941.6 723.106   8
   4  -1   1 12812.7 707.767   4
   4  -1   1 11638.9 666.768   2
  -4  -1  -1 14081.1 683.168   1
   4  -1   1 13025.3 646.362   7
   4   1  -1 12488.0 694.823   2
  -4  -1  -1 12049.7 636.795   6
  -4  -1  -1 12390.9 671.998   3
   4  -1   1 12700.5 548.770  12
  -4   1   1 12104.3 700.053   1
  -4   1   1 12661.4 686.945   6
  -4   1   1 12997.8 756.298   3
   4  -1   1 12606.0 674.762   5
   4   1  -1 12742.8 798.407   5
   4   1  -1 13647.2 756.071   4
  -4  -1  -1 12430.1 654.732   9
   4  -1   0 31210.0 1082.97   2
  -4  -1   0 29733.3 1044.62   8
  -4   1   0 32121.7 1057.94   8
   4   1   0 30842.6 1021.57   4
   4  -1   0 29945.9 1061.77   4
   4   1   0 31781.5 1031.56   2
   4  -1   0 31960.5 995.485   7
   4   1   0 31795.5 844.581   7
  -4  -1   0 31439.9 999.617   1
  -4  -1   0 32029.1 820.945   6
  -4  -1   0 31535.6 1019.16   3
  -4   1   0 30343.9 1076.49   3
  -4   1   0 32938.5 1034.02   6
  -4   1   0 31685.8 1058.03   1
   4   1   0 29465.9 1090.55   5
   4  -1   0 31725.5 1059.19   5
  -4  -1   0 30252.5 1001.06   9
  -4   1   0 29032.2 1006.85   9
  -4   1  -1 12807.6 674.859   8
   4   1   1 12919.2 679.197   4
  -4  -1   1 12968.0 715.647   8
   4   1   1 12915.9 662.316   2
   4  -1  -1 12781.7 752.759   4
  -4   1  -1 12720.9 711.949   1
   4   1   1 13601.6 529.139   7
   4  -1  -1 12640.3 747.126   2
  -4   1  -1 13022.5 707.790   6
   4   1   1 12665.8 670.985  12
  -4   1  -1 12554.4 728.006   3
  -4  -1   1 14039.3 579.334   6
  -4  -1   1 11834.3 648.474   1
  -4  -1   1 13310.8 706.301   3
   4   1   1 12531.3 707.279   5
   4  -1  -1 13094.9 741.486   5
  -4   1  -1 13566.2 574.425   9
  -4  -1   1 12672.0 689.377   9
  -4   1  -2 5803.63 494.616   8
   4   1   2 6055.30 510.345   4
   4   1   2 6124.06 494.758   2
  -4   1  -2 5916.28 552.808   1
   4   1   2 6636.80 408.089   7
  -4   1  -2 6373.78 611.695   6
  -4   1  -2 6193.12 579.669   3
   4   1   2 6174.07 497.016  12
   4   1   2 5616.90 516.140   5
  -4   1  -2 6331.46 415.826   9
  -4   1  -3 150.496 256.710   8
  -4   1  -3 754.451 364.619   3
  -4   1  -3 508.213 322.518   1
   4  -2   3 771.206 286.543   7
   4  -2   3 868.378 287.462   2
  -4  -2  -2 6419.46 560.709   8
   4  -2   2 5716.75 526.828   4
   4  -2   2 5616.40 512.106   2
  -4  -2  -2 6754.04 496.182   1
  -4  -2  -2 6649.48 437.200  16
   4  -2   2 6428.29 527.421   7
  -4  -2  -2 6188.86 557.201   3
   4  -2   2 6845.69 524.628   5
  -4  -2  -2 6224.52 542.546   9
  -4  -2  -1 11422.4 690.169   8
   4  -2   1 12031.7 702.696   4
   4   2  -1 12291.5 700.822   4
  -4  -2  -1 12081.5 555.798  16
   4  -2   1 11731.4 691.071   2
   4  -2   1 11881.4 659.672   7
  -4  -2  -1 13188.9 637.192   1
  -4  -2  -1 12279.1 549.570  15
   4   2  -1 11876.8 692.911   2
  -4  -2  -1 11673.7 639.792   3
  -4   2   1 11768.2 711.471   6
  -4   2   1 11867.1 716.519   1
  -4   2   1 11735.4 745.935   3
   4  -2   1 12225.7 531.124  10
   4  -2   1 12752.9 659.473   5
   4   2  -1 12875.8 828.859   5
  -4  -2  -1 11276.0 663.997   9
  -4  -2   0 779.594 229.951   3
  -4  -2   0 547.527 231.394   9
  -4   2   0 534.662 281.151   3
   4   2   0 528.411 295.018   5
   4  -2   0 456.195 209.094   5
  -4  -2   0 596.782 222.231   8
  -4   2   0 763.455 248.838   8
  -4  -2   0 540.737 182.992  16
  -4  -2   0 531.936 179.470  15
   4   2   0 743.703 251.726   4
   4  -2   0 570.947 231.986   7
   4   2   0 605.902 222.447  14
   4  -2   0 616.243 275.288   4
   4   2   0 459.314 162.784  13
   4   2   0 732.958 287.925  12
   4  -2   0 424.833 231.233   2
   4   2   0 465.987 167.694   2
  -4   2   0 485.876 249.518   6
  -4   2   0 660.478 198.764  11
  -4   2   0 78.1900 185.157   1
  -4  -2   0 903.288 228.185   1
   4  -2   0 440.160 143.568  10
  -4   2  -1 12712.8 679.426   8
   4   2   1 11788.7 652.673   4
  -4  -2   1 11666.1 706.558   8
   4  -2  -1 10967.7 721.192   4
  -4  -2   1 13256.9 593.862  15
   4  -2  -1 12209.9 748.927   2
  -4   2  -1 10639.1 685.063   1
   4  -2  -1 12509.5 712.817   7
   4   2   1 12218.5 575.718  13
  -4   2  -1 13236.0 766.329   6
   4   2   1 12332.7 719.336  12
  -4   2  -1 11576.0 715.140   3
  -4  -2   1 12319.3 655.888   3
   4   2   1 12567.0 736.398   5
   4   2   1 12383.4 622.290   2
   4  -2  -1 12366.8 697.306   5
  -4  -2   1 11979.9 686.349   9
  -4   2  -2 6705.71 539.968   8
   4   2   2 6630.53 500.994   2
  -4   2  -2 6484.61 596.628   1
  -4   2  -2 5962.37 620.374   6
   4   2   2 5272.61 516.086  12
   4   2   2 6186.81 565.202   5
  -4   2  -2 5536.73 580.033   3
  -4   2  -3 1212.41 359.374   8
  -4   2  -3 1251.41 410.501   3
  -4   2  -3 629.596 313.336   1
   4  -3   3 1231.06 350.682   7
   4  -3   3 832.815 268.615   2
   4  -3   3 942.398 248.171  10
   4   3  -2 1760.94 537.197   5
  -4  -3  -2 1289.97 326.988   8
  -4  -3  -2 1568.78 301.687  16
   4  -3   2 1276.03 310.827   4
   4  -3   2 1581.89 360.276   7
   4  -3   2 1622.95 357.240   2
  -4  -3  -2 1696.69 294.125   1
   4  -3   2 1599.31 301.235  10
   4  -3   2 1288.36 275.364   5
  -4  -3  -2 1492.31 367.086   9
   4   3  -1 5524.42 575.786   5
  -4  -3  -1 6793.19 560.548   8
   4  -3   1 6765.59 560.021   4
  -4  -3  -1 6187.54 477.319  16
   4  -3   1 6682.49 565.938   7
  -4  -3  -1 7037.71 479.639  15
  -4  -3  -1 7177.54 466.885   1
  -4  -3  -1 5813.27 467.841   3
  -4   3   1 5612.51 540.080   1
   4   3  -1 6689.70 868.408  14
  -4   3   1 6227.06 591.723   3
   4  -3   1 6209.63 538.061   2
  -4   3   1 6055.62 593.936   6
   4  -3   1 6628.47 458.124  10
   4  -3   1 6842.91 483.614   5
  -4  -3  -1 7402.18 598.297   9
  -4  -3   0 131.572 214.299   9
  -4   3   0 212.325 241.100   1
  -4   3   0-66.2291 249.459   3
   4  -3   0 237.466 239.879   7
   4   3   0 144.371 257.279   5
   4  -3   0 82.0755 207.669   5
  -4  -3   0 222.142 224.342   8
  -4   3   0 644.782 277.384   8
  -4  -3   0 414.606 206.864  16
  -4  -3   0-69.4859 175.069  15
  -4  -3   0 100.542 155.864   1
   4  -3   0 242.558 257.608   4
   4   3   0 189.089 257.602  14
   4   3   0 168.150 209.706  13
   4   3   0 152.163 279.524  12
  -4   3   0 254.329 273.095   6
  -4   3   0 241.941 198.087  11
   4  -3   0 222.488 235.766   2
   4   3   0 344.841 206.130   2
   4  -3   0 269.882 188.467  10
  -4  -3   0 3.60755 168.564   3
   4   3   1 6010.68 538.209   4
  -4   3  -1 6741.97 528.049   8
  -4  -3   1 7097.95 556.030   8
   4  -3  -1 6558.01 583.785   4
   4   3   1 6187.12 443.245   2
  -4  -3   1 7011.73 530.775  16
  -4  -3   1 7277.11 510.888  15
   4  -3  -1 6633.78 597.400   2
   4  -3  -1 5930.15 551.802   7
  -4   3  -1 6504.10 570.859   1
   4   3   1 7174.53 533.195  13
  -4   3  -1 6957.16 630.869   6
   4   3   1 6147.00 578.427  12
  -4   3  -1 6398.83 588.672   3
  -4  -3   1 6496.31 461.682   3
  -4   3  -1 5948.67 527.458  11
   4   3   1 6576.48 584.015   5
   4  -3  -1 6289.41 508.052   5
  -4  -3   1 5755.05 544.649   9
  -4   3  -2 1705.88 332.920   8
  -4  -3   2 1525.62 298.091  15
   4   3   2 1129.48 248.752   2
   4   3   2 1223.26 355.579  12
  -4   3  -2 2055.90 470.688   6
  -4   3  -2 1279.72 505.103  11
  -4   3  -2 1127.39 329.974   3
  -4   3  -2 1079.95 348.884   1
   4   3   2 1834.15 370.564   5
  -4   3  -3 1370.63 377.325   8
  -4   3  -3 1318.29 549.934   6
  -4   3  -3 1306.83 430.020   3
  -4   3  -3 1385.97 430.360   1
   4  -4   3 3928.93 501.860   7
   4  -4   3 4058.75 500.925   2
   4  -4   3 5127.74 505.041  10
  -4  -4  -2 11057.5 728.242   8
   4  -4   2 13147.0 941.547   4
  -4  -4  -2 11145.8 697.246  16
   4  -4   2 11797.4 793.555   2
   4  -4   2 11620.9 771.758   7
   4  -4   2 11008.1 669.885  10
   4   4  -2 11394.5 1043.33   5
  -4  -4  -2 10993.6 775.948   9
  -4  -4  -1 7843.22 608.976   8
   4  -4   1 6867.49 581.575   4
  -4  -4  -1 7355.66 553.891  16
   4  -4   1 6912.13 608.664   7
  -4  -4  -1 8128.59 576.092  15
   4   4  -1 8839.17 915.741  14
  -4   4   1 7570.34 677.044   3
  -4   4   1 8578.80 755.324   6
  -4   4   1 6607.57 662.744   1
   4  -4   1 7733.55 622.262   2
   4  -4   1 8238.51 579.451  10
   4   4  -1 7775.63 742.991   5
  -4  -4  -1 7090.33 625.177   9
  -4  -4   0 2695.11 402.532   9
  -4   4   0 2539.52 432.697   3
   4   4   0 3612.93 499.839   5
  -4  -4   0 3162.28 408.751   8
  -4  -4   0 3462.27 404.366  15
   4  -4   0 2782.12 422.419   7
   4  -4   0 3085.66 434.596   4
  -4   4   0 3020.44 437.963   1
   4   4   0 2639.95 457.281  14
  -4  -4   0 2803.40 405.879  16
   4   4   0 2823.91 433.095  13
   4   4   0 3275.05 537.869  12
  -4   4   0 2663.08 488.109   6
  -4   4   0 2956.38 406.874  11
   4  -4   0 1952.29 366.177   2
   4  -4   0 2994.24 366.094  10
  -4  -4   1 7361.84 593.011   8
   4  -4  -1 8168.15 653.795   4
  -4  -4   1 7669.34 592.483  16
  -4  -4   1 8321.44 610.101  15
   4  -4  -1 7875.03 666.925   7
   4  -4  -1 8391.34 693.258   2
  -4   4  -1 6847.96 623.631   1
   4   4   1 7348.56 602.400  13
  -4   4  -1 6816.33 669.604   6
  -4   4  -1 7752.80 652.765   3
   4   4   1 6953.53 657.730  12
  -4   4  -1 8549.25 683.516  11
   4   4   1 7526.60 662.353   5
  -4  -4   1 7678.97 640.193   9
  -4   4  -2 10494.2 836.614   1
  -4  -4   2 12783.7 779.716  15
  -4   4  -2 10757.6 807.347   3
  -4   4  -2 12015.2 912.774   6
   4   4   2 10368.6 782.323  12
  -4   4  -2 10578.2 972.841  11
   4   4   2 11396.9 831.278   5
  -4  -4   2 11816.9 802.211   9
  -4   4  -3 4400.25 786.865   6
  -4   4  -3 3586.22 599.616   3
  -4   4  -3 3309.58 591.293   1
   4  -5   3 3666.23 528.660   2
   4  -5   3 3560.97 547.384   7
   4  -5   3 2495.43 415.405  10
  -4  -5  -2 2841.67 493.734   9
   4   5  -2 2925.77 732.677   5
  -4  -5  -2 2620.41 412.788   8
   4  -5   2 2197.23 450.040   7
  -4  -5  -2 2454.37 431.596  16
   4  -5   2 2867.33 454.527   4
   4  -5   2 2611.43 456.234   2
   4  -5   2 2114.21 369.948  10
  -4  -5  -1 3264.79 487.602   9
   4   5  -1 3431.24 626.336   5
  -4   5   1 3447.68 542.756   3
  -4  -5  -1 3830.24 477.871   8
  -4  -5  -1 3494.90 491.234  16
   4  -5   1 3062.11 441.710   4
  -4  -5  -1 3093.36 426.380  15
   4  -5   1 3107.30 482.375   7
   4   5  -1 3685.50 730.006  14
   4   5  -1 3896.83 720.230  12
   4  -5   1 3263.00 444.392   2
  -4   5   1 2610.51 569.873   6
   4  -5   1 3365.49 430.490  10
  -4  -5   0 14508.3 802.445   8
   4  -5   0 13908.4 824.549   4
  -4  -5   0 14276.4 863.051  16
   4  -5   0 13887.9 858.619   2
  -4  -5   0 15129.9 859.397  15
   4  -5   0 14407.0 906.861   7
   4   5   0 13874.2 1021.54  14
   4   5   0 14857.1 934.149  13
  -4   5   0 13567.4 902.204   1
  -4   5   0 15122.6 992.195   6
   4   5   0 14246.6 1015.54  12
  -4   5   0 13748.1 875.326   3
  -4   5   0 15677.2 921.228  11
   4  -5   0 14688.3 830.971  10
   4   5   0 14055.2 941.553   5
  -4  -5   0 14170.1 876.689   9
  -4  -5   1 3355.68 496.267   9
  -4  -5   1 3176.08 462.650  15
   4  -5  -1 3585.53 498.221   4
   4  -5  -1 3631.79 539.612   7
   4   5   1 3963.82 543.570  13
   4   5   1 3692.31 588.021  12
  -4  -5   1 3090.24 434.144   8
  -4   5  -1 2860.00 549.102   6
  -4   5  -1 3874.45 597.473  11
  -4   5  -1 3343.31 512.527   1
  -4   5  -1 3897.76 524.070   3
   4   5   1 3732.37 565.004   5
  -4  -5   1 3308.61 472.661  16
  -4  -5   2 2011.83 422.314   9
  -4   5  -2 2412.23 550.399   1
  -4  -5   2 2590.66 455.091  15
   4   5   2 1673.41 450.353  12
  -4   5  -2 1673.41 537.930   6
  -4   5  -2 2913.31 627.817  11
  -4   5  -2 1807.68 440.100   3
  -4   5  -3 3081.52 733.887   6
  -4   5  -3 2935.17 706.862   1
   4  -6   3 10591.1 884.691   7
   4  -6   3 9654.67 807.184  10
  -4  -6  -2 1248.83 401.466   9
   4  -6   2 1731.21 394.820   4
  -4  -6  -2 1377.09 437.393  16
   4  -6   2 1313.94 402.875  10
   4  -6   2 1627.62 475.569   7
  -4  -6  -1 121.027 328.148   9
  -4   6   1 804.485 439.404   3
   4  -6   1 362.864 324.673   4
  -4  -6  -1 476.284 336.542  15
   4  -6   1-215.077 295.830   7
   4   6  -1 1755.17 733.873  14
   4   6  -1-172.892 482.658  13
   4   6  -1 911.387 664.239  12
  -4   6   1 436.828 498.928   6
   4  -6   1 744.861 334.031  10
  -4  -6  -1 1328.08 421.591  16
   4  -6   0 11105.9 772.032   4
  -4  -6   0 12950.0 877.569  16
  -4  -6   0 12087.5 838.005  15
   4  -6   0 12561.0 891.210   7
   4   6   0 14800.5 1099.93  14
   4   6   0 11831.3 974.682  13
  -4   6   0 12296.7 1003.47   6
   4   6   0 10839.4 993.958  12
  -4   6   0 11604.4 969.982   1
  -4   6   0 13060.1 967.675  11
   4  -6   0 12323.1 840.402  10
  -4  -6   0 12057.9 870.971   9
  -4  -6   1 161.698 288.923   9
  -4   6  -1 689.819 471.351   1
  -4  -6   1-71.2663 314.975  15
   4  -6  -1 48.9552 337.565   4
   4   6   1-236.770 427.562  14
   4  -6  -1 563.138 314.664   7
   4   6   1 237.083 398.205  13
  -4  -6   1 94.1350 310.944  16
   4   6   1 735.031 437.558  12
  -4   6  -1 161.099 414.478   6
  -4   6  -1-674.049 524.505  11
  -4  -6   2 2250.16 474.636   9
  -4  -6   2 1672.32 415.015  16
  -4  -6   2 2014.01 493.996  15
   4   6   2 2107.42 536.682  12
  -4   6  -2 1904.62 631.119   6
  -4   6  -2 822.908 603.335  11
  -4   6  -2 1551.01 581.432   1
  -4   6  -3 9598.95 1124.64   1
  -4   6  -3 8344.51 1094.09   6
  -4   6  -3 10985.8 1606.26  11
   4  -7   3 414.792 456.604   7
   4  -7   3 165.966 400.221  10
  -4  -7  -2 1587.79 475.336   9
  -4  -7  -2 1308.88 460.378  16
   4  -7   2 2438.39 531.447   7
   4   7  -2 2726.87 1177.74  12
   4  -7   2 1859.89 486.539  10
  -4  -7  -1 219.197 357.810   9
  -4  -7  -1 835.197 406.493  16
  -4  -7  -1 1126.53 364.416  15
   4   7  -1 1632.52 835.592  14
   4  -7   1 1214.53 434.182   7
   4   7  -1 1225.40 636.141  13
   4   7  -1 2191.95 807.987  12
  -4   7   1 289.082 567.469   6
   4  -7   1 655.949 397.369  10
  -4  -7   0 1025.30 474.385   9
  -4  -7   0 219.581 358.467  16
  -4  -7   0 151.731 349.943  15
   4   7   0 1133.75 632.728  14
   4  -7   0-208.467 388.657   7
   4   7   0 1407.40 547.203  13
   4   7   0 177.268 568.400  12
  -4   7   0 1131.86 587.480   6
  -4   7   0 988.923 564.811  11
   4  -7   0 812.327 422.646  10
  -4  -7   1 1565.80 452.621   9
  -4  -7   1 1080.56 464.239  15
   4   7   1 479.413 485.161  14
   4   7   1 1785.92 566.750  13
   4   7   1 1352.95 525.748  12
  -4   7  -1 1153.56 550.263   6
  -4   7  -1 369.148 488.433  11
  -4  -7   1 908.146 402.822  16
  -4  -7   2 1298.27 401.737   9
  -4  -7   2 1878.67 434.254  16
  -4  -7   2 2062.65 490.847  15
   4   7   2 2694.40 666.436  12
  -4   7  -2 1119.66 586.260   6
  -4   7  -2 2918.72 887.130  11
  -4   7  -3-107.712 664.854   6
  -4   7  -3 1372.07 1029.85  11
   4  -8   3 1983.68 589.240   7
   4  -8   3 1388.06 482.963  10
   4  -8   2 3303.31 639.992   7
   4   8  -2 420.434 1024.32  13
   4   8  -2 3527.47 1501.21  12
   4  -8   2 1645.43 492.249  10
  -4  -8  -1 298.640 384.245   9
  -4  -8  -1 705.719 431.429  16
  -4  -8  -1 363.502 336.595  15
   4   8  -1 310.241 870.366  14
   4  -8   1 875.495 423.943   7
   4   8  -1 777.669 761.632  13
   4   8  -1-262.664 906.620  12
   4  -8   1 342.649 388.420  10
  -4  -8   0 2518.31 521.688   9
  -4  -8   0 2103.41 557.806  16
   4   8   0 761.942 774.283  14
   4  -8   0 1012.18 400.270   7
   4   8   0 3820.82 891.678  13
   4   8   0 289.348 649.513  12
  -4   8   0 2218.84 801.070   6
  -4   8   0 2665.30 761.201  11
   4  -8   0 1966.43 540.885  10
  -4  -8   0 1726.48 510.604  15
  -4  -8   1 509.166 405.399   9
  -4  -8   1 1229.78 465.205  16
  -4  -8   1 1108.69 521.961  15
   4   8   1 904.409 617.127  14
   4   8   1 172.822 621.023  13
   4   8   1 1308.02 751.399  12
  -4   8  -1 1309.85 616.695   6
  -4   8  -1-247.550 700.235  11
  -4  -8   2 2743.95 558.359  16
  -4  -8   2 2541.60 622.153  15
  -4   8  -2 3424.77 919.292   6
  -4   8  -2 3369.82 982.357  11
  -4   8  -3 789.299 816.743   6
  -4   8  -3 2.27474 1156.84  11
   4  -9   3 245.523 476.991   7
   4  -9   3 906.976 524.432  10
   4  -9   2 1176.14 501.079   7
   4   9  -2-267.372 1464.22  13
   4   9  -2 11.3394 1576.87  12
   4  -9   2 760.830 481.439  10
  -4  -9  -1 1293.84 515.122   9
  -4  -9  -1 2282.44 653.464  16
  -4  -9  -1 1713.04 591.286  15
   4   9  -1 2231.17 1096.27  14
   4  -9   1 1415.85 479.446   7
   4   9  -1 1282.15 972.353  13
   4   9  -1 115.204 991.191  12
   4  -9   1 1007.67 425.764  10
  -4  -9   0 718.656 480.391   9
  -4  -9   0 16.5473 469.221  16
  -4  -9   0-957.343 538.469  15
   4   9   0 3036.60 1061.40  14
   4  -9   0 259.085 421.138   7
   4   9   0 835.702 843.271  13
   4   9   0-1093.99 933.372  12
  -4   9   0 1605.85 797.514   6
  -4   9   0-369.159 665.672  11
   4  -9   0-45.4769 385.786  10
  -4  -9   1 1805.56 496.785   9
  -4  -9   1 1218.50 458.064  16
  -4  -9   1 2053.88 520.725  15
   4   9   1 2541.82 867.717  14
   4   9   1 32.4735 790.837  13
   4   9   1 979.066 752.724  12
  -4   9  -1 1605.80 755.923   6
  -4   9  -1 2122.98 881.349  11
  -4  -9   2 708.758 413.462  16
  -4  -9   2 83.7764 461.607  15
  -4   9  -3-665.563 878.749   6
  -4   9  -3-435.985 1503.43  11
  -5   0   0-69.5646 286.231   3
   5   0   0-275.066 310.037   5
  -5   0   0-393.371 270.370   9
  -5   0   0 74.2858 249.665   8
   5   0   0-191.533 316.862   4
   5   0   0-50.1400 184.138   7
   5   0   0-198.361 237.236  12
   5   0   0-284.260 303.286   2
  -5   0   0-124.917 216.058   1
  -5   0  -1 8899.33 681.168   8
   5   0   1 10411.9 746.955   4
  -5   0   1 9602.64 716.883   8
   5   0  -1 9863.14 785.732   4
   5   0   1 9884.80 704.909   2
   5   0   1 9135.40 561.743   7
   5   0  -1 9449.30 728.130   2
  -5   0  -1 9400.17 683.983   1
  -5   0  -1 9321.00 705.465   3
   5   0   1 10210.7 627.685  12
  -5   0   1 10593.3 646.003   6
  -5   0   1 9750.44 707.139   1
  -5   0   1 9943.11 742.300   3
   5   0   1 9189.87 706.207   5
   5   0  -1 9759.08 795.532   5
  -5   0  -1 9766.72 635.317   9
  -5   0  -2 513.035 255.367   9
  -5   0  -2 767.483 311.881   8
   5   0   2 477.935 332.830   4
   5   0   2 746.896 289.610   7
   5   0   2 620.520 300.892   2
   5   0   2 920.837 294.300  12
  -5   0  -2 679.304 320.161   3
   5   0   2 178.483 308.591   5
  -5   0  -2 509.539 249.766   1
  -5   0  -3 772.764 402.599   8
   5   0   3 387.405 261.353   7
   5   0   3 376.375 319.526   2
  -5   0  -3 801.655 422.567   3
  -5   0  -3 574.875 326.784   1
   5   0   3 487.650 353.103   5
  -5   0  -3-81.3800 271.947   9
  -5  -1  -3 2146.47 465.257   8
   5  -1   3 2132.71 410.491   7
   5  -1   3 2791.17 477.066   2
  -5  -1  -3 1221.14 407.218   1
   5  -1   3 2644.52 467.863   5
   5  -1   3 2213.23 451.503   4
  -5  -1  -3 2748.87 467.025   9
  -5  -1  -2 2128.18 402.122   9
  -5  -1  -2 2951.84 484.070   8
   5  -1   2 2221.51 419.267   4
   5  -1   2 3575.17 448.068   7
   5  -1   2 2330.66 441.845   2
  -5  -1  -2 1971.62 406.378   3
   5  -1   2 2450.43 437.501   5
  -5  -1  -2 2500.25 395.067   1
  -5  -1  -1 4157.06 473.644   9
   5  -1   1 4198.92 486.040   5
   5   1  -1 4928.89 547.602   2
  -5   1   1 3461.30 503.018   3
   5   1  -1 4274.57 620.689   5
  -5  -1  -1 3959.22 510.907   8
  -5  -1  -1 4094.79 468.076   1
  -5   1   1 4749.51 543.419   8
   5  -1   1 4547.67 539.436   4
   5  -1   1 4582.50 449.542   7
   5   1  -1 4224.26 550.039   4
  -5   1   1 4222.50 493.140   1
   5  -1   1 4149.36 508.830   2
  -5   1   1 4407.89 491.609   6
  -5  -1  -1 3935.75 496.163   3
  -5  -1   0 391.597 257.302   3
  -5   1   0 444.332 321.741   3
  -5  -1   0 571.063 265.157   9
   5   1   0-55.3117 325.698   5
   5  -1   0 503.164 286.874   5
  -5  -1   0 489.661 238.027   1
  -5  -1   0 566.211 275.892   8
  -5   1   0 288.375 233.393   8
   5  -1   0 956.169 381.384   4
   5  -1   0 323.841 223.940   7
   5   1   0 560.600 292.683  12
  -5   1   0 151.109 249.834   6
   5  -1   0 975.553 356.919   2
   5   1   0 212.452 293.868   4
   5   1   0 1394.54 470.221   2
  -5   1   0 563.026 308.572   1
   5  -1  -1 4411.43 558.453   2
   5   1   1 3992.27 501.377   5
  -5  -1   1 4240.31 501.543   3
  -5  -1   1 4083.11 485.501   9
  -5  -1   1 3784.20 447.486   1
   5  -1  -1 3871.02 537.846   5
  -5   1  -1 4119.72 495.759   8
  -5  -1   1 4262.72 501.006   8
  -5   1  -1 3553.69 480.102   1
   5   1   1 4098.88 494.937   4
   5  -1  -1 4229.67 569.095   4
   5   1   1 4217.66 485.827   2
   5   1   1 4325.50 466.827  12
  -5   1  -1 4323.43 514.709   6
  -5   1  -1 4266.28 522.269   3
  -5   1  -2 2367.65 431.898   1
  -5   1  -2 2382.65 442.352   8
   5   1   2 2682.28 409.541   2
   5   1   2 2565.98 411.051  12
   5   1   2 2629.77 434.663   4
  -5   1  -2 2821.13 515.805   6
  -5   1  -2 2443.37 457.859   3
   5   1   2 2516.88 454.164   5
  -5   1  -3 1685.42 437.448   8
   5   1   3 2382.22 438.097   2
  -5   1  -3 2262.14 510.188   3
  -5   1  -3 2022.83 488.063   1
   5   1   3 2415.58 497.690   5
  -5  -2  -3-130.099 377.197   8
   5  -2   3 61.3435 328.115   4
   5  -2   3 491.241 315.573   7
   5  -2   3 433.724 314.142   2
  -5  -2  -3 501.607 315.111   1
  -5  -2  -3 836.962 358.831   9
  -5  -2  -2 8782.29 711.949   8
   5  -2   2 9309.01 732.360   4
   5  -2   2 9951.68 743.782   2
  -5  -2  -2 10768.4 691.616   1
   5  -2   2 9662.05 701.103   7
  -5  -2  -2 9803.80 764.217   3
   5  -2   2 10048.8 711.201   5
  -5  -2  -2 9651.87 723.245   9
   5  -2   1 4601.81 485.702   5
  -5  -2  -1 4091.94 504.761   9
  -5   2   1 3794.10 550.243   3
   5   2  -1 3897.04 630.506   5
   5   2  -1 4426.77 514.238   2
  -5  -2  -1 4078.52 514.981   8
   5  -2   1 4016.60 513.463   4
  -5  -2  -1 4651.95 475.007   1
   5  -2   1 4286.65 488.724   7
   5   2  -1 4947.21 572.131   4
   5  -2   1 4053.14 507.440   2
  -5   2   1 4309.31 512.211   1
  -5   2   1 4547.83 522.733   6
  -5  -2  -1 4505.25 499.246   3
  -5  -2   0 16445.3 925.698   8
  -5   2   0 17248.7 922.757   8
   5   2   0 17517.4 926.545   4
   5  -2   0 17432.3 960.713   4
   5  -2   0 17701.1 982.205   2
   5   2   0 17666.3 893.665   2
   5  -2   0 17786.5 896.374   7
  -5   2   0 17870.9 949.809   1
  -5  -2   0 18177.2 839.385   1
  -5   2   0 17327.2 958.258   6
   5   2   0 16048.4 954.720  12
  -5  -2   0 16705.1 844.972   3
  -5   2   0 16532.2 971.077   3
   5   2   0 17613.3 1016.97   5
   5  -2   0 18757.3 922.902   5
  -5  -2   0 16950.1 882.893   9
   5   2   1 4187.00 543.149   5
   5  -2  -1 4324.29 558.089   2
  -5  -2   1 4487.84 529.916   9
   5  -2  -1 4447.29 519.181   5
  -5   2  -1 4496.99 511.135   8
  -5  -2   1 4019.78 502.688   8
   5   2   1 3879.91 511.114   4
  -5   2  -1 4696.77 547.286   1
   5  -2  -1 4071.79 566.395   4
   5   2   1 4286.72 465.796   2
  -5  -2   1 5054.48 519.559   3
   5   2   1 4546.46 535.443  12
  -5   2  -1 4465.62 560.852   6
  -5  -2   1 3996.27 468.640   1
  -5   2  -1 3549.33 510.706   3
   5   2   2 9997.45 757.725   4
  -5   2  -2 9641.38 751.608   8
   5   2   2 10090.9 697.494   2
  -5   2  -2 10047.0 806.650   1
  -5   2  -2 9536.53 822.760   6
  -5   2  -2 8922.13 764.329   3
   5   2   2 9024.15 721.531  12
   5   2   2 9656.75 775.442   5
  -5   2  -3 705.292 379.169   8
   5   2   3 632.456 341.204   2
  -5   2  -3 286.218 391.302   3
  -5   2  -3 701.901 426.722   1
   5   2   3 141.071 299.138   5
   5  -3   3 5109.62 633.117   4
   5  -3   3 4324.16 572.307   7
   5  -3   3 4345.73 567.428   2
  -5  -3  -2 987.132 338.188   9
  -5  -3  -2 1865.87 420.848   8
   5  -3   2 1273.33 410.346   4
   5  -3   2 1352.92 371.235   7
   5  -3   2 1513.98 388.499   2
   5  -3   2 2368.05 410.482   5
  -5  -3  -1 648.354 319.273   9
   5   3  -1 950.685 430.672   5
  -5   3   1 1075.07 390.144   3
  -5  -3  -1 1054.75 345.835   8
  -5   3   1 1189.30 362.080   1
   5  -3   1 1227.92 400.995   4
   5  -3   1 1215.77 348.754   7
   5  -3   1 1328.85 383.357   2
  -5   3   1 1179.59 405.169   6
   5  -3   1 1572.56 364.130   5
  -5   3   0 1636.76 437.820   3
  -5  -3   0 1520.54 384.026   9
   5   3   0 1730.10 479.747   5
   5  -3   0 1805.68 354.418   5
  -5  -3   0 1270.75 356.325   8
  -5   3   0 1741.69 412.247   8
  -5   3   0 1492.70 397.917   1
   5  -3   0 766.747 365.677   4
   5  -3   0 1195.69 335.629   7
   5   3   0 1100.22 418.562  12
  -5   3   0 1425.07 414.561   6
   5  -3   0 2037.27 441.164   2
   5  -3  -1 1226.14 430.210   2
  -5  -3   1 1145.71 342.884   9
   5  -3  -1 1051.35 338.374   5
  -5   3  -1 894.168 309.651   8
  -5  -3   1 1454.46 369.586   8
   5  -3  -1 1361.31 409.243   4
  -5   3  -1 1651.76 419.579   1
   5  -3  -1 1443.49 393.533   7
   5   3   1 678.966 324.667  12
  -5   3  -1 762.967 429.505   6
  -5   3  -1 822.614 388.488   3
   5   3   1 1081.14 414.562   5
  -5   3  -2 1787.70 442.092   1
  -5   3  -2 1812.72 408.602   8
   5   3   2 1730.21 354.804   2
   5   3   2 1487.43 424.774  12
  -5   3  -2 1413.11 526.912   6
  -5   3  -2 1448.13 447.552   3
   5   3   2 1397.15 404.505   5
  -5   3  -3 4275.85 607.817   8
  -5   3  -3 4678.92 832.326   6
  -5   3  -3 5100.22 726.142   3
  -5   3  -3 3816.21 641.445   1
   5  -4   3 497.769 384.201   4
   5  -4   3 449.328 334.039   7
   5  -4   3-203.000 384.873   2
  -5  -4  -2 3007.14 526.375   9
   5   4  -2 3802.23 844.343   5
  -5  -4  -2 2547.99 474.580   8
   5  -4   2 2726.20 518.030   4
   5  -4   2 3074.06 505.376   7
   5  -4   2 3016.05 496.592   2
  -5  -4  -1 1113.42 411.424   9
   5   4  -1 770.748 515.959   5
  -5   4   1 828.533 434.466   3
  -5  -4  -1 770.468 330.318   8
   5  -4   1 466.414 351.489   4
   5  -4   1 792.470 334.069   7
  -5   4   1 1258.58 401.467   1
   5   4  -1 234.893 493.064  12
   5  -4   1 533.293 342.888   2
  -5   4   1 906.936 463.319   6
  -5   4   0 5665.83 664.654   3
   5   4   0 5493.79 698.139   5
  -5  -4   0 6071.39 637.921   9
  -5  -4   0 6429.11 622.077   8
   5  -4   0 6249.84 662.904   4
   5  -4   0 5220.72 588.110   7
   5   4   0 5032.40 706.585  12
  -5   4   0 6209.07 660.976   1
  -5   4   0 5794.62 705.447   6
   5  -4   0 6024.99 667.187   2
  -5  -4   1 461.446 336.918   9
   5  -4  -1 710.959 408.061   2
  -5  -4   1 581.043 325.338   8
   5  -4  -1 1023.36 448.185   4
   5  -4  -1 549.070 338.495   7
   5   4   1 1489.84 488.448  12
  -5   4  -1 592.011 331.112   1
  -5   4  -1 749.983 449.889   6
  -5   4  -1 469.393 367.013   3
   5   4   1 321.200 377.938   5
  -5   4  -2 2636.51 535.856   1
   5   4   2 2255.87 457.125  12
  -5   4  -2 2633.79 607.854   6
  -5   4  -2 2462.00 565.329   3
   5   4   2 3301.98 592.418   5
  -5   4  -3 919.265 506.586   1
  -5   4  -3 35.2981 406.035   3
   5  -5   3 1319.53 407.066   7
   5  -5   3 1947.89 475.564   2
  -5  -5  -2 3588.88 584.390   9
   5   5  -2 4995.27 1088.77   5
  -5  -5  -2 3722.31 556.401   8
   5  -5   2 3172.12 535.668   4
   5  -5   2 3585.42 578.346   7
   5  -5   2 3986.67 589.843   2
  -5  -5  -1 563.190 390.135   9
   5   5  -1 48.8056 519.744   5
  -5   5   1 965.798 483.889   3
  -5  -5  -1 558.847 341.690   8
   5  -5   1 976.027 440.458   4
   5  -5   1 545.820 320.700   7
   5   5  -1 1067.84 561.251  13
   5   5  -1-6.01373 617.061  12
  -5   5   1 1211.88 566.970   6
   5  -5   1 1093.75 382.605   2
   5   5   0 786.509 460.807   5
  -5  -5   0-33.4586 367.950   9
  -5  -5   0 302.210 311.932   8
  -5  -5   0 196.558 337.265  16
  -5   5   0 1242.55 422.713   1
   5  -5   0 717.277 385.651   4
   5  -5   0 455.967 344.925   7
   5   5   0 984.163 436.639  13
   5   5   0 601.163 486.926  12
  -5   5   0 298.433 440.980   6
   5  -5   0 885.334 426.891   2
  -5   5   0 1070.37 498.366   3
  -5  -5   1 419.638 364.057   9
  -5   5  -1 1153.90 452.367   1
  -5  -5   1 574.236 353.068   8
  -5  -5   1 962.681 367.077  16
   5  -5  -1 836.523 415.674   4
   5  -5  -1 172.641 326.924   7
   5   5   1 770.699 487.594  12
  -5   5  -1 1492.59 545.542   6
  -5   5  -1 710.134 417.967   3
   5   5   1 1110.14 498.681   5
  -5  -5   2 3577.73 564.824   9
  -5   5  -2 3284.51 678.265   1
   5   5   2 3828.07 629.676  12
  -5   5  -2 3875.92 730.332   6
  -5   5  -2 3309.91 630.387   3
   5   5   2 3680.24 641.804   5
  -5   5  -3 1246.00 561.713   1
  -5   5  -3 2946.13 826.360   6
  -5   5  -3 3028.37 688.365   3
   5  -6   3 407.157 436.352   7
   5  -6   3 1066.56 442.392   2
  -5  -6  -2 1962.69 466.506   9
  -5  -6  -2 3099.79 522.064  16
   5  -6   2 3171.35 498.266   4
   5  -6   2 2542.82 564.137   7
   5   6  -2 4482.56 1365.89  12
   5  -6   2 3422.74 569.164   2
   5  -6   1 17008.5 1037.26   4
  -5  -6  -1 15278.3 999.812  16
   5  -6   1 16764.3 1102.77   2
   5  -6   1 15496.9 1082.42   7
   5   6  -1 17768.3 1781.93  14
   5   6  -1 16805.3 1326.00  13
   5   6  -1 14200.1 1395.56  12
  -5  -6  -1 14566.0 1034.39   9
  -5  -6   0 2060.59 508.081   9
   5  -6   0 967.326 409.048   2
  -5  -6   0 1583.73 474.203  16
  -5  -6   0 1386.54 437.917  15
   5  -6   0 1297.13 455.416   4
   5   6   0-133.152 672.019  14
   5  -6   0 746.299 415.729   7
   5   6   0 289.639 493.344  13
   5   6   0 463.714 491.291  12
  -5   6   0 1244.72 497.703   1
  -5   6   0 296.836 535.919   6
  -5   6   0 1329.72 476.785  11
   5  -6   0 1464.40 402.028  10
  -5   6   0 1318.33 534.873   3
  -5  -6   1 15310.0 1048.35  16
  -5  -6   1 16060.5 1012.66  15
   5   6   1 16552.1 1204.46  14
   5   6   1 18000.1 1231.39  13
  -5   6  -1 16573.3 1233.02   6
  -5   6  -1 14852.9 1096.13   3
  -5   6  -1 15369.3 1248.19   1
   5   6   1 16473.0 1227.90  12
  -5  -6   1 17075.9 1126.34   9
  -5  -6   2 3330.78 597.362   9
  -5  -6   2 3472.95 571.240  15
   5   6   2 3833.03 747.690  12
  -5   6  -2 2107.38 611.738   1
  -5   6  -2 3222.47 667.408   3
  -5   6  -3 401.858 641.058   1
  -5   6  -3-765.664 745.453   6
   5  -7   3 880.903 482.239   7
   5  -7   3 1149.48 439.544  10
  -5  -7  -2 515.672 451.829   9
  -5  -7  -2 662.809 429.063  16
   5  -7   2-398.754 412.423   7
   5  -7   2-208.660 383.554  10
  -5  -7  -1 1250.52 505.850   9
  -5  -7  -1 1668.37 528.770  16
  -5  -7  -1 661.977 341.075  15
   5   7  -1 2153.46 1071.48  14
   5  -7   1 1378.46 521.899   7
   5   7  -1 352.983 636.724  13
   5   7  -1 1163.92 870.054  12
   5  -7   1 883.896 452.555  10
  -5  -7   0 476.826 410.719   9
  -5  -7   0-72.0845 365.078  16
  -5  -7   0-155.906 378.864  15
   5   7   0-956.559 839.060  14
   5  -7   0-116.254 425.888   7
   5   7   0-509.273 609.950  13
   5   7   0-946.802 684.367  12
  -5   7   0 429.766 596.472   6
  -5   7   0-234.302 560.512  11
   5  -7   0 609.782 398.053  10
  -5  -7   1 517.443 408.818   9
  -5  -7   1 646.351 380.002  16
  -5  -7   1 1020.48 444.553  15
   5   7   1 1286.98 669.459  14
   5   7   1 1087.70 613.377  13
   5   7   1 1936.92 738.474  12
  -5   7  -1 1998.06 747.135  11
   5   7   2-592.895 566.668  14
   5   7   2 521.892 604.961  12
  -5   7  -2-524.208 583.453   6
  -5   7  -2-476.661 896.347  11
  -5   7  -3 1605.57 875.245   6
   5  -8   3 437.167 438.047   7
   5  -8   3 415.840 479.064  10
   5  -8   2 1404.49 588.754   7
   5  -8   2 1893.65 513.241  10
  -5  -8  -1 1203.83 467.167   9
  -5  -8  -1 1626.42 543.927  16
  -5  -8  -1 1427.76 485.762  15
   5   8  -1 2216.41 1122.47  14
   5  -8   1 1613.56 556.005   7
   5   8  -1 2113.24 981.098  13
   5   8  -1 1990.49 1108.16  12
   5  -8   1 870.458 414.928  10
  -5  -8   0-1006.57 565.304   9
  -5  -8   0 22.5450 447.281  16
  -5  -8   0 624.619 413.233  15
   5   8   0 1370.02 904.286  14
   5  -8   0 807.932 540.201   7
   5   8   0-1514.23 1051.81  12
  -5   8   0-135.633 792.050   6
  -5   8   0 1151.58 776.461  11
  -5  -8   1 1202.00 518.721   9
  -5  -8   1 1568.73 467.335  16
  -5  -8   1 1057.35 510.064  15
   5   8   1 575.438 725.192  14
   5   8   1 1469.81 844.441  13
   5   8   1 2440.86 840.743  12
  -5   8  -1 598.437 673.588   6
  -5   8  -1 1933.93 902.025  11
  -5   8  -2 2073.51 910.463   6
  -5   8  -2 1401.21 917.520  11
  -5   8  -3 1282.40 817.040   6
   5  -9   2-415.198 453.134  10
  -5  -9  -1 787.827 502.282  16
   5   9  -1 107.495 1362.97  14
   5  -9   1 368.616 511.306  10
  -5  -9   0 801.543 570.497   9
  -5  -9   0-810.454 486.092  16
  -5  -9   0-283.971 425.387  15
   5   9   0-315.935 966.225  14
  -5  -9   1 263.526 419.408   9
  -5  -9   1-130.534 418.764  16
  -5  -9   1 31.2389 541.203  15
   5   9   1 858.479 892.908  14
  -5   9  -1-665.724 1030.59  11
   6   0   0 185.887 416.155   5
  -6   0   0 28.6981 314.450   8
   6   0   0-23.8406 376.573   4
  -6   0   0 24.0592 311.230   1
   6   0   0 369.543 407.800   2
  -6   0   0-123.465 340.367   3
   6   0   1 282.122 366.256   5
  -6   0   1 1229.71 443.126   3
   6   0  -1 410.438 352.301   2
   6   0  -1 2.65118 442.436   5
  -6   0  -1 123.872 307.407   8
  -6   0   1 851.152 373.706   8
   6   0   1 1043.70 407.325   4
   6   0  -1 1793.90 575.329   4
  -6   0  -1 772.401 390.368   1
   6   0   1 1126.51 420.289   2
  -6   0   1 720.039 319.454   1
  -6   0  -1 526.361 379.271   3
  -6   0  -2-13.6311 360.450   1
  -6   0  -2 189.723 363.295   8
   6   0   2 385.054 386.029   4
   6   0   2-467.521 373.083   2
  -6   0  -2-74.0427 377.230   3
   6   0   2-26.8949 329.408   5
  -6   0  -3 21110.0 1296.90   8
   6   0   3 21913.4 1234.46   2
  -6   0  -3 21837.7 1261.74   1
  -6   0  -3 20505.3 1320.84   3
   6   0   3 22234.4 1258.84   5
  -6  -1  -3 10.5923 414.304   8
   6  -1   3 257.085 349.447   4
   6  -1   3 1082.28 444.315   2
   6  -1   3 624.384 437.487   5
  -6  -1  -3 611.441 417.210   1
  -6  -1  -2 1407.75 444.874   9
  -6  -1  -2 1502.43 396.938   1
  -6  -1  -2 1265.18 422.437   8
   6  -1   2 1823.70 497.662   4
   6  -1   2 1517.46 448.140   2
  -6  -1  -2 1691.07 476.640   3
   6  -1   2 852.239 361.426   5
   6  -1   1-565.174 360.854   5
  -6  -1  -1 54.6958 315.251   9
  -6   1   1-54.8052 370.447   3
   6   1  -1 4223.64 821.887   5
   6   1  -1 3951.81 736.390   2
  -6  -1  -1-495.695 358.963   8
  -6   1   1-313.726 353.896   8
   6  -1   1-145.032 380.730   4
   6   1  -1 254.053 604.536   4
  -6   1   1-486.935 362.079   1
  -6  -1  -1 506.258 328.015   1
   6  -1   1 20.0630 339.879   2
  -6  -1  -1 16.6198 350.936   3
  -6  -1   0 11262.8 859.375   8
  -6   1   0 11090.3 856.632   8
   6   1   0 12727.2 970.362   4
   6  -1   0 10465.2 851.900   4
   6  -1   0 11355.4 898.237   2
   6   1   0 13550.4 938.852   2
  -6   1   0 12447.5 894.873   1
  -6  -1   0 11787.9 806.764   1
   6   1   0 10881.3 841.890  12
  -6  -1   0 11863.5 872.554   3
  -6   1   0 11520.4 907.945   3
   6   1   0 11244.7 930.763   5
   6  -1   0 11538.9 890.557   5
  -6  -1   0 11994.2 858.083   9
   6   1   1-175.822 413.853   5
  -6  -1   1-566.893 417.584   3
   6  -1  -1 124.639 338.064   2
   6  -1  -1-110.796 421.362   5
  -6   1  -1-144.291 346.877   8
  -6  -1   1-1047.21 440.393   8
   6   1   1-444.497 432.227   4
   6  -1  -1 858.328 501.850   4
  -6   1  -1-472.043 361.137   1
   6   1   1 253.100 324.705  12
   6   1   1 77.3911 302.549   2
  -6   1  -1 19.1287 360.840   3
  -6  -1   1-546.830 376.104   1
  -6   1  -2 1421.00 421.494   1
  -6   1  -2 1307.34 423.913   8
   6   1   2 1007.96 359.251   4
   6   1   2 959.023 375.194   2
   6   1   2 1394.80 391.121  12
  -6   1  -2 1797.15 496.040   3
   6   1   2 1296.49 447.304   5
  -6   1  -3 1647.14 565.600   1
  -6   1  -3-58.6266 429.583   8
   6   1   3 91.0117 357.896   2
  -6   1  -3 345.118 459.959   3
   6   1   3 96.9924 429.201   5
  -6  -2  -3-243.406 377.033   9
  -6  -2  -3 767.502 469.721   8
   6  -2   3 600.617 393.096   4
   6  -2   3 362.105 344.522   7
   6  -2   3-105.048 354.564   2
  -6  -2  -3 494.613 387.807   1
  -6  -2  -2 4208.23 573.752   9
  -6  -2  -2 3835.44 560.969   8
  -6  -2  -2 4858.47 565.551   1
   6  -2   2 4968.33 663.831   4
   6  -2   2 4727.88 586.551   7
   6  -2   2 4970.97 624.106   2
  -6  -2  -2 4429.60 665.116   3
   6  -2   2 4828.02 614.884   5
   6  -2   1 358.121 316.603   5
  -6  -2  -1 628.837 353.530   9
  -6   2   1 1069.12 473.614   3
   6   2  -1 668.794 544.594   5
  -6   2   1 631.490 375.388   1
  -6  -2  -1 629.256 389.409   8
   6  -2   1 672.080 426.120   4
   6   2  -1 610.900 452.115   4
   6  -2   1 497.834 300.873   7
   6  -2   1 544.044 344.587   2
  -6   2   1 1311.71 461.915   6
  -6  -2  -1 1056.94 334.327   1
  -6  -2  -1 676.437 317.956   3
  -6   2   0-84.3115 376.721   3
   6   2   0 612.284 430.629   5
   6  -2   0 310.820 362.870   5
  -6  -2   0 294.033 311.711   9
  -6  -2   0 665.020 367.294   8
  -6   2   0-38.9485 331.412   8
   6   2   0 349.402 377.367   4
   6  -2   0-136.867 420.921   4
   6  -2   0 134.285 266.058   7
  -6   2   0 193.654 296.181   1
   6   2   0 399.682 405.317  12
  -6   2   0 12.6878 357.922   6
  -6  -2   0 16.1944 289.693   1
   6  -2   0-344.271 418.821   2
   6   2   0 416.723 296.239   2
  -6  -2   0 259.352 300.759   3
  -6  -2   1 475.432 332.527   3
   6  -2  -1 817.738 388.755   2
   6  -2  -1 418.601 404.806   5
  -6  -2   1 533.515 321.281   9
  -6   2  -1 821.919 361.678   8
  -6  -2   1 286.176 295.194   8
   6   2   1 567.681 398.949   4
   6  -2  -1 151.447 427.964   4
   6   2   1 345.097 347.369  12
  -6   2  -1 1218.12 451.486   1
  -6   2  -1 1292.07 456.808   6
   6   2   1 843.186 372.935   2
  -6   2  -1 199.764 380.328   3
   6   2   1 727.825 430.108   5
  -6   2  -2 3563.39 577.940   8
  -6   2  -2 4117.08 632.847   1
   6   2   2 4817.78 623.361   4
   6   2   2 5742.08 617.583   2
   6   2   2 4049.38 579.321  12
  -6   2  -2 4461.79 735.977   6
  -6   2  -2 3920.48 653.356   3
   6   2   2 4594.60 660.088   5
  -6   2  -3-421.256 547.863   1
  -6   2  -3 122.633 402.909   8
   6   2   3-199.609 354.566   2
  -6   2  -3 109.158 425.708   3
   6   2   3 94.3060 381.314   5
  -6  -3  -3 1064.00 452.016   9
  -6  -3  -3 651.131 454.754   8
   6  -3   3 164.298 359.063   4
   6  -3   3 1.67040 414.289   7
   6  -3   3 451.752 337.074   2
  -6  -3  -2 170.027 381.069   9
  -6  -3  -2 288.842 403.053   8
   6  -3   2 55.3425 396.873   4
   6  -3   2 503.080 340.240   7
   6  -3   2 387.789 374.386   2
  -6  -3  -1 592.306 389.332   9
  -6   3   1 1357.14 519.942   3
   6   3  -1 667.435 575.817   5
  -6  -3  -1 1576.64 472.229   8
  -6   3   1 1704.01 431.919   1
   6  -3   1 931.927 474.227   4
   6  -3   1 1270.58 429.568   7
   6   3  -1 1718.34 656.680  12
   6  -3   1 1412.07 424.687   2
  -6   3   1 2061.25 618.892   6
   6   3   0-13.6551 459.554   5
   6  -3   0-194.751 338.525   5
  -6  -3   0 313.585 356.726   9
  -6  -3   0 553.246 414.276   8
  -6   3   0 176.233 428.019   8
   6  -3   0-131.798 419.659   4
   6  -3   0-28.8613 317.183   7
   6   3   0 863.654 498.510  12
  -6   3   0 1010.57 506.054   6
  -6   3   0 816.567 428.694   1
   6  -3   0-428.827 365.477   2
  -6   3   0-329.957 422.537   3
   6  -3  -1 1335.94 466.885   5
  -6  -3   1 1557.40 451.631   9
   6  -3  -1 1639.28 525.239   2
  -6  -3   1 875.954 442.380   8
   6  -3  -1 502.811 440.087   4
   6   3   1 688.457 486.960  12
  -6   3  -1 1098.27 494.499   6
  -6   3  -1 1144.17 470.948   1
  -6   3  -1 1834.49 523.520   3
   6   3   1 1244.58 497.029   5
  -6   3  -2 599.852 405.108   1
   6   3   2 35.9303 406.976  12
  -6   3  -2 392.749 484.707   6
  -6   3  -2-275.351 423.481   3
   6   3   2 884.056 439.650   5
  -6   3  -3 971.553 587.551   1
  -6   3  -3 613.697 591.589   6
  -6   3  -3 750.109 583.510   3
   6   3   3 603.458 492.797   5
   6  -4   3 943.966 457.265   4
   6  -4   3 159.778 381.900   7
   6  -4   3 544.934 395.176   2
  -6  -4  -2 1147.39 401.655   9
  -6  -4  -2 2440.59 534.563   8
   6  -4   2 2832.19 547.094   4
   6  -4   2 2107.37 509.840   7
   6  -4   2 2625.69 534.870   2
  -6   4   1 188.103 411.534   3
  -6  -4  -1 371.939 420.527   9
   6   4  -1 1271.25 654.417   5
  -6  -4  -1 520.735 365.835   8
   6  -4   1 109.017 394.755   4
   6  -4   1 322.065 334.729   7
   6   4  -1 495.586 618.892  12
   6  -4   1 672.943 442.340   2
   6   4   0 1440.26 620.421   5
  -6  -4   0 957.984 405.978   9
  -6   4   0 213.019 338.112   1
  -6  -4   0 1514.33 493.497   8
   6  -4   0 869.106 433.256   4
   6  -4   0 1258.54 413.847   7
   6   4   0 1306.10 522.524  12
  -6   4   0 174.740 414.550   6
   6  -4   0 1000.96 425.168   2
  -6   4   0 627.918 435.292   3
  -6  -4   1 470.766 382.090   9
  -6   4  -1 999.599 458.061   1
  -6  -4   1 170.786 356.127   8
   6  -4  -1 325.172 426.305   4
   6   4   1 363.246 453.531  12
  -6   4  -1 394.803 502.422   6
  -6   4  -1 566.678 418.908   3
   6   4   1-1155.94 566.966   5
  -6   4  -2 2818.72 638.354   1
   6   4   2 2456.53 564.844  12
  -6   4  -2 1567.17 556.043   6
  -6   4  -2 2155.54 540.699   3
   6   4   2 2522.50 602.295   5
  -6   4  -3 954.746 578.950   1
  -6   4  -3 1016.65 721.385   6
  -6   4  -3 1093.14 589.837   3
   6  -5   3-417.999 471.539   7
   6  -5   3 215.298 422.209   2
  -6  -5  -2 1933.39 503.950   9
  -6  -5  -2 2622.52 573.393   8
   6  -5   2 1719.30 487.193   4
   6  -5   2 1449.38 488.796   7
   6  -5   2 745.713 417.335   2
  -6  -5  -1 3082.54 586.433   9
   6   5  -1 3068.85 889.817   5
  -6  -5  -1 3377.63 574.452   8
   6  -5   1 2873.19 599.488   4
   6  -5   1 2535.55 558.917   7
   6   5  -1 3870.67 927.212  12
   6  -5   1 2596.28 562.802   2
   6  -5   0-447.509 433.088   2
  -6  -5   0 128.013 353.997   9
  -6  -5   0-233.563 371.263   8
   6  -5   0 680.055 430.588   4
   6  -5   0 235.558 339.394   7
   6   5   0-399.641 587.717  12
  -6   5   0 760.184 443.410   1
  -6   5   0-254.789 481.982   6
  -6   5   0 263.484 442.705   3
   6   5   0 451.203 560.718   5
  -6  -5   1 2680.41 561.020   9
  -6  -5   1 2436.84 550.235   8
  -6   5  -1 3030.87 694.784   1
   6   5   1 2481.23 667.893  12
  -6   5  -1 3240.94 682.711   6
  -6   5  -1 2745.88 606.499   3
   6   5   1 2164.17 634.020   5
   6   5   2 1646.60 570.797  12
  -6   5  -2 3337.89 850.401   6
  -6   5  -2 1955.38 602.370   1
  -6   5  -2 1365.11 529.809   3
   6   5   2 1185.32 496.811   5
  -6   5  -3-756.627 668.021   1
  -6   5  -3 373.935 688.617   6
  -6   5  -3 75.6889 509.670   3
   6  -6   3 2289.51 577.513   7
   6  -6   3 2941.72 588.899   2
  -6  -6  -2-334.765 457.997   9
  -6  -6  -2 158.659 419.183   8
   6  -6   2-432.662 484.203   4
   6  -6   2 879.397 496.671   7
   6  -6   2-60.8200 471.532   2
  -6  -6  -1 2663.56 587.281   9
  -6  -6  -1 2940.02 623.257   8
   6  -6   1 2916.70 621.593   4
   6   6  -1 3204.80 1011.12  12
   6  -6   1 1946.20 538.204   2
  -6  -6   0 1384.46 520.134   9
   6  -6   0 2616.26 604.960   2
   6  -6   0 2181.75 590.202   4
   6  -6   0 1330.64 512.299   7
  -6   6   0 1739.28 685.154   1
   6   6   0 1515.26 655.907  12
  -6   6   0 2317.95 685.438   6
  -6   6   0 1713.15 581.398   3
  -6   6  -1 1906.39 635.547   1
  -6  -6   1 2876.88 661.987   9
   6   6   1 3196.47 759.912  12
  -6   6  -1 3809.29 777.572   6
  -6   6  -1 3445.29 761.158   3
   6   6   1 2095.62 674.038   5
  -6   6  -2 926.449 686.276   1
   6   6   2 151.560 631.066  12
  -6   6  -2-641.790 750.114   6
  -6   6  -2-401.579 509.902   3
  -6   6  -3 1601.35 770.172   1
  -6   6  -3 3719.68 1055.57   6
  -6   6  -3 2193.04 693.993   3
   6  -7   3 39.3990 491.076   7
  -6  -7  -2 217.229 422.951   9
   6  -7   2 217.606 488.087   4
   6  -7   2-112.683 420.069   7
  -6  -7  -1 680.089 452.882   9
   6  -7   1 116.283 470.923   4
   6  -7   1 253.962 438.817   7
   6   7  -1 1026.31 918.155  12
  -6  -7   0 709.670 474.656   9
   6  -7   0 1297.80 519.292   4
   6  -7   0 1233.15 509.599   7
   6   7   0 215.472 746.783  12
  -6   7   0 1342.01 746.974   6
  -6  -7   1 122.689 461.511   9
   6   7   1 54.8334 649.974  12
  -6   7  -1 537.768 689.813   6
  -6   7  -1-798.573 805.898   1
   6   7   2-520.712 729.227  12
  -6   7  -2-423.708 812.014   6
  -6   7  -3 1330.41 877.853   6
   7   0   0 8.07136 487.093   5
  -7   0   0 55.6305 378.665   1
  -7   0   0 275.860 365.710   8
   7   0   0 299.251 455.466   4
   7   0   0 109.184 388.780   2
  -7   0   0-176.821 415.232   3
  -7   0   1 2454.49 585.838   3
  -7   0  -1 2436.90 537.524   1
   7   0  -1 2595.54 715.152   5
  -7   0  -1 1793.35 517.347   8
  -7   0   1 1395.99 492.391   8
   7   0   1 1431.41 563.641   4
   7   0  -1 1827.42 670.543   4
   7   0   1 1873.72 512.876   2
  -7   0  -1 2221.11 533.631   3
   7   0   1 2006.84 587.722   5
  -7   0  -2-688.907 476.698   8
   7   0   2-454.332 412.859   4
  -7   0  -2-43.1523 399.759   1
   7   0   2 220.591 400.001   2
  -7   0  -2 642.009 480.245   3
   7   0   2-539.826 461.598   5
  -7   0  -3 1276.92 500.154   1
  -7   0  -3 1838.53 610.804   8
   7   0   3 1760.55 527.042   2
  -7   0  -3 1236.64 520.630   3
   7   0   3 1559.43 528.726   5
  -7  -1  -3 1544.36 568.799   1
  -7  -1  -3 1146.79 552.442   8
   7  -1   3 573.196 491.598   4
   7  -1   3 958.682 485.576   2
   7  -1   3 1504.36 541.684   5
  -7  -1  -2 914.251 503.257   8
   7  -1   2 1579.83 520.469   4
  -7  -1  -2 1189.91 459.826   1
   7  -1   2 1104.73 464.079   2
  -7  -1  -2 1053.52 517.823   3
   7  -1   2 1486.30 492.724   5
  -7   1   1-675.261 525.806   3
   7   1  -1 588.325 607.800   5
  -7  -1  -1-211.891 368.690   1
  -7  -1  -1-19.7606 410.611   8
   7  -1   1 225.347 429.779   4
   7   1  -1 410.201 541.726   4
   7  -1   1 82.1940 347.994   2
  -7  -1  -1 189.081 391.024   3
   7  -1   1-408.497 382.818   5
   7   1   0 66.3298 487.469   5
   7  -1   0 256.229 469.662   5
  -7   1   0 674.518 445.205   1
  -7  -1   0 461.208 456.962   8
  -7   1   0-7.40842 357.087   8
  -7  -1   0 847.425 416.121   1
   7   1   0 336.527 506.518   4
   7  -1   0-279.171 471.029   4
  -7  -1   0-256.052 385.003   3
   7  -1   0 391.005 429.859   2
  -7   1   0-60.1176 443.252   3
   7   1   0-150.061 392.529   2
  -7  -1   1 72.9403 430.922   3
   7  -1  -1-26.9084 489.526   5
  -7   1  -1 261.441 386.651   1
  -7   1  -1 225.276 426.040   8
  -7  -1   1-51.8458 376.030   8
   7   1   1-383.438 519.223   4
   7  -1  -1-135.292 571.648   4
   7   1   1-118.522 359.540   2
  -7   1  -1 403.717 471.732   3
   7   1   1 26.5891 459.393   5
  -7   1  -2 971.674 444.216   8
   7   1   2 1856.96 589.627   4
  -7   1  -2 1608.79 523.669   1
   7   1   2 1505.53 465.740   2
  -7   1  -2 757.076 489.841   3
   7   1   2 1802.90 529.866   5
  -7   1  -3 1260.11 467.450   1
  -7   1  -3 1787.07 551.751   8
   7   1   3 1535.10 478.361   2
  -7   1  -3 1203.37 601.667   3
   7   1   3 1374.45 563.451   5
   7  -2   3 196.678 430.339   4
   7  -2   3 663.459 484.262   2
  -7  -2  -2-19.0576 414.229   8
   7  -2   2-101.344 431.573   4
   7  -2   2 596.744 422.603   2
  -7  -2  -2 587.165 497.295   3
   7  -2   2 987.806 462.652   5
  -7  -2  -1 279.935 357.958   9
   7   2  -1-409.415 631.870   5
  -7  -2  -1 388.089 430.482   8
   7  -2   1 227.481 448.046   4
   7   2  -1 1701.20 738.381  12
  -7  -2  -1 296.388 403.044   3
   7  -2   1 478.298 417.557   2
   7  -2   1 330.701 371.652   5
   7   2   0 7774.81 797.859   2
   7   2   0 7352.41 952.151   5
  -7  -2   0 8504.59 875.786   8
  -7   2   0 8641.29 883.191   8
   7  -2   0 7815.97 914.581   4
  -7  -2   0 8138.83 826.660   3
  -7   2   0 8726.54 875.087   1
   7   2   0 8423.36 902.595  12
   7  -2   0 8745.71 885.727   5
   7  -2   0 7237.91 863.136   2
  -7   2   0 8483.33 915.807   3
  -7  -2   0 8471.78 818.243   9
  -7   2  -1 691.885 429.761   8
  -7   2  -1-352.222 432.305   1
  -7  -2   1-688.947 447.490   8
   7   2   1 164.656 401.913  12
   7   2   1 438.308 390.190   2
  -7   2  -1 354.571 519.326   3
   7   2   1 387.130 437.726   5
  -7  -2   1-278.728 449.692   3
  -7   2  -2-68.1908 462.675   8
  -7   2  -2 678.739 490.719   1
   7   2   2 812.037 450.882   2
  -7   2  -2 578.030 496.124   3
   7   2   2 34.3891 443.337   5
  -7   2  -3 900.410 562.709   8
  -7   2  -3 32.9243 520.438   1
   7   2   3-272.740 404.417   2
  -7   2  -3 636.315 588.623   3
   7   2   3 359.118 486.888   5
  -7  -3  -3 457.834 492.770   8
   7  -3   3 1126.50 566.728   4
   7  -3   3 1446.16 538.639   7
   7  -3   3 352.551 449.671   2
  -7  -3  -2 8.34831 451.093   9
  -7  -3  -2 259.463 389.877   8
   7  -3   2-218.367 423.410   4
   7  -3   2 428.749 405.847   7
   7  -3   2-29.8572 405.026   2
   7   3  -1 971.034 760.263   5
  -7  -3  -1 563.318 473.958   9
  -7  -3  -1-82.4623 403.888   8
   7  -3   1 328.079 443.750   4
   7  -3   1-164.025 357.734   7
   7   3  -1-96.1558 655.576  12
   7  -3   1-657.346 476.972   2
   7   3   0 233.550 574.080   5
  -7  -3   0 203.706 396.087   9
  -7  -3   0 274.829 466.774   8
  -7   3   0-96.3481 420.058   1
   7  -3   0 179.003 504.994   4
   7  -3   0-175.636 368.951   7
   7   3   0 967.857 605.345  12
  -7   3   0 240.625 527.806   6
  -7   3   0-196.379 474.007   3
   7  -3   0 74.2786 438.312   2
  -7  -3   1-39.5273 392.765   8
  -7   3  -1-83.7840 377.361   1
   7   3   1 700.069 531.032  12
  -7   3  -1 623.731 565.471   6
  -7   3  -1-208.200 494.958   3
   7   3   1-526.311 490.924   5
   7   3   2 294.293 425.794  12
  -7   3  -2 1139.04 665.430   6
  -7   3  -2-801.864 575.636   1
  -7   3  -2 474.131 521.415   3
   7   3   2 323.599 498.256   5
  -7   3  -3 914.744 580.118   1
  -7   3  -3 824.878 590.343   3
   7  -4   3-667.139 556.671   4
   7  -4   3 500.530 511.187   7
   7  -4   3-301.713 400.848   2
  -7  -4  -2 734.729 445.530   9
  -7  -4  -2 577.852 455.993   8
   7  -4   2 637.235 433.786   4
   7  -4   2 1074.03 494.043   7
   7  -4   2 1164.64 525.731   2
   7   4  -1-109.069 744.774   5
  -7  -4  -1 456.178 469.055   9
  -7  -4  -1 608.993 449.012   8
   7  -4   1-37.1833 474.240   4
   7  -4   1 894.519 476.410   7
   7   4  -1 711.586 716.237  12
   7  -4   1 938.951 537.942   2
   7   4   0 2180.86 788.388   5
   7  -4   0 1675.53 545.217   2
  -7  -4   0 3516.57 663.355   9
  -7  -4   0 1849.56 553.197   8
   7  -4   0 949.011 559.575   4
   7  -4   0 1761.66 511.500   7
   7   4   0 1928.61 678.516  12
  -7   4   0 1939.83 694.547   6
  -7   4   0 2667.79 620.624   1
  -7   4   0 2234.61 675.316   3
  -7  -4   1-101.175 405.393   9
  -7  -4   1 180.990 403.036   8
   7   4   1 337.278 519.400  12
  -7   4  -1-152.513 468.863   1
  -7   4  -1 740.623 540.261   6
  -7   4  -1-646.950 588.370   3
   7   4   1-166.568 549.464   5
   7   4   2 1532.57 605.555  12
  -7   4  -2-78.6124 632.879   6
  -7   4  -2 64.9710 525.153   3
  -7   4  -2 461.696 547.335   1
   7   4   2-482.770 601.713   5
  -7   4  -3 485.749 620.334   1
  -7   4  -3-1002.07 852.023   6
  -7   4  -3 311.543 519.715   3
   7  -5   3-232.955 458.853   7
   7  -5   3-700.450 457.763   2
  -7  -5  -2-21.8367 468.242   9
  -7  -5  -2 1040.61 440.596   8
   7  -5   2 560.408 525.811   4
   7  -5   2-128.222 447.030   7
   7  -5   2-240.115 499.232   2
   7   5  -1-598.205 950.671   5
  -7  -5  -1-83.0987 400.281   9
  -7  -5  -1 599.694 461.422   8
   7  -5   1-65.0091 467.603   4
   7  -5   1 1088.52 507.494   7
   7   5  -1-1213.23 818.557  12
   7  -5   1 281.857 439.975   2
  -7  -5   0-92.1206 422.287   9
   7  -5   0 52.4376 479.763   2
  -7  -5   0 155.630 438.397   8
   7  -5   0 836.853 515.720   4
   7  -5   0-229.493 431.608   7
  -7   5   0-236.562 478.546   1
   7   5   0 514.566 680.414  12
  -7   5   0-938.454 663.136   6
  -7   5   0 930.005 613.460   3
   7   5   0-949.660 787.826   5
  -7   5  -1 118.255 500.902   1
  -7  -5   1 732.191 521.970   9
   7   5   1 626.692 600.294  12
  -7   5  -1 1650.05 792.116   6
  -7   5  -1-578.133 597.721   3
   7   5   1-166.095 660.109   5
  -7   5  -2 648.197 690.320   1
   7   5   2 910.490 644.558  12
  -7   5  -2-674.434 764.678   6
  -7   5  -2 676.501 654.969   3
   7   5   2-692.665 710.738   5
  -7   5  -3-633.430 827.552   6
  -7   5  -3-370.540 711.365   1
  -7   5  -3 1248.29 741.551   3
   7  -6   3 109.194 490.393   2
  -7  -6  -2-65.0527 452.439   9
  -7  -6  -2-127.520 522.171   8
   7  -6   2 85.7949 506.723   4
   7  -6   2 499.076 521.262   7
   7  -6   2 631.672 492.001   2
   7  -6   1 4897.06 826.989   2
  -7  -6  -1 4356.21 733.674   9
  -7  -6  -1 4367.59 683.025   8
   7  -6   1 4825.05 816.690   4
   7  -6   1 4723.75 766.650   7
   7   6  -1 4581.45 1212.82  12
   7   6  -1 3171.54 1305.51   5
  -7  -6   0 68.5399 462.943   9
  -7  -6   0 446.772 513.586   8
   7  -6   0 739.979 578.189   4
   7  -6   0 981.298 553.190   7
   7   6   0 617.896 788.609  12
  -7   6   0 1081.50 765.670   6
  -7   6   0-103.739 601.563   3
   7   6   0-619.099 921.607   5
  -7  -6   1 4259.57 740.978   9
  -7   6  -1 4748.64 1005.73   1
   7   6   1 4934.97 990.068  12
  -7   6  -1 6670.10 1149.02   6
  -7   6  -1 3193.83 819.228   3
   7   6   1 6366.08 1207.34   5
  -7   6  -2-919.954 832.663   1
  -7   6  -2-65.0674 756.720   6
  -7   6  -2 1355.01 824.221   3
  -7   6  -3-751.289 808.097   3
  -7   6  -3-1459.89 885.353   1
   8   0   0 747.815 582.636   5
   8   0   0 1610.97 628.127   2
  -8   0   0 285.742 419.435   1
  -8   0   0 897.059 514.470   8
   8   0   0-798.681 658.347   4
  -8   0   0 1026.18 587.450   3
  -8   0  -1 427.490 505.228   8
   8   0   1 211.570 571.473   4
  -8   0  -1 545.350 406.375   1
  -8   0  -1 150.497 554.199   3
   8   0   1-497.490 457.242   2
   8   0   1-450.474 553.367   5
  -8   0  -2 1024.68 625.693   8
   8   0   2 856.194 602.498   4
   8   0   2 502.661 440.628   2
  -8   0  -2 1251.91 659.875   3
  -8   0  -2 94.2451 479.763   1
   8   0   2 1490.07 586.676   5
  -8   0  -3 1951.26 722.429   8
  -8   0  -3 1707.22 675.840   1
   8   0   3 2277.86 649.336   2
   8   0   3 3123.25 688.565   5
  -8  -1  -3 1186.17 641.691   8
   8  -1   3 1546.64 637.391   2
  -8  -1  -2-18.5975 506.446   8
   8  -1   2-797.569 595.824   4
   8  -1   2 266.588 460.420   2
  -8  -1  -2-133.399 524.327   3
   8  -1   2 226.728 494.234   5
  -8  -1  -2 138.229 458.319   1
  -8  -1  -1 1281.68 608.272   8
   8  -1   1 466.114 567.948   4
  -8  -1  -1 957.671 548.489   3
  -8  -1  -1 65.2425 418.189   1
   8  -1   1 554.174 478.352   2
   8  -1   1-47.1518 500.408   5
   8   1   0 694.407 652.970   5
   8  -1   0 1026.54 562.991   5
   8  -1   0 650.281 446.915   2
   8   1   0 1442.47 551.136   2
  -8  -1   0 1180.67 498.803   8
  -8   1   0 486.769 487.156   8
   8   1   0 2012.49 759.496   4
   8  -1   0-693.181 685.432   4
  -8  -1   0 1144.19 561.503   3
  -8   1   0 109.039 568.270   3
  -8   1   0 1380.47 563.593   1
  -8  -1   0 756.356 518.736   1
  -8   1  -1 112.878 472.391   8
   8   1   1 874.095 638.738   4
  -8   1  -1 229.712 412.620   1
  -8   1  -1-117.472 509.597   3
   8   1   1 298.299 414.406   2
   8   1   1-423.397 508.696   5
  -8   1  -2-512.275 495.597   8
   8   1   2-155.194 563.668   4
   8   1   2 234.957 463.334   2
  -8   1  -2 200.236 555.260   3
  -8   1  -2-766.648 527.285   1
   8   1   2 293.684 563.324   5
  -8   1  -3 217.194 541.087   8
  -8   1  -3-1222.96 732.604   1
   8   1   3 623.128 473.610   2
  -8   1  -3 931.579 609.886   3
   8   1   3 751.281 538.604   5
   8  -2   3 831.726 497.873   2
  -8  -2  -2-140.947 547.855   8
   8  -2   2 729.195 584.001   4
   8  -2   2 422.451 504.824   2
   8  -2   2 690.521 481.861   5
  -8  -2  -1-121.648 452.977   8
   8  -2   1 20.4431 555.830   4
   8  -2   1-216.829 482.173   2
   8  -2   1 75.2735 463.911   5
   8   2   0-195.781 668.855   5
   8  -2   0-643.062 541.568   5
   8  -2   0 12.0219 476.526   2
  -8   2   0 782.583 518.598   1
  -8  -2   0-534.482 514.261   8
   8  -2   0 155.666 546.338   4
  -8   2   0 7.62280 541.290   3
  -8   2  -1-189.540 493.847   8
  -8   2  -1-34.8352 504.939   1
  -8   2  -1 662.135 611.107   3
   8   2   1-154.441 525.425   5
  -8   2  -2 1034.93 586.312   1
  -8   2  -2 915.910 663.405   8
  -8   2  -2-488.344 638.302   3
   8   2   2 201.262 586.256   5
  -8   2  -3-55.6867 587.739   8
  -8   2  -3 338.383 618.606   1
  -8   2  -3 558.795 629.147   3
   8  -3   3 1475.52 664.665   2
  -8  -3  -2 832.547 611.833   8
   8  -3   2-404.099 603.548   4
   8  -3   2 1058.75 585.833   2
  -8  -3  -1-1199.94 580.161   8
   8  -3   1 98.2291 591.061   4
   8  -3   1-522.133 544.170   2
  -8  -3   0-224.478 420.806   9
   8  -3   0-641.332 598.279   2
  -8  -3   0 625.169 522.666   8
  -8   3   0 215.585 428.938   1
   8  -3   0 185.793 595.563   4
   8   3   0-794.418 628.394  12
  -8   3   0-225.682 580.541   3
   8   3   0-463.871 640.661   5
  -8   3  -1 323.452 647.146   3
  -8   3  -1-483.693 520.540   1
   8   3   1-934.864 718.416   5
  -8   3  -2 12.4291 550.516   1
  -8   3  -2-287.696 612.991   3
   8   3   2 759.398 644.340   5
   8  -4   3-675.929 590.369   7
  -8  -4  -2 476.902 599.846   9
   8  -4   2-187.476 506.077   7
  -8  -4  -1 1062.19 605.802   9
  -8  -4  -1 124.148 478.278   8
   8  -4   1-5.60309 472.419   7
   8  -4   1 1335.95 660.773   2
  -8  -4   0 492.561 548.145   9
   8  -4   0-160.815 580.904   2
  -8  -4   0 741.549 484.951   8
   8   4   0-1476.04 856.264  12
   8   4   0 535.672 939.490   5
   8   4   1 49.9210 709.652  12
  -8   4  -1-1035.79 927.259   6
   8   4   1 229.734 694.305   5
   8   4   2 28.9456 653.832  12
  -8   4  -2 1430.71 925.616   6
   0   0   0    0.00    0.00   0

TITL 1a in P2(1)2(1)2(1)
REM P2(1)2(1)2(1) (#19 in standard setting)
CELL 0.71073   7.075281   8.782470  10.098782  90.0000  90.0000  90.0000
ZERR    4.00   0.000668   0.000723   0.010224   0.0000   0.0000   0.0000
LATT -1
SYMM -x+1/2,-y, z+1/2
SYMM -x, y+1/2,-z+1/2
SYMM  x+1/2,-y+1/2,-z
SFAC C H N Cl
UNIT 16.00 8.00 20.00 4.00
TREF
HKLF 4
END
;
_shelx_hkl_checksum              53846
_olex2_submission_special_instructions 'No special instructions were received'
_oxdiff_exptl_absorpt_empirical_details
;
Empirical correction (ABSPACK) includes:
- Absorption correction using spherical harmonics
- Frame scaling
;
_oxdiff_exptl_absorpt_empirical_full_max 2.869
_oxdiff_exptl_absorpt_empirical_full_min 0.793
loop_
_space_group_symop_operation_xyz
'x, y, z'
'-x+1/2, -y, z+1/2'
'-x, y+1/2, -z+1/2'
'x+1/2, -y+1/2, -z'
loop_
_atom_site_label
_atom_site_type_symbol
_atom_site_fract_x
_atom_site_fract_y
_atom_site_fract_z
_atom_site_U_iso_or_equiv
_atom_site_adp_type
_atom_site_occupancy
_atom_site_site_symmetry_order
_atom_site_calc_flag
_atom_site_refinement_flags_posn
_atom_site_refinement_flags_adp
_atom_site_refinement_flags_occupancy
_atom_site_disorder_assembly
_atom_site_disorder_group
Cl1 Cl 0.2905(2) 0.33485(15) 0.3207(5) 0.080(3) Uani 1 1 d . . . . .
N4 N 0.3563(8) 0.7499(6) 0.4125(16) 0.045(10) Uani 1 1 d . . . . .
N5 N 0.3668(7) 0.5951(6) 0.4211(17) 0.075(11) Uani 1 1 d . . . . .
N3 N 0.4281(7) 0.8395(7) 0.5062(15) 0.078(9) Uani 1 1 d . . . . .
N2 N 0.3878(11) 0.9788(8) 0.466(3) 0.067(12) Uani 1 1 d . . . . .
N1 N 0.2968(11) 0.9789(7) 0.347(2) 0.063(12) Uani 1 1 d . . . . .
C9 C 0.2772(9) 0.8345(6) 0.3177(17) 0.055(10) Uani 1 1 d . . . . .
C7 C 0.2018(10) 0.6036(8) 0.208(2) 0.059(13) Uani 1 1 d . . . . .
H7 H 0.150825 0.546684 0.138571 0.070 Uiso 1 1 calc R U . . .
C6 C 0.2876(10) 0.5319(6) 0.3192(19) 0.057(11) Uani 1 1 d . . . . .
C8 C 0.1973(9) 0.7594(7) 0.206(2) 0.061(12) Uani 1 1 d . . . . .
H8 H 0.144889 0.813322 0.135649 0.073 Uiso 1 1 calc R U . . .
loop_
_atom_site_aniso_label
_atom_site_aniso_U_11
_atom_site_aniso_U_22
_atom_site_aniso_U_33
_atom_site_aniso_U_23
_atom_site_aniso_U_13
_atom_site_aniso_U_12
Cl1 0.0792(10) 0.0387(7) 0.122(8) -0.0034(17) 0.023(2) -0.0016(8)
N4 0.047(3) 0.043(2) 0.04(3) 0.002(6) -0.013(5) -0.004(2)
N5 0.052(3) 0.041(3) 0.13(3) 0.000(7) 0.007(6) -0.001(2)
N3 0.077(4) 0.066(3) 0.09(3) -0.005(8) -0.008(6) -0.014(4)
N2 0.089(6) 0.056(4) 0.06(4) -0.025(7) -0.007(11) -0.014(4)
N1 0.078(6) 0.045(3) 0.07(4) -0.011(7) -0.002(10) -0.007(3)
C9 0.045(3) 0.041(3) 0.08(3) 0.003(8) -0.003(7) 0.001(3)
C7 0.060(4) 0.060(3) 0.06(4) -0.016(7) -0.008(9) -0.009(3)
C6 0.048(4) 0.039(3) 0.08(3) 0.007(7) 0.010(10) -0.001(3)
C8 0.056(4) 0.064(4) 0.06(4) 0.017(8) 0.007(8) 0.008(3)
loop_
_atom_type_symbol
_atom_type_description
_atom_type_scat_dispersion_real
_atom_type_scat_dispersion_imag
_atom_type_scat_source
C C 0.0033 0.0016 'International Tables Vol C Tables 4.2.6.8 and 6.1.1.4'
H H 0.0000 0.0000 'International Tables Vol C Tables 4.2.6.8 and 6.1.1.4'
Cl Cl 0.1484 0.1585 'International Tables Vol C Tables 4.2.6.8 and 6.1.1.4'
N N 0.0061 0.0033 'International Tables Vol C Tables 4.2.6.8 and 6.1.1.4'
loop_
_geom_angle_atom_site_label_1
_geom_angle_atom_site_label_2
_geom_angle_atom_site_label_3
_geom_angle
_geom_angle_site_symmetry_1
_geom_angle_site_symmetry_3
_geom_angle_publ_flag
N3 N4 N5 121.6(13) . . ?
N3 N4 C9 109.9(7) . . ?
C9 N4 N5 128.5(14) . . ?
C6 N5 N4 110.7(14) . . ?
N2 N3 N4 104.2(13) . . ?
N3 N2 N1 112.1(12) . . ?
C9 N1 N2 104.3(10) . . ?
N4 C9 C8 118.5(7) . . ?
N1 C9 N4 109.5(13) . . ?
N1 C9 C8 131.9(13) . . ?
C6 C7 H7 121.3 . . ?
C8 C7 H7 121.3 . . ?
C8 C7 C6 117.4(16) . . ?
N5 C6 Cl1 114.6(11) . . ?
N5 C6 C7 128.4(8) . . ?
C7 C6 Cl1 117.0(11) . . ?
C9 C8 H8 121.8 . . ?
C7 C8 C9 116.3(15) . . ?
C7 C8 H8 121.8 . . ?
loop_
_geom_bond_atom_site_label_1
_geom_bond_atom_site_label_2
_geom_bond_distance
_geom_bond_site_symmetry_2
_geom_bond_publ_flag
Cl1 C6 1.731(6) . ?
N4 N5 1.364(6) . ?
N4 N3 1.332(16) . ?
N4 C9 1.335(17) . ?
N5 C6 1.30(2) . ?
N3 N2 1.320(12) . ?
N2 N1 1.36(3) . ?
N1 C9 1.310(9) . ?
C9 C8 1.42(2) . ?
C7 H7 0.9300 . ?
C7 C6 1.43(2) . ?
C7 C8 1.369(8) . ?
C8 H8 0.9300 . ?
loop_
_geom_torsion_atom_site_label_1
_geom_torsion_atom_site_label_2
_geom_torsion_atom_site_label_3
_geom_torsion_atom_site_label_4
_geom_torsion
_geom_torsion_site_symmetry_1
_geom_torsion_site_symmetry_2
_geom_torsion_site_symmetry_3
_geom_torsion_site_symmetry_4
_geom_torsion_publ_flag
N4 N5 C6 Cl1 -179.3(6) . . . . ?
N4 N5 C6 C7 1(2) . . . . ?
N4 N3 N2 N1 -1.7(18) . . . . ?
N4 C9 C8 C7 2.5(15) . . . . ?
N5 N4 N3 N2 -178.6(11) . . . . ?
N5 N4 C9 N1 179.8(11) . . . . ?
N5 N4 C9 C8 -2.7(18) . . . . ?
N3 N4 N5 C6 179.9(9) . . . . ?
N3 N4 C9 N1 0.5(13) . . . . ?
N3 N4 C9 C8 178.1(10) . . . . ?
N3 N2 N1 C9 2(2) . . . . ?
N2 N1 C9 N4 -1.5(16) . . . . ?
N2 N1 C9 C8 -178.6(15) . . . . ?
N1 C9 C8 C7 179.4(11) . . . . ?
C9 N4 N5 C6 0.7(19) . . . . ?
C9 N4 N3 N2 0.7(13) . . . . ?
C6 C7 C8 C9 -0.8(16) . . . . ?
C8 C7 C6 Cl1 179.4(8) . . . . ?
C8 C7 C6 N5 -1(2) . . . . ?
