#------------------------------------------------------------------------------
#$Date: 2022-03-06 06:37:54 +0200 (Sun, 06 Mar 2022) $
#$Revision: 273468 $
#$URL: file:///home/coder/svn-repositories/cod/cif/1/56/59/1565957.cif $
#------------------------------------------------------------------------------
#
# This file is available in the Crystallography Open Database (COD),
# http://www.crystallography.net/
#
# All data on this site have been placed in the public domain by the
# contributors.
#
data_1565957
loop_
_publ_author_name
'Wildner, Manfred'
'Zakharov, Boris A.'
'Bogdanov, Nikita E.'
'Talla, Dominik'
'Boldyreva, Elena V.'
'Miletich, Ronald'
_publ_section_title
;
 Crystallography relevant to Mars and Galilean icy moons: crystal behavior
 of kieserite-type monohydrate sulfates at extraterrestrial conditions
 down to 15 K
;
_journal_issue                   2
_journal_name_full               IUCrJ
_journal_page_first              194
_journal_page_last               203
_journal_paper_doi               10.1107/S2052252521012720
_journal_volume                  9
_journal_year                    2022
_chemical_formula_sum            'Co H2 O5 S'
_chemical_formula_weight         173.01
_space_group_crystal_system      monoclinic
_space_group_IT_number           15
_space_group_name_Hall           '-C 2yc'
_space_group_name_H-M_alt        'C 1 2/c 1'
_atom_sites_solution_hydrogens   difmap
_audit_creation_method           SHELXL-2017/1
_cell_angle_alpha                90
_cell_angle_beta                 118.553(10)
_cell_angle_gamma                90
_cell_formula_units_Z            4
_cell_length_a                   6.9641(10)
_cell_length_b                   7.5990(10)
_cell_length_c                   7.6275(10)
_cell_measurement_temperature    273(2)
_cell_volume                     354.56(9)
_computing_structure_refinement  'SHELXL-2017/1 (Sheldrick, 2017)'
_diffrn_ambient_temperature      273(2)
_diffrn_measured_fraction_theta_full 0.997
_diffrn_measured_fraction_theta_max 0.999
_diffrn_radiation_type           MoK\a
_diffrn_radiation_wavelength     0.71073
_diffrn_reflns_av_R_equivalents  0.0194
_diffrn_reflns_av_unetI/netI     0.0085
_diffrn_reflns_Laue_measured_fraction_full 0.997
_diffrn_reflns_Laue_measured_fraction_max 0.999
_diffrn_reflns_limit_h_max       12
_diffrn_reflns_limit_h_min       -12
_diffrn_reflns_limit_k_max       13
_diffrn_reflns_limit_k_min       -13
_diffrn_reflns_limit_l_max       13
_diffrn_reflns_limit_l_min       -13
_diffrn_reflns_number            11509
_diffrn_reflns_point_group_measured_fraction_full 0.997
_diffrn_reflns_point_group_measured_fraction_max 0.999
_diffrn_reflns_theta_full        25.242
_diffrn_reflns_theta_max         39.984
_diffrn_reflns_theta_min         4.226
_exptl_absorpt_coefficient_mu    5.309
_exptl_absorpt_correction_T_max  0.7479
_exptl_absorpt_correction_T_min  0.5771
_exptl_absorpt_correction_type   multi-scan
_exptl_absorpt_process_details
;
 SADABS 2016/2: Krause, L., Herbst-Irmer, R., Sheldrick G.M. & Stalke D.,
 J. Appl. Cryst. 48 (2015) 3-10
;
_exptl_crystal_density_diffrn    3.241
_exptl_crystal_F_000             340
_refine_diff_density_max         0.465
_refine_diff_density_min         -0.417
_refine_diff_density_rms         0.075
_refine_ls_extinction_coef       0.0229(10)
_refine_ls_extinction_expression Fc^*^=kFc[1+0.001xFc^2^\l^3^/sin(2\q)]^-1/4^
_refine_ls_extinction_method     'SHELXL-2017/1 (Sheldrick 2017)'
_refine_ls_goodness_of_fit_ref   1.160
_refine_ls_hydrogen_treatment    refall
_refine_ls_matrix_type           full
_refine_ls_number_parameters     40
_refine_ls_number_reflns         1103
_refine_ls_number_restraints     0
_refine_ls_restrained_S_all      1.160
_refine_ls_R_factor_all          0.0124
_refine_ls_R_factor_gt           0.0121
_refine_ls_shift/su_max          0.000
_refine_ls_shift/su_mean         0.000
_refine_ls_structure_factor_coef Fsqd
_refine_ls_weighting_details
'w=1/[\s^2^(Fo^2^)+(0.0130P)^2^+0.2600P] where P=(Fo^2^+2Fc^2^)/3'
_refine_ls_weighting_scheme      calc
_refine_ls_wR_factor_gt          0.0317
_refine_ls_wR_factor_ref         0.0319
_reflns_Friedel_coverage         0.000
_reflns_number_gt                1095
_reflns_number_total             1103
_reflns_threshold_expression     'I > 2\s(I)'
_cod_data_source_file            lt5044.cif
_cod_data_source_block           CoSO4H2O_N2_273K
_cod_depositor_comments
'Adding full bibliography for 1565934--1565967.cif.'
_cod_original_sg_symbol_H-M      'C 2/c'
_cod_database_code               1565957
_shelx_shelxl_version_number     2017/1
_shelx_space_group_comment
;
The symmetry employed for this shelxl refinement is uniquely defined
by the following loop, which should always be used as a source of
symmetry information in preference to the above space-group names.
They are only intended as comments.
;
_shelx_res_file
;
TITL 217a03x (nach Umkleben) 273K Apex in C2/c kieserite cell
    latt_corr_for_Nonius20C_217a03x_273_0m.res
    created by SHELXL-2017/1 at 21:36:19 on 10-Feb-2021
REM meas. mon  6.9504(1) 7.5866(1) 7.4635(1)   90  116.3714(4)   90
REM trans. cryscomp  6.9504 7.5866 7.6110    90 118.530 90
REM meas.trcl  6.9503(1) 7.5865(1) 7.4634(1) 90.0069(5) 116.3716(4) 89.9965(5)
REM CELL 0.71073   6.9504 7.5866 7.6110    90 118.530 90
REM latt corr for Nonius20C +0.0137 +0.0124 +0.0165    +0.0226
CELL 0.71073  6.9641 7.5990 7.6275 90 118.5526 90
ZERR    4.00   0.001   0.001   0.001   0.00   0.01   0.00
LATT  7
SYMM -X, Y, .5-Z
SFAC O H S CO
UNIT 20 8 4 4
SHEL 20 0.55285
OMIT -2 2 2
REM DAMP 10000
L.S. 10
CONN 12 1.8 $O
EQIV $9 -x+1/2, y+1/2, -z+1/2
BOND $H
FMAP 2
PLAN 20
ACTA
HTAB O3 O2_$9
HTAB
WGHT    0.013000    0.260000
EXTI    0.022939
FVAR       0.73103
CO    4    0.000000    0.500000    0.000000    10.50000    0.00626    0.00668 =
         0.00709    0.00044    0.00322   -0.00011
S     3    0.000000    0.153936    0.250000    10.50000    0.00478    0.00550 =
         0.00729    0.00000    0.00277    0.00000
O1    1    0.172519    0.043049    0.400312    11.00000    0.00762    0.01407 =
         0.01452    0.00713    0.00439    0.00368
O2    1    0.097288    0.266800    0.154090    11.00000    0.01087    0.00944 =
         0.01480    0.00458    0.00840    0.00154
O3    1    0.000000    0.638439    0.250000    10.50000    0.00945    0.01021 =
         0.00955    0.00000    0.00499    0.00000
H     2    0.102430    0.703290    0.294299    11.00000    0.02757
HKLF 4 1  1 0 0 0 -1 0 -1 0 -1




REM  217a03x (nach Umkleben) 273K Apex in C2/c kieserite cell
REM R1 =  0.0121 for    1095 Fo > 4sig(Fo)  and  0.0124 for all    1103 data
REM     40 parameters refined using      0 restraints

END

WGHT      0.0131      0.2582

REM Instructions for potential hydrogen bonds
EQIV $5 x+1/2, y+1/2, z
HTAB O3 S_$5
HTAB O3 O2_$9

REM Highest difference peak  0.465,  deepest hole -0.417,  1-sigma level  0.075
Q1    1   0.0585  0.2198  0.2067  11.00000  0.05    0.47
Q2    1  -0.0664  0.5571 -0.0017  11.00000  0.05    0.39
Q3    1   0.0657  0.5481  0.0572  11.00000  0.05    0.37
Q4    1   0.0981  0.1026  0.3362  11.00000  0.05    0.34
Q5    1   0.0222  0.5335 -0.0615  11.00000  0.05    0.30
Q6    1   0.0041  0.5955  0.3202  11.00000  0.05    0.25
Q7    1   0.0987  0.3694  0.1877  11.00000  0.05    0.24
Q8    1   0.2597  0.0735  0.4082  11.00000  0.05    0.19
Q9    1   0.0815  0.0773  0.5264  11.00000  0.05    0.17
Q10   1   0.0493  0.3830  0.0872  11.00000  0.05    0.17
Q11   1   0.0414  0.6155 -0.0181  11.00000  0.05    0.16
Q12   1   0.2612  0.0167  0.3440  11.00000  0.05    0.16
Q13   1   0.0814  0.0748  0.4095  11.00000  0.05    0.15
Q14   1   0.2500  0.7500  0.5000  10.50000  0.05    0.14
Q15   1   0.1802 -0.0750  0.3780  11.00000  0.05    0.14
Q16   1   0.3623  0.1676  0.5109  11.00000  0.05    0.14
Q17   1   0.0075  0.8193  0.3051  11.00000  0.05    0.13
Q18   1   0.1800  0.1121  0.4773  11.00000  0.05    0.13
Q19   1  -0.0785  0.5575  0.0775  11.00000  0.05    0.13
Q20   1  -0.0059 -0.0668  0.4327  11.00000  0.05    0.13
;
_shelx_res_checksum              64856
_shelx_hkl_file
;
   2   0   0 16.5013 0.68057   6
  -2   0   0 19.9790 0.92632   2
  -2   0   0 16.0385 1.10040   3
  -2   0   0 21.1493 1.05416   5
  -2   0   0 16.9745 0.97064   8
   2   0   0 16.8425 1.00304  13
  -4   0   0 9061.42 164.016   5
   4   0   0 8962.21 168.604  13
   4   0   0 8494.71 162.514   1
   4   0   0 8694.09 159.599   6
  -4   0   0 8551.50 167.519   3
  -4   0   0 8940.03 164.756   8
  -4   0   0 8900.18 160.800   2
   6   0   0 38.3942 2.42578   1
  -6   0   0 38.3387 2.54962   8
  -6   0   0 31.7499 1.97137   2
   6   0   0 31.6235 2.78468  11
   6   0   0 30.7952 2.59285  13
   6   0   0 39.4689 2.36610   6
  -6   0   0 38.1131 2.66496   5
  -6   0   0 37.0719 3.23396   3
   8   0   0 1385.32 28.8032   6
  -8   0   0 1415.53 29.3841   5
   8   0   0 1381.42 30.0662  11
   8   0   0 1419.73 28.8152   1
  -8   0   0 1409.32 29.4678   8
  10   0   0 11.6879 2.43639   6
 -10   0   0 7.91936 2.55739   5
  10   0   0 6.83229 3.03670  11
  10   0   0 9.08658 2.13685   1
 -10   0   0 12.2991 2.42441   8
  -1  -1   0 1510.20 29.1270  13
   3  -1   0 32.9458 0.86417   6
   3  -1   0 28.6305 1.86191  13
   3  -1   0 37.7704 0.87355   6
  -3  -1   0 27.7134 1.56508   8
  -3  -1   0 37.4963 1.64117   5
   3  -1   0 30.5037 1.30301   1
  -3  -1   0 41.1110 1.64347   2
  -3   1   0 29.9442 1.51846   8
  -3   1   0 32.6439 1.35715   2
   3   1   0 39.8881 1.66426   6
   3   1   0 29.0888 1.62433   1
  -3   1   0 32.4818 1.63227   5
   3   1   0 27.9999 1.36590  13
  -3   1   0 29.9349 1.75202   3
   3   1   0 30.4607 1.63357  11
   5  -1   0 882.648 16.9274   6
  -5  -1   0 872.601 18.3102   8
  -5  -1   0 902.493 18.0201   5
   5  -1   0 893.453 17.4689   1
  -5  -1   0 867.043 16.2379  14
  -5  -1   0 892.014 17.5800   2
   5  -1   0 891.338 19.3858  13
  -5   1   0 893.133 18.0757   8
  -5   1   0 893.994 17.1644   2
   5   1   0 883.419 18.6069  11
   5   1   0 823.709 17.5368  13
  -5   1   0 909.485 19.2748   3
   5   1   0 870.445 17.8756   6
  -5   1   0 913.393 18.3695   5
   5   1   0 899.374 18.3115   1
  -7  -1   0 44.3360 3.15770   5
   7  -1   0 36.2361 3.32023  11
  -7  -1   0 39.8993 2.42110   2
  -7  -1   0 37.5749 3.12897   8
   7  -1   0 36.6034 2.54545   1
   7  -1   0 36.5739 2.44603   6
  -7   1   0 34.9708 3.02975   5
  -7   1   0 36.8628 2.91969   8
   7   1   0 34.5863 2.79502   6
  -7   1   0 33.0602 3.60820   3
   7   1   0 34.9520 2.84780   1
   7   1   0 35.8997 3.60067  11
  -9  -1   0 60.3644 4.39109   5
   9  -1   0 60.8068 5.01402  11
   9  -1   0 59.7993 3.95101   6
   9  -1   0 57.0210 3.65976   1
  -9  -1   0 55.3120 4.60794   8
  -9   1   0 59.8722 4.72728   5
   9   1   0 59.4501 4.23941   1
  -9   1   0 56.3390 4.30209   8
   9   1   0 57.6227 5.25855  11
   9   1   0 55.5711 4.32210   6
  11  -1   0 89.3619 6.90029  11
 -11  -1   0 90.2885 6.26947   8
 -11  -1   0 93.9680 5.97157   5
  11   1   0 81.0801 6.23236  11
 -11   1   0 89.1171 6.17762   5
 -11   1   0 80.8081 5.64643   8
   0  -2   0 1721.13 33.5992   1
   0  -2   0 1767.10 34.7757   6
   0   2   0 1807.27 32.2297  11
   0   2   0 1793.04 33.4572  10
   0   2   0 1718.81 32.8183   4
   0   2   0 1821.01 33.7922   7
   2  -2   0 610.284 13.3315  13
   2  -2   0 612.650 11.4409   1
  -2  -2   0 614.945 11.5255  13
  -2  -2   0 615.965 12.0654   8
  -2  -2   0 601.671 12.1840   1
   2   2   0 621.080 12.1315  11
  -2   2   0 621.420 11.9909   5
  -2   2   0 620.969 11.6601  14
  -2   2   0 621.852 12.3160   3
   2   2   0 623.263 12.4641   1
  -2   2   0 608.247 12.7222   7
   2   2   0 628.726 12.2029   6
  -2   2   0 609.292 11.9145   4
   4  -2   0 2087.98 38.2756   6
  -4  -2   0 2136.89 38.6255   2
  -4  -2   0 2152.90 38.3949   5
   4  -2   0 2134.49 40.8110  13
  -4  -2   0 2032.07 38.4365   1
   4  -2   0 2060.18 37.7795   1
   4  -2   0 2075.53 38.2536   6
  -4  -2   0 2082.02 39.0300   8
  -4   2   0 2158.82 37.8387   2
   4   2   0 2155.79 39.0724   6
  -4   2   0 2143.73 37.6328  14
  -4   2   0 2124.62 38.4868   8
   4   2   0 2112.02 39.2139  11
  -4   2   0 2087.71 38.8870   5
   4   2   0 2075.20 39.3494   1
  -4   2   0 2184.18 39.7805   3
   6  -2   0 1562.82 29.2876   1
   6  -2   0 1519.42 28.7926   6
  -6  -2   0 1580.20 29.9919   2
  -6  -2   0 1516.88 30.0208   5
  -6  -2   0 1554.01 30.8552   8
   6  -2   0 1521.82 32.5116  13
  -6   2   0 1585.95 30.7479   5
   6   2   0 1513.70 30.9150   1
   6   2   0 1539.33 30.7224   6
   6   2   0 1547.88 31.2915  11
  -6   2   0 1617.52 31.8918   3
  -6   2   0 1541.73 30.1278   8
   8  -2   0 764.945 16.7072   1
   8  -2   0 758.948 16.6489   6
  -8  -2   0 737.477 17.4767   5
  -8  -2   0 740.675 18.2937   8
  -8  -2   0 754.026 17.0082   2
  -8   2   0 768.554 18.3082   5
   8   2   0 760.705 18.3019   6
   8   2   0 760.012 18.4654   1
  -8   2   0 764.495 19.6480   3
  -8   2   0 740.474 17.5770   8
   8   2   0 749.061 19.0721  11
  10  -2   0 676.650 18.8035  11
 -10  -2   0 678.346 18.4708   8
  10  -2   0 687.740 16.9748   6
  10   2   0 670.577 18.4265   6
  10   2   0 660.749 18.0051   1
  10   2   0 660.317 19.4231  11
 -10   2   0 709.273 18.3947   5
   1  -3   0 161.719 4.01614  10
  -1  -3   0 158.549 3.79630   8
  -1  -3   0 161.014 4.38964   1
  -1  -3   0 158.197 4.07265   6
   1  -3   0 156.470 3.63525   6
   1  -3   0 164.719 4.02160   1
   1   3   0 160.763 3.70716   9
  -1   3   0 160.156 4.22018   3
   1   3   0 160.656 4.15130  11
  -1   3   0 160.715 3.71547   5
  -1   3   0 161.058 3.75450   9
   1   3   0 158.345 3.67871   4
  -1   3   0 160.178 4.13387   4
   1   3   0 162.669 4.39311   1
  -1   3   0 153.851 4.53620   7
   3  -3   0 1129.68 20.5166   6
   3  -3   0 1136.49 21.0797   1
  -3  -3   0 1119.47 21.9722   8
   3  -3   0 1153.98 24.1347  13
  -3  -3   0 1124.14 20.9309   5
  -3  -3   0 1129.77 22.2230   1
   3  -3   0 1113.33 20.9157   6
   3   3   0 1198.60 22.4221   6
  -3   3   0 1154.39 21.1530   8
   3   3   0 1166.01 22.2650  11
   3   3   0 1134.95 22.6470   1
   3   3   0 1160.05 21.4640   7
  -3   3   0 1121.25 23.0722   7
  -3   3   0 1177.77 22.5382   3
  -3   3   0 1188.69 20.9894   2
  -3   3   0 1140.34 21.8724   5
  -5  -3   0 15.6551 1.59049   5
  -5  -3   0 13.8000 1.78283   8
   5  -3   0 15.0238 1.00785   6
   5  -3   0 15.6935 1.24036   1
  -5  -3   0 16.3174 1.15314  14
  -5  -3   0 16.6887 1.50366   1
  -5  -3   0 14.7745 1.74885   2
   5  -3   0 15.7871 2.54723  13
   5  -3   0 15.1209 1.08231   6
   5   3   0 17.3218 2.08941   6
  -5   3   0 15.7175 1.48569   8
   5   3   0 16.1459 2.19558  11
   5   3   0 14.4177 1.99557   1
  -5   3   0 15.2244 1.89060   5
  -5   3   0 15.6506 1.23327   2
  -5   3   0 16.8759 2.21430   3
  -7  -3   0 111.696 4.72310   5
   7  -3   0 123.432 4.27290   6
   7  -3   0 111.904 6.43042  13
   7  -3   0 115.663 4.20061   1
  -7  -3   0 119.512 4.88835   2
  -7  -3   0 121.448 5.48918   8
  -7   3   0 118.903 6.05825   3
  -7   3   0 119.089 5.46958   5
   7   3   0 122.331 6.14079  11
  -7   3   0 123.062 4.91536   8
   7   3   0 124.910 5.70705   6
   7   3   0 126.810 5.78974   1
   9  -3   0 6.84326 1.55467   6
   9  -3   0 11.5002 2.98103  11
  -9  -3   0 9.62985 2.72441   8
  -9  -3   0 7.14160 1.81313   2
   9   3   0 7.88154 2.29544   1
  -9   3   0 7.49290 2.35720   3
   9   3   0 8.67242 2.70448  11
  -9   3   0 10.2052 2.63591   5
   9   3   0 8.17346 2.34640   6
  11  -3   0 6.18624 1.81255   6
 -11  -3   0 1.93281 2.44678   8
  11  -3   0 7.30278 2.51728  11
  11   3   0 4.94930 2.23896   1
 -11   3   0 6.09551 2.75780   5
  11   3   0 2.95557 2.27058   6
  11   3   0 0.52807 2.22303  11
   0  -4   0 3058.68 59.2012   6
   0  -4   0 2985.49 56.9505   1
   0   4   0 3101.38 57.6845   7
   0   4   0 3050.91 54.2143  11
   0   4   0 3004.23 54.0419   4
   0   4   0 3008.22 55.6745  10
   0   4   0 3068.93 55.9651   9
   0   4   0 3075.06 54.3054   1
   2  -4   0 6091.84 117.425   1
   2  -4   0 6156.10 123.027  10
  -2  -4   0 6341.46 118.126   6
   2  -4   0 6248.57 114.884   6
  -2  -4   0 6260.24 118.491   1
  -2  -4   0 6334.09 117.500   8
   2   4   0 6580.15 117.043  11
   2   4   0 6188.48 117.626   7
  -2   4   0 6139.04 115.278   5
  -2   4   0 6173.76 118.919   4
  -2   4   0 6352.77 121.438   7
   2   4   0 6321.95 121.451   1
   2   4   0 6458.70 118.092   6
  -2   4   0 6233.87 115.039   3
   4  -4   0 524.584 10.4499   6
  -4  -4   0 520.219 12.3533   1
   4  -4   0 544.914 11.1195   1
  -4  -4   0 541.151 12.3303   8
   4  -4   0 513.100 10.4359   6
   4  -4   0 539.042 14.6881  13
  -4  -4   0 525.018 10.7936   5
  -4   4   0 541.208 11.0270   8
   4   4   0 545.124 13.1912   1
  -4   4   0 555.182 12.8493   3
  -4   4   0 537.735 12.1218   5
   4   4   0 550.300 12.7662   6
   4   4   0 553.669 12.7697  11
  -4   4   0 530.020 13.5005   7
   4   4   0 550.752 11.5241   7
   6  -4   0 1517.29 29.1058   1
   6  -4   0 1529.31 28.6982   6
   6  -4   0 1551.75 34.6156  13
  -6  -4   0 1572.56 30.7611   2
  -6  -4   0 1560.19 31.4838   8
  -6   4   0 1615.30 32.2627   3
  -6   4   0 1547.31 31.0940   5
   6   4   0 1572.98 32.1109   6
   6   4   0 1550.28 32.0455  11
  -6   4   0 1498.22 29.6830   8
   6   4   0 1544.20 32.3327   1
  -8  -4   0 11.8401 2.32392   8
  -8  -4   0 12.0522 2.25973   2
   8   4   0 10.1299 2.48981   6
   8   4   0 14.2453 3.35373  11
   8   4   0 13.0628 2.73774   1
  -8   4   0 10.5394 2.40012   5
  -8   4   0 10.9999 2.71511   3
 -10  -4   0 438.602 14.3359   8
  10  -4   0 451.563 14.3106  11
 -10   4   0 450.279 14.2639   5
  10   4   0 453.058 15.0339   6
  10   4   0 440.426 14.6362   1
 -10   4   0 458.401 15.3658   3
  10   4   0 447.313 15.5132  11
   1  -5   0 87.0827 3.11050   6
  -1  -5   0 87.3863 2.77951   8
  -1  -5   0 84.2973 3.23786   6
   1  -5   0 84.3995 3.34431   1
   1  -5   0 78.8329 1.98079  10
  -1  -5   0 88.2412 3.69489   1
  -1   5   0 89.0457 3.40541   3
   1   5   0 88.1530 3.33777  11
   1   5   0 81.7465 3.39331   7
   1   5   0 89.3202 3.54298   1
   1   5   0 89.6883 2.83455  10
  -1   5   0 87.3327 3.41066   4
  -1   5   0 83.2172 3.72729   7
  -1   5   0 81.9143 2.91587   1
   1   5   0 84.1908 2.61269   9
  -1   5   0 84.5032 2.59484   5
  -1   5   0 87.0714 2.67937   9
  -3  -5   0 155.616 4.95235   8
   3  -5   0 155.711 4.28251   6
  -3  -5   0 148.816 4.82601   6
  -3  -5   0 156.527 5.56013   1
   3  -5   0 158.263 6.91789  13
  -3   5   0 158.290 4.79932   5
   3   5   0 149.893 4.66798   7
   3   5   0 154.667 5.33118   6
   3   5   0 159.310 5.39551  11
  -3   5   0 158.700 5.30009   3
  -3   5   0 154.715 6.08826   7
   3   5   0 155.730 5.80523   1
   5  -5   0 11.3108 1.33622   1
  -5  -5   0 12.2544 1.82137   8
   5  -5   0 12.8577 1.20162   6
   5  -5   0 10.9210 2.59350  13
  -5  -5   0 10.5593 1.82176   1
  -5   5   0 18.3965 2.53625   3
  -5   5   0 10.5157 2.07383   7
   5   5   0 12.2164 2.03573  11
   5   5   0 13.1976 2.13959   6
  -5   5   0 12.4509 1.89246   5
   7  -5   0 119.210 7.53503  13
  -7  -5   0 119.238 5.79088   8
  -7  -5   0 124.655 5.50099   2
   7  -5   0 117.327 4.30707   6
  -7   5   0 116.742 6.27839   3
  -7   5   0 115.013 5.69681   5
   7   5   0 116.796 6.56005  11
   7   5   0 113.399 6.43848   1
   7   5   0 119.449 6.37464   6
  -9  -5   0 45.0284 4.30724   8
  -9  -5   0 49.2432 4.15295   2
   9  -5   0 42.6033 3.07279   6
   9   5   0 49.0113 5.05919   1
  -9   5   0 45.1155 4.71397   5
  -9   5   0 48.3887 4.92379   3
   9   5   0 44.7141 5.00558  11
   9   5   0 43.6092 4.68309   6
   0  -6   0 2370.83 42.7685   8
   0  -6   0 2396.57 45.1968   1
   0  -6   0 2375.68 44.5522   6
   0   6   0 2482.60 45.1281   3
   0   6   0 2403.31 42.9693   9
   0   6   0 2419.73 44.5902   1
   0   6   0 2469.21 44.6873  11
   0   6   0 2410.26 45.6090   7
   2  -6   0 83.0522 3.48556   1
   2  -6   0 73.4277 3.12370   6
  -2  -6   0 68.1546 3.28610   6
  -2  -6   0 72.3221 3.83974   1
  -2  -6   0 71.9984 2.97559   8
   2  -6   0 71.7133 4.81597  13
  -2   6   0 73.8840 4.21577   7
   2   6   0 66.4000 3.61342   1
  -2   6   0 67.8977 2.80731   5
  -2   6   0 66.4803 3.44071   3
   2   6   0 71.4462 3.33512  10
   2   6   0 69.1064 2.69013   9
   2   6   0 77.2341 3.55795  11
   4  -6   0 2245.81 41.7816   6
   4  -6   0 2299.57 47.8276  13
  -4  -6   0 2261.10 43.1298   8
   4  -6   0 2269.09 42.1143   1
  -4  -6   0 2302.22 44.2470   1
  -4   6   0 2271.77 43.9642   3
   4   6   0 2338.53 45.1856   1
  -4   6   0 2341.03 45.7534   7
  -4   6   0 2283.79 42.7963   5
   4   6   0 2240.49 43.7875  11
   4   6   0 2225.24 43.8803   6
   6  -6   0 182.606 5.61112   6
  -6  -6   0 182.316 7.00948   2
   6  -6   0 170.550 5.50086   1
   6  -6   0 182.846 9.27773  13
  -6  -6   0 187.924 7.26589   8
  -6  -6   0 160.783 7.76459   1
   6   6   0 186.055 7.74351   6
  -6   6   0 186.785 6.91889   5
   6   6   0 177.959 7.79280  11
  -6   6   0 193.870 7.67314   3
   6   6   0 173.546 7.97229   1
  -8  -6   0 1262.78 27.6636   2
   8  -6   0 1273.36 25.4769   6
   8  -6   0 1161.88 31.7819  13
  -8  -6   0 1244.29 28.6309   8
   8   6   0 1261.79 30.0469  11
  -8   6   0 1248.80 29.0897   3
   8   6   0 1241.49 29.4959   6
   8   6   0 1285.57 30.3470   1
  -8   6   0 1261.76 28.0602   5
 -10  -6   0 104.538 6.09896   2
  10  -6   0 112.008 5.23434   6
 -10  -6   0 105.927 7.23751   8
  10   6   0 103.182 7.43863   1
  10   6   0 119.391 8.50592  11
 -10   6   0 124.146 7.83818   3
 -10   6   0 132.132 7.37772   5
   1  -7   0 306.515 8.45749   6
  -1  -7   0 301.135 7.28978   8
   1  -7   0 321.147 8.95679   1
  -1  -7   0 305.218 8.62431   6
  -1  -7   0 317.060 9.30941   1
   1   7   0 302.868 8.96265   7
  -1   7   0 311.958 9.57620   7
   1   7   0 307.532 8.56120  11
  -1   7   0 318.536 8.87847   3
   1   7   0 325.443 8.91133   1
   3  -7   0 596.411 17.7220  13
  -3  -7   0 609.476 13.7374   8
  -3  -7   0 588.022 15.1757   1
   3  -7   0 619.216 13.6419   6
   3   7   0 605.655 14.7611  11
  -3   7   0 593.456 13.2956   5
   3   7   0 621.832 15.5281   1
  -3   7   0 606.049 16.0984   7
   3   7   0 580.776 13.9147   7
  -3   7   0 613.410 14.6835   3
   5  -7   0 44.6370 2.76093   6
  -5  -7   0 49.1758 3.64897   8
   5  -7   0 45.7341 2.79084   1
   5  -7   0 46.1374 5.18272  13
  -5  -7   0 50.6261 3.79081   1
  -5   7   0 49.6137 4.65058   7
  -5   7   0 50.5043 4.05378   3
   5   7   0 50.5924 4.20744  11
   5   7   0 57.1192 4.64660   1
  -5   7   0 46.3523 3.33338   5
   5   7   0 46.2431 3.38004   9
   7  -7   0 175.780 6.04531   6
  -7  -7   0 167.199 7.41657   2
   7  -7   0 175.369 10.1748  13
  -7  -7   0 186.760 7.82770   8
   7   7   0 182.790 8.78137   1
   7   7   0 174.246 8.57939  11
  -7   7   0 187.647 8.40668   3
  -7   7   0 171.977 7.40477   5
   9  -7   0 31.0390 3.05217   6
  -9  -7   0 25.1393 4.03354   8
  -9  -7   0 28.8044 3.75335   2
   9   7   0 28.3467 4.76414  11
   9   7   0 35.4880 5.12353   1
  -9   7   0 35.4983 4.85916   3
  -9   7   0 26.0762 3.95481   5
   0  -8   0 1427.89 29.0403   6
   0  -8   0 1448.10 32.0362  13
   0  -8   0 1425.04 29.7418   1
   0   8   0 1421.85 28.8349  11
   0   8   0 1413.58 30.1551   7
   0   8   0 1408.16 29.2561   3
   2  -8   0 1106.36 23.2183   1
  -2  -8   0 1052.38 23.1295   6
   2  -8   0 1098.15 27.2343  13
  -2  -8   0 1126.92 24.5832   1
   2  -8   0 1091.84 22.8509   6
   2   8   0 1026.04 23.1930   7
  -2   8   0 1087.25 23.4712   3
   2   8   0 1070.88 23.9088   1
  -2   8   0 1068.87 24.9205   7
   2   8   0 1083.25 23.3373  11
   4  -8   0 740.700 22.2502  13
   4  -8   0 776.135 17.2405   6
  -4  -8   0 770.643 17.6569   8
  -4  -8   0 794.270 19.5561   1
   4  -8   0 771.858 17.2745   1
  -4   8   0 768.572 17.0415   5
  -4   8   0 749.795 18.4318   3
   4   8   0 772.200 18.8532  11
  -4   8   0 768.041 20.3892   7
   4   8   0 767.759 19.8854   1
  -6  -8   0 291.356 10.4329   1
   6  -8   0 285.796 13.4927  13
   6  -8   0 283.123 8.58029   6
  -6  -8   0 294.094 10.0252   2
  -6  -8   0 298.484 10.1430   8
   6   8   0 288.181 11.0457  11
   6   8   0 300.087 11.7922   1
  -6   8   0 287.523 10.5315   3
  -6   8   0 292.927 9.46523   5
   8  -8   0 228.678 7.69401   6
  -8  -8   0 211.721 9.04123   2
  -8  -8   0 221.601 9.56896   8
   8   8   0 210.273 10.6161   1
  -8   8   0 218.683 9.83242   3
   8   8   0 208.419 10.4359  11
  -8   8   0 217.377 9.00258   5
  -1  -9   0 161.353 7.88294  13
   1  -9   0 169.551 6.74094   6
  -1  -9   0 173.248 7.45812   1
   1  -9   0 178.043 7.19623   1
  -1  -9   0 166.070 6.75423   6
   1  -9   0 174.320 8.91422  13
  -1   9   0 176.260 7.06317   3
   1   9   0 159.649 7.07956   7
  -1   9   0 161.960 7.62255   7
   1   9   0 169.534 6.72378   1
   1   9   0 173.023 6.94623  11
   1   9   0 171.040 7.23958   3
   3  -9   0 39.7081 5.13146  13
   3  -9   0 37.3845 3.24361   1
  -3  -9   0 45.6582 4.23936   1
   3  -9   0 39.3959 3.32479   6
  -3   9   0 38.9015 3.75312   3
   3   9   0 45.7332 4.23120   1
  -3   9   0 33.1867 4.02293   7
   3   9   0 46.6196 4.07965  11
  -5  -9   0 127.393 6.08342   8
   5  -9   0 131.717 5.73586   6
  -5  -9   0 129.554 7.08803   1
   5  -9   0 130.214 5.56066   1
   5  -9   0 133.697 9.20790  13
   5   9   0 132.291 7.14228  11
  -5   9   0 131.802 6.86351   3
  -5   9   0 124.835 7.91545   7
   5   9   0 132.924 7.45712   1
   7  -9   0 8.74659 1.95333   6
  -7  -9   0 10.9733 2.94059   2
  -7  -9   0 10.2126 2.77691   8
   7   9   0 10.3155 3.56182  11
   7   9   0 13.5020 3.49639   1
  -7   9   0 7.58617 1.95787   5
  -7   9   0 15.9591 3.60654   3
   0 -10   0 18.9953 3.46839  13
   0 -10   0 16.2393 2.66700   6
   0 -10   0 15.9631 2.65697   1
   0  10   0 17.1276 3.07011   7
   0  10   0 17.5549 2.97336   3
   2 -10   0 1634.04 39.6672  13
   2 -10   0 1626.38 34.3388   1
   2 -10   0 1638.37 34.1915   6
  -2 -10   0 1693.15 36.2218   1
   2  10   0 1644.13 35.2508   3
  -2  10   0 1576.69 34.3627   3
  -2  10   0 1603.24 36.4652   7
   2  10   0 1631.78 34.5196  11
   4 -10   0 3.73296 2.24522  13
   4 -10   0 3.78001 1.68724   6
   4 -10   0 10.5364 2.10659   1
  -4 -10   0 7.24822 2.64938   1
  -4  10   0 3.32483 2.10661   3
   4  10   0 3.49639 1.90525  11
   4  10   0 5.27483 2.39459   1
  -4  10   0 4.56178 2.19006   7
  -6 -10   0 1077.57 26.0840   2
   6 -10   0 1111.28 24.5485   6
   6  10   0 1081.10 28.4603   1
   6  10   0 1059.87 26.8537  11
  -6  10   0 1072.74 26.3695   3
   1 -11   0 125.541 6.87542   1
   1 -11   0 123.245 8.32110  13
  -1 -11   0 120.104 7.14647   1
   1  11   0 125.013 6.77683  11
  -1  11   0 120.930 6.78509   3
   1  11   0 131.734 7.14632   3
   1  11   0 118.099 6.87279   7
  -1  11   0 123.528 7.53163   7
   3 -11   0 62.1580 6.88842  13
  -3 -11   0 64.3613 5.40086   1
   3 -11   0 58.0114 4.59802   1
   3 -11   0 55.3315 4.54703   6
  -3  11   0 61.7244 5.17027   3
  -3  11   0 62.7327 5.71075   7
   3  11   0 59.7261 5.21913  11
  -5 -11   0 134.114 7.54333   2
   5 -11   0 124.762 6.13659   1
   5 -11   0 147.417 6.92185   6
  -5 -11   0 117.919 7.76061   1
   5  11   0 131.681 8.01481   1
  -5  11   0 135.100 9.10300   7
  -5  11   0 136.380 7.70993   3
   5  11   0 122.478 7.80365  11
   0 -12   0 407.144 13.8921   1
   0 -12   0 387.477 13.1760   6
   0  12   0 383.671 13.3035   3
   0  12   0 377.471 13.9431   7
   2 -12   0 334.546 12.0333   1
  -2 -12   0 339.073 12.8975   1
   2 -12   0 324.837 11.7582   6
  -2  12   0 311.628 11.5463   3
   2  12   0 315.395 11.9894   3
  -2  12   0 320.276 13.4284   7
   2  12   0 343.543 12.1990  11
   4 -12   0 299.202 10.7280   1
   4 -12   0 315.158 11.2627   6
  -4 -12   0 315.816 12.6214   1
  -4  12   0 297.232 11.7110   3
  -4  12   0 289.010 13.2972   7
   4  12   0 295.049 11.8308  11
   4  12   0 299.390 12.3617   3
  -1 -13   0 8.08538 3.04429   1
   1 -13   0 1.93847 2.10030   6
   1 -13   0 0.45795 1.47093   1
   1  13   0 2.22318 2.43381   3
  -1  13   0 1.60193 2.34029   3
  -1  13   0 0.20445 2.31817   7
   3 -13   0 3.21544 2.12859   1
  -3 -13   0 -0.2675 2.32978   1
  -3 -13   0 0.90079 2.32824   2
   3 -13   0 -1.0657 1.78813   6
   3  13   0 4.34858 2.26314   3
  -3  13   0 2.41224 2.99387   7
  -3  13   0 -0.3994 2.22211   3
   3  13   0 2.89194 2.12835  11
  10   0  -1 -1.0122 1.27572   1
 -10   0   1 3.28407 2.06031   8
  10   0  -1 4.70056 1.97246   6
 -10   0   1 1.22020 1.87392   5
  10   0  -1 1.96690 2.47438  11
   8   0  -1 0.88699 1.29987  11
  -8   0   1 0.84470 1.30764   5
   8   0  -1 0.29651 1.01604   1
  -8   0   1 4.34983 1.33072   8
   8   0  -1 4.87387 1.54718   6
  -6   0   1 3.70740 1.17608   5
  -6   0   1 0.99366 0.73009   8
  -6   0   1 4.91777 0.88508   2
   6   0  -1 0.65689 0.75191   6
  -6   0   1 0.62357 1.11254   3
   6   0  -1 1.01492 1.04887  11
   6   0  -1 1.07976 0.81842   1
   6   0  -1 1.78649 1.03616  13
  -4   0   1 0.46794 0.38180   8
  -4   0   1 1.10602 0.38644   2
   4   0  -1 -0.0255 0.41771   6
  -4   0   1 1.22262 0.47534   1
  -4   0   1 1.17095 0.60199  12
  -4   0   1 0.90568 0.68277   3
   4   0  -1 4.39618 1.03501  13
  -4   0   1 -0.1547 0.50399   5
   4   0  -1 0.59779 0.51189   1
  -2   0   1 3.80207 0.57554   3
   2   0  -1 0.47849 0.41710  13
  -2   0   1 1.45639 0.33916  12
   2   0  -1 1.72945 0.34112   6
   0   0  -1 2.03378 0.34066  13
   0   0  -1 1.49359 0.33461  10
   0   0   1 1.63633 0.40237  10
  -2   0  -1 0.98918 0.42780   3
  -2   0  -1 3.64532 0.63406   8
  -2   0  -1 0.96449 0.46691   5
  -2   0  -1 0.64038 0.28726  14
  -4   0  -1 1.16992 0.79417   8
  -4   0  -1 1.96804 0.51422  14
  -4   0  -1 -0.1406 0.45993   2
   4   0   1 0.62508 0.60181  13
  -4   0  -1 0.59799 0.74112   5
   4   0   1 2.31960 0.48670   6
   4   0   1 0.73938 0.43882   6
   4   0   1 0.92520 0.49706   1
   6   0   1 1.44315 1.27437  11
  -6   0  -1 0.38904 1.08621   8
   6   0   1 1.20507 0.77035   1
   8   0   1 2.13281 1.91107  11
  -8   0  -1 3.86349 1.86715   5
   8   0   1 1.27664 1.13808   6
  -8   0  -1 2.01195 1.70581   8
   8   0   1 1.77112 1.08206   1
 -10   0  -1 2.13701 2.20088   8
  10   0   1 3.79586 2.05098   6
 -10   0  -1 -0.6025 2.01767   5
  10   0   1 2.35745 2.72908  11
  11  -1  -1 236.955 10.5729  11
 -11  -1   1 239.102 9.83097   8
 -11  -1   1 241.395 9.43293   5
  11  -1  -1 246.761 9.42214   6
  11   1  -1 254.439 10.8747  11
  11   1  -1 237.242 9.38597   1
 -11   1   1 243.275 9.18632   8
 -11   1   1 233.404 9.59878   5
  11   1  -1 235.374 9.72334   6
   9  -1  -1 368.020 10.7209   1
   9  -1  -1 374.174 10.9532   6
  -9  -1   1 373.552 11.1570   5
   9  -1  -1 373.431 11.8567  11
  -9  -1   1 379.586 11.6005   8
   9   1  -1 378.649 11.5674   6
  -9   1   1 369.675 11.3925   5
  -9   1   1 382.420 11.2161   8
   9   1  -1 383.695 11.5908   1
   9   1  -1 383.642 12.5952  11
   7  -1  -1 1093.88 22.6704   1
   7  -1  -1 1065.28 24.9941  13
  -7  -1   1 1057.05 21.6623   2
  -7  -1   1 1222.39 23.6815   8
   7  -1  -1 1068.31 22.4182   6
  -7  -1   1 1113.15 22.9222   5
   7   1  -1 1070.22 23.2334   6
  -7   1   1 1120.84 22.8895   8
   7   1  -1 1097.07 23.9218  11
  -7   1   1 1129.94 24.7432   3
   7   1  -1 1110.02 23.4847   1
  -7   1   1 1127.32 23.2103   5
   5  -1  -1 1310.72 25.5441   1
   5  -1  -1 1355.94 25.2478   6
  -5  -1   1 1379.29 25.1867   2
  -5  -1   1 1280.95 25.2118   1
   5  -1  -1 1344.07 27.6837  13
  -5  -1   1 1338.86 25.5610   5
  -5  -1   1 1359.45 26.0007   8
   5   1  -1 1375.11 26.4032  11
   5   1  -1 1349.11 26.2835   1
  -5   1   1 1367.55 25.8949   5
   5   1  -1 1297.51 26.3222  13
  -5   1   1 1365.65 26.9200   3
  -5   1   1 1346.31 25.5665   8
   5   1  -1 1376.21 26.0282   6
  -5   1   1 1325.64 24.4804   2
   3  -1  -1 4864.51 90.3120   6
   3  -1  -1 4709.72 91.7585   1
   3  -1  -1 4957.55 99.6686  13
  -3  -1   1 5150.70 91.3228  12
  -3  -1   1 4936.16 89.6777   5
  -3  -1   1 5014.01 90.9976   1
  -3   1   1 4715.52 93.0095   3
   3   1  -1 4835.65 90.2220  11
   3   1  -1 4823.19 94.2530   1
   3   1  -1 4767.08 92.5011   6
  -3   1   1 4875.14 90.8361   8
  -3   1   1 4998.75 91.0473  12
  -3   1   1 4899.73 91.0406   5
   3   1  -1 4871.28 93.0706  13
   1  -1  -1 2149.47 44.4434  13
  -1  -1   1 2185.70 45.3034  10
   1  -1  -1 2207.23 46.2717  10
  -1   1   1 2170.73 46.2316  10
   1   1  -1 2189.28 45.1982  10
  -1  -1  -1 7708.90 140.277   8
  -1  -1  -1 7734.86 140.837   2
  -1   1  -1 8050.52 141.719   7
   1   1   1 7872.60 141.101   1
  -1   1  -1 8226.85 141.064   5
  -1   1  -1 7709.06 139.596   4
   1   1   1 7684.83 139.076  11
   1   1   1 7841.68 139.713   6
  -1   1  -1 8076.19 140.734   8
  -1   1  -1 7781.90 140.981   3
  -1   1  -1 7613.34 139.542  14
  -1   1  -1 7064.35 138.884   2
  -3  -1  -1 555.018 10.3677  14
  -3  -1  -1 534.065 11.1079   5
  -3  -1  -1 541.461 11.4801   8
   3  -1   1 529.117 10.1103   1
   3  -1   1 535.495 11.8668  13
  -3  -1  -1 536.230 11.0741   2
  -3   1  -1 526.333 10.4578   4
  -3   1  -1 550.727 10.9635   2
  -3   1  -1 544.501 11.3435   8
  -3   1  -1 541.708 10.5375  14
   3   1   1 510.428 9.94719  13
  -3   1  -1 530.470 11.3780   5
  -3   1  -1 529.453 11.6385   3
   3   1   1 526.989 11.0945   1
  -3   1  -1 541.611 11.5179   7
   3   1   1 529.950 11.2025  11
   3   1   1 542.447 10.7497   6
   5  -1   1 2831.21 53.2274  13
   5  -1   1 2646.25 50.5517   6
  -5  -1  -1 3070.31 52.9551   8
   5  -1   1 2815.44 51.0486   1
  -5  -1  -1 2829.91 51.8424   2
  -5  -1  -1 2803.36 50.4515  14
  -5  -1  -1 2826.24 52.3132   5
   5  -1   1 2834.07 52.3402   6
  -5   1  -1 2921.13 52.7256   5
  -5   1  -1 2848.48 53.4279   3
   5   1   1 2853.90 52.1865   1
  -5   1  -1 2909.77 52.5778   8
   5   1   1 2853.98 52.7474  11
  -5   1  -1 2834.80 50.6028  14
  -5   1  -1 2838.96 51.5679   2
   5   1   1 2877.43 51.8219   6
  -7  -1  -1 132.984 5.69411   5
   7  -1   1 130.003 4.65837   6
  -7  -1  -1 131.303 5.93071   8
   7  -1   1 124.898 5.61458  11
   7  -1   1 131.574 4.72725   1
  -7  -1  -1 156.631 5.46326   2
  -7   1  -1 125.494 4.73027   2
   7   1   1 132.735 6.21208  11
  -7   1  -1 132.586 5.72717   8
  -7   1  -1 138.072 5.96563   5
   7   1   1 135.409 5.47635   1
   7   1   1 127.735 5.28882   6
  -9  -1  -1 789.677 19.3048   5
   9  -1   1 770.582 19.8701  11
  -9  -1  -1 756.096 19.5748   8
   9  -1   1 773.928 18.0729   6
   9   1   1 757.585 20.2470  11
  -9   1  -1 767.683 19.5101   5
   9   1   1 773.758 19.0720   6
   9   1   1 776.203 18.6841   1
  -9   1  -1 763.219 19.2521   8
  10  -2  -1 118.145 5.70712   1
 -10  -2   1 129.362 6.94866   8
  10  -2  -1 126.139 6.81108  11
 -10  -2   1 126.156 6.21899   5
  10  -2  -1 136.440 6.37011   6
 -10   2   1 120.608 6.16229   8
  10   2  -1 125.496 6.74534   1
  10   2  -1 125.665 6.93455   6
  10   2  -1 135.032 7.87913  11
 -10   2   1 120.957 6.63634   5
  -8  -2   1 334.086 10.1651   8
  -8  -2   1 332.144 9.57928   5
   8  -2  -1 338.301 9.29208   1
  -8  -2   1 327.886 8.88628   2
   8  -2  -1 333.808 9.24952   6
  -8   2   1 339.225 11.3368   3
   8   2  -1 336.076 10.5280   6
   8   2  -1 336.559 10.5545   1
  -8   2   1 325.925 10.0492   5
  -8   2   1 327.628 9.45200   8
   8   2  -1 314.395 10.8552  11
  -6  -2   1 423.702 9.93074   2
   6  -2  -1 413.406 12.5022  13
   6  -2  -1 421.663 9.74697   6
   6  -2  -1 429.586 10.0347   1
  -6  -2   1 421.931 10.7127   8
  -6  -2   1 425.035 10.0903   5
   6   2  -1 435.072 11.2891  11
  -6   2   1 420.900 10.0017   8
  -6   2   1 428.037 11.4722   3
   6   2  -1 430.546 11.2021   1
  -6   2   1 430.233 10.6640   5
   6   2  -1 437.285 11.0285   6
  -4  -2   1 1275.99 23.5685   5
   4  -2  -1 1265.43 23.7986   1
   4  -2  -1 1257.51 23.2624   6
  -4  -2   1 1252.80 24.1971   1
  -4  -2   1 1290.23 24.3344   8
  -4  -2   1 1278.47 24.1225  12
   4  -2  -1 1276.39 26.2468  13
  -4   2   1 1259.34 23.4611   8
   4   2  -1 1267.21 24.4625   6
   4   2  -1 1243.57 24.7661   1
  -4   2   1 1269.70 24.8542   3
  -4   2   1 1280.31 24.1399   5
   4   2  -1 1301.71 24.5252  11
   4   2  -1 1259.62 24.3029  13
   2  -2  -1 2816.86 51.2000  13
   2  -2  -1 2739.80 52.8099   6
  -2  -2   1 2844.73 53.1563   1
   2  -2  -1 2839.44 54.1262   1
   2  -2  -1 2812.69 60.3017  10
  -2  -2   1 2782.30 52.2484  12
   2   2  -1 2749.70 54.8991   1
  -2   2   1 2828.58 52.6863  12
  -2   2   1 2863.45 50.5068   7
   2   2  -1 2811.76 53.5126   6
  -2   2   1 2876.93 51.9262   3
  -2   2   1 2770.65 52.7858   9
   2   2  -1 2797.72 52.3390  11
   0  -2  -1 2820.59 57.2477   1
   0  -2   1 3033.32 54.8131   6
   0  -2  -1 2936.84 60.3578  13
   0  -2   1 2971.53 56.6379   1
   0  -2  -1 3074.79 61.7697  10
   0   2   1 2954.36 62.0942  10
   0   2  -1 3221.94 57.6539   3
   0   2  -1 2944.41 53.6690  14
   0   2   1 3070.16 57.4559   1
   0   2   1 3052.28 56.6389  11
   0   2  -1 2894.64 56.2933   4
   0   2  -1 2928.31 58.2023   7
   0   2   1 2965.96 56.6179   9
   0   2  -1 3170.23 54.0514  11
  -2  -2  -1 3195.13 56.7927   1
  -2  -2  -1 3200.03 59.0347   8
  -2  -2  -1 3209.87 59.3014   5
  -2  -2  -1 3164.61 60.4750   2
  -2   2  -1 3260.59 59.0024   5
  -2   2  -1 3208.10 59.2010   2
  -2   2  -1 3113.94 59.5139   4
  -2   2  -1 3281.64 57.0694   3
  -2   2  -1 3273.65 59.8833   7
   2   2   1 3129.99 61.3045   1
   2   2   1 3197.18 58.4816  11
  -2   2  -1 3226.64 56.4564  14
  -2   2  -1 3179.41 59.0251   8
   2   2   1 3204.71 61.5703   6
  -4  -2  -1 1185.86 22.8128   5
  -4  -2  -1 1149.42 22.3720   1
   4  -2   1 1176.67 21.5043   1
  -4  -2  -1 1201.80 23.5497   8
   4  -2   1 1187.17 24.7578  13
  -4  -2  -1 1158.70 21.8179  14
  -4  -2  -1 1187.14 23.0285   2
  -4   2  -1 1186.72 23.4459   5
  -4   2  -1 1176.59 22.4004   4
  -4   2  -1 1188.14 22.5393   2
   4   2   1 1213.46 23.1689   6
  -4   2  -1 1178.33 22.1513  14
  -4   2  -1 1171.87 23.7975   3
  -4   2  -1 1197.84 23.9515   7
   4   2   1 1192.29 23.5098  11
   4   2   1 1185.21 23.4991   1
  -4   2  -1 1213.62 23.1431   8
   6  -2   1 635.290 13.3821   1
  -6  -2  -1 644.836 14.6420   2
   6  -2   1 657.763 12.9841   6
   6  -2   1 620.923 16.2360  13
  -6  -2  -1 686.166 15.0185   5
  -6  -2  -1 633.083 15.2935   8
   6   2   1 653.791 15.8401  11
   6   2   1 662.138 15.4179   1
   6   2   1 645.876 15.0585   6
  -6   2  -1 642.344 14.8991   8
  -6   2  -1 667.163 15.4583   5
  -6   2  -1 674.159 16.2010   3
  -6   2  -1 654.849 14.0312   2
  -8  -2  -1 420.931 12.0160   5
  -8  -2  -1 418.692 11.4347   2
   8  -2   1 428.932 10.7373   6
  -8  -2  -1 433.854 13.0050   8
   8  -2   1 443.939 12.7734  11
  -8   2  -1 428.574 12.6491   5
   8   2   1 426.826 12.3752   1
   8   2   1 450.802 12.7889   6
   8   2   1 420.873 13.3371  11
  -8   2  -1 450.992 13.9572   3
  -8   2  -1 430.476 12.2124   8
  10  -2   1 153.440 8.14828  11
 -10  -2  -1 156.789 7.72931   8
  10  -2   1 147.853 6.50885   6
  10   2   1 151.452 8.15465  11
  10   2   1 146.379 7.12645   1
  10   2   1 150.628 7.62876   6
 -10   2  -1 146.980 7.72566   5
 -11  -3   1 74.8212 5.95649   8
  11  -3  -1 69.9935 4.75528   6
  11  -3  -1 77.0658 6.35614  11
  11   3  -1 67.4219 5.61993   1
  11   3  -1 69.2974 5.85288   6
  11   3  -1 67.2986 6.08387  11
 -11   3   1 71.2307 5.64679   5
  -9  -3   1 1164.90 26.5160   8
   9  -3  -1 1165.27 24.8188   6
  -9  -3   1 1157.48 24.6612   2
   9   3  -1 1176.16 27.9046  11
   9   3  -1 1168.76 27.2114   6
  -9   3   1 1166.06 26.3265   5
  -9   3   1 1178.92 28.0026   3
   9   3  -1 1171.24 27.1147   1
   7  -3  -1 195.893 5.96323   1
  -7  -3   1 192.989 6.87552   8
   7  -3  -1 173.249 8.30365  13
  -7  -3   1 183.016 6.12755   2
   7  -3  -1 180.228 5.75159   6
  -7  -3   1 182.170 5.98311   5
   7   3  -1 189.196 7.24953  11
  -7   3   1 176.576 5.85575   8
   7   3  -1 182.011 7.06068   6
   7   3  -1 196.288 7.50458   1
  -7   3   1 190.833 7.54626   3
  -7   3   1 192.259 6.83012   5
   5  -3  -1 2491.63 45.4551   1
   5  -3  -1 2423.49 44.8659   6
  -5  -3   1 2517.01 46.3924   8
  -5  -3   1 2500.75 45.1692   5
   5  -3  -1 2517.26 49.3430  13
  -5  -3   1 2433.86 46.1741   1
   5   3  -1 2527.45 46.7864  11
  -5   3   1 2530.37 46.1553   5
  -5   3   1 2534.57 47.1282   3
   5   3  -1 2486.89 47.2471   1
  -5   3   1 2523.37 45.1159   8
  -3  -3   1 973.690 18.8584   6
  -3  -3   1 982.466 17.9045   5
   3  -3  -1 991.213 18.3550   6
   3  -3  -1 987.040 21.2476  13
  -3  -3   1 1012.97 18.8864  12
   3  -3  -1 971.019 18.7698   1
  -3  -3   1 956.692 19.3954   1
   3  -3  -1 987.431 21.3415  10
   3   3  -1 979.670 19.2050  11
  -3   3   1 966.308 20.2180   7
   3   3  -1 984.021 17.7257   4
   3   3  -1 1005.34 19.3406   6
  -3   3   1 986.300 19.2930   9
   3   3  -1 986.323 19.7700   1
  -3   3   1 986.483 19.4519   3
  -3   3   1 984.428 18.8288   5
   1  -3  -1 2921.62 62.7463  13
  -1  -3   1 2959.58 57.6121   6
  -1  -3   1 3257.37 56.5226  12
   1  -3  -1 2974.59 56.8104   1
   1  -3  -1 3006.40 62.5988  10
  -1  -3   1 2971.27 56.8323   1
   1  -3  -1 3014.64 58.5332   6
  -1   3   1 2896.25 54.6767   9
   1   3  -1 2983.58 58.4461  10
  -1   3   1 3023.80 56.7094   1
   1   3  -1 2937.94 56.6849   7
   1   3  -1 2943.21 53.9805  11
   1   3  -1 3012.16 55.1817   4
   1   3  -1 2938.56 56.1335   1
  -1   3   1 2948.42 57.2817   7
  -1   3   1 3013.18 63.3574  10
  -1   3   1 2917.46 57.7037   3
  -1  -3  -1 2773.86 52.5645   8
   1  -3   1 2827.55 50.7059   6
  -1  -3  -1 2828.05 50.6094   1
   1  -3   1 2687.13 53.3759   1
  -1  -3  -1 2765.25 56.5724  13
   1  -3   1 2853.69 50.7759   6
   1   3   1 2775.31 51.7717   9
  -1   3  -1 2888.91 52.2567  14
   1   3   1 2864.02 51.9443  11
  -1   3  -1 2781.19 50.1791   4
  -1   3  -1 2781.14 53.5169   7
  -1   3  -1 2803.05 51.3045   5
   1   3   1 2822.92 60.1756  10
  -1   3  -1 2970.89 51.7056   3
   1   3   1 2842.97 53.4985   6
   1   3   1 2824.07 53.1171   1
  -3  -3  -1 2616.84 46.8482   5
  -3  -3  -1 2626.32 47.8122   2
   3  -3   1 2594.73 48.7908   1
  -3  -3  -1 2571.31 47.7956   1
  -3  -3  -1 2612.65 47.9855   8
   3   3   1 2623.38 48.5816   1
   3   3   1 2685.98 48.1465   6
  -3   3  -1 2650.56 47.2634   8
  -3   3  -1 2619.30 47.2837  14
  -3   3  -1 2698.10 48.9487   7
   3   3   1 2643.62 48.0369  11
  -3   3  -1 2623.17 47.5545   4
  -3   3  -1 2600.63 47.9184   5
  -3   3  -1 2701.78 48.3028   3
  -3   3  -1 2627.26 47.1481   2
   5  -3   1 981.423 22.6592  13
  -5  -3  -1 1000.65 20.3253   2
  -5  -3  -1 956.444 19.6146   5
  -5  -3  -1 952.880 18.6225  14
   5  -3   1 953.399 18.2892   1
  -5  -3  -1 974.518 20.8140   8
   5   3   1 949.718 20.6833   6
  -5   3  -1 956.563 19.0387  14
   5   3   1 983.212 21.1527   1
   5   3   1 985.683 21.0785  11
  -5   3  -1 982.808 20.6713   5
  -5   3  -1 991.363 19.3656   2
  -5   3  -1 1012.57 21.3240   3
  -5   3  -1 997.120 21.6297   7
  -5   3  -1 984.557 20.0469   8
  -7  -3  -1 1051.28 22.5465   5
   7  -3   1 1066.71 20.6842   6
  -7  -3  -1 1087.40 22.8974   2
  -7  -3  -1 1038.49 23.7871   8
  -7   3  -1 1054.19 22.7064   8
  -7   3  -1 1102.39 23.8922   5
   7   3   1 1041.45 23.7613   6
   7   3   1 1041.27 24.3432  11
  -7   3  -1 1080.46 24.4845   3
   7   3   1 1079.07 24.0855   1
  -9  -3  -1 190.366 7.46671   2
  -9  -3  -1 196.820 8.79123   8
   9  -3   1 201.093 8.58333  11
   9  -3   1 201.300 6.73053   6
   9   3   1 196.162 8.45767   1
   9   3   1 198.116 8.66111   6
   9   3   1 201.000 9.49735  11
  -9   3  -1 189.913 8.49782   5
  10  -4  -1 99.7155 5.22614   6
  10  -4  -1 94.7451 6.48183  11
 -10  -4   1 87.8766 5.68758   8
  10   4  -1 95.4014 7.48819  11
  10   4  -1 103.008 6.47730   1
  10   4  -1 96.2475 6.51859   6
 -10   4   1 95.0508 6.85911   3
 -10   4   1 90.8444 6.06877   5
   8  -4  -1 277.010 8.16481   6
   8  -4  -1 269.983 7.96846   1
  -8  -4   1 277.199 9.64654   8
  -8  -4   1 284.954 8.63512   2
   8  -4  -1 269.744 11.6234  13
  -8   4   1 276.855 9.30640   5
   8   4  -1 279.059 10.2699   1
  -8   4   1 286.487 10.3497   3
   8   4  -1 267.324 10.3141  11
   8   4  -1 268.674 9.91564   6
   6  -4  -1 108.747 4.06135   1
   6  -4  -1 101.012 3.73860   6
  -6  -4   1 100.449 4.43108   1
   6  -4  -1 105.159 6.41436  13
  -6  -4   1 116.013 5.04964   8
  -6  -4   1 105.314 3.79043   5
   6   4  -1 114.417 5.23036   6
   6   4  -1 92.1991 4.73308   7
  -6   4   1 109.860 4.70262   5
   6   4  -1 108.094 5.29135   1
  -6   4   1 111.014 5.35943   3
   6   4  -1 106.080 5.06560  11
   4  -4  -1 371.432 8.53295   1
  -4  -4   1 350.158 7.54098   5
  -4  -4   1 358.580 9.32385   1
  -4  -4   1 360.982 8.94701   8
   4  -4  -1 372.534 8.18427   6
   4  -4  -1 350.771 11.1290  13
  -4   4   1 352.315 10.1998   7
  -4   4   1 369.119 9.52489   3
   4   4  -1 364.491 9.35153   6
  -4   4   1 357.531 7.47453   8
   4   4  -1 379.143 9.37274  11
  -4   4   1 363.581 8.71310   5
   4   4  -1 361.067 8.90460   7
   4   4  -1 374.805 9.93833   1
  -2  -4   1 279.444 6.11780  12
  -2  -4   1 277.137 6.74760   6
   2  -4  -1 270.134 7.32023  10
   2  -4  -1 273.992 6.42270   6
  -2  -4   1 270.979 7.12848   1
   2  -4  -1 273.295 8.41766  13
  -2   4   1 270.672 6.54047   9
   2   4  -1 276.241 6.81446  11
   2   4  -1 280.173 6.90683   7
   2   4  -1 286.727 6.20666   4
  -2   4   1 282.561 7.02858   3
  -2   4   1 268.849 7.49320   7
   2   4  -1 272.117 6.68078   6
  -2   4   1 270.395 6.15467   5
   2   4  -1 284.156 7.24748   1
  -2   4   1 268.029 6.30453   1
   0  -4  -1 7.33838 0.62028   8
   0  -4  -1 4.37104 0.83788   1
   0  -4   1 4.93318 0.73102   6
   0  -4  -1 5.27764 0.86888   6
   0  -4  -1 5.18600 1.05320  13
   0  -4   1 3.72852 0.69578   1
   0   4   1 7.41177 1.00947  11
   0   4  -1 7.01674 1.01750   4
   0   4   1 5.35190 0.87279  10
   0   4  -1 4.72766 0.84004   3
   0   4   1 4.40775 0.88168   1
   0   4   1 4.45252 0.75163   9
   0   4  -1 4.24712 0.74144  11
   0   4  -1 5.21244 0.71058   1
   0   4  -1 7.55009 0.62309   5
  -2  -4  -1 214.926 6.26565   1
   2  -4   1 222.575 4.46129   6
   2  -4   1 222.448 5.19029   1
   2  -4   1 219.245 4.44330   6
  -2  -4  -1 218.737 5.79416   8
  -2  -4  -1 220.134 5.32055  13
  -2   4  -1 219.722 5.12294   8
   2   4   1 227.232 7.40290  10
  -2   4  -1 223.125 6.01454   3
   2   4   1 226.328 6.21104   6
   2   4   1 247.603 6.79519   1
   2   4   1 224.391 5.23976   7
  -2   4  -1 222.526 6.03315   4
   2   4   1 221.458 6.07239  11
  -2   4  -1 222.891 5.78540   5
  -2   4  -1 223.098 6.73773   7
   4  -4   1 3.84072 0.62742   1
   4  -4   1 5.26099 1.72754  13
  -4  -4  -1 2.50454 0.88974   8
  -4  -4  -1 4.14168 0.84923   5
  -4  -4  -1 2.61461 1.09519   2
  -4   4  -1 5.54229 1.02244   8
  -4   4  -1 1.63681 1.08409   3
  -4   4  -1 1.62342 1.21349   7
  -4   4  -1 3.18967 1.06290   4
   4   4   1 4.17105 1.42786  11
   4   4   1 1.45036 1.00630   6
  -4   4  -1 1.15975 0.76247   5
  -6  -4  -1 26.5445 2.50532   2
   6  -4   1 23.7377 1.38532   6
  -6  -4  -1 24.8597 2.81820   8
   6  -4   1 25.1267 3.58370  13
   6   4   1 20.6769 2.75373   6
  -6   4  -1 27.5004 2.24726   8
  -6   4  -1 29.9274 3.31211   3
   6   4   1 22.0821 2.91763  11
   6   4   1 32.0983 3.26073   1
  -6   4  -1 37.7623 3.26502   5
   8  -4   1 37.0412 2.50605   6
  -8  -4  -1 27.8907 3.80388   8
  -8  -4  -1 36.0177 3.45358   2
  -8   4  -1 40.0219 4.55577   3
  -8   4  -1 36.7852 4.00050   5
   8   4   1 35.3030 4.61318  11
   8   4   1 31.9771 4.00054   6
   8   4   1 38.6412 4.32294   1
 -10  -4  -1 3.78289 2.45899   8
  10  -4   1 2.87271 2.50498  11
  10  -4   1 4.64641 1.63960   6
  10   4   1 5.17410 3.20436  11
  10   4   1 2.84960 2.13513   1
  10   4   1 0.42181 2.00555   6
 -10   4  -1 0.81512 2.34823   5
   9  -5  -1 224.118 7.59935   6
  -9  -5   1 222.626 8.22931   2
  -9  -5   1 230.911 9.40076   8
   9   5  -1 224.166 9.85496   6
   9   5  -1 230.750 10.1249   1
  -9   5   1 218.352 9.72952   3
   9   5  -1 225.267 10.3950  11
  -9   5   1 203.350 8.45897   5
   7  -5  -1 712.289 15.8373   1
  -7  -5   1 728.996 17.0200   2
  -7  -5   1 724.455 17.6531   8
   7  -5  -1 710.039 21.0953  13
   7  -5  -1 728.962 15.8360   6
   7   5  -1 703.974 18.3300  11
  -7   5   1 700.670 17.1209   5
   7   5  -1 731.582 18.4613   6
  -7   5   1 746.008 18.5579   3
   7   5  -1 716.897 18.8388   1
   5  -5  -1 1039.86 25.7243  13
   5  -5  -1 1055.98 21.2005   1
  -5  -5   1 1059.87 22.5441   1
   5  -5  -1 1065.82 20.9236   6
  -5  -5   1 1050.05 22.1296   8
   5   5  -1 1036.13 23.3795   1
   5   5  -1 1120.42 21.8142   7
   5   5  -1 1027.52 22.6849   6
  -5   5   1 1042.81 21.6810   5
   5   5  -1 1035.01 22.5742  11
  -5   5   1 1089.40 22.9926   3
   3  -5  -1 2874.95 54.6258   6
  -3  -5   1 2850.06 52.5975   6
  -3  -5   1 2878.89 52.3892   8
  -3  -5   1 2951.67 53.5721   1
   3  -5  -1 2930.90 56.2540  13
   3  -5  -1 2769.50 54.0832  10
   3  -5  -1 2957.12 52.6446   1
  -3   5   1 2863.05 52.3821   9
   3   5  -1 2932.45 52.9351  11
   3   5  -1 2846.07 51.2382   4
   3   5  -1 2919.90 53.8348   1
  -3   5   1 2907.52 54.5133   7
  -3   5   1 2812.72 51.8672   5
  -3   5   1 2940.66 53.2069   3
   3   5  -1 2902.42 52.8108   7
   3   5  -1 2852.61 52.8368   6
   1  -5  -1 2052.26 37.8199   6
  -1  -5   1 2010.76 36.1329  12
  -1  -5   1 2092.77 37.8704   6
   1  -5  -1 2121.84 40.2031  13
   1  -5  -1 2055.92 38.3679   1
   1  -5  -1 1952.98 39.0118  10
  -1  -5   1 2103.54 38.4530   1
  -1   5   1 2013.71 38.7294   7
  -1   5   1 2036.76 38.1962   3
  -1   5   1 2020.54 43.7008  10
   1   5  -1 2034.13 37.5209   4
   1   5  -1 2069.73 38.0071   1
  -1   5   1 2064.91 37.8728  11
  -1   5   1 2023.97 36.4068   5
   1   5  -1 2116.78 37.9072  11
  -1   5   1 2061.32 37.8207   1
  -1   5   1 2049.60 37.2307   9
   1   5  -1 2054.66 38.5281   7
  -1  -5  -1 2766.06 51.6109   6
  -1  -5  -1 2869.38 52.5084   1
  -1  -5  -1 2840.58 52.2982  13
   1  -5   1 3008.91 54.8554   6
  -1  -5  -1 2818.62 50.8409   8
   1  -5   1 2699.34 51.2611   1
  -1   5  -1 2868.65 52.9157   7
   1   5   1 2862.65 51.5399   7
  -1   5  -1 2844.40 51.8394   4
   1   5   1 2963.27 52.6426   1
   1   5   1 2866.71 51.2411   9
  -1   5  -1 2850.86 50.7368   5
  -1   5  -1 2847.90 51.6873   3
   1   5   1 2829.58 51.6581   6
   1   5   1 2854.10 60.3567  10
   1   5   1 2799.58 51.6654  11
  -3  -5  -1 708.011 15.2245   8
  -3  -5  -1 691.668 13.6371  13
   3  -5   1 674.365 13.2923   6
  -3  -5  -1 696.165 15.7691   1
   3  -5   1 688.664 13.3192   6
   3  -5   1 685.677 13.9432   1
   3   5   1 700.964 15.7696   6
   3   5   1 709.401 15.6106  11
  -3   5  -1 693.686 13.8362   8
   3   5   1 711.614 16.4692   1
   3   5   1 716.127 17.9880  10
  -3   5  -1 717.115 15.1066   5
  -3   5  -1 715.875 16.7782   7
  -3   5  -1 711.921 15.4737   4
  -3   5  -1 743.804 15.7248   3
   5  -5   1 878.430 16.3624   6
  -5  -5  -1 868.912 19.5309   8
  -5  -5  -1 883.673 19.2307   2
   5  -5   1 855.429 16.8883   1
  -5  -5  -1 806.577 18.8201   1
   5  -5   1 881.035 22.6074  13
  -5   5  -1 886.929 19.3635   5
  -5   5  -1 887.535 21.0172   7
   5   5   1 868.054 20.6533   1
  -5   5  -1 902.677 19.9620   3
   5   5   1 873.652 20.0606  11
   5   5   1 878.198 20.1375   6
   7  -5   1 230.599 10.3622  13
  -7  -5  -1 209.602 7.81716   2
  -7  -5  -1 196.700 8.17100   8
   7  -5   1 203.780 5.67178   6
   7   5   1 198.945 8.48694   6
  -7   5  -1 209.999 8.04862   5
   7   5   1 202.388 8.53954  11
  -7   5  -1 207.847 8.55520   3
   7   5   1 202.627 8.80774   1
  -9  -5  -1 340.526 12.4359   8
  -9  -5  -1 355.370 11.4273   2
   9  -5   1 359.770 9.57190   6
  -9   5  -1 347.494 12.8688   3
   9   5   1 355.204 12.9130   6
   9   5   1 346.515 12.8510   1
   9   5   1 357.689 13.2025  11
  -9   5  -1 344.566 12.0592   5
  10  -6  -1 116.418 5.85741   6
 -10  -6   1 110.459 6.01406   2
 -10  -6   1 105.942 6.94454   8
  10   6  -1 118.571 7.50129   1
  10   6  -1 114.340 8.44310  11
 -10   6   1 119.014 7.54928   3
 -10   6   1 117.064 6.89092   5
  -8  -6   1 73.2089 4.91177   8
  -8  -6   1 67.2984 4.32554   2
   8  -6  -1 66.5495 6.62638  13
   8  -6  -1 67.4660 3.87475   6
  -8   6   1 60.9613 5.17852   3
  -8   6   1 70.5270 4.92421   5
   8   6  -1 66.6220 5.37970  11
   8   6  -1 74.5771 5.77863   1
   8   6  -1 68.0094 5.41280   6
   6  -6  -1 335.462 13.1374  13
   6  -6  -1 333.029 8.91921   1
  -6  -6   1 321.813 10.0529   1
  -6  -6   1 337.678 10.1497   8
   6  -6  -1 330.369 8.78871   6
   6   6  -1 327.514 10.5597   6
   6   6  -1 340.028 10.7683  11
  -6   6   1 340.186 9.63589   5
   6   6  -1 318.398 11.0859   1
  -6   6   1 340.845 10.6302   3
   4  -6  -1 106.192 4.27141   1
   4  -6  -1 111.898 6.63903  13
   4  -6  -1 108.059 4.11676   6
  -4  -6   1 108.096 4.38669   8
  -4  -6   1 112.323 5.00974   1
   4   6  -1 110.181 4.54362   7
  -4   6   1 107.270 4.90237   3
  -4   6   1 102.444 5.59568   7
   4   6  -1 113.640 5.00438  11
   4   6  -1 109.478 5.27926   1
   4   6  -1 100.271 4.60050   6
  -4   6   1 105.925 4.12145   5
   2  -6  -1 84.0804 3.55547   6
  -2  -6   1 82.5043 4.00497   1
  -2  -6   1 81.4066 3.24597   8
  -2  -6   1 82.6998 3.66630   6
   2  -6  -1 94.2308 5.36008  13
   2  -6  -1 79.2598 3.69225   1
   2  -6  -1 78.7062 3.63965  10
  -2   6   1 80.5151 3.14469   1
   2   6  -1 81.4663 3.82021   1
   2   6  -1 83.3731 3.89780   7
   2   6  -1 85.5732 2.93569  10
  -2   6   1 81.2588 3.17727   9
   2   6  -1 87.6374 3.30653   4
  -2   6   1 79.8821 4.30931   7
   2   6  -1 89.9117 3.74763  11
  -2   6   1 78.4734 2.86634   5
  -2   6   1 90.7479 4.00608   3
   2   6  -1 79.9315 2.80945  10
   0  -6  -1 217.109 6.83606   1
   0  -6  -1 203.300 4.87409   8
   0  -6   1 224.853 6.19906   6
   0  -6  -1 215.085 6.31913   6
   0  -6  -1 219.842 7.48999  13
   0  -6   1 223.480 6.53210   1
   0   6   1 218.239 5.72716  10
   0   6   1 211.828 6.24508  11
   0   6  -1 220.251 6.35355   3
   0   6  -1 205.483 5.76826   1
   0   6   1 212.151 5.60720   9
   0   6   1 203.976 6.36303   1
   0   6  -1 218.343 6.29240  11
   0   6   1 205.348 6.53217   7
   0   6  -1 218.987 7.05215   7
   0   6  -1 217.802 6.24546   4
   2  -6   1 8.04784 1.22684   1
   2  -6   1 6.77005 0.97980  10
  -2  -6  -1 7.44173 1.44577   1
  -2  -6  -1 5.85923 1.15676  13
  -2  -6  -1 14.1968 1.58709   8
   2  -6   1 8.95662 1.21612   6
  -2   6  -1 9.70175 1.61900   3
   2   6   1 7.02441 1.47116   1
   2   6   1 7.99045 1.35335   9
   2   6   1 6.06685 1.40556  10
  -2   6  -1 16.3125 2.05935   4
  -2   6  -1 5.45601 1.45555   7
  -2   6  -1 12.5850 1.48599   5
   2   6   1 5.59912 1.04795   7
   2   6   1 7.08485 1.42759   6
   2   6   1 6.81358 1.55749  11
  -4  -6  -1 52.7122 3.41386   1
  -4  -6  -1 65.6182 3.69024   8
   4  -6   1 52.6353 2.31249   6
   4  -6   1 56.1512 4.90410  13
  -4  -6  -1 59.0140 3.70146   2
   4  -6   1 58.0275 2.61910   1
  -4   6  -1 60.6220 3.45771   5
  -4   6  -1 61.3913 4.47422   7
   4   6   1 52.5087 3.50943   9
   4   6   1 54.8567 3.97386   1
   4   6   1 58.6084 4.83396  10
   4   6   1 57.1209 3.75519   6
  -4   6  -1 62.5339 3.81238   3
   4   6   1 50.2310 3.74898  11
   6  -6   1 28.9292 4.33978  13
  -6  -6  -1 20.6672 2.66889   2
  -6  -6  -1 18.8394 2.86743   8
   6  -6   1 22.4929 1.80569   6
   6   6   1 23.1600 3.31468   6
   6   6   1 18.1234 3.77374  10
  -6   6  -1 23.1105 3.50797   7
  -6   6  -1 25.7567 3.16398   5
   6   6   1 17.0979 3.16104  11
  -6   6  -1 25.1197 3.31284   3
   6   6   1 26.0076 3.58122   1
   8  -6   1 0.69091 0.99236   6
  -8  -6  -1 2.28845 1.86369   2
  -8  -6  -1 1.20963 2.19491   8
  -8   6  -1 1.25047 1.95115   5
  -8   6  -1 3.79123 2.40862   3
   8   6   1 2.46057 2.66331  11
   8   6   1 1.75803 1.54909   6
   8   6   1 3.18092 2.30492   1
  -9  -7   1 175.156 7.78721   2
   9  -7  -1 163.878 6.67496   6
  -9  -7   1 165.289 8.35459   8
  -9   7   1 158.483 8.46541   3
  -9   7   1 159.589 7.83043   5
   9   7  -1 160.146 8.82306   1
   9   7  -1 158.921 8.81681  11
  -7  -7   1 890.456 21.3437   8
   7  -7  -1 871.726 26.0017  13
   7  -7  -1 855.136 19.1789   1
  -7  -7   1 898.170 20.9527   2
   7  -7  -1 904.445 19.5442   6
   7   7  -1 850.139 23.0379   1
  -7   7   1 881.181 21.9225   3
  -7   7   1 907.300 20.8052   5
   7   7  -1 873.163 22.2420  11
   5  -7  -1 153.064 8.78647  13
   5  -7  -1 163.349 5.78113   6
   5  -7  -1 164.678 5.86336   1
  -5  -7   1 173.411 6.55385   8
  -5  -7   1 162.773 6.84831   1
  -5   7   1 154.635 5.83157   5
  -5   7   1 155.344 7.87054   7
   5   7  -1 151.998 6.58189  11
   5   7  -1 170.908 7.47190   1
  -5   7   1 161.371 6.74202   3
  -3  -7   1 1164.05 24.5130   6
  -3  -7   1 1196.25 25.6999   1
   3  -7  -1 1207.86 24.6418   1
   3  -7  -1 1210.26 28.6934  13
  -3  -7   1 1208.97 23.8839   8
  -3   7   1 1156.11 26.3600   7
  -3   7   1 1141.58 23.0987   5
   3   7  -1 1200.42 24.8372  11
   3   7  -1 1207.73 24.8953   7
   3   7  -1 1164.09 25.5435   1
  -3   7   1 1197.87 25.0752   3
  -1  -7   1 325.824 8.90095   6
   1  -7  -1 323.249 10.8379  13
  -1  -7   1 334.913 9.47807   1
   1  -7  -1 325.877 8.85182   6
   1  -7  -1 313.582 9.23946   1
  -1  -7   1 319.072 7.59808   8
   1   7  -1 325.957 8.54388   4
   1   7  -1 331.962 8.83467  11
  -1   7   1 326.427 9.25264   3
   1   7  -1 312.410 9.38136   7
   1   7  -1 318.531 8.70465   1
  -1   7   1 312.561 9.59913   7
  -1   7   1 309.764 7.64010   9
  -1   7   1 326.338 8.59991   1
  -1  -7  -1 1723.78 34.2601  13
  -1  -7  -1 1676.75 32.8725   6
   1  -7   1 1667.64 32.3234   6
  -1  -7  -1 1633.72 31.3113   8
   1  -7   1 1666.54 32.6889   1
  -1  -7  -1 1716.84 34.0597   1
  -1   7  -1 1675.05 32.8543   3
   1   7   1 1696.12 32.9806  11
   1   7   1 1641.21 32.8517   7
   1   7   1 1660.17 31.6275   9
   1   7   1 1699.03 33.6509   1
  -1   7  -1 1710.15 33.0754   4
  -1   7  -1 1690.24 34.3793   7
   3  -7   1 606.916 17.8746  13
  -3  -7  -1 579.810 13.6732   8
   3  -7   1 593.336 13.2571   1
  -3  -7  -1 615.404 15.2621   1
   3  -7   1 580.063 12.8691   6
  -3   7  -1 576.269 13.4755   5
   3   7   1 535.385 17.5053  10
  -3   7  -1 593.876 14.3273   3
   3   7   1 603.823 13.8390   9
   3   7   1 598.073 15.6052   1
   3   7   1 602.964 14.6943  11
  -3   7  -1 591.350 15.9527   7
   5  -7   1 1328.40 25.6878   6
  -5  -7  -1 1356.45 28.3354   2
   5  -7   1 1297.75 32.6338  13
  -5  -7  -1 1290.05 28.3510   1
  -5  -7  -1 1340.17 28.2547   8
  -5   7  -1 1310.03 28.5474   3
   5   7   1 1331.81 30.2719   1
  -5   7  -1 1345.47 27.8106   5
   5   7   1 1338.18 29.0438  11
  -5   7  -1 1326.97 30.3467   7
   5   7   1 1279.75 28.2685   9
  -7  -7  -1 309.650 10.5353   2
   7  -7   1 293.123 13.4756  13
   7  -7   1 303.065 8.18318   6
  -7  -7  -1 308.413 11.0100   8
  -7   7  -1 308.884 10.9464   3
   7   7   1 295.892 11.2924   9
   7   7   1 314.578 12.2430   1
   7   7   1 287.040 11.4106  11
  -7   7  -1 319.890 10.6125   5
  -9  -7  -1 389.411 12.7307   2
   9  -7   1 385.474 10.3335   6
  -9  -7  -1 393.186 13.5431   8
  -9   7  -1 390.310 13.1524   5
   9   7   1 386.412 14.6810   1
  -9   7  -1 389.848 13.6889   3
   9   7   1 395.229 14.7200  11
  -8  -8   1 32.8693 4.04681   2
   8  -8  -1 34.6045 3.20883   6
  -8  -8   1 39.0695 4.46960   8
   8   8  -1 25.5367 3.96229  11
   8   8  -1 35.5421 4.90814   1
  -8   8   1 41.1051 5.01712   3
  -8   8   1 34.9777 4.08967   5
  -6  -8   1 376.580 12.2078   1
   6  -8  -1 390.870 10.7704   1
   6  -8  -1 380.317 15.6670  13
   6  -8  -1 405.237 11.0124   6
  -6  -8   1 400.879 11.9082   8
  -6   8   1 378.056 12.4405   3
   6   8  -1 380.110 13.4843   1
   6   8  -1 403.842 12.9900  11
  -6   8   1 390.733 11.2061   5
   4  -8  -1 237.296 7.77335   6
   4  -8  -1 239.515 11.1944  13
  -4  -8   1 241.111 8.96363   1
   4  -8  -1 236.872 7.84684   1
  -4  -8   1 247.362 7.85525   8
   4   8  -1 256.692 9.29727   1
  -4   8   1 242.440 9.87459   7
  -4   8   1 239.781 8.54880   3
   4   8  -1 235.504 8.39258  11
  -4   8   1 234.257 7.16787   5
  -2  -8   1 433.729 10.5531   8
   2  -8  -1 442.719 12.0152   1
   2  -8  -1 439.357 14.6719  13
  -2  -8   1 426.663 11.7559   6
  -2  -8   1 451.107 12.7173   1
   2   8  -1 437.434 12.0229   1
  -2   8   1 456.989 12.2881   3
   2   8  -1 461.458 11.9607  11
  -2   8   1 456.665 13.2503   7
   2   8  -1 439.610 12.2485   7
   0  -8   1 991.201 21.4757   6
   0  -8   1 1025.98 22.2345   1
   0  -8  -1 1026.34 24.2021  13
   0  -8  -1 1010.62 21.8944   6
   0  -8  -1 1036.63 22.8621   1
   0   8  -1 1006.84 21.8540   3
   0   8   1 1018.48 21.7888  11
   0   8   1 976.414 22.3556   7
   0   8   1 988.850 21.8092   1
   0   8   1 1022.73 22.5785   3
   0   8  -1 1005.79 21.6411  11
   0   8  -1 996.434 23.0434   7
  -2  -8  -1 336.519 10.7074   1
   2  -8   1 311.371 9.13828   1
   2  -8   1 321.138 8.94751   6
  -2  -8  -1 353.655 11.2984  13
  -2   8  -1 318.165 11.0326   7
  -2   8  -1 318.560 9.63283   3
   2   8   1 335.294 9.95509  11
   2   8   1 326.654 10.4659   1
   4  -8   1 707.972 16.0468   1
  -4  -8  -1 736.614 17.8532   2
   4  -8   1 727.891 16.1055   6
   4  -8   1 726.906 21.9094  13
  -4  -8  -1 722.215 17.1553   8
  -4  -8  -1 739.058 18.5294   1
  -4   8  -1 725.443 17.8542   3
   4   8   1 707.696 18.1947  11
  -4   8  -1 727.633 16.7499   5
  -4   8  -1 745.204 19.9196   7
   4   8   1 718.276 19.4741   1
  -6  -8  -1 350.430 11.4294   8
  -6  -8  -1 356.027 11.5610   2
   6  -8   1 357.690 9.51340   6
   6  -8   1 344.260 14.6268  13
  -6   8  -1 361.896 11.0960   5
   6   8   1 354.680 13.3344   1
  -6   8  -1 351.889 11.8201   3
   6   8   1 344.195 12.4814  11
  -6   8  -1 346.283 13.4002   7
  -8  -8  -1 147.005 7.61337   8
  -8  -8  -1 131.223 7.21001   2
   8  -8   1 136.526 5.45489   6
  -8   8  -1 134.547 7.14045   5
   8   8   1 136.763 8.21241  11
   8   8   1 136.886 8.31225   1
  -8   8  -1 131.969 7.64367   3
   7  -9  -1 105.811 5.37979   6
  -7  -9   1 107.793 6.46582   2
  -7  -9   1 108.181 6.05652   8
   7   9  -1 107.656 7.17611  11
  -7   9   1 108.772 6.85410   3
  -7   9   1 104.690 5.41867   5
   7   9  -1 104.049 7.45557   1
   5  -9  -1 1178.90 32.6602  13
  -5  -9   1 1236.50 28.4168   1
   5  -9  -1 1214.70 26.1883   6
  -5  -9   1 1174.66 26.0995   8
   5  -9  -1 1202.26 26.0338   1
   5   9  -1 1191.46 28.8617   1
   5   9  -1 1177.93 27.4182  11
  -5   9   1 1229.68 30.2316   7
  -5   9   1 1248.58 27.8866   3
  -3  -9   1 327.364 11.2726   1
   3  -9  -1 332.958 10.2500   6
   3  -9  -1 333.871 13.6749  13
   3  -9  -1 329.085 10.4327   1
  -3   9   1 310.836 11.5370   7
   3   9  -1 341.368 10.6892  11
   3   9  -1 337.257 10.6505   7
   3   9  -1 334.169 11.0211   1
  -3   9   1 358.283 11.0499   3
   1  -9  -1 2182.66 46.0620  13
  -1  -9   1 2112.41 42.0952   6
  -1  -9   1 2126.90 42.8801   1
   1  -9  -1 2144.24 42.9238   1
   1   9  -1 2083.67 43.1966   7
   1   9  -1 2113.30 41.8620  11
   1   9  -1 2137.81 42.2137   3
  -1   9   1 2067.97 43.2679   7
  -1   9   1 2147.24 42.6401   3
   1  -9   1 130.802 5.95850   1
  -1  -9  -1 128.405 6.63978  13
  -1  -9  -1 139.138 6.78467   1
   1  -9   1 127.081 5.57653   6
  -1   9  -1 127.982 6.85643   7
   1   9   1 120.794 5.87296  11
   1   9   1 136.610 6.56625   3
  -1   9  -1 127.681 5.89915   3
   1   9   1 130.492 5.92951   7
   1   9   1 130.273 6.01344   1
   3  -9   1 1156.52 30.8059  13
   3  -9   1 1178.80 25.1085   6
  -3  -9  -1 1223.49 27.7040   1
  -3   9  -1 1200.27 28.6070   7
  -3   9  -1 1178.60 26.1177   3
   3   9   1 1187.16 26.6058  11
   3   9   1 1189.99 27.7916   1
  -5  -9  -1 9.78058 2.31602   8
  -5  -9  -1 4.92122 1.79353   2
   5  -9   1 6.44420 3.14355  13
  -5  -9  -1 6.71621 2.05672   1
  -5   9  -1 6.25787 2.35713   3
   5   9   1 5.90290 2.25914   1
   5   9   1 2.52099 2.47159  11
  -5   9  -1 3.89714 2.62731   7
   7  -9   1 519.920 13.0921   6
  -7  -9  -1 499.979 15.3838   2
  -7  -9  -1 510.941 15.5057   8
   7   9   1 528.043 17.9253   1
  -7   9  -1 484.316 14.2023   5
   7   9   1 495.218 16.3507  11
   8 -10  -1 4.30605 1.90288   6
  -8 -10   1 3.70183 2.00338   2
  -8 -10   1 -0.2241 2.02769   8
   8  10  -1 4.30962 3.23409  11
  -8  10   1 4.40337 2.77613   3
   8  10  -1 3.61600 2.82376   1
   6 -10  -1 41.7142 3.78123   6
   6 -10  -1 38.6331 3.52036   1
  -6 -10   1 44.5115 5.06421   1
   6  10  -1 44.4099 5.50392   1
   6  10  -1 40.9724 4.69629  11
  -6  10   1 40.0806 4.73147   3
   4 -10  -1 5.21791 1.91526   1
  -4 -10   1 1.83684 2.09209   1
   4 -10  -1 1.89817 1.94989  13
   4 -10  -1 3.57694 1.78569   6
  -4  10   1 3.13316 2.44988   7
   4  10  -1 13.4501 2.99646   1
  -4  10   1 5.32862 2.31380   3
   4  10  -1 4.68721 2.26707  11
  -2 -10   1 3.01896 1.90720   1
   2 -10  -1 2.23006 1.82771  13
   2 -10  -1 3.39285 1.70763   6
  -2 -10   1 2.56905 1.62497   6
   2  10  -1 1.54164 1.62386   7
   2  10  -1 3.80743 1.66498   3
  -2  10   1 4.73364 1.73722   3
   2  10  -1 0.23752 1.70239  11
  -2  10   1 3.26768 2.22729   7
   0 -10   1 22.2850 3.21312   1
   0 -10  -1 21.6453 3.64156  13
   0 -10  -1 20.9703 3.23303   1
   0 -10   1 25.0701 3.16006   6
   0 -10   1 20.8487 3.66619  13
   0 -10  -1 20.1038 2.76896   6
   0  10   1 18.2605 2.94182   7
   0  10  -1 23.6882 3.21947   3
   0  10   1 28.9430 3.72046   3
   0  10  -1 22.7969 3.59587   7
   2 -10   1 59.9508 4.25040   1
  -2 -10  -1 61.7928 4.90851   1
   2 -10   1 53.7699 5.60782  13
   2 -10   1 56.9557 4.14619   6
   2  10   1 51.6634 4.58118   1
  -2  10  -1 54.1373 5.36430   7
  -2  10  -1 57.2925 4.15769   3
   2  10   1 62.1177 4.86083  11
  -4 -10  -1 1.27550 2.04569   1
   4 -10   1 4.42857 1.57693   1
   4 -10   1 6.03834 3.08766  13
  -4 -10  -1 6.41662 2.49006   2
   4  10   1 7.44588 2.37396   1
  -4  10  -1 2.88941 2.16658   3
  -4  10  -1 4.10475 2.64655   7
   4  10   1 6.26891 2.19591  11
   6 -10   1 4.16738 1.83095   6
  -6 -10  -1 1.30453 2.29560   2
   6  10   1 -0.3970 2.51003  11
   6  10   1 2.11058 2.59741   1
  -6  10  -1 0.37893 1.58629   3
  -7 -11   1 232.263 9.89629   2
   7 -11  -1 241.657 9.30578   6
  -7  11   1 229.920 10.4807   3
   7  11  -1 223.908 10.8909  11
   5 -11  -1 205.979 8.40712   1
   5 -11  -1 217.756 8.92370   6
  -5 -11   1 194.210 9.60319   1
  -5  11   1 207.149 9.58174   3
   5  11  -1 209.554 9.38183  11
   5  11  -1 206.253 10.0091   1
   3 -11  -1 121.513 6.64457   6
   3 -11  -1 119.571 8.81294  13
   3 -11  -1 118.913 6.63858   1
  -3 -11   1 126.626 7.58730   1
  -3  11   1 120.341 6.91785   3
   3  11  -1 118.872 6.99574   3
   3  11  -1 120.779 6.54418  11
  -3  11   1 121.001 7.60043   7
  -1 -11   1 349.173 11.6002   6
  -1 -11   1 351.629 12.4621   1
   1 -11  -1 344.996 14.0947  13
  -1 -11   1 330.601 13.5657  13
   1 -11  -1 340.273 11.6755   6
  -1  11   1 340.191 12.5797   7
   1  11  -1 348.436 11.7922   3
   1  11  -1 341.133 12.5453   7
  -1  11   1 359.808 12.2330   3
  -1 -11  -1 194.651 9.01707   1
   1 -11   1 185.842 10.7504  13
   1 -11   1 183.962 8.03373   6
   1 -11   1 195.233 8.37510   1
  -1  11  -1 191.728 9.60674   7
   1  11   1 181.930 8.03966  11
  -1  11  -1 180.957 8.13275   3
   1  11   1 183.601 8.70621   3
   3 -11   1 681.018 17.4742   1
  -3 -11  -1 679.235 19.7430   1
  -3 -11  -1 681.534 18.1431   2
   3 -11   1 660.460 22.8810  13
   3  11   1 684.322 19.6356   1
  -3  11  -1 679.046 18.2308   3
   3  11   1 648.681 18.5184  11
  -3  11  -1 665.086 20.6373   7
   5 -11   1 252.378 9.18145   6
  -5 -11  -1 252.932 10.3899   2
  -5 -11  -1 251.667 10.8184   1
  -5  11  -1 249.582 12.1722   7
   5  11   1 253.605 10.7671  11
   5  11   1 240.048 11.5536   1
  -4 -12   1 173.224 9.52721   1
   4 -12  -1 171.478 8.17225   1
   4 -12  -1 178.052 8.48460   6
  -4  12   1 162.402 8.63999   3
   4  12  -1 173.380 8.44937  11
   4  12  -1 170.593 8.97105   3
   2 -12  -1 164.091 8.21129   1
  -2 -12   1 170.763 8.97978   1
   2 -12  -1 155.522 7.79529   6
   2  12  -1 160.178 8.10921  11
   2  12  -1 160.853 8.28534   3
  -2  12   1 153.658 8.22740   3
  -2  12   1 152.905 9.04099   7
   0 -12   1 45.1691 5.41354  13
   0 -12   1 44.2006 4.54076   6
   0 -12   1 47.1885 4.80987   1
   0  12  -1 49.3990 4.85178   3
   0  12  -1 42.8851 5.31426   7
   0  12   1 49.9345 5.19738   3
  -2 -12  -1 246.097 11.1734   1
  -2  12  -1 265.112 10.4253   3
  -2  12  -1 248.829 11.8381   7
   2  12   1 258.351 10.5546  11
   2  12   1 243.956 10.5747   3
   4 -12   1 38.4237 4.12066   6
  -4 -12  -1 46.3471 5.55607   1
  -4 -12  -1 40.7391 4.81086   2
   4  12   1 49.8532 8.27202   1
   4  12   1 35.4034 4.64216  11
  -4  12  -1 38.7860 4.55923   3
  -4  12  -1 39.5183 5.45795   7
  -3 -13   1 734.651 22.0071   1
   3 -13  -1 739.249 20.6582   6
   3 -13  -1 748.043 20.6276   1
   3  13  -1 699.541 20.2806  11
   3  13  -1 716.266 20.5411   3
   1 -13  -1 158.545 8.87271   1
  -1 -13   1 161.322 8.91304   1
   1  13  -1 156.539 8.05162   3
  -1  13   1 144.437 8.37231   3
   1 -13   1 502.378 15.9579   6
  -1  13  -1 491.521 15.3971   3
   1  13   1 496.091 16.5978   3
  -1  13  -1 499.497 17.7595   7
   3 -13   1 53.9043 4.68721   1
   3 -13   1 63.7654 5.36712   6
  -3 -13  -1 56.0288 5.44526   2
  -3  13  -1 53.1478 5.27773   3
  -3  13  -1 40.1889 5.82070   7
   3  13   1 50.2941 5.61001  11
   3  13   1 60.5101 6.46162   3
  12   0  -2 15.2107 2.89313   1
  12   0  -2 20.4165 3.80508  11
  12   0  -2 16.5302 3.19719   6
 -12   0   2 16.3780 3.30664   5
 -12   0   2 18.9343 2.94771   8
  10   0  -2 807.383 19.8355   1
 -10   0   2 814.404 19.5752   5
  10   0  -2 794.587 20.7680  11
 -10   0   2 795.674 19.4565   8
  10   0  -2 782.510 19.9447   6
   8   0  -2 413.448 11.4942   1
  -8   0   2 403.381 11.0066   8
  -8   0   2 430.496 11.2991   5
   8   0  -2 422.868 12.0442  11
   8   0  -2 409.930 11.4697   6
   6   0  -2 4161.92 75.0484  11
  -6   0   2 4097.73 72.9318   2
  -6   0   2 4249.61 74.4884   5
   6   0  -2 4094.23 76.8274  13
   6   0  -2 4182.11 75.1202   1
  -6   0   2 4141.01 74.4112   8
  -6   0   2 4115.78 75.8807   3
  -6   0   2 4144.97 74.4617  12
   6   0  -2 4150.11 74.7589   6
  -4   0   2 2662.83 49.5383   3
  -4   0   2 2754.14 49.0127   1
   4   0  -2 2731.62 53.4353   6
   4   0  -2 2764.87 55.0989  13
  -4   0   2 2789.88 48.9858  12
   4   0  -2 2720.59 49.5251   1
   2   0  -2 9562.59 177.161  13
  -2   0   2 9653.71 167.057  12
   2   0  -2 8884.25 168.209   6
  -2   0   2 9808.10 182.034  10
   2   0  -2 9999.99 180.719  10
  -2   0   2 8972.01 168.636   1
   2   0  -2 8288.72 169.685   1
  -2   0   2 9613.15 169.687   9
   0   0  -2 65.7099 2.39133  13
   0   0   2 61.5115 2.81107  10
   0   0  -2 64.6564 2.06386   2
   0   0   2 64.1305 1.86612   1
   0   0  -2 64.5926 2.75349  10
   0   0   2 65.2521 1.68002   6
   0   0  -2 66.8783 2.05596   8
   0   0  -2 61.1247 1.81360   4
   0   0  -2 64.2737 1.94276  14
  -2   0  -2 4648.95 86.7647   4
  -2   0  -2 4893.92 85.5695   8
  -2   0  -2 4603.13 86.9635   2
  -2   0  -2 4730.33 89.1909   5
  -2   0  -2 4782.23 88.5416   7
   2   0   2 4803.56 88.8590   1
  -2   0  -2 4699.72 87.6249  14
   4   0   2 61.0066 2.90199  11
  -4   0  -2 66.1077 2.94281   2
  -4   0  -2 67.1298 2.53678  14
   4   0   2 65.0343 2.79556  13
  -4   0  -2 62.9401 2.11779   4
  -4   0  -2 64.0256 3.29219   8
   4   0   2 72.5521 2.32650   6
   4   0   2 66.3411 2.57186   1
  -4   0  -2 67.9711 3.22310   5
   6   0   2 2226.82 41.7733   1
  -6   0  -2 2231.37 42.3204   2
   6   0   2 2220.80 41.5233   6
   6   0   2 2219.54 43.2235  11
  -6   0  -2 2278.90 43.6194   8
  -6   0  -2 2260.16 43.3123   5
   8   0   2 6.80117 1.42076   1
  -8   0  -2 4.72283 2.12878   5
  -8   0  -2 8.50852 2.41121   8
   8   0   2 4.61736 1.60496   6
   8   0   2 7.35609 2.47321  11
 -10   0  -2 1061.05 25.9371   8
  10   0   2 1111.96 25.0763   6
  10   0   2 1089.85 26.7333  11
 -10   0  -2 1108.44 26.2242   5
 -11  -1   2 100.063 5.96713   5
  11  -1  -2 101.072 7.08578  11
  11  -1  -2 104.864 6.16195   6
 -11  -1   2 110.366 6.54551   8
  11   1  -2 107.086 6.65777   6
  11   1  -2 101.599 6.23296   1
  11   1  -2 106.864 7.57516  11
 -11   1   2 104.490 6.32805   5
 -11   1   2 104.757 5.95067   8
   9  -1  -2 0.72240 1.18666   1
  -9  -1   2 1.78469 1.58959   5
   9  -1  -2 1.62640 1.94799  11
  -9  -1   2 0.36397 1.45492   8
   9  -1  -2 1.68220 1.42331   6
  -9   1   2 4.05106 1.64980   8
  -9   1   2 0.81972 1.20524   5
   9   1  -2 1.07753 1.50514   6
  -9   1   2 4.78974 2.35945   3
   9   1  -2 2.16201 1.58018   1
   9   1  -2 0.44825 1.58338  11
  -7  -1   2 196.213 6.23740   5
  -7  -1   2 196.408 5.51506   2
  -7  -1   2 197.254 6.55916   8
   7  -1  -2 197.659 6.60671   1
   7  -1  -2 204.113 6.52880   6
   7  -1  -2 185.483 7.97158  13
  -7   1   2 198.617 6.55821   5
  -7   1   2 194.404 7.32807   3
   7   1  -2 206.958 7.03299   1
   7   1  -2 213.596 7.34009  11
   7   1  -2 203.193 6.91718   6
  -7   1   2 203.471 6.25526   8
   5  -1  -2 119.108 5.35425  13
  -5  -1   2 125.085 4.10007   1
  -5  -1   2 129.535 4.26121   8
   5  -1  -2 123.674 4.25688   1
  -5  -1   2 127.273 3.97757   5
  -5  -1   2 122.560 4.16749  12
   5  -1  -2 124.686 4.07827   6
  -5   1   2 132.549 4.23856   5
  -5   1   2 124.389 2.95810   2
   5   1  -2 121.610 4.38538  11
   5   1  -2 120.815 4.29286   6
   5   1  -2 120.625 3.05281   4
   5   1  -2 126.706 4.62443   1
  -5   1   2 125.024 4.60256   3
  -5   1   2 124.000 3.99786  12
  -5   1   2 119.307 3.85286   8
  -5   1   2 123.066 3.70587   1
   5   1  -2 124.130 5.00372  13
  -3  -1   2 215.958 5.39418   1
   3  -1  -2 213.993 5.20383   6
   3  -1  -2 217.293 7.12932  10
   3  -1  -2 220.941 5.51789   1
   3  -1  -2 217.888 6.43968  13
  -3  -1   2 216.132 5.15588  12
   3   1  -2 221.432 7.04944  10
   3   1  -2 215.664 5.10977  11
   3   1  -2 225.761 6.26997  13
  -3   1   2 214.545 5.44365   3
  -3   1   2 218.750 5.62470   9
   3   1  -2 214.119 5.36965   6
  -3   1   2 220.185 5.01695  12
  -3   1   2 229.612 5.24380   1
   3   1  -2 217.711 4.70105   4
   3   1  -2 220.037 5.67757   1
  -1  -1   2 2099.48 38.3559  12
  -1  -1   2 2032.34 40.3706   6
  -1  -1   2 2039.34 39.8645   1
   1  -1  -2 2157.84 47.3413  10
   1  -1  -2 2084.14 45.0132  13
  -1  -1   2 2156.66 41.9617  10
   1  -1  -2 2044.91 39.6317   1
  -1   1   2 2092.55 38.7672  12
  -1   1   2 2010.63 39.3581   9
   1   1  -2 2114.32 45.1620  10
   1   1  -2 2009.94 37.9195   2
   1   1  -2 2063.08 37.8130   4
   1   1  -2 2049.86 38.6478  14
  -1   1   2 2113.57 39.7346   1
  -1   1   2 2135.08 45.0843  10
  -1  -1  -2 212.796 4.85347   5
  -1  -1  -2 205.492 4.73449  14
  -1  -1  -2 210.230 4.39392   4
   1  -1   2 208.459 6.42698  10
  -1  -1  -2 204.249 5.02437   2
  -1  -1  -2 202.887 5.12628   8
   1   1   2 210.593 4.55732  11
   1   1   2 209.748 4.63533   6
  -1   1  -2 214.619 4.95284  14
  -1   1  -2 200.378 4.73747   3
   1   1   2 219.198 6.86348  10
  -1   1  -2 211.758 4.75045   4
  -1   1  -2 208.047 5.02094   5
  -1   1  -2 213.612 5.11940   8
  -1   1  -2 215.426 5.09203   2
  -1   1  -2 205.033 4.89284   7
   1   1   2 209.502 4.94516   1
  -3  -1  -2 183.309 3.99038   4
  -3  -1  -2 193.166 5.29799   2
  -3  -1  -2 181.244 4.62536  14
  -3  -1  -2 179.729 5.24106   5
   3  -1   2 188.516 4.13476   1
  -3  -1  -2 203.254 5.80847   8
  -3   1  -2 191.352 4.64897   4
   3   1   2 184.019 4.16970  13
   3   1   2 189.921 5.13294   1
   3   1   2 188.681 5.20091  11
  -3   1  -2 188.407 5.55547   8
   3   1   2 182.961 4.04530  13
  -3   1  -2 174.630 5.42961   3
  -3   1  -2 193.249 4.89624  14
  -3   1  -2 200.754 5.40119   7
  -3   1  -2 189.121 5.58244   5
  -3   1  -2 183.213 5.20123   2
   3   1   2 188.381 4.76203   6
   5  -1   2 317.717 6.76563   6
  -5  -1  -2 323.947 8.47918   2
  -5  -1  -2 318.925 9.13572   8
  -5  -1  -2 328.862 8.87818   5
   5  -1   2 319.965 7.40810   1
  -5  -1  -2 322.928 7.45543  14
   5  -1   2 304.711 8.81882  13
   5   1   2 320.597 8.38381   1
   5   1   2 322.393 8.22383   6
  -5   1  -2 323.349 7.58121  14
  -5   1  -2 322.364 8.39672   2
   5   1   2 323.363 8.87859  11
  -5   1  -2 325.642 9.02066   8
  -5   1  -2 329.035 9.52861   3
  -5   1  -2 325.891 9.14433   5
   7  -1   2 3.89378 1.53966  11
   7  -1   2 4.87875 1.22861   6
  -7  -1  -2 1.84159 1.54775   5
  -7  -1  -2 7.09202 1.68549   2
  -7   1  -2 4.71276 1.35648   2
  -7   1  -2 3.23804 1.66757   8
   7   1   2 11.3029 2.03494   6
   7   1   2 5.46892 2.13194  11
  -7   1  -2 5.28858 1.88839   5
   9  -1   2 150.960 7.69933  11
  -9  -1  -2 166.358 8.05836   8
   9  -1   2 155.045 6.31061   6
  -9   1  -2 154.038 7.06189   8
   9   1   2 154.719 8.07716  11
   9   1   2 149.339 6.87258   6
  -9   1  -2 153.572 7.30436   5
  10  -2  -2 106.982 5.50151   1
  10  -2  -2 99.1280 6.27855  11
 -10  -2   2 103.507 6.06837   8
  10  -2  -2 101.092 5.53102   6
 -10  -2   2 100.799 5.46315   5
 -10   2   2 103.370 5.96737   5
  10   2  -2 97.9418 6.09608   6
 -10   2   2 100.045 6.87638   3
  10   2  -2 103.937 6.21654   1
  10   2  -2 109.425 7.09689  11
  -8  -2   2 1141.25 24.5307   8
   8  -2  -2 1100.28 27.4423  13
   8  -2  -2 1151.20 23.9292   6
   8  -2  -2 1118.75 23.8922   1
  -8  -2   2 1142.82 23.6860   5
  -8  -2   2 1123.03 22.8688   2
   8   2  -2 1132.79 25.4613  11
  -8   2   2 1158.96 24.4549   5
   8   2  -2 1111.98 24.9268   6
   8   2  -2 1150.28 25.3530   1
  -8   2   2 1136.43 25.8299   3
  -8   2   2 1122.25 23.4443   8
   6  -2  -2 35.1406 3.51203  13
  -6  -2   2 33.6645 2.15554   5
   6  -2  -2 35.7332 2.30679   1
   6  -2  -2 36.2564 2.32865   6
  -6  -2   2 33.3332 2.37932   8
  -6  -2   2 46.8212 2.57484   1
  -6  -2   2 34.0124 2.47964  12
  -6   2   2 38.4052 3.00142   3
   6   2  -2 34.1593 2.67818   6
   6   2  -2 35.2449 2.86430  11
  -6   2   2 30.9907 1.98936   8
   6   2  -2 32.3794 2.72476   1
   6   2  -2 31.4846 2.63377  13
  -6   2   2 34.8312 2.52054   5
   4  -2  -2 2757.80 52.2316   6
   4  -2  -2 2672.47 50.0262   1
  -4  -2   2 2743.52 50.2673   1
  -4  -2   2 2793.02 49.8010  12
   4  -2  -2 2872.67 52.6890  13
  -4   2   2 2733.29 51.3074   8
  -4   2   2 2781.02 49.3148  12
   4   2  -2 2815.20 51.2448  13
   4   2  -2 2804.27 50.8457   1
   4   2  -2 2735.43 49.2147   4
  -4   2   2 2737.05 49.2961   1
  -4   2   2 2801.58 50.6431   9
   4   2  -2 2760.60 50.0443  11
  -4   2   2 2779.01 50.5725   3
   4   2  -2 2776.98 50.3481   6
  -2  -2   2 402.396 8.80228   1
  -2  -2   2 404.663 8.53327   6
   2  -2  -2 416.838 10.1600  10
  -2  -2   2 401.007 8.24243  12
   2  -2  -2 396.761 8.81012   1
   2  -2  -2 406.460 9.83055  13
   2   2  -2 414.779 8.37654  11
   2   2  -2 413.345 8.22683   4
  -2   2   2 413.490 8.68390   1
  -2   2   2 409.882 8.00084  12
  -2   2   2 407.848 8.82504   9
   2   2  -2 422.082 8.94289   1
   2   2  -2 424.053 8.20631  14
   2   2  -2 419.776 9.70068  10
  -2   2   2 429.165 10.2076  10
  -2   2   2 419.000 8.66778   3
   0  -2  -2 7731.00 145.514  13
   0  -2  -2 7220.74 143.540   1
   0  -2   2 8185.26 140.640  12
   0  -2  -2 7374.35 141.709   2
   0  -2   2 7399.28 139.609   1
   0  -2  -2 7920.93 153.042  10
   0  -2  -2 7809.05 141.483   8
   0   2  -2 7627.63 142.053   2
   0   2  -2 7135.95 141.560   4
   0   2   2 8001.16 145.215   9
   0   2  -2 7664.36 144.537   7
   0   2   2 7693.03 144.286   1
   0   2   2 7971.76 140.507  11
   0   2   2 7986.82 143.717   6
   0   2  -2 7724.97 142.882  14
   0   2  -2 8160.92 148.811  10
   0   2  -2 8266.21 142.065   5
   0   2   2 8157.57 156.068  10
  -2  -2  -2 3308.78 60.8877  14
  -2  -2  -2 3211.98 58.4722   4
  -2  -2  -2 3202.21 60.8427   2
  -2  -2  -2 3220.51 57.6331   5
  -2  -2  -2 3294.72 61.5044   8
  -2   2  -2 3274.50 60.3191   2
  -2   2  -2 3314.22 60.9616   7
  -2   2  -2 3227.04 58.1070   8
   2   2   2 3362.00 69.0673  10
  -2   2  -2 3253.45 58.3413   5
  -2   2  -2 3271.76 60.6526   3
  -2   2  -2 3175.38 57.7115   4
   2   2   2 3298.22 57.9013  11
  -2   2  -2 3277.30 59.9773  14
   2   2   2 3255.34 63.3982   6
   2   2   2 3154.36 63.3957   1
   4  -2   2 2952.46 55.8130   1
  -4  -2  -2 3012.70 54.7088  14
   4  -2   2 3044.33 57.4442  13
  -4  -2  -2 3055.22 55.9470   2
  -4  -2  -2 3113.91 56.6953   8
   4   2   2 3053.83 56.2095   1
  -4   2  -2 3143.95 56.5677   5
  -4   2  -2 3159.99 56.7540   3
  -4   2  -2 3123.48 55.7489   2
  -4   2  -2 3069.69 55.1284  14
  -4   2  -2 3022.98 54.9754   4
   4   2   2 3059.54 56.2362  11
  -4   2  -2 3100.62 56.5636   7
   4   2   2 3060.10 55.8503   6
  -4   2  -2 3100.47 56.2307   8
   6  -2   2 916.192 16.9443   6
  -6  -2  -2 894.650 19.3983   2
  -6  -2  -2 879.887 20.3005   8
  -6  -2  -2 864.378 19.4169   5
  -6   2  -2 901.407 19.8603   8
  -6   2  -2 884.315 20.1509   5
   6   2   2 895.600 20.3799  11
  -6   2  -2 876.039 18.7509   2
   6   2   2 876.066 19.6191   1
  -6   2  -2 938.065 21.0425   3
   6   2   2 872.889 19.5673   6
  -8  -2  -2 427.231 13.1956   8
   8  -2   2 405.516 12.4887  11
  -8  -2  -2 417.910 12.2499   5
   8  -2   2 414.343 10.4667   6
  -8  -2  -2 420.772 11.8355   2
   8   2   2 416.569 13.3286  11
  -8   2  -2 429.449 12.9962   5
   8   2   2 414.973 12.5032   6
   8   2   2 446.120 12.4936   1
  -8   2  -2 421.313 12.3505   8
  10  -2   2 121.056 5.58462   6
 -10  -2  -2 122.232 7.10242   8
 -10   2  -2 132.183 7.42710   5
  10   2   2 122.488 6.90292   6
  11  -3  -2 56.1964 4.52851   6
  11  -3  -2 66.6098 5.33969  11
 -11  -3   2 53.8169 5.05144   8
  11   3  -2 58.0724 4.95903   6
  11   3  -2 57.6256 6.28382  11
  11   3  -2 59.1242 4.98812   1
 -11   3   2 60.9940 5.28750   5
  -9  -3   2 28.6419 3.57106   8
   9  -3  -2 11.4021 2.04986   1
  -9  -3   2 14.0272 2.32150   5
   9  -3  -2 11.9586 2.08635   6
  -9   3   2 9.93403 2.45540   5
   9   3  -2 13.4642 2.78984  11
  -9   3   2 14.7637 3.01780   3
   9   3  -2 14.7052 2.86053   1
   9   3  -2 10.1839 2.53979   6
  -7  -3   2 106.879 4.84245   8
  -7  -3   2 105.348 4.29657   2
  -7  -3   2 101.342 4.13408   5
   7  -3  -2 106.197 6.58280  13
   7  -3  -2 107.416 4.44060   6
   7  -3  -2 108.085 4.53091   1
   7   3  -2 104.731 5.08993   6
  -7   3   2 111.197 4.92308   5
  -7   3   2 115.836 5.63502   3
   7   3  -2 105.674 5.44426   1
  -7   3   2 105.767 4.02784   8
   7   3  -2 107.608 5.20374  11
  -5  -3   2 103.638 4.01971  12
   5  -3  -2 109.967 4.03542   1
  -5  -3   2 102.315 4.14456   1
  -5  -3   2 102.852 4.12628   8
  -5  -3   2 99.9736 3.34637   5
   5  -3  -2 105.055 3.75416   6
   5  -3  -2 125.550 6.10248  13
  -5   3   2 98.1465 3.12801   8
  -5   3   2 107.203 4.46356   3
   5   3  -2 102.929 4.28218   6
   5   3  -2 98.0658 4.52651   1
   5   3  -2 99.9448 4.12668  11
  -5   3   2 103.105 3.45615  12
  -5   3   2 104.694 4.01549   5
   3  -3  -2 29.1412 1.64269   6
   3  -3  -2 32.7527 1.83944   1
  -3  -3   2 28.5127 1.52019  12
  -3  -3   2 33.7900 1.75829   6
   3  -3  -2 28.8570 2.40955  10
   3  -3  -2 31.2299 2.62550  13
   3   3  -2 29.0927 1.35736   4
   3   3  -2 27.0782 1.68292   6
  -3   3   2 27.3380 1.84465   3
  -3   3   2 29.1278 1.60721   1
  -3   3   2 32.3085 1.33072  12
   3   3  -2 28.6084 1.79945  11
   3   3  -2 29.6858 1.99784   1
   3   3  -2 28.8270 1.86140   7
  -3   3   2 29.1973 1.80512   9
   3   3  -2 30.2017 2.35687  10
   1  -3  -2 1326.33 26.0479  10
  -1  -3   2 1300.64 24.8321   1
   1  -3  -2 1336.74 24.8470   6
   1  -3  -2 1343.65 25.9650  13
  -1  -3   2 1346.32 24.4857   6
   1  -3  -2 1344.77 24.2437   2
   1  -3  -2 1306.70 25.2354   1
  -1  -3   2 1299.39 27.9511  10
  -1  -3   2 1350.15 24.0530  12
  -1   3   2 1330.44 24.9735   7
  -1   3   2 1343.97 24.5191  11
   1   3  -2 1363.60 24.7298   4
  -1   3   2 1362.52 24.9859   9
   1   3  -2 1338.08 25.2640   7
   1   3  -2 1383.64 24.7919  14
  -1   3   2 1348.60 24.9511   3
  -1   3   2 1312.56 25.0670   1
   1   3  -2 1361.44 24.4673  11
   1   3  -2 1338.80 28.5659  10
  -1   3   2 1332.81 23.8087  12
   1   3  -2 1298.19 24.5941   1
  -1   3   2 1379.87 26.2854  10
   1  -3   2 239.278 5.15554   1
  -1  -3  -2 246.081 6.30583   1
  -1  -3  -2 248.302 6.05981   8
  -1  -3  -2 248.303 5.69429  13
   1  -3   2 246.057 6.86587  10
  -1  -3  -2 245.876 6.06175   2
   1   3   2 249.504 6.56682   1
  -1   3  -2 251.820 5.81618   8
   1   3   2 247.254 6.36275   9
  -1   3  -2 246.128 6.06268  14
  -1   3  -2 252.075 6.08677   2
  -1   3  -2 244.096 5.94284   5
   1   3   2 246.232 6.14819   6
  -1   3  -2 247.282 6.55159   7
   1   3   2 245.182 5.87448  11
   1   3   2 243.670 7.72943  10
  -1   3  -2 244.977 5.81737   3
  -1   3  -2 242.626 6.05778   4
  -3  -3  -2 1.10852 0.59174  14
  -3  -3  -2 1.06743 0.57681   5
  -3  -3  -2 1.45291 0.70270   2
  -3  -3  -2 0.58644 0.60274   8
  -3   3  -2 1.00637 0.66578  14
  -3   3  -2 3.37377 1.08047   7
   3   3   2 2.36264 1.48364  10
   3   3   2 0.40536 0.88916  11
  -3   3  -2 1.77617 0.89706   3
  -3   3  -2 0.06549 0.76439   5
  -3   3  -2 3.08031 0.87080   2
   3   3   2 0.80324 0.78661   1
   3   3   2 1.82528 0.85306   6
  -3   3  -2 1.81915 0.65870   8
   5  -3   2 0.70812 1.12306  13
  -5  -3  -2 2.40417 1.05052   5
  -5  -3  -2 0.87161 1.11214   2
  -5  -3  -2 0.49926 0.88325   8
  -5  -3  -2 1.45678 0.70952  14
  -5   3  -2 5.31084 1.61411   7
   5   3   2 1.25923 1.08782   6
  -5   3  -2 1.30480 0.83836   4
  -5   3  -2 0.56868 0.68062  14
  -5   3  -2 0.62401 0.95038   8
  -5   3  -2 1.85762 1.27753   5
   5   3   2 1.17274 1.42134  11
  -5   3  -2 1.99344 1.32915   3
   5   3   2 0.95580 1.09874   1
  -5   3  -2 1.65236 0.89111   2
  -7  -3  -2 104.898 5.87417   8
   7  -3   2 112.600 3.63798   6
  -7  -3  -2 106.228 5.17964   5
  -7  -3  -2 110.871 5.16715   2
  -7   3  -2 107.619 5.27372   8
  -7   3  -2 110.947 5.97244   3
   7   3   2 103.211 5.57674   6
  -7   3  -2 102.859 5.42596   5
   7   3   2 103.740 5.57562   1
   7   3   2 113.171 6.35523  11
   9  -3   2 0.96963 1.14175   6
  -9  -3  -2 4.03293 1.80603   2
   9  -3   2 2.95164 1.76268  11
  -9  -3  -2 1.75322 2.36176   8
   9   3   2 2.24898 1.98612   6
  -9   3  -2 6.01013 2.54282   5
   9   3   2 1.83128 1.70648   1
   9   3   2 6.06280 3.13056  11
 -10  -4   2 19.2503 3.07305   8
  10  -4  -2 16.9808 2.34754   1
  10  -4  -2 30.5886 3.25526   6
  10   4  -2 17.5869 3.93650  11
 -10   4   2 21.9107 3.54948   5
 -10   4   2 19.7146 3.70016   3
  10   4  -2 26.6302 3.77034   1
  10   4  -2 25.9356 4.04758   6
  -8  -4   2 2195.39 41.7358   2
   8  -4  -2 2083.31 47.2342  13
   8  -4  -2 2162.97 41.6012   1
   8  -4  -2 2187.50 41.7156   6
  -8  -4   2 2167.16 43.0582   8
   8   4  -2 2147.94 44.3560   1
  -8   4   2 2178.56 42.6760   5
   8   4  -2 2102.62 43.8896   6
  -8   4   2 2181.83 44.1934   3
   8   4  -2 2161.24 44.1947  11
   6  -4  -2 322.756 8.64722   1
  -6  -4   2 309.495 7.67012   5
  -6  -4   2 316.661 9.11861   1
   6  -4  -2 306.804 8.30579   6
   6  -4  -2 324.979 11.8106  13
  -6  -4   2 313.017 9.03276   8
  -6   4   2 328.719 9.76898   3
   6   4  -2 320.456 9.59278   6
  -6   4   2 313.902 8.76982   5
   6   4  -2 338.220 9.61111  11
   6   4  -2 334.565 10.1002   1
   4  -4  -2 6527.62 118.853   1
  -4  -4   2 6384.21 118.693  12
  -4  -4   2 6232.83 117.706   6
  -4  -4   2 6419.53 118.315   5
  -4  -4   2 6505.08 122.430   1
   4  -4  -2 6853.22 132.905  13
   4  -4  -2 6675.89 121.205   6
  -4   4   2 6446.59 119.717   1
   4   4  -2 6423.91 117.548   6
   4   4  -2 6689.18 121.053  11
  -4   4   2 6619.88 126.886   9
  -4   4   2 6504.35 125.414   3
   4   4  -2 6558.46 117.925   7
  -4   4   2 6602.25 119.099  12
   4   4  -2 6343.21 118.238   4
   4   4  -2 6534.11 119.642   1
  -4   4   2 6424.61 119.434   5
   2  -4  -2 494.701 11.1894   1
   2  -4  -2 475.817 11.8305  10
  -2  -4   2 489.882 11.1858   1
  -2  -4   2 491.405 10.7288   6
  -2  -4   2 481.577 9.88499  12
   2  -4  -2 491.063 12.5735  13
   2  -4  -2 486.350 10.7120   6
   2   4  -2 485.066 10.3324   4
   2   4  -2 506.565 10.7143  11
   2   4  -2 489.311 10.7896  10
  -2   4   2 543.311 12.0911  10
  -2   4   2 496.238 11.5290   7
  -2   4   2 490.199 10.7737   9
  -2   4   2 530.123 9.53147  12
   2   4  -2 491.326 11.1942   7
   2   4  -2 506.852 11.0947   1
  -2   4   2 486.275 10.9678   3
  -2   4   2 499.944 10.7443   1
   0  -4   2 5002.38 89.2110  12
   0  -4  -2 4818.62 99.4690  10
   0  -4  -2 4934.74 97.3108   1
   0  -4   2 4899.89 92.6033   6
   0  -4  -2 4800.64 91.2975   8
   0  -4   2 5099.23 92.9493  10
   0  -4  -2 4779.62 97.3543  13
   0  -4  -2 4747.98 91.4422   6
   0  -4   2 4616.46 87.6181   1
   0   4  -2 4851.33 91.2419   3
   0   4   2 5138.97 105.469  10
   0   4  -2 4754.96 89.3480   4
   0   4  -2 4838.33 92.9104   7
   0   4   2 4765.31 91.7648   7
   0   4   2 5089.31 91.7589  11
   0   4   2 4903.09 91.4888   6
   0   4   2 4947.06 93.2515   1
   0   4  -2 5052.54 89.8857  11
   0   4  -2 4973.24 90.9011   5
   0   4   2 4953.66 90.8271   9
   0   4  -2 5036.48 91.8476  14
  -2  -4  -2 30.3057 2.05369   1
   2  -4   2 30.0653 2.44676  10
   2  -4   2 28.3819 1.27004   1
  -2  -4  -2 30.2499 1.37321  13
  -2  -4  -2 29.2513 1.95378   2
  -2  -4  -2 30.3200 2.04881   8
   2   4   2 35.2471 2.38480   9
  -2   4  -2 29.8696 1.76351   8
  -2   4  -2 30.5341 2.01507  14
  -2   4  -2 30.9268 1.98768   2
   2   4   2 28.9506 2.06465  11
   2   4   2 30.2255 2.25491   1
   2   4   2 34.6256 3.19001  10
  -2   4  -2 31.2625 2.04768   5
  -2   4  -2 29.6546 2.02964   4
  -2   4  -2 29.7858 2.24062   7
  -2   4  -2 31.2308 2.04940   3
   2   4   2 32.4785 2.17358   6
  -4  -4  -2 1644.00 32.2353   8
  -4  -4  -2 1494.08 31.0238   1
  -4  -4  -2 1621.19 31.7624   2
  -4  -4  -2 1603.87 30.4840  14
  -4   4  -2 1642.27 32.0862   5
  -4   4  -2 1667.84 33.0557   7
  -4   4  -2 1614.11 31.1387  14
   4   4   2 1652.11 32.8979   1
  -4   4  -2 1630.81 31.0982   2
   4   4   2 1606.11 32.3092   6
  -4   4  -2 1612.55 31.1300   8
  -4   4  -2 1640.47 31.2959   4
   4   4   2 1606.01 37.1788  10
  -4   4  -2 1704.89 32.3954   3
   4   4   2 1640.13 32.1415  11
  -6  -4  -2 48.7164 3.62465   2
   6  -4   2 51.5791 1.59865   6
   6  -4   2 47.0280 4.15110  13
  -6  -4  -2 46.7172 3.67276   8
   6   4   2 57.1141 4.15411  11
  -6   4  -2 50.1914 3.90690   5
   6   4   2 45.6397 3.92362   1
  -6   4  -2 52.9228 3.83960   3
   6   4   2 48.7912 5.85321  10
  -6   4  -2 51.7601 3.40804   8
   6   4   2 55.9828 4.09906   6
   8  -4   2 778.645 16.2566   6
  -8  -4  -2 796.388 20.6055   8
  -8  -4  -2 763.836 19.0467   2
   8   4   2 769.818 20.9364  11
  -8   4  -2 776.742 19.9760   5
   8   4   2 799.067 20.6412   1
   8   4   2 797.196 20.6055   6
  -8   4  -2 809.331 20.8990   3
  11  -5  -2 40.4966 3.91739   6
  11  -5  -2 47.3506 5.08746  11
 -11  -5   2 48.7753 5.12623   8
 -11   5   2 43.1708 5.07069   5
 -11   5   2 45.8652 5.40530   3
  11   5  -2 51.4325 6.43378  11
  11   5  -2 43.3136 5.36060   1
   9  -5  -2 409.915 11.4749   6
   9  -5  -2 395.351 11.1071   1
  -9  -5   2 405.255 11.5258   2
  -9  -5   2 402.252 12.8168   8
   9  -5  -2 376.113 15.5223  13
   9   5  -2 394.718 13.6406   1
  -9   5   2 416.865 12.5135   5
   9   5  -2 378.481 13.2631   6
  -9   5   2 412.658 13.5139   3
   9   5  -2 418.574 13.9473  11
   7  -5  -2 232.748 10.9561  13
  -7  -5   2 244.607 8.34785   1
  -7  -5   2 249.176 8.55450   8
   7  -5  -2 249.959 7.65147   1
   7  -5  -2 248.163 7.64152   6
   7   5  -2 245.197 8.89805   6
  -7   5   2 246.731 9.07485   3
   7   5  -2 244.302 8.91039  11
  -7   5   2 251.588 8.21609   5
   7   5  -2 245.548 9.29677   1
  -5  -5   2 443.602 11.7696   1
  -5  -5   2 454.122 11.3558   8
   5  -5  -2 451.209 10.8536   6
   5  -5  -2 461.499 11.1092   1
   5  -5  -2 445.638 14.3323  13
   5   5  -2 463.021 11.7913  11
   5   5  -2 484.976 11.7841   7
   5   5  -2 435.463 11.6274   6
  -5   5   2 442.989 10.8599   5
   5   5  -2 447.379 12.3984   1
  -5   5   2 459.666 12.0331   3
  -3  -5   2 1246.44 24.6137   1
   3  -5  -2 1220.47 26.9071  13
   3  -5  -2 1185.02 23.9405   1
  -3  -5   2 1180.83 22.7050  12
  -3  -5   2 1177.51 23.6496   6
   3  -5  -2 1255.70 26.9083  10
   3  -5  -2 1249.49 23.7351   6
  -3   5   2 1204.27 24.1620   3
   3   5  -2 1200.73 24.2126   7
   3   5  -2 1172.27 23.4949   6
   3   5  -2 1235.10 23.8569  11
  -3   5   2 1194.28 23.1157   1
  -3   5   2 1193.05 22.8411   5
   3   5  -2 1204.45 24.4768   1
  -3   5   2 1170.14 25.0369   7
   3   5  -2 1180.78 24.3571  10
  -3   5   2 1198.76 23.7050   9
   3   5  -2 1180.80 22.7121   4
  -1  -5   2 44.5784 2.29486   6
   1  -5  -2 45.4746 2.43756   6
   1  -5  -2 45.6612 2.72452   1
   1  -5  -2 44.0493 2.57757  10
  -1  -5   2 39.8462 2.40509   1
   1  -5  -2 45.7176 3.11284  13
  -1  -5   2 46.7738 1.65643  12
  -1   5   2 44.9098 2.35566   9
   1   5  -2 50.0306 2.90284   7
  -1   5   2 43.3108 2.43201   1
  -1   5   2 44.4447 2.71373  10
  -1   5   2 47.0208 2.41791  11
  -1   5   2 47.6473 2.67263   7
  -1   5   2 46.9902 2.59210   3
   1   5  -2 44.9621 2.35671  11
   1   5  -2 41.7253 2.24326   4
   1   5  -2 44.0391 2.24259   1
   1  -5   2 760.644 14.9184  10
  -1  -5  -2 764.667 16.4857   1
   1  -5   2 743.851 15.0165   1
   1  -5   2 725.714 13.9042  12
   1  -5   2 719.262 15.0302   6
   1  -5   2 778.137 14.5673   6
  -1  -5  -2 739.432 15.1214   8
  -1  -5  -2 747.680 15.7119  13
  -1  -5  -2 729.007 15.4995   6
   1   5   2 734.905 14.7558   7
   1   5   2 736.127 15.8250   6
   1   5   2 760.097 15.8159   9
  -1   5  -2 764.826 16.8171   7
   1   5   2 736.666 17.3201  10
  -1   5  -2 766.491 15.1474   5
  -1   5  -2 748.248 15.7998   4
   1   5   2 749.117 15.5888  11
   1   5   2 729.856 16.4306   1
  -1   5  -2 771.282 15.5045   3
  -3  -5  -2 120.582 4.75405   8
   3  -5   2 124.011 3.42862   1
   3  -5   2 124.424 2.36022   6
   3  -5   2 124.509 5.77220  10
  -3  -5  -2 123.212 4.86824   1
   3  -5   2 121.765 2.36334   6
  -3  -5  -2 126.313 4.89814   2
  -3   5  -2 120.178 4.08881   8
   3   5   2 119.173 5.43007   1
  -3   5  -2 130.184 4.97062   3
  -3   5  -2 131.557 5.70550   7
  -3   5  -2 124.125 4.74090   5
  -3   5  -2 124.652 4.69542  14
   3   5   2 129.597 5.15413   6
   3   5   2 118.101 4.88703  11
  -3   5  -2 123.165 4.79755   4
   3   5   2 124.781 5.19932   9
   3   5   2 127.381 6.86534  10
  -5  -5  -2 17.6681 2.62064   8
  -5  -5  -2 20.5534 1.98962  14
   5  -5   2 16.3554 3.02819  13
  -5  -5  -2 22.2535 2.57695   2
   5   5   2 20.2118 2.76198   6
  -5   5  -2 23.0250 2.83432   3
  -5   5  -2 17.8202 2.58833   5
  -5   5  -2 19.3236 2.90978   7
   5   5   2 26.1900 3.03407  11
   5   5   2 25.2434 3.27747   1
   5   5   2 20.3477 3.90543  10
  -7  -5  -2 143.296 6.45354   2
   7  -5   2 143.444 4.16616   6
  -7  -5  -2 143.181 7.24559   8
   7   5   2 141.276 7.14323   6
   7   5   2 145.781 7.48995   1
  -7   5  -2 149.367 6.98602   5
   7   5   2 136.252 7.52278  11
  -7   5  -2 154.261 7.41172   3
   9  -5   2 2.34923 1.07985   6
   9  -5   2 5.08853 2.54629  11
  -9  -5  -2 -1.2467 2.15153   8
  -9  -5  -2 1.45669 1.90200   2
  -9   5  -2 2.45337 1.98715   3
   9   5   2 1.20284 3.05296  11
   9   5   2 4.52401 2.46016   1
  -9   5  -2 0.88154 2.16779   5
   9   5   2 5.30844 2.60293   6
 -10  -6   2 705.516 19.6360   8
  10  -6  -2 725.106 17.9452   6
  10   6  -2 759.521 21.8362  11
 -10   6   2 700.826 20.3335   3
 -10   6   2 683.165 18.8351   5
   8  -6  -2 22.2079 2.68359   6
  -8  -6   2 15.5862 2.93128   8
   8  -6  -2 13.1958 2.04514   1
  -8  -6   2 34.0670 3.49446   2
   8  -6  -2 16.4343 4.01843  13
   8   6  -2 16.5504 3.35934   1
  -8   6   2 16.6711 2.60376   5
   8   6  -2 17.4007 3.11538  11
  -8   6   2 29.4245 3.97460   3
   6  -6  -2 1315.55 32.6977  13
   6  -6  -2 1272.54 26.5860   6
  -6  -6   2 1345.65 28.5086   1
   6  -6  -2 1350.54 27.0551   1
  -6  -6   2 1343.01 27.8030   8
  -6   6   2 1335.12 27.1131   5
   6   6  -2 1322.53 29.4554   1
   6   6  -2 1329.38 28.4862  11
   6   6  -2 1282.95 27.3950   7
  -6   6   2 1315.03 28.4980   3
  -4  -6   2 30.3940 2.28466   6
  -4  -6   2 30.1702 2.67773   1
   4  -6  -2 27.3753 3.37219  13
   4  -6  -2 27.8498 2.28011   6
   4  -6  -2 30.1960 2.49761   1
  -4  -6   2 28.4546 2.42674   8
   4   6  -2 28.1780 1.74309   4
  -4   6   2 32.4489 2.83821   3
  -4   6   2 26.7505 2.05547   5
  -4   6   2 28.7504 2.36786   9
   4   6  -2 31.8520 2.98692   1
   4   6  -2 29.7427 2.61916   7
   4   6  -2 27.1973 2.76708  11
  -4   6   2 30.5037 3.46732   7
  -2  -6   2 2984.67 54.0955  12
   2  -6  -2 3167.18 59.3036  13
  -2  -6   2 3069.48 56.7873   1
   2  -6  -2 3073.48 56.1154   6
  -2  -6   2 3111.15 56.0418   6
   2  -6  -2 3029.50 56.7092   1
   2   6  -2 3130.35 55.9921  11
  -2   6   2 3228.09 56.7782   3
   2   6  -2 3030.94 56.8092   7
   2   6  -2 3114.78 55.4883   4
  -2   6   2 3029.33 57.1941   7
   2   6  -2 3055.31 56.2301   1
   2   6  -2 2788.69 55.3841  10
  -2   6   2 3001.37 54.3517   5
   0  -6  -2 360.467 9.90266   1
   0  -6  -2 372.784 10.2198  13
   0  -6   2 364.342 9.18192   1
   0  -6  -2 367.710 9.26413   6
   0  -6  -2 346.478 7.72499   8
   0  -6   2 388.832 8.94550   6
   0   6   2 347.375 9.60309   1
   0   6  -2 363.509 7.83697   5
   0   6   2 370.085 8.99515   9
   0   6   2 362.847 9.13360  11
   0   6   2 359.482 9.72005  10
   0   6  -2 360.968 8.92077   3
   0   6  -2 353.402 9.20173   4
   0   6  -2 369.486 8.96561  11
   0   6   2 345.115 9.01571   7
   0   6  -2 362.625 10.1306   7
  -2  -6  -2 3826.06 69.9005   8
  -2  -6  -2 3719.35 69.2991  13
   2  -6   2 3842.65 72.2309   6
  -2  -6  -2 3832.77 71.3486   1
  -2  -6  -2 3856.47 70.3936   2
   2  -6   2 3826.32 71.3599   1
  -2   6  -2 3865.40 70.2027   3
   2   6   2 3968.83 72.1049   1
   2   6   2 3992.40 73.6844  10
   2   6   2 3909.75 71.0699   6
  -2   6  -2 3883.99 69.7774   5
   2   6   2 3850.08 70.5572   9
  -2   6  -2 3897.25 70.7327   4
  -2   6  -2 3923.01 72.1746   7
   2   6   2 3924.94 70.6583  11
  -4  -6  -2 298.084 8.93941   2
   4  -6   2 297.335 6.47101   6
  -4  -6  -2 293.283 8.99494   1
  -4  -6  -2 299.165 9.09451   8
   4  -6   2 294.426 11.4160  13
   4   6   2 287.761 12.0604  10
  -4   6  -2 307.610 9.15175   3
   4   6   2 285.205 9.49042   9
   4   6   2 292.383 9.57453   6
  -4   6  -2 280.267 9.96510   7
  -4   6  -2 294.593 8.90157   4
   4   6   2 290.769 9.21033  11
   4   6   2 297.323 10.1262   1
  -4   6  -2 298.338 8.87836   5
   6  -6   2 1545.07 36.9074  13
  -6  -6  -2 1574.14 32.8078   2
  -6  -6  -2 1561.66 33.3908   8
   6   6   2 1496.81 33.9511   6
  -6   6  -2 1559.46 32.7220   5
   6   6   2 1560.18 34.7340   1
  -6   6  -2 1612.11 34.8840   7
   6   6   2 1537.11 33.8318  11
  -6   6  -2 1590.79 33.3483   3
   8  -6   2 42.9685 2.50102   6
  -8  -6  -2 40.3742 4.50177   8
  -8  -6  -2 39.5979 4.41017   2
   8   6   2 46.1394 4.88545   6
  -8   6  -2 40.5273 4.42741   5
  -8   6  -2 47.7482 4.80569   3
   8   6   2 41.2065 5.02001   1
   8   6   2 47.3420 5.45673  11
  -9  -7   2 22.1982 3.18660   2
   9  -7  -2 31.7245 3.48025   6
  -9  -7   2 30.3617 4.11252   8
  -9   7   2 29.9530 4.31302   3
  -9   7   2 35.4887 4.18910   5
   9   7  -2 26.9130 4.36438   1
   9   7  -2 34.3777 4.80571  11
   7  -7  -2 4.22561 1.55245   6
  -7  -7   2 3.09613 1.70348   1
  -7  -7   2 4.87098 1.70293   8
   7  -7  -2 8.33582 2.86570  13
   7  -7  -2 6.01097 1.62308   1
  -7   7   2 1.45618 1.89655   3
   7   7  -2 7.08129 2.60083  11
   7   7  -2 8.73225 2.71588   1
  -7   7   2 3.80740 1.71716   5
   5  -7  -2 1.54839 1.14945   1
  -5  -7   2 2.62493 1.42171   8
   5  -7  -2 0.26997 0.99331   6
  -5  -7   2 1.00452 1.35590   1
   5  -7  -2 2.07131 2.21307  13
   5   7  -2 0.72828 1.21254   7
   5   7  -2 6.12654 2.10761  11
   5   7  -2 1.26811 1.46388   1
  -5   7   2 5.49128 1.45094   5
  -5   7   2 0.54855 1.03886   3
   3  -7  -2 89.7325 4.28640   6
  -3  -7   2 88.5277 4.70952   1
   3  -7  -2 99.8222 4.61369   1
   3  -7  -2 90.6898 6.04206  13
  -3  -7   2 86.4977 4.23045   6
   3   7  -2 95.5714 4.33016  11
  -3   7   2 85.2383 3.38695   5
  -3   7   2 82.3262 5.02107   7
   3   7  -2 88.7440 3.57136   4
   3   7  -2 87.3400 4.50519   1
   3   7  -2 95.2267 4.77142   7
  -3   7   2 83.8244 3.84619   9
  -3   7   2 89.2556 4.44169   3
  -1  -7   2 12.3789 1.73276   6
   1  -7  -2 17.3834 2.35995   1
   1  -7  -2 14.2701 2.51019  13
  -1  -7   2 10.0502 1.74629   1
   1  -7  -2 12.0960 1.82375   6
  -1   7   2 12.4539 1.58954   9
   1   7  -2 12.4579 1.87091   3
  -1   7   2 12.2281 1.85157   3
   1   7  -2 12.4065 1.83496  11
   1   7  -2 12.1999 1.59027   1
  -1   7   2 10.3463 1.91619   7
   1   7  -2 22.8772 2.75344   7
  -1   7   2 9.68474 1.54898   1
  -1   7   2 15.2531 1.97393  10
   1   7  -2 14.3882 1.95675   4
  -1  -7  -2 219.991 7.42378  13
  -1  -7  -2 205.618 6.76576   6
  -1  -7  -2 223.151 7.75900   1
  -1  -7  -2 201.356 5.87281   8
   1  -7   2 216.273 6.64386   1
   1  -7   2 213.226 6.31391   6
   1   7   2 215.199 7.52593  10
   1   7   2 203.327 6.29265   7
  -1   7  -2 210.591 5.83158   5
  -1   7  -2 218.157 7.96913   7
   1   7   2 226.180 7.07757  11
  -1   7  -2 217.833 7.09481   4
  -1   7  -2 211.304 6.72749   3
   1   7   2 212.420 6.60495   9
   1   7   2 220.098 7.64260   1
   3  -7   2 56.9315 2.84099   1
   3  -7   2 58.7017 2.70492   6
  -3  -7  -2 53.2423 3.76373   2
  -3  -7  -2 54.1920 3.93323   1
  -3  -7  -2 54.5524 3.26620   8
   3   7   2 53.8851 4.30033   1
  -3   7  -2 56.1068 4.52258   7
   3   7   2 51.1385 3.82758   6
  -3   7  -2 60.1819 3.56308   5
  -3   7  -2 63.2755 3.86745   3
   3   7   2 57.7770 4.59937  10
  -3   7  -2 53.6566 3.79785   4
   3   7   2 53.6932 3.69027   9
   3   7   2 60.5206 4.08245  11
   5  -7   2 64.3382 2.77407   6
  -5  -7  -2 63.7818 4.56463   8
   5  -7   2 65.9958 6.11489  13
  -5  -7  -2 64.7861 4.53995   2
  -5   7  -2 63.5405 4.46095   3
   5   7   2 57.6865 4.91590  11
  -5   7  -2 61.5560 4.25902   5
   5   7   2 61.4101 5.11471   1
   5   7   2 61.6543 4.75533   6
   5   7   2 58.8419 4.71841   9
  -5   7  -2 60.0234 5.18311   7
  -7  -7  -2 141.004 7.07221   2
  -7  -7  -2 142.535 7.23279   8
   7  -7   2 148.356 4.82211   6
  -7   7  -2 141.208 7.39413   3
   7   7   2 148.585 8.25829   9
   7   7   2 148.095 8.26075  11
   7   7   2 145.526 8.38377   1
  -7   7  -2 145.699 7.20403   5
   7   7   2 138.847 7.89116   6
  -8  -8   2 209.734 8.63809   2
   8  -8  -2 205.918 7.94227   6
   8  -8  -2 182.666 11.6976  13
   8  -8  -2 210.191 7.62744   1
  -8  -8   2 206.142 8.94360   8
  -8   8   2 211.909 8.46098   5
   8   8  -2 196.404 10.1110   1
   8   8  -2 211.514 9.55646  11
  -8   8   2 207.400 9.48788   3
  -6  -8   2 1203.00 26.4737   8
   6  -8  -2 1197.91 25.9224   1
   6  -8  -2 1167.07 32.2142  13
   6  -8  -2 1249.71 26.2026   6
   6   8  -2 1217.77 27.5942  11
  -6   8   2 1178.34 25.4362   5
  -6   8   2 1196.48 27.5799   3
   6   8  -2 1208.31 28.7724   1
  -4  -8   2 495.017 12.5705   8
   4  -8  -2 509.347 13.3787   1
   4  -8  -2 483.101 12.9495   6
  -4  -8   2 513.198 14.3201   1
   4  -8  -2 511.316 17.2105  13
  -4   8   2 486.588 11.6999   5
   4   8  -2 489.078 13.5782   7
  -4   8   2 491.188 13.6187   3
   4   8  -2 513.413 14.2875   1
   4   8  -2 496.517 13.3660  11
  -4   8   2 465.290 14.8802   7
   2  -8  -2 1607.76 32.1194   6
   2  -8  -2 1606.25 35.6538  13
   2  -8  -2 1577.57 32.7255   1
  -2  -8   2 1625.22 32.9327   1
  -2  -8   2 1617.38 32.1098   6
   2   8  -2 1564.14 32.9267   7
  -2   8   2 1575.29 32.4162   3
  -2   8   2 1522.96 33.0447   7
   2   8  -2 1556.62 31.0974   4
  -2   8   2 1513.82 30.5038   9
   2   8  -2 1586.91 31.6888  11
   2   8  -2 1536.51 31.6435   1
   0  -8  -2 374.850 11.7467  13
   0  -8  -2 365.338 10.4038   6
   0  -8   2 372.453 10.1418   6
   0  -8  -2 369.259 11.2540   1
   0  -8   2 368.547 10.4700   1
   0   8   2 365.229 10.6883   1
   0   8  -2 368.730 11.5046   7
   0   8   2 384.397 11.1768   3
   0   8  -2 368.587 10.4363   4
   0   8  -2 363.105 10.0961   3
   0   8   2 358.783 9.41012   9
   0   8   2 369.227 10.3673  11
   0   8   2 361.393 10.3711   7
   2  -8   2 773.539 16.8340   6
   2  -8   2 754.501 16.8584   1
  -2  -8  -2 734.560 17.6323   2
  -2  -8  -2 758.512 18.8151   1
   2   8   2 746.780 17.2354   9
  -2   8  -2 767.458 17.6746   3
   2   8   2 738.361 17.9088  11
  -2   8  -2 795.624 19.8716   7
  -2   8  -2 772.860 18.2171   4
   2   8   2 775.802 19.1897   1
   4  -8   2 161.725 5.45527   6
  -4  -8  -2 173.666 7.23912   2
  -4  -8  -2 156.490 6.64917   8
  -4  -8  -2 177.963 7.58921   1
   4  -8   2 172.303 9.66317  13
   4   8   2 167.080 8.07914   1
  -4   8  -2 171.361 8.42862   7
   4   8   2 164.923 7.26691  11
  -4   8  -2 160.055 6.77866   3
  -4   8  -2 166.320 6.51267   5
   4   8   2 163.337 7.02204   9
  -6  -8  -2 328.605 11.3691   2
  -6  -8  -2 322.594 11.2951   8
   6  -8   2 323.783 14.4209  13
   6  -8   2 336.066 8.66701   6
   6   8   2 315.267 11.9717  11
  -6   8  -2 330.876 10.7898   5
  -6   8  -2 351.002 11.6548   3
   6   8   2 312.801 12.6043   1
  -6   8  -2 334.450 13.0836   7
   8  -8   2 158.194 5.49596   6
  -8  -8  -2 154.514 7.98292   2
  -8  -8  -2 160.768 8.43933   8
   8   8   2 162.783 9.44586   1
  -8   8  -2 149.259 7.76848   5
   8   8   2 151.671 8.66649  11
  -8   8  -2 163.731 8.10723   3
  -9  -9   2 3.60178 2.49426   8
   9  -9  -2 2.80897 1.77557   6
  -9  -9   2 2.51015 2.22124   2
   9   9  -2 5.75352 3.61318  11
  -9   9   2 2.81471 2.09320   5
  -9   9   2 5.27387 3.06131   3
   9   9  -2 4.03874 2.96062   1
  -7  -9   2 5.33634 1.90004   1
   7  -9  -2 8.35900 3.14847  13
  -7  -9   2 8.79288 2.41457   8
   7  -9  -2 7.45123 1.96094   1
   7  -9  -2 7.98372 2.13975   6
  -7   9   2 7.74120 2.10631   5
   7   9  -2 13.4966 3.17693   1
   7   9  -2 7.77272 2.89303  11
  -7   9   2 7.54191 2.68248   3
  -5  -9   2 16.5536 3.21333   1
   5  -9  -2 9.74903 3.38071  13
   5  -9  -2 10.9011 2.30439   1
   5  -9  -2 8.96513 2.15477   6
  -5  -9   2 7.98868 2.07035   8
   5   9  -2 13.9415 2.74024  11
  -5   9   2 13.1433 2.74918   3
   5   9  -2 11.8911 2.84191   1
  -3  -9   2 1.99526 1.23391   6
  -3  -9   2 1.25022 1.62979   1
   3  -9  -2 13.2424 2.58397   1
   3  -9  -2 2.20275 1.50472   6
   3  -9  -2 -0.1382 2.03258  13
   3   9  -2 4.89895 1.82493   1
   3   9  -2 2.10737 1.68665  11
  -3   9   2 4.40241 1.91414   3
  -3   9   2 3.58168 2.01239   7
   3   9  -2 4.83271 1.89609   7
  -1  -9   2 93.8993 4.98046   6
   1  -9  -2 97.4451 6.39726  13
  -1  -9   2 99.1851 5.47231   1
   1  -9  -2 88.5593 5.02340   6
   1   9  -2 91.1410 4.85599   4
   1   9  -2 85.9973 5.49459   7
   1   9  -2 88.6300 4.62498  11
   1   9  -2 89.1513 4.89479   3
  -1   9   2 92.2054 5.33681   3
  -1   9   2 86.7789 5.16268   7
   1  -9   2 14.1304 2.24439   1
   1  -9   2 4.38405 1.47419   6
  -1  -9  -2 5.24763 2.01177   1
   1   9   2 7.29528 1.82577  11
  -1   9  -2 7.23842 2.13377   7
  -1   9  -2 4.65193 1.93226   4
  -1   9  -2 4.85941 1.47478   3
   1   9   2 5.12339 1.88214   1
   3  -9   2 62.7410 6.20758  13
   3  -9   2 54.0583 3.33771   1
  -3  -9  -2 51.0706 4.29705   2
  -3  -9  -2 57.9272 4.48675   1
   3  -9   2 58.5784 3.62705   6
   3   9   2 64.1831 4.92469   1
   3   9   2 54.4251 4.60112  11
  -3   9  -2 59.8295 5.43296   7
  -3   9  -2 58.9873 4.32788   3
   5  -9   2 68.2938 3.87667   6
  -5  -9  -2 81.5657 5.25389   8
   5  -9   2 64.3914 6.46772  13
  -5  -9  -2 66.0455 5.20723   2
   5   9   2 60.3462 5.46427   1
  -5   9  -2 71.7678 5.94130   7
  -5   9  -2 69.8428 5.14085   3
   5   9   2 82.0347 6.08460  11
  -5   9  -2 65.4793 4.56449   5
  -7  -9  -2 3.97125 1.91350   8
   7  -9   2 6.25730 1.53800   6
  -7  -9  -2 6.17678 2.54956   2
  -7   9  -2 9.18642 2.57414   5
  -7   9  -2 5.02982 2.48521   3
   7   9   2 3.77589 2.11090   1
   7   9   2 5.21015 3.08044  11
  -8 -10   2 408.553 13.6129   8
  -8 -10   2 402.203 13.6302   2
   8 -10  -2 434.644 13.1879   6
  -8  10   2 408.890 14.2639   3
   8  10  -2 396.732 14.7604  11
   8  10  -2 402.916 15.7347   1
   6 -10  -2 34.3292 3.76236   6
   6 -10  -2 36.7314 3.75323   1
  -6 -10   2 50.7381 5.54528   1
  -6 -10   2 35.3817 3.90157   8
  -6  10   2 36.8780 4.39665   3
   6  10  -2 35.0052 4.42154   1
   6  10  -2 38.6407 4.83371  11
   4 -10  -2 817.344 20.3300   6
   4 -10  -2 814.295 25.4211  13
  -4 -10   2 836.547 21.7719   1
   4 -10  -2 812.810 20.3357   1
  -4  10   2 801.024 20.6386   3
   4  10  -2 796.343 20.2714  11
   4  10  -2 781.248 22.8035   1
  -2 -10   2 65.2787 4.43907   6
  -2 -10   2 60.3543 4.88575   1
   2 -10  -2 64.6768 4.95980   1
   2 -10  -2 62.8462 5.77890  13
   2 -10  -2 65.8533 4.68455   6
  -2  10   2 56.7786 4.99500   7
   2  10  -2 69.1275 5.03612   7
  -2  10   2 62.6596 4.95678   3
   2  10  -2 78.9482 4.74764   3
   2  10  -2 69.6706 4.80970  11
   0 -10   2 1362.57 29.4950   6
   0 -10  -2 1340.18 31.7404  13
   0 -10   2 1373.13 29.9388   1
   0  10  -2 1369.94 31.6299   7
   0  10  -2 1340.48 29.1826   3
   0  10   2 1359.80 30.5152   3
  -2 -10  -2 80.8273 5.50422   1
   2 -10   2 73.2016 6.59735  13
   2 -10   2 79.7865 4.65701   1
   2 -10   2 80.9339 4.74997   6
  -2 -10  -2 83.1875 4.99758   2
  -2  10  -2 73.3978 4.76833   3
   2  10   2 85.2295 5.62822  11
  -2  10  -2 81.7109 6.02187   7
   2  10   2 78.1489 5.71288   1
  -4 -10  -2 1219.83 27.8966   2
   4 -10   2 1188.25 33.6405  13
   4 -10   2 1248.55 26.2277   6
   4  10   2 1241.33 30.6502   1
  -4  10  -2 1205.48 27.7526   3
  -4  10  -2 1229.09 30.6862   7
   4  10   2 1184.04 28.5500  11
   6 -10   2 33.9079 3.12132   6
  -6 -10  -2 26.1193 3.68612   2
   6  10   2 34.9546 5.19236   1
  -6  10  -2 26.4366 3.83675   3
   6  10   2 34.0798 4.53677  11
  -6  10  -2 35.4268 5.39190   7
   7 -11  -2 97.6927 6.05818   6
  -7 -11   2 100.848 7.22623   1
  -7 -11   2 95.8038 6.69245   2
   7 -11  -2 85.0712 5.40162   1
  -7  11   2 100.002 7.16620   3
   7  11  -2 87.2447 6.44511  11
   7  11  -2 97.2375 7.65863   1
   5 -11  -2 125.851 6.52244   1
   5 -11  -2 116.055 6.59332   6
  -5 -11   2 114.794 7.59033   1
  -5  11   2 109.204 6.65144   3
   5  11  -2 118.129 7.21418  11
   3 -11  -2 96.5030 6.11810   1
  -3 -11   2 79.6119 5.91144   1
   3 -11  -2 87.8004 7.86945  13
   3 -11  -2 91.8137 5.89913   6
   3  11  -2 95.8686 6.43179   7
  -3  11   2 87.4404 6.82381   7
   3  11  -2 86.3751 5.54987   3
   3  11  -2 96.3466 6.12139  11
  -3  11   2 90.2349 5.87066   3
   1 -11  -2 177.317 8.10847   6
  -1 -11   2 179.910 8.10122   6
   1 -11  -2 193.294 10.2222  13
   1 -11  -2 197.410 9.14203   1
  -1 -11   2 184.430 8.61718   1
  -1  11   2 184.229 8.67313   3
   1  11  -2 188.834 8.10398   3
   1  11  -2 186.031 9.30664   7
  -1  11   2 184.460 8.62879   7
   1 -11   2 65.7657 6.90143  13
  -1 -11  -2 55.8679 4.60533   2
   1 -11   2 63.1634 4.74973   1
   1 -11   2 61.8451 4.45225   6
  -1  11  -2 65.8987 4.90930   3
   1  11   2 63.5815 5.49710   3
   1  11   2 61.1376 4.78187  11
  -1  11  -2 72.6618 6.39985   7
  -3 -11  -2 97.6213 5.91283   2
   3 -11   2 104.667 5.50288   1
   3 -11   2 103.421 5.85787   6
  -3  11  -2 99.3431 7.66386   7
   3  11   2 105.981 6.97121   1
   3  11   2 106.018 6.88108  11
  -3  11  -2 103.947 6.36959   3
   5 -11   2 50.1107 3.88152   6
  -5 -11  -2 53.4655 5.59485   2
  -5  11  -2 48.8277 6.06339   7
   5  11   2 41.6624 5.21034   1
   5  11   2 49.4419 5.61203  11
  -5  11  -2 46.9041 4.86671   3
   6 -12  -2 543.800 16.1736   6
  -6 -12   2 568.066 18.3571   1
   6 -12  -2 515.660 15.5889   1
   6  12  -2 543.542 17.1467  11
  -6  12   2 516.484 16.8223   3
   4 -12  -2 101.385 6.48656   6
   4 -12  -2 108.113 6.73364   1
  -4 -12   2 99.9177 7.29929   1
   4  12  -2 100.548 6.71748  11
   4  12  -2 90.5100 6.13810   3
  -4  12   2 94.4591 6.75178   3
   2 -12  -2 632.633 18.6442   1
   2 -12  -2 612.499 17.8427   6
  -2 -12   2 622.540 18.7909   1
   2 -12  -2 613.628 21.7866  13
  -2  12   2 621.579 18.1958   3
   2  12  -2 604.036 18.5612   7
   2  12  -2 621.220 17.5711   3
  -2  12   2 607.367 18.8701   7
   0 -12   2 116.459 6.83323   6
   0 -12   2 123.522 7.13674   1
   0 -12  -2 134.269 8.16768   1
   0  12   2 117.002 7.59321   3
   0  12  -2 114.226 6.68710   3
   0  12  -2 127.744 8.38369   7
  -2 -12  -2 369.672 12.4404   2
   2 -12   2 392.560 12.8140   6
  -2 -12  -2 388.231 14.4844   1
   2  12   2 384.584 14.3450   3
   2  12   2 390.254 13.5081  11
  -2  12  -2 391.795 15.0499   7
  -2  12  -2 366.153 12.5566   3
   4 -12   2 105.991 5.98839   6
  -4 -12  -2 110.323 7.02930   2
  -4 -12  -2 108.662 7.48536   1
   4  12   2 95.8657 7.19196   1
   4  12   2 108.812 7.48589  11
  -4  12  -2 99.4111 6.50813   3
  -4  12  -2 102.823 8.44113   7
   3 -13  -2 8.96623 2.87442   6
  -3 -13   2 8.30300 3.18300   1
   3 -13  -2 4.79632 2.12936   1
   3  13  -2 5.05772 2.59908   3
  -3  13   2 7.42306 3.17050   3
   1 -13  -2 21.6052 4.17231   1
  -1 -13   2 19.4103 3.41948   1
  -1 -13   2 17.3448 3.08622   6
  -1  13   2 14.3146 3.64623   3
   1  13  -2 16.9390 2.98997   3
   1  13  -2 18.6592 4.13084   7
  -1 -13  -2 5.05773 2.93675   1
  -1  13  -2 7.31679 2.79457   7
   1  13   2 3.34397 2.72459   3
  -1  13  -2 3.20935 2.32733   3
 -12   0   3 -0.0059 2.07256   5
  12   0  -3 1.39040 2.12224   6
  12   0  -3 1.55595 1.93888   1
  12   0  -3 5.16707 3.22825  11
 -12   0   3 3.50481 2.21805   8
  10   0  -3 0.67218 1.69704   6
 -10   0   3 -0.9654 1.53595   5
  10   0  -3 -2.0538 1.26731   1
  10   0  -3 1.76419 2.20726  11
 -10   0   3 -0.1352 1.45843   8
   8   0  -3 0.48540 1.16489   1
  -8   0   3 1.29168 1.45980   3
  -8   0   3 0.50930 1.19966   5
   8   0  -3 0.24449 1.26660  13
   8   0  -3 0.19834 1.20088   6
  -8   0   3 0.16648 0.76670   8
   8   0  -3 0.00764 1.05714  11
   6   0  -3 1.14843 1.24346  13
   6   0  -3 -1.0009 0.55405  11
  -6   0   3 0.71144 0.77635   8
   6   0  -3 1.34796 0.98188   1
  -6   0   3 -0.2368 0.82708   3
  -6   0   3 1.56227 0.73996  12
   6   0  -3 0.71563 0.88079   6
  -6   0   3 0.72567 0.64354   1
   4   0  -3 1.46655 0.62175   1
  -4   0   3 0.06383 0.48253   1
  -4   0   3 6.31801 1.11451   9
  -4   0   3 0.01820 0.46249   3
  -4   0   3 0.65265 0.53364  12
   4   0  -3 1.20015 0.63495   6
  -2   0   3 3.05491 0.92669  10
   2   0  -3 2.77174 0.60579   1
   2   0  -3 3.51826 0.56483  14
  -2   0   3 3.61841 0.60911   6
   0   0   3 0.53787 0.49241   9
   0   0  -3 0.46799 0.42177  14
   0   0  -3 1.53321 0.55940   8
   0   0  -3 2.92011 0.83037  10
   0   0   3 0.52095 0.28312   1
   0   0  -3 1.56581 0.40235   4
   0   0   3 0.72636 0.74727  10
  -2   0  -3 6.43195 0.90586  14
  -4   0  -3 0.82895 0.68595  14
   4   0   3 5.23647 2.15048  10
  -4   0  -3 -0.3880 0.53766   2
   4   0   3 1.38985 0.56543   6
  -4   0  -3 -0.4271 0.91655   5
   4   0   3 0.96327 0.86932  11
  -4   0  -3 0.48054 0.42005   4
   4   0   3 1.06693 0.63300   1
  -4   0  -3 3.87795 1.33419   8
  -6   0  -3 -0.6920 1.26539   5
   6   0   3 0.43069 0.78147   6
   6   0   3 4.27052 2.52240  10
  -6   0  -3 -0.1931 0.91528   8
  -6   0  -3 1.08572 1.17920   2
   6   0   3 -0.0312 1.31370  11
   6   0   3 0.44942 0.69273   1
   8   0   3 1.12737 1.52332  11
  -8   0  -3 10.6979 2.33862   8
   8   0   3 0.94900 1.16358   6
  -8   0  -3 4.00091 2.17902   5
  -8   0  -3 1.22083 1.25724   2
  11  -1  -3 230.045 9.45229   6
 -11  -1   3 228.952 8.78929   5
  11  -1  -3 244.335 9.36178   1
  11  -1  -3 226.249 9.96151  11
 -11  -1   3 231.979 9.23357   8
 -11   1   3 230.647 8.75118   8
  11   1  -3 219.293 10.2010  11
  11   1  -3 227.536 9.58370   1
 -11   1   3 226.338 8.90241   5
  11   1  -3 221.739 9.66660   6
   9  -1  -3 644.124 16.5193   6
  -9  -1   3 650.567 15.8378   5
   9  -1  -3 656.629 16.8991  11
  -9  -1   3 670.023 16.3024   8
   9  -1  -3 637.168 16.4035   1
   9   1  -3 653.726 17.0663   6
  -9   1   3 644.567 17.7425   3
   9   1  -3 645.404 17.3687  11
  -9   1   3 657.623 15.7225   8
   9   1  -3 630.009 16.8943   1
  -9   1   3 670.202 16.2839   5
   7  -1  -3 1202.00 24.8573   1
  -7  -1   3 1219.50 24.4053  12
  -7  -1   3 1201.74 23.9474   5
   7  -1  -3 1147.86 27.4194  13
  -7  -1   3 1193.97 24.3187   8
   7  -1  -3 1185.32 24.5584   6
  -7   1   3 1181.90 25.5045   3
   7   1  -3 1214.39 25.4362   1
  -7   1   3 1195.61 24.2515   5
   7   1  -3 1134.21 26.4575  13
  -7   1   3 1198.79 24.0096  12
   7   1  -3 1183.85 24.9704   6
   7   1  -3 1198.33 24.9353  11
  -7   1   3 1151.15 23.6139   8
   5  -1  -3 1284.51 27.3316  13
  -5  -1   3 1243.66 24.9524   3
   5  -1  -3 1290.00 24.8283   6
  -5  -1   3 1283.34 24.8147   1
   5  -1  -3 1262.18 25.0924   1
  -5  -1   3 1277.10 24.4190  12
   5   1  -3 1281.60 24.6201  11
   5   1  -3 1271.25 25.4706   1
  -5   1   3 1223.19 25.0115   3
   5   1  -3 1281.49 26.8109  13
   5   1  -3 1255.89 23.4314   4
  -5   1   3 1277.48 24.2086  12
  -5   1   3 1269.29 24.3434   1
   5   1  -3 1285.64 25.0759   6
  -3  -1   3 4948.60 92.1392  12
   3  -1  -3 5007.51 89.9535  14
  -3  -1   3 4826.64 91.9756   9
  -3  -1   3 4914.77 93.4429   6
   3  -1  -3 4774.40 95.0581   1
  -3  -1   3 4971.33 94.5762   1
  -3  -1   3 5131.07 106.984  10
   3  -1  -3 4760.29 92.7672   6
   3  -1  -3 5081.53 98.2879  10
   3  -1  -3 5102.08 102.862  13
  -3   1   3 4904.78 94.7054   1
  -3   1   3 5022.51 103.449  10
   3   1  -3 4990.02 101.966  10
  -3   1   3 4730.65 93.5703   3
  -3   1   3 5064.54 91.5048  12
   3   1  -3 4885.95 101.635  13
  -3   1   3 4841.04 94.4833   9
   3   1  -3 4967.43 90.4715  11
   3   1  -3 4881.42 90.9696   4
   3   1  -3 4895.54 90.1752  14
   3   1  -3 4850.73 93.9282   1
   3   1  -3 4865.81 93.3380   6
  -1  -1   3 1139.80 21.0155   9
  -1  -1   3 1154.24 23.1737  10
   1  -1  -3 1120.13 21.4135   1
   1  -1  -3 1169.72 22.3736  13
   1  -1  -3 1114.54 23.0908  10
  -1  -1   3 1156.31 21.0672  12
  -1  -1   3 1129.52 20.8196   6
   1  -1  -3 1139.78 21.0100  14
   1  -1  -3 1116.54 21.0040   2
   1  -1  -3 1167.39 21.1289   8
  -1  -1   3 1117.30 21.1800   1
   1   1  -3 1143.91 21.2285   2
  -1   1   3 1134.81 21.1346   6
  -1   1   3 1137.69 21.5530   9
  -1   1   3 1178.59 23.7589  10
   1   1  -3 1148.45 21.1727  14
   1   1  -3 1141.11 21.4396   7
  -1   1   3 1135.04 21.5023   1
   1   1  -3 1155.22 21.0769   4
   1   1  -3 1110.68 22.6625  10
  -1   1   3 1153.87 20.9843  12
   1  -1   3 3801.91 69.5564   1
  -1  -1  -3 3802.51 71.0720   5
  -1  -1  -3 3851.22 70.2565   2
   1  -1   3 3976.25 75.3158  10
  -1  -1  -3 3805.38 72.6976   8
  -1  -1  -3 3814.98 70.2495   4
  -1  -1  -3 3545.65 68.8156  14
  -1   1  -3 3742.94 72.2131   2
   1   1   3 3955.39 83.3567  10
  -1   1  -3 3806.84 71.5175  14
  -1   1  -3 3740.42 69.9193   4
  -1   1  -3 3907.25 69.7785   5
   1   1   3 3801.76 72.5753   1
  -1   1  -3 3701.10 70.3460   3
   1   1   3 3746.45 69.9419  11
  -1   1  -3 3622.98 69.9347   8
  -1   1  -3 3801.23 72.2632   7
   1   1   3 3845.91 72.3568   6
   3  -1   3 1290.24 29.6226  10
  -3  -1  -3 1269.95 25.0731   2
  -3  -1  -3 1270.84 25.5893   8
  -3  -1  -3 1264.39 25.0927   5
   3  -1   3 1260.92 23.2825   1
  -3  -1  -3 1244.76 24.1737  14
   3   1   3 1298.80 24.1398   6
  -3   1  -3 1285.33 23.9628   4
  -3   1  -3 1280.84 24.4397  14
   3   1   3 1254.88 24.5498   1
  -3   1  -3 1306.40 25.5512   8
   3   1   3 1281.94 29.9038  10
  -3   1  -3 1300.92 24.6336   7
  -3   1  -3 1259.14 25.1263   3
   3   1   3 1264.51 24.5388  11
  -3   1  -3 1292.76 25.1168   2
  -3   1  -3 1332.87 25.4864   5
  -5  -1  -3 730.677 16.9677   5
   5  -1   3 757.195 14.3649   6
   5  -1   3 752.502 16.5136  11
  -5  -1  -3 727.771 15.3372  14
  -5  -1  -3 754.068 17.4726   8
   5  -1   3 712.549 14.8205   1
  -5  -1  -3 763.936 16.8258   2
   5  -1   3 756.287 22.4791  10
  -5   1  -3 749.281 15.6051  14
  -5   1  -3 739.528 17.1965   8
   5   1   3 753.360 16.0538   6
   5   1   3 761.228 22.9727  10
  -5   1  -3 755.638 17.3274   5
   5   1   3 731.467 16.7163  11
  -5   1  -3 746.919 16.5841   2
   5   1   3 721.959 16.0925   1
   7  -1   3 630.267 14.1690   6
  -7  -1  -3 637.183 16.3921   5
   7  -1   3 635.319 16.0255  11
  -7  -1  -3 653.201 17.0534   8
  -7  -1  -3 628.367 15.5606   2
  -7   1  -3 624.095 16.4487   5
  -7   1  -3 638.016 16.4753   8
   7   1   3 646.960 15.5564   6
  -7   1  -3 633.984 15.3216   2
   7   1   3 622.884 15.1411   1
   7   1   3 618.610 16.3890  11
   9  -1   3 176.138 8.35294  11
   9  -1   3 173.467 6.73507   6
  -9  -1  -3 169.527 7.73951   5
  -9  -1  -3 180.540 8.50234   8
  -9   1  -3 163.071 7.72245   8
   9   1   3 176.196 8.58567  11
   9   1   3 177.820 7.70300   6
  -9   1  -3 174.829 8.45178   5
 -12  -2   3 82.1451 5.96241   8
  12  -2  -3 83.5159 5.47871   1
  12  -2  -3 86.4209 5.95885   6
  12  -2  -3 84.7967 6.81891  11
 -12   2   3 91.3671 6.28646   5
  12   2  -3 86.8828 6.84115  11
  12   2  -3 82.0382 6.46218   6
  10  -2  -3 208.663 8.84871  11
 -10  -2   3 199.490 8.25144   8
  10  -2  -3 205.263 8.25870   6
 -10  -2   3 207.675 7.74078   5
  10  -2  -3 201.542 8.01858   1
  10   2  -3 195.555 8.97203  11
  10   2  -3 211.769 9.14009   6
 -10   2   3 207.644 8.32104   5
  10   2  -3 194.970 8.73360   1
 -10   2   3 203.184 9.37559   3
  -8  -2   3 277.645 8.13238   5
  -8  -2   3 285.947 8.89099   8
   8  -2  -3 278.428 8.71557   6
  -8  -2   3 268.177 7.40303   2
   8  -2  -3 259.369 10.9629  13
   8  -2  -3 273.428 8.73310   1
   8   2  -3 276.108 9.39863   6
  -8   2   3 276.707 7.91425   8
  -8   2   3 278.174 9.64260   3
  -8   2   3 274.284 8.65783   5
   8   2  -3 291.045 9.61556   1
   8   2  -3 265.993 9.20553  11
  -6  -2   3 297.584 7.57542   5
   6  -2  -3 306.999 8.44920   1
   6  -2  -3 312.781 10.8348  13
  -6  -2   3 293.830 8.26393   1
  -6  -2   3 309.166 8.17836  12
   6  -2  -3 311.587 8.28768   6
   6   2  -3 300.626 9.02357   1
   6   2  -3 316.333 8.61767  11
  -6   2   3 303.165 8.84058   3
  -6   2   3 295.776 8.02696   5
   6   2  -3 315.446 8.82799   6
  -6   2   3 304.663 7.48148   8
  -6   2   3 307.534 7.72183  12
   6   2  -3 295.780 9.57809  13
   4  -2  -3 708.840 16.8233  13
  -4  -2   3 711.238 14.2366  12
  -4  -2   3 688.949 14.1809   6
   4  -2  -3 704.959 14.4724   6
  -4  -2   3 691.095 14.8004   1
   4  -2  -3 679.250 14.8265   1
   4   2  -3 713.664 16.2847  13
   4   2  -3 708.484 13.5751   4
   4   2  -3 691.572 15.1855   1
   4   2  -3 691.216 14.6350   6
  -4   2   3 709.098 15.0117   9
  -4   2   3 706.244 14.3075   1
  -4   2   3 697.511 13.8239  12
   4   2  -3 692.899 14.1765  11
  -4   2   3 702.384 14.7138   3
   2  -2  -3 447.782 9.64521   6
  -2  -2   3 455.263 9.51380   6
  -2  -2   3 452.416 9.82580   1
   2  -2  -3 437.613 8.80231   2
  -2  -2   3 494.268 9.07602   9
   2  -2  -3 460.868 11.0752  13
  -2  -2   3 466.459 11.1825  10
   2  -2  -3 456.952 10.0902   1
  -2  -2   3 454.333 9.35578  12
   2  -2  -3 436.477 11.4076  10
   2   2  -3 461.363 9.79028   1
  -2   2   3 453.532 9.50025   6
  -2   2   3 469.755 9.96255   1
  -2   2   3 452.494 9.99716   9
   2   2  -3 450.071 10.1281   7
  -2   2   3 457.846 9.43472   3
   2   2  -3 447.385 10.8392  10
   2   2  -3 462.183 9.02182  11
  -2   2   3 462.271 11.7794  10
  -2   2   3 440.279 9.07555  12
   2   2  -3 446.578 9.29923  14
   2   2  -3 452.221 9.38499   4
   0  -2   3 729.414 12.8255   6
   0  -2   3 706.743 13.6086   9
   0  -2   3 705.822 13.7012  12
   0  -2   3 721.837 15.8497  10
   0  -2  -3 724.509 14.5135  13
   0  -2  -3 701.707 14.2318   1
   0  -2  -3 713.771 14.0105   8
   0  -2  -3 702.202 14.0192   2
   0  -2  -3 693.222 16.0772  10
   0  -2   3 699.088 12.8096   6
   0  -2   3 705.951 13.4797   1
   0   2  -3 656.903 13.6307   3
   0   2  -3 702.205 14.2086   7
   0   2  -3 710.110 14.0125   5
   0   2  -3 724.763 13.9905   4
   0   2   3 708.455 14.0435   6
   0   2  -3 719.156 14.1854   8
   0   2  -3 707.122 14.2285   2
   0   2  -3 700.069 14.1523  14
   0   2   3 725.680 14.5382   1
   0   2   3 700.408 13.2255  11
   0   2   3 700.364 14.5600   9
   0   2   3 713.155 16.6207  10
  -2  -2  -3 654.943 13.6530   5
  -2  -2  -3 669.624 14.0645   2
   2  -2   3 675.073 17.1432  10
   2  -2   3 647.045 11.9891   1
  -2  -2  -3 652.866 13.3615  14
  -2  -2  -3 643.960 12.4953   4
  -2  -2  -3 635.118 13.2622   1
  -2  -2  -3 654.870 14.2939   8
  -2   2  -3 661.912 14.0223   2
  -2   2  -3 663.044 14.1519   8
  -2   2  -3 664.907 14.0554   7
   2   2   3 674.780 13.7895   6
   2   2   3 658.489 13.4367  11
  -2   2  -3 664.641 13.7222   3
   2   2   3 666.782 14.1961   1
   2   2   3 682.534 17.8845  10
  -2   2  -3 685.416 13.6130   4
  -2   2  -3 656.955 13.7754  14
  -2   2  -3 661.211 14.2458   5
  -4  -2  -3 265.578 7.69112   5
   4  -2   3 272.305 11.2506  10
  -4  -2  -3 271.614 6.94616  14
  -4  -2  -3 279.267 8.44974   8
  -4  -2  -3 284.900 7.96471   2
   4   2   3 264.926 7.75569  11
  -4   2  -3 278.169 7.72113   2
  -4   2  -3 281.871 8.16931   8
   4   2   3 280.382 7.74178   6
   4   2   3 272.849 11.6793  10
  -4   2  -3 275.142 6.94265   4
  -4   2  -3 284.484 8.29040   3
  -4   2  -3 290.554 8.02099   7
  -4   2  -3 272.734 8.24051   5
   4   2   3 287.001 8.05606   1
  -4   2  -3 276.564 7.28266  14
  -6  -2  -3 318.121 9.60053   2
   6  -2   3 326.847 7.07573   6
  -6  -2  -3 326.903 10.3840   8
   6  -2   3 318.928 9.44522  11
   6  -2   3 306.287 13.9284  10
  -6  -2  -3 313.881 9.62061   5
   6   2   3 315.425 9.48201   6
   6   2   3 314.299 9.97058  11
  -6   2  -3 324.393 9.10976   2
   6   2   3 315.860 9.52297   1
  -6   2  -3 314.468 10.0639   5
  -6   2  -3 314.808 9.71252   8
  -8  -2  -3 139.623 6.44764   2
  -8  -2  -3 147.322 7.32678   8
  -8  -2  -3 129.607 6.58449   5
   8  -2   3 144.100 6.90290  11
   8  -2   3 131.752 4.99606   6
   8   2   3 136.763 7.31356  11
   8   2   3 138.319 6.30466   1
  -8   2  -3 132.991 7.14400   5
   8   2   3 149.480 6.89326   6
  -8   2  -3 134.613 6.71641   8
  11  -3  -3 601.908 16.6917   6
 -11  -3   3 584.907 16.8336   8
  11  -3  -3 580.325 15.9381   1
  11  -3  -3 604.013 17.5530  11
  11   3  -3 613.907 18.3296   6
  11   3  -3 625.491 18.2886   1
 -11   3   3 605.807 18.6318   3
  11   3  -3 600.780 18.5109  11
 -11   3   3 594.747 16.9175   5
   9  -3  -3 45.3718 5.31635  13
   9  -3  -3 52.2081 3.84617   6
  -9  -3   3 50.2251 3.48760   5
   9  -3  -3 54.5274 3.92794   1
  -9  -3   3 47.3979 3.79479   8
   9   3  -3 43.4603 4.45680  11
   9   3  -3 49.1467 4.06116   6
  -9   3   3 44.4965 3.63026   5
  -9   3   3 63.7772 5.11787   3
   9   3  -3 48.6728 4.22205   1
   7  -3  -3 1878.91 42.0850  13
  -7  -3   3 1958.79 38.0660   1
  -7  -3   3 1996.58 38.0010  12
   7  -3  -3 1940.90 38.0137   1
  -7  -3   3 1974.76 38.2661   8
   7  -3  -3 1981.51 37.9390   6
  -7  -3   3 1949.67 36.8590   5
   7   3  -3 1978.81 38.7421  11
   7   3  -3 1996.46 39.7067   1
   7   3  -3 1956.40 39.1178   6
  -7   3   3 1943.93 39.1610   3
  -7   3   3 1886.28 36.3159   8
  -7   3   3 1992.52 38.0007   5
   5  -3  -3 167.345 5.42565   6
  -5  -3   3 176.959 5.28679  12
  -5  -3   3 171.229 5.78244   1
   5  -3  -3 170.237 5.68487   1
   5  -3  -3 176.839 7.50847  13
  -5   3   3 185.896 6.09870   9
   5   3  -3 180.137 5.56948  11
  -5   3   3 167.456 4.36603   8
  -5   3   3 167.360 4.92494   1
   5   3  -3 162.050 4.25800   4
  -5   3   3 170.252 4.76402  12
  -5   3   3 166.915 5.82120   3
   5   3  -3 171.772 6.19893   1
   5   3  -3 175.261 5.79168   6
   3  -3  -3 6131.34 118.613  13
  -3  -3   3 5904.51 112.958   1
  -3  -3   3 5747.65 111.129   6
   3  -3  -3 6009.30 114.350   6
  -3  -3   3 5811.45 109.886  12
   3  -3  -3 5624.45 112.794   1
  -3   3   3 5954.18 107.690  12
  -3   3   3 5988.45 116.505   9
   3   3  -3 5885.56 109.156  14
  -3   3   3 6047.29 125.397  10
   3   3  -3 6015.06 114.829   1
   3   3  -3 5925.56 113.493   7
  -3   3   3 5824.25 107.511   1
   3   3  -3 6090.39 108.974  11
   3   3  -3 5764.07 109.150   4
  -3   3   3 6126.78 113.416   3
   3   3  -3 6016.96 119.706  10
   1  -3  -3 742.533 14.9433   6
   1  -3  -3 726.220 16.8329  10
  -1  -3   3 742.491 14.9557   1
   1  -3  -3 719.244 15.4665   1
   1  -3  -3 804.247 14.6675   2
  -1  -3   3 769.690 15.9985  10
  -1  -3   3 743.983 14.4232  12
   1  -3  -3 764.779 14.2901   8
  -1  -3   3 765.402 14.5132   6
   1  -3  -3 758.713 16.1398  13
  -1   3   3 747.276 14.2553  12
  -1   3   3 769.854 15.5319   1
   1   3  -3 773.363 14.9004   1
   1   3  -3 755.637 15.0147   4
   1   3  -3 750.281 15.5336  10
  -1   3   3 752.078 17.1866  10
   1   3  -3 751.787 15.0246  14
  -1   3   3 737.856 15.4351   9
   1   3  -3 739.456 13.9994   3
   1   3  -3 765.213 15.5735   7
  -1   3   3 737.206 14.3907  11
   1   3  -3 752.830 14.2661  11
  -1   3   3 725.660 14.9493   6
  -1  -3  -3 5468.83 97.4835   1
  -1  -3  -3 5579.87 106.845  13
   1  -3   3 5728.65 116.959  10
  -1  -3  -3 5349.71 104.394   2
  -1  -3  -3 5512.99 102.410   8
   1  -3   3 5315.55 101.014   1
   1   3   3 5783.25 118.508  10
   1   3   3 5560.56 106.917   9
  -1   3  -3 5543.70 97.5107   2
  -1   3  -3 5517.40 105.209  14
  -1   3  -3 5317.66 102.152   4
   1   3   3 5578.84 107.287   1
  -1   3  -3 5424.85 97.2564   5
  -1   3  -3 5538.19 104.298   3
   1   3   3 5442.92 96.6462  11
   1   3   3 5551.42 107.659   6
  -1   3  -3 5615.19 105.194   8
  -1   3  -3 5485.54 105.067   7
  -3  -3  -3 393.139 9.72589   1
  -3  -3  -3 397.831 9.89374   2
  -3  -3  -3 378.777 9.22170   5
  -3  -3  -3 394.951 10.2281   8
   3  -3   3 381.069 12.4795  10
  -3  -3  -3 409.696 9.15689  14
   3   3   3 394.740 13.8272  10
  -3   3  -3 391.576 9.33440   4
   3   3   3 392.024 10.2769   1
  -3   3  -3 390.538 9.73424   2
  -3   3  -3 392.802 9.74234   3
  -3   3  -3 389.421 10.1689   7
  -3   3  -3 399.347 9.87470   8
  -3   3  -3 385.541 10.0441   5
   3   3   3 393.272 9.97566   6
   3   3   3 400.487 9.75852  11
  -3   3  -3 401.593 9.59301  14
  -5  -3  -3 1675.05 33.6182   8
  -5  -3  -3 1669.43 32.8047   2
   5  -3   3 1606.64 38.3370  10
  -5  -3  -3 1600.88 30.9601  14
   5  -3   3 1607.88 34.3488  13
  -5  -3  -3 1566.90 31.9795   5
  -5   3  -3 1614.86 31.2323   4
   5   3   3 1614.82 39.9062  10
  -5   3  -3 1627.90 31.4514  14
  -5   3  -3 1718.62 33.0949   8
   5   3   3 1627.43 33.1454   1
  -5   3  -3 1699.33 33.3061   7
   5   3   3 1613.41 32.9155   6
   5   3   3 1589.07 32.9177  11
  -5   3  -3 1687.10 33.4025   5
  -5   3  -3 1657.55 33.1774   3
  -5   3  -3 1598.02 32.0639   2
   7  -3   3 90.3282 5.09353  11
  -7  -3  -3 85.1616 5.28342   8
  -7  -3  -3 77.5462 4.60931   2
   7  -3   3 82.0125 2.99648   6
  -7  -3  -3 77.5996 4.74588   5
   7   3   3 77.9777 4.70882   1
   7   3   3 76.9483 5.53832  11
  -7   3  -3 89.2707 4.96379   8
  -7   3  -3 78.1780 5.28815   5
   7   3   3 81.1852 5.13838   6
  -9  -3  -3 387.848 12.0546   2
   9  -3   3 382.541 12.6711  11
  -9  -3  -3 402.940 13.7088   8
   9  -3   3 388.499 10.2446   6
   9   3   3 390.152 12.5329   1
   9   3   3 396.153 13.2108   6
  -9   3  -3 370.974 13.0945   5
 -10  -4   3 175.316 7.85702   8
  10  -4  -3 177.219 7.30698   1
  10  -4  -3 171.117 7.41271   6
  10   4  -3 183.628 9.27594  11
  10   4  -3 166.866 8.27003   6
 -10   4   3 188.416 9.02713   3
  10   4  -3 174.127 8.87082   1
 -10   4   3 178.466 8.00169   5
   8  -4  -3 260.998 8.41433   6
  -8  -4   3 262.346 8.91804   8
   8  -4  -3 259.592 8.41060   1
   8  -4  -3 255.946 11.4672  13
   8   4  -3 248.997 9.69444   1
  -8   4   3 258.557 8.64424   5
   8   4  -3 244.765 9.36993  11
  -8   4   3 257.088 9.55224   3
   8   4  -3 244.393 9.21809   6
  -6  -4   3 351.190 8.45921   5
  -6  -4   3 375.771 10.1355   8
   6  -4  -3 380.831 9.81821   6
   6  -4  -3 350.548 12.7626  13
   6  -4  -3 389.544 10.1138   1
  -6  -4   3 382.409 9.81803  12
  -6  -4   3 345.285 10.0541   1
  -6   4   3 363.923 10.4687   3
  -6   4   3 365.540 9.68570   5
   6   4  -3 362.201 10.3145   6
   6   4  -3 374.529 11.0125   1
  -6   4   3 364.771 8.70460  12
   6   4  -3 365.624 10.1060  11
   4  -4  -3 1307.96 28.5841  13
  -4  -4   3 1301.64 24.7959  12
  -4  -4   3 1291.76 26.0670   1
   4  -4  -3 1328.09 25.8532   1
  -4  -4   3 1287.66 25.2650   6
   4  -4  -3 1287.96 25.3271   6
  -4   4   3 1289.68 23.8760  12
  -4   4   3 1301.00 25.7111   3
   4   4  -3 1262.38 25.3269   6
  -4   4   3 1288.14 25.7791   9
   4   4  -3 1254.00 24.1629   4
   4   4  -3 1295.68 25.2389  11
   4   4  -3 1320.00 26.1784   7
   4   4  -3 1294.43 26.2863   1
   2  -4  -3 914.112 17.0814   2
   2  -4  -3 896.314 19.9500  13
  -2  -4   3 879.138 17.8285   6
  -2  -4   3 920.624 17.2625  12
   2  -4  -3 873.939 18.1327   6
  -2  -4   3 902.243 18.4326   1
   2  -4  -3 907.261 18.7907   1
   2   4  -3 894.423 18.0970   1
  -2   4   3 892.427 16.7490  12
   2   4  -3 900.973 18.7352   7
   2   4  -3 917.660 17.6511  11
  -2   4   3 911.744 20.1731  10
  -2   4   3 903.162 18.4002   1
   2   4  -3 921.942 17.8948  14
   2   4  -3 913.393 17.8877   4
  -2   4   3 911.177 18.2486   3
  -2   4   3 907.159 18.4027   9
   2   4  -3 902.527 18.3379  10
   0  -4   3 1313.34 24.0381  12
   0  -4   3 1347.77 25.6941  10
   0  -4  -3 1295.97 24.8224   2
   0  -4  -3 1274.49 25.6574   1
   0  -4  -3 1266.77 24.7818   6
   0  -4   3 1281.02 24.4540   1
   0  -4   3 1293.60 23.8697   6
   0  -4  -3 1331.39 25.6356  13
   0  -4  -3 1285.84 24.3782   8
   0   4  -3 1312.55 24.2437   3
   0   4  -3 1300.50 25.1637   4
   0   4   3 1296.46 24.5310  11
   0   4  -3 1293.29 25.1814  14
   0   4   3 1335.40 27.8371  10
   0   4  -3 1324.60 24.5680   5
   0   4   3 1307.57 25.2250   6
   0   4  -3 1306.33 25.8257   7
   0   4   3 1317.51 25.8725   1
   0   4   3 1308.46 25.5742   9
  -2  -4  -3 890.401 18.2564   2
   2  -4   3 850.150 20.2457  10
   2  -4   3 838.548 15.9786   1
  -2  -4  -3 823.697 18.0103   1
  -2  -4  -3 861.703 18.2374   8
  -2   4  -3 878.656 17.8537   8
   2   4   3 901.528 19.1596   1
  -2   4  -3 851.091 18.1264   5
  -2   4  -3 861.278 17.9811  14
   2   4   3 855.813 18.9252   9
   2   4   3 855.545 17.7140  11
  -2   4  -3 861.994 18.8485   7
  -2   4  -3 879.199 18.0037   4
  -2   4  -3 861.598 18.0813   2
   2   4   3 871.386 18.4391   6
  -2   4  -3 895.056 17.8292   3
   2   4   3 905.070 22.3002  10
   4  -4   3 219.166 9.61950  10
  -4  -4  -3 231.045 7.44432   2
  -4  -4  -3 243.427 7.98616   8
  -4  -4  -3 235.540 6.60050  14
  -4  -4  -3 225.822 6.59071   5
   4   4   3 237.450 7.90365   6
  -4   4  -3 228.957 7.21900   8
  -4   4  -3 230.337 6.87523   4
  -4   4  -3 239.594 7.76374   5
  -4   4  -3 242.511 7.27302   2
  -4   4  -3 231.373 7.01429  14
   4   4   3 250.461 11.5094  10
  -4   4  -3 240.283 8.08344   7
  -4   4  -3 228.247 7.37843   3
   4   4   3 229.660 8.01315   1
   4   4   3 231.330 7.48632  11
   6  -4   3 202.028 10.7098  10
  -6  -4  -3 224.565 8.17979   2
  -6  -4  -3 218.953 8.60846   8
  -6   4  -3 230.557 8.48762   3
  -6   4  -3 225.610 8.44365   5
   6   4   3 219.492 8.62009  11
   6   4   3 223.574 8.62587   6
   6   4   3 232.971 8.77994   1
  -6   4  -3 212.126 7.67293   8
   8  -4   3 75.2684 3.13317   6
  -8  -4  -3 68.1355 5.23199   8
  -8  -4  -3 71.4849 5.09670   2
   8  -4   3 70.3048 5.07986  11
  -8   4  -3 68.1428 5.37422   5
   8   4   3 75.0359 5.39881   1
   8   4   3 69.6558 5.88813  11
   8   4   3 71.6902 5.54153   6
 -11  -5   3 211.164 9.54994   8
  11  -5  -3 218.991 8.92070   6
  11   5  -3 228.388 10.7484   1
 -11   5   3 233.725 9.73904   5
  11   5  -3 235.347 10.8141  11
 -11   5   3 218.382 10.6314   3
  -9  -5   3 630.390 15.7419   2
   9  -5  -3 597.326 20.9623  13
  -9  -5   3 639.083 17.1715   8
   9  -5  -3 644.163 16.0843   1
   9  -5  -3 637.242 16.1027   6
   9   5  -3 655.491 18.2889  11
   9   5  -3 634.751 18.5572   1
  -9   5   3 640.261 18.0269   3
  -9   5   3 641.285 16.7407   5
   7  -5  -3 788.889 18.2077   1
  -7  -5   3 815.273 19.0084   1
  -7  -5   3 810.336 18.7750   8
   7  -5  -3 809.860 18.2100   6
   7  -5  -3 769.603 22.8248  13
  -7   5   3 779.273 19.1797   3
   7   5  -3 790.639 19.0069   7
   7   5  -3 779.233 19.2852   6
   7   5  -3 806.555 20.2160   1
  -7   5   3 793.030 18.1319   5
   7   5  -3 783.913 19.0476  11
   5  -5  -3 1478.72 29.1190   6
  -5  -5   3 1493.24 28.6036  12
   5  -5  -3 1439.63 29.3204   1
  -5  -5   3 1496.00 30.1041   1
   5  -5  -3 1487.16 33.5765  13
  -5   5   3 1481.74 28.6330   5
  -5   5   3 1435.09 29.5814   9
   5   5  -3 1408.15 29.7927   7
  -5   5   3 1493.96 29.9485   3
   5   5  -3 1458.11 30.4959   1
  -5   5   3 1444.55 27.2111  12
   5   5  -3 1499.74 29.5000  11
  -3  -5   3 1239.61 24.5400   1
   3  -5  -3 1212.35 26.7209  13
  -3  -5   3 1187.26 23.6443   6
   3  -5  -3 1175.77 24.2439   1
   3  -5  -3 1109.26 21.7143   2
   3  -5  -3 1191.93 23.7185   6
  -3  -5   3 1197.82 22.6186  12
   3   5  -3 1205.40 24.4474   7
   3   5  -3 1173.95 22.9302   4
   3   5  -3 1177.71 24.0408  10
  -3   5   3 1206.20 24.0070   3
  -3   5   3 1168.14 21.5407  12
  -3   5   3 1148.86 23.3888   1
  -3   5   3 1207.09 25.8176  10
   3   5  -3 1224.33 23.4874  11
  -3   5   3 1177.60 23.8003   9
   3   5  -3 1171.18 24.0326   1
  -1  -5   3 1360.03 26.4428   1
   1  -5  -3 1336.44 24.6074   8
   1  -5  -3 1348.44 25.6516   2
  -1  -5   3 1404.11 25.9738   6
   1  -5  -3 1418.80 28.0715  13
  -1  -5   3 1345.34 24.9046  12
   1  -5  -3 1374.61 27.3567   1
   1  -5  -3 1294.14 26.2962   6
  -1   5   3 1349.74 26.6150   9
  -1   5   3 1389.96 27.0757   1
  -1   5   3 1317.67 24.6184  12
   1   5  -3 1306.29 25.4309   1
   1   5  -3 1353.98 25.5522   3
   1   5  -3 1375.69 26.3862   4
   1   5  -3 1381.09 25.8248  11
  -1   5   3 1359.80 26.7572   3
   1   5  -3 1370.32 26.4838  14
  -1   5   3 1381.69 28.4762  10
  -1   5   3 1332.37 25.9108  11
   1   5  -3 1388.92 27.3269   7
  -1   5   3 1343.21 26.1751   6
  -1  -5  -3 869.121 17.1167  13
  -1  -5  -3 812.279 17.2124   2
   1  -5   3 807.098 17.6844  10
   1  -5   3 822.662 16.2513   1
   1  -5   3 808.357 15.9208  12
   1  -5   3 819.723 15.6569   6
  -1  -5  -3 810.099 16.8659   8
  -1   5  -3 826.724 17.4819   4
   1   5   3 840.490 18.4735   1
  -1   5  -3 816.762 16.9261   5
   1   5   3 847.239 18.0196   9
  -1   5  -3 809.983 18.1991   7
   1   5   3 812.379 17.5948   6
  -1   5  -3 828.225 17.6207  14
   1   5   3 811.394 20.0949  10
  -1   5  -3 829.117 16.7437   3
   1   5   3 804.519 16.9834  11
  -3  -5  -3 926.274 20.2351   8
   3  -5   3 907.487 22.4283  10
  -3  -5  -3 962.521 20.3013   2
  -3   5  -3 935.509 19.4777   8
  -3   5  -3 910.375 19.7405   4
  -3   5  -3 931.757 21.1237   7
   3   5   3 948.563 21.2847   9
   3   5   3 928.139 20.6503   6
  -3   5  -3 936.396 19.8188   3
  -3   5  -3 940.497 19.9926  14
   3   5   3 939.795 24.8551  10
  -3   5  -3 943.355 20.0691   5
   3   5   3 933.281 21.4018   1
   3   5   3 923.430 20.0202  11
  -3   5  -3 926.756 19.8554   2
  -5  -5  -3 447.937 11.1804  14
  -5  -5  -3 468.967 12.7429   2
  -5  -5  -3 458.369 13.1579   8
   5  -5   3 464.963 15.0646  13
  -5   5  -3 485.226 13.7931   7
   5   5   3 463.850 18.0617  10
   5   5   3 457.782 13.6741   1
  -5   5  -3 475.306 12.1728   8
   5   5   3 469.225 13.5574   6
  -5   5  -3 468.004 12.8463   5
   5   5   3 470.484 13.2960  11
  -5   5  -3 488.900 12.9782   3
  -5   5  -3 473.690 12.0338   4
  -5   5  -3 480.350 12.0488  14
   7  -5   3 572.638 11.4068   6
  -7  -5  -3 564.746 15.5452   2
  -7  -5  -3 579.572 16.5588   8
   7   5   3 570.450 16.8271   1
   7   5   3 569.467 16.8018  11
  -7   5  -3 567.748 15.9946   5
  -7   5  -3 605.822 16.6398   3
   7   5   3 566.656 16.8069   6
  -9  -5  -3 198.699 9.65642   8
   9  -5   3 202.488 8.78424  11
   9  -5   3 197.681 5.92639   6
  -9  -5  -3 195.115 8.32659   2
  -9   5  -3 200.777 9.22329   5
   9   5   3 190.620 9.08650   1
   9   5   3 208.398 9.73096   6
   9   5   3 193.493 10.7444   9
   9   5   3 188.832 9.22958  11
 -10  -6   3 55.1722 5.24077   8
 -10  -6   3 50.4520 4.13855   2
  10  -6  -3 53.6438 4.40540   6
  10  -6  -3 49.7469 3.95516   1
 -10   6   3 53.3298 5.23425   5
 -10   6   3 57.1960 5.72444   3
  10   6  -3 51.3580 5.72225   1
  10   6  -3 47.6956 5.75579  11
  -8  -6   3 182.745 7.90933   8
   8  -6  -3 190.418 7.26468   1
   8  -6  -3 195.120 7.38961   6
   8  -6  -3 186.376 10.9007  13
   8   6  -3 191.180 9.11026   1
   8   6  -3 207.807 9.00761  11
  -8   6   3 192.516 7.59002   5
  -8   6   3 187.749 8.37347   3
   6  -6  -3 551.954 13.6093   6
  -6  -6   3 540.542 14.5567   1
  -6  -6   3 553.581 13.9276   8
   6  -6  -3 542.212 17.7870  13
   6  -6  -3 547.877 13.7733   1
   6   6  -3 537.841 14.1894  11
  -6   6   3 556.103 14.7033   3
   6   6  -3 519.633 14.1205   7
   6   6  -3 533.449 15.1097   1
  -6   6   3 535.800 13.2580   5
   4  -6  -3 336.246 9.51707   1
  -4  -6   3 319.218 9.71597   1
   4  -6  -3 332.169 9.16381   6
   4  -6  -3 325.836 11.9364  13
  -4  -6   3 317.384 8.04169  12
  -4  -6   3 303.100 8.80577   6
   4   6  -3 320.521 9.56977   7
   4   6  -3 331.754 8.03583   4
  -4   6   3 331.953 9.18244   9
   4   6  -3 328.939 9.07071  11
  -4   6   3 314.877 8.12424   5
   4   6  -3 318.180 9.61868   1
  -4   6   3 319.004 9.38990   3
  -2  -6   3 1076.41 20.8549  12
  -2  -6   3 1081.65 23.0426   1
   2  -6  -3 1091.98 21.3428   2
   2  -6  -3 1131.02 22.9416   6
   2  -6  -3 1119.78 23.6010   1
   2  -6  -3 1121.65 25.2291  13
  -2  -6   3 1117.81 22.5965   6
  -2   6   3 1110.57 24.1128  10
  -2   6   3 1111.37 22.6721   9
   2   6  -3 1116.06 23.6116   7
   2   6  -3 1102.50 22.3975   1
  -2   6   3 1133.87 22.9850   1
  -2   6   3 1116.97 23.0695   3
   2   6  -3 1122.64 22.2546  11
   2   6  -3 1093.36 22.3156   4
   0  -6   3 613.369 13.6115   1
   0  -6  -3 604.218 13.5269   2
   0  -6  -3 592.025 13.7957   6
   0  -6  -3 618.408 14.7045  13
   0  -6   3 614.368 13.2243   6
   0  -6  -3 591.700 12.4998   8
   0  -6  -3 608.258 14.7439   1
   0   6   3 621.023 14.1887   9
   0   6   3 620.650 14.8777   1
   0   6   3 603.725 13.8731   6
   0   6   3 620.982 15.8519  10
   0   6   3 604.160 13.6439  11
   0   6  -3 611.409 15.0081   7
   0   6  -3 621.616 13.2977   3
   0   6  -3 633.013 14.1851   4
  -2  -6  -3 281.876 8.12101   8
   2  -6   3 284.555 6.62854   6
   2  -6   3 283.589 6.98431   1
  -2  -6  -3 292.627 8.48344   2
   2   6   3 292.643 8.37808  11
  -2   6  -3 288.821 8.60132  14
   2   6   3 276.468 8.65940   6
   2   6   3 285.027 8.91527   9
  -2   6  -3 286.443 8.10757   5
   2   6   3 285.323 9.40948   1
  -2   6  -3 295.709 9.47928   7
  -2   6  -3 293.419 8.17944   3
  -2   6  -3 295.153 8.58819   4
   2   6   3 283.485 10.8629  10
  -4  -6  -3 453.742 12.3179   2
   4  -6   3 444.252 8.63628   6
  -4  -6  -3 450.835 12.4857   8
  -4  -6  -3 449.512 11.2075  14
  -4   6  -3 453.468 12.2315   3
   4   6   3 456.719 16.7379  10
   4   6   3 446.208 13.3635   9
  -4   6  -3 441.760 13.3427   7
  -4   6  -3 458.851 12.2807   5
   4   6   3 455.384 12.5033  11
   4   6   3 441.574 13.0021   6
  -4   6  -3 450.667 12.0033   4
   4   6   3 439.254 13.4906   1
  -6  -6  -3 51.0625 4.38397   2
   6  -6   3 43.7650 1.71657   6
  -6  -6  -3 47.3968 4.47024   8
   6  -6   3 41.5157 4.93863  13
  -6   6  -3 44.7664 4.42605   5
   6   6   3 40.1429 4.36829   6
  -6   6  -3 45.2243 4.73955   7
   6   6   3 32.0063 4.51777   9
   6   6   3 44.0563 4.67622   1
   6   6   3 40.5194 4.18714  11
  -6   6  -3 44.2613 4.10508   3
  -8  -6  -3 71.8117 5.43935   2
  -8  -6  -3 70.6243 5.52943   8
   8  -6   3 70.1790 2.96083   6
  -8   6  -3 72.0711 5.65259   3
   8   6   3 76.2422 7.18168   9
   8   6   3 66.4558 5.44639  11
  -8   6  -3 78.4191 5.93016   5
   8   6   3 75.1901 6.13578   6
   8   6   3 84.5885 6.34659   1
  -9  -7   3 462.651 14.6131   8
   9  -7  -3 502.464 14.1749   6
   9  -7  -3 482.030 13.4328   1
  -9  -7   3 482.819 13.8741   2
  -9   7   3 488.380 15.6237   3
  -9   7   3 475.091 14.0881   5
   9   7  -3 479.512 16.4108   1
   9   7  -3 459.819 15.4076  11
  -7  -7   3 53.5335 4.30811   8
   7  -7  -3 50.0918 3.84947   1
   7  -7  -3 46.4252 5.59450  13
   7  -7  -3 57.8534 4.04503   6
  -7  -7   3 54.8797 4.61945   1
   7   7  -3 59.2528 4.92948   1
  -7   7   3 58.5237 4.82778   3
  -7   7   3 63.7277 4.17378   5
   7   7  -3 53.7533 4.27955  11
   5  -7  -3 1335.75 33.1797  13
  -5  -7   3 1334.97 27.8713   8
   5  -7  -3 1365.87 28.5042   1
  -5  -7   3 1371.03 29.4936   1
   5  -7  -3 1344.05 28.0985   6
  -5   7   3 1334.40 28.7645   3
   5   7  -3 1359.16 28.9473   7
  -5   7   3 1381.55 27.0637   5
   5   7  -3 1338.23 28.3690  11
  -5   7   3 1301.63 27.9553   9
   5   7  -3 1335.36 29.5420   1
   3  -7  -3 358.223 12.7550  13
  -3  -7   3 368.793 10.2073   6
   3  -7  -3 373.514 10.4418   6
   3  -7  -3 365.459 10.7614   1
  -3  -7   3 396.600 11.1756   1
  -3   7   3 395.138 10.8837   3
   3   7  -3 378.846 10.9591   7
   3   7  -3 377.167 10.4319   1
  -3   7   3 366.946 8.77387   5
  -3   7   3 370.380 9.99132   9
  -3   7   3 359.072 9.76410   1
   3   7  -3 375.738 10.0804  11
   3   7  -3 370.640 9.58957   4
   1  -7  -3 2634.85 49.4102   2
   1  -7  -3 2754.47 52.8743  13
   1  -7  -3 2580.89 50.4443   6
   1  -7  -3 2787.82 51.9279   1
  -1  -7   3 2695.69 50.2120   6
  -1  -7   3 2612.87 50.5289   1
  -1   7   3 2809.47 51.4369   3
   1   7  -3 2719.89 49.9207  11
   1   7  -3 2738.60 51.9633   7
   1   7  -3 2618.34 49.5703   3
  -1   7   3 2626.45 51.4761  10
  -1   7   3 2726.43 50.3185   9
  -1   7   3 2604.37 50.7780   1
   1   7  -3 2676.49 50.4094   4
  -1  -7  -3 490.889 12.6682  13
  -1  -7  -3 479.325 11.4419   8
  -1  -7  -3 500.501 12.4382   2
   1  -7   3 498.613 11.5749   6
   1  -7   3 507.861 11.9375   1
  -1   7  -3 521.000 12.9809   4
  -1   7  -3 523.899 14.0562   7
   1   7   3 500.584 12.5809  11
   1   7   3 493.531 14.5971  10
  -1   7  -3 497.392 12.0607   3
  -1   7  -3 505.824 11.6424   5
   1   7   3 512.751 13.9085   1
   1   7   3 523.055 12.9470   9
  -3  -7  -3 1636.50 33.0440   8
   3  -7   3 1620.71 30.5516   6
  -3  -7  -3 1634.78 33.3534   2
   3   7   3 1628.31 34.1747   9
   3   7   3 1617.65 38.0729  10
   3   7   3 1621.80 34.1880   6
   3   7   3 1593.26 35.2014   1
   3   7   3 1586.04 33.3463  11
  -3   7  -3 1696.51 33.0273   5
  -3   7  -3 1651.63 33.0020   3
  -3   7  -3 1677.72 35.3520   7
  -3   7  -3 1674.96 33.4993   4
   5  -7   3 107.591 7.61817  13
   5  -7   3 111.374 3.53262   6
  -5  -7  -3 107.823 6.01552   8
  -5  -7  -3 108.383 5.65619   2
  -5  -7  -3 104.503 4.80795  14
   5   7   3 102.671 6.27346   6
  -5   7  -3 116.763 6.60927   7
   5   7   3 110.502 6.79233   9
   5   7   3 107.529 6.53333   1
   5   7   3 99.2696 6.28680  11
  -5   7  -3 109.228 5.56152   3
  -5   7  -3 108.656 5.83676   5
  -7  -7  -3 417.074 13.4136   2
   7  -7   3 423.991 9.42955   6
  -7  -7  -3 426.051 14.0525   8
  -7   7  -3 422.479 13.5545   5
  -7   7  -3 424.294 13.6121   3
   7   7   3 433.432 15.3934   9
   7   7   3 422.632 14.7853   6
   7   7   3 434.092 15.1649   1
 -10  -8   3 34.9415 4.00605   2
 -10  -8   3 32.5242 4.16624   8
  10  -8  -3 41.4974 4.40041   6
 -10   8   3 32.6455 4.80504   3
 -10   8   3 29.1711 3.72861   5
  10   8  -3 34.4397 5.43439   1
  10   8  -3 31.7123 5.12260  11
   8  -8  -3 101.724 9.01738  13
   8  -8  -3 114.124 6.07641   6
  -8  -8   3 102.670 6.30232   8
  -8  -8   3 108.011 6.33698   1
   8  -8  -3 104.602 5.47796   1
   8   8  -3 107.709 7.17254  11
  -8   8   3 106.681 5.83759   5
  -8   8   3 116.437 7.09671   3
   8   8  -3 103.712 7.03026   1
  -6  -8   3 233.982 8.52717   8
   6  -8  -3 209.751 11.6111  13
   6  -8  -3 233.270 8.46083   1
   6  -8  -3 226.952 8.31391   6
  -6  -8   3 228.921 9.33534   1
   6   8  -3 218.589 8.73302  11
   6   8  -3 227.619 8.80845   7
  -6   8   3 209.549 7.41501   5
   6   8  -3 238.064 9.86172   1
  -6   8   3 228.729 8.98393   3
   4  -8  -3 35.5425 3.19576   1
  -4  -8   3 38.0342 3.30252   6
  -4  -8   3 33.0083 3.56139   1
   4  -8  -3 32.3399 4.24454  13
   4  -8  -3 33.7038 3.16300   6
   4   8  -3 39.8163 3.78079   7
  -4   8   3 32.1478 3.08200   3
   4   8  -3 34.0007 2.53597   4
  -4   8   3 39.3182 3.10318   9
   4   8  -3 32.9978 3.32362   1
   4   8  -3 31.2736 3.18436  11
   2  -8  -3 322.621 9.75520   6
  -2  -8   3 327.619 10.1418   1
   2  -8  -3 319.865 10.4394   1
   2  -8  -3 301.376 9.19502   2
  -2  -8   3 332.152 9.70056   6
   2  -8  -3 316.106 11.7523  13
  -2   8   3 322.318 9.14546   9
  -2   8   3 304.517 10.1056   7
   2   8  -3 301.157 10.3570   7
   2   8  -3 311.520 9.14199   4
  -2   8   3 311.391 9.40450   1
   2   8  -3 325.542 9.30704  11
   2   8  -3 331.763 9.33556   3
  -2   8   3 315.946 10.0932   3
   0  -8   3 133.228 5.55221   1
   0  -8  -3 138.210 5.43143   2
   0  -8   3 131.333 5.24084   6
   0  -8  -3 137.909 6.46368   1
   0  -8  -3 150.696 6.65574  13
   0   8  -3 129.033 5.65852   4
   0   8   3 126.564 6.16442   3
   0   8  -3 128.482 6.47902   7
   0   8   3 129.197 5.98485   1
   0   8   3 140.053 5.58526   9
   0   8  -3 128.973 5.24608   3
   0   8   3 132.323 5.52244  11
   2  -8   3 94.3539 4.14619   1
   2  -8   3 95.5408 4.14317   6
  -2  -8  -3 103.652 5.00898   2
  -2   8  -3 102.458 5.19729   4
  -2   8  -3 93.1403 4.68913   3
   2   8   3 93.2365 5.63081   1
   2   8   3 96.8459 5.18196  11
  -2   8  -3 104.727 6.18139   7
  -2   8  -3 104.539 4.56781   5
   2   8   3 93.5692 5.07711   9
   4  -8   3 284.096 12.8362  13
  -4  -8  -3 279.513 9.53278   8
  -4  -8  -3 295.884 9.99002   2
   4  -8   3 285.827 7.62417   6
   4   8   3 268.827 9.77794  11
  -4   8  -3 281.920 9.56003   3
  -4   8  -3 284.402 11.1987   7
   4   8   3 265.693 11.0846   1
   4   8   3 281.808 10.3906   9
  -4   8  -3 290.026 9.44046   5
  -6  -8  -3 62.8446 4.82808   8
  -6  -8  -3 62.4061 5.13184   2
   6   8   3 59.7424 5.82638   9
   6   8   3 64.1719 5.78694  11
   6   8   3 56.3465 5.72934   1
  -6   8  -3 73.7648 5.16548   5
  -6   8  -3 52.0126 4.66958   3
  -6   8  -3 74.6943 6.32121   7
   9  -9  -3 160.910 10.9662   1
  -9  -9   3 192.851 8.47030   2
   9  -9  -3 208.490 8.72199   6
  -9  -9   3 198.223 8.99220   8
  -9   9   3 203.798 9.67778   3
   9   9  -3 201.978 10.2517  11
   9   9  -3 205.773 10.5581   1
  -9   9   3 198.326 8.47601   5
  -7  -9   3 820.110 21.8159   1
  -7  -9   3 844.149 20.7604   8
   7  -9  -3 818.704 20.4338   6
   7  -9  -3 785.973 26.4717  13
   7  -9  -3 801.912 20.0494   1
   7   9  -3 786.893 21.1677  11
  -7   9   3 809.328 21.6500   3
   7   9  -3 870.943 23.2285   1
  -7   9   3 794.711 19.1515   5
  -5  -9   3 342.167 12.0424   1
   5  -9  -3 331.382 11.0431   1
   5  -9  -3 342.668 11.0779   6
  -5  -9   3 320.259 10.1350   8
   5  -9  -3 330.501 14.8165  13
   5   9  -3 326.139 11.5749   1
   5   9  -3 327.078 11.0207  11
  -5   9   3 325.352 11.1667   3
   5   9  -3 353.691 11.7039   7
   3  -9  -3 786.612 19.7012   1
   3  -9  -3 783.197 19.1673   6
  -3  -9   3 784.603 19.0642   6
  -3  -9   3 768.645 19.6867   1
   3  -9  -3 789.830 22.8349  13
   3   9  -3 797.319 18.6842  11
   3   9  -3 749.009 17.6947   4
  -3   9   3 767.149 19.3965   3
   3   9  -3 764.011 18.3859   3
   3   9  -3 792.861 20.0540   7
   1  -9  -3 165.614 6.11831   2
  -1  -9   3 165.384 6.73721   6
   1  -9  -3 161.323 6.78760   6
   1  -9  -3 176.555 7.82762   1
   1  -9  -3 167.497 8.24133  13
  -1  -9   3 166.518 7.07580   1
  -1   9   3 174.011 7.52737   3
   1   9  -3 162.051 6.41444   3
  -1   9   3 161.451 6.89545   1
  -1   9   3 159.972 6.85935   7
   1   9  -3 158.765 6.68721   4
   1   9  -3 165.053 7.79716   7
  -1  -9  -3 513.941 13.6476   2
  -1  -9  -3 545.441 15.4996   1
   1  -9   3 524.892 13.4096   6
   1  -9   3 533.561 13.5387   1
  -1   9  -3 534.498 15.8020   7
  -1   9  -3 512.300 13.4597   3
  -1   9  -3 530.347 14.6262   4
   1   9   3 529.472 15.4354   1
   1   9   3 494.826 13.9315  11
   3  -9   3 140.010 5.59710   6
  -3  -9  -3 126.549 6.50867   2
  -3   9  -3 122.180 6.05784   3
  -3   9  -3 140.270 7.89772   7
   3   9   3 143.495 7.74294   1
   3   9   3 132.097 6.83296  11
  -3   9  -3 137.059 6.94783   4
  -5  -9  -3 532.634 14.0102  14
  -5  -9  -3 526.113 15.5977   2
   5  -9   3 559.602 12.9380   6
  -5   9  -3 547.395 15.0204   5
  -5   9  -3 530.282 17.3584   7
  -5   9  -3 540.566 15.3908   3
   5   9   3 514.917 17.5515   1
   5   9   3 511.313 16.0748  11
   8 -10  -3 6.30593 2.34762   6
   8 -10  -3 2.04564 1.71688   1
  -8 -10   3 3.69981 2.35466   8
   8  10  -3 3.85983 2.97378  11
  -8  10   3 3.69301 2.80875   3
   8  10  -3 3.50880 2.71696   1
  -6 -10   3 36.7337 4.10162   8
  -6 -10   3 47.0005 4.67879   1
   6 -10  -3 48.0268 4.08088   1
   6 -10  -3 49.8830 4.49434   6
   6  10  -3 45.3556 4.64632  11
  -6  10   3 40.0519 4.89365   3
   6  10  -3 42.7124 4.46137   1
   4 -10  -3 4.57812 1.69738   6
  -4 -10   3 6.46388 2.57765   1
   4 -10  -3 4.76685 2.49701  13
   4 -10  -3 6.28820 2.26430   1
   4  10  -3 4.89543 1.82354  11
  -4  10   3 4.83936 2.34154   3
   4  10  -3 3.29477 1.96854   7
   2 -10  -3 73.0810 5.42254   1
   2 -10  -3 75.5795 4.91429   6
   2 -10  -3 76.6210 6.43591  13
  -2 -10   3 78.0448 5.15438   1
  -2 -10   3 74.4840 4.96314   6
   2  10  -3 74.3390 4.71947   4
   2  10  -3 69.1981 5.54247   7
   2  10  -3 77.0812 4.79048   3
  -2  10   3 74.2161 5.43271   3
   2  10  -3 78.0717 4.69543  11
   0 -10  -3 5.44476 2.00435   1
   0 -10   3 6.63862 1.93049   1
   0 -10   3 5.67174 1.93536   6
   0 -10  -3 4.10681 1.80249   2
   0  10   3 7.38386 2.20542   3
   0  10  -3 5.73197 2.57321   7
   0  10   3 5.88004 1.83994   1
   0  10  -3 7.57003 1.93283   3
   0  10  -3 10.9587 2.32004   4
   2 -10   3 0.50632 1.42716   6
  -2 -10  -3 0.88853 1.42642   1
  -2 -10  -3 2.26425 1.95078   2
   2 -10   3 6.44903 1.79621   1
   2  10   3 1.46470 1.91254  11
  -2  10  -3 0.29332 2.28629   7
  -2  10  -3 2.97324 1.74656   3
   2  10   3 3.85776 2.20905   1
  -4 -10  -3 42.7898 4.72187   2
   4 -10   3 47.3787 3.41452   6
   4  10   3 42.5455 5.28674   1
   4  10   3 37.9644 4.49894  11
  -4  10  -3 35.1628 3.95991   3
  -4  10  -3 43.3833 5.64632   7
  -6 -10  -3 15.8420 3.02328   2
   6 -10   3 16.0645 2.21696   6
   6  10   3 14.8748 3.81922  11
   6  10   3 17.9949 3.68477   1
  -6  10  -3 16.8742 4.08947   7
  -7 -11   3 85.3622 6.49200   1
   7 -11  -3 79.8871 5.85718   6
   7 -11  -3 70.5966 5.26687   1
  -7  11   3 81.8815 6.63572   3
   7  11  -3 82.6740 6.57792  11
   5 -11  -3 320.760 11.8182   1
  -5 -11   3 326.110 12.9306   1
   5 -11  -3 324.932 11.7196   6
   5  11  -3 335.690 11.9026  11
  -5  11   3 331.170 12.3194   3
  -3 -11   3 269.428 10.9396   1
   3 -11  -3 252.425 10.1481   6
   3 -11  -3 270.054 13.3739  13
   3 -11  -3 282.824 11.0960   1
   3  11  -3 270.178 9.94568  11
   3  11  -3 262.212 9.87205   3
  -3  11   3 276.210 10.6568   3
   1 -11  -3 789.566 21.4855   1
  -1 -11   3 774.124 19.9810   6
  -1 -11   3 777.022 20.4062   1
  -1  11   3 764.352 20.8392   3
   1  11  -3 757.640 21.5845   7
   1  11  -3 748.390 19.0770   3
   1 -11   3 425.242 12.9213   6
   1 -11   3 408.972 12.5901   1
  -1 -11  -3 416.706 12.7159   2
  -1 -11  -3 421.244 14.6811   1
   1  11   3 397.661 14.2499   3
  -1  11  -3 423.981 15.2404   7
   1  11   3 399.763 13.7698   1
   1  11   3 397.416 13.1912  11
   3 -11   3 482.661 13.5086   6
  -3 -11  -3 486.013 15.9633   1
  -3 -11  -3 482.109 14.7656   2
   3  11   3 454.113 14.6946  11
  -3  11  -3 463.162 14.0834   3
  -3  11  -3 468.002 16.6070   7
  -5 -11  -3 162.351 8.38563   2
   5 -11   3 161.698 6.62412   6
   5  11   3 158.942 8.80879  11
  -5  11  -3 158.966 9.85839   7
   5  11   3 151.824 9.26167   1
  -6 -12   3 32.7158 4.84551   1
   6 -12  -3 37.2450 4.45151   6
  -6  12   3 37.3176 5.03067   3
   6  12  -3 39.8466 4.95973  11
   4 -12  -3 229.687 9.82035   6
   4 -12  -3 219.292 9.95147   1
  -4 -12   3 213.142 10.6067   1
   4  12  -3 221.011 9.65885  11
  -4  12   3 218.359 10.1903   3
   4  12  -3 215.421 9.33558   3
  -2 -12   3 35.3636 4.28440   6
  -2 -12   3 40.7700 4.36042   1
   2 -12  -3 41.5957 5.23159   1
   2  12  -3 39.6980 4.37881   3
   2  12  -3 41.5693 5.46374   7
  -2  12   3 40.4416 4.74068   3
   0 -12   3 122.456 6.94018   6
   0 -12   3 131.325 7.17309   1
   0 -12  -3 126.981 7.83083   1
   0  12   3 122.634 7.82902   3
   0  12  -3 111.075 6.36182   3
   0  12  -3 122.052 8.37418   7
   2 -12   3 131.393 6.92782   6
  -2 -12  -3 127.603 8.29836   1
  -2 -12  -3 122.355 7.01886   2
   2  12   3 125.173 7.93635   3
  -2  12  -3 123.969 8.80131   7
   2  12   3 124.770 7.20390  11
   3 -13  -3 15.4205 3.74689   1
  -3 -13   3 6.74554 2.88512   1
  -3  13   3 4.03988 2.78583   3
   1 -13  -3 520.350 17.4690   1
  -1 -13   3 496.736 16.0447   6
  -1  13   3 497.233 16.6710   3
   1  13  -3 508.200 17.6788   7
   1 -13   3 3.82583 1.90478   1
   1 -13   3 5.81786 2.45702   6
   1  13   3 3.00921 2.69485   3
  -1  13  -3 4.22685 2.54008   7
  12   0  -4 1249.64 29.2569   1
  12   0  -4 1241.01 30.2754  11
 -12   0   4 1218.21 28.1596   5
  12   0  -4 1232.04 29.6713   6
  10   0  -4 65.5391 5.29372  11
 -10   0   4 60.6629 4.12129   5
 -10   0   4 61.2143 4.06380   8
  10   0  -4 60.6175 4.79590   1
  10   0  -4 62.8556 4.95670   6
  -8   0   4 3057.13 56.7817   8
  -8   0   4 3174.76 57.2497  12
   8   0  -4 3071.82 58.1305   6
   8   0  -4 3037.99 58.3252   1
  -8   0   4 3074.70 56.9076   5
   8   0  -4 2891.48 60.9210  13
   8   0  -4 3076.04 57.7768  11
  -8   0   4 2991.80 58.5358   3
   6   0  -4 90.4912 5.38174  13
  -6   0   4 88.3294 3.95212   3
   6   0  -4 91.0729 4.12775   6
  -6   0   4 92.5164 3.71313  12
   6   0  -4 91.6955 3.76621  11
   6   0  -4 91.5728 4.29666   1
  -6   0   4 89.9433 3.80656   1
  -4   0   4 3092.84 57.0670   3
  -4   0   4 3208.85 57.3311  12
   4   0  -4 3236.81 58.4562  11
  -4   0   4 3278.03 58.1597   1
  -4   0   4 3119.90 57.2984   6
   4   0  -4 3284.64 60.4793  13
   4   0  -4 3211.73 57.7889   6
   4   0  -4 3130.63 57.2960  14
   4   0  -4 3158.32 58.4134   1
  -4   0   4 3206.51 58.0534   9
  -4   0   4 3345.13 61.8120  10
   2   0  -4 28.4963 1.60967   4
  -2   0   4 30.1919 1.84115   9
  -2   0   4 29.4308 1.65582   6
   2   0  -4 36.5171 1.65545   2
   2   0  -4 33.3600 1.67012  14
  -2   0   4 31.4227 2.68073  10
  -2   0   4 29.0662 1.82682   1
   2   0  -4 32.3696 2.47487  13
   2   0  -4 32.5420 1.86366   1
   0   0   4 2743.83 51.5731   6
   0   0  -4 2752.80 49.3968  14
   0   0   4 2690.42 49.3467   1
   0   0  -4 2730.45 49.7767   2
   0   0   4 2839.90 53.5108  10
   0   0  -4 2756.67 49.8380   8
   0   0   4 2789.14 50.0526   9
   0   0  -4 2732.25 48.9969   4
   0   0  -4 2698.74 48.7895   7
   2   0   4 487.452 10.3813  11
  -2   0  -4 517.648 11.8610   2
   2   0   4 505.858 10.1304   6
  -2   0  -4 507.374 11.1647  14
  -2   0  -4 509.209 10.5429   4
   2   0   4 514.550 15.7032  10
  -2   0  -4 507.160 12.0813   8
   2   0   4 505.859 10.1802   6
   2   0   4 505.403 10.8228   1
  -2   0  -4 491.014 11.7167   5
  -2   0  -4 513.717 10.4243   7
  -4   0  -4 2307.14 45.0085   5
   4   0   4 2344.62 43.1728   1
   4   0   4 2387.92 52.1521  10
  -4   0  -4 2403.32 44.8147   2
   4   0   4 2310.48 42.6705   6
  -4   0  -4 2260.83 43.4102  14
  -4   0  -4 2439.16 45.6333   8
  -6   0  -4 339.378 10.8872   8
   6   0   4 321.160 8.82580   6
  -6   0  -4 321.617 9.89311   2
  -6   0  -4 331.323 10.6114   5
   6   0   4 317.979 9.72777  11
  -8   0  -4 871.140 22.3044   5
   8   0   4 926.686 20.8968   6
  -8   0  -4 932.578 22.9579   8
  11  -1  -4 50.0324 4.74262   6
  11  -1  -4 54.0183 4.80295   1
 -11  -1   4 52.2806 4.53992   8
 -11  -1   4 59.5743 4.64108   5
  11  -1  -4 59.7563 4.94779  11
  11   1  -4 58.3952 5.16986   1
 -11   1   4 57.9800 4.38210   8
  11   1  -4 51.7588 5.38534  11
 -11   1   4 48.9826 4.16603   5
  11   1  -4 61.7540 5.30940   6
   9  -1  -4 27.8302 3.22514   1
  -9  -1   4 27.6847 3.00902   5
   9  -1  -4 22.0680 3.00595   6
   9  -1  -4 26.9223 4.19176  13
  -9  -1   4 23.9140 2.91199   8
   9  -1  -4 22.0630 2.94410  11
   9   1  -4 20.2943 2.86395   1
   9   1  -4 25.9051 3.36762   6
  -9   1   4 21.4611 3.27855   3
   9   1  -4 22.3454 3.04056  11
  -9   1   4 22.3339 2.85827   5
  -9   1   4 23.4679 2.53097   8
   7  -1  -4 489.423 12.5387   6
   7  -1  -4 488.067 15.3555  13
  -7  -1   4 485.386 12.0655   1
   7  -1  -4 503.954 12.9269   1
  -7  -1   4 505.846 12.1288  12
  -7   1   4 480.896 12.8318   3
  -7   1   4 491.535 11.5485   8
   7   1  -4 494.391 14.7043  13
  -7   1   4 494.871 11.8343  12
   7   1  -4 487.126 13.1421   1
   7   1  -4 510.335 12.4473  11
   7   1  -4 502.786 12.9063   6
   5  -1  -4 6.98283 1.93024  13
  -5  -1   4 9.53174 1.49476   9
   5  -1  -4 7.31127 1.42870   1
  -5  -1   4 6.53848 1.20044  12
  -5  -1   4 7.64086 1.28723   1
   5  -1  -4 7.36937 0.64458  14
  -5  -1   4 6.82425 1.10931   6
   5  -1  -4 10.0058 1.41888   6
  -5   1   4 6.97008 1.06425  12
   5   1  -4 7.12343 1.07789   4
   5   1  -4 7.19290 1.83804  13
   5   1  -4 7.72163 1.09693  11
   5   1  -4 6.70733 1.33074   6
  -5   1   4 5.65798 1.16393   3
  -5   1   4 12.8383 1.66074   9
   5   1  -4 6.73910 1.41793   1
  -5   1   4 7.62946 1.17679   1
   3  -1  -4 344.908 7.01304   2
   3  -1  -4 373.233 9.96680  13
  -3  -1   4 328.697 7.76115   6
   3  -1  -4 342.964 7.32641  14
  -3  -1   4 331.226 7.80566   9
  -3  -1   4 332.885 7.69211  12
   3  -1  -4 336.646 8.36983   1
   3  -1  -4 322.356 7.80882   6
  -3  -1   4 337.717 10.1288  10
  -3  -1   4 331.520 8.19900   1
   3   1  -4 336.158 7.34438  14
  -3   1   4 331.048 7.35465   3
  -3   1   4 341.278 8.25487   1
   3   1  -4 332.150 8.23367   1
  -3   1   4 335.566 10.3951  10
  -3   1   4 347.371 7.67488  12
   3   1  -4 337.039 9.64569  13
  -3   1   4 334.345 7.77516   6
   3   1  -4 335.651 6.94460  11
   3   1  -4 340.916 7.59624   4
  -3   1   4 328.564 8.20536   9
  -1  -1   4 291.805 6.88880   9
  -1  -1   4 305.263 6.98603   1
   1  -1  -4 281.916 6.94788   1
   1  -1  -4 282.764 6.86587   8
  -1  -1   4 321.048 6.64646   6
   1  -1  -4 285.417 7.92706  13
  -1  -1   4 290.632 9.02868  10
   1  -1  -4 289.508 6.72544  14
  -1  -1   4 288.031 6.80318  12
   1  -1  -4 282.418 6.83051   2
  -1   1   4 280.587 6.70178  12
   1   1  -4 278.021 6.46217   1
   1   1  -4 285.135 6.95761   7
   1   1  -4 280.277 6.92402   2
  -1   1   4 284.324 7.17917   1
   1   1  -4 285.100 6.69485   4
   1   1  -4 292.671 6.92656  14
   1   1  -4 284.804 9.25812  10
  -1   1   4 287.885 6.84187   6
  -1   1   4 288.175 7.33858   9
  -1   1   4 295.549 9.39598  10
  -1  -1  -4 93.4849 3.74846   8
  -1  -1  -4 89.1738 3.19591  14
   1  -1   4 88.1619 2.88058   1
  -1  -1  -4 82.2795 3.46244   2
   1  -1   4 85.8278 2.25339   6
  -1  -1  -4 93.0560 2.91745   4
   1  -1   4 93.2228 2.29431   6
   1  -1   4 85.5511 5.05421  10
   1   1   4 86.5375 5.25711  10
   1   1   4 85.0175 3.33740   1
  -1   1  -4 87.8788 3.08488   7
  -1   1  -4 86.0790 3.53454   5
   1   1   4 85.6876 2.56698  11
  -1   1  -4 91.9325 3.42797  14
   1   1   4 92.2363 3.99854   9
   1   1   4 92.7702 3.12863   6
  -1   1  -4 92.7598 3.62686   2
  -1   1  -4 86.8907 3.62336   8
  -1   1  -4 88.0716 3.06712   4
   3  -1   4 349.925 8.54578  11
  -3  -1  -4 353.802 9.54814   5
  -3  -1  -4 376.745 10.1300   8
   3  -1   4 365.281 13.3677  10
  -3  -1  -4 365.556 8.83676  14
  -3  -1  -4 366.498 9.66884   2
   3  -1   4 368.097 7.02611   6
   3  -1   4 371.681 8.08519   1
   3  -1   4 359.848 6.98119   6
  -3   1  -4 384.640 10.1497   8
  -3   1  -4 380.472 9.15402  14
   3   1   4 386.816 9.00015  11
   3   1   4 376.547 8.80920   6
  -3   1  -4 375.999 9.98977   5
  -3   1  -4 374.367 8.88406   7
  -3   1  -4 393.445 9.84701   2
   3   1   4 358.909 9.06053   1
  -3   1  -4 368.472 8.56656   4
   3   1   4 368.787 13.8678  10
  -5  -1  -4 2.34806 1.36970   2
  -5  -1  -4 3.56338 1.62974   5
  -5  -1  -4 3.65718 1.68532   8
   5  -1   4 4.44804 2.40025  10
   5  -1   4 4.93243 0.90126   6
   5  -1   4 2.22575 1.32513  11
  -5  -1  -4 4.74798 1.21098  14
  -5   1  -4 2.72656 1.64075   5
  -5   1  -4 5.20894 1.51449   2
   5   1   4 4.37365 1.64697  11
   5   1   4 13.9158 3.52499  10
   5   1   4 3.35370 1.35802   6
   5   1   4 4.43827 1.17384   1
  -5   1  -4 4.19460 1.59567   8
  -7  -1  -4 28.5674 3.76002   8
  -7  -1  -4 30.4098 3.47214   2
  -7  -1  -4 29.1117 3.71520   5
   7  -1   4 28.8451 2.50593   6
  -7   1  -4 26.2208 3.69988   5
   7   1   4 26.9522 2.93070   6
  -7   1  -4 24.3912 2.87363   2
  -7   1  -4 24.7354 3.41004   8
  -9  -1  -4 44.5140 5.02429   8
  -9  -1  -4 49.5160 5.13906   5
   9  -1   4 47.2310 3.73172   6
  -9   1  -4 47.7337 4.50318   8
  -9   1  -4 43.5437 4.80697   5
   9   1   4 48.8824 4.20894   6
 -12  -2   4 86.4792 6.12655   8
  12  -2  -4 108.315 6.84456  11
  12  -2  -4 94.0667 6.02449   1
  12   2  -4 96.1934 7.54586  11
 -12   2   4 97.8129 6.04195   5
  12   2  -4 96.8095 6.75067   1
  12   2  -4 91.3954 6.75586   6
  10  -2  -4 265.869 9.99545  11
  10  -2  -4 258.973 9.66173   6
 -10  -2   4 260.323 9.49519   8
  10  -2  -4 261.032 9.57917   1
 -10  -2   4 262.421 8.82891   5
  10   2  -4 248.664 10.2224   1
  10   2  -4 259.665 10.2709   6
 -10   2   4 250.184 9.28728   5
 -10   2   4 270.785 10.7381   3
  10   2  -4 264.490 10.3699  11
  -8  -2   4 280.425 8.90481  12
   8  -2  -4 340.527 9.79471   6
  -8  -2   4 285.853 8.38674   5
   8  -2  -4 283.907 9.28694   1
   8  -2  -4 283.692 11.9056  13
  -8  -2   4 289.351 9.00698   8
  -8   2   4 278.481 9.67517   3
  -8   2   4 289.145 8.13276   8
  -8   2   4 295.110 8.93125   5
   8   2  -4 298.362 9.60970  11
  -8   2   4 283.035 8.37208  12
   8   2  -4 280.531 9.92144   1
   8   2  -4 288.839 9.73810   6
   6  -2  -4 2141.80 40.1585   6
   6  -2  -4 2098.02 43.7636  13
  -6  -2   4 2117.09 40.1866   1
  -6  -2   4 2126.50 39.4584  12
   6  -2  -4 2129.77 40.5721   1
   6   2  -4 2047.98 42.3802  13
  -6   2   4 2052.71 39.1916   1
   6   2  -4 2118.77 39.6611  11
   6   2  -4 2126.59 41.1919   1
  -6   2   4 2077.79 40.3294   3
  -6   2   4 2132.31 40.7803   9
  -6   2   4 2078.57 38.9114  12
   6   2  -4 2087.37 40.3126   6
   6   2  -4 2020.65 38.0312   4
   4  -2  -4 1832.50 36.8159  13
  -4  -2   4 1774.41 34.4005   1
  -4  -2   4 1786.13 33.6554   6
   4  -2  -4 1810.61 32.6674  14
   4  -2  -4 1833.39 34.1115   6
   4  -2  -4 1822.71 34.6548   1
  -4  -2   4 1812.30 33.5294  12
  -4  -2   4 1791.03 33.5711   9
  -4   2   4 1789.93 33.1229  12
  -4   2   4 1830.82 37.7472  10
   4   2  -4 1867.99 36.6303  13
  -4   2   4 1781.28 34.3977   9
   4   2  -4 1795.95 32.5735  14
  -4   2   4 1756.93 33.9480   1
   4   2  -4 1824.39 33.1772   4
   4   2  -4 1805.17 33.8701   6
  -4   2   4 1825.69 33.8353   3
   4   2  -4 1803.37 34.6083   1
   4   2  -4 1798.00 33.1016  11
   2  -2  -4 7907.08 154.635   1
   2  -2  -4 7843.45 145.901  14
  -2  -2   4 8327.98 164.377  10
  -2  -2   4 8357.30 148.409   9
   2  -2  -4 8264.44 165.193  13
  -2  -2   4 8246.06 151.227  12
  -2  -2   4 8075.08 151.198   6
   2  -2  -4 7750.79 147.832   2
  -2  -2   4 7945.45 153.033   1
   2  -2  -4 7970.24 150.419   6
   2   2  -4 7928.25 149.505   4
  -2   2   4 8287.77 154.900   9
   2   2  -4 7983.37 148.683  14
   2   2  -4 8052.17 154.546   7
  -2   2   4 8259.72 155.668   1
  -2   2   4 8068.98 151.658   6
  -2   2   4 8295.90 150.132  12
   2   2  -4 8316.49 145.475  11
   2   2  -4 8143.32 161.630  10
   2   2  -4 7880.52 147.014   1
  -2   2   4 8102.04 147.329   3
  -2   2   4 8316.77 169.757  10
   0  -2   4 1337.35 24.9437  12
   0  -2  -4 1280.26 25.1175   1
   0  -2   4 1344.14 23.8586   6
   0  -2   4 1304.37 23.8379   6
   0  -2  -4 1305.28 25.2198   8
   0  -2  -4 1374.37 25.8731  13
   0  -2  -4 1332.79 25.3278   2
   0  -2  -4 1302.54 24.9116  14
   0  -2   4 1342.37 28.1950  10
   0  -2   4 1289.74 24.8657   9
   0  -2   4 1299.01 24.5102   1
   0   2  -4 1323.33 25.2377   7
   0   2  -4 1318.25 25.2649  14
   0   2   4 1323.87 25.7140   1
   0   2   4 1335.49 25.1834   6
   0   2   4 1311.60 23.8117  11
   0   2  -4 1343.82 25.5766   8
   0   2   4 1348.50 29.1136  10
   0   2  -4 1309.20 23.7795   3
   0   2  -4 1305.36 25.4659   2
   0   2  -4 1318.96 24.9691   4
   0   2   4 1314.64 25.9814   9
  -2  -2  -4 3459.53 64.1134   8
  -2  -2  -4 3518.43 63.8771   2
   2  -2   4 3407.02 61.5726   1
  -2  -2  -4 3453.37 61.9287   4
  -2  -2  -4 3483.22 62.9866  14
   2  -2   4 3527.01 68.5758  10
  -2   2  -4 3555.85 63.4523  14
  -2   2  -4 3537.99 63.4691   7
  -2   2  -4 3534.13 64.1321   5
  -2   2  -4 3432.83 63.8445   2
   2   2   4 3646.79 70.0546  10
  -2   2  -4 3538.76 64.1411   8
   2   2   4 3527.64 63.8613   1
   2   2   4 3434.46 63.2611   6
   2   2   4 3494.75 62.6636  11
  -2   2  -4 3574.28 63.1516   3
   2   2   4 3586.78 65.2035   9
  -2   2  -4 3513.95 62.9482   4
  -4  -2  -4 95.0820 4.95386   8
  -4  -2  -4 94.4678 3.81546  14
  -4  -2  -4 91.9949 4.44644   5
   4  -2   4 92.4678 6.92935  10
  -4  -2  -4 100.190 4.69779   2
  -4   2  -4 92.8467 4.39997   2
  -4   2  -4 97.8043 4.22582   7
   4   2   4 89.8330 4.16002   6
   4   2   4 99.4404 7.48851  10
   4   2   4 90.9338 4.30198   1
  -4   2  -4 85.0428 3.83354  14
  -4   2  -4 104.297 5.01056   8
  -4   2  -4 93.8872 4.67234   5
  -4   2  -4 91.1534 3.60988   4
   4   2   4 93.7804 4.30727  11
  -4   2  -4 89.8954 4.46672   3
  -6  -2  -4 622.221 16.0174   5
  -6  -2  -4 628.176 16.7414   8
   6  -2   4 638.053 12.9277   6
  -6  -2  -4 629.977 15.9266   2
   6   2   4 604.851 15.4431   1
   6   2   4 638.720 15.8236   6
  -6   2  -4 640.334 16.5556   8
   6   2   4 604.626 15.9579  11
  -6   2  -4 642.458 16.7913   5
  -6   2  -4 673.298 15.7081   2
  -8  -2  -4 24.6762 3.57861   8
   8  -2   4 27.3756 2.46427   6
  -8  -2  -4 24.8344 3.51961   5
  -8  -2  -4 27.9276 3.57061   2
  -8   2  -4 29.7925 3.95748   8
  -8   2  -4 23.0122 3.76811   5
   8   2   4 24.3497 3.15881   6
  11  -3  -4 13.5128 2.68389   1
 -11  -3   4 9.73820 2.33603   8
  11  -3  -4 16.4714 3.16160   6
  11  -3  -4 15.4588 2.99908  11
 -11   3   4 11.9659 2.99116   5
  11   3  -4 16.0830 3.43967   6
 -11   3   4 13.7468 3.05603   3
  11   3  -4 11.2234 2.73312   1
  11   3  -4 13.8489 3.27473  11
   9  -3  -4 55.2685 4.24625   6
  -9  -3   4 66.5075 4.29911   8
  -9  -3   4 60.6889 3.70506   5
   9  -3  -4 58.1704 6.13307  13
   9  -3  -4 63.2467 4.37489   1
  -9   3   4 58.3888 4.24680   5
   9   3  -4 55.2001 4.98027  11
   9   3  -4 60.8319 4.54650   6
   9   3  -4 58.5175 4.63169   1
  -7  -3   4 57.2580 3.04002   5
  -7  -3   4 61.8439 3.66567   1
   7  -3  -4 57.2386 3.61100   6
   7  -3  -4 56.1928 3.78089   1
   7  -3  -4 60.7531 5.54154  13
  -7  -3   4 58.7643 3.37266  12
   7   3  -4 61.8532 4.03706   6
  -7   3   4 62.4480 3.22610  12
  -7   3   4 63.7464 3.69080   5
   7   3  -4 62.4553 4.15907   1
  -7   3   4 64.2894 2.86121   8
   7   3  -4 60.2528 3.71314  11
  -7   3   4 65.4306 4.00683   3
  -5  -3   4 99.8960 3.90876   6
  -5  -3   4 105.472 3.96219  12
   5  -3  -4 105.360 4.25564   6
   5  -3  -4 100.171 5.93185  13
   5  -3  -4 108.732 4.66472   1
  -5  -3   4 113.721 4.61488   1
  -5   3   4 110.567 3.66609  12
  -5   3   4 99.8069 3.89265   1
   5   3  -4 106.314 4.02384  11
  -5   3   4 103.872 4.37228   3
   5   3  -4 114.665 4.99009   1
   5   3  -4 103.805 4.27286   6
  -5   3   4 108.930 4.59140   9
   5   3  -4 100.380 3.43560   4
   3  -3  -4 160.492 3.75362   2
   3  -3  -4 162.118 6.49672  13
  -3  -3   4 158.412 6.21923  10
   3  -3  -4 148.445 4.85871   6
  -3  -3   4 143.612 4.94419   1
   3  -3  -4 162.105 5.37415   1
  -3  -3   4 155.979 4.56702  12
  -3  -3   4 153.790 4.13309   9
  -3  -3   4 153.234 4.75268   6
  -3   3   4 158.235 5.27632   9
   3   3  -4 152.719 5.00085   1
  -3   3   4 156.094 4.26163  12
  -3   3   4 155.066 5.06797   1
   3   3  -4 163.676 4.66489   4
   3   3  -4 159.202 4.32044  11
   3   3  -4 151.894 4.37526  14
  -3   3   4 146.440 4.49974   6
   3   3  -4 159.928 5.45357   7
  -3   3   4 151.064 4.69015   3
  -3   3   4 161.895 6.86192  10
  -1  -3   4 240.671 5.85181   6
   1  -3  -4 231.254 6.71110   1
  -1  -3   4 230.918 6.15999   1
   1  -3  -4 244.598 5.97681   8
  -1  -3   4 243.845 6.03509  12
   1  -3  -4 242.443 6.16477   2
  -1  -3   4 246.149 7.80424  10
  -1  -3   4 237.810 5.50937   9
   1  -3  -4 249.057 7.37573  13
   1   3  -4 238.093 7.19159  10
  -1   3   4 248.879 6.93098   1
  -1   3   4 236.513 5.86646  12
   1   3  -4 252.466 6.53668  14
   1   3  -4 243.638 6.79318   7
   1   3  -4 244.167 5.41269  11
  -1   3   4 236.960 6.45601   6
   1   3  -4 242.390 6.36344   4
  -1   3   4 246.815 7.00436   9
  -1   3   4 250.876 8.85148  10
   1   3  -4 262.571 6.75209   2
  -1  -3  -4 28.2125 1.98147   1
  -1  -3  -4 24.5178 1.76200  13
  -1  -3  -4 21.7598 1.96533   2
  -1  -3  -4 25.3514 1.76354  14
   1  -3   4 22.7611 2.76273  10
   1  -3   4 31.5667 1.41764   1
  -1  -3  -4 20.0228 1.91997   8
  -1   3  -4 22.7070 1.83174  14
  -1   3  -4 23.6906 1.93718   2
   1   3   4 25.4899 1.92493   6
  -1   3  -4 30.6695 2.22382   7
   1   3   4 21.7855 2.92688  10
  -1   3  -4 24.1821 1.94497   4
  -1   3  -4 25.3090 1.93418   8
   1   3   4 22.9481 2.36744   9
  -1   3  -4 23.6230 1.58874   3
   1   3   4 24.0221 2.18935   1
   1   3   4 23.1185 1.59700  11
  -1   3  -4 24.7328 1.94326   5
  -3  -3  -4 215.218 7.27670   8
  -3  -3  -4 218.794 7.04295   2
  -3  -3  -4 217.805 6.24953  14
   3  -3   4 207.394 9.54688  10
   3   3   4 228.450 8.21121   9
   3   3   4 210.597 10.3980  10
  -3   3  -4 211.902 6.28758   4
  -3   3  -4 208.202 7.10511   5
  -3   3  -4 210.809 7.03571   8
  -3   3  -4 211.143 6.89385   7
   3   3   4 206.760 7.09067   1
  -3   3  -4 212.632 6.84565   2
  -3   3  -4 212.927 6.59028   3
  -3   3  -4 227.823 6.70976  14
   3   3   4 209.227 6.45239  11
   3   3   4 216.731 6.89013   6
  -5  -3  -4 0.86380 0.97912  14
  -5  -3  -4 0.21706 1.53399   8
  -5  -3  -4 2.40834 1.31652   5
  -5  -3  -4 3.97331 1.66178   2
   5  -3   4 0.61361 1.88648  10
  -5   3  -4 0.08728 1.30558   8
  -5   3  -4 0.10870 1.49938   5
   5   3   4 1.32374 1.55668  11
   5   3   4 0.75937 1.20301   1
   5   3   4 3.02684 1.52033   6
   5   3   4 5.07925 2.82782  10
  -5   3  -4 2.42491 1.12753  14
  -5   3  -4 5.33650 1.58632   2
  -5   3  -4 2.75573 1.57807   3
  -7  -3  -4 3.06081 1.46218   2
   7  -3   4 5.10342 1.02362   6
   7  -3   4 3.62411 1.92695  11
  -7  -3  -4 1.99015 2.65938   5
  -7  -3  -4 1.30784 2.15141   8
   7   3   4 2.97458 1.58004   1
   7   3   4 10.2980 2.79548  11
  -7   3  -4 5.12107 2.01064   8
  -7   3  -4 3.78315 2.30277   5
   7   3   4 1.83676 1.75701   6
 -10  -4   4 1218.24 27.6971   8
  10  -4  -4 1241.29 27.5756   6
  10  -4  -4 1220.76 27.3463   1
  10  -4  -4 1144.04 32.5850  13
  10   4  -4 1233.19 29.6834   1
 -10   4   4 1205.40 29.0989   3
  10   4  -4 1219.69 29.1952  11
 -10   4   4 1179.07 27.3050   5
   8  -4  -4 183.148 7.09799   6
   8  -4  -4 193.521 7.34206   1
   8  -4  -4 196.674 10.5811  13
  -8  -4   4 182.953 7.24080   1
  -8  -4   4 179.546 7.25872   8
  -8  -4   4 167.398 6.81244  12
  -8   4   4 178.402 7.01424   5
   8   4  -4 199.058 7.96558  11
   8   4  -4 184.122 7.85730   6
   8   4  -4 183.820 8.23381   1
  -8   4   4 187.644 7.86886   3
   6  -4  -4 2469.10 46.8116   6
  -6  -4   4 2474.79 46.2700  12
   6  -4  -4 2522.92 47.4041   1
  -6  -4   4 2513.01 47.6044   1
   6  -4  -4 2472.92 51.7470  13
  -6   4   4 2454.78 45.1378  12
   6   4  -4 2460.21 48.2004   1
   6   4  -4 2449.73 46.7181  11
  -6   4   4 2452.20 47.5454   9
  -6   4   4 2483.23 47.4624   3
   6   4  -4 2388.65 47.0572   6
   4  -4  -4 12.8725 1.75373   6
  -4  -4   4 14.3538 1.73131   6
   4  -4  -4 13.1720 2.57923  13
  -4  -4   4 12.7548 1.74701   1
  -4  -4   4 14.9477 1.54267  12
  -4   4   4 15.1154 2.59226  10
  -4   4   4 14.9357 1.84150   3
   4   4  -4 15.3127 2.11415   7
  -4   4   4 14.0595 1.21111  12
  -4   4   4 14.2011 1.51819   1
   4   4  -4 15.4218 1.95905   1
  -4   4   4 14.7228 1.99354   9
   4   4  -4 15.4712 1.60118  11
   4   4  -4 15.3986 1.62240   4
  -2  -4   4 3219.18 57.1201   6
   2  -4  -4 3139.37 56.3318   2
  -2  -4   4 3206.32 56.5386  12
   2  -4  -4 3120.54 57.3700   6
   2  -4  -4 3247.39 59.5967  13
  -2  -4   4 3155.41 57.5482   1
   2  -4  -4 3144.42 58.2234   1
  -2  -4   4 3125.29 58.5937  10
  -2   4   4 3073.35 56.0491  12
   2   4  -4 3145.01 55.8107   3
   2   4  -4 3060.58 56.8424   1
   2   4  -4 3188.39 58.2114   7
  -2   4   4 3178.66 57.9789   1
  -2   4   4 3286.52 61.1226  10
  -2   4   4 3040.42 57.0140   6
   2   4  -4 3218.16 56.3531  11
   2   4  -4 3141.64 58.0192  10
  -2   4   4 3201.19 58.0488   9
  -2   4   4 3209.24 57.4092   3
   2   4  -4 3143.88 57.1420   4
   2   4  -4 3167.73 57.2275  14
   0  -4   4 6.78891 0.89848   6
   0  -4  -4 12.0436 1.43265   2
   0  -4   4 7.56774 1.02402   1
   0  -4   4 10.8859 1.32979  12
   0  -4   4 5.98006 0.82466   9
   0  -4  -4 5.24834 1.19514  13
   0   4  -4 5.41425 1.11621  14
   0   4   4 6.91571 1.44664   1
   0   4  -4 8.48976 1.47826   4
   0   4  -4 5.58098 1.21328   2
   0   4  -4 10.1549 1.54229   7
   0   4   4 7.68731 1.11702  11
   0   4   4 8.43873 2.08629  10
   0   4  -4 6.89202 0.95909   3
   0   4   4 6.29518 1.32548   9
   2  -4   4 3052.29 61.7718  10
  -2  -4  -4 3151.42 58.5664   8
   2  -4   4 3047.40 55.5163   1
  -2  -4  -4 3192.49 58.3670   2
  -2  -4  -4 3186.67 57.5901  14
  -2   4  -4 3150.49 58.2226   8
  -2   4  -4 3249.84 57.5221   3
  -2   4  -4 3152.54 57.9015   4
   2   4   4 3253.56 58.8219   6
  -2   4  -4 3228.98 58.3324  14
   2   4   4 3115.94 57.4609  11
  -2   4  -4 3180.02 58.9227   7
  -2   4  -4 3171.02 58.5704   2
   2   4   4 3224.49 64.5530  10
   2   4   4 3121.31 59.2203   1
  -2   4  -4 3199.67 58.5521   5
   2   4   4 3087.80 59.5405   9
  -4  -4  -4 129.689 4.78533  14
  -4  -4  -4 126.589 5.45659   2
   4  -4   4 111.818 7.37461  10
  -4  -4  -4 116.353 5.70638   8
  -4   4  -4 124.365 5.68669   7
   4   4   4 109.835 6.30471   9
   4   4   4 111.118 8.31590  10
   4   4   4 114.862 5.32883  11
   4   4   4 113.791 5.46912   6
  -4   4  -4 116.167 4.78082  14
  -4   4  -4 110.690 4.69834   4
  -4   4  -4 115.674 5.26796   8
   4   4   4 110.436 5.48349   1
  -4   4  -4 118.746 5.65481   5
  -4   4  -4 127.971 5.41268   3
  -4   4  -4 117.345 5.23046   2
  -6  -4  -4 1641.91 35.4871   8
  -6  -4  -4 1655.67 34.5947   2
   6   4   4 1629.96 35.2906   6
  -6   4  -4 1692.36 35.0503   3
   6   4   4 1623.05 35.0973   1
  -6   4  -4 1636.56 34.3449   8
  -6   4  -4 1645.53 35.1584   5
  -8  -4  -4 96.6388 6.18040   8
  -8  -4  -4 82.6078 5.72163   2
   8  -4   4 86.9605 3.40074   6
   8   4   4 86.6649 6.95097   9
   8   4   4 98.3102 6.36841   6
  -8   4  -4 85.6907 6.21842   5
 -11  -5   4 20.9392 3.32300   8
  11  -5  -4 27.3208 3.57209   1
  11  -5  -4 19.5340 3.35663   6
  11   5  -4 27.0056 4.66218  11
 -11   5   4 23.3754 3.88991   5
 -11   5   4 20.9305 4.04114   3
  11   5  -4 20.4937 4.05597   1
   9  -5  -4 125.502 6.26003   1
   9  -5  -4 137.746 9.72414  13
   9  -5  -4 137.114 6.52197   6
  -9  -5   4 133.567 6.82840   8
   9   5  -4 127.495 7.30393  11
  -9   5   4 136.187 6.55832   5
   9   5  -4 137.464 7.84692   1
  -9   5   4 134.920 7.28025   3
  -7  -5   4 15.8302 2.32812   8
   7  -5  -4 17.9742 2.49819   6
  -7  -5   4 17.9068 2.69795   1
   7  -5  -4 19.8748 3.80834  13
  -7  -5   4 18.3023 2.50329  12
   7  -5  -4 19.8871 2.69190   1
  -7   5   4 21.8480 2.76693  12
   7   5  -4 18.8308 2.76804  11
  -7   5   4 17.2201 2.43288   5
  -7   5   4 15.8201 2.80857   3
   7   5  -4 16.9016 2.79756   7
   7   5  -4 21.2673 3.03295   1
   5  -5  -4 592.386 17.4515  13
   5  -5  -4 597.047 14.4378   1
   5  -5  -4 584.845 14.0501   6
  -5  -5   4 555.486 13.0341  12
  -5  -5   4 555.764 13.5192   6
  -5  -5   4 583.820 14.7023   1
  -5   5   4 592.628 14.2723   3
  -5   5   4 563.165 13.1189   1
  -5   5   4 588.730 12.0231  12
  -5   5   4 585.123 14.3804   9
   5   5  -4 597.282 14.8424   7
   5   5  -4 575.904 12.5302   4
   5   5  -4 590.017 13.6814  11
   5   5  -4 586.088 14.7735   1
  -3  -5   4 263.375 7.43864   6
  -3  -5   4 253.407 6.63585  12
   3  -5  -4 271.331 9.57210  13
   3  -5  -4 256.958 7.51056   6
   3  -5  -4 260.667 8.11149   1
   3  -5  -4 258.108 6.31456   2
  -3  -5   4 259.320 7.83841   1
   3   5  -4 268.826 8.22743   7
  -3   5   4 265.317 9.45615  10
   3   5  -4 271.631 11.2211  10
  -3   5   4 255.903 7.75749   9
  -3   5   4 263.292 7.66719   1
   3   5  -4 257.489 6.94447  11
  -3   5   4 262.966 7.64815   3
   3   5  -4 272.070 7.30423   4
   3   5  -4 262.043 7.54450   1
  -3   5   4 250.679 5.98261  12
  -1  -5   4 344.573 9.07539  10
   1  -5  -4 337.604 8.80308   6
  -1  -5   4 349.778 8.91211   1
  -1  -5   4 369.625 8.61108   6
   1  -5  -4 348.229 7.85257   8
   1  -5  -4 353.454 10.0912  13
   1  -5  -4 346.107 8.50086   2
  -1  -5   4 343.224 7.98151  12
   1  -5  -4 339.613 9.65986   1
  -1   5   4 359.425 9.75064   1
  -1   5   4 352.898 11.3024  10
  -1   5   4 358.272 9.59923   9
  -1   5   4 339.774 8.98806   6
   1   5  -4 352.291 9.76762   7
   1   5  -4 354.178 8.21823  11
  -1   5   4 352.598 7.83223  12
   1   5  -4 347.601 7.90358   3
  -1   5   4 346.641 8.45133  11
   1   5  -4 377.990 9.30959   4
   1   5  -4 360.980 9.25095  14
  -1  -5  -4 965.824 20.5290   8
   1  -5   4 986.433 19.7941  12
  -1  -5  -4 1008.87 20.3938  13
  -1  -5  -4 1021.18 20.9461   2
  -1  -5  -4 994.808 21.3692   1
   1  -5   4 990.541 19.4784   1
   1  -5   4 1011.02 18.9618   6
   1  -5   4 976.910 22.4494  10
   1   5   4 997.978 20.3629  11
  -1   5  -4 1038.88 21.1440   4
   1   5   4 1004.57 22.2410   1
   1   5   4 997.735 21.9365   9
   1   5   4 1014.94 25.1656  10
  -1   5  -4 1026.09 20.1100   3
   1   5   4 1020.00 21.4977   6
  -1   5  -4 1014.14 21.3332  14
  -1   5  -4 1030.84 22.0052   7
  -1   5  -4 1016.40 20.8438   5
   3  -5   4 147.959 8.67722  10
  -3  -5  -4 125.815 4.95542  14
  -3  -5  -4 132.488 5.49263   2
  -3  -5  -4 131.616 5.75571   8
  -3   5  -4 128.722 5.98403   7
  -3   5  -4 132.142 5.45860  14
   3   5   4 134.271 6.20616   1
  -3   5  -4 127.304 5.30701   8
   3   5   4 125.701 5.33387  11
  -3   5  -4 141.010 5.43360   4
  -3   5  -4 123.292 5.06071   3
  -3   5  -4 131.799 5.54435   2
   3   5   4 144.432 6.53296   9
   3   5   4 129.064 5.88781   6
   5  -5   4 401.346 14.0511  13
  -5  -5  -4 405.025 12.1509   2
  -5  -5  -4 412.607 10.6995  14
  -5  -5  -4 420.848 12.8085   8
  -5   5  -4 413.095 11.5365   2
   5   5   4 406.426 14.0287   9
  -5   5  -4 417.591 11.9524   3
   5   5   4 411.073 12.9062   6
  -5   5  -4 408.380 11.3117  14
  -5   5  -4 409.092 12.4187   5
   5   5   4 401.334 12.2098  11
  -5   5  -4 416.786 11.2479   4
  -5   5  -4 419.469 12.7052   7
   5   5   4 414.264 13.0522   1
  -5   5  -4 419.623 11.7579   8
   7  -5   4 113.284 3.14195   6
  -7  -5  -4 109.114 6.15263   2
  -7  -5  -4 120.639 6.82694   8
   7   5   4 132.330 8.77678  11
   7   5   4 115.001 7.03917   6
  -7   5  -4 117.601 6.83903   5
  -7   5  -4 119.602 6.72825   3
   7   5   4 117.872 8.30402   9
   7   5   4 118.143 6.89845   1
  10  -6  -4 7.14641 2.37528   6
 -10  -6   4 8.99844 2.00855   2
  10  -6  -4 8.24878 2.26885   1
 -10  -6   4 9.91232 2.96709   8
  10   6  -4 9.76177 3.44094  11
 -10   6   4 2.71573 2.25997   5
  10   6  -4 10.6201 3.28249   1
 -10   6   4 9.76957 3.26926   3
   8  -6  -4 982.847 29.0770  13
  -8  -6   4 1056.88 23.9138   8
   8  -6  -4 1045.90 23.5747   6
  -8  -6   4 1004.98 24.1433   1
   8  -6  -4 1030.89 23.4845   1
   8   6  -4 986.758 24.3088   7
  -8   6   4 1025.45 23.0644   5
   8   6  -4 1025.66 24.3606  11
  -8   6   4 1022.53 24.6204   3
   8   6  -4 1025.66 25.6590   1
   6  -6  -4 146.672 6.29070   1
  -6  -6   4 138.436 6.37962   1
  -6  -6   4 139.752 5.55778  12
   6  -6  -4 137.168 6.01784   6
   6  -6  -4 128.324 8.33024  13
  -6   6   4 174.347 6.84911   9
  -6   6   4 142.778 6.49071   3
   6   6  -4 149.320 6.76775   7
   6   6  -4 140.055 6.03046  11
   6   6  -4 139.888 6.83125   1
  -6   6   4 148.816 5.70506   5
   4  -6  -4 3102.03 58.6543   1
  -4  -6   4 3031.84 57.6902   6
  -4  -6   4 3114.81 58.7305   1
  -4  -6   4 3027.36 56.1953  12
   4  -6  -4 3188.71 62.4541  13
   4  -6  -4 3123.99 57.9581   6
  -4   6   4 3115.73 58.1618   3
  -4   6   4 3063.16 57.9638   9
   4   6  -4 3155.45 57.1673  11
   4   6  -4 2996.85 56.4863   4
  -4   6   4 3053.22 57.2399   1
   4   6  -4 3133.23 58.3469   1
   4   6  -4 3170.65 58.8997   7
  -2  -6   4 564.956 13.7841   1
  -2  -6   4 561.198 11.9422  12
   2  -6  -4 570.612 14.4284   1
   2  -6  -4 532.097 13.2544   6
   2  -6  -4 562.400 12.2965   2
   2  -6  -4 573.905 15.4810  13
  -2  -6   4 578.424 13.3218   6
  -2   6   4 572.311 13.8116   9
   2   6  -4 584.454 12.7712  11
  -2   6   4 586.176 14.1295   1
   2   6  -4 582.386 13.4044   4
  -2   6   4 567.022 15.5970  10
   2   6  -4 577.112 14.4216   7
  -2   6   4 571.245 13.8169   3
   2   6  -4 576.903 12.3512   3
   0  -6  -4 3275.43 60.5337   2
   0  -6  -4 3298.53 61.5877  13
   0  -6   4 3213.69 60.0555   1
   0  -6   4 3325.49 59.6898   6
   0  -6  -4 3250.41 61.9076   1
   0  -6  -4 3229.84 59.4751   8
   0   6  -4 3349.89 61.1848   4
   0   6   4 3270.80 60.2547  11
   0   6  -4 3286.68 59.5567   3
   0   6  -4 3333.86 62.2485   7
   0   6   4 3386.31 62.3887   1
   0   6  -4 3283.00 61.2110  14
   0   6   4 3301.45 64.8016  10
   0   6   4 3440.06 61.9910   9
  -2  -6  -4 163.569 6.08683   2
   2  -6   4 152.949 4.52121   1
   2  -6   4 160.227 4.33011   6
  -2  -6  -4 155.133 5.87178   8
  -2  -6  -4 151.440 6.17972   1
   2   6   4 158.086 7.06002   1
  -2   6  -4 167.976 5.72448   3
   2   6   4 151.165 6.39193   6
  -2   6  -4 164.233 6.06644   4
  -2   6  -4 160.362 6.71026   7
  -2   6  -4 163.704 6.32053  14
   2   6   4 157.942 8.63159  10
   2   6   4 152.220 6.66531   9
   2   6   4 171.157 6.07520  11
  -4  -6  -4 1178.11 24.5758  14
   4  -6   4 1151.69 20.8999   6
  -4  -6  -4 1191.06 26.3884   8
  -4  -6  -4 1167.47 25.9242   2
   4   6   4 1189.90 27.7002   1
   4   6   4 1181.16 27.0777   6
  -4   6  -4 1218.90 26.2058   5
  -4   6  -4 1196.60 25.5919  14
   4   6   4 1165.77 27.8274   9
  -4   6  -4 1237.31 27.2645   7
   4   6   4 1160.41 32.8281  10
   4   6   4 1151.84 25.9141  11
  -4   6  -4 1195.52 25.3441   4
  -6  -6  -4 15.6839 2.70825   2
  -6  -6  -4 8.43682 2.71635   8
  -6   6  -4 9.12723 2.66856   5
   6   6   4 5.45100 2.36784   6
   6   6   4 6.69940 2.55570   1
   6   6   4 4.81117 2.75631   9
  -6   6  -4 4.52046 2.32357   7
   6   6   4 3.36855 2.24285  11
  -6   6  -4 8.20034 2.02709   3
   9  -7  -4 109.720 6.24264   6
   9  -7  -4 97.0334 5.55445   1
  -9  -7   4 102.308 6.49647   8
   9   7  -4 107.433 7.04020  11
   9   7  -4 99.1531 7.35591   1
  -9   7   4 105.476 7.02985   3
  -9   7   4 101.383 5.95865   5
  -7  -7   4 14.2922 2.69812   1
  -7  -7   4 3.91643 2.01159   8
   7  -7  -4 3.27945 2.88825  13
   7  -7  -4 3.48853 1.70962   1
   7  -7  -4 4.01292 1.84723   6
   7   7  -4 5.04058 2.36815   1
   7   7  -4 4.65475 2.06378   7
   7   7  -4 6.46621 1.96552  11
  -7   7   4 5.70497 2.40823   3
  -7   7   4 5.12291 1.50953   5
   5  -7  -4 150.901 6.65986   1
  -5  -7   4 144.703 6.71423   1
   5  -7  -4 143.045 8.72635  13
   5  -7  -4 148.099 6.34313   6
  -5  -7   4 153.033 5.47438  12
  -5   7   4 150.331 6.42342   9
   5   7  -4 143.035 6.74719   7
   5   7  -4 156.782 6.08345  11
   5   7  -4 150.746 6.84976   1
  -5   7   4 155.329 5.57488   5
  -5   7   4 169.734 6.92016   3
   3  -7  -4 5.96104 1.63868   1
  -3  -7   4 4.92293 1.52854   6
   3  -7  -4 4.34356 1.47757   6
   3  -7  -4 10.8737 2.68695  13
  -3  -7   4 3.31155 1.51607   1
   3   7  -4 4.98144 1.38953   4
  -3   7   4 6.78352 1.78931   3
   3   7  -4 3.86509 1.33631   1
   3   7  -4 7.87421 1.50396  11
  -3   7   4 5.89724 1.72344  10
   3   7  -4 6.32692 1.90656   7
  -3   7   4 4.67201 1.46308   1
  -3   7   4 5.26286 1.57377   9
   1  -7  -4 0.25527 0.88329   1
  -1  -7   4 1.32905 1.01686   6
   1  -7  -4 0.26994 1.03664   6
   1  -7  -4 1.66111 0.96031   2
   1  -7  -4 1.21371 1.30260  13
  -1  -7   4 0.31323 0.95176   1
  -1   7   4 1.28448 1.29487  10
   1   7  -4 0.78718 1.21957   4
  -1   7   4 1.03627 1.17522   9
   1   7  -4 1.79753 1.64405   7
   1   7  -4 1.35392 0.86878   3
  -1   7   4 0.30425 1.29506   3
  -1   7   4 1.33347 1.01144   1
  -1  -7  -4 38.2436 2.59281   8
  -1  -7  -4 42.8924 3.67419   1
   1  -7   4 39.2688 2.49240   6
  -1  -7  -4 46.0346 3.18411   2
   1  -7   4 44.8782 2.69145   1
   1   7   4 46.0825 3.51346   9
  -1   7  -4 43.2734 2.98432   5
  -1   7  -4 42.4787 3.85742   7
   1   7   4 38.3242 3.01387  11
   1   7   4 37.1105 3.43751   1
  -1   7  -4 43.8641 3.50257   4
   1   7   4 43.9331 4.39603  10
  -1   7  -4 45.1639 2.87873   3
   3  -7   4 16.4367 1.60866   6
  -3  -7  -4 18.5335 2.63527   8
  -3  -7  -4 16.6855 2.70019   2
   3   7   4 17.5194 3.64629  10
  -3   7  -4 15.1863 2.92684   7
  -3   7  -4 19.0494 2.65541   5
  -3   7  -4 18.2690 2.77959   4
   3   7   4 14.8145 2.91354   9
   3   7   4 20.4352 2.80084  11
  -3   7  -4 15.0675 2.30370   3
   3   7   4 15.4074 2.71404   6
   3   7   4 19.2113 3.32473   1
  -5  -7  -4 12.9017 2.50798   8
  -5  -7  -4 14.2924 2.97513   2
   5  -7   4 13.1164 3.34377  13
  -5  -7  -4 14.1772 2.20976  14
   5  -7   4 14.2476 1.18040   6
   5   7   4 15.4647 2.96230   1
   5   7   4 13.8781 3.46705   9
  -5   7  -4 15.4521 2.63074   3
  -5   7  -4 18.1505 2.92400   4
  -5   7  -4 15.4511 2.87167   7
  -5   7  -4 13.1442 2.80821   5
   5   7   4 15.0018 2.90860  11
   5   7   4 13.2600 2.95590   6
   7  -7   4 4.19023 1.03266   6
  -7  -7  -4 2.89238 2.47157   8
  -7  -7  -4 3.46027 2.37056   2
   7   7   4 2.32251 2.92793   9
   7   7   4 2.24820 1.80916   6
  -7   7  -4 1.28751 2.23817   5
   7   7   4 3.86189 2.54327   1
 -10  -8   4 263.544 10.8938   8
  10  -8  -4 270.709 10.3312   6
 -10   8   4 270.362 11.6883   3
  10   8  -4 271.141 11.6743  11
  10   8  -4 261.312 12.1202   1
 -10   8   4 271.445 10.3409   5
   8  -8  -4 563.932 15.6524   1
  -8  -8   4 556.544 16.5867   1
  -8  -8   4 544.466 15.7643   8
   8  -8  -4 544.667 15.5906   6
   8  -8  -4 551.968 21.3583  13
  -8   8   4 528.525 14.6781   5
   8   8  -4 537.584 16.2351  11
  -8   8   4 548.279 16.5455   3
   8   8  -4 534.679 17.3752   1
   6  -8  -4 270.009 9.76125   1
  -6  -8   4 272.815 10.3367   1
   6  -8  -4 266.804 13.2039  13
   6  -8  -4 281.047 9.71699   6
  -6  -8   4 269.456 9.23451   8
   6   8  -4 281.601 10.3780   1
  -6   8   4 273.814 8.53973   5
   6   8  -4 265.312 10.0574   7
   6   8  -4 278.385 9.74382  11
  -6   8   4 293.546 10.5205   3
   4  -8  -4 743.510 21.7753  13
  -4  -8   4 694.589 18.2540   1
  -4  -8   4 740.023 17.7023   6
   4  -8  -4 709.097 18.2026   1
   4  -8  -4 697.687 17.4634   6
   4   8  -4 736.752 17.2006  11
  -4   8   4 712.073 17.3344   9
   4   8  -4 717.811 17.6464   1
   4   8  -4 694.360 16.1913   4
  -4   8   4 726.184 18.0454   3
   4   8  -4 716.460 18.5601   7
   2  -8  -4 183.936 8.49972  13
   2  -8  -4 183.892 7.75554   1
   2  -8  -4 178.930 7.01921   6
  -2  -8   4 177.479 6.81377   6
  -2   8   4 184.796 7.44934   3
   2   8  -4 186.858 7.98823   7
   2   8  -4 184.095 6.20908   3
   2   8  -4 177.274 6.46144  11
  -2   8   4 185.664 7.22056   1
  -2   8   4 177.107 6.80165   9
   2   8  -4 168.359 6.55293   4
   0  -8  -4 807.575 20.0959   1
   0  -8   4 801.155 18.0430   6
   0  -8  -4 829.419 18.3553   2
   0  -8   4 802.913 18.2186   1
   0   8   4 814.563 20.1804   1
   0   8  -4 786.005 17.5654   3
   0   8  -4 796.892 18.8973   4
   0   8   4 786.217 18.3815  11
   0   8   4 821.814 19.1998   9
   0   8  -4 809.310 20.3677   7
   2  -8   4 178.995 5.93018   1
  -2  -8  -4 204.618 8.24649   1
  -2  -8  -4 186.093 7.45340   2
   2  -8   4 189.881 6.18229   6
   2   8   4 181.732 7.85871   9
  -2   8  -4 183.539 6.82148   3
  -2   8  -4 188.839 8.46321   7
   2   8   4 193.192 7.53597  11
   2   8   4 186.410 8.49516   1
  -2   8  -4 194.715 6.94128   5
  -2   8  -4 190.474 7.75473   4
   4  -8   4 711.432 22.6966  13
  -4  -8  -4 721.317 17.5044  14
  -4  -8  -4 732.612 18.5639   8
  -4  -8  -4 729.946 18.7364   2
   4  -8   4 733.681 15.4412   6
   4   8   4 737.227 21.0507   1
  -4   8  -4 758.327 20.6221   7
   4   8   4 743.794 19.1041  11
  -4   8  -4 739.961 18.6752   4
  -4   8  -4 744.095 18.4543   5
   4   8   4 706.048 19.9491   9
  -6  -8  -4 179.195 8.53140   8
  -6  -8  -4 168.816 8.01199   2
   6   8   4 164.677 8.51141  11
   6   8   4 171.854 9.57945   1
  -6   8  -4 176.702 8.17898   5
  -6   8  -4 165.784 9.08337   7
  -9  -9   4 5.89578 2.74881   8
   9  -9  -4 5.68526 2.34048   6
   9  -9  -4 4.73228 2.05810   1
   9   9  -4 8.93354 3.42819   1
  -9   9   4 8.51191 2.85735   3
   9   9  -4 7.16487 2.61066  11
  -9   9   4 3.99404 2.19509   5
   7  -9  -4 70.4385 5.14333   1
   7  -9  -4 69.2128 5.20052   6
  -7  -9   4 67.3888 5.12559   8
  -7  -9   4 70.5388 5.88616   1
   7  -9  -4 69.1117 7.31634  13
  -7   9   4 65.6002 5.74328   3
   7   9  -4 65.9395 5.63399  11
   7   9  -4 72.9479 6.11229   1
   5  -9  -4 4.92462 2.05686   6
  -5  -9   4 1.44745 1.78605   1
   5  -9  -4 0.65367 1.81115  13
  -5  -9   4 1.18065 1.62794   8
   5  -9  -4 0.52251 1.62417   1
   5   9  -4 1.09506 1.81404  11
  -5   9   4 0.80454 1.36289   9
   5   9  -4 6.78029 2.44538   7
  -5   9   4 0.67087 1.38039   3
   3  -9  -4 26.0889 3.57684   1
  -3  -9   4 20.3434 3.04025   1
  -3  -9   4 22.4894 3.04128   6
   3  -9  -4 27.1662 4.32465  13
   3  -9  -4 26.8592 3.33480   6
   3   9  -4 25.6292 2.84020   3
  -3   9   4 21.6154 3.31301   3
  -3   9   4 20.6084 2.66474   9
   3   9  -4 25.7094 3.10439  11
   3   9  -4 40.9631 4.40525   7
   3   9  -4 21.6991 2.76501   4
  -1  -9   4 8.95823 1.79388   6
   1  -9  -4 6.92264 2.29899  13
   1  -9  -4 9.88817 2.35874   1
  -1  -9   4 10.5857 2.08111   1
   1  -9  -4 11.3686 2.01189   2
  -1   9   4 10.4519 2.13351   9
  -1   9   4 7.59576 2.10393   1
   1   9  -4 8.18801 1.94019   4
  -1   9   4 8.89844 2.42766   3
   1   9  -4 9.05710 1.90301   3
   1   9  -4 12.6946 2.94562   7
  -1  -9  -4 3.98633 2.09844   1
  -1  -9  -4 4.31253 1.51689   2
   1  -9   4 4.61425 1.51202   6
   1  -9   4 7.42869 1.65930   1
  -1   9  -4 6.80732 2.55332   7
  -1   9  -4 4.19526 2.03870   4
  -1   9  -4 5.35335 1.57688   3
   1   9   4 3.17623 1.80142  11
   1   9   4 6.63183 2.35913   1
   1   9   4 8.22445 2.15425   9
  -3  -9  -4 27.8175 3.41708   2
   3  -9   4 29.8964 2.68152   6
  -3   9  -4 26.8235 3.71431   4
   3   9   4 26.7561 3.75463  11
   3   9   4 29.2600 4.11185   1
  -3   9  -4 28.6895 4.40643   7
   3   9   4 22.2519 3.46909   9
  -5  -9  -4 5.55514 2.13857   2
  -5  -9  -4 4.34130 1.45443  14
   5  -9   4 6.50153 1.43082   6
  -5   9  -4 6.16376 2.89580   7
   5   9   4 4.84504 2.52596  11
   5   9   4 4.80044 2.83274   1
  -5   9  -4 4.81843 2.29604   5
  -8 -10   4 4.98031 2.65246   1
   8 -10  -4 8.53989 2.71946   6
   8 -10  -4 10.8872 2.76439   1
  -8 -10   4 12.2123 2.99135   8
  -8  10   4 10.8234 3.39164   3
   8  10  -4 12.7173 3.55034  11
   8  10  -4 7.43332 3.08112   1
   6 -10  -4 989.863 24.1761   1
   6 -10  -4 969.952 24.0497   6
  -6 -10   4 968.057 23.0347   8
  -6 -10   4 983.938 25.5269   1
  -6  10   4 956.586 24.6435   3
   6  10  -4 920.671 23.3644  11
   4 -10  -4 82.5512 5.61817   1
   4 -10  -4 83.8534 5.51041   6
  -4 -10   4 83.9212 5.99617   1
   4 -10  -4 86.4910 7.37612  13
   4  10  -4 89.9141 5.56246  11
   4  10  -4 94.1932 5.32301   3
   4  10  -4 78.0703 5.99146   7
  -4  10   4 88.3449 6.00876   3
  -2 -10   4 1362.40 29.1265   6
   2 -10  -4 1281.78 32.0886  13
   2 -10  -4 1274.60 30.1789   1
  -2 -10   4 1255.45 29.1314   1
  -2  10   4 1285.02 29.4516   3
   2  10  -4 1230.80 28.0707   4
   2  10  -4 1294.01 30.5864   7
   0 -10   4 137.542 6.49450   6
   0 -10  -4 147.956 7.94250   1
   0 -10   4 139.310 6.56806   1
   0 -10  -4 147.590 6.56220   2
   0  10   4 146.577 7.40380   1
   0  10  -4 149.756 8.23712   7
   0  10   4 138.059 7.49005   3
   0  10  -4 159.760 7.29633   4
   2 -10   4 807.901 19.3243   6
  -2 -10  -4 850.163 22.2182   1
  -2 -10  -4 821.273 20.5215   2
  -2  10  -4 812.234 22.9920   7
  -2  10  -4 848.689 21.5469   4
   2  10   4 822.894 22.7479   1
  -4 -10  -4 60.3970 5.25112   2
   4 -10   4 61.8013 3.77613   6
  -4 -10  -4 63.7482 4.63354  14
   4  10   4 59.1053 6.28230   1
  -4  10  -4 60.6467 6.21382   7
   4  10   4 62.0521 5.47834  11
   7 -11  -4 100.639 6.51730   1
   7 -11  -4 108.554 6.91864   6
  -7 -11   4 107.301 7.27911   1
  -7  11   4 105.685 7.54226   3
   7  11  -4 105.733 7.10507  11
   5 -11  -4 68.7808 5.36199   1
  -5 -11   4 74.3016 6.37929   1
   5 -11  -4 69.9114 5.52022   6
  -5  11   4 59.3994 5.61660   3
   5  11  -4 63.4084 5.76318   7
   5  11  -4 71.0441 5.60744  11
   3 -11  -4 154.915 9.91416  13
   3 -11  -4 152.686 8.32639   1
  -3 -11   4 150.996 7.52994   6
  -3 -11   4 148.873 8.20441   1
   3  11  -4 164.595 7.57769  11
  -3  11   4 156.831 8.23653   3
   3  11  -4 142.666 8.37057   7
  -1 -11   4 136.099 7.02627   6
  -1 -11   4 145.084 7.19354   1
   1 -11  -4 143.522 8.25908   1
  -1  11   4 142.226 8.06135   3
   1  11  -4 135.741 7.31820   4
   1  11  -4 138.335 8.45930   7
   1 -11   4 85.1263 5.17603   1
  -1 -11  -4 84.6406 6.15133   1
  -1 -11  -4 91.5517 5.42761   2
   1 -11   4 90.0648 5.38828   6
   1  11   4 81.6905 6.22963   3
   1  11   4 87.2738 6.47373   1
  -1  11  -4 89.9353 6.76684   7
  -3 -11  -4 115.205 6.86100   2
   3 -11   4 128.294 6.06585   6
   3  11   4 126.452 8.44327   1
  -3  11  -4 113.381 8.26442   7
   3  11   4 116.900 6.88714  11
   6 -12  -4 104.536 6.95787   1
   6 -12  -4 99.3335 6.81765   6
  -6 -12   4 105.324 7.74104   1
  -6  12   4 94.6589 7.30661   3
   6  12  -4 97.3978 6.78990  11
  -4 -12   4 417.344 15.1746   1
   4 -12  -4 440.339 15.0189   1
  -4  12   4 438.683 15.1101   3
   4  12  -4 431.385 13.6770  11
   4  12  -4 419.980 15.3757   7
   2 -12  -4 65.9980 6.16224   1
  -2 -12   4 65.2326 5.61150   1
  -2 -12   4 69.3457 5.55386   6
  -2  12   4 57.5308 5.83520   3
   2  12  -4 59.8867 6.19387   7
   0 -12   4 467.861 14.7039   1
   0 -12  -4 501.574 16.9315   1
   0 -12   4 487.275 15.0767   6
   0  12  -4 492.833 17.4121   7
   0  12   4 481.493 16.4160   3
  -2 -12  -4 37.4827 4.71196   1
  -2 -12  -4 49.0875 5.04696   2
   2 -12   4 40.8660 4.05791   6
  -2  12  -4 38.2738 5.58660   7
   2  12   4 44.2966 5.81918   3
   2  12   4 44.6592 5.52908   1
  -3 -13   4 6.12266 2.85648   1
   3 -13  -4 12.1819 3.04272   1
  -3  13   4 9.55112 3.32720   3
   3  13  -4 5.23259 3.06652   7
   1 -13  -4 3.18627 2.82762   1
  -1 -13   4 6.45377 2.65536   1
  -1 -13   4 3.43594 2.35009   6
   1  13  -4 6.28281 3.33349   7
  -1  13   4 8.84656 3.39755   3
  12   0  -5 4.73793 3.00669  11
 -12   0   5 0.40137 1.63768   8
  12   0  -5 2.52762 2.29010   6
 -12   0   5 0.63501 2.09822   5
  12   0  -5 2.36485 2.21824   1
 -10   0   5 1.45252 1.57424   8
 -10   0   5 -0.1490 1.61124   5
  10   0  -5 1.81400 1.59824   1
  10   0  -5 1.00465 1.57572  11
  10   0  -5 1.84979 1.88515   6
   8   0  -5 1.36862 1.36143  11
   8   0  -5 1.46628 1.83738  13
   8   0  -5 4.56148 1.82711   1
  -8   0   5 -0.6191 1.04676  12
  -8   0   5 0.26752 0.80375   8
  -8   0   5 1.02734 1.29204   3
   8   0  -5 0.06644 1.30324   6
   6   0  -5 1.96473 1.10877   6
  -6   0   5 0.34159 0.70416   3
  -6   0   5 -0.0058 0.61084  12
   6   0  -5 0.33579 0.75013   1
   6   0  -5 -0.0088 1.46185  13
  -6   0   5 -0.3799 0.72426   1
  -6   0   5 -0.2352 0.90781   9
   6   0  -5 1.39269 0.89692  11
   4   0  -5 -0.2676 0.47031   1
   4   0  -5 1.17647 0.48968  11
   4   0  -5 0.26318 0.58977   6
  -4   0   5 2.81616 0.74849   6
  -4   0   5 2.27897 0.58216   3
  -4   0   5 -0.4188 0.66777   9
   4   0  -5 1.32108 0.56631  14
  -4   0   5 2.16366 1.41482  10
  -4   0   5 1.80765 0.81438  12
   4   0  -5 -0.1959 1.03146  13
  -2   0   5 0.76110 1.13301  10
   2   0  -5 3.79089 0.90988  14
  -2   0   5 1.67599 0.87284   9
   2   0  -5 4.53723 1.28001  13
   0   0  -5 2.78326 0.77274  14
   0   0   5 0.58795 1.26464  10
   0   0   5 1.39868 0.71251   1
   0   0  -5 1.62454 0.87956   8
   0   0  -5 0.93978 0.51126   7
   0   0  -5 0.58172 0.61134   4
   0   0   5 0.23679 0.49664   6
   0   0  -5 0.95291 0.63063   2
   0   0   5 0.95147 0.68167   9
   2   0   5 1.80040 0.74041   1
  -2   0  -5 1.16148 1.02840   2
   2   0   5 0.62813 1.15096   9
  -2   0  -5 0.71128 1.10078   5
   2   0   5 3.62549 0.85186   6
  -2   0  -5 3.93190 1.14678  14
   4   0   5 1.60284 0.88220   1
  -4   0  -5 0.54409 1.46882   8
  -4   0  -5 9.97479 2.01657   2
   4   0   5 2.17771 2.17164  10
   4   0   5 -0.0629 0.75972   6
  -4   0  -5 1.09401 0.76155  14
  -4   0  -5 0.66622 1.02787   5
  -6   0  -5 2.55922 2.04176   8
   6   0   5 0.91321 1.15289   6
  -6   0  -5 0.13337 0.99540   2
  -6   0  -5 2.42376 2.02689   5
  -8   0  -5 0.91204 2.31982   5
   8   0   5 1.15142 1.54518   6
  -8   0  -5 1.70094 1.76797   8
  11  -1  -5 794.601 21.0124  11
 -11  -1   5 827.615 20.2139   8
  11  -1  -5 836.040 21.5165   1
 -11  -1   5 792.307 19.6528   5
  11   1  -5 806.077 21.4949  11
  11   1  -5 793.855 21.6371   1
  11   1  -5 811.139 21.7719   6
 -11   1   5 785.815 19.8767   5
   9  -1  -5 96.5220 7.26448  13
  -9  -1   5 103.116 5.24317   8
  -9  -1   5 110.215 5.55790  12
  -9  -1   5 103.721 5.09630   5
   9  -1  -5 104.053 5.91245   1
   9  -1  -5 99.5774 5.53084  11
   9  -1  -5 100.955 5.74115   6
   9   1  -5 101.629 7.00648  13
  -9   1   5 118.670 5.61250   5
   9   1  -5 101.834 6.09872   1
  -9   1   5 110.023 5.30193  12
   9   1  -5 110.234 5.93092   6
  -9   1   5 104.811 6.02513   3
  -9   1   5 103.505 4.86762   8
   9   1  -5 110.922 5.90430  11
   7  -1  -5 2026.36 43.6702  13
  -7  -1   5 2016.08 38.6422  12
   7  -1  -5 2017.07 40.1730   1
   7  -1  -5 2069.70 39.8273   6
  -7  -1   5 1990.17 39.1786   1
   7   1  -5 1971.71 37.4640   4
  -7   1   5 1985.02 39.3782   3
  -7   1   5 2037.74 38.4420  12
   7   1  -5 2036.01 39.8223   6
   7   1  -5 1989.51 42.8837  13
   7   1  -5 2062.81 38.8542  11
   7   1  -5 2008.52 40.4619   1
  -5  -1   5 423.985 10.2321   6
   5  -1  -5 453.375 11.4855   1
  -5  -1   5 459.330 11.2023   1
   5  -1  -5 447.322 9.20912  14
  -5  -1   5 448.062 10.4148  12
   5  -1  -5 448.960 13.3516  13
  -5  -1   5 431.895 10.6636   9
   5  -1  -5 452.660 10.9092   6
   5   1  -5 427.525 11.3816   1
   5   1  -5 427.071 10.6277   6
  -5   1   5 450.431 14.2319  10
  -5   1   5 436.960 10.1623  12
   5   1  -5 436.797 9.07324  14
   5   1  -5 458.575 13.3221  13
  -5   1   5 448.123 10.9112   1
   5   1  -5 451.018 10.1344   4
  -5   1   5 441.017 11.1298   9
  -5   1   5 428.844 10.2398   3
   5   1  -5 434.321 9.74599  11
  -3  -1   5 3254.91 59.7311   1
  -3  -1   5 3291.02 58.9454  12
   3  -1  -5 3354.01 58.5999  14
  -3  -1   5 3314.74 59.1436   9
   3  -1  -5 3405.83 62.1563  13
  -3  -1   5 3325.50 63.2124  10
  -3  -1   5 3314.20 59.1619   6
   3  -1  -5 3155.31 58.7553   6
   3  -1  -5 3238.67 58.1668   2
   3  -1  -5 3303.18 59.8093   1
   3   1  -5 3301.81 58.7633   2
  -3   1   5 3325.66 63.6330  10
   3   1  -5 3208.29 58.5417  11
   3   1  -5 3319.16 62.0926  13
  -3   1   5 3231.03 59.0497   6
   3   1  -5 3277.34 58.7641   4
  -3   1   5 3101.61 59.0572   3
  -3   1   5 3316.65 59.7824   9
   3   1  -5 3261.78 59.4710   1
  -3   1   5 3367.22 59.9140   1
   3   1  -5 3211.76 58.6204  14
  -3   1   5 3258.31 58.8010  12
   1  -1  -5 1242.71 23.6752   4
  -1  -1   5 1286.70 23.6818   6
   1  -1  -5 1243.19 24.2886   8
  -1  -1   5 1232.41 24.0449  12
  -1  -1   5 1258.57 28.0347  10
   1  -1  -5 1242.25 24.1992   2
   1  -1  -5 1255.23 24.0198   1
  -1  -1   5 1229.01 24.1843   1
  -1  -1   5 1221.07 24.2397   9
   1  -1  -5 1257.28 23.9652  14
   1  -1  -5 1293.16 25.9514  13
  -1   1   5 1248.64 24.9101   9
  -1   1   5 1258.87 24.0564  12
  -1   1   5 1263.32 28.5271  10
   1   1  -5 1246.52 24.1977  14
   1   1  -5 1198.68 23.2534   1
  -1   1   5 1246.31 24.0909   6
   1   1  -5 1233.38 23.8003   4
   1   1  -5 1207.10 24.0002   7
  -1   1   5 1256.33 24.6835   1
   1   1  -5 1256.90 24.3898   2
   1  -1   5 1850.15 36.9133   9
  -1  -1  -5 1918.68 35.2449   4
  -1  -1  -5 1921.11 36.7354   2
   1  -1   5 1922.99 35.4925   1
   1  -1   5 1939.02 41.8521  10
  -1  -1  -5 1856.86 36.8062   8
  -1  -1  -5 1929.52 36.0583  14
   1  -1   5 1941.76 34.7711   6
   1   1   5 1955.38 35.8718   6
   1   1   5 1905.76 37.5279   9
  -1   1  -5 1907.80 37.0023   8
  -1   1  -5 1980.79 36.9466   2
  -1   1  -5 1931.11 35.5668   7
  -1   1  -5 1904.51 35.6318   4
   1   1   5 1978.89 42.5400  10
  -1   1  -5 1963.86 36.3157  14
   1   1   5 1865.89 36.2533   1
  -3  -1  -5 801.024 17.9513   2
   3  -1   5 774.206 15.2247   6
  -3  -1  -5 777.348 16.8275  14
  -3  -1  -5 756.036 17.7553   5
  -3  -1  -5 779.498 15.6651   4
   3  -1   5 813.563 23.6374  10
   3  -1   5 789.715 15.8237   1
  -3  -1  -5 780.732 18.4017   8
  -3   1  -5 860.255 18.6339   8
  -3   1  -5 779.059 17.0009  14
   3   1   5 782.345 16.7440   6
   3   1   5 770.455 17.0183   1
  -3   1  -5 774.039 18.1843   5
  -3   1  -5 789.710 17.9069   2
   3   1   5 779.025 23.7332  10
  -3   1  -5 780.717 16.2402   4
  -5  -1  -5 609.799 15.8115   5
  -5  -1  -5 592.797 15.9747   8
   5  -1   5 587.884 12.9061   6
  -5  -1  -5 602.132 15.3635   2
  -5   1  -5 587.084 14.0259  14
  -5   1  -5 571.629 15.6534   5
  -5   1  -5 587.368 15.0802   2
   5   1   5 594.426 14.3490   6
   5   1   5 587.861 14.1321   1
  -5   1  -5 616.704 16.2227   8
  -7  -1  -5 277.536 9.79961   2
  -7  -1  -5 289.634 10.6876   5
   7  -1   5 293.170 8.50474   6
  -7  -1  -5 291.687 10.8358   8
  -7   1  -5 300.857 11.1250   5
   7   1   5 294.281 9.66165   6
  -7   1  -5 281.351 9.70892   2
  -7   1  -5 271.317 10.5822   8
 -12  -2   5 184.930 8.50876   8
  12  -2  -5 178.517 8.84686   6
  12  -2  -5 181.782 8.66060   1
  12  -2  -5 177.416 8.72579  11
  12   2  -5 179.151 9.08997   1
 -12   2   5 179.221 8.49897   5
  12   2  -5 184.914 9.38897  11
 -10  -2   5 412.824 12.3831   8
  10  -2  -5 404.706 12.7705  11
  10  -2  -5 374.952 15.6948  13
 -10  -2   5 401.843 11.5321   5
  10  -2  -5 405.091 12.9340   6
  10  -2  -5 403.237 12.9570   1
 -10   2   5 408.015 12.3154   5
  10   2  -5 413.287 13.4608   6
 -10   2   5 399.634 13.3424   3
  10   2  -5 411.004 13.7618   1
  10   2  -5 413.817 13.3168  11
   8  -2  -5 498.541 17.1549  13
   8  -2  -5 491.320 13.4415   6
  -8  -2   5 492.770 12.6826  12
   8  -2  -5 482.709 13.6330   1
  -8   2   5 493.977 12.2885  12
   8   2  -5 474.237 15.6395  13
   8   2  -5 492.247 13.7815   6
  -8   2   5 484.746 13.5174   3
  -8   2   5 508.878 12.7857   5
   8   2  -5 490.352 14.2062   1
   8   2  -5 493.709 13.1619  11
  -8   2   5 494.445 11.8038   8
  -6  -2   5 876.477 18.4812  12
   6  -2  -5 866.815 19.1602   6
   6  -2  -5 886.739 19.8293   1
  -6  -2   5 888.125 19.4006   1
   6  -2  -5 880.415 22.7349  13
   6   2  -5 855.134 21.7640  13
  -6   2   5 910.892 19.7071   9
  -6   2   5 862.253 18.9981   3
  -6   2   5 868.834 18.1293  12
  -6   2   5 857.748 18.7707   1
   6   2  -5 865.041 19.0917   6
   6   2  -5 905.177 20.1802   1
   6   2  -5 886.538 18.2792  11
   6   2  -5 859.258 17.6605   4
   4  -2  -5 1127.21 23.4672   1
  -4  -2   5 1138.84 23.2325   1
   4  -2  -5 1141.16 21.6557  14
   4  -2  -5 1078.42 22.5457   6
   4  -2  -5 1140.75 20.7891   2
  -4  -2   5 1142.53 26.2112  10
  -4  -2   5 1114.59 22.3070  12
  -4  -2   5 1113.91 22.5091   6
  -4  -2   5 1131.59 22.2501   9
   4  -2  -5 1137.89 25.5990  13
   4   2  -5 1125.66 21.5928  14
  -4   2   5 1157.83 26.8224  10
   4   2  -5 1127.01 22.0774   4
  -4   2   5 1105.55 22.0741   3
  -4   2   5 1186.13 23.2720   1
   4   2  -5 1134.76 23.2227   1
   4   2  -5 1178.21 22.9976   6
   4   2  -5 1150.24 25.6463  13
  -4   2   5 1096.99 22.1950   6
   4   2  -5 1139.46 21.3985  11
  -4   2   5 1132.77 22.0137  12
  -4   2   5 1151.32 23.3392   9
   2  -2  -5 921.607 17.7634  14
  -2  -2   5 903.587 21.2183  10
  -2  -2   5 898.029 17.7992   6
  -2  -2   5 870.509 17.5196   9
   2  -2  -5 888.960 18.4699   1
  -2  -2   5 838.159 17.9917   1
   2  -2  -5 900.320 19.9552  13
   2  -2  -5 868.772 17.4852   2
  -2  -2   5 902.587 17.8447  12
  -2   2   5 881.731 21.7985  10
   2   2  -5 896.561 17.8058   4
   2   2  -5 886.225 17.6220   1
  -2   2   5 875.262 17.5565  12
   2   2  -5 910.898 18.5587   7
  -2   2   5 890.917 18.8539   9
  -2   2   5 891.657 18.6495   1
   2   2  -5 894.455 18.1253   2
  -2   2   5 873.295 18.0022   6
   2   2  -5 868.089 16.0443  11
  -2   2   5 883.089 17.0889   3
   2   2  -5 874.464 17.8684  14
   0  -2   5 1002.38 18.6244   6
   0  -2   5 958.795 19.7834   9
   0  -2   5 967.520 19.1864   1
   0  -2   5 985.751 23.6699  10
   0  -2  -5 1010.89 20.5946  13
   0  -2  -5 974.688 20.0551   8
   0  -2  -5 929.890 18.0388   7
   0  -2  -5 987.983 20.0465   2
   0  -2  -5 995.392 19.6338  14
   0  -2  -5 1001.37 19.0903   4
   0  -2  -5 963.821 19.4975   1
   0  -2   5 921.720 19.5468  12
   0   2   5 968.958 20.3356   1
   0   2  -5 1023.69 19.6797   4
   0   2  -5 965.846 20.2356   2
   0   2  -5 1012.74 20.0814  14
   0   2  -5 978.553 19.7295   7
   0   2   5 982.844 19.8430   6
   0   2   5 997.428 24.6114  10
   0   2   5 983.198 20.9541   9
   0   2  -5 972.767 20.2828   8
   0   2   5 951.940 18.2794  11
   2  -2   5 426.180 8.18076   6
   2  -2   5 420.690 14.7668  10
  -2  -2  -5 425.621 10.9531   2
   2  -2   5 415.746 9.09451   1
  -2  -2  -5 437.986 10.3469  14
  -2  -2  -5 409.037 9.20393   4
  -2  -2  -5 422.585 11.3209   8
   2  -2   5 414.797 8.12090   6
  -2   2  -5 429.836 10.3772   7
   2   2   5 446.844 12.3330   9
  -2   2  -5 421.742 11.0495   2
  -2   2  -5 431.721 10.5986  14
  -2   2  -5 441.425 10.1454   4
  -2   2  -5 415.842 11.2038   5
   2   2   5 438.826 15.7548  10
   2   2   5 362.976 11.5153  11
   2   2   5 433.056 11.0126   1
   2   2   5 431.857 10.5974   6
  -2   2  -5 440.305 11.3842   8
   4  -2   5 286.976 5.99727   6
   4  -2   5 262.043 12.5789  10
  -4  -2  -5 289.866 9.11417   2
  -4  -2  -5 278.860 9.37022   8
  -4  -2  -5 281.292 8.94245   5
  -4  -2  -5 286.077 8.05087  14
   4   2   5 278.400 8.55045   6
   4   2   5 279.880 8.66541   1
   4   2   5 258.774 13.3690  10
  -4   2  -5 278.493 9.37953   5
  -4   2  -5 281.911 8.24466  14
  -4   2  -5 280.062 7.60912   4
  -4   2  -5 282.073 9.38798   8
  -4   2  -5 274.090 8.77715   2
   6  -2   5 175.160 5.15894   6
  -6  -2  -5 162.075 7.82413   8
  -6  -2  -5 155.914 7.29577   5
  -6  -2  -5 179.420 7.32696   2
  -6   2  -5 175.584 7.83614   8
   6   2   5 170.488 7.12093   6
   6   2   5 160.212 6.61561   1
  -6   2  -5 171.763 7.90355   5
  -6   2  -5 169.506 6.90297   2
  -8  -2  -5 63.8677 5.27300   8
   8  -2   5 68.9330 3.67763   6
  -8  -2  -5 59.3997 4.92412   2
   8   2   5 63.8270 6.13971   9
  -8   2  -5 61.4418 5.29418   8
   8   2   5 62.1359 4.74221   6
  -8   2  -5 61.3825 5.27889   5
  11  -3  -5 138.240 7.23735  11
  11  -3  -5 145.473 7.48857   1
 -11  -3   5 138.640 7.26547   8
  11  -3  -5 139.319 7.23134   6
 -11   3   5 135.576 7.20616   5
  11   3  -5 146.749 8.49563  11
 -11   3   5 150.464 8.36633   3
  11   3  -5 135.348 8.14904   1
  -9  -3   5 764.000 18.9283   8
  -9  -3   5 769.675 17.6549   5
   9  -3  -5 760.929 23.8380  13
   9  -3  -5 771.328 19.4851   1
   9  -3  -5 790.140 19.5285   6
  -9  -3   5 778.450 18.7551  12
  -9   3   5 782.274 18.8445   5
   9   3  -5 798.100 19.6661  11
  -9   3   5 775.072 19.9510   3
  -9   3   5 813.372 18.0510  12
   9   3  -5 790.293 20.8137   1
   9   3  -5 798.818 20.2712   6
   7  -3  -5 563.086 14.6444   1
   7  -3  -5 537.828 17.6505  13
  -7  -3   5 559.527 13.6252  12
   7  -3  -5 581.527 14.4832   6
  -7  -3   5 571.469 14.5020   1
  -7   3   5 558.594 14.8037   9
   7   3  -5 554.662 14.4375   6
  -7   3   5 558.981 14.4391   3
   7   3  -5 578.126 13.8714  11
  -7   3   5 567.308 12.9386  12
   7   3  -5 551.447 15.2061   1
   5  -3  -5 2340.58 47.8670  13
   5  -3  -5 2345.48 44.1524   6
   5  -3  -5 2320.21 44.7841   1
  -5  -3   5 2335.35 44.5128   1
   5  -3  -5 2294.78 42.1566  14
  -5  -3   5 2291.80 43.5626   6
  -5  -3   5 2363.13 43.3657  12
  -5   3   5 2332.44 43.8737   1
  -5   3   5 2309.66 48.5166  10
   5   3  -5 2326.18 42.1119  14
   5   3  -5 2308.57 44.7607   1
  -5   3   5 2370.07 44.6927   9
   5   3  -5 2325.24 42.8504  11
  -5   3   5 2342.68 42.6657  12
   5   3  -5 2262.78 42.7308   4
  -5   3   5 2329.59 43.7549   3
   3  -3  -5 1094.30 21.1817  14
   3  -3  -5 1098.12 24.3579  13
  -3  -3   5 1078.55 22.1685   1
  -3  -3   5 1076.74 20.6333   9
   3  -3  -5 1083.59 22.5319   1
   3  -3  -5 1057.31 21.6455   6
  -3  -3   5 1079.81 24.5162  10
   3  -3  -5 1062.66 20.3284   2
  -3  -3   5 1073.39 21.5767   6
  -3  -3   5 1079.46 21.2806  12
  -3   3   5 1063.07 20.9006  12
   3   3  -5 1111.32 21.8263   1
   3   3  -5 1089.30 21.3917   4
  -3   3   5 1097.66 22.4380   1
   3   3  -5 1076.80 20.2664  11
  -3   3   5 1097.77 22.5383   9
  -3   3   5 1069.87 21.1973   3
  -3   3   5 1083.59 25.6240  10
   3   3  -5 1065.14 21.2719  14
   3   3  -5 1090.51 22.5687   7
  -3   3   5 1073.55 21.5271   6
   1  -3  -5 2954.11 52.9117  14
  -1  -3   5 2886.88 52.7663  12
  -1  -3   5 2969.90 52.3813   6
  -1  -3   5 2945.16 56.6018  10
   1  -3  -5 2944.66 54.6784  13
  -1  -3   5 2888.88 52.2639   9
   1  -3  -5 2918.02 52.7722   8
  -1  -3   5 2798.51 52.7885   1
   1  -3  -5 2813.61 52.8670   2
   1  -3  -5 2821.93 53.5296   1
   1   3  -5 2936.45 53.3612  14
  -1   3   5 2947.82 58.1959  10
  -1   3   5 2904.74 54.1355   1
  -1   3   5 2900.32 53.3159   6
   1   3  -5 2967.43 53.0657   4
   1   3  -5 2883.92 53.5752   2
  -1   3   5 2973.59 54.3744   9
  -1   3   5 2888.69 52.6167  12
   1   3  -5 2926.90 53.6127   7
  -1  -3  -5 324.578 8.99284   8
   1  -3   5 321.245 6.64870   6
  -1  -3  -5 309.511 8.13320   1
   1  -3   5 324.473 8.55753   9
  -1  -3  -5 330.495 8.34859  14
  -1  -3  -5 323.219 8.83853   2
   1  -3   5 308.902 6.58877   6
  -1  -3  -5 323.669 7.54981   4
   1  -3   5 315.001 7.28813   1
  -1   3  -5 316.546 8.92942   5
   1   3   5 308.441 7.36993  11
   1   3   5 327.257 9.85094   9
  -1   3  -5 326.609 8.37041   4
   1   3   5 317.785 9.21541   1
  -1   3  -5 316.070 8.64880   7
   1   3   5 318.941 8.76737   6
   1   3   5 299.223 12.0063  10
  -1   3  -5 323.301 9.06133   8
  -1   3  -5 318.662 8.64369  14
  -1   3  -5 315.340 9.00163   2
  -1   3  -5 311.841 7.33774   3
  -3  -3  -5 1527.13 31.3480   8
   3  -3   5 1518.33 36.5472  10
  -3  -3  -5 1521.04 30.8248   2
  -3  -3  -5 1537.19 29.6543  14
   3   3   5 1496.71 30.6946   6
   3   3   5 1515.38 38.2718  10
  -3   3  -5 1553.80 30.9469   2
   3   3   5 1505.52 31.0635   1
  -3   3  -5 1493.03 30.2842   7
  -3   3  -5 1496.33 29.4750   4
  -3   3  -5 1449.31 30.9049   5
  -3   3  -5 1501.89 30.0623  14
  -3   3  -5 1546.63 31.1519   8
  -3   3  -5 1536.95 29.8873   3
   3   3   5 1500.03 32.6944   9
   3   3   5 1402.20 30.3213  11
   5  -3   5 56.9888 1.76658   6
  -5  -3  -5 56.4440 4.34166   2
  -5  -3  -5 64.5007 4.91706   8
  -5  -3  -5 53.7904 3.20827  14
   5   3   5 59.9121 4.26804   6
   5   3   5 61.5098 4.23035   1
  -5   3  -5 56.5820 4.02519   2
   5   3   5 59.7335 5.49566   9
  -5   3  -5 60.0160 4.26586   8
  -5   3  -5 56.6397 4.29633   5
  -5   3  -5 55.1550 3.59826  14
  -7  -3  -5 619.593 16.9715   2
  -7  -3  -5 658.799 18.4453   8
   7  -3   5 635.289 13.4843   6
  -7   3  -5 608.742 17.5771   5
   7   3   5 657.442 17.7116   6
   7   3   5 651.463 20.5440   9
  -7   3  -5 634.139 17.5235   8
  12  -4  -5 3.04707 2.80711  11
  12  -4  -5 3.43145 2.40096   6
  12  -4  -5 3.18322 2.09730   1
 -12  -4   5 3.70763 2.42579   8
  12   4  -5 2.53766 2.69355   1
  12   4  -5 4.11564 2.63436  11
 -12   4   5 3.30717 2.58606   5
 -12   4   5 1.38212 2.78764   3
  10  -4  -5 38.0550 4.13690   6
 -10  -4   5 36.6645 4.15740   8
  10  -4  -5 42.3994 4.18524   1
 -10   4   5 47.0191 4.66612   5
  10   4  -5 36.4625 4.50272   1
  10   4  -5 52.5830 5.44244  11
 -10   4   5 34.6488 4.49210   3
  -8  -4   5 4.91781 1.48298  12
  -8  -4   5 8.02109 1.78627   1
  -8  -4   5 4.22960 1.29468   5
   8  -4  -5 3.45941 2.65802  13
   8  -4  -5 4.39463 1.78955   1
   8  -4  -5 14.6948 2.53651   6
  -8  -4   5 4.24243 1.93395   8
  -8   4   5 5.24520 1.90427   5
   8   4  -5 2.00170 1.75268  11
   8   4  -5 10.0276 2.55727   1
  -8   4   5 5.24040 2.01157   3
  -8   4   5 5.15741 1.44019  12
  -6  -4   5 66.7231 3.65275  12
   6  -4  -5 67.3171 5.84237  13
   6  -4  -5 67.2986 4.26686   1
  -6  -4   5 66.2673 4.20865   1
   6  -4  -5 67.3025 4.02963   6
   6   4  -5 70.5546 4.31254   1
  -6   4   5 69.4609 3.16883  12
   6   4  -5 64.1531 3.39160  11
   6   4  -5 65.1492 3.03112   4
  -6   4   5 67.7596 4.13145   9
   6   4  -5 72.4823 4.67310   7
  -6   4   5 65.9876 3.45677   1
  -6   4   5 71.9501 4.09308   3
  -4  -4   5 115.305 4.54166   6
   4  -4  -5 112.402 4.63722   6
   4  -4  -5 122.610 6.57247  13
  -4  -4   5 112.427 4.21075  12
   4  -4  -5 123.428 5.29417   1
  -4  -4   5 114.611 5.00527   1
   4   4  -5 116.254 4.30291   4
   4   4  -5 113.355 4.76356   1
  -4   4   5 115.607 6.50912  10
  -4   4   5 125.891 5.15149   9
   4   4  -5 109.722 4.03698  14
  -4   4   5 112.724 3.71927  12
   4   4  -5 116.564 5.28847   7
  -4   4   5 115.738 4.72754   1
  -4   4   5 114.501 4.51284   3
   4   4  -5 120.163 4.05234  11
   2  -4  -5 50.2158 2.51365   2
   2  -4  -5 64.2182 3.06069   6
  -2  -4   5 54.0514 2.84675   6
  -2  -4   5 51.5872 2.65138  12
   2  -4  -5 55.4450 3.85763  13
  -2  -4   5 53.3035 3.71334  10
  -2  -4   5 54.4384 3.01326   1
   2  -4  -5 57.9401 3.31940   1
  -2   4   5 55.2082 2.95113   6
  -2   4   5 55.8821 2.88675   3
  -2   4   5 54.8735 3.35941   9
  -2   4   5 55.3195 4.55686  10
  -2   4   5 57.3313 3.31833   1
  -2   4   5 58.0994 2.51164  12
   2   4  -5 54.6595 3.40395   7
   2   4  -5 59.8975 3.13240   4
   2   4  -5 60.9958 3.13511  14
   2   4  -5 53.3210 2.54377   1
   0  -4   5 365.870 8.31946   6
   0  -4   5 370.834 9.11583  12
   0  -4  -5 374.197 10.0060  13
   0  -4  -5 369.622 9.81195   1
   0  -4   5 375.339 11.8024  10
   0  -4   5 403.765 9.63603   9
   0  -4  -5 363.469 9.28309   8
   0  -4   5 362.691 8.73113   1
   0  -4  -5 381.973 9.62719   2
   0  -4  -5 374.251 9.35987  14
   0   4   5 384.538 13.4177  10
   0   4  -5 368.458 10.0722   7
   0   4   5 369.342 10.4274   1
   0   4  -5 359.980 9.90761   2
   0   4   5 345.327 8.33006  11
   0   4   5 380.734 10.7078   9
   0   4  -5 379.733 9.94953  14
   0   4  -5 371.985 9.56583   4
   0   4   5 364.236 9.81569   6
   2  -4   5 179.213 3.56286   6
  -2  -4  -5 190.059 6.66236   2
  -2  -4  -5 180.601 6.02591  14
   2  -4   5 178.750 3.55475   6
  -2  -4  -5 166.118 5.21349   4
  -2  -4  -5 173.288 6.55093   8
   2  -4   5 177.807 8.68503  10
  -2   4  -5 181.319 6.41529  14
   2   4   5 180.735 5.75582  11
  -2   4  -5 186.364 6.84748   5
  -2   4  -5 191.747 6.28898   4
   2   4   5 184.349 7.74565   9
  -2   4  -5 175.531 6.60711   7
  -2   4  -5 191.187 5.75523   3
   2   4   5 176.447 9.92311  10
   2   4   5 186.199 7.18595   1
   2   4   5 186.300 6.82221   6
  -2   4  -5 177.531 6.55595   8
  -2   4  -5 183.431 6.79728   2
  -4  -4  -5 147.030 6.50195   2
   4  -4   5 137.415 8.76128  10
  -4  -4  -5 149.476 5.52762  14
  -4  -4  -5 133.891 6.58584   8
  -4   4  -5 146.108 5.96206   3
  -4   4  -5 148.732 5.85932  14
  -4   4  -5 151.490 6.86426   5
  -4   4  -5 147.236 5.65256   4
   4   4   5 138.623 6.52213   6
   4   4   5 152.365 7.95168   9
  -4   4  -5 148.594 6.41046   7
  -4   4  -5 145.381 6.24742   2
  -4   4  -5 141.616 6.39679   8
   4   4   5 147.893 6.69408   1
  -6  -4  -5 175.017 7.90436   2
  -6  -4  -5 175.844 8.53582   8
   6  -4   5 180.656 4.07232   6
   6   4   5 184.492 7.98439   1
   6   4   5 199.688 10.3921   9
  -6   4  -5 193.940 8.60500   5
   6   4   5 184.703 8.37339   6
 -11  -5   5 444.360 14.3519   8
  11  -5  -5 433.219 13.9417   1
  11  -5  -5 447.045 14.3169   6
 -11   5   5 454.429 14.1730   5
  11   5  -5 462.046 16.1227   1
  11   5  -5 433.679 15.3748  11
 -11   5   5 439.189 15.0328   3
  -9  -5   5 246.451 9.52805   8
   9  -5  -5 268.622 9.82812   6
   9  -5  -5 257.203 9.61649   1
   9  -5  -5 250.657 13.2420  13
  -9   5   5 268.079 9.46724   5
   9   5  -5 253.123 10.4239   7
  -9   5   5 250.346 9.91176   3
   9   5  -5 270.019 11.1667   1
   9   5  -5 264.019 10.1009  11
  -7  -5   5 752.813 18.7943   1
  -7  -5   5 731.322 17.2733  12
   7  -5  -5 737.636 22.9363  13
   7  -5  -5 746.551 18.5112   1
   7  -5  -5 763.410 18.4088   6
  -7   5   5 731.904 18.4980   3
  -7   5   5 797.781 19.1015   9
   7   5  -5 744.073 17.7736  11
  -7   5   5 750.881 17.3713   5
   7   5  -5 740.408 19.2358   7
  -7   5   5 765.375 16.0943  12
   7   5  -5 775.332 19.6060   1
   5  -5  -5 394.913 10.9844   6
  -5  -5   5 391.230 10.6043   6
   5  -5  -5 401.666 11.4837   1
  -5  -5   5 391.992 11.3972   1
  -5  -5   5 395.466 10.0332  12
   5  -5  -5 399.787 13.8895  13
  -5   5   5 386.112 10.4495   1
   5   5  -5 387.604 9.74737   4
  -5   5   5 384.138 9.04390  12
  -5   5   5 399.362 11.3236   9
   5   5  -5 440.891 12.0035   7
   5   5  -5 390.841 10.0493  11
   5   5  -5 389.407 11.2072   1
  -5   5   5 404.600 10.9134   3
   3  -5  -5 1262.78 26.4300   1
  -3  -5   5 1242.04 25.7900   1
  -3  -5   5 1274.37 25.2337   6
   3  -5  -5 1282.06 28.3781  13
   3  -5  -5 1224.27 25.3109   6
  -3  -5   5 1236.14 24.2290  12
  -3   5   5 1249.41 26.0683   9
   3   5  -5 1227.61 23.9926  11
   3   5  -5 1242.70 24.9179   4
  -3   5   5 1242.60 29.0851  10
   3   5  -5 1188.50 24.7587   1
  -3   5   5 1236.12 25.8489   1
  -3   5   5 1242.08 25.2314   3
   3   5  -5 1254.26 26.2872   7
   3   5  -5 1215.09 24.8240  14
   1  -5  -5 845.902 18.0393   2
  -1  -5   5 850.094 17.7654   6
   1  -5  -5 857.289 19.3562   1
  -1  -5   5 856.914 19.9766  10
   1  -5  -5 875.316 19.9016  13
  -1  -5   5 875.795 18.2909   1
  -1  -5   5 847.240 17.5565  12
   1  -5  -5 836.657 17.3358   8
  -1   5   5 821.320 18.6042   6
  -1   5   5 874.021 19.5737   9
  -1   5   5 871.808 19.6554   1
  -1   5   5 876.906 22.6605  10
   1   5  -5 880.844 19.4619   7
   1   5  -5 867.926 18.7993  14
   1   5  -5 894.155 18.8112   4
   1  -5   5 1172.91 23.1440   1
  -1  -5  -5 1225.69 25.0971   2
  -1  -5  -5 1188.47 25.1470   1
   1  -5   5 1219.09 22.8072   6
  -1  -5  -5 1215.39 24.6375  14
  -1  -5  -5 1160.57 24.7191   8
   1  -5   5 1186.13 24.0685  12
   1  -5   5 1164.70 27.7028  10
   1   5   5 1180.58 23.8839  11
   1   5   5 1212.48 30.6483  10
  -1   5  -5 1240.77 25.2397   5
  -1   5  -5 1254.04 25.4007  14
  -1   5  -5 1226.87 25.0198   4
   1   5   5 1195.12 25.6055   6
   1   5   5 1258.15 26.7053   1
   1   5   5 1201.18 26.5982   9
  -1   5  -5 1227.95 25.8843   7
  -3  -5  -5 723.398 17.9808   8
  -3  -5  -5 746.153 16.8780  14
  -3  -5  -5 741.469 17.8728   2
  -3   5  -5 719.405 18.0724   5
  -3   5  -5 740.603 18.2349   7
  -3   5  -5 742.318 17.9710   2
   3   5   5 742.753 24.3450  10
   3   5   5 761.374 20.0431   9
  -3   5  -5 766.978 17.6498  14
  -3   5  -5 764.355 17.2299   4
   3   5   5 749.741 18.6184   6
   3   5   5 724.956 16.9457  11
   3   5   5 747.524 19.0821   1
  -5  -5  -5 519.824 13.4353  14
  -5  -5  -5 539.361 15.2016   2
  -5  -5  -5 551.740 15.7650   8
   5   5   5 540.577 15.9304   6
  -5   5  -5 537.756 14.8294   8
  -5   5  -5 539.446 14.5695   2
   5   5   5 598.528 18.0403   9
  -5   5  -5 522.667 15.3240   5
   5   5   5 538.622 15.9916   1
  -5   5  -5 562.547 13.9044   4
  -5   5  -5 531.017 14.1616  14
  -7  -5  -5 213.180 9.50504   8
  -7  -5  -5 221.403 9.08509   2
   7   5   5 221.883 9.95269   6
   7   5   5 212.287 11.3740   9
  -7   5  -5 217.602 9.71281   5
   7   5   5 230.106 9.75797   1
  10  -6  -5 1.60187 1.79328   1
  10  -6  -5 2.56395 1.63342   6
 -10  -6   5 3.96144 2.02815   8
 -10   6   5 3.87703 2.37269   5
  10   6  -5 -0.4731 2.59063  11
  10   6  -5 4.47714 2.72680   1
 -10   6   5 3.99876 2.65478   3
  -8  -6   5 50.4841 4.58093   1
   8  -6  -5 48.3518 4.17527   6
  -8  -6   5 52.4246 3.75624  12
  -8  -6   5 54.6875 4.19247   8
   8  -6  -5 50.2207 4.30587   1
   8  -6  -5 44.2967 6.34709  13
   8   6  -5 49.3605 4.97718   1
   8   6  -5 43.3394 3.86933  11
  -8   6   5 50.5643 4.24868   3
   8   6  -5 56.0663 4.96565   7
  -8   6   5 51.9481 4.11415   5
  -6  -6   5 7.70915 1.67756  12
   6  -6  -5 11.5236 3.22065  13
   6  -6  -5 7.52465 2.01029   1
   6  -6  -5 14.9256 2.50156   6
  -6  -6   5 8.27490 1.90052   1
   6   6  -5 10.9798 2.11115  11
   6   6  -5 13.3888 2.66344   1
  -6   6   5 10.6034 2.25700   9
  -6   6   5 8.01093 2.22675   3
   6   6  -5 14.5522 2.79639   7
  -4  -6   5 29.7958 2.86002   1
   4  -6  -5 28.5683 2.78655   6
   4  -6  -5 41.9269 4.42170  13
   4  -6  -5 30.8303 3.39191   1
  -4  -6   5 29.0964 2.56388   6
  -4  -6   5 31.4263 2.34661  12
   4   6  -5 29.3695 3.31085   7
  -4   6   5 27.4035 2.60079   1
   4   6  -5 32.5894 2.81147   1
  -4   6   5 40.6125 3.23542   3
  -4   6   5 31.3914 3.77287  10
  -4   6   5 29.2154 2.99525   9
   4   6  -5 32.4594 2.36149  11
   4   6  -5 34.0174 2.64097   4
  -2  -6   5 236.529 7.70061   1
   2  -6  -5 240.100 9.10487  13
   2  -6  -5 243.877 8.44087   1
  -2  -6   5 245.757 7.38307   6
  -2  -6   5 228.003 6.45663  12
   2  -6  -5 231.164 6.67761   2
  -2   6   5 232.172 9.84700  10
   2   6  -5 236.378 6.65332  11
  -2   6   5 229.916 6.03869  12
   2   6  -5 237.474 7.54218  14
  -2   6   5 240.574 8.19342   1
   2   6  -5 255.309 7.79822   4
   2   6  -5 239.367 8.31613   7
  -2   6   5 240.188 8.09849   9
  -2   6   5 249.675 7.89464   3
   0  -6   5 42.1798 2.58712   6
   0  -6  -5 35.3256 2.64654   2
   0  -6  -5 37.4352 3.18799   1
   0  -6  -5 38.4882 2.51812   8
   0  -6   5 39.5318 2.57497   1
   0  -6  -5 37.1853 3.08248  13
   0  -6   5 38.9423 2.37941  12
   0   6   5 42.9064 3.19942   6
   0   6  -5 40.2079 3.24284   4
   0   6   5 44.0139 3.79891   9
   0   6   5 38.6816 2.65959  11
   0   6  -5 38.8317 3.30332   7
   0   6   5 39.4698 4.40504  10
   0   6   5 45.0427 3.55258   1
   0   6  -5 36.1611 2.96317  14
  -2  -6  -5 251.348 7.94988  14
  -2  -6  -5 230.639 8.02893   8
   2  -6   5 245.965 6.10632   6
  -2  -6  -5 252.043 8.42435   2
   2   6   5 244.975 9.33907   9
   2   6   5 242.789 7.75660  11
   2   6   5 238.880 11.9496  10
  -2   6  -5 240.981 8.18968   4
   2   6   5 245.989 9.52407   1
  -2   6  -5 252.946 8.44774   5
  -2   6  -5 250.231 8.55611  14
  -2   6  -5 247.337 8.89120   7
   2   6   5 246.755 8.92825   6
  -4  -6  -5 137.556 5.68210  14
   4  -6   5 133.428 3.22311   6
  -4  -6  -5 147.143 7.01820   8
  -4  -6  -5 131.985 6.40299   2
  -4   6  -5 144.583 7.00360   5
  -4   6  -5 149.084 6.50453  14
   4   6   5 134.712 7.17694   6
   4   6   5 134.616 8.01777   9
  -4   6  -5 135.036 7.04095   7
  -4   6  -5 140.681 6.03743   4
   4   6   5 153.108 7.83355   1
  -6  -6  -5 66.0709 5.02812   2
  -6  -6  -5 72.0368 5.79365   8
   6   6   5 71.0866 5.79953   1
  -6   6  -5 66.1652 5.54987   5
   6   6   5 62.4668 5.67811   6
   6   6   5 72.0596 7.02953   9
  -9  -7   5 167.501 7.84094   8
   9  -7  -5 163.789 7.85992   1
   9  -7  -5 158.783 7.59251   6
  -9   7   5 163.896 8.67028   3
   9   7  -5 167.489 8.96962   1
  -9   7   5 163.539 7.41183   5
   9   7  -5 174.743 8.45475  11
  -7  -7   5 1033.39 24.7945   1
   7  -7  -5 989.968 23.6476   6
  -7  -7   5 997.396 22.3243  12
   7  -7  -5 982.510 29.0504  13
   7  -7  -5 1028.68 24.1452   1
   7   7  -5 988.790 24.4370   7
   7   7  -5 1001.05 25.0215   1
  -7   7   5 1004.06 22.2809   5
  -7   7   5 1020.33 24.2819   3
   7   7  -5 1012.59 23.3277  11
  -7   7   5 1016.93 24.1716   9
  -5  -7   5 530.879 12.8801  12
  -5  -7   5 545.009 15.2707   1
   5  -7  -5 566.524 15.3662   1
  -5  -7   5 536.625 14.2491   6
   5  -7  -5 548.903 14.6808   6
   5  -7  -5 567.267 18.5576  13
   5   7  -5 540.483 13.0868   4
  -5   7   5 552.711 14.7485   3
   5   7  -5 544.540 13.6780  11
   5   7  -5 534.109 15.1294   7
  -5   7   5 547.388 14.7423   9
   5   7  -5 545.991 14.6772   1
   3  -7  -5 1559.37 33.3722   1
   3  -7  -5 1583.92 35.5380  13
  -3  -7   5 1602.47 32.1700   6
  -3  -7   5 1543.22 32.6474   1
   3  -7  -5 1566.65 32.2216   6
  -3   7   5 1553.84 35.2681  10
  -3   7   5 1616.22 32.7418   9
  -3   7   5 1535.11 32.5087   1
  -3   7   5 1550.76 32.3831   3
   3   7  -5 1578.26 31.7163   4
   3   7  -5 1600.87 33.5072   7
   3   7  -5 1581.81 30.9280  11
   1  -7  -5 377.167 11.7587   1
  -1  -7   5 397.316 10.5303   6
   1  -7  -5 386.229 10.2474   2
  -1  -7   5 402.537 10.7969   1
   1  -7  -5 390.019 12.1376  13
  -1   7   5 376.609 11.7741   1
  -1   7   5 394.099 11.6750   9
   1   7  -5 401.973 11.1894   4
   1   7  -5 383.954 12.0235   7
  -1   7   5 387.071 11.5082   3
  -1   7   5 377.570 13.4805  10
  -1  -7  -5 894.976 20.7402   1
  -1  -7  -5 851.957 19.5986   2
   1  -7   5 850.586 18.0405   6
   1  -7   5 866.017 18.1585   1
  -1   7  -5 886.510 20.1380   4
   1   7   5 848.120 21.4141   1
   1   7   5 827.788 24.2907  10
  -1   7  -5 872.608 20.4044  14
   1   7   5 826.255 18.9810  11
  -1   7  -5 841.272 20.9295   7
   1   7   5 869.542 21.1296   9
  -3  -7  -5 82.5374 4.87561   2
  -3  -7  -5 78.5697 4.87228   8
   3  -7   5 80.0921 3.14439   6
  -3  -7  -5 74.3431 4.47060  14
  -3   7  -5 80.6864 5.76904   7
  -3   7  -5 88.9428 5.27982   5
   3   7   5 81.9939 6.10549   9
   3   7   5 72.7710 4.74498  11
  -3   7  -5 80.2406 4.95390   4
  -3   7  -5 82.0586 5.14899  14
   3   7   5 79.4575 5.65008   1
   3   7   5 74.5329 5.33366   6
  -5  -7  -5 409.688 13.3460   8
  -5  -7  -5 406.543 13.0701   2
   5  -7   5 401.590 8.43180   6
  -5  -7  -5 396.951 11.3032  14
  -5   7  -5 416.605 13.4035   5
   5   7   5 407.248 14.3782   1
   5   7   5 401.603 14.9369   9
   5   7   5 382.135 13.7978   6
  -5   7  -5 409.315 13.7807   7
 -10  -8   5 117.352 6.94620   8
  10  -8  -5 113.979 6.65446   1
  10  -8  -5 114.018 6.88479   6
  10   8  -5 112.279 8.19529   1
  10   8  -5 110.416 7.73970  11
 -10   8   5 118.841 7.38572   3
 -10   8   5 120.892 6.53355   5
  -8  -8   5 455.033 14.1686   8
   8  -8  -5 490.893 23.3143  13
  -8  -8   5 462.668 14.9063   1
   8  -8  -5 462.543 14.4056   1
   8  -8  -5 460.827 14.3069   6
  -8   8   5 461.848 15.0191   3
   8   8  -5 453.374 14.1942  11
   8   8  -5 398.922 16.4317   7
  -8   8   5 474.678 13.2904   5
   8   8  -5 473.608 16.0109   1
   6  -8  -5 321.042 14.6856  13
   6  -8  -5 309.177 11.0403   1
  -6  -8   5 326.967 11.7014   1
   6  -8  -5 305.610 10.7662   6
   6   8  -5 307.184 11.2793   7
  -6   8   5 307.607 9.24361   5
   6   8  -5 312.193 10.2233  11
   6   8  -5 307.853 11.1504   1
  -6   8   5 297.404 10.5863   3
  -4  -8   5 343.110 10.6645   6
   4  -8  -5 329.749 10.7164   6
  -4  -8   5 331.505 11.2674   1
   4  -8  -5 344.518 13.5521  13
   4  -8  -5 314.050 11.0962   1
   4   8  -5 319.278 9.69909   4
  -4   8   5 323.770 10.7645   3
   4   8  -5 330.946 11.3613   7
  -4   8   5 339.973 10.7416   9
   4   8  -5 333.799 9.84094  11
  -2  -8   5 589.023 14.8939   6
  -2  -8   5 596.726 15.3890   1
   2  -8  -5 583.783 16.2248   1
   2  -8  -5 572.521 16.9277  13
  -2   8   5 567.634 15.4428   1
   2   8  -5 577.045 16.3770   7
  -2   8   5 578.455 15.5319   3
  -2   8   5 579.109 15.3707   9
   2   8  -5 565.855 14.8384   4
   2   8  -5 588.523 14.0306  11
   0  -8   5 111.241 5.05630   6
   0  -8  -5 110.498 5.25868   2
   0  -8  -5 127.504 6.59386   1
   0  -8   5 114.942 5.11679   1
   0   8  -5 114.095 6.62221   7
   0   8   5 109.474 5.25199  11
   0   8   5 118.219 6.21243   9
   0   8  -5 111.675 5.82456   4
   0   8   5 117.449 6.33274   1
  -2  -8  -5 232.596 8.68354   2
  -2  -8  -5 230.048 8.20754  14
   2  -8   5 227.247 6.98910   6
   2   8   5 220.567 8.20273  11
   2   8   5 222.246 9.96720   1
  -2   8  -5 227.845 9.59964   7
  -2   8  -5 237.292 8.92181   4
   2   8   5 229.521 9.66899   9
   4  -8   5 126.173 4.39157   6
  -4  -8  -5 114.069 6.70108   2
  -4  -8  -5 122.328 5.90489  14
  -4  -8  -5 123.647 6.63145   8
  -4   8  -5 126.984 6.62172   4
   4   8   5 120.015 7.80639   1
  -4   8  -5 128.257 7.36419   7
   4   8   5 118.114 7.85728   9
  -4   8  -5 139.107 6.99095   5
  -6  -8  -5 13.8030 2.85138   2
  -6   8  -5 16.0008 3.37897   5
   6   8   5 12.4301 3.25963   9
   6   8   5 15.1190 3.63016   1
   9  -9  -5 658.386 18.5417   1
   9  -9  -5 694.645 19.2132   6
   9   9  -5 677.442 21.1149   1
   9   9  -5 649.268 19.0694  11
  -9   9   5 654.627 19.7255   3
  -9   9   5 657.781 17.5194   5
  -7  -9   5 8.63571 2.88506   1
  -7  -9   5 7.22484 2.49211   8
   7  -9  -5 6.75466 2.13967   1
   7  -9  -5 10.4690 2.72372   6
   7   9  -5 9.07942 2.81132   7
  -7   9   5 15.6697 3.46781   3
   7   9  -5 13.0851 2.76191   1
   7   9  -5 9.89441 2.69864  11
   5  -9  -5 767.513 24.5406  13
   5  -9  -5 809.088 20.4669   6
   5  -9  -5 791.076 20.8365   1
  -5  -9   5 798.244 21.2831   1
   5   9  -5 774.293 19.2023  11
   5   9  -5 790.512 21.2821   7
  -5   9   5 818.795 20.0962   9
  -5   9   5 783.022 20.4873   3
  -3  -9   5 17.6604 2.76171   6
   3  -9  -5 27.3737 3.78144   1
  -3  -9   5 18.9793 3.10339   1
   3  -9  -5 25.0665 4.29059  13
  -3   9   5 22.5189 3.24070   3
   3   9  -5 37.6907 4.45541   7
  -3   9   5 21.3274 3.03342   9
   3   9  -5 28.4647 3.13877   4
   3   9  -5 23.2356 2.84429  11
  -1  -9   5 1044.66 23.7352   1
   1  -9  -5 1054.32 25.5516   1
  -1  -9   5 1022.94 23.4430   6
   1   9  -5 1032.54 25.6428   7
   1   9  -5 1071.73 24.2259   4
  -1   9   5 1033.97 25.2056   1
  -1   9   5 1055.13 24.3501   9
  -1   9   5 1058.82 25.0672   3
  -1  -9  -5 184.277 8.28065   1
   1  -9   5 178.251 6.77848   6
  -1  -9  -5 174.799 7.38505   2
   1  -9   5 174.241 6.48798   1
  -1   9  -5 186.227 7.85493   4
   1   9   5 163.376 7.20622  11
   1   9   5 181.278 8.79194   1
  -1   9  -5 176.201 8.82242   7
   1   9   5 171.638 8.11457   9
   3  -9   5 868.131 18.7055   6
  -3  -9  -5 847.563 21.4349   2
  -3  -9  -5 839.144 20.4258  14
  -3   9  -5 882.314 21.7740   4
   3   9   5 814.560 22.7186   9
  -3   9  -5 868.400 23.4879   7
   3   9   5 858.324 24.0683   1
   5  -9   5 169.723 5.44053   6
  -5  -9  -5 158.757 7.92716   2
   5   9   5 163.567 9.63607   1
  -5   9  -5 138.277 9.20765   5
  -5   9  -5 161.562 9.07937   7
  -8 -10   5 11.7537 2.62838   8
  -8 -10   5 11.0299 2.89882   1
   8 -10  -5 13.2101 3.14912   6
   8 -10  -5 7.61442 2.74413   1
   8  10  -5 5.45197 2.77883  11
  -8  10   5 7.46646 3.16656   3
  -6 -10   5 8.23207 2.41677   8
   6 -10  -5 8.59642 2.74653   6
   6 -10  -5 5.54938 2.50111   1
  -6 -10   5 4.48596 2.63648   1
  -6  10   5 7.53835 2.40185   3
   6  10  -5 8.38558 2.93829   7
   6  10  -5 5.47959 2.42658  11
  -4 -10   5 0.21688 1.92718   1
   4 -10  -5 4.60584 2.39268   1
   4 -10  -5 2.09250 2.70812  13
  -4 -10   5 1.42574 1.82682   6
   4  10  -5 5.78920 2.73607   7
  -4  10   5 12.1664 3.04522   3
   4  10  -5 1.34989 1.64568   4
   4  10  -5 2.92972 1.94134  11
   2 -10  -5 43.2528 5.07719   1
  -2 -10   5 45.3638 4.40369   1
  -2 -10   5 47.4325 4.26310   6
  -2  10   5 36.4997 4.49708   3
   2  10  -5 48.0948 4.73942   7
   2  10  -5 39.1585 4.15635   4
   0 -10   5 10.6789 2.17572   1
   0 -10  -5 10.8653 2.27245   2
   0 -10  -5 10.7889 2.87573   1
   0 -10   5 11.4412 2.35543   6
   0  10  -5 9.63790 3.30021   7
   0  10  -5 9.00564 2.72605   4
   0  10   5 10.0289 2.80283   1
   0  10   5 10.6175 3.09313   3
   2 -10   5 35.4409 3.22219   6
  -2 -10  -5 32.5749 4.05552   2
  -2  10  -5 30.4743 4.05324   4
  -2  10  -5 27.8665 4.49900   7
   2  10   5 32.7087 4.79609   1
   2  10   5 33.2238 3.82643  11
  -4 -10  -5 5.79480 2.21853  14
  -4 -10  -5 6.85562 2.73077   2
   4 -10   5 8.57137 1.77799   6
  -4  10  -5 8.18562 3.22052   7
   4  10   5 14.1783 3.41345   1
  -7 -11   5 202.707 10.0726   1
   7 -11  -5 191.606 9.03891   1
   7  11  -5 179.093 8.88999  11
  -7  11   5 193.641 9.83571   3
  -5 -11   5 677.293 20.0918   1
   5 -11  -5 666.933 19.5463   1
  -5  11   5 639.930 18.9755   3
   5  11  -5 632.204 17.6334  11
   5  11  -5 645.708 19.8603   7
  -3 -11   5 336.080 12.5109   1
   3 -11  -5 329.685 12.9458   1
  -3 -11   5 331.374 11.8406   6
   3  11  -5 321.095 11.1413   4
  -3  11   5 326.336 12.1997   3
   3  11  -5 325.227 13.1270   7
  -1 -11   5 398.459 12.9470   6
   1 -11  -5 400.432 14.5591   1
  -1 -11   5 386.766 12.8124   1
   1  11  -5 409.165 13.3895   4
  -1  11   5 375.976 13.8377   3
   1  11  -5 396.598 14.9567   7
   1 -11   5 183.111 7.78890   6
  -1 -11  -5 174.262 7.97684   2
  -1 -11  -5 168.739 8.80039   1
  -1  11  -5 170.354 8.73157   4
  -1  11  -5 181.454 9.97164   7
   1  11   5 174.530 9.48441   1
   1  11   5 163.238 9.25718   3
  -3 -11  -5 90.8357 5.91357   2
   3 -11   5 95.8974 5.32497   6
  -3 -11  -5 90.7625 5.90717  14
   3  11   5 93.5941 7.52852   1
  -3  11  -5 88.9909 7.50527   7
  -4 -12   5 144.775 8.30680   1
   4 -12  -5 148.386 8.75306   1
   4  12  -5 135.693 8.56692   7
  -4  12   5 140.161 7.96449   3
   2 -12  -5 65.2166 6.22773   1
  -2 -12   5 46.5931 4.65384   6
  -2 -12   5 46.4374 4.85985   1
  -2  12   5 50.2708 5.94824   3
   0 -12   5 225.785 9.16951   1
   0 -12  -5 245.176 11.1578   1
   0 -12   5 225.791 9.38270   6
   0  12   5 223.421 10.8949   3
   0  12  -5 232.003 11.7939   7
  12   0  -6 2.08249 2.18977   6
  12   0  -6 4.31659 2.09195   1
  12   0  -6 3.00166 2.74769  11
 -12   0   6 2.89934 2.25823   5
 -12   0   6 4.13457 1.63974   8
 -10   0   6 1393.26 29.6514   8
  10   0  -6 1397.54 32.0640   1
 -10   0   6 1364.40 29.7542   5
  10   0  -6 1415.14 31.7993   6
 -10   0   6 1426.56 30.1808  12
  -8   0   6 135.793 5.74917   1
   8   0  -6 135.252 5.66420  11
   8   0  -6 137.465 5.14080   4
   8   0  -6 134.274 6.18190   6
   8   0  -6 139.331 8.18379  13
  -8   0   6 123.535 5.69822   3
   8   0  -6 138.964 6.58974   1
  -8   0   6 127.432 5.45843  12
   6   0  -6 3428.45 63.4375   6
   6   0  -6 3454.65 64.4382   1
  -6   0   6 3475.69 63.7464   1
   6   0  -6 3421.10 62.3157   4
   6   0  -6 3450.80 67.6900  13
  -6   0   6 3264.46 61.8938   3
  -6   0   6 3436.92 63.7252   9
   6   0  -6 3407.82 61.6597  11
  -6   0   6 3492.79 62.6922  12
   4   0  -6 75.2830 4.91661  13
   4   0  -6 77.0635 3.31115   4
   4   0  -6 73.7843 3.66512   1
  -4   0   6 76.0867 3.88924   1
   4   0  -6 68.8774 2.20635  11
   4   0  -6 72.9099 3.04132  14
  -4   0   6 75.0199 5.43772  10
  -4   0   6 74.9322 3.73344   9
  -4   0   6 75.5390 3.46901  12
  -4   0   6 74.2726 3.45965   6
  -2   0   6 7342.27 135.691   6
   2   0  -6 6946.41 130.286   4
   2   0  -6 7148.51 131.909  14
  -2   0   6 6972.80 135.896   1
   2   0  -6 7081.73 124.991   2
  -2   0   6 7231.02 131.638  12
   2   0  -6 7112.64 133.096   1
   2   0  -6 7036.66 143.273  13
  -2   0   6 7201.08 153.592  10
  -2   0   6 6860.56 128.832   9
   0   0  -6 122.276 5.04746   8
   0   0   6 117.954 5.21168   9
   0   0  -6 110.353 3.81416   7
   0   0  -6 127.390 4.98910   2
   0   0   6 123.490 7.45861  10
   0   0   6 119.924 4.27690   6
   0   0  -6 115.975 4.12286   4
   0   0   6 120.697 4.58778   1
   0   0  -6 122.382 4.62090  14
   2   0   6 4254.63 85.7359  10
  -2   0  -6 4224.49 76.2469  14
   2   0   6 4215.49 75.9021   1
  -2   0  -6 4190.65 77.8861   8
  -2   0  -6 4023.09 74.9961   4
   2   0   6 4234.62 78.6569   9
   2   0   6 4180.53 75.4597   6
  -2   0  -6 4298.42 77.4205   2
  -4   0  -6 50.8022 3.40193  14
   4   0   6 44.0494 4.60098   9
  -4   0  -6 48.8120 3.95201   5
   4   0   6 49.5493 3.17937   6
  -4   0  -6 43.7385 4.16780   8
  -4   0  -6 51.4830 3.75674   2
   4   0   6 59.6678 3.14712   1
  -6   0  -6 945.116 23.3884   8
  -6   0  -6 916.005 23.1989   5
   6   0   6 937.805 25.0586   9
  -6   0  -6 915.128 22.0239   2
   6   0   6 911.963 20.4878   6
  11  -1  -6 5.92251 2.68421  11
  11  -1  -6 4.88378 2.46282   6
  11  -1  -6 5.14482 2.09025   1
 -11  -1   6 2.07497 1.95531   5
 -11  -1   6 5.11953 2.20473   8
  11   1  -6 6.81778 2.75172   1
  11   1  -6 5.16681 2.52484   6
  11   1  -6 2.58217 2.57442  11
 -11   1   6 5.76041 2.33085   5
   9  -1  -6 216.627 8.58421   6
   9  -1  -6 202.118 11.0124  13
   9  -1  -6 224.916 9.10677   1
  -9  -1   6 211.995 7.81350  12
  -9  -1   6 212.693 7.69339   8
   9  -1  -6 216.546 8.03761  11
   9   1  -6 197.869 10.4255  13
  -9   1   6 212.121 7.60799  12
   9   1  -6 222.812 9.10822   1
  -9   1   6 203.790 8.25374   3
  -9   1   6 217.135 7.37492   8
   9   1  -6 222.062 8.25294  11
   9   1  -6 231.589 9.05786   6
   7  -1  -6 214.245 10.0671  13
  -7  -1   6 220.622 7.12982  12
   7  -1  -6 215.012 7.66610   6
   7  -1  -6 214.807 6.72320  11
  -7  -1   6 216.031 7.56447   1
   7  -1  -6 227.775 8.31173   1
   7   1  -6 222.985 10.0480  13
   7   1  -6 221.565 7.69474   6
   7   1  -6 216.257 8.28335   1
   7   1  -6 222.744 6.83913  11
  -7   1   6 206.685 7.24415   1
  -7   1   6 222.811 8.02099   9
  -7   1   6 226.950 6.93733  12
  -7   1   6 212.777 7.13285   3
   7   1  -6 224.863 6.65534   4
  -5  -1   6 37.6490 2.74419   1
  -5  -1   6 35.4573 3.80049  10
  -5  -1   6 42.4923 2.55943  12
   5  -1  -6 37.9932 3.73945  13
  -5  -1   6 36.7631 2.49123   6
   5  -1  -6 33.1973 2.71765   1
   5  -1  -6 36.3043 1.98605  14
  -5  -1   6 36.9199 2.66662   9
   5  -1  -6 36.2920 2.45462   6
  -5   1   6 29.8122 2.39372   6
  -5   1   6 32.2999 2.77790   9
  -5   1   6 36.3980 2.36751  12
  -5   1   6 35.1157 2.79898   1
   5   1  -6 36.2421 1.98446  14
   5   1  -6 35.0349 1.85690  11
  -5   1   6 32.4799 2.08912   3
   5   1  -6 34.1933 3.80312  13
   5   1  -6 38.7036 2.96963   1
  -5   1   6 37.2640 4.18760  10
   5   1  -6 31.7246 2.36694   4
  -3  -1   6 956.448 19.2958  12
   3  -1  -6 949.881 22.0306  13
  -3  -1   6 941.663 19.4811   9
  -3  -1   6 927.429 23.5083  10
   3  -1  -6 936.042 18.9378  14
  -3  -1   6 941.665 19.3694   6
   3  -1  -6 926.030 18.5966   2
  -3  -1   6 923.596 19.9463   1
   3  -1  -6 931.155 19.8371   1
  -3   1   6 937.971 19.1482  12
  -3   1   6 953.498 24.1079  10
   3   1  -6 954.128 19.5168   1
   3   1  -6 932.463 19.0036   4
   3   1  -6 949.420 19.1188   2
  -3   1   6 930.992 20.0774   9
  -3   1   6 944.112 20.2028   1
  -3   1   6 936.570 19.4005   6
   3   1  -6 925.014 19.0443  14
   3   1  -6 928.040 22.2147  13
  -1  -1   6 27.2775 2.34008   9
  -1  -1   6 29.3126 2.32620  12
   1  -1  -6 29.7544 2.38981   8
   1  -1  -6 33.5762 2.42095   2
  -1  -1   6 31.1196 2.09610   6
   1  -1  -6 28.8564 1.84071   7
  -1  -1   6 25.3871 2.13552   1
   1  -1  -6 26.0027 1.99134   4
   1  -1  -6 29.5554 1.89668   1
   1  -1  -6 35.7077 3.08662  13
  -1  -1   6 36.7289 4.04623  10
   1  -1  -6 26.6316 2.17056  14
  -1   1   6 30.4832 2.49856   1
   1   1  -6 29.2021 1.97636   4
   1   1  -6 27.4589 2.05204   7
  -1   1   6 28.8450 3.81169  10
  -1   1   6 27.9162 2.28338  12
  -1   1   6 25.1298 2.60177   9
   1   1  -6 28.6449 2.22250   2
   1   1  -6 29.6659 2.34658  14
  -1   1   6 27.8468 2.16230   6
   1  -1   6 189.075 9.66195  10
   1  -1   6 185.812 6.99873   9
   1  -1   6 193.568 5.85262   1
  -1  -1  -6 199.321 6.26414  14
  -1  -1  -6 195.159 7.06261   8
   1  -1   6 194.924 5.52016   6
  -1  -1  -6 213.151 6.95542   2
  -1  -1  -6 194.936 5.61773   4
   1   1   6 186.106 9.82781  10
  -1   1  -6 206.475 6.99524   2
  -1   1  -6 208.419 6.55792  14
   1   1   6 191.678 6.14219   6
  -1   1  -6 208.224 7.10456   8
  -1   1  -6 184.295 5.61200   7
  -1   1  -6 194.609 5.84918   4
   1   1   6 194.856 7.44307   9
   1   1   6 194.934 6.49804   1
  -3  -1  -6 202.699 7.95827   8
   3  -1   6 200.337 11.4192  10
   3  -1   6 202.204 8.30529   9
  -3  -1  -6 209.261 6.83352  14
   3  -1   6 199.250 5.87873   1
   3  -1   6 201.941 5.75189   6
  -3  -1  -6 201.604 7.41227   2
  -3   1  -6 199.430 7.68338   5
  -3   1  -6 203.519 7.55479   2
   3   1   6 198.358 8.45904   9
  -3   1  -6 211.423 8.12586   8
   3   1   6 191.394 11.3358  10
  -3   1  -6 200.123 6.15829   4
   3   1   6 206.458 6.74443   6
  -3   1  -6 202.116 6.84497  14
   3   1   6 196.018 6.74202   1
  -5  -1  -6 4.56044 2.08848   2
   5  -1   6 4.52363 1.24097   6
  -5  -1  -6 3.31399 1.17206  14
  -5  -1  -6 2.93151 1.68170   8
  -5   1  -6 10.0041 2.41861   5
  -5   1  -6 5.40924 2.02002   2
   5   1   6 3.88082 1.32707   1
  -5   1  -6 3.51301 1.46852  14
   5   1   6 6.69332 2.79217   9
   5   1   6 6.29307 1.72553   6
  -5   1  -6 2.70578 2.03415   8
   7  -1   6 72.2758 6.69980   9
  -7  -1  -6 86.9721 5.77598   2
   7  -1   6 82.4024 4.30753   6
  -7  -1  -6 88.5721 5.99588   8
   7   1   6 85.0382 6.92609   9
  -7   1  -6 80.4664 5.34432   2
  -7   1  -6 88.2048 6.31102   8
   7   1   6 89.6991 5.17845   6
  -7   1  -6 82.4914 6.30931   5
  12  -2  -6 291.286 11.5303  11
  12  -2  -6 296.991 11.6110   1
  12  -2  -6 288.731 11.6912   6
 -12  -2   6 290.724 10.8716   8
  12   2  -6 293.305 12.1752  11
 -12   2   6 292.670 10.9613   5
  12   2  -6 305.997 12.4782   1
  10  -2  -6 543.737 16.0316   1
 -10  -2   6 535.831 14.6760  12
 -10  -2   6 532.708 14.0422   5
  10  -2  -6 534.970 15.0566  11
 -10  -2   6 546.512 14.9118   8
  10  -2  -6 518.545 15.6067   6
  10  -2  -6 500.893 19.1789  13
  10   2  -6 512.648 16.1978   1
  10   2  -6 560.615 15.6554  11
 -10   2   6 512.419 15.6730   3
 -10   2   6 549.967 14.9757   5
 -10   2   6 522.096 14.1405  12
   8  -2  -6 1063.78 24.2675   6
  -8  -2   6 1067.55 23.9358   1
   8  -2  -6 1094.79 28.9401  13
   8  -2  -6 1072.70 24.7822   1
  -8  -2   6 1062.23 23.1372  12
  -8   2   6 1037.85 23.7108   3
   8   2  -6 1043.60 27.5847  13
   8   2  -6 1058.59 23.0137  11
  -8   2   6 1094.48 22.7284  12
   8   2  -6 1114.72 25.5704   1
  -6  -2   6 1847.11 35.0530  12
  -6  -2   6 1791.81 35.3341   9
   6  -2  -6 1770.42 39.8169  13
  -6  -2   6 1847.03 36.1810   1
   6  -2  -6 1853.63 36.7111   1
   6  -2  -6 1821.73 35.9567   6
  -6   2   6 1851.10 36.3887   9
  -6   2   6 1765.56 35.4459   1
   6   2  -6 1805.70 36.5960   1
   6   2  -6 1764.10 39.2640  13
   6   2  -6 1764.58 33.9759  11
  -6   2   6 1716.95 34.8357   3
  -6   2   6 1826.07 34.5523  12
   6   2  -6 1823.10 34.3696   4
   4  -2  -6 1379.81 26.0138   2
   4  -2  -6 1406.21 28.5753   1
  -4  -2   6 1428.80 27.5406  12
   4  -2  -6 1413.43 31.0013  13
  -4  -2   6 1396.87 27.2971   9
   4  -2  -6 1349.38 27.4951   6
  -4  -2   6 1440.64 28.5258   1
  -4  -2   6 1419.13 32.0702  10
  -4  -2   6 1411.40 27.6790   6
   4  -2  -6 1387.22 26.8251  14
  -4   2   6 1425.41 32.7440  10
   4   2  -6 1426.41 27.2930   4
  -4   2   6 1334.43 26.5424   3
  -4   2   6 1397.54 28.3752   1
   4   2  -6 1410.49 25.7194  11
   4   2  -6 1392.65 26.8513  14
  -4   2   6 1372.86 27.4515   6
   4   2  -6 1392.49 28.0537   1
  -4   2   6 1419.70 27.2082  12
  -4   2   6 1404.74 28.5089   9
   2  -2  -6 1265.94 24.8060  14
   2  -2  -6 1260.33 25.4835   1
  -2  -2   6 1265.31 25.0569  12
   2  -2  -6 1255.74 24.7086   2
  -2  -2   6 1305.57 24.9570   6
  -2  -2   6 1279.98 25.5122   1
  -2  -2   6 1286.91 29.5375  10
  -2  -2   6 1246.53 24.8769   9
   2  -2  -6 1317.19 27.6101  13
  -2   2   6 1274.05 26.2393   9
   2   2  -6 1197.90 24.2146   1
  -2   2   6 1247.78 23.7447   3
  -2   2   6 1271.46 25.2727   6
  -2   2   6 1249.77 30.0907  10
  -2   2   6 1262.57 24.8549  12
  -2   2   6 1262.28 25.9965   1
   2   2  -6 1234.62 25.0552  14
   2   2  -6 1300.19 25.6194   7
   2   2  -6 1281.01 24.9010   4
   2   2  -6 1258.50 25.3500   2
   0  -2  -6 594.358 14.1869   8
   0  -2   6 618.029 13.3662   1
   0  -2   6 591.765 13.8745  12
   0  -2   6 588.461 14.0310   9
   0  -2  -6 612.633 14.1518   2
   0  -2   6 598.733 18.1739  10
   0  -2  -6 603.171 13.6331  14
   0  -2  -6 606.201 13.0281   4
   0  -2   6 602.765 12.8071   6
   0   2   6 603.951 14.4899   1
   0   2  -6 603.900 13.5944   7
   0   2  -6 618.291 14.4692   2
   0   2   6 618.203 14.0616   6
   0   2  -6 605.925 13.4866   4
   0   2  -6 622.745 14.0774  14
   0   2   6 584.379 15.0102   9
   0   2   6 595.292 18.8027  10
  -2  -2  -6 299.695 8.40736  14
   2  -2   6 286.292 12.8201  10
  -2  -2  -6 305.420 9.22871   2
   2  -2   6 291.164 7.35777   1
   2  -2   6 302.138 7.02468   6
  -2  -2  -6 284.196 7.33455   4
  -2  -2  -6 316.008 9.76300   8
   2  -2   6 298.634 9.56803   9
   2   2   6 297.439 13.6867  10
  -2   2  -6 304.569 9.56275   8
  -2   2  -6 302.176 9.40410   2
   2   2   6 297.943 10.4608   9
   2   2   6 303.200 9.14203   1
  -2   2  -6 293.383 8.12041   4
   2   2   6 297.319 8.79366   6
  -2   2  -6 294.949 8.26041   7
  -4  -2  -6 484.685 14.1402   8
   4  -2   6 475.601 10.3286   6
  -4  -2  -6 480.110 13.3021   2
  -4  -2  -6 462.152 12.0321  14
  -4   2  -6 487.079 14.0082   8
   4   2   6 505.713 15.5744   9
  -4   2  -6 461.049 12.1921  14
   4   2   6 463.510 12.7610   6
  -4   2  -6 476.570 13.2088   2
   4   2   6 440.317 12.4881   1
  -4   2  -6 452.728 13.6798   5
  -6  -2  -6 193.775 9.03821   8
  -6  -2  -6 186.828 8.28193   2
   6  -2   6 190.450 5.94177   6
   6   2   6 189.740 7.87438   6
  -6   2  -6 191.720 8.73803   8
  -6   2  -6 179.598 7.77875   2
  -6   2  -6 188.524 8.82101   5
   6   2   6 184.734 10.2537   9
   6   2   6 179.632 7.53013   1
 -11  -3   6 80.9164 5.69595   8
  11  -3  -6 79.6735 5.81550  11
  11  -3  -6 81.4281 6.03184   6
  11  -3  -6 83.9468 6.07671   1
  11   3  -6 85.2302 6.01045  11
 -11   3   6 80.8024 5.26932   5
  11   3  -6 81.6083 6.54262   1
 -11   3   6 86.5349 6.45927   3
  -9  -3   6 4.35848 1.51151   1
   9  -3  -6 6.26817 1.87811   1
  -9  -3   6 5.94465 1.99379  12
  -9  -3   6 6.80107 2.12949   8
  -9  -3   6 5.43434 1.68098   5
   9  -3  -6 6.03820 2.15055   6
   9  -3  -6 6.72039 3.23786  13
  -9   3   6 5.35893 1.98837   5
  -9   3   6 7.01191 1.76923  12
  -9   3   6 9.69223 2.42081   3
   9   3  -6 4.41628 2.27793   1
   9   3  -6 1.74938 1.86006  11
   7  -3  -6 42.2848 3.52518   1
  -7  -3   6 38.6002 2.98237  12
   7  -3  -6 42.9638 3.54910   6
   7  -3  -6 44.1732 4.79749  13
  -7  -3   6 47.6935 3.78708   1
  -7   3   6 35.5924 2.84694   1
   7   3  -6 41.7955 2.65596   4
  -7   3   6 44.4266 2.95660  12
   7   3  -6 41.2614 3.16220  11
  -7   3   6 41.2390 3.55447   9
   7   3  -6 43.9335 4.01049   1
   5  -3  -6 315.415 9.63004   1
   5  -3  -6 303.174 7.63899  14
  -5  -3   6 311.327 9.27086   1
  -5  -3   6 298.593 8.02578   9
   5  -3  -6 306.724 11.3395  13
  -5  -3   6 281.566 8.31399   6
  -5  -3   6 299.642 8.31433  12
   5  -3  -6 294.389 8.68289   6
  -5   3   6 295.481 8.23368   3
  -5   3   6 306.703 8.95423   1
   5   3  -6 295.683 9.02870   1
  -5   3   6 309.695 12.1556  10
   5   3  -6 300.128 7.52301  11
  -5   3   6 288.796 9.09665   9
   5   3  -6 296.903 8.09064   4
   5   3  -6 300.710 7.53791  14
  -5   3   6 301.121 7.89515  12
   3  -3  -6 5.29100 1.07202  14
   3  -3  -6 5.10982 0.98758   2
   3  -3  -6 4.80827 1.39031   1
  -3  -3   6 6.06117 1.29092   6
  -3  -3   6 5.03194 0.98912   9
  -3  -3   6 4.06010 1.24643   1
  -3  -3   6 6.93255 2.03077  10
  -3  -3   6 4.65892 1.24099  12
  -3   3   6 6.32927 1.62524   9
   3   3  -6 5.18179 0.77730  11
   3   3  -6 5.92260 1.17188  14
  -3   3   6 4.57642 1.00310   3
   3   3  -6 7.56158 1.31151   1
  -3   3   6 5.77576 1.19859   6
  -3   3   6 4.56578 1.37206   1
  -3   3   6 5.95894 1.21197  12
  -3   3   6 6.61244 2.31143  10
   3   3  -6 4.01029 1.04035   4
   1  -3  -6 300.863 9.30685  13
  -1  -3   6 305.340 7.71153   6
   1  -3  -6 289.116 8.06871   8
  -1  -3   6 287.351 7.73544   9
  -1  -3   6 289.395 11.0271  10
   1  -3  -6 290.868 8.17225   2
   1  -3  -6 288.067 8.27636   1
  -1  -3   6 287.893 7.97123  12
  -1  -3   6 289.552 7.95266   1
   1  -3  -6 284.512 7.91709  14
  -1   3   6 292.965 7.96881  12
   1   3  -6 301.644 8.07468   4
  -1   3   6 297.729 9.31471   9
  -1   3   6 307.445 12.1516  10
   1   3  -6 304.109 8.53690   7
  -1   3   6 289.560 8.40142   6
   1   3  -6 301.168 8.45835  14
   1   3  -6 309.466 8.81374   2
  -1   3   6 295.212 8.98055   1
   1  -3   6 34.5863 2.81464  12
   1  -3   6 34.7336 2.12589   1
  -1  -3  -6 36.9211 2.23703   4
   1  -3   6 35.3444 2.86086   9
  -1  -3  -6 40.0839 2.93555   2
   1  -3   6 40.0411 2.03620   6
  -1  -3  -6 37.3508 3.10071   8
  -1  -3  -6 36.6887 2.55852  14
   1   3   6 36.7589 3.14630   1
  -1   3  -6 37.0434 3.00737   2
   1   3   6 37.3955 2.98320   6
   1   3   6 36.7586 4.88154  10
  -1   3  -6 40.3843 2.89584   7
  -1   3  -6 38.8334 2.99983  14
  -1   3  -6 37.6552 2.73024   4
   1   3   6 42.2245 3.91249   9
  -3  -3  -6 2.12863 1.67955   8
   3  -3   6 0.50936 1.85873  10
  -3  -3  -6 3.88395 1.50256  14
   3  -3   6 0.33395 1.33624   9
   3  -3   6 1.71938 0.60143   6
  -3  -3  -6 2.59101 1.62235   2
   3   3   6 2.12651 2.85739  10
  -3   3  -6 0.69017 1.20413  14
  -3   3  -6 5.78010 1.94132   5
  -3   3  -6 0.12286 1.03794   4
   3   3   6 0.95475 0.99560   1
   3   3   6 1.25797 1.84243   9
   3   3   6 0.73845 1.40648   6
  -3   3  -6 0.59573 1.05735   8
  -3   3  -6 1.21474 1.45465   2
  -5  -3  -6 66.4307 5.38990   8
   5  -3   6 64.9013 2.63561   6
  -5  -3  -6 61.7185 3.91684  14
  -5  -3  -6 65.7502 4.96141   2
  -5   3  -6 68.2780 5.43639   5
   5   3   6 64.9269 4.54596   1
   5   3   6 64.3550 4.76242   6
  -5   3  -6 70.4295 4.78766   2
  -5   3  -6 64.6005 4.13683  14
   5   3   6 66.1058 6.22183   9
  -5   3  -6 69.4232 5.20076   8
   7  -3   6 9.53069 3.03908   9
  -7  -3  -6 12.6817 3.03827   2
  -7  -3  -6 12.4513 3.38983   8
   7  -3   6 12.6827 1.61942   6
   7   3   6 11.7484 3.33250   9
  -7   3  -6 10.4840 2.46188   8
   7   3   6 12.9409 2.75476   6
  -7   3  -6 11.7083 2.84738   5
  12  -4  -6 518.648 15.8465  11
 -12  -4   6 489.032 15.4009   8
  12  -4  -6 516.800 16.4390   6
  12  -4  -6 522.571 16.1659   1
 -12   4   6 519.254 15.7475   5
 -12   4   6 522.697 16.9698   3
  12   4  -6 517.724 17.1638  11
  12   4  -6 520.002 17.6032   1
  10  -4  -6 35.1706 4.15417   1
 -10  -4   6 41.1837 4.59277   8
 -10  -4   6 33.0795 3.92640  12
  10  -4  -6 27.8357 5.63563  13
  10  -4  -6 32.6040 4.09324   6
 -10   4   6 36.3711 4.13713   5
  10   4  -6 35.4520 4.50800  11
 -10   4   6 32.2433 4.38953   3
  10   4  -6 39.6651 4.92188   1
   8  -4  -6 765.947 19.2248   6
   8  -4  -6 738.035 23.7915  13
   8  -4  -6 844.583 20.0639   1
  -8  -4   6 745.324 18.1245  12
  -8  -4   6 760.865 19.3065   1
   8   4  -6 756.130 20.2447   1
  -8   4   6 775.203 19.2357   3
  -8   4   6 786.495 17.2856  12
   8   4  -6 771.536 18.3877  11
  -6  -4   6 69.9176 3.87912  12
  -6  -4   6 73.7249 4.42922   1
   6  -4  -6 73.6714 6.16009  13
   6  -4  -6 89.5662 5.02336   1
  -6   4   6 68.7918 4.04909   3
   6   4  -6 79.6743 3.83843  11
  -6   4   6 72.3386 3.45059  12
  -6   4   6 75.0220 4.69073   9
  -6   4   6 69.1696 3.87808   1
   6   4  -6 68.5923 4.33817   1
   6   4  -6 78.9909 5.07595   7
   4  -4  -6 1857.79 35.0278  14
   4  -4  -6 1785.68 35.8824   6
  -4  -4   6 1790.81 39.2258  10
  -4  -4   6 1802.51 35.2466  12
  -4  -4   6 1862.65 36.6814   1
  -4  -4   6 1824.98 35.8259   6
   4  -4  -6 1854.60 39.6857  13
   4  -4  -6 1858.82 37.0537   1
  -4   4   6 1860.88 41.1847  10
   4   4  -6 1803.75 35.0571  14
  -4   4   6 1899.40 37.0519   9
   4   4  -6 1852.44 35.4213   4
   4   4  -6 1876.10 37.1769   7
   4   4  -6 1796.00 35.8556   1
  -4   4   6 1873.18 35.4550   3
   4   4  -6 1866.66 34.2020  11
  -4   4   6 1829.42 34.6148  12
  -4   4   6 1892.45 36.7563   1
   2  -4  -6 490.871 13.7743  13
  -2  -4   6 495.237 11.6587  12
   2  -4  -6 494.102 11.7255  14
  -2  -4   6 481.863 11.6020   6
  -2  -4   6 491.618 12.0560   1
   2  -4  -6 476.402 12.5291   1
   2  -4  -6 488.996 11.4273   2
  -2  -4   6 488.921 14.4636  10
  -2   4   6 490.483 16.0265  10
   2   4  -6 513.058 12.1974  14
  -2   4   6 481.510 11.5155   3
  -2   4   6 480.701 12.0701   6
  -2   4   6 476.926 11.1841  12
  -2   4   6 496.579 13.1157   9
  -2   4   6 510.766 13.1098   1
   2   4  -6 493.321 11.9397   4
   2   4  -6 477.738 12.5385   7
   0  -4  -6 2798.68 52.0952   2
   0  -4   6 2812.17 50.4026   6
   0  -4   6 2768.28 51.5842  12
   0  -4  -6 2748.98 51.8653   8
   0  -4   6 2629.55 56.0907  10
   0  -4   6 2774.63 50.7450   1
   0  -4  -6 2683.36 51.8055   1
   0  -4  -6 2814.35 51.5741  14
   0   4   6 2690.67 52.3590   6
   0   4   6 2789.31 53.8037   9
   0   4  -6 2807.33 52.5232   7
   0   4   6 2822.90 59.3064  10
   0   4  -6 2784.04 52.3354  14
   0   4  -6 2785.75 52.8304   2
   0   4  -6 2788.47 51.7301   4
   0   4   6 2795.03 53.3855   1
  -2  -4  -6 350.566 10.4908   2
   2  -4   6 327.073 13.6953  10
   2  -4   6 337.021 9.83709  12
   2  -4   6 354.875 11.2747   9
  -2  -4  -6 353.747 9.78583  14
   2  -4   6 348.116 7.69921   6
  -2  -4  -6 354.522 10.9004   8
   2   4   6 359.177 11.1128   1
  -2   4  -6 366.511 10.4390  14
  -2   4  -6 360.217 10.5155   7
  -2   4  -6 363.779 10.9654   2
   2   4   6 356.157 10.8442   6
  -2   4  -6 347.370 10.8367   5
  -2   4  -6 375.154 10.0364   4
   2   4   6 343.553 15.2692  10
   4  -4   6 1276.01 23.2596   6
  -4  -4  -6 1287.79 29.0737   8
  -4  -4  -6 1308.79 28.5153   2
  -4  -4  -6 1301.08 26.9298  14
   4  -4   6 1252.92 28.6258   9
   4   4   6 1299.35 29.0740   1
  -4   4  -6 1307.48 28.5001   2
  -4   4  -6 1279.34 27.3879  14
  -4   4  -6 1280.25 26.6540   4
   4   4   6 1293.02 31.5271   9
  -4   4  -6 1301.23 28.8546   8
  -4   4  -6 1294.48 29.1421   5
   4   4   6 1282.14 28.9457   6
  -6  -4  -6 43.8967 4.69090   2
  -6  -4  -6 41.9536 5.02328   8
   6  -4   6 36.9302 1.83700   6
  -6   4  -6 45.7645 4.98531   5
   6   4   6 34.4433 5.47132   9
  -6   4  -6 33.1840 3.77102   8
   6   4   6 44.1524 4.65390   6
   6   4   6 40.1254 4.13998   1
  11  -5  -6 79.8825 6.03856   6
 -11  -5   6 72.9001 5.45695   8
  11  -5  -6 79.7953 5.91301   1
  11   5  -6 74.1860 6.44561  11
  11   5  -6 80.4442 6.99032   1
 -11   5   6 80.5859 5.87727   5
  -9  -5   6 3.31539 1.58668   1
  -9  -5   6 3.20846 2.03106   8
   9  -5  -6 2.64325 3.15177  13
   9  -5  -6 1.47329 1.78436   6
   9  -5  -6 1.62398 1.35323   1
  -9  -5   6 6.22432 2.14658  12
  -9   5   6 1.89216 1.99914   3
  -9   5   6 4.53911 1.79054   5
   9   5  -6 3.45084 2.41408   1
   9   5  -6 3.17435 2.41356   7
   9   5  -6 1.17261 2.12926  11
  -7  -5   6 9.20858 2.07694   1
   7  -5  -6 7.72594 2.23222   1
  -7  -5   6 9.63215 1.75323  12
   7  -5  -6 8.76182 2.00507   6
   7   5  -6 4.51349 1.43874  11
  -7   5   6 9.48206 2.43646   9
   7   5  -6 11.7538 2.47746   7
  -7   5   6 9.58080 1.57246  12
  -7   5   6 7.96874 2.23476   3
   7   5  -6 10.1906 2.29063   1
   5  -5  -6 87.6158 3.93393  14
  -5  -5   6 87.6481 4.17880  12
   5  -5  -6 85.0005 4.58199   6
  -5  -5   6 89.7597 4.88112   1
   5  -5  -6 93.2419 5.03647   1
   5  -5  -6 91.7879 6.30879  13
  -5  -5   6 82.4206 4.29395   6
  -5   5   6 88.6857 6.30735  10
  -5   5   6 82.7511 4.91850   9
  -5   5   6 90.9377 3.62378  12
   5   5  -6 92.5457 4.21246   4
   5   5  -6 90.4007 4.77075   1
  -5   5   6 86.7621 4.53584   1
  -5   5   6 102.825 4.64702   3
   5   5  -6 90.0802 3.86034  11
   5   5  -6 94.1035 5.42914   7
   3  -5  -6 29.5847 1.97300   2
   3  -5  -6 27.2693 3.21126  13
  -3  -5   6 27.9946 2.33272  12
  -3  -5   6 35.0073 3.00220   1
  -3  -5   6 32.2000 2.68103   6
  -3  -5   6 28.8311 3.11661  10
   3  -5  -6 30.2962 2.53653  14
   3  -5  -6 31.3852 3.12142   1
  -3   5   6 31.1725 2.13841  12
  -3   5   6 33.5582 4.07091  10
   3   5  -6 31.5651 1.98132  11
  -3   5   6 31.8323 2.95623   9
   3   5  -6 29.9778 2.62768  14
  -3   5   6 40.9676 2.86948   3
   3   5  -6 37.8339 3.39377   7
   3   5  -6 31.4510 2.72410   4
  -3   5   6 31.1981 2.80239   1
   1  -5  -6 111.562 4.34895   8
   1  -5  -6 111.967 5.52050  13
   1  -5  -6 105.607 5.04439   1
  -1  -5   6 114.047 4.54332   1
  -1  -5   6 110.854 4.49282  12
  -1  -5   6 113.064 4.38377   6
   1  -5  -6 115.822 4.74364  14
  -1  -5   6 94.4143 6.27912  10
   1  -5  -6 123.565 4.81861   2
  -1   5   6 111.642 5.04894   6
  -1   5   6 102.997 4.12776  12
  -1   5   6 116.008 5.73023   1
   1   5  -6 118.983 5.54569   7
  -1   5   6 118.186 5.87622   9
  -1   5   6 110.535 7.23305  10
   1   5  -6 109.366 5.06923  14
   1   5  -6 109.569 4.81347   4
  -1  -5  -6 12.2071 2.07621   8
   1  -5   6 17.4128 2.21289  12
  -1  -5  -6 18.3668 2.37519  14
   1  -5   6 16.6537 1.62406   1
  -1  -5  -6 15.6463 2.26329   2
   1   5   6 14.4462 2.83734   9
  -1   5  -6 17.5940 2.35907  14
   1   5   6 11.6461 2.05299   6
  -1   5  -6 16.2799 2.51902   7
   1   5   6 13.4039 2.58575   1
  -1   5  -6 15.0637 2.16006   4
   1   5   6 14.9898 3.39087  10
  -1   5  -6 12.6288 2.20316   2
  -3  -5  -6 20.4686 2.52346  14
   3  -5   6 19.6791 2.56744  12
   3  -5   6 19.8491 1.29867   6
  -3  -5  -6 18.5477 3.05257   8
  -3  -5  -6 19.4982 2.74650   2
  -3   5  -6 17.8706 2.87896   2
   3   5   6 17.2344 3.07311   1
  -3   5  -6 19.8426 2.68703   4
   3   5   6 11.9402 3.13790   9
   3   5   6 16.8431 2.98604   6
  -3   5  -6 12.7608 2.79039   5
  -3   5  -6 22.1199 2.95680  14
  -3   5  -6 18.0008 2.91883   7
  -5  -5  -6 93.0642 5.97115   2
  -5  -5  -6 98.4890 6.10793   8
  -5  -5  -6 85.5985 4.57601  14
  -5   5  -6 101.722 5.81955   2
  -5   5  -6 103.982 6.55980   5
   5   5   6 89.9409 5.87789   1
   5   5   6 103.310 6.29724   6
  -5   5  -6 93.3766 5.27680  14
   5   5   6 98.6236 7.35657   9
  10  -6  -6 929.574 23.5311   1
  10  -6  -6 940.561 23.8373   6
 -10  -6   6 927.812 23.4396   8
  10   6  -6 954.841 24.0110  11
 -10   6   6 950.116 24.3028   3
  10   6  -6 839.593 28.3013   7
  10   6  -6 951.639 25.9016   1
 -10   6   6 928.867 22.7451   5
  -8  -6   6 160.157 6.85399  12
  -8  -6   6 205.586 8.69803   1
   8  -6  -6 166.443 7.77442   6
   8  -6  -6 157.948 10.6857  13
   8  -6  -6 163.664 7.65903   1
  -8   6   6 163.517 7.07550   5
   8   6  -6 180.014 8.76483   7
  -8   6   6 161.652 7.73920   3
   8   6  -6 169.557 8.57644   1
   8   6  -6 164.998 7.24173  11
   6  -6  -6 2118.31 47.7282  13
   6  -6  -6 2060.74 41.8359   6
  -6  -6   6 2056.64 40.1837  12
  -6  -6   6 2108.86 42.8295   1
   6  -6  -6 2019.70 42.4785   1
  -6   6   6 2085.96 42.3520   9
   6   6  -6 1988.45 39.5678   4
  -6   6   6 2113.48 41.8407   3
   6   6  -6 2074.72 42.9681   7
   6   6  -6 2092.22 40.3656  11
   6   6  -6 2040.33 42.2013   1
   4  -6  -6 179.739 6.91728   6
  -4  -6   6 181.073 7.24413   1
  -4  -6   6 180.618 6.89916   6
  -4  -6   6 172.077 6.00163  12
   4  -6  -6 182.948 7.49647   1
   4  -6  -6 187.264 9.19465  13
   4   6  -6 187.497 5.95457  11
  -4   6   6 174.797 7.01938   1
   4   6  -6 182.493 6.56004   4
  -4   6   6 182.329 6.85652   3
   4   6  -6 177.013 7.40398   7
  -4   6   6 181.953 9.22057  10
  -4   6   6 189.147 7.54275   9
   2  -6  -6 1771.83 37.4997  13
   2  -6  -6 1809.20 36.5340   1
  -2  -6   6 1804.54 35.2808   1
   2  -6  -6 1698.22 33.8681   2
  -2  -6   6 1714.51 33.7180  12
  -2  -6   6 1749.55 34.6255   6
  -2   6   6 1772.74 33.2806  12
  -2   6   6 1743.80 35.1202   3
   2   6  -6 1800.98 35.1340   4
  -2   6   6 1713.11 40.1217  10
   2   6  -6 1785.42 36.4034   7
  -2   6   6 1776.36 36.4109   9
  -2   6   6 1727.22 36.3871   1
   2   6  -6 1723.21 35.2366  14
   0  -6   6 33.5121 2.59077  12
   0  -6   6 44.6470 2.74221   6
   0  -6  -6 34.1078 3.02411   1
   0  -6  -6 36.0398 2.75231   8
   0  -6  -6 40.7672 3.01581  14
   0  -6  -6 37.4668 2.91094   2
   0  -6   6 35.0755 2.51189   1
   0   6   6 29.8365 3.17019   6
   0   6  -6 34.5790 3.40015   4
   0   6   6 37.2844 3.52027   1
   0   6  -6 40.0734 3.51638  14
   0   6   6 33.1153 2.42031  12
   0   6  -6 48.0543 4.02356   7
   0   6   6 36.3024 4.78467  10
   0   6   6 39.1877 4.35410   9
  -2  -6  -6 817.648 19.9540   8
   2  -6   6 848.228 17.0827   6
  -2  -6  -6 851.327 20.1141   2
  -2  -6  -6 839.793 19.2017  14
   2   6   6 881.506 22.7141   9
   2   6   6 830.911 20.8908   6
  -2   6  -6 865.114 20.3045  14
  -2   6  -6 838.373 19.6229   4
   2   6   6 824.584 21.6422   1
  -2   6  -6 843.167 20.7638   7
  -4  -6  -6 23.8944 2.97988  14
   4  -6   6 26.6196 1.51038   6
  -4  -6  -6 30.2010 3.72083   2
  -4  -6  -6 32.0392 4.04490   8
  -4   6  -6 29.7274 4.05228   5
  -4   6  -6 25.1402 3.27254   7
   4   6   6 36.3399 5.28869   9
  -4   6  -6 27.6280 3.17904  14
  -4   6  -6 26.3801 3.16651   4
   4   6   6 29.1173 3.89030   6
   4   6   6 27.2045 4.01400   1
  -6  -6  -6 466.713 14.7425   2
  -6  -6  -6 483.330 15.7552   8
   6   6   6 499.571 18.3371   9
   6   6   6 491.310 16.0204   1
  -6   6  -6 497.326 15.6520   5
  -9  -7   6 64.6639 5.42912   8
   9  -7  -6 59.6650 4.87825   1
   9  -7  -6 64.0041 5.29052   6
  -9  -7   6 68.2409 5.66750   1
   9   7  -6 59.5208 5.65408   7
   9   7  -6 66.8318 6.21941   1
  -9   7   6 66.3856 5.30588   3
  -9   7   6 57.1599 4.81427   5
   9   7  -6 59.9812 5.27117  11
  -7  -7   6 148.396 6.19588  12
   7  -7  -6 155.699 7.44812   6
   7  -7  -6 154.628 7.71209   1
  -7  -7   6 153.177 7.85250   1
   7  -7  -6 164.073 10.7933  13
  -7   7   6 156.330 7.51007   3
  -7   7   6 158.671 7.76853   9
   7   7  -6 159.327 8.18450   7
  -7   7   6 161.518 6.65672   5
   7   7  -6 152.613 7.64321   1
   7   7  -6 138.851 6.58078  11
  -5  -7   6 355.786 9.99635  12
   5  -7  -6 381.531 14.8871  13
   5  -7  -6 365.000 11.5204   6
   5  -7  -6 389.316 12.3434   1
  -5  -7   6 368.971 11.2138   6
  -5  -7   6 374.682 12.2278   1
   5   7  -6 360.254 10.3905   4
  -5   7   6 372.528 11.5048   3
   5   7  -6 381.718 12.4244   7
  -5   7   6 370.454 11.8545   9
   5   7  -6 367.070 10.2964  11
  -3  -7   6 95.4725 5.30618   1
   3  -7  -6 95.3981 5.56811   1
  -3  -7   6 100.388 5.10748   6
   3  -7  -6 98.9997 6.58113  13
  -3   7   6 98.8335 5.61588   9
   3   7  -6 91.6207 5.70762   7
  -3   7   6 88.9230 5.00547   3
  -3   7   6 103.125 5.67966   1
   3   7  -6 92.3338 4.18879  11
   3   7  -6 92.2861 4.94826   4
  -3   7   6 90.0596 6.58180  10
   1  -7  -6 338.918 9.78690   2
  -1  -7   6 337.366 9.95694   1
   1  -7  -6 356.657 11.3782   1
  -1  -7   6 343.272 9.82628   6
   1   7  -6 344.873 10.5840   4
  -1   7   6 339.208 10.7749   3
  -1   7   6 341.546 11.6190   1
  -1   7   6 349.437 11.5883   9
   1   7  -6 346.080 11.4444   7
  -1   7   6 328.117 13.5313  10
   1   7  -6 342.887 10.7728  14
  -1  -7  -6 112.903 5.51499   2
  -1  -7  -6 114.099 5.54495  14
   1  -7   6 105.705 4.39045   6
   1   7   6 104.087 8.17148  10
  -1   7  -6 104.996 6.29234   7
  -1   7  -6 106.053 5.91807  14
   1   7   6 105.907 6.61835   1
   1   7   6 98.6825 6.55655   9
  -1   7  -6 103.393 5.65539   4
   3  -7   6 30.9198 2.08537   6
  -3  -7  -6 32.4616 3.26999  14
  -3  -7  -6 36.5529 4.08300   8
  -3  -7  -6 33.5146 3.99763   2
  -3   7  -6 30.8862 3.58013   4
   3   7   6 33.6289 4.23317   6
   3   7   6 31.6573 4.31463   1
  -3   7  -6 30.6653 3.68497  14
  -3   7  -6 28.6045 4.00646   7
   3   7   6 39.8725 5.12199   9
  -5  -7  -6 80.2455 5.59315   2
   5  -7   6 82.2284 2.72214   6
   5   7   6 76.7051 6.29247   6
  -5   7  -6 86.2320 5.85685   5
  -5   7  -6 82.5356 5.28869   4
   5   7   6 86.3242 7.59926   9
   5   7   6 75.0044 6.35659   1
  10  -8  -6 207.979 9.60470   6
  10  -8  -6 203.022 9.28475   1
 -10  -8   6 197.661 9.41313   8
 -10   8   6 187.142 9.73316   3
  10   8  -6 199.784 10.8449   1
 -10   8   6 201.814 8.69663   5
  10   8  -6 204.020 9.81386  11
   8  -8  -6 190.371 8.84018   6
  -8  -8   6 188.962 9.30751   1
   8  -8  -6 173.548 8.59015   1
  -8  -8   6 177.222 8.04964   8
  -8   8   6 174.874 7.31588   5
   8   8  -6 174.534 8.96867   1
   8   8  -6 169.541 8.95747   7
   8   8  -6 174.099 8.01005  11
  -8   8   6 183.291 8.84748   3
   6  -8  -6 304.124 11.3832   1
   6  -8  -6 324.187 14.9598  13
  -6  -8   6 325.504 11.9258   1
   6  -8  -6 296.188 10.8844   6
  -6   8   6 317.944 11.0591   9
   6   8  -6 307.614 9.97813  11
   6   8  -6 297.026 11.4829   7
  -6   8   6 308.611 10.9050   3
  -6   8   6 302.524 9.32715   5
   4  -8  -6 398.066 15.1847  13
  -4  -8   6 383.430 12.5139   1
  -4  -8   6 400.678 12.1540   6
   4  -8  -6 390.425 12.9489   1
  -4   8   6 396.702 12.4637   9
   4   8  -6 380.777 11.3427   4
  -4   8   6 391.297 12.0458   3
  -4   8   6 382.662 11.9661   1
   4   8  -6 386.811 10.7926  11
   4   8  -6 378.615 12.7775   7
   2  -8  -6 581.227 17.3978  13
  -2  -8   6 584.959 15.3543   6
   2  -8  -6 593.798 16.7902   1
  -2  -8   6 599.007 15.6359   1
  -2   8   6 582.144 16.3429   9
  -2   8   6 594.423 16.0668   3
   2   8  -6 597.031 17.1028   7
  -2   8   6 591.842 16.6284   1
   2   8  -6 607.403 15.7382   4
   0  -8  -6 579.901 15.1536   2
   0  -8   6 595.082 14.4751   1
   0  -8   6 585.878 14.6048   6
   0  -8  -6 595.161 16.5167   1
   0   8   6 571.155 16.2482   3
   0   8  -6 589.733 15.8419   4
   0   8  -6 571.468 16.8212   7
   0   8   6 591.598 17.2753   1
   0   8   6 577.087 16.7531   9
  -2  -8  -6 550.220 14.8600  14
   2  -8   6 551.756 13.2725   6
  -2  -8  -6 539.279 15.2973   2
   2   8   6 541.172 17.3838   9
  -2   8  -6 568.047 17.0549   7
   2   8   6 556.278 17.7066   1
  -2   8  -6 589.007 15.7875   4
  -4  -8  -6 293.628 9.77225  14
   4  -8   6 289.413 7.58621   6
  -4  -8  -6 286.019 10.7808   2
   4   8   6 295.208 12.5899   1
   4   8   6 306.020 13.2436   9
  -4   8  -6 305.228 10.7542   4
  -9  -9   6 65.1387 6.22816   1
   9  -9  -6 61.3041 5.55378   6
  -9  -9   6 63.7842 5.67234   8
   9  -9  -6 67.0436 5.67653   1
   9   9  -6 65.2476 5.97491   1
   9   9  -6 61.6743 5.62918  11
  -9   9   6 62.9455 6.02283   3
   7  -9  -6 69.7976 5.19628   6
   7  -9  -6 70.5523 5.42620   1
  -7  -9   6 71.7041 5.46829   8
  -7  -9   6 75.5410 6.38938   1
  -7   9   6 66.5495 5.27692   3
   7   9  -6 75.6416 6.33731   7
  -7   9   6 64.7433 5.43499   9
   7   9  -6 64.4044 4.67828  11
   5  -9  -6 42.8947 6.33042  13
   5  -9  -6 51.4219 5.04436   1
  -5  -9   6 33.6602 4.41155   6
  -5  -9   6 38.1201 4.61404   1
  -5   9   6 47.5313 4.24630   3
   5   9  -6 39.0461 3.80580   4
   5   9  -6 45.0893 3.87156  11
   5   9  -6 49.3152 5.19536   7
  -5   9   6 46.4354 4.38555   9
   3  -9  -6 149.665 7.86127   1
  -3  -9   6 154.209 7.03878   6
  -3  -9   6 153.359 7.34045   1
   3  -9  -6 148.436 8.97903  13
   3   9  -6 153.330 7.02580   4
  -3   9   6 157.900 7.52309   1
  -3   9   6 160.998 7.49507   3
   3   9  -6 160.113 8.47043   7
  -3   9   6 155.350 7.50702   9
  -1  -9   6 23.3385 3.09926   6
  -1  -9   6 15.4285 2.54274   1
   1  -9  -6 22.8030 3.36632   1
  -1   9   6 15.3827 3.17751   3
  -1   9   6 24.1503 3.61152   9
  -1   9   6 20.9694 3.32057   1
   1   9  -6 24.4678 3.67592   7
   1   9  -6 16.3115 2.77493   4
  -1  -9  -6 57.3396 4.65650   2
  -1  -9  -6 58.0250 4.67851  14
   1  -9   6 58.7761 3.89010   6
   1   9   6 49.8683 5.02323   1
  -1   9  -6 54.9848 4.93550   4
   1   9   6 60.7411 5.54386   9
  -1   9  -6 59.5592 5.71357   7
  -3  -9  -6 18.5257 2.94598  14
   3  -9   6 17.7995 2.21241   6
  -3  -9  -6 20.6790 3.49247   2
   3   9   6 21.9155 4.23887   1
  -3   9  -6 19.1879 3.91093   7
   3   9   6 16.7045 3.83895   9
  -3   9  -6 18.9725 3.37157   4
  -8 -10   6 973.662 24.3997   8
  -8 -10   6 1006.63 26.3639   1
   8 -10  -6 966.239 25.0147   6
   8  10  -6 932.085 23.8367  11
  -8  10   6 967.742 25.5580   3
  -6 -10   6 11.0398 2.72678   8
  -6 -10   6 6.52557 2.81283   1
   6 -10  -6 15.0353 3.06562   1
   6  10  -6 10.2487 2.87145   7
  -6  10   6 20.5495 3.16268   9
  -6  10   6 9.81620 3.00644   3
   6  10  -6 11.6083 2.63370  11
  -4 -10   6 1366.18 31.3510   6
  -4 -10   6 1395.85 32.3380   1
   4 -10  -6 1407.25 33.1722   1
   4  10  -6 1349.20 30.1402   4
   4  10  -6 1380.55 29.6351  11
   4  10  -6 1407.04 33.4489   7
  -4  10   6 1376.27 31.8501   3
  -4  10   6 1403.04 31.3219   9
  -2 -10   6 2.08923 1.37931   1
  -2 -10   6 4.73079 2.04507   6
   2 -10  -6 4.78879 2.05933   1
  -2  10   6 0.10450 2.14028   3
  -2  10   6 9.81518 2.50111   9
   2  10  -6 4.88405 2.13915   7
  -2  10   6 6.62125 2.44937   1
   2  10  -6 4.59575 2.25817   4
   0 -10   6 999.791 23.1126   1
   0 -10  -6 1018.29 23.6989   2
   0 -10   6 1024.78 23.5817   6
   0 -10  -6 1009.21 25.7698   1
   0  10  -6 1053.27 25.0237   4
   0  10  -6 1027.76 26.7234   7
   0  10   6 969.139 24.8470   9
   0  10   6 984.951 25.6245   3
   0  10   6 984.723 26.3987   1
  -2 -10  -6 4.67434 1.92590  14
   2 -10   6 5.82365 1.81998   6
  -2 -10  -6 3.09999 1.72692   2
  -2  10  -6 2.48964 2.06473   7
  -2  10  -6 6.16409 2.29225   4
   2  10   6 3.89436 2.70935   1
  -7 -11   6 52.5220 6.08548   1
   7 -11  -6 53.3198 5.60753   1
   7  11  -6 47.6720 4.71742  11
  -7  11   6 51.6504 6.07888   3
  -5 -11   6 44.9320 4.79269   1
   5 -11  -6 46.7327 5.46128   1
   5  11  -6 39.3174 4.39937  11
   5  11  -6 34.9114 4.93953   7
  -5  11   6 44.9069 5.03216   3
   3 -11  -6 121.377 7.95954   1
  -3 -11   6 114.635 6.92943   6
  -3 -11   6 121.861 7.22870   1
  -3  11   6 108.843 6.86201   3
   3  11  -6 111.051 7.91540   7
   3  11  -6 103.533 6.11411   4
   1 -11  -6 47.4190 5.63262   1
  -1 -11   6 44.2902 4.29918   6
  -1 -11   6 43.6374 4.24409   1
   1  11  -6 48.7735 5.98267   7
  -1  11   6 46.9340 5.54231   3
   1  11  -6 42.3068 4.93295   4
  -1  11   6 54.2767 5.07867   1
  -1 -11  -6 91.5056 6.07371  14
   1 -11   6 90.6759 5.67761   6
  -1 -11  -6 99.5314 6.19762   2
   1  11   6 82.2804 6.44499   3
   1  11   6 90.8206 7.32095   1
  -1  11  -6 93.8583 6.20757   4
  -1  11  -6 88.3743 7.51680   7
   4 -12  -6 195.131 10.3100   1
  -4 -12   6 183.698 9.64306   1
  -4  12   6 195.812 9.70930   3
  -2 -12   6 228.640 9.96876   1
   2 -12  -6 221.257 11.1274   1
  -2 -12   6 231.161 10.0743   6
   2  12  -6 208.110 9.72820   4
  -2  12   6 232.926 10.8769   3
   2  12  -6 233.819 11.7568   7
   0 -12   6 206.890 9.09219   6
   0 -12  -6 208.764 10.5744   1
   0  12  -6 208.432 11.2896   7
   0  12  -6 206.940 9.88798   4
  12   0  -7 1.54525 2.38570   1
  12   0  -7 1.01900 2.49050  11
 -12   0   7 0.22366 1.77442   8
 -12   0   7 -0.3428 1.89651   5
 -10   0   7 1.06552 1.55404   8
 -10   0   7 4.06921 2.05478   5
  10   0  -7 7.57502 3.53382  13
 -10   0   7 4.42707 1.58031  12
  10   0  -7 1.79981 1.82375  11
  10   0  -7 -0.0048 1.98236   1
  -8   0   7 0.16482 1.19640   1
   8   0  -7 2.04248 2.29246  13
   8   0  -7 -0.3841 1.52015   1
  -8   0   7 1.13592 1.40401  12
   8   0  -7 0.39855 1.21313  11
   8   0  -7 -0.1521 1.15500   4
  -6   0   7 4.56057 1.45182  12
   6   0  -7 1.79200 0.76625  11
  -6   0   7 1.52750 1.88884  10
   6   0  -7 1.72262 1.03920   1
  -6   0   7 0.41388 0.80293   1
   6   0  -7 1.11507 0.86746   4
   6   0  -7 0.25904 1.63115  13
  -6   0   7 0.50593 1.16972   9
  -4   0   7 0.30699 1.01312   9
  -4   0   7 -0.3872 0.88381   6
   4   0  -7 1.89116 1.33936  13
   4   0  -7 0.41136 0.78686  14
  -4   0   7 0.94589 0.77827  12
   4   0  -7 -0.0370 0.51364   2
  -4   0   7 0.44746 1.54507  10
  -4   0   7 0.66909 1.06335   1
   4   0  -7 2.34104 1.17481   4
   4   0  -7 3.29809 1.07666   1
   2   0  -7 -0.6558 0.59147   1
   2   0  -7 0.59632 0.74473   2
   2   0  -7 0.36933 0.94520  14
  -2   0   7 0.10286 1.20549  10
   2   0  -7 0.31062 0.87399   7
  -2   0   7 -0.1611 0.84546   6
  -2   0   7 0.06961 0.98648  12
   2   0  -7 1.98406 0.83579   4
  -2   0   7 0.62291 0.97467   1
  -2   0   7 0.98885 1.16974   9
   0   0  -7 4.20028 1.07211   4
   0   0  -7 0.69278 1.16436   2
   0   0   7 0.03583 1.31456   9
   0   0  -7 1.34726 0.89295  14
   0   0   7 0.53621 1.46110  10
   0   0   7 4.02858 1.22830   6
   0   0  -7 2.04486 1.11643   8
   0   0   7 0.98496 0.95873   1
   2   0   7 2.62968 1.97173  10
  -2   0  -7 -1.9236 0.75474   4
   2   0   7 1.08314 0.98508   6
   2   0   7 5.96221 2.29492   9
  -2   0  -7 1.37885 1.49153   2
  -2   0  -7 -0.2741 1.21299  14
  -2   0  -7 -0.1049 1.56395   8
   2   0   7 0.53620 0.92148   1
  -4   0  -7 1.08032 1.40324  14
  -4   0  -7 1.38455 1.70250   2
   4   0   7 2.27477 1.19684   6
  -4   0  -7 2.77851 1.64318   8
   4   0   7 2.46405 2.31158   9
  -6   0  -7 4.20236 2.52828   8
   6   0   7 -2.1629 2.37807   9
   6   0   7 -0.6269 1.32650   6
  -6   0  -7 0.07442 1.82878   2
 -11  -1   7 202.505 8.50488  12
 -11  -1   7 191.433 8.01639   5
 -11  -1   7 204.391 8.17919   8
  11  -1  -7 208.011 9.52276   1
  11  -1  -7 196.568 8.84039  11
 -11   1   7 192.281 8.10277  12
 -11   1   7 199.634 8.34229   5
  11   1  -7 194.825 8.85298  11
  11   1  -7 200.191 9.94392   1
  -9  -1   7 717.114 18.0116   1
  -9  -1   7 731.419 17.4886  12
   9  -1  -7 710.700 17.2055  11
   9  -1  -7 712.788 23.0555  13
   9  -1  -7 695.239 18.4684   6
   9  -1  -7 717.153 19.3963   1
   9  -1  -7 659.121 16.4918   4
  -9   1   7 671.311 17.4524   3
  -9   1   7 725.958 17.1999  12
   9   1  -7 689.307 22.0919  13
   9   1  -7 727.115 17.3710  11
   9   1  -7 722.188 19.6080   1
   7  -1  -7 325.531 10.7290   1
  -7  -1   7 321.394 10.1462   1
   7  -1  -7 307.394 12.9068  13
  -7  -1   7 329.026 9.47085  12
   7  -1  -7 311.363 8.37199  11
  -7  -1   7 312.028 9.86886   9
  -7   1   7 326.810 10.0507   1
  -7   1   7 309.450 10.0412   9
   7   1  -7 345.977 9.15046   4
   7   1  -7 321.919 10.6885   1
   7   1  -7 310.915 8.43950  11
   7   1  -7 316.313 12.7511  13
  -7   1   7 316.880 9.10309  12
   5  -1  -7 1988.30 39.6601   1
  -5  -1   7 1949.32 38.4866   6
   5  -1  -7 2001.95 37.4108  14
  -5  -1   7 2057.42 39.8084   1
  -5  -1   7 1966.84 44.1965  10
   5  -1  -7 2017.55 42.9467  13
  -5  -1   7 2024.59 38.3647  12
  -5  -1   7 2009.99 38.8452   9
  -5   1   7 2014.08 38.2313  12
  -5   1   7 1877.15 38.1372   6
  -5   1   7 2002.69 39.4347   9
  -5   1   7 2044.16 39.6952   1
  -5   1   7 1976.31 44.6205  10
   5   1  -7 2024.82 39.5675   1
   5   1  -7 1974.24 37.9956   4
   5   1  -7 1997.78 42.9058  13
   3  -1  -7 401.429 10.4954   1
  -3  -1   7 411.085 10.4519   6
  -3  -1   7 395.631 10.5131   9
   3  -1  -7 401.329 12.5224  13
  -3  -1   7 406.699 11.0283   1
  -3  -1   7 394.066 14.2962  10
   3  -1  -7 398.534 10.0151   4
   3  -1  -7 440.083 10.2353  14
   3  -1  -7 391.244 9.75263   2
  -3  -1   7 406.362 10.3336  12
  -3   1   7 382.541 10.9447   1
  -3   1   7 385.037 10.1014  12
   3   1  -7 392.604 10.1096   2
   3   1  -7 396.142 9.98516   4
   3   1  -7 401.877 10.2179  14
  -3   1   7 385.472 10.2916   6
   3   1  -7 398.212 10.6404   7
  -3   1   7 400.525 11.0914   9
   3   1  -7 382.127 9.95571   1
  -3   1   7 381.912 14.3687  10
  -1  -1   7 2344.65 44.9028   1
   1  -1  -7 2359.73 43.9839   4
  -1  -1   7 2352.54 45.4799   9
  -1  -1   7 2421.67 45.2117  12
   1  -1  -7 2369.90 45.0681   2
  -1  -1   7 2356.09 51.4795  10
  -1  -1   7 2327.72 44.3360   6
   1  -1  -7 2276.48 43.3372   7
   1  -1  -7 2352.13 44.5575  14
  -1   1   7 2380.37 46.2835   9
   1   1  -7 2408.79 44.9573  14
   1   1  -7 2406.88 44.3077   4
   1   1  -7 2372.97 45.3705   2
  -1   1   7 2366.15 45.5698   1
  -1   1   7 2383.01 52.1239  10
  -1   1   7 2401.20 45.0190  12
  -1   1   7 2388.24 44.9151   6
   1   1  -7 2337.54 44.2062   7
  -1  -1  -7 200.571 7.59225   8
   1  -1   7 201.433 6.26664   6
   1  -1   7 197.341 7.85915   9
  -1  -1  -7 205.051 7.50152   2
  -1  -1  -7 201.231 6.75203  14
   1  -1   7 192.789 6.38315   1
   1  -1   7 192.334 10.9386  10
  -1  -1  -7 195.492 6.04133   4
  -1   1  -7 206.471 7.78131   8
  -1   1  -7 202.500 6.98922  14
   1   1   7 201.952 11.2681  10
  -1   1  -7 205.227 7.55810   2
  -1   1  -7 198.607 6.33950   4
   1   1   7 197.414 7.05160   1
   1   1   7 201.060 6.81997   6
   1   1   7 204.100 8.39608   9
   3  -1   7 1046.79 25.4934   9
   3  -1   7 1064.35 21.8277   6
  -3  -1  -7 1054.53 24.9290   8
  -3  -1  -7 1068.43 24.1928   2
  -3  -1  -7 1039.82 22.8215  14
   3   1   7 1063.40 26.3219   9
  -3   1  -7 1043.17 24.7395   8
   3   1   7 1039.99 22.8785   1
  -3   1  -7 1046.63 22.9049  14
  -3   1  -7 1054.81 24.0819   2
   3   1   7 1054.38 22.9620   6
  -5  -1  -7 91.6849 6.31954   8
  -5  -1  -7 85.7964 5.44484   2
   5  -1   7 87.9309 4.39675   6
  -5  -1  -7 81.5622 4.65681  14
   5  -1   7 74.1003 6.40348   9
  -5   1  -7 97.6818 5.02219  14
   5   1   7 90.2398 7.34272   9
  -5   1  -7 93.3610 6.30625   8
   5   1   7 87.6945 5.24683   6
  -5   1  -7 90.4667 5.68142   2
 -12  -2   7 106.749 6.06013   5
 -12  -2   7 111.812 6.37740   8
  12  -2  -7 109.481 6.62145  11
  12  -2  -7 125.313 7.78056   1
  12   2  -7 98.7350 7.11070  11
 -12   2   7 120.436 7.01439   5
  12   2  -7 116.211 7.89434   1
 -10  -2   7 210.342 8.45799   8
  10  -2  -7 207.078 12.1849  13
  10  -2  -7 212.182 9.11595   6
  10  -2  -7 208.741 9.32425   1
 -10  -2   7 203.472 7.77117   5
 -10  -2   7 210.438 8.42515  12
  10  -2  -7 208.081 8.37042  11
 -10   2   7 214.588 8.12995  12
  10   2  -7 217.898 8.68724  11
  10   2  -7 199.608 9.61219   1
 -10   2   7 200.246 8.74930   3
 -10   2   7 207.666 8.35432   5
  -8  -2   7 296.933 9.41280  12
   8  -2  -7 288.229 13.1832  13
   8  -2  -7 304.168 10.7114   1
   8  -2  -7 297.109 8.76776  11
  -8  -2   7 301.736 10.0548   1
   8  -2  -7 291.356 9.98983   6
   8   2  -7 282.982 8.71709  11
  -8   2   7 290.620 10.3723   9
  -8   2   7 285.711 8.80147  12
  -8   2   7 282.137 9.22576   1
   8   2  -7 293.614 12.8314  13
   8   2  -7 300.140 10.8499   1
  -8   2   7 283.175 9.20600   3
   6  -2  -7 626.023 16.0873   1
  -6  -2   7 625.533 15.7391   1
   6  -2  -7 602.685 18.6182  13
  -6  -2   7 605.771 14.5430  12
  -6  -2   7 610.764 14.8718   9
   6   2  -7 632.130 14.3618   4
   6   2  -7 602.942 13.1982  11
  -6   2   7 594.909 19.5199  10
  -6   2   7 588.522 14.9693   3
   6   2  -7 611.875 18.5956  13
   6   2  -7 640.101 15.9988   1
  -6   2   7 607.354 14.1795  12
  -6   2   7 637.492 15.6394   1
  -6   2   7 626.789 15.9103   9
  -4  -2   7 615.530 14.2058  12
   4  -2  -7 611.026 13.6600  14
  -4  -2   7 580.745 14.1489   6
   4  -2  -7 594.973 12.8768   2
   4  -2  -7 581.936 14.7803   1
  -4  -2   7 593.451 18.2912  10
  -4  -2   7 609.248 14.9754   1
   4  -2  -7 640.905 17.6010  13
  -4  -2   7 607.237 14.0277   9
   4   2  -7 597.793 14.2498   1
  -4   2   7 600.848 18.8661  10
   4   2  -7 620.512 13.9590   4
   4   2  -7 615.713 15.0855   7
  -4   2   7 625.014 13.9422  12
  -4   2   7 600.125 14.9548   1
  -4   2   7 606.746 15.1366   9
   4   2  -7 596.179 13.7173  14
  -4   2   7 574.009 14.0637   6
  -2  -2   7 712.485 16.6005   1
   2  -2  -7 729.365 16.1431  14
   2  -2  -7 729.596 15.8674   4
  -2  -2   7 712.156 20.9208  10
  -2  -2   7 708.894 16.2655   9
   2  -2  -7 709.042 16.2986   1
   2  -2  -7 755.951 18.6612  13
   2  -2  -7 736.707 16.1893   2
  -2  -2   7 716.650 16.1260   6
  -2  -2   7 715.072 16.4089  12
   2   2  -7 734.820 16.4768  14
   2   2  -7 739.311 16.6723   7
  -2   2   7 698.022 16.4314   6
  -2   2   7 750.118 16.3540  12
   2   2  -7 743.450 16.8700   2
   2   2  -7 761.123 16.2090   4
  -2   2   7 730.402 17.3887   1
  -2   2   7 716.347 21.5764  10
  -2   2   7 789.511 17.9537   9
   0  -2   7 651.638 16.1763   9
   0  -2  -7 682.038 15.6220  14
   0  -2   7 688.191 15.2513   1
   0  -2  -7 665.371 16.2633   8
   0  -2   7 675.127 15.9252  12
   0  -2  -7 670.051 14.6981   4
   0  -2  -7 681.581 16.2217   2
   0  -2   7 660.952 14.7934   6
   0  -2   7 653.828 21.0297  10
   0   2   7 671.445 15.9473   6
   0   2   7 670.756 17.4590   9
   0   2   7 679.341 22.0544  10
   0   2   7 695.040 16.0373  12
   0   2  -7 685.416 16.5662   2
   0   2  -7 665.335 15.2208   7
   0   2  -7 697.980 15.3266   4
   0   2   7 674.091 16.4992   1
   0   2  -7 687.715 15.9220  14
   2  -2   7 351.144 10.2501   1
   2  -2   7 383.413 9.51149   6
   2  -2   7 379.585 16.3701  10
  -2  -2  -7 411.815 10.6282   4
  -2  -2  -7 397.622 11.6132   2
  -2  -2  -7 382.853 10.6484  14
  -2  -2  -7 396.339 12.1663   8
   2  -2   7 388.974 12.0948   9
  -2   2  -7 397.064 10.3305   4
   2   2   7 369.612 19.4714  10
   2   2   7 394.231 11.2585   6
   2   2   7 386.589 13.0294   9
  -2   2  -7 402.051 11.8991   2
  -2   2  -7 393.329 11.0129  14
   2   2   7 384.721 11.3143   1
  -2   2  -7 393.049 12.1201   8
  -4  -2  -7 298.318 10.3547   2
  -4  -2  -7 284.189 10.6972   8
  -4  -2  -7 295.792 9.29730  14
   4  -2   7 288.858 7.88843   6
   4  -2   7 292.945 11.3036   9
  -4   2  -7 300.138 9.51544  14
  -4   2  -7 293.843 10.7467   8
  -4   2  -7 303.469 10.4372   2
   4   2   7 288.063 9.53337   1
   4   2   7 288.132 9.83439   6
   4   2   7 286.008 12.3094   9
  -6  -2  -7 150.556 8.31752   8
   6  -2   7 153.471 5.58843   6
  -6  -2  -7 156.232 7.80415   2
   6  -2   7 141.615 8.55055   9
  -6   2  -7 150.940 7.38065   2
   6   2   7 162.167 7.46728   6
  -6   2  -7 155.578 7.90381   8
   6   2   7 148.769 9.64881   9
  11  -3  -7 774.345 19.9375  11
  11  -3  -7 779.948 21.3212   6
  11  -3  -7 752.718 21.2340   1
 -11  -3   7 777.328 19.9635  12
 -11  -3   7 760.260 20.0715   8
  11   3  -7 797.774 22.5882   1
 -11   3   7 736.762 20.7685   3
 -11   3   7 781.546 20.0264   5
  11   3  -7 768.544 20.7118  11
   9  -3  -7 171.233 10.8932  13
   9  -3  -7 165.819 7.93723   1
  -9  -3   7 162.364 7.14165  12
  -9  -3   7 180.234 7.88950   1
   9  -3  -7 173.601 7.82034   6
   9   3  -7 180.796 8.84293   1
  -9   3   7 170.808 7.53632   3
   9   3  -7 179.472 7.13768  11
  -9   3   7 173.456 6.77130  12
   7  -3  -7 1321.32 29.3301   1
  -7  -3   7 1276.71 27.3975  12
   7  -3  -7 1273.55 33.1271  13
  -7  -3   7 1315.11 28.9175   1
  -7   3   7 1308.64 26.7354  12
  -7   3   7 1348.46 29.2889   9
   7   3  -7 1411.87 29.8623   1
   7   3  -7 1278.35 26.2878  11
  -7   3   7 1282.51 27.4830   3
  -7   3   7 1266.69 27.8732   1
   7   3  -7 1396.04 26.9166   4
  -5  -3   7 390.051 10.7015   6
   5  -3  -7 405.441 11.7306   1
  -5  -3   7 394.570 10.3718  12
   5  -3  -7 385.371 13.6861  13
   5  -3  -7 409.992 9.87861  14
  -5  -3   7 391.932 11.3251   1
  -5  -3   7 383.817 9.92729   9
  -5  -3   7 367.945 13.6950  10
   5   3  -7 385.975 9.67651  14
   5   3  -7 398.504 10.2912   4
   5   3  -7 367.588 10.7301   1
  -5   3   7 380.747 9.83165  12
  -5   3   7 378.669 11.1632   1
  -5   3   7 379.011 11.4816   9
  -5   3   7 388.648 14.6736  10
   5   3  -7 405.364 11.8304   7
  -5   3   7 382.350 9.87642   3
  -3  -3   7 1330.95 27.4075   1
   3  -3  -7 1347.09 29.9253  13
  -3  -3   7 1277.41 31.1406  10
   3  -3  -7 1269.27 25.5949   2
   3  -3  -7 1288.76 26.1885  14
  -3  -3   7 1320.06 26.6015  12
  -3  -3   7 1303.57 26.6850   6
   3  -3  -7 1293.13 27.4594   1
   3   3  -7 1347.98 26.5088   4
  -3   3   7 1324.20 32.8842  10
  -3   3   7 1298.06 26.9107   6
  -3   3   7 1322.85 26.2222  12
  -3   3   7 1297.66 28.0626   9
   3   3  -7 1324.38 27.6005   7
  -3   3   7 1313.16 27.9515   1
   3   3  -7 1308.05 26.6227  14
   1  -3  -7 443.357 12.6568  13
   1  -3  -7 443.905 10.6609   4
  -1  -3   7 424.828 10.6880   6
   1  -3  -7 429.456 11.3395   8
   1  -3  -7 439.374 11.4513   2
  -1  -3   7 408.599 14.8487  10
  -1  -3   7 464.937 11.5474  12
   1  -3  -7 415.209 11.0652   1
   1  -3  -7 444.702 11.1862  14
  -1  -3   7 413.371 10.9610   9
  -1  -3   7 429.457 10.9775   1
   1   3  -7 441.913 11.1322   4
   1   3  -7 454.379 11.5628   7
  -1   3   7 409.816 15.8612  10
  -1   3   7 432.077 11.6670   6
  -1   3   7 433.923 12.7673   9
   1   3  -7 435.076 11.9336   2
  -1   3   7 437.477 12.4068   1
   1   3  -7 435.041 11.5872  14
  -1   3   7 433.948 11.1956  12
   1  -3   7 834.978 25.6406  10
  -1  -3  -7 922.688 19.8944  14
   1  -3   7 840.545 20.3131   9
   1  -3   7 884.161 18.4094   6
  -1  -3  -7 902.230 18.5707   4
  -1  -3  -7 875.837 20.4336   2
   1  -3   7 896.535 20.3777  12
   1  -3   7 898.221 18.5878   1
  -1  -3  -7 904.397 21.0432   8
   1   3   7 898.058 27.6185  10
   1   3   7 936.341 20.8754   6
  -1   3  -7 907.282 20.3384  14
  -1   3  -7 939.195 21.3980   2
   1   3   7 901.262 22.3810   9
  -1   3  -7 910.506 19.8920   7
  -1   3  -7 912.630 19.6321   4
   1   3   7 905.062 21.2215   1
   3  -3   7 267.902 7.02367   6
  -3  -3  -7 261.850 8.57012  14
  -3  -3  -7 259.466 9.97484   8
  -3  -3  -7 262.093 9.53944   2
   3  -3   7 260.704 9.85017   9
  -3   3  -7 274.842 9.79237   2
  -3   3  -7 265.944 8.79204  14
  -3   3  -7 272.337 8.37864   4
   3   3   7 271.624 11.5739   9
   3   3   7 283.122 9.65454   1
   3   3   7 257.852 9.43443   6
  -3   3  -7 263.012 9.82033   8
  -5  -3  -7 487.560 14.6727   2
  -5  -3  -7 510.107 15.7464   8
   5  -3   7 497.436 11.2465   6
  -5  -3  -7 475.661 13.1458  14
  -5   3  -7 441.377 15.0756  14
   5   3   7 490.523 14.7131   6
   5   3   7 519.773 18.0825   9
  -5   3  -7 493.933 14.4512   2
  -5   3  -7 505.340 15.4753   8
  12  -4  -7 104.944 6.79071  11
  12  -4  -7 100.559 6.99959   6
  12  -4  -7 96.6415 6.84489   1
 -12   4   7 101.732 6.66581   5
 -12   4   7 108.243 7.24761   3
  12   4  -7 103.666 7.31394  11
  12   4  -7 92.0049 7.05099   1
 -10  -4   7 104.239 5.95423  12
  10  -4  -7 95.5763 9.13200  13
  10  -4  -7 104.805 6.71423   1
  10  -4  -7 98.7961 6.48407   6
 -10  -4   7 103.315 5.95839   8
 -10   4   7 101.763 6.38631   3
  10   4  -7 104.000 6.20453  11
  10   4  -7 99.7319 7.46861   7
 -10   4   7 101.685 6.08583   5
  10   4  -7 97.0887 7.12390   1
 -10   4   7 94.9470 5.19226  12
   8  -4  -7 74.4839 5.27459   6
  -8  -4   7 68.3672 5.04548   1
  -8  -4   7 67.1074 4.42028  12
   8  -4  -7 71.2682 7.32733  13
   8  -4  -7 66.4189 4.81361   1
  -8   4   7 56.8364 4.86041   9
   8   4  -7 64.0132 5.33068   1
   8   4  -7 66.5994 4.26487  11
   8   4  -7 60.8491 5.43342   7
  -8   4   7 63.0344 4.48174   3
  -8   4   7 76.9003 4.06487  12
   6  -4  -7 186.549 9.68617  13
  -6  -4   7 170.755 6.46454  12
   6  -4  -7 162.202 5.61388  14
  -6  -4   7 177.513 6.80480   6
   6  -4  -7 170.176 7.35308   1
   6  -4  -7 174.717 6.98163   6
  -6  -4   7 173.713 7.47085   1
   6   4  -7 176.236 7.18618   1
  -6   4   7 174.474 5.92985  12
  -6   4   7 167.132 6.80489   1
   6   4  -7 166.624 7.59242   7
   6   4  -7 166.583 6.01059   4
   6   4  -7 172.733 5.61697  11
  -6   4   7 160.632 6.31078   3
  -6   4   7 171.956 9.74490  10
  -6   4   7 183.760 7.68787   9
   6   4  -7 167.319 5.50168  14
   4  -4  -7 35.2157 4.12627  13
   4  -4  -7 34.3203 2.65019  14
   4  -4  -7 27.1581 2.82440   1
  -4  -4   7 32.2149 3.91187  10
  -4  -4   7 32.8138 2.74027   6
  -4  -4   7 37.5245 3.33496   1
  -4  -4   7 33.2760 2.80651  12
  -4   4   7 38.5843 3.39015   1
  -4   4   7 28.0334 2.48404   3
   4   4  -7 34.1738 3.14459   7
  -4   4   7 34.1150 2.51836  12
   4   4  -7 32.5168 2.45986  14
   4   4  -7 30.3346 2.74471   4
  -4   4   7 29.7725 4.03533  10
  -4   4   7 33.2519 3.50130   9
   2  -4  -7 47.7868 3.39916   1
   2  -4  -7 43.2262 2.93156  14
  -2  -4   7 48.1147 3.13046   6
  -2  -4   7 42.5704 4.42637  10
   2  -4  -7 48.6347 3.10761   2
  -2  -4   7 43.2938 3.18769   1
  -2  -4   7 46.7991 3.20846  12
   2  -4  -7 47.6271 4.07863  13
  -2   4   7 44.3230 2.84392   3
   2   4  -7 51.6867 3.43864   4
  -2   4   7 50.1624 3.94174   1
  -2   4   7 45.6209 3.15652   6
   2   4  -7 47.3676 3.43981  14
  -2   4   7 45.0740 4.85404  10
  -2   4   7 49.7173 3.88344   9
   2   4  -7 50.8778 3.75051   7
  -2   4   7 44.7855 2.80662  12
   0  -4  -7 69.8068 4.23053   2
   0  -4   7 57.0099 5.47986  10
   0  -4   7 65.3488 3.37433   6
   0  -4   7 68.0279 3.83742  12
   0  -4   7 63.1102 3.28601   1
   0  -4  -7 64.5920 4.00058   8
   0  -4  -7 65.3143 3.69678  14
   0  -4  -7 68.4435 3.46112   4
   0   4   7 67.9264 4.34495   6
   0   4  -7 69.7626 4.37891   2
   0   4   7 59.2033 4.25912   1
   0   4   7 65.7386 3.90186  12
   0   4  -7 64.5837 3.90017   4
   0   4  -7 63.3281 4.12868   7
   0   4   7 62.8306 4.68093   9
   0   4  -7 76.5118 4.24464  14
   0   4   7 66.9001 6.73053  10
  -2  -4  -7 2.32023 1.73235   8
  -2  -4  -7 2.89525 1.35933   2
   2  -4   7 3.61356 1.01145   6
   2  -4   7 5.47335 1.83981  12
  -2  -4  -7 4.89114 1.73867  14
  -2   4  -7 3.56205 1.50556   7
   2   4   7 1.33528 1.52790   6
  -2   4  -7 3.35177 1.57338   4
   2   4   7 13.7590 2.64174   1
  -2   4  -7 3.23840 1.37347  14
   2   4   7 4.39812 2.58703   9
  -2   4  -7 2.15618 1.41583   2
  -4  -4  -7 43.7809 4.61087   2
  -4  -4  -7 41.4275 4.13175   8
   4  -4   7 43.4199 2.27822   6
  -4  -4  -7 41.3678 3.65364  14
   4   4   7 40.9159 3.84888   1
   4   4   7 42.4001 5.73438   9
   4   4   7 38.7165 4.21650   6
  -4   4  -7 45.6761 4.29852   2
  -4   4  -7 47.0433 4.60651   8
  -4   4  -7 45.0788 3.88859  14
  -6  -4  -7 5.64136 2.17578   2
  -6  -4  -7 7.54734 2.98176   8
   6  -4   7 8.83683 1.25351   6
   6   4   7 7.43536 2.21806   1
  -6   4  -7 5.97301 2.39136   8
   6   4   7 7.27237 2.61106   6
   6   4   7 7.96125 3.78345   9
 -11  -5   7 120.816 7.36364   8
  11  -5  -7 135.307 7.20876  11
  11  -5  -7 127.699 7.60428   6
  11  -5  -7 131.313 7.67933   1
 -11   5   7 131.901 7.35062   5
 -11   5   7 121.319 7.52168   3
  11   5  -7 138.570 8.85133   7
  11   5  -7 119.416 7.57623  11
  11   5  -7 133.664 8.41391   1
   9  -5  -7 388.962 13.0975   1
  -9  -5   7 376.808 12.9988   1
   9  -5  -7 403.584 13.3913   6
  -9  -5   7 392.295 11.9101  12
   9  -5  -7 381.698 17.5196  13
   9   5  -7 383.759 14.0450   7
   9   5  -7 379.836 13.9384   1
   9   5  -7 386.503 12.0782  11
  -9   5   7 390.987 12.0840   5
  -9   5   7 379.124 12.6429   3
  -7  -5   7 289.233 9.45181  12
   7  -5  -7 311.033 14.0782  13
   7  -5  -7 319.759 11.1271   1
   7  -5  -7 303.068 10.3238   6
  -7  -5   7 309.279 10.8149   1
  -7   5   7 286.518 10.6784   9
   7   5  -7 284.191 8.80952  11
  -7   5   7 278.142 9.71580   3
  -7   5   7 299.999 8.48441  12
   7   5  -7 306.790 10.9060   1
   7   5  -7 307.952 11.3751   7
   5  -5  -7 1146.54 23.5868  14
   5  -5  -7 1166.94 26.2881   1
  -5  -5   7 1103.42 25.6446   1
  -5  -5   7 1128.05 24.6932   6
   5  -5  -7 1158.16 29.1306  13
  -5  -5   7 1144.18 23.9937  12
  -5   5   7 1134.19 25.3068   1
  -5   5   7 1129.36 24.1890   3
  -5   5   7 1134.55 23.0135  12
   5   5  -7 1097.59 23.4639  14
   5   5  -7 1150.56 24.9783   1
   5   5  -7 1114.48 25.9776   7
  -5   5   7 1106.52 29.7798  10
  -5   5   7 1154.64 26.0380   9
   5   5  -7 1156.75 24.1999   4
   3  -5  -7 588.549 13.7783   2
  -3  -5   7 618.782 15.0943   6
   3  -5  -7 613.449 17.6378  13
   3  -5  -7 625.035 16.1514   1
   3  -5  -7 651.128 14.8420  14
  -3  -5   7 607.318 14.5185  12
  -3  -5   7 616.314 15.4753   1
  -3   5   7 623.262 16.4333   9
   3   5  -7 599.622 14.9799  14
  -3   5   7 607.099 19.9005  10
  -3   5   7 605.666 14.6054   3
  -3   5   7 627.043 16.2763   1
   3   5  -7 635.452 16.1167   7
  -3   5   7 601.273 13.9483  12
   3   5  -7 628.887 14.9945   4
   1  -5  -7 1264.25 26.6397   2
   1  -5  -7 1258.17 27.2606   1
   1  -5  -7 1275.82 26.5459  14
   1  -5  -7 1249.35 26.1251   8
  -1  -5   7 1280.08 26.1158   6
  -1  -5   7 1254.13 26.1111   1
  -1  -5   7 1294.42 26.4833  12
   1   5  -7 1309.64 27.8963   7
  -1   5   7 1299.56 26.2763  12
  -1   5   7 1273.36 33.7015  10
  -1   5   7 1256.31 26.5978   3
   1   5  -7 1297.05 26.9556   4
  -1   5   7 1276.88 28.5967   1
   1   5  -7 1281.35 27.4319  14
  -1   5   7 1303.26 28.9671   9
  -1   5   7 1275.48 27.5675   6
   1  -5   7 396.939 9.89808   6
  -1  -5  -7 398.834 11.2197  14
  -1  -5  -7 401.313 11.7797   8
  -1  -5  -7 415.783 11.9206   2
   1  -5   7 380.132 11.1225  12
   1   5   7 382.560 12.2419   6
  -1   5  -7 402.331 11.9397  14
   1   5   7 396.081 13.4419   9
  -1   5  -7 388.591 11.8768   7
  -1   5  -7 401.643 12.4349   2
   1   5   7 406.924 13.0166   1
  -1   5  -7 399.552 11.2604   4
  -3  -5  -7 459.544 13.8737   2
   3  -5   7 447.784 13.1103  12
  -3  -5  -7 476.616 12.9209  14
  -3  -5  -7 471.552 14.3509   8
   3  -5   7 471.175 10.4849   6
   3   5   7 464.912 14.7527   1
   3   5   7 469.115 14.6830   6
   3   5   7 474.582 16.4616   9
  -3   5  -7 471.772 13.4767  14
  -3   5  -7 472.318 12.9331   4
  -3   5  -7 482.417 14.3112   2
  -5  -5  -7 140.750 7.49730   8
  -5  -5  -7 120.753 7.05904   2
   5  -5   7 117.389 3.64494   6
   5   5   7 133.845 7.43079   1
  -5   5  -7 115.835 6.61126   2
   5   5   7 134.179 9.37696   9
   5   5   7 120.148 7.36697   6
  10  -6  -7 64.3463 5.66452   1
 -10  -6   7 63.6932 5.49323   8
  10  -6  -7 53.3722 5.40981   6
 -10  -6   7 56.0472 4.83884  12
  10   6  -7 58.2461 5.22064  11
 -10   6   7 64.7616 4.84293   5
 -10   6   7 54.2559 5.33815   3
  10   6  -7 57.2736 6.13334   7
  10   6  -7 53.4757 6.11448   1
  -8  -6   7 115.664 5.98517  12
   8  -6  -7 112.282 9.36610  13
   8  -6  -7 115.565 6.94456   1
  -8  -6   7 115.325 6.97534   1
   8  -6  -7 139.315 7.12991   6
  -8   6   7 113.379 6.45299   3
   8   6  -7 119.125 5.92606  11
   8   6  -7 122.082 7.58894   7
   8   6  -7 111.382 6.78678   1
  -8   6   7 109.712 6.79216   9
  -6  -6   7 6.32461 1.95739   1
   6  -6  -7 9.78645 2.99989  13
  -6  -6   7 12.6876 2.19372  12
   6  -6  -7 9.99739 1.69697  14
   6  -6  -7 9.43210 2.55967   1
   6   6  -7 16.1082 2.23277  11
   6   6  -7 8.82158 1.95674   4
  -6   6   7 9.35319 2.30127   9
   6   6  -7 6.67591 2.11668   7
  -6   6   7 10.3307 2.20363   1
   6   6  -7 10.5388 2.33375   1
  -6   6   7 12.0437 2.23371   3
   4  -6  -7 77.4943 4.35912  14
  -4  -6   7 86.9306 5.02216   1
  -4  -6   7 79.0058 4.63582   6
  -4  -6   7 73.0525 4.02172  12
   4  -6  -7 78.0667 5.27789   1
   4  -6  -7 85.7172 6.43905  13
   4   6  -7 80.7451 4.32617  14
  -4   6   7 83.0728 4.57484   3
   4   6  -7 80.1579 5.32597   7
  -4   6   7 69.5416 6.29897  10
  -4   6   7 74.1188 4.86878   1
   4   6  -7 78.3857 4.58115   4
  -4   6   7 75.3685 4.95219   9
   2  -6  -7 17.3031 2.75286   1
   2  -6  -7 14.2892 2.02834   2
  -2  -6   7 18.0467 2.46451   1
   2  -6  -7 16.0989 2.28362  14
   2  -6  -7 16.0316 2.98509  13
  -2  -6   7 17.0750 2.30527  12
  -2  -6   7 17.9668 2.41744   6
  -2   6   7 19.7275 2.90138   1
  -2   6   7 18.7925 3.90291  10
  -2   6   7 17.7392 3.09504   9
   2   6  -7 18.7316 2.75346   4
  -2   6   7 16.6336 1.98583  12
   2   6  -7 13.8690 2.47038  14
  -2   6   7 22.4819 2.83113   3
   2   6  -7 24.4814 3.32639   7
   0  -6  -7 1.76831 1.52200   2
   0  -6  -7 1.49659 1.21593   8
   0  -6   7 6.05767 1.43241   1
   0  -6   7 1.43069 1.23354  12
   0  -6  -7 -1.1615 1.28603  14
   0  -6   7 6.12098 1.47024   6
   0   6  -7 2.31706 1.69953  14
   0   6   7 0.34993 1.49093   9
   0   6  -7 2.41157 1.62949   4
   0   6   7 2.01913 1.60402   6
   0   6   7 2.02117 1.27227  12
   0   6   7 2.77827 2.49143  10
   0   6  -7 0.64941 1.65648   7
   0   6   7 1.71252 1.81501   1
  -2  -6  -7 34.3350 3.78587   8
  -2  -6  -7 35.2050 3.57419  14
  -2  -6  -7 36.2513 3.96118   2
   2  -6   7 36.2401 2.47231   6
  -2   6  -7 37.5285 4.06754  14
  -2   6  -7 39.2222 3.84477   4
   2   6   7 31.8805 4.69458   9
   2   6   7 30.7532 4.00813   6
  -2   6  -7 33.6416 3.95907   7
   2   6   7 37.5527 4.02716   1
  -4  -6  -7 0.86309 2.04448   8
  -4  -6  -7 0.73265 1.65995  14
  -4  -6  -7 6.26118 2.58912   2
   4  -6   7 2.44478 0.83169   6
  -4   6  -7 1.55057 1.75412   4
   4   6   7 2.95487 1.89383   1
   4   6   7 2.94663 2.98075   9
  -4   6  -7 1.14921 1.79639  14
   4   6   7 2.44601 2.19477   6
  -9  -7   7 783.237 19.7649  12
   9  -7  -7 799.713 21.6899   1
   9  -7  -7 763.662 21.1287   6
  -9  -7   7 777.158 20.8289   8
  -9  -7   7 782.618 21.6992   1
   9   7  -7 769.231 20.0211  11
   9   7  -7 805.513 22.6433   1
   9   7  -7 763.936 22.1183   7
  -9   7   7 787.754 19.7728   5
  -7  -7   7 161.908 6.84500  12
   7  -7  -7 185.700 8.76192   1
  -7  -7   7 169.293 8.52539   1
   7  -7  -7 168.507 11.0300  13
  -7   7   7 174.562 8.32122   9
   7   7  -7 160.750 8.26770   7
   7   7  -7 161.860 6.79415  11
  -7   7   7 179.072 8.05124   3
   5  -7  -7 836.722 19.3494  14
  -5  -7   7 857.403 20.6514   6
   5  -7  -7 857.804 24.8610  13
  -5  -7   7 842.020 21.4973   1
  -5  -7   7 802.985 18.7383  12
   5  -7  -7 847.311 21.7118   1
  -5   7   7 856.122 20.8445   1
   5   7  -7 847.566 21.8237   7
  -5   7   7 836.730 20.3674   3
  -5   7   7 828.478 21.0713   9
  -5   7   7 823.723 25.3902  10
   5   7  -7 849.847 19.7161   4
   3  -7  -7 115.144 6.49001   1
   3  -7  -7 115.622 5.57772  14
  -3  -7   7 114.414 5.96531   1
   3  -7  -7 115.744 7.16928  13
  -3  -7   7 106.471 5.64433   6
   3   7  -7 108.783 5.73056  14
  -3   7   7 117.896 6.22773   1
  -3   7   7 103.151 7.71231  10
  -3   7   7 114.454 6.55964   9
  -3   7   7 106.904 5.64449   3
   3   7  -7 111.724 6.22520   7
   3   7  -7 106.435 5.62765   4
  -1  -7   7 613.001 15.2589   1
   1  -7  -7 620.497 16.7404   1
   1  -7  -7 601.110 15.4495  14
   1  -7  -7 635.445 15.6068   2
  -1  -7   7 640.836 15.3981   6
  -1   7   7 590.099 16.0826   3
  -1   7   7 597.597 17.5335   9
   1   7  -7 636.521 16.2204   4
   1   7  -7 635.986 17.3728   7
   1   7  -7 599.122 16.3449  14
  -1   7   7 613.787 17.6959   1
  -1   7   7 575.009 20.7152  10
   1  -7   7 130.657 5.34050   6
  -1  -7  -7 143.868 6.33981  14
  -1  -7  -7 147.702 7.03244   2
  -1   7  -7 142.458 7.54975   7
   1   7   7 141.879 6.13532  12
  -1   7  -7 142.181 6.60606   4
  -1   7  -7 154.553 7.43890  14
   1   7   7 133.882 7.77209   1
   1   7   7 165.261 8.93926   9
  -3  -7  -7 483.602 14.7201   2
   3  -7   7 469.745 11.1174   6
  -3  -7  -7 489.365 14.7251   8
  -3  -7  -7 483.878 13.6866  14
   3   7   7 508.035 17.6291   9
   3   7   7 448.275 15.4195   6
  -3   7  -7 482.925 13.9396   4
   3   7   7 465.962 15.9515   1
  -3   7  -7 473.849 14.3645  14
  -3   7  -7 489.901 15.2555   7
 -10  -8   7 94.7969 6.81211   8
  10  -8  -7 89.1710 6.61377   1
  10  -8  -7 102.402 7.07570   6
  10   8  -7 95.2624 6.53641  11
 -10   8   7 94.1602 6.93173   3
  10   8  -7 100.044 7.38207   1
 -10   8   7 94.2885 6.03046   5
   8  -8  -7 272.694 11.2648   1
  -8  -8   7 274.832 11.6740   1
  -8   8   7 259.155 9.36729   5
   8   8  -7 273.763 11.7823   7
  -8   8   7 258.979 10.8040   9
  -8   8   7 269.830 10.9481   3
   6  -8  -7 151.286 10.2565  13
   6  -8  -7 140.310 7.62806   1
  -6  -8   7 153.630 8.09867   1
  -6   8   7 151.048 7.57824   9
  -6   8   7 145.826 7.26280   3
   6   8  -7 136.380 6.15030  11
   6   8  -7 144.102 7.79353   7
   4  -8  -7 511.126 15.8967   1
   4  -8  -7 533.211 18.0041  13
  -4  -8   7 496.802 15.1218   1
  -4  -8   7 506.644 14.6994   6
   4   8  -7 517.641 14.3188   4
  -4   8   7 510.346 15.0986   1
  -4   8   7 504.011 15.3672   9
   4   8  -7 497.852 15.7202   7
  -4   8   7 515.812 14.7177   3
   2  -8  -7 392.929 13.0343   1
  -2  -8   7 378.880 11.7565   1
   2  -8  -7 384.275 11.5188  14
  -2  -8   7 386.859 11.7854   6
  -2   8   7 384.016 13.2716   1
  -2   8   7 364.946 12.0710   3
   2   8  -7 372.214 13.1568   7
  -2   8   7 371.852 12.8720   9
   2   8  -7 393.336 12.1537   4
   0  -8   7 237.419 8.36658   6
   0  -8  -7 238.582 8.86318  14
   0  -8  -7 244.258 8.82071   2
   0  -8   7 231.249 7.87759   1
   0   8  -7 244.658 9.33030   4
   0   8  -7 232.747 9.99281   7
   0   8   7 224.232 9.39450   3
   0   8   7 223.508 10.1984   1
   0   8   7 249.359 10.7124   9
   2  -8   7 390.915 10.6948   6
  -2  -8  -7 400.803 13.0638   2
  -2  -8  -7 401.317 12.2468  14
  -2   8  -7 398.828 13.9963   7
  -2   8  -7 415.971 12.9657   4
   2   8   7 400.047 14.6662   1
   2   8   7 411.080 15.4425   9
   4  -8   7 79.3229 3.47062   6
  -4  -8  -7 73.3360 4.75052  14
  -4  -8  -7 83.2023 5.74023   2
   4   8   7 77.2741 7.57988   9
   4   8   7 81.6922 6.42809   1
  -4   8  -7 80.7053 5.62476   4
  -9  -9   7 21.7268 3.81430   8
  -9  -9   7 31.2831 4.44672   1
   9  -9  -7 28.1811 4.21018   1
  -9   9   7 33.9436 4.80735   3
   9   9  -7 25.1315 3.46655  11
   9   9  -7 15.9260 4.82093   7
  -7  -9   7 566.268 17.9463   1
   7  -9  -7 568.251 17.6199   1
   7   9  -7 554.957 17.9938   7
   7   9  -7 516.326 14.9909  11
  -7   9   7 562.643 17.0678   9
  -7   9   7 564.859 17.0361   3
  -5  -9   7 110.653 6.75880   1
  -5  -9   7 92.6272 6.01885   6
   5  -9  -7 94.8319 8.21315  13
   5  -9  -7 113.440 7.34219   1
  -5   9   7 101.878 6.55948   9
   5   9  -7 92.2375 5.52119   4
   5   9  -7 103.010 7.14954   7
  -5   9   7 93.1151 5.87668   3
   3  -9  -7 1265.54 29.6277   1
  -3  -9   7 1205.72 27.8559   1
  -3  -9   7 1157.71 27.1825   6
  -3   9   7 1191.17 28.2677   9
   3   9  -7 1171.51 27.0187   4
   3   9  -7 1139.66 28.9500   7
  -3   9   7 1164.53 27.7667   3
  -1  -9   7 135.363 6.30499   1
   1  -9  -7 136.051 7.40197   1
   1  -9  -7 124.776 6.61193  14
  -1  -9   7 132.217 6.50184   6
  -1   9   7 121.883 7.11451   3
   1   9  -7 122.087 7.71506   7
  -1   9   7 124.579 7.48191   9
   1   9  -7 127.191 6.65684   4
  -1   9   7 130.325 7.82418   1
   1  -9   7 878.936 20.2062   6
  -1  -9  -7 864.773 21.3199  14
   1   9   7 881.651 24.5479   1
  -1   9  -7 862.826 21.9773   4
   1   9   7 878.232 24.0853   9
  -1   9  -7 872.775 23.7117   7
   1   9   7 834.096 23.1548   3
  -3  -9  -7 20.3826 3.13680  14
   3  -9   7 24.6655 2.55239   6
  -3  -9  -7 23.5741 3.56860   2
  -3   9  -7 22.5927 3.88712   7
   3   9   7 25.2201 4.59612   1
   3   9   7 24.8720 4.67180   9
  -3   9  -7 22.2730 3.75520   4
  -8 -10   7 6.28620 2.69029   8
   8 -10  -7 10.3913 3.34422   1
  -8 -10   7 8.03214 3.32263   1
   8  10  -7 3.25596 2.22756  11
  -8  10   7 14.3864 3.16710   3
   8  10  -7 3.96514 2.93481   7
   6 -10  -7 38.1371 4.98287   1
  -6 -10   7 26.8920 4.42886   1
   6  10  -7 27.7007 4.51820   7
  -6  10   7 31.8519 3.96125   9
  -6  10   7 32.1659 4.28519   3
  -4 -10   7 2.90871 1.58001   6
   4 -10  -7 1.51622 2.84595  13
   4 -10  -7 5.71642 2.80553   1
  -4 -10   7 2.85525 2.28204   1
   4  10  -7 2.65718 1.68651   4
   4  10  -7 14.1887 3.72184   7
  -4  10   7 4.78477 2.37812   9
  -4  10   7 7.67239 2.82163   3
   2 -10  -7 6.67484 2.53574  14
   2 -10  -7 6.12361 2.73089   1
  -2 -10   7 3.37383 1.53581   1
  -2 -10   7 6.50233 2.33960   6
   2  10  -7 5.06731 2.86847   7
  -2  10   7 3.62549 2.43928   3
  -2  10   7 7.63933 2.71142   9
  -2  10   7 6.41285 2.57816   1
   2  10  -7 5.92760 2.52126   4
   0 -10   7 13.8094 2.61271   6
   0 -10  -7 10.8642 2.79515  14
   0  10  -7 17.7054 3.49493   7
   0  10   7 11.9059 3.17755   9
   0  10   7 16.3406 3.73419   3
   0  10  -7 14.5636 3.51056   4
   0  10   7 16.7037 3.96890   1
  -2 -10  -7 7.59006 2.66573  14
  -2 -10  -7 4.78752 2.56800   2
   2 -10   7 5.19449 1.79929   6
   2  10   7 5.25749 2.50532   1
  -2  10  -7 4.30334 2.84600   7
   2  10   7 6.51621 3.09688   3
   2  10   7 1.35306 2.60427   9
  -2  10  -7 6.93503 2.88326   4
  -5 -11   7 128.797 8.13270   1
   5 -11  -7 115.653 8.02730   1
  -5  11   7 109.346 6.90435   3
  -3 -11   7 250.203 10.5793   1
   3 -11  -7 258.767 11.7835   1
  -3 -11   7 249.423 10.4311   6
   3  11  -7 242.625 10.1375   4
  -3  11   7 238.857 10.6591   3
   3  11  -7 239.235 11.6231   7
  -1 -11   7 54.7066 4.52131   1
   1 -11  -7 50.1201 5.19741  14
  -1 -11   7 40.9927 4.29927   6
   1 -11  -7 46.4653 5.54567   1
   1  11  -7 64.3705 6.92432   7
  -1  11   7 40.8219 4.97725   3
   1  11  -7 48.4133 5.28420   4
  -1  11   7 40.8728 5.34701   1
 -12   0   8 299.344 10.7826  12
  12   0  -8 285.489 12.1040   1
 -12   0   8 295.064 10.6788   5
  10   0  -8 47.5260 5.36371   1
  10   0  -8 43.6490 3.93851  11
 -10   0   8 42.4112 4.08704  12
  10   0  -8 35.8339 5.72289  13
   8   0  -8 1326.60 34.5713  13
   8   0  -8 1401.08 31.1797   1
   8   0  -8 1360.79 28.2420   4
  -8   0   8 1334.72 29.8909   9
  -8   0   8 1351.47 28.5405  12
  -8   0   8 1338.49 29.5471   1
  -6   0   8 298.702 9.06194  12
   6   0  -8 290.584 12.2456  13
  -6   0   8 301.048 13.4894  10
   6   0  -8 308.075 8.95367   4
   6   0  -8 302.525 10.1151   1
  -6   0   8 307.150 9.85666   9
   6   0  -8 288.197 7.92592  14
  -6   0   8 298.675 10.0308   1
   4   0  -8 3279.31 61.0362   2
  -4   0   8 3359.38 62.1422   6
   4   0  -8 3357.71 61.3797   4
  -4   0   8 3241.89 69.0107  10
   4   0  -8 3378.15 66.4705  13
  -4   0   8 3379.90 61.9042  12
   4   0  -8 3341.42 61.3871  14
  -4   0   8 3344.23 63.3210   1
   4   0  -8 3198.47 61.8641   1
  -4   0   8 3359.62 62.7763   9
   2   0  -8 201.758 6.49414   4
  -2   0   8 174.494 10.1228  10
   2   0  -8 186.402 6.81704   2
  -2   0   8 174.818 7.22058   9
  -2   0   8 185.227 6.86423  12
  -2   0   8 193.296 6.80389   6
   2   0  -8 187.446 6.57675  14
   2   0  -8 199.490 6.48325   7
  -2   0   8 182.189 7.07141   1
   0   0   8 2320.94 44.4700   6
   0   0  -8 2292.10 43.4600   4
   0   0   8 2308.36 44.7280   1
   0   0   8 2274.42 46.4338   9
   0   0   8 2367.73 45.4359  12
   0   0   8 2210.89 53.4871  10
   0   0  -8 2282.42 45.8879   8
   0   0  -8 2301.10 45.2635   2
   0   0  -8 2285.26 44.4699  14
  -2   0  -8 9.50208 2.12573   2
   2   0   8 6.19630 1.71433   6
  -2   0  -8 11.2328 2.29274  14
   2   0   8 6.61327 2.16834   9
  -2   0  -8 7.86449 1.68197   4
   2   0   8 7.90476 1.74054   1
  -2   0  -8 9.53095 2.32744   8
  -4   0  -8 810.744 21.8858   8
   4   0   8 797.978 23.1574   9
  -4   0  -8 839.574 21.0703   2
   4   0   8 837.701 19.4962   6
 -11  -1   8 3.64446 2.02903   5
 -11  -1   8 3.03219 2.05091   8
  11  -1  -8 5.02056 2.57631   1
 -11  -1   8 0.44310 2.02317  12
  11  -1  -8 0.35859 1.47330  11
 -11   1   8 7.35608 2.61526   5
  11   1  -8 1.41207 2.13902  11
 -11   1   8 3.03913 2.06584  12
  11   1  -8 3.96389 2.17105   1
   9  -1  -8 160.743 10.5149  13
   9  -1  -8 172.458 6.99799   4
  -9  -1   8 173.912 7.33495  12
  -9  -1   8 175.908 7.81214   1
   9  -1  -8 173.735 8.69045   1
   9   1  -8 181.260 10.9200  13
  -9   1   8 184.322 7.13791  12
   9   1  -8 173.571 8.73413   1
   7  -1  -8 2.49412 1.95615  13
  -7  -1   8 1.65265 1.43149   9
   7  -1  -8 2.37287 1.37433   1
  -7  -1   8 3.97803 1.79618   1
   7  -1  -8 3.11876 1.56719   4
  -7   1   8 2.98993 1.34862   1
  -7   1   8 2.03048 1.14502  12
   7   1  -8 1.26566 1.29591   4
  -7   1   8 2.84149 1.44682   9
   7   1  -8 10.0426 3.14648  13
   7   1  -8 4.28691 1.93797   1
  -5  -1   8 149.528 5.87436  12
   5  -1  -8 149.402 5.35730  14
  -5  -1   8 143.246 5.74047   6
  -5  -1   8 144.925 6.58890   1
   5  -1  -8 142.713 6.30044   1
   5  -1  -8 146.877 8.00015  13
  -5  -1   8 145.274 8.77378  10
  -5  -1   8 146.079 6.00171   9
   5  -1  -8 155.929 5.91693   4
   5   1  -8 140.096 5.98365   1
  -5   1   8 139.690 5.55979  12
  -5   1   8 139.489 5.72906   6
  -5   1   8 146.253 6.36868   9
   5   1  -8 141.404 5.22372  14
   5   1  -8 141.927 7.89487  13
  -5   1   8 141.541 9.01273  10
   5   1  -8 141.210 5.50589   4
  -5   1   8 142.787 6.43028   1
  -3  -1   8 184.077 6.94422   9
   3  -1  -8 189.361 8.67407  13
   3  -1  -8 188.067 6.49074  14
  -3  -1   8 177.978 9.80967  10
  -3  -1   8 184.857 6.72874   6
  -3  -1   8 181.776 7.18211   1
   3  -1  -8 177.168 6.21881   2
   3  -1  -8 179.891 6.16735   4
  -3  -1   8 181.161 6.71405  12
   3  -1  -8 172.270 6.33736   1
   3   1  -8 182.440 6.44736  14
  -3   1   8 177.611 10.0005  10
  -3   1   8 184.597 6.79128   6
  -3   1   8 187.168 6.56492  12
   3   1  -8 180.989 6.58532   2
  -3   1   8 196.527 7.44410   1
  -3   1   8 190.762 7.47113   9
   3   1  -8 174.865 6.24028   4
   3   1  -8 180.618 6.70451   7
   1  -1  -8 6.25253 1.54096   2
  -1  -1   8 8.23380 1.84318  12
  -1  -1   8 6.65069 1.62372   1
  -1  -1   8 7.20805 1.75386   9
  -1  -1   8 7.41281 2.55972  10
  -1  -1   8 6.76593 1.59069   6
   1  -1  -8 7.10719 1.41711   4
   1  -1  -8 7.76168 1.61835  14
   1   1  -8 6.97486 1.81766  14
  -1   1   8 7.55500 1.68422   1
   1   1  -8 7.16469 1.50958   7
  -1   1   8 6.77586 2.22705   9
   1   1  -8 8.11560 1.68826   4
  -1   1   8 8.18223 3.20125  10
  -1   1   8 6.58874 1.67963   6
   1   1  -8 6.53885 1.88374   2
  -1   1   8 10.3262 2.07826  12
  -1  -1  -8 233.797 8.68574   2
   1  -1   8 230.424 8.45431  12
   1  -1   8 239.908 7.71109   6
  -1  -1  -8 224.333 8.94725   8
   1  -1   8 220.627 13.0677  10
   1  -1   8 233.438 9.29225   9
   1  -1   8 224.851 7.48912   1
  -1  -1  -8 227.470 7.82546  14
  -1  -1  -8 241.777 7.18799   4
  -1   1  -8 246.132 9.28458   8
   1   1   8 222.026 9.61640   9
  -1   1  -8 226.089 8.71395   2
  -1   1  -8 239.209 7.39020   4
   1   1   8 229.891 8.29430   1
   1   1   8 235.576 8.68778  12
  -1   1  -8 231.659 7.97547  14
   1   1   8 223.590 8.01957   6
   3  -1   8 24.7331 4.01807   9
  -3  -1  -8 28.0829 3.30517  14
   3  -1   8 31.0690 2.78775   6
  -3  -1  -8 27.1816 3.62346   2
  -3  -1  -8 21.2203 3.32236   8
   3   1   8 20.1581 2.82534   6
   3   1   8 21.2916 2.68740   1
   3   1   8 21.8393 4.21587   9
  -3   1  -8 18.5333 3.55505   8
  -3   1  -8 20.1864 2.69868  14
  -3   1  -8 19.7051 3.25555   2
   5  -1   8 29.5880 4.74156   9
  -5  -1  -8 23.1282 3.77045   2
   5  -1   8 27.7528 3.01880   6
  -5  -1  -8 27.8912 4.25187   8
   5   1   8 27.3200 3.44861   6
  -5   1  -8 26.2381 4.19681   8
  -5   1  -8 33.2250 4.17470   2
   5   1   8 33.8535 5.53098   9
  12  -2  -8 109.803 8.18501  11
 -12  -2   8 148.108 7.45600   8
  12  -2  -8 135.777 8.01693   1
 -12  -2   8 125.283 6.62873   5
  12   2  -8 145.432 8.98656   1
 -12   2   8 129.964 7.25743   5
  12   2  -8 137.763 8.37118  11
 -10  -2   8 990.323 23.4957  12
  10  -2  -8 1015.54 25.8174   1
  10  -2  -8 1009.34 26.5083  11
  10  -2  -8 937.353 29.9329  13
  10   2  -8 971.977 23.8138  11
  10   2  -8 1001.95 26.2793   1
 -10   2   8 1006.82 22.9579  12
  -8  -2   8 110.249 5.43239  12
  -8  -2   8 116.292 6.40628   1
   8  -2  -8 115.361 6.50456   1
   8  -2  -8 115.504 8.69134  13
   8   2  -8 123.970 6.80206   1
   8   2  -8 115.919 5.25190   4
  -8   2   8 131.040 6.34717   1
  -8   2   8 109.923 6.47893   9
  -8   2   8 126.439 5.65579  12
  -6  -2   8 909.529 20.8466   9
   6  -2  -8 914.322 19.4229  14
  -6  -2   8 925.979 20.9364   6
  -6  -2   8 947.154 22.2423   1
   6  -2  -8 944.798 25.7525  13
  -6  -2   8 926.734 20.7172  12
   6  -2  -8 963.091 22.4616   1
  -6   2   8 905.361 26.9452  10
  -6   2   8 952.951 22.2134   9
   6   2  -8 928.261 21.8463   1
  -6   2   8 934.530 20.4297  12
   6   2  -8 882.323 19.2655  14
   6   2  -8 930.600 20.3957   4
  -6   2   8 984.951 22.2648   1
  -4  -2   8 129.682 8.32669  10
  -4  -2   8 163.809 6.18604   6
   4  -2  -8 128.835 4.69113   2
   4  -2  -8 126.112 5.71663   1
   4  -2  -8 134.020 5.44154   4
  -4  -2   8 138.960 5.82039  12
  -4  -2   8 129.686 6.02951   1
  -4  -2   8 123.610 5.33632   9
   4  -2  -8 131.970 5.24090  14
  -4   2   8 128.476 6.13382   1
   4   2  -8 133.982 5.42943   4
  -4   2   8 131.867 6.21822   9
   4   2  -8 135.957 5.47553  14
  -4   2   8 139.742 5.77231   6
  -4   2   8 124.293 8.27440  10
   4   2  -8 138.936 6.01657   7
  -4   2   8 134.789 5.52903  12
   2  -2  -8 772.556 17.7348  14
  -2  -2   8 757.211 18.0840   9
  -2  -2   8 805.404 18.3818  12
   2  -2  -8 804.924 17.5251   4
   2  -2  -8 769.467 17.7936   2
  -2  -2   8 735.295 23.1776  10
  -2  -2   8 762.700 17.7877   6
  -2  -2   8 803.880 18.4805   1
   2  -2  -8 803.082 20.4605  13
   2   2  -8 775.462 17.5310   4
  -2   2   8 794.019 19.6997   9
  -2   2   8 780.370 17.9460  12
  -2   2   8 849.518 18.7133   6
   2   2  -8 803.644 18.6952   2
   2   2  -8 772.248 17.8995   7
  -2   2   8 779.703 24.2467  10
   2   2  -8 810.822 18.1697  14
  -2   2   8 782.657 19.1633   1
   0  -2   8 373.681 16.2386  10
   0  -2   8 406.839 11.8626  12
   0  -2  -8 408.204 12.1516   8
   0  -2   8 385.463 11.8652   9
   0  -2   8 399.523 10.7309   1
   0  -2  -8 419.111 11.9442   2
   0  -2   8 394.576 10.6412   6
   0  -2  -8 396.445 10.3216   4
   0  -2  -8 415.654 11.1534  14
   0   2  -8 422.755 10.9722   4
   0   2  -8 408.837 11.4619  14
   0   2   8 404.437 11.8014   6
   0   2   8 376.032 17.0441  10
   0   2   8 413.060 11.8605  12
   0   2   8 431.770 12.4715   1
   0   2  -8 380.012 10.5392   7
   0   2   8 407.873 13.2670   9
   0   2  -8 417.755 12.2979   2
  -2  -2  -8 672.159 18.3334   8
  -2  -2  -8 699.989 16.9262  14
   2  -2   8 658.852 18.5613   9
   2  -2   8 693.784 17.9309  12
   2  -2   8 697.042 15.9007   6
  -2  -2  -8 696.103 17.9854   2
   2   2   8 703.353 17.6230   1
  -2   2  -8 709.248 18.2181   2
  -2   2  -8 677.681 16.1341   4
   2   2   8 686.841 17.6080   6
   2   2   8 680.643 20.1565   9
  -2   2  -8 691.087 18.7767   8
  -2   2  -8 685.890 17.2035  14
   4  -2   8 418.771 10.9242   6
  -4  -2  -8 402.067 13.1875   2
  -4  -2  -8 400.834 13.9651   8
  -4  -2  -8 399.830 11.9207  14
   4  -2   8 388.587 14.1879   9
   4   2   8 400.469 15.6746   9
   4   2   8 392.580 12.0898   1
  -4   2  -8 408.709 12.0717  14
   4   2   8 404.366 12.7605   6
  -4   2  -8 413.240 13.2495   2
  -4   2  -8 425.852 14.1888   8
  11  -3  -8 2.52956 2.34947   1
 -11  -3   8 0.10667 1.45778   8
 -11  -3   8 3.98551 1.90275  12
  11  -3  -8 2.44319 2.15041  11
  11   3  -8 0.73274 1.71248   1
 -11   3   8 0.98360 2.27380   5
  11   3  -8 1.61916 2.13200  11
 -11   3   8 0.43118 1.68184  12
   9  -3  -8 83.3423 5.82386   1
  -9  -3   8 74.0758 5.03167  12
   9  -3  -8 80.3169 7.57051  13
  -9  -3   8 84.7314 5.80503   1
  -9   3   8 82.6134 6.13843   9
   9   3  -8 78.8342 5.83425   1
  -9   3   8 80.4776 4.67951  12
   7  -3  -8 14.1477 2.72997   1
  -7  -3   8 13.2202 2.41000  12
   7  -3  -8 14.8050 3.89639  13
  -7  -3   8 12.5024 2.41486   1
   7   3  -8 26.8385 2.95587   4
   7   3  -8 18.3496 3.10344   1
  -7   3   8 12.9320 2.46344   1
  -7   3   8 12.0939 2.72732   9
  -7   3   8 11.7056 2.04053  12
  -5  -3   8 19.2997 2.71726   1
   5  -3  -8 21.8088 2.41335  14
   5  -3  -8 21.2624 3.58093  13
  -5  -3   8 19.3568 3.66561  10
  -5  -3   8 22.7037 2.77053   6
  -5  -3   8 14.1608 2.33362  12
   5  -3  -8 22.6752 2.94232   1
  -5   3   8 19.6760 2.39543  12
   5   3  -8 23.7824 3.21009   7
   5   3  -8 20.2370 2.60819   4
  -5   3   8 22.5828 4.35230  10
  -5   3   8 25.6723 3.12696   1
   5   3  -8 22.1288 2.76938   1
   5   3  -8 22.3523 2.44590  14
  -5   3   8 28.8843 3.60032   9
  -3  -3   8 11.8786 2.02633  12
   3  -3  -8 9.29029 1.81555  14
   3  -3  -8 14.9871 2.20128   1
  -3  -3   8 10.6381 1.97691   6
   3  -3  -8 20.9287 2.22130   2
  -3  -3   8 10.3592 2.93693  10
   3  -3  -8 12.9162 2.58011  13
  -3   3   8 9.84009 1.96392   6
  -3   3   8 8.46349 1.65459  12
   3   3  -8 14.2384 2.43787   7
   3   3  -8 10.8846 1.98991   4
  -3   3   8 9.84601 2.14684   1
  -3   3   8 11.1836 2.22846   9
   3   3  -8 11.7282 2.09732  14
  -3   3   8 13.6640 3.68382  10
  -1  -3   8 61.0157 3.73829   1
  -1  -3   8 81.4406 4.09913   6
   1  -3  -8 62.2873 3.58195   4
  -1  -3   8 57.6541 5.93423  10
   1  -3  -8 64.2595 3.82447  14
   1  -3  -8 60.8280 4.03067   2
  -1  -3   8 58.0201 3.84977  12
  -1   3   8 62.9687 6.43425  10
  -1   3   8 61.9706 4.07509  12
  -1   3   8 67.4909 4.93635   9
  -1   3   8 60.6180 4.13750   6
   1   3  -8 70.4215 4.22291   7
  -1   3   8 65.8302 4.79359   1
   1   3  -8 61.0158 4.22371   2
   1   3  -8 67.7832 3.82377   4
   1   3  -8 60.3312 4.13388  14
   1  -3   8 12.7266 2.51874  12
  -1  -3  -8 14.1525 2.38358  14
  -1  -3  -8 14.0342 2.64618   2
   1  -3   8 14.2194 4.10595  10
   1  -3   8 16.1348 2.00736   6
   1  -3   8 14.5808 1.86573   1
  -1  -3  -8 16.9330 2.08338   4
  -1  -3  -8 16.9430 2.70557   8
   1  -3   8 12.5286 2.50938   9
   1   3   8 10.1455 3.09762   9
   1   3   8 12.5663 2.45467   6
   1   3   8 10.4462 2.14535   1
  -1   3  -8 17.3707 2.75007  14
  -1   3  -8 17.5264 2.43629   4
  -1   3  -8 15.9945 3.02058   2
   1   3   8 12.4482 2.51815  12
  -3  -3  -8 34.6437 4.32398   8
   3  -3   8 39.6931 2.78882   6
  -3  -3  -8 39.0182 3.77960  14
   3  -3   8 41.0836 4.26147  12
  -3  -3  -8 38.0457 4.10982   2
  -3   3  -8 38.1705 4.29543   2
  -3   3  -8 41.4965 3.45771   4
   3   3   8 47.2897 5.61562   9
   3   3   8 39.0355 4.07545   6
  -3   3  -8 41.0922 3.89916  14
   3   3   8 40.8524 3.72011   1
  -5  -3  -8 7.87053 2.31633   2
  -5  -3  -8 5.27719 2.99158   8
   5  -3   8 6.14473 1.44135   6
   5  -3   8 7.15036 2.57062  12
  -5   3  -8 3.46248 2.24075   2
  -5   3  -8 6.00245 2.63632   8
   5   3   8 10.0169 2.50463   1
   5   3   8 6.47172 2.71704   9
   5   3   8 7.99069 2.53838   6
 -10  -4   8 803.268 21.6019   1
  10  -4  -8 833.007 22.4276   1
 -10  -4   8 781.585 20.3164  12
  10   4  -8 832.542 23.7840   7
 -10   4   8 814.555 20.5678   5
  10   4  -8 810.382 23.0290   1
  -8  -4   8 45.9353 3.77825  12
  -8  -4   8 49.7049 4.36116   1
   8  -4  -8 52.5354 4.91530   1
   8  -4  -8 57.4840 6.68143  13
   8   4  -8 65.5704 5.31172   7
  -8   4   8 50.2776 3.64464  12
  -8   4   8 51.5428 4.90704   9
   8   4  -8 51.3711 4.92270   1
   6  -4  -8 2078.38 42.6638   1
  -6  -4   8 2034.27 40.4269  12
  -6  -4   8 2061.25 42.3599   1
  -6  -4   8 2027.92 40.9102   6
   6  -4  -8 2009.25 39.1346  14
   6  -4  -8 2061.26 46.5150  13
  -6   4   8 2078.53 41.8283   1
   6   4  -8 2023.60 41.3073   1
  -6   4   8 2063.92 39.4872  12
   6   4  -8 2050.84 40.1513   4
   6   4  -8 2062.97 42.7191   7
  -6   4   8 2066.71 42.4974   9
   6   4  -8 1971.20 38.9963  14
  -6   4   8 1987.77 48.4413  10
  -4  -4   8 303.458 10.1052   1
  -4  -4   8 276.934 12.0621  10
  -4  -4   8 294.894 9.18051  12
   4  -4  -8 299.754 11.9827  13
   4  -4  -8 304.694 8.96553  14
  -4  -4   8 321.395 9.80175   6
   4  -4  -8 304.846 10.2929   1
  -4   4   8 313.653 10.7692   9
   4   4  -8 299.644 9.22181  14
   4   4  -8 291.329 9.10498   4
  -4   4   8 294.783 10.1994   1
   4   4  -8 289.484 10.0201   7
  -4   4   8 292.189 13.4291  10
  -4   4   8 298.877 8.77210  12
   2  -4  -8 2022.50 39.1830  14
   2  -4  -8 1963.02 39.7836   1
   2  -4  -8 1928.49 38.8934   2
  -2  -4   8 1967.79 39.5025   1
   2  -4  -8 1996.84 42.0627  13
  -2  -4   8 2019.27 39.3434   6
  -2  -4   8 2020.59 39.5719  12
  -2   4   8 2016.22 39.1095  12
  -2   4   8 1904.09 47.1052  10
   2   4  -8 2010.47 40.1092   7
   2   4  -8 2063.05 40.1016  14
  -2   4   8 1980.70 40.0496   6
  -2   4   8 1979.41 41.1748   1
  -2   4   8 2012.94 41.7851   9
   2   4  -8 1990.54 39.2624   4
   0  -4  -8 127.213 6.30427   8
   0  -4  -8 141.849 5.34368   4
   0  -4   8 141.479 5.42563   1
   0  -4   8 141.869 6.19086  12
   0  -4  -8 136.153 5.88215  14
   0  -4  -8 149.347 6.71209   2
   0  -4   8 145.580 5.66959   6
   0   4   8 145.390 7.27108   1
   0   4  -8 142.564 6.13315   4
   0   4  -8 150.729 6.49151  14
   0   4   8 145.073 6.85836   6
   0   4   8 144.112 7.90006   9
   0   4   8 140.532 6.20792  12
   0   4  -8 145.246 6.39360   7
   0   4  -8 140.667 7.00964   2
  -2  -4  -8 725.612 17.5466  14
  -2  -4  -8 712.317 18.5374   2
   2  -4   8 686.074 15.5613   6
  -2  -4  -8 673.776 18.7070   8
   2  -4   8 707.303 18.1298  12
  -2   4  -8 701.437 17.9705  14
   2   4   8 708.217 21.3221   9
   2   4   8 714.070 19.1817   1
  -2   4  -8 719.850 19.0934   2
  -2   4  -8 689.383 17.0255   4
   2   4   8 698.709 18.9386   6
  -4  -4  -8 20.0190 3.55141   8
  -4  -4  -8 24.8889 3.86881   2
   4  -4   8 24.7127 2.18763   6
  -4  -4  -8 24.8128 3.24470  14
   4  -4   8 20.6789 3.22525  12
   4   4   8 23.1231 4.99001   9
   4   4   8 25.2082 3.87690   6
   4   4   8 21.8604 3.22142   1
  -4   4  -8 19.9296 3.38181   2
  -4   4  -8 25.5008 3.40080  14
 -11  -5   8 207.547 8.91830  12
  11  -5  -8 212.373 9.90169   1
 -11  -5   8 213.967 9.67338   8
  11   5  -8 203.944 10.8408   1
  11   5  -8 212.642 11.2648   7
 -11   5   8 225.215 9.50018   5
  -9  -5   8 89.5984 6.08405   1
  -9  -5   8 79.7083 5.45592  12
   9  -5  -8 79.5822 6.16832   1
   9  -5  -8 67.9088 7.48371  13
   9   5  -8 94.3612 7.18006   7
   9   5  -8 81.8750 6.54790   1
  -9   5   8 99.9558 7.04690   3
  -9   5   8 80.8884 6.31480   9
  -7  -5   8 400.970 13.3726   1
   7  -5  -8 415.486 13.6115   1
   7  -5  -8 393.241 16.4564  13
  -7  -5   8 384.148 11.4618  12
   7   5  -8 398.437 13.5976   7
  -7   5   8 404.763 10.7586  12
  -7   5   8 379.980 12.1159   1
   7   5  -8 413.392 11.5033   4
   7   5  -8 400.157 12.8978   1
  -7   5   8 377.717 13.0392   9
   5  -5  -8 147.827 8.84076  13
   5  -5  -8 149.130 7.42252   1
   5  -5  -8 147.845 5.83792  14
  -5  -5   8 149.591 7.22501   1
  -5  -5   8 144.445 6.60316   6
  -5  -5   8 142.306 6.08794  12
   5   5  -8 154.939 7.24038   7
  -5   5   8 155.303 7.19670   1
  -5   5   8 147.349 9.41512  10
   5   5  -8 147.524 6.35697   4
  -5   5   8 150.862 7.28051   9
  -5   5   8 144.893 5.56897  12
   5   5  -8 139.387 5.91356  14
   3  -5  -8 109.394 5.74482   1
   3  -5  -8 100.051 5.09616  14
  -3  -5   8 104.334 5.33282   1
   3  -5  -8 98.0232 6.58071  13
  -3  -5   8 110.260 5.46819   6
  -3  -5   8 108.524 5.28095  12
   3   5  -8 100.245 5.30985  14
  -3   5   8 113.351 6.14369   1
  -3   5   8 105.633 6.36848   9
   3   5  -8 106.608 5.98138   7
  -3   5   8 102.668 4.77791  12
  -3   5   8 96.0380 7.74281  10
   3   5  -8 106.899 5.17856   4
  -1  -5   8 196.387 7.06399   1
  -1  -5   8 203.658 7.35354   6
  -1  -5   8 205.753 7.66884  12
   1  -5  -8 208.548 7.81123   2
   1  -5  -8 204.733 7.03597   4
   1  -5  -8 208.057 7.49620  14
  -1   5   8 210.617 7.63133  12
   1   5  -8 208.393 8.16149   7
   1   5  -8 202.507 7.70616   4
  -1   5   8 203.917 8.22700   6
   1   5  -8 213.907 8.15715  14
  -1   5   8 219.298 9.24656   1
  -1   5   8 219.208 9.31516   9
  -1  -5  -8 5.38785 2.05330   8
   1  -5   8 5.20294 1.53869   6
  -1  -5  -8 4.83864 1.93024  14
  -1  -5  -8 4.79846 2.08593   2
   1  -5   8 6.43432 2.01770  12
   1   5   8 5.01632 2.86087   9
   1   5   8 5.68879 2.46513   1
  -1   5  -8 5.37275 2.14239  14
   1   5   8 5.11496 2.00965  12
  -1   5  -8 6.42602 2.37807   2
   1   5   8 7.29035 2.37364   6
  -1   5  -8 6.32856 2.12133   4
  -1   5  -8 7.56279 2.12774   7
  -3  -5  -8 46.3954 4.91892   2
  -3  -5  -8 49.6699 5.32810   8
  -3  -5  -8 46.9630 3.79504  14
   3  -5   8 45.7255 2.88244   6
   3  -5   8 50.1554 4.44536  12
   3   5   8 49.2793 6.53367   9
  -3   5  -8 47.2771 4.51978  14
   3   5   8 46.5639 4.78110   1
  -3   5  -8 44.4049 3.98243   4
  -3   5  -8 51.5459 5.16361   2
   3   5   8 52.4873 5.05545   6
 -10  -6   8 55.5848 5.07152  12
 -10  -6   8 64.1529 5.68730   8
  10  -6  -8 64.8650 5.95399   1
 -10  -6   8 56.2781 5.53121   1
 -10   6   8 50.3380 7.01727   3
  10   6  -8 59.2706 5.58169   1
  10   6  -8 63.0739 6.60745   7
 -10   6   8 60.9824 4.84284   5
   8  -6  -8 953.266 30.3535  13
  -8  -6   8 1008.54 25.3105   1
  -8  -6   8 937.732 22.6934  12
   8  -6  -8 974.999 25.1523   1
   8   6  -8 971.253 25.7158   7
  -8   6   8 1006.06 25.3483   9
   8   6  -8 982.058 24.9204   1
   6  -6  -8 6.88734 2.15553   1
   6  -6  -8 9.10234 1.96460  14
  -6  -6   8 11.8678 2.32824  12
  -6  -6   8 9.82150 2.36232   6
  -6  -6   8 8.58421 2.62090   1
   6  -6  -8 13.6994 3.94163  13
   6   6  -8 9.69464 2.22976   4
  -6   6   8 13.0441 2.66300   1
  -6   6   8 11.8667 2.34783   3
   6   6  -8 14.0677 2.78627   7
  -6   6   8 9.87843 2.76284   9
  -4  -6   8 1080.65 25.1091   1
   4  -6  -8 1095.63 25.7926   1
   4  -6  -8 1075.85 27.9894  13
  -4  -6   8 1061.50 24.4345   6
  -4  -6   8 1034.60 23.1821  12
   4  -6  -8 1076.56 23.5097  14
   4   6  -8 1089.81 25.6409   7
   4   6  -8 1070.97 24.0666  14
   4   6  -8 1061.77 23.9693   4
  -4   6   8 1128.79 25.8715   1
  -4   6   8 1087.44 26.0753   9
  -4   6   8 955.308 23.8912  12
  -2  -6   8 15.5706 2.42862   6
  -2  -6   8 13.7182 2.39385  12
  -2  -6   8 13.4658 2.24773   1
   2  -6  -8 8.05583 2.22121   1
   2  -6  -8 9.60335 1.84224   2
   2  -6  -8 10.2580 2.27664  14
  -2   6   8 19.2678 3.36742   1
  -2   6   8 10.6892 1.99730  12
   2   6  -8 8.92718 2.31922   4
   2   6  -8 13.8844 2.46280  14
  -2   6   8 8.25933 2.76343   9
   2   6  -8 11.9601 2.77301   7
   0  -6  -8 1080.23 24.0360  14
   0  -6   8 1022.30 22.5211   1
   0  -6  -8 1044.30 22.4933   4
   0  -6  -8 1101.71 24.6917   2
   0  -6  -8 1005.17 23.7905   8
   0  -6   8 1073.08 23.0016   6
   0   6   8 1093.24 26.8570   1
   0   6   8 1069.78 27.1777   9
   0   6   8 1081.63 23.8592  12
   0   6  -8 1083.45 25.3584   7
   0   6  -8 1091.77 25.1855  14
   0   6   8 1033.21 25.3428   6
   0   6  -8 1087.57 24.3977   4
  -2  -6  -8 54.2173 4.86024   8
  -2  -6  -8 57.8181 5.05408   2
   2  -6   8 65.0394 3.54609   6
  -2  -6  -8 67.1836 4.75991  14
   2   6   8 58.1433 5.15785   1
   2   6   8 62.9379 6.99414   9
   2   6   8 56.5800 4.87260   6
  -2   6  -8 59.8002 4.31761   4
  -2   6  -8 58.3213 4.87481   7
  -2   6  -8 56.5022 4.83335  14
   2   6   8 67.4553 4.94091  12
  -4  -6  -8 694.107 19.8188   8
  -4  -6  -8 680.202 19.1228   2
  -4  -6  -8 670.329 17.4660  14
   4  -6   8 688.247 14.4828   6
   4   6   8 713.063 23.0615   9
  -4   6  -8 668.720 17.9941  14
   4   6   8 684.064 20.0303   1
  -9  -7   8 5.60993 2.90948   1
  -9  -7   8 5.87234 2.34953  12
   9  -7  -8 4.32023 2.67756   1
  -9   7   8 6.78370 2.28148   3
  -9   7   8 7.99199 2.64951   5
   9   7  -8 6.34473 3.10832   7
   7  -7  -8 42.8584 6.54729  13
  -7  -7   8 50.0951 4.85462   1
   7  -7  -8 51.7186 5.27537   1
  -7  -7   8 51.3285 4.08270  12
  -7   7   8 45.5359 4.59313   9
  -7   7   8 45.6618 4.38177   3
   7   7  -8 53.5683 5.53224   7
   5  -7  -8 8.39132 2.38579   1
   5  -7  -8 11.2265 3.18967  13
  -5  -7   8 6.99231 2.24313   6
  -5  -7   8 9.05799 2.62387   1
   5  -7  -8 5.26245 1.95103  14
  -5  -7   8 8.84805 2.05744  12
   5   7  -8 10.0565 2.38403   4
   5   7  -8 8.47040 2.73706   7
  -5   7   8 17.7743 3.28185   1
  -5   7   8 7.31544 2.69574   9
  -5   7   8 6.79829 2.00700   3
  -3  -7   8 33.2755 3.68388   6
   3  -7  -8 29.1365 3.37964  14
  -3  -7   8 31.0452 3.61571   1
   3  -7  -8 27.7612 4.15030  13
   3  -7  -8 31.3760 4.01635   1
   3   7  -8 27.7579 3.95762   7
   3   7  -8 35.1160 3.78164  14
  -3   7   8 30.1987 3.57908   3
  -3   7   8 31.7008 3.89713   1
   3   7  -8 24.7338 3.38676   4
  -3   7   8 33.4028 4.17766   9
   1  -7  -8 138.485 6.42302   2
   1  -7  -8 128.998 6.34208  14
  -1  -7   8 128.630 5.81503   1
  -1  -7   8 134.444 6.08634   6
   1   7  -8 126.088 7.22971   7
   1   7  -8 135.283 7.17011  14
   1   7  -8 135.015 6.74870   4
  -1   7   8 118.137 7.36237   9
  -1   7   8 122.354 7.61181   1
  -1  -7  -8 12.7712 2.71984  14
   1  -7   8 14.1600 2.25538   6
  -1  -7  -8 12.9116 2.85349   2
   1   7   8 13.6403 3.37678   1
  -1   7  -8 11.0665 2.90145   7
  -1   7  -8 21.8186 3.59636  14
   1   7   8 17.7062 4.10332   9
  -1   7  -8 13.2935 2.52019   4
   1   7   8 13.7468 2.33825  12
  -3  -7  -8 98.5820 6.58651   2
  -3  -7  -8 92.3271 6.40467   8
   3  -7   8 96.2475 4.14922   6
  -3  -7  -8 94.3223 5.85111  14
   3   7   8 100.793 8.53340   9
   3   7   8 101.714 7.34551   1
  -3   7  -8 101.509 6.35541  14
   3   7   8 100.198 6.24124  12
  -3   7  -8 109.160 6.23682   4
  -8  -8   8 507.720 16.9112   1
   8  -8  -8 515.763 16.9045   1
   8   8  -8 503.022 17.2349   7
  -8   8   8 531.326 16.9268   9
   6  -8  -8 207.819 12.1751  13
   6  -8  -8 177.486 8.80512  14
  -6  -8   8 219.991 10.0653   1
   6  -8  -8 237.583 10.6430   1
  -6   8   8 205.583 8.63580   3
   6   8  -8 208.353 8.29412   4
   6   8  -8 235.559 10.4868   7
  -6   8   8 217.038 9.94161   9
   4  -8  -8 829.520 20.0276  14
   4  -8  -8 854.730 22.4937   1
  -4  -8   8 829.000 21.0609   6
   4  -8  -8 810.016 24.2270  13
  -4  -8   8 830.743 21.5833   1
  -4   8   8 799.594 21.4552   1
   4   8  -8 803.352 21.9760   7
   4   8  -8 819.075 20.4523   4
  -4   8   8 807.596 21.9521   9
  -4   8   8 792.733 20.3871   3
  -2  -8   8 290.622 10.3415   6
  -2  -8   8 342.514 10.7216   1
   2  -8  -8 285.389 11.1820   1
   2  -8  -8 283.503 10.1016  14
  -2   8   8 288.831 11.9613   1
   2   8  -8 290.021 11.6445   7
   2   8  -8 284.189 10.3487   4
  -2   8   8 289.098 11.8469   9
  -2   8   8 289.376 10.5493   3
   0  -8   8 495.092 13.5332   6
   0  -8  -8 489.879 14.3886  14
   0  -8  -8 507.201 14.6117   2
   0   8  -8 519.230 15.0910   4
   0   8   8 520.495 17.4005   9
   0   8   8 496.530 16.7036   1
   0   8  -8 494.473 15.9147   7
   0   8  -8 488.863 15.2855  14
  -2  -8  -8 136.358 6.97219  14
  -2  -8  -8 137.478 7.50511   2
   2  -8   8 126.203 5.34178   6
   2   8   8 135.637 8.77202   9
   2   8   8 144.631 8.87700   1
  -2   8  -8 127.668 7.00282   4
  -2   8  -8 124.392 7.68886   7
  -7  -9   8 -1.1496 2.25649   1
   7  -9  -8 5.82822 2.92395   1
   7   9  -8 0.88365 2.67566   7
  -7   9   8 2.76886 2.50070   9
  -7   9   8 0.79570 2.09449   3
  -5  -9   8 27.4556 4.13736   1
  -5  -9   8 31.3952 4.12482   6
   5  -9  -8 27.4376 3.60571  14
   5  -9  -8 32.6429 4.79806   1
   5   9  -8 31.7000 4.59633   7
  -5   9   8 28.4554 4.18691   9
   5   9  -8 33.7318 4.07921   4
  -5   9   8 28.9526 4.06738   3
  -3  -9   8 32.8417 4.06033   6
   3  -9  -8 24.2777 3.60824  14
   3  -9  -8 29.7369 4.14698   1
  -3  -9   8 32.6729 3.87844   1
  -3   9   8 29.8213 4.40484   9
  -3   9   8 26.9246 3.92426   3
   3   9  -8 32.9929 4.80876   7
   3   9  -8 29.4503 4.05810   4
  -1  -9   8 12.6825 2.65770   6
  -1  -9   8 17.7121 2.72383   1
   1  -9  -8 16.9998 2.88017  14
  -1   9   8 15.4902 3.69669   9
  -1   9   8 13.2242 3.09765   1
  -1   9   8 14.8584 3.25365   3
   1   9  -8 13.7493 3.07811   4
   1   9  -8 11.9894 3.46772   7
  -1  -9  -8 63.8517 4.87766   2
   1  -9   8 65.9193 4.28716   6
  -1  -9  -8 60.8808 5.13973  14
  -1   9  -8 66.5876 5.76233   7
  -1   9  -8 64.4976 5.43976   4
   1   9   8 54.1481 6.30693   9
   1   9   8 68.2713 6.64312   1
  -6 -10   8 502.849 16.9659   1
   6 -10  -8 508.794 17.1282   1
  -6  10   8 482.190 15.4700   3
  -6  10   8 476.352 16.0561   9
   6  10  -8 500.306 17.1936   7
   4 -10  -8 13.1546 3.00445  14
   4 -10  -8 16.5469 3.51391   1
  -4 -10   8 18.4943 3.48464   6
  -4 -10   8 20.9869 3.61674   1
   4  10  -8 18.8889 3.17164   4
   4  10  -8 23.8623 4.37330   7
  -4  10   8 13.2271 3.26438   9
  -4  10   8 14.6921 3.18581   3
   2 -10  -8 558.982 17.8953   1
  -2 -10   8 571.893 16.2214   1
   2 -10  -8 570.492 16.3369  14
  -2 -10   8 558.632 16.5633   6
  -2  10   8 554.535 17.2086   3
   2  10  -8 585.842 17.0361   4
   2  10  -8 560.211 18.3929   7
  -2  10   8 554.776 17.8288   9
  -2  10   8 552.118 17.9338   1
   0 -10   8 14.2726 2.81035   6
   0 -10  -8 8.19713 2.28131  14
   0  10   8 15.0611 3.57347   3
   0  10   8 10.4305 3.42303   9
   0  10   8 11.3985 3.47635   1
   0  10  -8 14.0370 3.24756   4
   0  10  -8 11.3732 3.49172   7
  -3 -11   8 34.7945 4.18637   1
  -3 -11   8 31.8991 4.07802   6
   3 -11  -8 41.7285 5.07593   1
   3 -11  -8 37.7219 4.22908  14
   3  11  -8 34.3387 4.83199   7
   3  11  -8 40.2959 4.60309   4
  -3  11   8 31.7038 4.13270   3
 -12   0   9 -1.1790 1.90570   5
 -12   0   9 0.52332 1.95037  12
  12   0  -9 0.48223 2.60801   1
  10   0  -9 -1.3278 2.51421  13
 -10   0   9 2.11407 1.95696  12
  10   0  -9 3.41125 2.73592   1
   8   0  -9 -0.2928 1.26443   1
  -8   0   9 2.03360 1.86462   9
   8   0  -9 0.50463 1.17485   4
  -8   0   9 1.05877 1.62583  12
  -8   0   9 0.26851 1.60352   1
   8   0  -9 7.12568 3.16611  13
  -6   0   9 0.99784 1.59705   1
  -6   0   9 0.72144 2.45284  10
   6   0  -9 -0.3259 0.92635   4
  -6   0   9 0.75056 1.39403  12
   6   0  -9 0.35586 1.02895   1
   6   0  -9 5.99019 2.36282  13
   6   0  -9 0.17601 0.66184  14
   4   0  -9 0.24111 1.27838   4
  -4   0   9 0.78883 1.49756   1
   4   0  -9 6.31243 1.88148   7
  -4   0   9 2.58420 1.64998  12
   4   0  -9 0.96312 1.25557  14
  -4   0   9 0.93067 1.48424   9
  -4   0   9 -0.0306 1.21068   6
  -4   0   9 3.07311 2.50829  10
   4   0  -9 8.64922 1.63702   2
  -2   0   9 -0.0739 1.44650  12
   2   0  -9 -0.4540 0.90867   7
  -2   0   9 0.62503 1.26629   6
  -2   0   9 -0.3964 0.84719   1
   2   0  -9 1.04467 1.07043   2
   2   0  -9 6.81926 1.89978  14
  -2   0   9 1.08216 1.76562  10
  -2   0   9 0.47901 1.57118   9
   2   0  -9 0.92547 1.21887   4
   0   0  -9 1.37857 1.53984  14
   0   0   9 -0.2664 1.19453   6
   0   0  -9 2.78770 1.90546   2
   0   0   9 -0.6581 1.73771   9
   0   0   9 0.94073 1.30210   1
   0   0   9 -0.1691 1.15818  12
   0   0  -9 -0.0881 1.23949   4
  -2   0  -9 0.01934 1.13214  14
   2   0   9 -1.0907 1.02778   1
   2   0   9 1.58379 2.33916   9
   2   0   9 11.6409 2.94969  12
  -2   0  -9 1.41541 1.43256   2
   2   0   9 -1.1024 1.20677   6
  -2   0  -9 -1.6325 1.91661   8
   4   0   9 -1.1457 2.53613   9
  -4   0  -9 2.49909 1.43422  14
  -4   0  -9 -0.8078 1.92852   2
   4   0   9 0.71926 1.63705   6
  -4   0  -9 0.73710 2.34977   8
 -11  -1   9 275.023 10.0509   8
 -11  -1   9 246.519 9.79530  12
  11  -1  -9 259.697 11.6798   1
  11   1  -9 250.411 11.5977   1
 -11   1   9 245.059 9.70475   5
 -11   1   9 250.358 9.61178  12
  -9  -1   9 470.767 13.5868  12
   9  -1  -9 456.584 18.7574  13
  -9  -1   9 442.032 14.2459   1
   9  -1  -9 466.197 13.1303   4
   9  -1  -9 493.590 15.6596   1
   9   1  -9 459.997 12.7714   4
   9   1  -9 458.500 15.3487   1
   9   1  -9 444.700 18.2787  13
  -9   1   9 459.146 13.1174  12
  -9   1   9 469.112 14.1967   1
  -9   1   9 446.102 14.7247   9
  -7  -1   9 466.944 14.3394   1
  -7  -1   9 453.805 13.5271   9
   7  -1  -9 462.569 17.3972  13
   7  -1  -9 469.451 13.0201   4
  -7  -1   9 476.566 13.0793  12
   7  -1  -9 475.016 14.4096   1
  -7   1   9 467.756 12.8679  12
   7   1  -9 487.581 14.4314   1
  -7   1   9 487.809 14.3939   9
   7   1  -9 469.472 12.8387   4
   7   1  -9 468.839 17.4847  13
  -7   1   9 489.855 14.4928   1
  -5  -1   9 760.606 18.3582   9
  -5  -1   9 755.331 18.1026   6
   5  -1  -9 737.472 21.6059  13
  -5  -1   9 758.271 17.8992  12
   5  -1  -9 758.200 17.5237   4
  -5  -1   9 704.477 23.3823  10
  -5  -1   9 739.448 19.1132   1
   5  -1  -9 721.999 18.2456   1
   5  -1  -9 720.012 16.4175   2
   5  -1  -9 755.418 17.1513  14
  -5   1   9 713.170 23.9925  10
  -5   1   9 745.627 18.0958   6
   5   1  -9 757.076 17.1628  14
  -5   1   9 779.652 17.9291  12
  -5   1   9 735.084 19.1258   1
  -5   1   9 761.313 19.1025   9
   5   1  -9 683.339 17.8708   1
   5   1  -9 759.405 17.5194   4
  -3  -1   9 609.142 15.5793  12
  -3  -1   9 582.129 20.9580  10
  -3  -1   9 622.546 15.6264   6
   3  -1  -9 586.715 14.7992   2
   3  -1  -9 630.150 14.8071   4
   3  -1  -9 631.673 15.2270  14
  -3  -1   9 605.530 15.8777   9
  -3  -1   9 589.378 16.0355   1
   3  -1  -9 595.534 14.6058   7
  -3   1   9 587.997 16.2824   9
  -3   1   9 608.422 15.4199  12
   3   1  -9 583.739 15.1761   2
   3   1  -9 613.321 15.2256   7
  -3   1   9 618.591 15.7122   6
  -3   1   9 591.500 16.2117   1
   3   1  -9 602.152 15.0730  14
  -3   1   9 571.687 21.1407  10
   3   1  -9 601.631 14.7161   4
   1  -1  -9 491.022 12.4130   4
  -1  -1   9 471.985 13.0712   6
  -1  -1   9 478.403 14.2698   9
  -1  -1   9 493.324 13.4475   1
   1  -1  -9 496.962 13.7304   2
   1  -1  -9 481.397 13.0045  14
  -1  -1   9 479.071 13.7563  12
  -1  -1   9 428.618 21.5669  10
   1   1  -9 473.451 13.1679  14
  -1   1   9 477.214 14.9738   9
  -1   1   9 483.700 13.8363   1
   1   1  -9 483.381 12.4936   4
  -1   1   9 484.267 13.4990   6
   1   1  -9 497.031 14.0109   2
  -1   1   9 478.340 13.6531  12
   1  -1   9 440.008 14.7658   9
  -1  -1  -9 447.489 14.4940   8
  -1  -1  -9 454.969 13.7090   2
  -1  -1  -9 458.322 12.9641  14
   1  -1   9 446.703 12.2557   1
   1  -1   9 454.226 12.7496   6
   1  -1   9 455.910 13.8532  12
  -1  -1  -9 452.515 11.8695   4
  -1   1  -9 473.031 12.3465   4
   1   1   9 450.554 13.2873   1
   1   1   9 463.325 15.6503   9
  -1   1  -9 479.386 14.2951   2
  -1   1  -9 461.072 13.1577  14
   1   1   9 472.499 13.5361   6
   1   1   9 487.496 14.3699  12
  -3  -1  -9 193.703 9.47592   8
   3  -1   9 176.371 9.58344   9
   3  -1   9 183.636 8.67857  12
  -3  -1  -9 185.746 8.31701   2
  -3  -1  -9 194.299 7.88482  14
   3  -1   9 190.857 7.37208   6
  -3   1  -9 173.983 8.42593   2
   3   1   9 152.150 7.98691   1
   3   1   9 185.065 10.2607   9
  -3   1  -9 178.697 7.80112  14
   3   1   9 189.426 7.97932   6
  -3   1  -9 182.101 9.28920   8
   3   1   9 182.487 8.73609  12
  12  -2  -9 104.909 7.51091   1
 -12  -2   9 102.402 6.49629   8
 -12  -2   9 96.1981 6.04838  12
 -12  -2   9 98.3869 5.97618   5
  12   2  -9 91.7002 7.12486   1
 -12   2   9 100.403 6.59412   5
 -12   2   9 99.8875 6.14881  12
  10  -2  -9 84.8440 5.43353   4
 -10  -2   9 94.3685 5.95269  12
  10  -2  -9 112.869 7.56967   1
 -10  -2   9 94.6407 6.06120   1
 -10   2   9 87.9354 5.38499  12
  10   2  -9 96.0937 7.24944   1
   8  -2  -9 151.648 6.94310   4
  -8  -2   9 168.759 7.35073  12
  -8  -2   9 165.162 7.80241   1
   8  -2  -9 157.083 10.0324  13
   8  -2  -9 172.190 8.44619   1
  -8   2   9 158.513 7.45304   1
  -8   2   9 160.591 8.03119   9
   8   2  -9 159.441 6.71623   4
  -8   2   9 169.376 6.94174  12
   8   2  -9 172.856 8.27522   1
   6  -2  -9 198.081 10.3715  13
   6  -2  -9 214.971 7.02209  14
  -6  -2   9 212.672 7.91828  12
  -6  -2   9 224.525 9.00048   1
   6  -2  -9 215.767 8.79647   1
  -6  -2   9 207.926 8.00065   6
  -6  -2   9 199.092 7.69638   9
   6  -2  -9 201.941 7.66475   4
  -6  -2   9 188.200 11.0920  10
  -6   2   9 202.273 7.44419  12
  -6   2   9 199.220 8.47962   9
   6   2  -9 192.924 6.71055  14
   6   2  -9 211.885 7.62795   4
   6   2  -9 213.337 8.88317   7
   6   2  -9 207.889 8.07268   1
  -6   2   9 216.187 8.80127   1
   4  -2  -9 156.276 6.59188   1
  -4  -2   9 158.757 6.57768   9
  -4  -2   9 158.156 9.82783  10
   4  -2  -9 158.625 5.92803   2
  -4  -2   9 160.742 7.22688   1
   4  -2  -9 159.680 6.35603  14
  -4  -2   9 169.408 6.79030  12
   4  -2  -9 173.105 9.11161  13
   4  -2  -9 169.129 6.58577   4
  -4  -2   9 157.891 6.74277   6
   4   2  -9 155.567 6.49745  14
  -4   2   9 178.629 7.10383   6
  -4   2   9 161.146 7.65289   9
   4   2  -9 163.719 7.11599   7
  -4   2   9 159.673 7.33825   1
  -4   2   9 168.980 6.62269  12
  -4   2   9 155.884 10.3032  10
   4   2  -9 166.515 6.51205   4
  -2  -2   9 233.147 8.28406   6
   2  -2  -9 243.124 8.35596   2
   2  -2  -9 238.959 7.75039   4
  -2  -2   9 235.698 8.52795   1
  -2  -2   9 251.283 8.90935  12
  -2  -2   9 240.409 8.70753   9
   2  -2  -9 225.720 8.03825  14
  -2  -2   9 232.021 12.6188  10
  -2   2   9 232.925 9.68231   9
  -2   2   9 231.048 8.45241  12
   2   2  -9 245.507 8.83260   2
  -2   2   9 235.286 8.68040   6
   2   2  -9 235.451 7.83494   4
   2   2  -9 232.569 8.04888   7
   2   2  -9 227.622 8.30627  14
  -2   2   9 246.309 9.25786   1
   0  -2  -9 162.837 6.11418   4
   0  -2   9 166.026 7.40436  12
   0  -2  -9 159.767 7.36814   2
   0  -2   9 171.507 6.79946   6
   0  -2  -9 164.831 6.95996  14
   0  -2   9 155.363 7.51327   9
   0  -2   9 169.608 6.64324   1
   0  -2  -9 164.255 7.79965   8
   0   2   9 162.490 7.46993  12
   0   2   9 166.713 7.44945   1
   0   2   9 156.509 8.22414   9
   0   2  -9 165.781 7.11386  14
   0   2  -9 162.645 6.53007   4
   0   2   9 162.601 7.34029   6
   0   2  -9 174.558 7.98365   2
   2  -2   9 121.933 6.91486  12
  -2  -2  -9 131.474 7.54770   8
   2  -2   9 126.939 5.61218   6
   2  -2   9 115.054 7.25082   9
  -2  -2  -9 122.219 6.23113  14
  -2  -2  -9 124.283 6.63468   2
   2   2   9 127.298 6.79663   6
  -2   2  -9 124.819 5.78967   4
  -2   2  -9 116.558 6.28625  14
  -2   2  -9 125.248 7.06881   2
   2   2   9 127.774 8.57483   9
   2   2   9 115.072 6.28815   1
   2   2   9 110.458 6.47037  12
   4  -2   9 112.896 5.23743   6
  -4  -2  -9 106.852 7.44023   8
  -4  -2  -9 114.493 6.08432  14
   4  -2   9 103.957 6.40602  12
   4  -2   9 115.339 7.98872   9
  -4  -2  -9 112.176 6.61028   2
   4   2   9 118.191 8.88248   9
  -4   2  -9 103.572 5.66730  14
  -4   2  -9 109.177 6.53930   2
   4   2   9 119.543 6.67741   6
  11  -3  -9 29.7291 4.69117   1
 -11  -3   9 28.9926 4.10293  12
 -11  -3   9 25.5939 3.95328   8
  11   3  -9 22.8942 4.33710   1
 -11   3   9 22.4368 3.17387  12
  -9  -3   9 978.083 23.2414  12
   9  -3  -9 997.968 25.4627   1
   9  -3  -9 941.083 29.9713  13
  -9  -3   9 953.172 24.4934   1
  -9   3   9 989.976 22.3531  12
   9   3  -9 956.511 25.1184   1
  -9   3   9 968.727 24.9144   9
  -7  -3   9 27.5939 3.35739  12
  -7  -3   9 19.7373 3.33392   1
   7  -3  -9 19.9984 3.29460   1
   7  -3  -9 22.6582 4.50013  13
   7   3  -9 22.4646 3.20498   1
  -7   3   9 18.6751 2.44816  12
  -7   3   9 20.0721 3.51373   9
  -7   3   9 19.3382 2.85683   1
   7   3  -9 20.2282 3.60983   7
   7   3  -9 19.2345 2.71430   4
  -5  -3   9 1460.25 30.6779  12
   5  -3  -9 1451.84 29.8220  14
  -5  -3   9 1329.35 36.3868  10
  -5  -3   9 1452.92 31.1438   6
   5  -3  -9 1451.79 35.3209  13
   5  -3  -9 1454.78 31.9200   1
  -5  -3   9 1464.56 32.1607   1
  -5   3   9 1513.09 32.5927   1
   5   3  -9 1480.62 32.1061   7
   5   3  -9 1441.88 30.1564   4
  -5   3   9 1491.08 32.6699   9
   5   3  -9 1443.85 30.0622  14
  -5   3   9 1505.95 30.3673  12
   3  -3  -9 83.9492 6.12949  13
   3  -3  -9 96.4919 4.93072   4
   3  -3  -9 87.6785 4.58817  14
  -3  -3   9 77.9924 4.76351   6
   3  -3  -9 76.0861 4.28818   2
  -3  -3   9 85.5930 4.86418  12
  -3  -3   9 90.2484 5.22397   1
  -3   3   9 86.3631 5.92123   9
  -3   3   9 81.9089 5.46805   1
   3   3  -9 80.7458 4.71009   4
   3   3  -9 77.7694 4.96908   7
  -3   3   9 89.2750 4.92550  12
   3   3  -9 81.6772 4.86589  14
  -3   3   9 77.1860 4.92971   6
   1  -3  -9 1256.15 27.4446  14
  -1  -3   9 1276.25 27.4721   1
   1  -3  -9 1291.96 26.6560   4
  -1  -3   9 1270.65 27.4017   6
   1  -3  -9 1277.88 28.1493   2
  -1  -3   9 1258.59 28.2464  12
  -1   3   9 1319.56 29.0026   6
  -1   3   9 1272.12 30.4742   9
   1   3  -9 1284.28 29.1341   2
   1   3  -9 1293.06 28.1364  14
  -1   3   9 1334.60 28.5148  12
   1   3  -9 1276.02 27.5290   7
   1   3  -9 1295.52 27.3701   4
  -1   3   9 1321.74 29.6748   1
  -1  -3  -9 128.136 6.31209  14
  -1  -3  -9 144.674 7.20037   2
  -1  -3  -9 137.137 7.44320   8
   1  -3   9 140.235 7.22743  12
   1  -3   9 133.325 5.87187   6
   1   3   9 132.590 7.05196  12
  -1   3  -9 126.714 6.01200   4
   1   3   9 151.369 7.42452   6
   1   3   9 116.262 8.11030   9
   1   3   9 123.027 6.75388   1
  -1   3  -9 124.294 6.26468  14
  -1   3  -9 134.285 7.31238   2
  -3  -3  -9 571.965 15.4792  14
   3  -3   9 553.320 13.8393   6
   3  -3   9 546.674 16.2488  12
  -3  -3  -9 551.352 16.5674   2
  -3  -3  -9 563.700 17.4339   8
   3   3   9 581.433 16.8348   6
  -3   3  -9 552.132 16.5566   2
  -3   3  -9 563.163 15.7219  14
   3   3   9 558.523 16.1774   1
   3   3   9 565.275 19.8299   9
 -10  -4   9 105.443 7.13821   1
  10  -4  -9 113.495 7.26101   1
 -10  -4   9 112.609 6.30967  12
 -10   4   9 114.554 5.67123  12
  10   4  -9 119.907 7.64863   1
  10   4  -9 108.283 8.08841   7
  -8  -4   9 275.391 11.0440   1
   8  -4  -9 253.218 13.6743  13
   8  -4  -9 250.812 10.7290   1
  -8  -4   9 246.557 9.27761  12
  -8   4   9 261.585 10.1408   1
   8   4  -9 259.066 10.5384   1
   8   4  -9 246.928 10.9553   7
  -8   4   9 251.843 10.5056   9
  -8   4   9 248.264 8.44402  12
   8   4  -9 238.347 8.41685   4
   6  -4  -9 332.908 14.3981  13
   6  -4  -9 341.369 11.8724   1
  -6  -4   9 325.554 10.8279   6
  -6  -4   9 339.874 11.8260   1
   6  -4  -9 319.931 9.62142  14
  -6  -4   9 317.719 10.3546  12
  -6   4   9 331.692 11.5335   1
   6   4  -9 328.098 9.66655  14
   6   4  -9 314.611 11.4797   7
  -6   4   9 326.938 9.88477  12
   6   4  -9 330.835 10.1975   4
  -6   4   9 306.631 11.4570   9
   4  -4  -9 209.639 7.62248  14
   4  -4  -9 194.210 9.89384  13
  -4  -4   9 199.664 7.68925  12
   4  -4  -9 201.431 8.32154   1
  -4  -4   9 211.573 8.19775   6
  -4  -4   9 204.628 8.27145   1
   4   4  -9 207.565 7.63422   4
  -4   4   9 210.319 7.54713  12
   4   4  -9 211.649 7.84048  14
  -4   4   9 217.726 9.45880   9
   4   4  -9 210.219 8.60523   7
  -4   4   9 219.314 9.07925   1
  -2  -4   9 310.382 10.0618   1
   2  -4  -9 310.572 9.37474   4
  -2  -4   9 315.499 10.3491  12
   2  -4  -9 306.324 9.78386  14
  -2  -4   9 326.878 10.2244   6
   2  -4  -9 300.958 9.78325   2
   2  -4  -9 270.043 13.3797  13
  -2   4   9 328.465 12.2369   9
  -2   4   9 309.510 11.3512   1
   2   4  -9 318.778 10.5746  14
   2   4  -9 303.040 10.3771   7
  -2   4   9 316.789 10.7467   6
   2   4  -9 325.576 10.1888   4
  -2   4   9 318.194 10.1289  12
   0  -4  -9 132.067 6.67181   8
   0  -4  -9 124.970 5.35992   4
   0  -4  -9 136.314 6.58548   2
   0  -4   9 129.138 5.78753   6
   0  -4  -9 126.884 6.01388  14
   0  -4   9 128.131 6.64597  12
   0  -4   9 126.765 5.40960   1
   0   4   9 127.420 8.25773   9
   0   4   9 130.909 6.63833  12
   0   4   9 118.678 6.75724   6
   0   4  -9 130.725 6.92949   2
   0   4   9 131.003 7.37897   1
   0   4  -9 123.831 6.13434   7
   0   4  -9 131.523 6.01153   4
   0   4  -9 131.561 6.67220  14
  -2  -4  -9 83.8966 6.23446   8
   2  -4   9 84.9890 5.85025  12
   2  -4   9 81.6825 4.39809   6
  -2  -4  -9 84.3324 5.57985   2
  -2  -4  -9 87.6551 5.46338  14
   2   4   9 81.7015 5.93804   1
   2   4   9 88.4951 6.11309  12
   2   4   9 88.3862 7.71616   9
  -2   4  -9 80.2815 5.07168  14
  -2   4  -9 85.1781 5.12740   4
   2   4   9 87.2875 6.19002   6
  -2   4  -9 84.2132 6.16013   2
   4  -4   9 55.8440 4.61948  12
  -4  -4  -9 54.9893 5.73942   8
  -4  -4  -9 49.9422 4.68466   2
  -4  -4  -9 52.5848 4.50480  14
   4  -4   9 52.9922 3.27131   6
  -4   4  -9 56.6735 4.84611   2
  -4   4  -9 55.1515 4.68235  14
   4   4   9 53.7667 4.88891   1
   4   4   9 44.5068 6.31966   9
   4   4   9 55.1873 5.33338   6
 -11  -5   9 261.530 10.6225  12
  11  -5  -9 277.765 11.9058   1
 -11  -5   9 234.809 10.1385   8
  11   5  -9 249.392 11.7384   1
 -11   5   9 261.714 10.5005   5
  11   5  -9 251.303 12.5129   7
  -9  -5   9 357.451 11.7129  12
  -9  -5   9 358.743 13.3969   1
   9  -5  -9 351.079 13.2357   1
   9   5  -9 344.886 13.2514   1
  -9   5   9 341.630 13.0792   9
   9   5  -9 348.340 13.9002   7
  -7  -5   9 605.251 17.7579   1
   7  -5  -9 589.754 17.6287   1
  -7  -5   9 577.355 15.7172  12
   7  -5  -9 568.080 20.6028  13
   7   5  -9 577.186 15.3460   4
   7   5  -9 570.385 17.6559   7
  -7   5   9 581.912 14.5000  12
  -7   5   9 576.804 16.5563   1
  -7   5   9 581.271 17.5502   9
  -5  -5   9 478.661 14.0353   6
   5  -5  -9 474.912 14.8063   1
  -5  -5   9 469.583 13.3525  12
  -5  -5   9 493.994 14.8535   1
   5  -5  -9 467.589 17.1713  13
   5  -5  -9 462.996 12.8740  14
  -5   5   9 472.466 15.2582   9
  -5   5   9 482.737 14.6959   1
   5   5  -9 518.217 15.2050   7
   5   5  -9 484.188 13.3111  14
  -5   5   9 485.140 12.7540  12
   5   5  -9 491.507 13.6568   4
   3  -5  -9 567.985 17.5865  13
   3  -5  -9 561.749 15.7695   1
  -3  -5   9 554.482 15.3364   6
  -3  -5   9 571.948 15.5631   1
   3  -5  -9 563.787 14.9345  14
  -3  -5   9 554.200 15.1049  12
  -3   5   9 587.271 17.4665   9
   3   5  -9 586.363 16.1801   7
  -3   5   9 582.950 17.1201   1
  -3   5   9 570.241 14.6241  12
   3   5  -9 565.389 15.0943   4
   3   5  -9 563.257 15.4827  14
  -1  -5   9 236.528 8.41344   6
   1  -5  -9 238.586 8.55147  14
   1  -5  -9 236.296 8.89227   2
   1  -5  -9 236.147 7.82259   4
  -1  -5   9 244.572 9.02529  12
  -1  -5   9 221.108 7.89782   1
  -1   5   9 231.521 9.45770   6
  -1   5   9 227.347 10.4800   9
   1   5  -9 240.463 9.26657   7
   1   5  -9 226.987 9.01764  14
  -1   5   9 224.695 8.44237  12
  -1   5   9 237.236 10.1748   1
   1   5  -9 232.672 8.78102   4
   1  -5   9 307.686 11.0273  12
  -1  -5  -9 311.406 10.6632  14
   1  -5   9 326.540 9.74218   6
  -1  -5  -9 324.939 11.4982   2
  -1  -5  -9 318.220 11.6126   8
   1   5   9 322.535 13.8902   9
  -1   5  -9 324.972 11.3303  14
   1   5   9 329.007 12.2128   6
   1   5   9 321.931 12.4768   1
  -1   5  -9 333.495 10.7825   4
   3  -5   9 105.016 4.68288   6
  -3  -5  -9 112.014 7.07846   2
  -3  -5  -9 109.903 6.27327  14
  -3  -5  -9 113.527 7.32035   8
  -3   5  -9 110.834 6.18615  14
   3   5   9 116.869 7.56013   6
   3   5   9 109.070 6.63433  12
   3   5   9 111.009 7.10183   1
   3   5   9 118.343 9.04116   9
  -3   5  -9 111.118 7.02097   2
 -10  -6   9 180.356 8.52840  12
 -10  -6   9 192.124 9.50291   1
  10  -6  -9 190.799 9.82667   1
  10   6  -9 176.923 10.5434   1
  10   6  -9 179.281 10.0161   7
 -10   6   9 201.343 8.91102   5
  -8  -6   9 161.539 7.51275  12
  -8  -6   9 160.363 8.85650   1
   8  -6  -9 176.349 9.25760   1
   8   6  -9 158.023 8.97386   7
  -8   6   9 162.153 8.88881   9
   6  -6  -9 176.797 7.02340  14
   6  -6  -9 171.650 10.5553  13
  -6  -6   9 177.992 7.32202  12
  -6  -6   9 174.116 8.72010   1
  -6  -6   9 161.841 7.83248   6
   6  -6  -9 180.035 8.96875   1
   6   6  -9 171.156 7.27080   4
  -6   6   9 173.463 8.30840   1
  -6   6   9 169.225 8.76069   9
   6   6  -9 176.861 8.84268   7
  -4  -6   9 330.738 11.0758   6
   4  -6  -9 322.531 10.1728  14
  -4  -6   9 336.136 10.5474  12
   4  -6  -9 310.187 13.2118  13
   4  -6  -9 314.463 11.4877   1
  -4  -6   9 330.726 11.5588   1
  -4   6   9 252.031 9.47601  12
   4   6  -9 318.852 10.7609  14
   4   6  -9 337.922 11.8800   7
  -4   6   9 315.429 11.8852   1
   4   6  -9 309.980 10.5455   4
  -4   6   9 313.488 12.2421   9
   2  -6  -9 98.2369 5.33474   2
  -2  -6   9 99.7231 5.48246   1
  -2  -6   9 92.1401 5.47092   6
   2  -6  -9 94.0116 5.50901  14
  -2  -6   9 111.013 5.83126  12
   2   6  -9 102.073 6.47150   7
   2   6  -9 93.2527 5.76931   4
  -2   6   9 95.5748 6.72079   1
  -2   6   9 97.0334 5.21493  12
   2   6  -9 99.6353 6.23587  14
  -2   6   9 97.7508 7.06386   9
   0  -6   9 127.947 5.85206   6
   0  -6  -9 129.146 6.80026   2
   0  -6  -9 127.978 6.53464  14
   0   6  -9 131.616 6.71588   4
   0   6   9 130.114 6.63913  12
   0   6   9 125.609 8.07209   9
   0   6   9 137.201 7.89730   1
   0   6  -9 135.835 7.18283  14
   0   6  -9 124.562 6.71413   7
  -2  -6  -9 68.8752 5.76756   8
  -2  -6  -9 78.3110 5.39823  14
   2  -6   9 80.0292 4.24920   6
  -2  -6  -9 79.1756 6.02087   2
  -2   6  -9 73.1703 5.64872  14
   2   6   9 82.5539 6.13685   1
   2   6   9 87.3787 8.19145   9
   2   6   9 73.2923 6.17166   6
   2   6   9 77.1702 5.41349  12
  -2   6  -9 84.5325 5.51249   4
  -9  -7   9 35.7334 4.26583  12
  -9  -7   9 34.2830 4.59594   1
   9  -7  -9 33.3124 4.76571   1
   9   7  -9 31.2274 4.67032   7
  -9   7   9 41.6897 5.38149   9
  -9   7   9 38.8442 4.42239   5
   7  -7  -9 537.370 17.3450   1
  -7  -7   9 553.533 17.5583   1
  -7  -7   9 534.036 14.9724  12
   7   7  -9 503.773 16.9656   7
  -7   7   9 535.881 17.2353   9
   5  -7  -9 46.5165 3.75437  14
  -5  -7   9 54.1037 4.47837   6
  -5  -7   9 49.7205 4.95363   1
  -5  -7   9 42.1892 4.10376  12
   5  -7  -9 47.8171 5.89178  13
   5  -7  -9 46.3876 4.60412   1
  -5   7   9 50.7462 4.95305   9
   5   7  -9 47.6686 4.65348   4
  -5   7   9 47.4733 4.52931   1
   5   7  -9 47.8381 5.07383   7
  -3  -7   9 787.599 20.2138   1
  -3  -7   9 791.443 20.3060   6
   3  -7  -9 800.862 19.7445  14
   3  -7  -9 776.493 21.0037   1
   3   7  -9 790.088 20.5796  14
   3   7  -9 806.872 20.3199   4
  -3   7   9 816.855 22.3221   1
  -3   7   9 772.549 22.1861   9
   3   7  -9 793.178 21.4238   7
   1  -7  -9 123.099 5.73380   4
   1  -7  -9 131.751 6.72468  14
  -1  -7   9 125.270 6.37563   6
   1  -7  -9 125.875 6.56745   2
  -1  -7   9 123.196 5.81894   1
  -1   7   9 122.273 8.25453   9
   1   7  -9 132.280 7.65170   7
  -1   7   9 132.166 8.34328   1
   1   7  -9 132.447 6.98169   4
   1   7  -9 131.548 7.11515  14
  -1  -7  -9 648.295 17.7297  14
   1  -7   9 684.187 16.5721   6
  -1  -7  -9 689.854 18.8111   2
  -1   7  -9 675.597 18.9189  14
  -1   7  -9 667.503 18.0616   4
  -1   7  -9 642.827 18.5861   7
   1   7   9 682.462 20.8572   1
   1   7   9 690.525 21.8351   9
   8  -8  -9 40.3852 5.45135   1
  -8  -8   9 36.5046 4.74363   1
   8   8  -9 35.7266 5.20795   7
  -8   8   9 34.9048 3.96947   5
  -8   8   9 40.2927 5.06308   9
  -6  -8   9 48.3600 5.54462   1
   6  -8  -9 44.5165 5.30454   1
  -6   8   9 45.4826 5.48895   9
   6   8  -9 34.3740 4.95556   7
   6   8  -9 30.7016 3.73229   4
  -4  -8   9 155.869 7.81274   6
   4  -8  -9 159.796 8.45280   1
  -4  -8   9 146.051 7.83642   1
   4  -8  -9 150.813 7.28427  14
  -4   8   9 147.205 8.07252   1
   4   8  -9 157.215 7.68122   4
   4   8  -9 147.038 8.19305   7
  -4   8   9 151.557 8.76249   9
  -2  -8   9 30.1526 3.76380   6
  -2  -8   9 34.4839 3.69242   1
   2  -8  -9 42.3861 4.45761  14
  -2   8   9 36.6457 5.09073   1
   2   8  -9 34.3196 4.57343  14
  -2   8   9 32.2546 4.81431   9
   2   8  -9 35.8252 4.74995   7
   2   8  -9 28.0708 3.71046   4
   0  -8   9 138.640 6.41594   6
   0  -8  -9 129.462 7.03906   2
   0  -8  -9 121.318 6.73529  14
   0   8  -9 129.410 7.26887  14
   0   8   9 125.069 8.19302   1
   0   8  -9 126.912 7.79578   7
   0   8  -9 127.599 7.17737   4
   0   8   9 127.025 9.13092   9
   7  -9  -9 236.307 11.3428   1
  -7  -9   9 249.981 11.5220   1
   7   9  -9 224.214 11.2106   7
  -7   9   9 242.796 11.1963   9
   5  -9  -9 491.481 14.5631  14
  -5  -9   9 502.843 16.1561   1
   5  -9  -9 522.842 17.3963   1
  -5  -9   9 502.001 15.9339   6
   5   9  -9 471.277 14.7818   4
   5   9  -9 465.929 16.6574   7
  -5   9   9 489.018 16.5401   9
   3  -9  -9 167.719 7.88145  14
  -3  -9   9 154.715 7.71223   1
  -3  -9   9 160.012 8.09129   6
   3  -9  -9 157.112 8.73077   1
   3   9  -9 163.297 8.17212   4
   3   9  -9 157.526 9.09402   7
  -3   9   9 148.610 8.55324   9
  -3   9   9 155.261 8.98704   1
  -1  -9   9 272.211 10.1290   6
   1  -9  -9 271.922 10.2314  14
   1   9  -9 266.922 11.6383   7
  -1   9   9 270.076 12.3232   1
  -1   9   9 270.138 12.6179   9
   1   9  -9 277.866 10.8336   4
   4 -10  -9 21.3167 4.16993   1
  -4 -10   9 27.3528 4.11088   6
   4 -10  -9 21.7648 3.50775  14
  -4 -10   9 29.6667 4.32537   1
   4  10  -9 33.7449 5.23985   7
   4  10  -9 26.4709 3.96257   4
  -4  10   9 23.1372 4.11477   9
  -2 -10   9 6.50487 2.18190   1
  -2 -10   9 6.91511 2.59953   6
   2 -10  -9 10.7212 2.92732  14
   2  10  -9 7.29164 2.88298   4
  -2  10   9 7.20765 3.10905   1
  -2  10   9 3.89353 2.96128   9
   2  10  -9 6.24565 3.06083   7
 -10   0  10 1235.28 28.1051  12
  10   0 -10 1231.84 31.0031   1
  -8   0  10 131.975 6.49022  12
  -8   0  10 135.892 7.37387   9
   8   0 -10 133.291 6.55107   4
   8   0 -10 147.760 7.76904   1
  -8   0  10 134.884 7.30916   1
   8   0 -10 153.969 10.3567  13
  -6   0  10 1271.13 27.9107  12
   6   0 -10 1247.92 26.6481  14
   6   0 -10 1267.79 33.4374  13
  -6   0  10 1251.43 28.8489   9
   6   0 -10 1290.04 27.6058   4
   6   0 -10 1266.57 28.6976   1
  -6   0  10 1301.57 29.9670   1
   4   0 -10 81.5703 4.88351  14
  -4   0  10 72.8467 4.96443  12
  -4   0  10 71.9693 4.91217   6
   4   0 -10 75.5352 4.60784   4
  -4   0  10 71.0430 5.31531   9
  -4   0  10 72.0487 5.39329   1
   4   0 -10 75.3660 4.55112   7
   4   0 -10 73.2878 4.54083   2
  -2   0  10 697.850 18.1500   6
   2   0 -10 684.696 17.5487  14
   2   0 -10 716.270 17.0200   4
  -2   0  10 719.317 18.6924   1
   2   0 -10 698.552 18.1661   2
  -2   0  10 683.567 18.2530  12
  -2   0  10 677.371 19.1538   9
   0   0  10 25.3722 4.24688   9
   0   0  10 28.2238 3.32033   1
   0   0 -10 27.7314 3.49246  14
   0   0  10 24.1390 3.29574   6
   0   0 -10 30.9095 3.96062   2
   0   0 -10 26.4539 3.05425   4
   0   0  10 32.1638 4.02321  12
   2   0  10 453.313 16.2626   9
  -2   0 -10 447.273 13.6039  14
   2   0  10 485.999 14.0671   6
  -2   0 -10 452.268 14.6358   2
   2   0  10 471.907 15.0988  12
  11  -1 -10 70.9564 6.71482   1
 -11  -1  10 79.0611 5.79170  12
  11   1 -10 76.4412 6.81523   1
 -11   1  10 75.8306 5.52222  12
   9  -1 -10 65.9713 5.95498   1
  -9  -1  10 64.1485 5.54238   1
  -9  -1  10 65.2476 4.63324  12
   9  -1 -10 68.8895 4.95944   4
   9  -1 -10 57.4427 7.23719  13
  -9   1  10 68.4276 5.37762   9
   9   1 -10 59.0723 5.28149   1
  -9   1  10 68.0504 5.52021   1
   9   1 -10 69.7666 4.83035   4
  -9   1  10 69.0773 5.08079  12
  -7  -1  10 5.96157 2.46852   1
  -7  -1  10 6.74434 2.19544   9
  -7  -1  10 8.09313 2.28163  12
   7  -1 -10 4.30388 2.22642  13
   7  -1 -10 8.55046 2.06466   4
  -7   1  10 13.7181 2.92815   9
   7   1 -10 8.81558 2.29803   4
   7   1 -10 9.21704 2.28536   1
  -7   1  10 6.79781 1.88380  12
  -7   1  10 8.92419 2.37660   1
  -5  -1  10 199.104 8.10716   6
  -5  -1  10 205.041 8.90236   1
   5  -1 -10 179.574 10.0919  13
   5  -1 -10 181.311 7.15264  14
   5  -1 -10 178.002 7.05075   4
  -5  -1  10 177.462 7.71306  12
  -5  -1  10 176.725 7.79813   9
  -5   1  10 181.737 8.43697   9
   5   1 -10 192.485 7.96490   7
  -5   1  10 193.802 7.88865  12
   5   1 -10 194.280 7.50296   4
  -5   1  10 189.830 8.69396   1
   5   1 -10 186.351 7.10422  14
  -3  -1  10 9.82523 2.46243   9
  -3  -1  10 4.99166 1.76024  12
   3  -1 -10 5.89388 1.97466   2
   3  -1 -10 7.33930 2.03412  14
   3  -1 -10 4.87708 1.47889   4
  -3  -1  10 6.27885 1.99821   6
  -3  -1  10 7.66529 2.33927   1
  -3   1  10 7.94359 2.61048   9
  -3   1  10 7.07591 2.32528   1
   3   1 -10 6.11809 2.08871   2
   3   1 -10 4.74249 1.52360   4
  -3   1  10 7.64035 2.25680   6
   3   1 -10 13.0265 2.32386  14
  -3   1  10 5.97399 1.86484  12
   3   1 -10 5.09474 1.75031   7
  -1  -1  10 42.0087 3.94899   6
  -1  -1  10 44.7803 3.94638   1
   1  -1 -10 45.6818 3.74432  14
  -1  -1  10 47.8904 4.78063  12
   1  -1 -10 46.6842 4.38794   2
   1  -1 -10 44.6880 3.62646   4
  -1  -1  10 39.2225 4.58730   9
  -1   1  10 42.3695 4.22234   1
   1   1 -10 41.5788 3.65503   4
  -1   1  10 46.8448 4.75540  12
   1   1 -10 41.4983 4.59897   2
   1   1 -10 56.1651 4.11916  14
  -1   1  10 45.1264 4.21442   6
  -1   1  10 43.9809 5.06952   9
   1  -1  10 53.7790 3.92260   1
  -1  -1 -10 60.4911 4.43864  14
   1  -1  10 61.6620 4.47897   6
   1  -1  10 68.0415 5.25382  12
  -1  -1 -10 54.6741 4.68597   2
   1   1  10 59.7817 4.62813   1
   1   1  10 58.8491 5.31745  12
   1   1  10 62.9671 4.89581   6
  -1   1 -10 54.2091 4.23275  14
  -1   1 -10 57.7574 4.00655   4
   1   1  10 49.0412 5.75230   9
  -1   1 -10 57.8287 4.84774   2
   3  -1  10 2.07922 2.59679   9
  -3  -1 -10 2.20338 2.40400   2
   3  -1  10 3.72319 1.78729   6
   3  -1  10 0.19131 1.50099  12
  -3  -1 -10 0.27686 1.76116   8
  -3  -1 -10 0.66029 1.86307  14
  -3   1 -10 0.09159 2.06634   2
   3   1  10 1.42944 1.60219   6
   3   1  10 -0.7354 1.31862  12
   3   1  10 -1.5132 2.79524   9
  -3   1 -10 1.84429 1.55573  14
 -10  -2  10 73.4547 5.38186  12
  10  -2 -10 54.1609 5.95930   1
 -10  -2  10 43.5104 4.95869   1
  10  -2 -10 43.6909 3.94095   4
  10   2 -10 43.2129 5.42258   1
 -10   2  10 52.6754 4.49904  12
   8  -2 -10 492.119 15.6961   1
  -8  -2  10 462.824 15.2041   1
   8  -2 -10 494.706 14.2621   4
  -8  -2  10 476.556 14.0506  12
   8  -2 -10 452.551 18.7990  13
  -8   2  10 489.941 15.2855   1
  -8   2  10 484.842 15.6589   9
   8   2 -10 491.092 13.7751   4
  -8   2  10 496.253 13.8033  12
   8   2 -10 507.025 15.6456   1
  -6  -2  10 105.722 6.62066   1
   6  -2 -10 93.8117 4.90635  14
  -6  -2  10 95.0702 7.12706   6
   6  -2 -10 101.486 5.42789   4
   6  -2 -10 102.106 6.14915   1
   6  -2 -10 108.174 8.26762  13
  -6  -2  10 99.3934 5.59866  12
   6   2 -10 94.8120 5.92068   7
   6   2 -10 98.7048 4.96743  14
   6   2 -10 102.859 5.51806   4
  -6   2  10 116.914 6.84414   1
  -6   2  10 103.031 5.57069  12
  -6   2  10 91.4083 6.28788   9
   4  -2 -10 1183.27 25.9052  14
   4  -2 -10 1195.31 25.6869   4
  -4  -2  10 1197.33 26.6636  12
  -4  -2  10 1192.15 27.7614   1
   4  -2 -10 1181.94 30.4233  13
  -4  -2  10 1193.40 26.8315   6
   4  -2 -10 1141.19 25.2124   2
  -4   2  10 1168.20 28.2358   9
   4   2 -10 1207.28 26.3242  14
  -4   2  10 1153.53 27.9382   1
   4   2 -10 1188.79 26.7983   7
   4   2 -10 1167.67 25.7999   4
  -4   2  10 1137.32 26.6144   6
  -4   2  10 1200.57 26.4697  12
  -2  -2  10 238.656 9.21314  12
  -2  -2  10 247.901 9.18886   6
   2  -2 -10 244.727 8.79587  14
   2  -2 -10 243.924 8.20435   4
   2  -2 -10 243.663 9.08526   2
  -2  -2  10 235.458 8.96730   1
   2   2 -10 249.788 8.71407   4
  -2   2  10 250.169 9.45826  12
   2   2 -10 240.850 9.56529   2
  -2   2  10 248.824 9.58680   6
   2   2 -10 245.290 9.21467  14
   2   2 -10 222.729 8.21853   7
  -2   2  10 255.037 10.2062   1
  -2   2  10 239.381 10.6308   9
   0  -2  10 993.939 22.7962   1
   0  -2  10 1033.46 23.5542   6
   0  -2  10 1001.04 24.6855  12
   0  -2 -10 985.200 21.9764   4
   0  -2 -10 971.287 24.1512   2
   0  -2 -10 1028.38 23.6278  14
   0   2  10 992.092 27.0021   9
   0   2 -10 1019.31 23.9432  14
   0   2  10 1023.13 24.7478   1
   0   2 -10 1019.83 22.9236   4
   0   2  10 975.486 24.7315  12
   0   2 -10 988.474 24.7929   2
   0   2  10 1029.17 24.7744   6
  -2  -2 -10 121.070 7.56197   8
   2  -2  10 125.828 6.10749   6
   2  -2  10 137.175 7.87494  12
  -2  -2 -10 132.651 6.83408  14
  -2  -2 -10 128.915 7.37633   2
   2   2  10 131.203 6.91120   1
   2   2  10 136.270 9.36646   9
  -2   2 -10 125.563 7.25314   2
   2   2  10 128.957 7.67527  12
   2   2  10 128.710 7.17177   6
  -2   2 -10 126.315 6.76847  14
 -11  -3  10 0.18609 2.13365  12
  11  -3 -10 -0.5917 2.39765   1
  11   3 -10 -0.3139 2.29564   1
  11   3 -10 4.48569 3.51096   7
 -11   3  10 3.60304 1.57993  12
   9  -3 -10 1.19341 2.26401   1
   9  -3 -10 1.29681 1.56596   4
  -9  -3  10 -0.0781 2.02336   1
  -9  -3  10 1.33883 1.53287  12
   9   3 -10 -1.6669 2.48415   7
  -9   3  10 3.17180 1.90107  12
  -9   3  10 0.02068 2.30446   9
   9   3 -10 -0.4830 2.03145   1
  -7  -3  10 12.2154 2.66271   1
   7  -3 -10 16.7419 3.01906   4
  -7  -3  10 12.7591 2.72907  12
   7  -3 -10 16.0219 3.88450  13
   7  -3 -10 10.8755 2.82930   1
   7   3 -10 12.5714 2.61775   4
   7   3 -10 11.0334 3.11341   7
  -7   3  10 11.1419 2.37305  12
  -7   3  10 11.3619 3.04149   9
  -7   3  10 10.7199 2.43678   1
  -5  -3  10 55.7611 4.59511   1
   5  -3 -10 61.8468 4.01425  14
   5  -3 -10 55.5522 4.37809   4
   5  -3 -10 57.8142 4.62310   1
   5  -3 -10 60.4593 6.16133  13
  -5  -3  10 54.6351 4.56951  12
  -5  -3  10 56.3673 4.53076   6
   5   3 -10 57.3260 4.04266   4
   5   3 -10 61.7608 4.38601  14
  -5   3  10 56.6703 4.02127  12
  -5   3  10 62.5437 4.96867   1
   5   3 -10 63.7131 5.20007   7
  -5   3  10 60.7038 5.45068   9
  -3  -3  10 7.21534 2.19820   6
  -3  -3  10 3.33669 1.54890   1
   3  -3 -10 2.50022 2.19464  13
   3  -3 -10 0.92522 1.63612  14
  -3  -3  10 2.95732 2.01425  12
   3  -3 -10 7.31007 2.09330   4
   3   3 -10 0.87527 1.28358  14
  -3   3  10 0.02578 2.10818   9
  -3   3  10 5.22435 1.94386   1
  -3   3  10 2.78137 1.52809  12
   3   3 -10 1.09013 1.62941   7
  -3   3  10 4.13233 2.02058   6
   3   3 -10 1.90515 1.68135   4
   1  -3 -10 14.0029 2.32804   4
  -1  -3  10 12.6994 2.64500  12
   1  -3 -10 16.0456 2.68446   2
  -1  -3  10 13.1072 2.41539   6
  -1  -3  10 12.3278 2.36036   1
   1  -3 -10 9.90319 2.46417  14
   1   3 -10 15.1386 3.28739   2
  -1   3  10 15.7896 3.03352   6
  -1   3  10 15.9241 3.81992   9
  -1   3  10 12.5247 3.05335   1
  -1   3  10 26.4667 3.78778  12
   1   3 -10 12.6661 2.58106   4
   1   3 -10 12.7652 2.76089  14
   1  -3  10 18.0821 2.79008   6
   1  -3  10 20.1103 3.58096  12
  -1  -3 -10 26.7217 3.94097   2
  -1  -3 -10 19.1665 3.21813  14
  -1   3 -10 26.4263 3.41075   4
   1   3  10 19.7345 3.67979  12
  -1   3 -10 16.9888 2.82697  14
   1   3  10 22.7772 3.57718   6
  -1   3 -10 19.5694 3.63162   2
   1   3  10 15.6152 3.91036   9
   1   3  10 19.7257 3.44404   1
   3  -3  10 2.52754 1.34690   6
  -3  -3 -10 2.67573 2.10849   8
   3  -3  10 0.30084 2.20301  12
  -3  -3 -10 0.68852 2.33548   2
  -3  -3 -10 2.72614 2.16848  14
   3   3  10 1.51466 3.45601   9
   3   3  10 3.90794 2.45607   6
  -3   3 -10 1.92713 2.36557   2
   3   3  10 4.09984 2.79926  12
  -3   3 -10 2.82437 2.11605  14
   3   3  10 2.18377 1.87903   1
 -10  -4  10 87.9624 6.71574   1
 -10  -4  10 87.2089 6.09526  12
  10  -4 -10 95.2921 5.82350   4
  10  -4 -10 85.2237 6.93539   1
  10   4 -10 84.8776 6.95691   7
  10   4 -10 90.6221 7.03692   1
 -10   4  10 79.7681 5.12654  12
   8  -4 -10 1311.99 31.2188   1
  -8  -4  10 1317.97 31.2037   1
  -8  -4  10 1258.29 28.6159  12
   8  -4 -10 1201.93 35.5757  13
   8   4 -10 1226.56 30.8226   7
   8   4 -10 1251.94 27.8080   4
  -8   4  10 1245.50 30.5712   9
  -8   4  10 1251.39 29.6416   1
   6  -4 -10 43.8637 4.25283   1
  -6  -4  10 48.7466 4.61668  12
   6  -4 -10 56.1143 3.94699  14
  -6  -4  10 45.3793 4.37212   1
   6  -4 -10 42.9295 5.93591  13
  -6  -4  10 42.2876 4.18374   6
  -6   4  10 46.0701 4.55765   9
  -6   4  10 47.1121 3.86485  12
  -6   4  10 44.7840 4.77535   1
   6   4 -10 45.7392 4.99499   7
   6   4 -10 39.7508 3.29825  14
   6   4 -10 49.6460 4.19404   4
  -4  -4  10 1139.49 26.9202   1
   4  -4 -10 1175.74 25.7350  14
   4  -4 -10 1125.16 29.8290  13
  -4  -4  10 1119.46 26.4802   6
   4  -4 -10 1175.20 25.6238   4
  -4  -4  10 1141.46 26.2427  12
   4   4 -10 1139.11 26.7999   7
  -4   4  10 1167.05 25.7037  12
   4   4 -10 1151.85 25.7039   4
  -4   4  10 1147.21 28.5450   9
   4   4 -10 1125.83 25.7708  14
  -4   4  10 1158.41 28.2322   1
  -2  -4  10 4.80775 1.91367   6
  -2  -4  10 4.16749 1.76313  12
  -2  -4  10 4.53684 1.80713   1
   2  -4 -10 4.13999 1.94057   4
   2  -4 -10 5.36326 1.69677   2
   2  -4 -10 6.21125 2.19547  14
  -2   4  10 4.23804 2.92239   9
   2   4 -10 5.16697 2.08389   4
  -2   4  10 4.07935 2.06850   6
   2   4 -10 6.11838 2.35626  14
  -2   4  10 10.9467 2.64778  12
  -2   4  10 8.00886 2.70795   1
   2   4 -10 4.31486 2.05226   7
   0  -4  10 650.986 18.2517  12
   0  -4  10 657.950 16.9723   6
   0  -4 -10 676.368 18.2670   2
   0  -4 -10 652.970 17.3429  14
   0   4 -10 659.061 17.1581   4
   0   4  10 670.287 20.9834   9
   0   4  10 677.758 18.6168  12
   0   4 -10 653.965 17.9265  14
   0   4  10 657.555 19.2691   1
   0   4 -10 653.508 19.0103   2
   0   4  10 635.010 18.7565   6
   2  -4  10 9.54513 2.16855   6
  -2  -4 -10 15.5246 3.02293  14
  -2  -4 -10 12.9297 3.16571   2
  -2  -4 -10 13.0269 3.53117   8
   2  -4  10 7.79823 2.68261  12
  -2   4 -10 10.6792 2.47814   4
  -2   4 -10 10.1603 2.40531  14
   2   4  10 11.6893 4.23390   9
   2   4  10 9.09221 3.04010  12
   2   4  10 12.6725 3.17960   1
  -2   4 -10 6.99285 2.33898   2
   2   4  10 14.5554 3.34518   6
  -9  -5  10 75.7681 5.65869  12
  -9  -5  10 71.6958 6.39363   1
   9  -5 -10 76.6552 6.22869   1
  -9   5  10 74.3187 6.64986   9
   9   5 -10 77.6005 6.94179   7
  -7  -5  10 245.281 10.9061   1
   7  -5 -10 224.616 12.6009  13
   7  -5 -10 240.649 10.6718   1
  -7  -5  10 214.470 8.96121  12
  -7   5  10 225.860 9.89592   1
  -7   5  10 223.685 8.17523  12
   7   5 -10 231.120 8.83868   4
  -7   5  10 227.291 10.5797   9
   7   5 -10 230.611 10.4541   7
   5  -5 -10 69.3284 5.21234   1
   5  -5 -10 66.3602 6.63627  13
  -5  -5  10 76.0323 5.76148   1
   5  -5 -10 80.0469 5.04148  14
  -5  -5  10 77.5348 5.45221   6
  -5  -5  10 71.0839 5.09597  12
   5   5 -10 83.3643 5.41613   4
  -5   5  10 71.5389 5.80888   9
   5   5 -10 74.6380 5.89535   7
   5   5 -10 69.0955 4.95440  14
  -5   5  10 75.3644 5.97416   1
  -5   5  10 75.3590 4.73008  12
  -3  -5  10 294.109 10.5613  12
  -3  -5  10 290.587 10.4374   1
   3  -5 -10 309.778 9.99667   4
  -3  -5  10 303.033 10.7103   6
   3  -5 -10 305.383 10.3474  14
  -3   5  10 282.967 11.9111   9
   3   5 -10 284.910 9.88514   4
   3   5 -10 294.509 10.6940  14
  -3   5  10 287.790 9.95388  12
   3   5 -10 285.529 10.8389   7
  -3   5  10 280.137 11.5406   1
  -1  -5  10 135.364 6.09212   1
  -1  -5  10 137.204 7.20625  12
   1  -5 -10 140.637 6.96321  14
   1  -5 -10 134.746 6.01048   4
   1  -5 -10 132.072 6.97461   2
  -1  -5  10 139.019 6.66916   6
  -1   5  10 128.005 7.53729   6
  -1   5  10 146.740 8.46644   1
   1   5 -10 140.426 7.39533  14
  -1   5  10 145.316 7.24164  12
  -1   5  10 146.545 8.74115   9
   1   5 -10 144.059 6.86214   4
   1   5 -10 126.173 6.86765   7
  -1  -5 -10 66.2563 5.52071   2
   1  -5  10 70.8589 4.44060   6
  -1  -5 -10 63.3063 4.99999  14
   1  -5  10 56.5337 5.06641  12
   1   5  10 63.7269 5.54881  12
  -1   5 -10 68.4918 5.41265  14
  -1   5 -10 77.6142 5.27171   4
   1   5  10 67.2307 7.50721   9
   1   5  10 59.7586 5.58472   6
   1   5  10 62.4259 5.90337   1
  10  -6 -10 367.648 14.1337   1
  10   6 -10 342.340 14.2098   7
 -10   6  10 377.802 12.5055   5
  -8  -6  10 16.2256 3.70306   1
   8  -6 -10 18.8762 3.86155   1
  -8  -6  10 15.4220 2.74678  12
  -8   6  10 20.3447 4.11307   9
   8   6 -10 20.5121 3.71936   7
   6  -6 -10 717.646 20.4023   1
   6  -6 -10 702.109 17.5392  14
  -6  -6  10 725.778 20.4060   1
   6  -6 -10 690.697 23.3568  13
  -6  -6  10 694.810 18.1406  12
   6   6 -10 641.221 17.3114  14
   6   6 -10 705.616 20.1545   7
  -6   6  10 701.889 19.7986   1
   6   6 -10 679.839 18.0779   4
  -6   6  10 676.961 20.0591   9
  -4  -6  10 81.7090 5.43646  12
  -4  -6  10 96.1207 5.96036   1
   4  -6 -10 79.4133 5.24477  14
   4  -6 -10 79.6052 6.70624   1
  -4  -6  10 74.9732 5.47195   6
   4   6 -10 78.6152 5.56032  14
   4   6 -10 74.5522 6.08030   7
  -4   6  10 72.4271 6.39147   9
  -4   6  10 75.1121 6.34533   1
   4   6 -10 84.1761 5.65964   4
  -2  -6  10 990.300 23.7525   6
   2  -6 -10 976.980 23.3198  14
   2  -6 -10 972.773 22.3758   4
  -2  -6  10 945.350 22.9027   1
  -2  -6  10 942.359 23.3868  12
   2   6 -10 995.252 23.4829   4
  -2   6  10 990.843 26.8846   9
   2   6 -10 963.297 24.5406   7
   2   6 -10 984.801 24.4386  14
  -2   6  10 989.850 26.3406   1
   0  -6  10 94.1966 5.54180   6
   0  -6 -10 90.3572 5.88873  14
   0   6  10 96.6861 6.15896  12
   0   6  10 92.8090 8.07339   9
   0   6  10 87.2388 6.99521   1
   0   6 -10 89.8331 5.98078   4
   0   6 -10 91.7364 6.26900  14
   9  -7 -10 2.84375 2.75199   1
  -9  -7  10 5.27857 1.94917  12
  -9  -7  10 6.01362 2.55955   1
   9   7 -10 4.26351 2.49251   7
  -9   7  10 7.49129 3.29931   9
  -7  -7  10 22.1709 3.76941   1
   7  -7 -10 16.3491 3.34322   1
  -7  -7  10 16.6227 3.03675  12
   7   7 -10 17.1699 3.80155   7
   7   7 -10 18.0437 3.12868   4
  -7   7  10 15.1453 3.74428   9
   5  -7 -10 7.94151 2.44445  14
   5  -7 -10 6.61434 2.72394   1
  -5  -7  10 0.87406 1.52399   1
  -5  -7  10 2.82400 2.18856   6
   5   7 -10 2.50183 2.59261   7
   5   7 -10 4.10966 2.37839   4
  -5   7  10 5.44598 2.98160   9
  -5   7  10 2.69179 2.23375   1
  -3  -7  10 16.6101 3.13084   6
   3  -7 -10 16.6257 2.88737  14
  -3  -7  10 13.9335 2.78189   1
   3   7 -10 9.41311 2.42619  14
  -3   7  10 17.8797 3.50909   1
   3   7 -10 17.4211 3.75950   7
   3   7 -10 14.0070 3.17491   4
  -3   7  10 11.4079 3.17806   9
  -1  -7  10 0.54225 1.54100   6
   1  -7 -10 2.18259 2.19431  14
  -1   7  10 2.10766 2.95677   9
  -1   7  10 5.45497 2.89584   1
   1   7 -10 -0.1329 1.50401   4
   1   7 -10 0.41463 2.01229   7
   1   7 -10 0.84751 1.62015  14
   8  -8 -10 204.212 10.4671   1
  -8  -8  10 205.626 10.4375   1
  -8   8  10 209.149 10.2479   9
   8   8 -10 198.891 10.6073   7
  -6  -8  10 449.958 15.6059   1
   6  -8 -10 437.782 15.8431   1
   6   8 -10 423.489 15.6259   7
  -6   8  10 446.972 16.0836   9
   6   8 -10 443.680 13.9939   4
  -4  -8  10 120.259 7.17297   1
   4  -8 -10 116.420 6.60808  14
  -4  -8  10 124.336 7.31458   6
   4   8 -10 120.134 7.97752   7
  -4   8  10 108.745 7.67498   1
  -4   8  10 121.388 7.99199   9
   4   8 -10 114.235 6.96793   4
  -2  -8  10 344.954 11.9291   6
   2  -8 -10 314.877 11.4583  14
  -2   8  10 322.709 14.0082   9
   2   8 -10 329.043 11.9665   4
   2   8 -10 331.757 12.8166   7
  -2   8  10 330.479 13.6986   1
   2   8 -10 321.458 12.4797  14
   5  -9 -10 9.47531 2.75714   1
  -5  -9  10 11.8583 3.06611   6
   5  -9 -10 8.46945 2.68042  14
  -5  -9  10 5.41854 2.63084   1
   5   9 -10 9.39464 2.84365   4
  -5   9  10 4.48306 2.97999   9
   5   9 -10 8.30762 3.29524   7
   3  -9 -10 5.97311 2.56375  14
  -3  -9  10 0.99192 2.06246   6
  -3  -9  10 3.49240 1.97100   1
  -3   9  10 4.37598 2.34692   9
   3   9 -10 6.71773 2.27638   4
  -3   9  10 4.79916 2.82560   1
   3   9 -10 7.19506 3.28034   7
 -10   0  11 0.22296 2.01022   1
 -10   0  11 6.42051 2.11379  12
  10   0 -11 1.68202 1.95507   4
  10   0 -11 1.22513 2.39529   1
  -8   0  11 -0.5790 1.29670  12
  -8   0  11 2.24339 2.06626   9
  -8   0  11 1.56894 2.28978   1
   8   0 -11 0.28334 1.73185   1
   8   0 -11 1.80040 2.02304   4
   6   0 -11 -0.0200 1.89000   7
  -6   0  11 0.05461 1.80580   9
  -6   0  11 3.94665 1.71801  12
   6   0 -11 0.84738 1.34724  14
   6   0 -11 7.22576 2.36187   4
  -6   0  11 -1.0829 1.90902   1
  -4   0  11 1.23784 1.40512  12
   4   0 -11 1.71003 1.36638  14
   4   0 -11 1.14129 1.24421   2
   4   0 -11 -1.1040 1.00496   4
  -4   0  11 0.71155 2.06414   1
  -4   0  11 2.25499 1.93004   6
  -4   0  11 0.09826 1.93957   9
  -2   0  11 2.28329 2.20580  12
  -2   0  11 0.36984 1.67659   6
   2   0 -11 3.89508 2.19426   2
   2   0 -11 1.06061 1.68495   4
  -2   0  11 4.24809 2.19209   1
   2   0 -11 1.14767 1.82966  14
  -2   0  11 1.57467 1.75368   9
   0   0 -11 2.42186 1.56176  14
   0   0 -11 1.40534 1.21595   4
   0   0  11 -0.9338 1.41110   1
   0   0 -11 1.27492 2.25311   2
   0   0  11 0.26474 1.68304   6
   0   0  11 1.12677 2.52550   9
   0   0  11 -1.1988 2.17477  12
   2   0  11 0.45406 1.64754   6
  -2   0 -11 1.65361 2.12394  14
  -2   0 -11 1.26164 1.64254   2
   2   0  11 -0.4550 2.28030  12
   2   0  11 1.25357 2.81538   9
  11  -1 -11 60.6531 5.85686   1
 -11  -1  11 55.3619 5.37945  12
  11   1 -11 56.0352 6.29022   1
 -11   1  11 50.1458 4.93234  12
  -9  -1  11 606.575 18.4914   1
   9  -1 -11 611.123 16.9108   4
  -9  -1  11 619.021 17.3190  12
   9  -1 -11 631.946 19.2711   1
   9   1 -11 597.126 16.5739   4
   9   1 -11 617.408 18.9637   1
  -9   1  11 608.175 18.4303   1
  -9   1  11 604.328 16.9182  12
  -9   1  11 588.548 18.3673   9
   7  -1 -11 126.685 6.44687   4
   7  -1 -11 139.589 9.98573  13
  -7  -1  11 141.972 6.95877  12
  -7  -1  11 141.881 7.94094   1
  -7   1  11 137.456 7.57858   9
   7   1 -11 140.738 7.95319   7
  -7   1  11 136.963 6.96020  12
   7   1 -11 142.496 6.67456   4
  -7   1  11 142.912 7.97984   1
  -5  -1  11 585.028 17.7905   1
   5  -1 -11 597.408 15.8088   4
   5  -1 -11 584.165 15.7598  14
  -5  -1  11 586.780 16.7335   6
   5  -1 -11 581.920 16.0658   7
  -5  -1  11 568.853 16.7001   9
  -5  -1  11 608.676 16.7940  12
   5   1 -11 578.437 16.2858   7
   5   1 -11 581.395 15.5915   4
  -5   1  11 586.034 17.4685   9
  -5   1  11 576.562 16.4043  12
  -5   1  11 598.588 17.9280   1
   5   1 -11 592.301 15.9097  14
  -3  -1  11 207.783 9.39480   9
  -3  -1  11 222.442 9.55272   1
  -3  -1  11 241.189 9.57903   6
   3  -1 -11 245.358 8.69350   4
   3  -1 -11 229.883 8.92418  14
  -3  -1  11 223.185 9.43571  12
   3  -1 -11 221.970 8.91811   2
  -3   1  11 224.862 9.45670  12
   3   1 -11 215.889 8.78334  14
   3   1 -11 219.740 8.19114   4
  -3   1  11 217.693 10.2293   9
  -3   1  11 214.711 9.65089   1
   3   1 -11 218.154 9.17708   2
  -1  -1  11 372.749 12.4100   6
  -1  -1  11 360.655 12.0354   1
   1  -1 -11 350.724 10.8542   4
  -1  -1  11 331.498 13.0208   9
  -1  -1  11 369.070 12.8819  12
   1  -1 -11 349.152 11.7217  14
   1  -1 -11 372.604 12.7430   2
   1   1 -11 364.661 12.9548   2
  -1   1  11 359.523 12.6661   6
  -1   1  11 339.896 13.9526   9
  -1   1  11 355.730 12.7064  12
   1   1 -11 381.924 12.2083  14
   1   1 -11 374.118 11.3253   4
  -1   1  11 358.141 12.5597   1
  -1  -1 -11 213.626 9.82057   2
   1  -1  11 215.820 9.85966  12
   1  -1  11 207.891 8.85391   6
  -1  -1 -11 213.802 8.77540  14
  -1   1 -11 197.385 9.47138   2
   1   1  11 234.190 9.77053   6
   1   1  11 218.014 11.5735   9
   1   1  11 215.526 8.92117   1
   1   1  11 215.488 9.97316  12
  -1   1 -11 231.812 9.41221  14
 -10  -2  11 169.929 9.27068   1
 -10  -2  11 170.979 8.45173  12
  10  -2 -11 170.065 9.35759   1
 -10   2  11 169.982 8.00190  12
  10   2 -11 177.110 9.71808   1
  10   2 -11 168.163 9.61497   7
  -8  -2  11 270.769 10.1984  12
  -8  -2  11 266.649 11.4540   1
   8  -2 -11 255.183 9.90026   4
   8  -2 -11 271.236 11.4512   1
  -8   2  11 255.094 11.2249   9
  -8   2  11 254.325 11.0045   1
   8   2 -11 254.888 11.4266   7
   8   2 -11 264.429 9.80997   4
  -8   2  11 269.016 9.71860  12
   6  -2 -11 198.737 7.86195  14
  -6  -2  11 208.408 8.90481  12
   6  -2 -11 200.655 11.6195  13
   6  -2 -11 217.103 8.65474   4
  -6  -2  11 218.131 10.0334   1
   6   2 -11 220.561 8.21497  14
  -6   2  11 203.067 9.63617   1
   6   2 -11 206.312 8.24830   4
   6   2 -11 211.326 9.43864   7
  -6   2  11 220.273 8.59697  12
  -6   2  11 214.430 9.67270   9
   4  -2 -11 200.862 8.06222   4
  -4  -2  11 199.708 9.12076   1
  -4  -2  11 207.919 8.98531  12
  -4  -2  11 210.462 8.98253   6
   4  -2 -11 191.197 7.77345   2
   4  -2 -11 207.577 8.15879  14
   4   2 -11 203.232 8.50269   7
  -4   2  11 213.242 8.89241  12
   4   2 -11 192.881 8.00959   4
   4   2 -11 200.921 8.44522  14
  -4   2  11 203.918 8.96288   6
  -4   2  11 211.940 9.80329   1
  -4   2  11 208.583 10.0827   9
  -2  -2  11 176.693 8.05527   1
   2  -2 -11 180.602 7.76109  14
  -2  -2  11 179.355 8.24922   6
   2  -2 -11 165.926 7.71673   2
  -2  -2  11 179.935 8.40842  12
   2  -2 -11 177.324 7.32108   4
   2   2 -11 184.562 8.76395   2
  -2   2  11 182.602 9.93541   9
   2   2 -11 180.497 7.60305   4
  -2   2  11 180.801 8.35999  12
   2   2 -11 177.589 7.92989  14
  -2   2  11 177.156 8.51430   6
  -2   2  11 175.988 8.70747   1
   0  -2  11 82.6064 6.36812  12
   0  -2  11 84.9368 5.54174   6
   0  -2 -11 91.3181 6.03876   2
   0  -2 -11 92.0214 5.84421  14
   0   2  11 79.8500 7.46199   9
   0   2  11 92.7434 6.32729   1
   0   2 -11 86.6452 4.96202   4
   0   2  11 86.2673 6.13952  12
   0   2  11 86.3726 5.87078   6
   0   2 -11 80.3225 6.42240   2
   0   2 -11 89.8213 5.57319  14
   9  -3 -11 105.300 6.27955   4
  -9  -3  11 99.3954 6.11271  12
  -9  -3  11 106.946 7.19611   1
   9  -3 -11 103.746 7.51508   1
  -9   3  11 107.328 7.78235   9
  -9   3  11 107.605 6.15107  12
  -9   3  11 141.612 8.02818   1
   9   3 -11 95.0693 5.93724   4
   9   3 -11 105.547 7.74593   7
  -7  -3  11 727.446 20.5992   1
   7  -3 -11 683.774 18.1961   4
   7  -3 -11 664.227 19.4454   1
   7  -3 -11 701.343 26.7170  13
  -7  -3  11 700.755 18.6702  12
  -7   3  11 671.137 19.5814   1
   7   3 -11 682.321 18.0532   4
   7   3 -11 649.655 19.4267   7
  -7   3  11 693.719 17.7961  12
  -7   3  11 680.496 20.0663   9
   5  -3 -11 122.166 8.90280  13
   5  -3 -11 126.578 6.45645  14
  -5  -3  11 139.510 7.79857   1
  -5  -3  11 123.720 7.01729  12
   5  -3 -11 135.143 6.74685   4
  -5  -3  11 144.570 7.23714   6
  -5   3  11 144.476 7.88229   1
   5   3 -11 140.657 6.91786  14
  -5   3  11 131.576 6.57147  12
  -5   3  11 127.357 8.01612   9
   5   3 -11 135.965 7.03517   7
   5   3 -11 130.378 6.71688   4
   3  -3 -11 852.121 20.1040   4
   3  -3 -11 813.044 20.3265   2
  -3  -3  11 833.805 21.3605   6
  -3  -3  11 841.859 21.5340   1
  -3  -3  11 786.059 21.2446  12
   3  -3 -11 836.116 20.6871  14
  -3   3  11 843.809 22.8033   1
  -3   3  11 814.131 21.1451  12
   3   3 -11 832.885 20.6937   7
  -3   3  11 846.683 23.7388   9
   3   3 -11 830.433 20.9019  14
  -3   3  11 829.472 21.8194   6
   3   3 -11 810.071 20.2023   4
  -1  -3  11 70.5161 4.92733   1
   1  -3 -11 71.1042 4.61474   4
  -1  -3  11 64.2474 5.69079  12
  -1  -3  11 79.3796 5.38306   6
   1  -3 -11 72.7254 5.51797   2
   1  -3 -11 74.2895 5.30455  14
  -1   3  11 80.2953 6.22936   1
  -1   3  11 67.9179 6.83532   9
  -1   3  11 78.3303 5.65681  12
  -1   3  11 66.0067 5.58015   6
   1   3 -11 68.1841 5.91740   2
   1   3 -11 66.4406 4.92880  14
   1   3 -11 71.9873 5.02752   4
  -1  -3 -11 470.130 15.2733   2
   1  -3  11 482.092 14.0455   6
  -1  -3 -11 504.213 14.8248  14
   1  -3  11 484.975 15.8404  12
  -1   3 -11 448.077 13.4043   4
  -1   3 -11 489.560 15.9216   2
   1   3  11 468.089 15.9096  12
   1   3  11 479.128 15.3884   1
  -1   3 -11 483.540 14.8196  14
 -10  -4  11 6.13167 2.62979  12
  10  -4 -11 4.38798 2.86372   1
  10  -4 -11 3.18752 2.03319   4
 -10  -4  11 5.87875 2.89039   1
 -10   4  11 4.93155 2.45383   9
 -10   4  11 5.53488 2.32170  12
  10   4 -11 4.02426 3.16917   7
   8  -4 -11 51.1327 5.24772   4
  -8  -4  11 54.1084 5.75738   1
  -8  -4  11 43.8479 4.55673  12
   8  -4 -11 54.6036 5.62715   1
  -8   4  11 51.3198 4.93183   1
  -8   4  11 50.8102 5.97369   9
   8   4 -11 51.9233 4.62961   4
   8   4 -11 47.0013 5.45405   7
  -8   4  11 49.4711 4.37824  12
  -6  -4  11 29.5346 3.82328  12
   6  -4 -11 27.5337 3.48917   4
   6  -4 -11 26.5238 5.07442  13
  -6  -4  11 27.8008 4.24916   1
   6  -4 -11 26.6958 3.34702  14
   6  -4 -11 29.1037 3.87940   1
  -6   4  11 30.5533 3.41420  12
   6   4 -11 26.8100 4.14735   7
  -6   4  11 28.1368 4.32784   1
   6   4 -11 30.7218 3.82353   4
  -6   4  11 30.1031 4.69960   9
   6   4 -11 23.8903 3.11686  14
   4  -4 -11 61.5827 4.74748   4
   4  -4 -11 56.1451 4.60338  14
  -4  -4  11 58.9154 5.16674   1
  -4  -4  11 59.2892 4.72235  12
  -4  -4  11 61.6813 5.08908   6
   4  -4 -11 59.1795 6.24298  13
   4   4 -11 63.0750 5.06209  14
   4   4 -11 58.8788 4.48761   4
  -4   4  11 60.5593 4.83896  12
   4   4 -11 59.5127 5.12476   7
  -4   4  11 62.7840 5.85724   1
  -4   4  11 58.8597 6.12619   9
   2  -4 -11 95.4048 5.48078   4
  -2  -4  11 97.0047 6.05756   6
   2  -4 -11 102.133 6.11490  14
  -2  -4  11 99.8868 5.85333   1
   2  -4 -11 85.0685 5.69990   2
  -2  -4  11 78.8850 5.66677  12
   2   4 -11 98.0758 6.29810  14
  -2   4  11 97.6023 6.26468  12
   2   4 -11 96.8288 5.51307   4
  -2   4  11 86.2950 6.40379   1
  -2   4  11 99.3021 7.84147   9
   0  -4 -11 49.0270 4.93733  14
   0  -4  11 44.7750 4.14319   6
   0  -4 -11 45.2438 5.02077   2
   0  -4  11 44.7478 4.80027  12
   0   4  11 52.2098 5.38721  12
   0   4  11 51.1266 5.21700   6
   0   4  11 46.8393 6.41275   9
   0   4  11 48.6857 5.26103   1
   0   4 -11 47.8973 4.62176   4
   0   4 -11 45.1037 4.18196  14
   9  -5 -11 321.968 13.3888   1
  -9  -5  11 315.645 11.7761  12
   9  -5 -11 316.091 11.5848   4
   9   5 -11 313.006 13.5200   7
  -9   5  11 304.562 13.1640   9
  -7  -5  11 198.934 9.90609   1
   7  -5 -11 199.384 9.86328   1
  -7  -5  11 194.158 8.83387  12
   7  -5 -11 204.300 8.67155   4
   7   5 -11 181.172 9.59444   7
  -7   5  11 199.707 9.53230   1
   7   5 -11 201.407 8.65903   4
  -7   5  11 192.169 10.1996   9
  -5  -5  11 248.903 10.0546  12
  -5  -5  11 269.537 10.7112   6
   5  -5 -11 255.790 12.9278  13
   5  -5 -11 255.102 9.53721  14
  -5  -5  11 270.284 11.1129   1
   5  -5 -11 258.595 9.83374   4
  -5   5  11 256.308 11.5934   9
   5   5 -11 266.521 11.0744   7
  -5   5  11 244.217 11.3180   1
  -5   5  11 257.941 9.49160  12
   5   5 -11 245.481 9.50775   4
   5   5 -11 258.390 9.96488  14
   3  -5 -11 198.393 8.09155   4
  -3  -5  11 203.536 8.71276   1
  -3  -5  11 189.095 8.57935  12
  -3  -5  11 207.617 9.08979   6
   3  -5 -11 184.561 8.23391  14
   3   5 -11 188.291 8.88846   7
  -3   5  11 204.252 10.7889   9
   3   5 -11 200.214 9.02669  14
   3   5 -11 191.290 8.19170   4
  -3   5  11 194.525 10.1803   1
  -3   5  11 192.430 8.21681  12
  -1  -5  11 246.970 9.60529   6
   1  -5 -11 241.327 9.62261  14
   1  -5 -11 221.236 9.23621   2
   1   5 -11 238.720 10.0394  14
   1   5 -11 238.681 9.51392   4
  -1   5  11 221.189 9.51520  12
  -1   5  11 239.638 12.4371   9
  -1   5  11 236.197 11.2102   1
   8  -6 -11 3.45173 2.78716   1
  -8  -6  11 1.52486 2.50893   1
  -8  -6  11 0.79285 1.45779  12
  -8   6  11 4.55041 2.90730   9
   8   6 -11 2.05378 2.80651   7
   6  -6 -11 57.6455 5.77743   1
  -6  -6  11 57.6840 5.06836  12
  -6  -6  11 56.4917 5.80439   1
   6  -6 -11 67.1668 5.18032  14
  -6  -6  11 58.9160 5.87045   6
  -6   6  11 60.9198 6.24692   9
   6   6 -11 59.3156 5.17590   4
  -6   6  11 57.8843 5.83882   1
   6   6 -11 61.6238 5.94278   7
   6   6 -11 55.5184 4.70832  14
  -4  -6  11 53.9551 5.08507   1
  -4  -6  11 51.6046 4.91652   6
   4  -6 -11 51.8564 4.73797   4
   4  -6 -11 53.9071 4.79212  14
   4   6 -11 40.2705 4.83673   7
   4   6 -11 57.7207 5.15663   4
   4   6 -11 51.0176 5.17767  14
  -4   6  11 58.6625 5.59395   1
  -4   6  11 53.0671 6.12309   9
  -2  -6  11 39.4093 4.44039   6
   2  -6 -11 33.3596 4.15777  14
   2  -6 -11 33.1354 3.57004   4
  -2  -6  11 39.3866 3.78175   1
  -2   6  11 30.9927 5.40989   9
   2   6 -11 36.1642 4.33485   4
  -2   6  11 48.3009 4.86217  12
   2   6 -11 38.7770 4.51761  14
  -2   6  11 40.5425 5.49251   1
   2   6 -11 35.8940 4.48047   7
  -7  -7  11 125.322 8.25754  12
  -7  -7  11 161.982 9.36772   1
   7  -7 -11 156.745 8.93096   1
  -7   7  11 154.291 9.59065   9
   7   7 -11 141.809 8.37587   7
   5  -7 -11 491.604 14.8666   4
  -5  -7  11 512.305 16.2535   1
  -5   7  11 491.638 17.5471   9
   5   7 -11 499.151 15.3132   4
   5   7 -11 498.805 16.6369   7
   5   7 -11 457.760 14.9053  14
  -5   7  11 476.312 16.6361   1
  -3  -7  11 186.078 8.63026   6
   3  -7 -11 178.055 8.35239  14
   3  -7 -11 167.037 7.65982   4
  -3  -7  11 160.660 7.84335   1
  -3   7  11 163.126 10.0147   9
   3   7 -11 177.770 8.19278   4
   3   7 -11 174.504 8.62522  14
  -3   7  11 176.063 9.96454   1
   3   7 -11 173.755 9.26774   7
  -4  -8  11 77.0545 5.85700   1
  -4  -8  11 79.1931 6.17234   6
   4  -8 -11 80.8217 5.67398   4
   4  -8 -11 72.7140 5.61771  14
  -4   8  11 78.7150 7.00350   1
   4   8 -11 76.3786 6.81045   7
   4   8 -11 75.5030 6.14982   4
  -4   8  11 71.4356 7.21044   9
  10   0 -12 10.1868 2.37749   4
 -10   0  12 7.07783 2.36496   1
 -10   0  12 11.5061 2.57791  12
  -8   0  12 975.683 24.0984  12
   8   0 -12 962.224 23.4679   4
   8   0 -12 941.683 25.1853   7
  -8   0  12 961.660 25.9526   1
   6   0 -12 41.0276 4.31545   4
  -6   0  12 36.3591 4.95339   1
  -6   0  12 31.7906 4.19275   9
   6   0 -12 37.0712 3.83899  14
   6   0 -12 27.2482 3.76113   7
  -6   0  12 37.5113 4.19497  12
   4   0 -12 938.244 22.5066   4
  -4   0  12 942.444 24.1230  12
   4   0 -12 925.696 23.1942   2
  -4   0  12 997.049 25.3034   1
  -4   0  12 964.341 24.6127   6
  -4   0  12 911.362 24.8290   9
  -2   0  12 5.13915 2.40508   6
  -2   0  12 14.8908 3.40176   1
  -2   0  12 3.78448 2.65815   9
   2   0 -12 6.17475 2.53445  14
   2   0 -12 8.91092 2.91591   2
  -2   0  12 4.91917 2.14242  12
   2   0 -12 3.22802 2.06217   4
   0   0 -12 742.571 19.9420  14
   0   0  12 780.464 22.0916  12
   0   0  12 762.690 20.1310   1
   0   0 -12 748.162 21.4447   2
   0   0  12 793.035 21.1975   6
   9  -1 -12 16.7923 2.95072   4
  -9  -1  12 15.9594 2.94493  12
  -9  -1  12 18.6551 3.55604   1
  -9   1  12 17.6825 3.33023  12
   9   1 -12 13.5306 2.92799   4
   9   1 -12 11.6981 3.70922   7
  -9   1  12 18.4906 3.74615   1
  -9   1  12 12.9181 3.34573   9
  -7  -1  12 88.9872 7.03507   1
   7  -1 -12 75.8793 5.97079   7
   7  -1 -12 77.8139 5.28700   4
  -7  -1  12 81.1091 5.96394  12
  -7   1  12 85.7171 6.80882   1
  -7   1  12 83.3698 6.65246   9
   7   1 -12 84.9741 5.78607   4
  -7   1  12 83.9999 5.59003  12
   7   1 -12 86.7435 6.59254   7
  -5  -1  12 89.5409 6.33419  12
  -5  -1  12 90.1172 6.78301   1
   5  -1 -12 80.7252 5.18925  14
  -5  -1  12 78.7212 5.87008   6
   5  -1 -12 82.1902 5.56748   4
   5   1 -12 79.5451 5.24608  14
  -5   1  12 90.6015 6.82777   9
   5   1 -12 90.8021 5.50745   4
  -5   1  12 96.8717 7.13808   1
  -5   1  12 96.6300 6.09641  12
   5   1 -12 88.4374 5.76445   7
   3  -1 -12 13.6042 2.80918   4
   3  -1 -12 12.7461 2.60924  14
   3  -1 -12 12.4240 2.97747   2
  -3  -1  12 6.27994 2.76066  12
  -3  -1  12 12.8712 3.11495   6
  -3  -1  12 11.0567 2.63602   1
  -3   1  12 12.7280 3.24116  12
   3   1 -12 14.1505 3.05276  14
  -3   1  12 12.9937 3.53115   9
  -3   1  12 8.90254 2.95918   1
   3   1 -12 11.5583 3.07213   2
  -3   1  12 12.4839 3.10342   6
   3   1 -12 12.3873 2.46090   4
  -1  -1  12 95.4054 6.87072  12
   1  -1 -12 83.1604 5.24972   4
   1  -1 -12 85.1891 5.57902  14
   1  -1 -12 92.9869 6.66478   2
  -1  -1  12 91.9644 6.20215   6
  -1   1  12 87.5574 6.66948  12
  -1   1  12 86.7143 6.39401   6
  -1   1  12 84.8960 7.61561   9
   1   1 -12 77.6149 5.99009   2
  -1   1  12 89.9278 6.21548   1
   1   1 -12 89.8975 6.16352  14
   1   1 -12 90.8240 5.63952   4
 -10   2  12 200.620 10.4579   9
  -8  -2  12 388.753 13.4783  12
   8  -2 -12 384.821 12.8516   4
  -8  -2  12 426.734 15.4417   1
  -8   2  12 406.293 14.8310   1
  -8   2  12 406.007 14.9223   9
  -8   2  12 406.782 13.1743  12
   8   2 -12 398.098 14.7390   7
   8   2 -12 384.342 12.6203   4
   6  -2 -12 439.511 13.2392  14
  -6  -2  12 438.993 15.4940   1
  -6  -2  12 451.221 14.4794  12
   6  -2 -12 442.918 13.6284   4
  -6   2  12 439.356 15.3820   9
  -6   2  12 450.634 13.9416  12
   6   2 -12 420.477 14.3800   7
   6   2 -12 435.803 13.5240   4
  -6   2  12 466.480 15.9461   1
   6   2 -12 409.936 13.0192  14
   4  -2 -12 367.473 11.7232   4
  -4  -2  12 349.803 13.0269   1
   4  -2 -12 340.142 11.6133  14
  -4  -2  12 339.203 12.5293  12
  -4  -2  12 367.368 12.9691   6
  -4   2  12 350.630 13.7109   1
   4   2 -12 348.447 11.7227   4
  -4   2  12 346.881 13.9681   9
  -4   2  12 342.812 12.2497  12
   4   2 -12 365.680 12.3048  14
   2  -2 -12 326.700 11.7671   2
  -2  -2  12 331.489 11.8011   1
  -2  -2  12 339.414 12.2896   6
  -2  -2  12 317.842 12.4955  12
   2  -2 -12 314.439 10.5847   4
   2  -2 -12 326.262 11.5925  14
  -2   2  12 299.693 13.5302   9
  -2   2  12 316.750 12.3463  12
   2   2 -12 315.780 12.2708   2
   2   2 -12 317.622 10.7970   4
   2   2 -12 321.605 11.7064  14
  -2   2  12 319.866 12.5354   1
   0  -2 -12 85.4199 6.50451   2
   0  -2 -12 97.7695 5.96411  14
   0  -2  12 98.0614 6.72006  12
   0  -2  12 94.7536 6.46660   6
   0   2 -12 94.1332 6.63247   2
   0   2 -12 105.069 5.91412   4
   0   2  12 98.9670 6.88756   6
   0   2  12 105.005 7.01350  12
   0   2 -12 93.6591 6.30181  14
   0   2  12 95.9838 6.45225   1
   0   2  12 102.236 8.55914   9
  -9  -3  12 67.9598 6.04681   1
   9  -3 -12 59.9106 5.71199   1
  -9  -3  12 59.0670 5.81954  12
   9  -3 -12 64.8527 5.59167   4
  -9   3  12 64.0759 6.45516   9
   9   3 -12 66.2991 6.57138   7
  -9   3  12 65.5592 5.13304  12
   9   3 -12 59.0391 4.99442   4
  -9   3  12 68.4890 5.79018   1
  -7  -3  12 18.3225 3.54075  12
  -7  -3  12 16.7979 3.32458   1
   7  -3 -12 13.5514 3.16768   4
   7   3 -12 10.4083 2.74726   4
  -7   3  12 11.7038 3.16270   9
  -7   3  12 8.49834 2.65317  12
  -7   3  12 13.7022 3.40567   1
   7   3 -12 17.2178 3.74559   7
  -5  -3  12 9.91843 2.96028   6
   5  -3 -12 8.01927 2.17778   4
  -5  -3  12 9.42640 2.65269   1
   5  -3 -12 7.92973 2.57694  14
  -5  -3  12 6.68510 2.76463  12
  -5   3  12 9.97562 3.31941   1
   5   3 -12 12.2790 2.90296   4
  -5   3  12 6.77976 2.51549  12
   5   3 -12 6.19542 2.34724  14
  -5   3  12 11.5905 3.08629   9
   5   3 -12 10.4111 2.79737   7
  -3  -3  12 47.7874 4.85168   6
   3  -3 -12 45.0434 4.14119  14
  -3  -3  12 43.5492 4.94336  12
   3  -3 -12 49.9401 4.41525   4
  -3  -3  12 57.7236 5.11095   1
  -3   3  12 46.1522 5.51403   1
  -3   3  12 45.4602 4.97565  12
  -3   3  12 50.6413 6.10522   9
   3   3 -12 43.8879 4.57428  14
   3   3 -12 49.2318 4.92523   4
   1  -3 -12 0.69271 2.04338  14
   1  -3 -12 4.82220 2.39407   2
  -1  -3  12 -1.8241 2.23415  12
  -1  -3  12 4.30409 2.17144   6
  -1   3  12 2.87413 2.30864   6
  -1   3  12 4.16780 2.69753  12
  -1   3  12 2.31196 2.34173   1
   1   3 -12 -0.5993 1.40068  14
  -1   3  12 -0.6373 2.81526   9
   1   3 -12 1.06905 2.00373   4
  -8  -4  12 30.7487 4.43219   1
  -8  -4  12 29.6259 4.35344  12
   8  -4 -12 31.5835 4.35850   1
   8  -4 -12 31.8351 4.28991   4
   8   4 -12 29.9915 4.57697   7
  -8   4  12 36.8450 5.22921   9
  -8   4  12 28.9638 4.58068   1
   8   4 -12 33.7048 4.22526   4
  -8   4  12 29.2081 3.64449  12
   6  -4 -12 416.095 13.0649   4
  -6  -4  12 377.778 13.2253  12
  -6  -4  12 409.640 14.4964   1
   6  -4 -12 352.935 12.1005  14
   6   4 -12 389.236 13.9662   7
  -6   4  12 378.626 12.2691  12
  -6   4  12 375.886 14.5777   9
  -6   4  12 386.166 14.8865   1
  -4  -4  12 30.8290 4.38783   6
   4  -4 -12 25.9261 3.29702   4
  -4  -4  12 23.3914 3.53644   1
   4  -4 -12 26.8241 3.80069  14
  -4  -4  12 26.6624 4.27280  12
   4   4 -12 25.3883 3.86823   7
   4   4 -12 25.5620 3.67665  14
   4   4 -12 37.8426 4.52949   4
  -4   4  12 25.6576 3.46922  12
  -4   4  12 24.6845 4.80906   9
  -2  -4  12 525.118 15.8200   6
   2  -4 -12 501.495 15.1274  14
   2  -4 -12 507.592 14.2538   4
  -2  -4  12 494.757 15.9250  12
  -2   4  12 487.486 18.1099   9
  -2   4  12 520.139 17.3943   1
   2   4 -12 500.155 15.6117  14
   2   4 -12 501.469 14.9613   4
  -2   4  12 509.389 15.9709  12
  -7  -5  12 -0.4820 1.59012   1
  -7  -5  12 2.66541 1.91407  12
   7  -5 -12 -0.3664 2.25971   4
   7   5 -12 -0.8304 2.33892   7
  -7   5  12 -1.3930 2.25170   1
  -7   5  12 0.40825 2.74292   9
   7   5 -12 1.18302 2.13004   4
  -5  -5  12 3.96228 2.01657   1
  -5  -5  12 1.95071 2.15849   6
   5  -5 -12 0.40441 2.10454   4
  -5  -5  12 5.06204 2.59578  12
   5  -5 -12 5.49494 1.90417  14
  -5   5  12 1.80489 1.94454  12
   5   5 -12 1.14411 2.37184   7
   5   5 -12 7.91909 2.67468  14
  -5   5  12 3.50389 2.27075   1
   5   5 -12 1.90875 1.69415   4
  -5   5  12 -0.0721 2.71277   9
  -3  -5  12 31.1380 3.98944   1
  -3  -5  12 43.7663 5.08264   6
   3  -5 -12 36.1319 4.05231  14
  -3   5  12 37.3867 5.53995   9
   3   5 -12 40.4043 4.36988   4
   3   5 -12 40.1378 4.55202  14
  -3   5  12 42.7698 5.57517   1
  -3   5  12 38.1733 4.29157  12
   6  -6 -12 96.7469 6.49225   4
  -6  -6  12 95.7597 7.23438   1
  -6  -6  12 90.8227 5.99649  12
  -6   6  12 102.470 7.81285   1
   6   6 -12 98.3656 6.17627   4
   6   6 -12 91.2672 7.04729   7
  -6   6  12 103.411 7.94033   9
   4  -6 -12 574.815 16.7484  14
  -4  -6  12 615.907 18.2110   6
  -4  -6  12 562.773 17.1101  12
  -4  -6  12 588.504 17.6067   1
   4   6 -12 598.188 17.3594   4
  -4   6  12 573.384 19.8569   9
   4   6 -12 603.374 17.8016  14
  -4   6  12 608.122 19.8014   1
  -8   0  13 -0.8537 1.56952   1
   8   0 -13 1.80414 1.67774   4
   8   0 -13 0.49609 2.24031   7
  -8   0  13 -0.4369 2.33751  12
  -6   0  13 0.38901 2.21214   1
   6   0 -13 -1.3802 1.43370   4
   6   0 -13 -1.2434 1.17289  14
  -6   0  13 2.54201 2.31629  12
  -4   0  13 0.12842 2.18859  12
   4   0 -13 -0.4863 1.93838   4
   4   0 -13 1.74747 2.26216  14
  -4   0  13 0.57713 2.24417   1
  -4   0  13 1.49501 2.25728   6
  -7  -1  13 488.469 16.8772   1
   7  -1 -13 464.382 14.6418   4
  -7  -1  13 465.262 15.3278  12
   7   1 -13 463.772 15.6294   7
   7   1 -13 471.029 14.7313   4
  -7   1  13 502.646 17.2254   1
  -7   1  13 487.940 15.1781  12
  -7   1  13 460.542 16.4337   9
  -5  -1  13 72.4656 6.48347   1
  -5  -1  13 66.5643 5.99109  12
   5  -1 -13 64.9816 4.87754   4
  -5   1  13 60.3928 6.13244   9
   5   1 -13 66.6730 4.87776   4
  -5   1  13 64.4993 6.33057   1
  -5   1  13 65.7489 5.81800  12
   5   1 -13 58.2546 5.09156  14
  -3  -1  13 446.442 15.4729  12
  -3  -1  13 501.781 16.2168   6
   3  -1 -13 453.456 13.8168   4
   3  -1 -13 450.089 14.4563  14
   3  -1 -13 443.408 14.6785   2
  -3  -1  13 497.678 16.0722   1
  -3   1  13 449.328 16.9729   9
   3   1 -13 470.092 14.9511  14
   3   1 -13 458.428 13.8859   4
  -3   1  13 453.831 15.6115  12
  -3   1  13 486.970 16.2270   6
  -3   1  13 483.027 16.2766   1
   8  -2 -13 144.626 7.83179   4
  -8  -2  13 153.129 8.98203   1
  -8  -2  13 153.027 8.37401  12
   8   2 -13 141.081 7.68647   4
  -8   2  13 140.128 7.73583  12
   8   2 -13 153.391 9.00885   7
  -8   2  13 147.017 8.78107   1
  -8   2  13 140.263 8.90972   9
  -6  -2  13 132.613 8.01454  12
   6  -2 -13 88.1671 9.87571  14
  -6  -2  13 147.862 8.91679   1
   6  -2 -13 136.011 7.25655   4
  -6   2  13 133.733 8.70386   1
  -6   2  13 141.938 7.85203  12
   6   2 -13 121.614 6.78155  14
   6   2 -13 141.356 7.53861   4
   6   2 -13 132.898 7.64477   7
  -4  -2  13 158.107 8.94345  12
   4  -2 -13 159.199 7.76117   4
  -4  -2  13 175.743 9.16506   1
   4  -2 -13 159.097 8.08678  14
  -4  -2  13 164.506 8.75970   6
  -4   2  13 156.812 9.85241   9
  -4   2  13 177.397 9.91900   1
  -4   2  13 173.441 8.62938  12
   4   2 -13 170.217 8.11462  14
   4   2 -13 170.536 8.10244   4
   7  -3 -13 126.991 6.99983   4
  -7  -3  13 130.419 8.50423   1
  -7  -3  13 126.319 7.73423  12
   7   3 -13 136.415 7.12630   4
  -7   3  13 147.586 9.13964   1
  -7   3  13 132.634 8.99341   9
  -7   3  13 134.387 7.49022  12
  -5  -3  13 319.531 12.6129   1
  -5  -3  13 317.135 12.6092   6
  -5  -3  13 322.659 12.2810  12
   5  -3 -13 310.748 11.2712   4
   5   3 -13 315.272 11.5652  14
  -5   3  13 329.777 13.8725   1
  -5   3  13 296.849 13.4891   9
  -5   3  13 328.217 11.9556  12
   5   3 -13 332.578 11.7644   4
  -6   4  13 8.66498 3.51285   9
   0   0   0    0.00    0.00   0

 _exptl_absorpt_process_details
)
 SADABS 2016/2: Krause, L., Herbst-Irmer, R., Sheldrick G.M. & Stalke D.,
 J. Appl. Cryst. 48 (2015) 3-10
)
 _exptl_absorpt_correction_type   multi-scan
 _exptl_absorpt_correction_T_max  0.7479
 _exptl_absorpt_correction_T_min  0.5771
 _exptl_special_details
)
 The following wavelength and cell were deduced by SADABS from the
 direction cosines etc. They are given here for emergency use only:
 CELL 0.71061    6.953    7.591    7.466   90.001  116.392   90.013
)

;
_shelx_hkl_checksum              81860
loop_
_space_group_symop_operation_xyz
'x, y, z'
'-x, y, -z+1/2'
'x+1/2, y+1/2, z'
'-x+1/2, y+1/2, -z+1/2'
'-x, -y, -z'
'x, -y, z-1/2'
'-x+1/2, -y+1/2, -z'
'x+1/2, -y+1/2, z-1/2'
loop_
_atom_site_label
_atom_site_type_symbol
_atom_site_fract_x
_atom_site_fract_y
_atom_site_fract_z
_atom_site_U_iso_or_equiv
_atom_site_adp_type
_atom_site_occupancy
_atom_site_site_symmetry_order
_atom_site_calc_flag
_atom_site_refinement_flags_posn
_atom_site_refinement_flags_adp
_atom_site_refinement_flags_occupancy
_atom_site_disorder_assembly
_atom_site_disorder_group
Co Co 0.000000 0.500000 0.000000 0.00667(4) Uani 1 2 d S . P . .
S S 0.000000 0.15394(3) 0.250000 0.00590(4) Uani 1 2 d S T P . .
O1 O 0.17252(8) 0.04305(8) 0.40031(8) 0.01245(8) Uani 1 1 d . . . . .
O2 O 0.09729(8) 0.26680(7) 0.15409(8) 0.01077(8) Uani 1 1 d . . . . .
O3 O 0.000000 0.63844(9) 0.250000 0.00956(10) Uani 1 2 d S T P . .
H H 0.102(2) 0.703(2) 0.294(2) 0.028(4) Uiso 1 1 d . . . . .
loop_
_atom_site_aniso_label
_atom_site_aniso_U_11
_atom_site_aniso_U_22
_atom_site_aniso_U_33
_atom_site_aniso_U_23
_atom_site_aniso_U_13
_atom_site_aniso_U_12
Co 0.00626(5) 0.00668(5) 0.00709(5) 0.00044(3) 0.00322(4) -0.00011(3)
S 0.00478(7) 0.00550(7) 0.00729(7) 0.000 0.00277(5) 0.000
O1 0.00762(16) 0.0141(2) 0.01452(19) 0.00713(16) 0.00439(15) 0.00368(15)
O2 0.01087(17) 0.00944(17) 0.01480(19) 0.00458(14) 0.00840(15) 0.00154(14)
O3 0.0095(2) 0.0102(2) 0.0096(2) 0.000 0.00499(19) 0.000
loop_
_atom_type_symbol
_atom_type_description
_atom_type_scat_dispersion_real
_atom_type_scat_dispersion_imag
_atom_type_scat_source
O O 0.0106 0.0060 'International Tables Vol C Tables 4.2.6.8 and 6.1.1.4'
H H 0.0000 0.0000 'International Tables Vol C Tables 4.2.6.8 and 6.1.1.4'
S S 0.1246 0.1234 'International Tables Vol C Tables 4.2.6.8 and 6.1.1.4'
Co Co 0.3494 0.9721 'International Tables Vol C Tables 4.2.6.8 and 6.1.1.4'
loop_
_geom_angle_atom_site_label_1
_geom_angle_atom_site_label_2
_geom_angle_atom_site_label_3
_geom_angle
_geom_angle_site_symmetry_1
_geom_angle_site_symmetry_3
_geom_angle_publ_flag
O2 Co O2 180.0 . 5_565 ?
O2 Co O1 94.51(2) . 8_455 ?
O2 Co O1 85.49(2) 5_565 8_455 ?
O2 Co O1 85.49(2) . 4 ?
O2 Co O1 94.51(2) 5_565 4 ?
O1 Co O1 180.00(3) 8_455 4 ?
O2 Co O3 93.08(2) . . ?
O2 Co O3 86.92(2) 5_565 . ?
O1 Co O3 86.356(18) 8_455 . ?
O1 Co O3 93.644(18) 4 . ?
O2 Co O3 86.92(2) . 5_565 ?
O2 Co O3 93.08(2) 5_565 5_565 ?
O1 Co O3 93.644(17) 8_455 5_565 ?
O1 Co O3 86.356(17) 4 5_565 ?
O3 Co O3 180.0 . 5_565 ?
O2 Co O2 81.699(13) . 8_455 ?
O2 Co O2 98.301(14) 5_565 8_455 ?
O1 Co O2 43.119(17) 8_455 8_455 ?
O1 Co O2 136.881(17) 4 8_455 ?
O3 Co O2 127.900(13) . 8_455 ?
O3 Co O2 52.099(13) 5_565 8_455 ?
O2 Co O2 98.301(14) . 4 ?
O2 Co O2 81.699(14) 5_565 4 ?
O1 Co O2 136.881(17) 8_455 4 ?
O1 Co O2 43.119(17) 4 4 ?
O3 Co O2 52.100(13) . 4 ?
O3 Co O2 127.901(13) 5_565 4 ?
O2 Co O2 180.000(18) 8_455 4 ?
O2 Co O2 137.542(18) . 6_565 ?
O2 Co O2 42.458(19) 5_565 6_565 ?
O1 Co O2 112.43(2) 8_455 6_565 ?
O1 Co O2 67.57(2) 4 6_565 ?
O3 Co O2 119.74(2) . 6_565 ?
O3 Co O2 60.26(2) 5_565 6_565 ?
O2 Co O2 95.775(16) 8_455 6_565 ?
O2 Co O2 84.225(16) 4 6_565 ?
O2 Co O2 42.458(18) . 2 ?
O2 Co O2 137.542(19) 5_565 2 ?
O1 Co O2 67.57(2) 8_455 2 ?
O1 Co O2 112.43(2) 4 2 ?
O3 Co O2 60.26(2) . 2 ?
O3 Co O2 119.74(2) 5_565 2 ?
O2 Co O2 84.225(17) 8_455 2 ?
O2 Co O2 95.775(16) 4 2 ?
O2 Co O2 180.000(10) 6_565 2 ?
O1 S O1 109.87(5) . 2 ?
O1 S O2 108.72(3) . . ?
O1 S O2 110.06(3) 2 . ?
O1 S O2 110.06(3) . 2 ?
O1 S O2 108.72(3) 2 2 ?
O2 S O2 109.41(4) . 2 ?
S O1 Co 136.87(3) . 4_545 ?
S O1 O2 35.890(18) . . ?
Co O1 O2 101.01(3) 4_545 . ?
S O1 O1 35.07(2) . 2 ?
Co O1 O1 141.25(4) 4_545 2 ?
O2 O1 O1 60.52(2) . 2 ?
S O1 O2 35.211(19) . 2 ?
Co O1 O2 143.97(3) 4_545 2 ?
O2 O1 O2 60.41(3) . 2 ?
O1 O1 O2 59.69(2) 2 2 ?
S O1 O2 129.07(3) . 4_545 ?
Co O1 O2 47.219(16) 4_545 4_545 ?
O2 O1 O2 110.06(2) . 4_545 ?
O1 O1 O2 103.99(3) 2 4_545 ?
O2 O1 O2 163.33(3) 2 4_545 ?
S O1 O3 169.38(4) . 7_556 ?
Co O1 O3 48.572(13) 4_545 7_556 ?
O2 O1 O3 147.05(3) . 7_556 ?
O1 O1 O3 150.097(19) 2 7_556 ?
O2 O1 O3 134.22(3) 2 7_556 ?
O2 O1 O3 61.549(19) 4_545 7_556 ?
S O1 O2 114.32(3) . 8_556 ?
Co O1 O2 42.719(16) 4_545 8_556 ?
O2 O1 O2 86.74(2) . 8_556 ?
O1 O1 O2 147.05(2) 2 8_556 ?
O2 O1 O2 102.50(3) 2 8_556 ?
O2 O1 O2 89.94(2) 4_545 8_556 ?
O3 O1 O2 62.54(2) 7_556 8_556 ?
S O1 O3 92.83(3) . 3_545 ?
Co O1 O3 44.721(14) 4_545 3_545 ?
O2 O1 O3 57.77(2) . 3_545 ?
O1 O1 O3 103.00(3) 2 3_545 ?
O2 O1 O3 114.98(3) 2 3_545 ?
O2 O1 O3 62.79(2) 4_545 3_545 ?
O3 O1 O3 93.29(2) 7_556 3_545 ?
O2 O1 O3 56.945(17) 8_556 3_545 ?
S O1 O2 125.28(3) . 6_556 ?
Co O1 O2 97.51(2) 4_545 6_556 ?
O2 O1 O2 160.77(3) . 6_556 ?
O1 O1 O2 101.33(2) 2 6_556 ?
O2 O1 O2 106.18(2) 2 6_556 ?
O2 O1 O2 79.10(2) 4_545 6_556 ?
O3 O1 O2 52.147(16) 7_556 6_556 ?
O2 O1 O2 110.66(2) 8_556 6_556 ?
O3 O1 O2 138.58(2) 3_545 6_556 ?
S O1 O3 103.74(3) . 1_545 ?
Co O1 O3 97.79(2) 4_545 1_545 ?
O2 O1 O3 118.78(3) . 1_545 ?
O1 O1 O3 68.671(11) 2 1_545 ?
O2 O1 O3 118.12(2) 2 1_545 ?
O2 O1 O3 52.201(17) 4_545 1_545 ?
O3 O1 O3 82.652(18) 7_556 1_545 ?
O2 O1 O3 138.69(2) 8_556 1_545 ?
O3 O1 O3 107.48(2) 3_545 1_545 ?
O2 O1 O3 52.821(15) 6_556 1_545 ?
S O1 O2 111.40(3) . 7_556 ?
Co O1 O2 77.47(2) 4_545 7_556 ?
O2 O1 O2 108.14(3) . 7_556 ?
O1 O1 O2 138.73(3) 2 7_556 ?
O2 O1 O2 79.91(2) 2 7_556 ?
O2 O1 O2 116.71(2) 4_545 7_556 ?
O3 O1 O2 58.80(2) 7_556 7_556 ?
O2 O1 O2 44.668(19) 8_556 7_556 ?
O3 O1 O2 101.37(2) 3_545 7_556 ?
O2 O1 O2 80.888(17) 6_556 7_556 ?
O3 O1 O2 132.778(18) 1_545 7_556 ?
S O2 Co 132.61(3) . . ?
S O2 O1 35.395(18) . . ?
Co O2 O1 161.53(3) . . ?
S O2 O1 34.730(18) . 2 ?
Co O2 O1 119.45(3) . 2 ?
O1 O2 O1 59.80(3) . 2 ?
S O2 O2 35.29(2) . 2 ?
Co O2 O2 102.637(19) . 2 ?
O1 O2 O2 60.20(2) . 2 ?
O1 O2 O2 59.39(2) 2 2 ?
S O2 O3 108.37(3) . 3_545 ?
Co O2 O3 118.63(2) . 3_545 ?
O1 O2 O3 73.96(2) . 3_545 ?
O1 O2 O3 114.26(3) 2 3_545 ?
O2 O2 O3 129.81(3) 2 3_545 ?
S O2 O1 159.72(3) . 4 ?
Co O2 O1 47.287(17) . 4 ?
O1 O2 O1 136.37(2) . 4 ?
O1 O2 O1 163.33(3) 2 4 ?
O2 O2 O1 128.073(18) 2 4 ?
O3 O2 O1 73.61(2) 3_545 4 ?
S O2 O3 137.25(3) . 5_565 ?
Co O2 O3 48.308(17) . 5_565 ?
O1 O2 O3 149.01(3) . 5_565 ?
O1 O2 O3 102.92(3) 2 5_565 ?
O2 O2 O3 136.44(3) 2 5_565 ?
O3 O2 O3 93.540(19) 3_545 5_565 ?
O1 O2 O3 61.061(19) 4 5_565 ?
S O2 O1 93.12(3) . 8_455 ?
Co O2 O1 42.777(14) . 8_455 ?
O1 O2 O1 128.45(3) . 8_455 ?
O1 O2 O1 77.50(3) 2 8_455 ?
O2 O2 O1 74.20(3) 2 8_455 ?
O3 O2 O1 155.93(2) 3_545 8_455 ?
O1 O2 O1 90.06(2) 4 8_455 ?
O3 O2 O1 62.743(18) 5_565 8_455 ?
S O2 O3 102.07(3) . . ?
Co O2 O3 45.045(13) . . ?
O1 O2 O3 117.10(3) . . ?
O1 O2 O3 116.45(2) 2 . ?
O2 O2 O3 66.779(11) 2 . ?
O3 O2 O3 125.60(2) 3_545 . ?
O1 O2 O3 63.366(18) 4 . ?
O3 O2 O3 93.353(17) 5_565 . ?
O1 O2 O3 56.821(14) 8_455 . ?
S O2 O1 96.69(3) . 6 ?
Co O2 O1 112.81(2) . 6 ?
O1 O2 O1 85.159(18) . 6 ?
O1 O2 O1 73.82(2) 2 6 ?
O2 O2 O1 131.020(16) 2 6 ?
O3 O2 O1 57.343(18) 3_545 6 ?
O1 O2 O1 100.90(2) 4 6 ?
O3 O2 O1 64.56(2) 5_565 6 ?
O1 O2 O1 110.66(2) 8_455 6 ?
O3 O2 O1 157.73(2) . 6 ?
S O2 O1 81.81(2) . 7_556 ?
Co O2 O1 94.37(2) . 7_556 ?
O1 O2 O1 71.86(3) . 7_556 ?
O1 O2 O1 115.94(3) 2 7_556 ?
O2 O2 O1 61.13(2) 2 7_556 ?
O3 O2 O1 87.10(2) 3_545 7_556 ?
O1 O2 O1 78.111(18) 4 7_556 ?
O3 O2 O1 136.95(2) 5_565 7_556 ?
O1 O2 O1 107.10(2) 8_455 7_556 ?
O3 O2 O1 53.791(13) . 7_556 ?
O1 O2 O1 142.23(2) 6 7_556 ?
Co O3 Co 122.23(3) . 2 ?
Co O3 O2 111.681(15) . 3_455 ?
Co O3 O2 88.694(14) 2 3_455 ?
Co O3 O2 88.694(13) . 4 ?
Co O3 O2 111.681(15) 2 4 ?
O2 O3 O2 137.95(4) 3_455 4 ?
Co O3 O1 45.071(14) . 8_455 ?
Co O3 O1 104.28(3) 2 8_455 ?
O2 O3 O1 70.509(19) 3_455 8_455 ?
O2 O3 O1 132.459(17) 4 8_455 ?
Co O3 O1 104.28(3) . 7_556 ?
Co O3 O1 45.071(14) 2 7_556 ?
O2 O3 O1 132.459(17) 3_455 7_556 ?
O2 O3 O1 70.509(19) 4 7_556 ?
O1 O3 O1 123.18(4) 8_455 7_556 ?
Co O3 O2 161.58(3) . 6_566 ?
Co O3 O2 44.775(13) 2 6_566 ?
O2 O3 O2 83.357(18) 3_455 6_566 ?
O2 O3 O2 86.460(19) 4 6_566 ?
O1 O3 O2 140.733(18) 8_455 6_566 ?
O1 O3 O2 57.389(17) 7_556 6_566 ?
Co O3 O2 44.775(13) . 5_565 ?
Co O3 O2 161.58(3) 2 5_565 ?
O2 O3 O2 86.460(19) 3_455 5_565 ?
O2 O3 O2 83.357(18) 4 5_565 ?
O1 O3 O2 57.389(17) 8_455 5_565 ?
O1 O3 O2 140.733(18) 7_556 5_565 ?
O2 O3 O2 151.37(3) 6_566 5_565 ?
Co O3 O2 41.873(15) . . ?
Co O3 O2 81.77(2) 2 . ?
O2 O3 O2 125.60(2) 3_455 . ?
O2 O3 O2 94.435(15) 4 . ?
O1 O3 O2 60.64(2) 8_455 . ?
O1 O3 O2 67.41(2) 7_556 . ?
O2 O3 O2 120.86(2) 6_566 . ?
O2 O3 O2 86.647(17) 5_565 . ?
Co O3 O2 81.77(2) . 2 ?
Co O3 O2 41.873(15) 2 2 ?
O2 O3 O2 94.435(15) 3_455 2 ?
O2 O3 O2 125.60(2) 4 2 ?
O1 O3 O2 67.41(2) 8_455 2 ?
O1 O3 O2 60.64(2) 7_556 2 ?
O2 O3 O2 86.647(17) 6_566 2 ?
O2 O3 O2 120.86(2) 5_565 2 ?
O2 O3 O2 46.44(2) . 2 ?
Co O3 O1 121.38(2) . 3_455 ?
Co O3 O1 41.637(11) 2 3_455 ?
O2 O3 O1 48.267(15) 3_455 3_455 ?
O2 O3 O1 146.519(17) 4 3_455 ?
O1 O3 O1 80.451(18) 8_455 3_455 ?
O1 O3 O1 86.71(2) 7_556 3_455 ?
O2 O3 O1 60.313(17) 6_566 3_455 ?
O2 O3 O1 127.685(17) 5_565 3_455 ?
O2 O3 O1 99.13(2) . 3_455 ?
O2 O3 O1 53.846(16) 2 3_455 ?
Co O3 O1 41.637(12) . 4 ?
Co O3 O1 121.38(2) 2 4 ?
O2 O3 O1 146.519(17) 3_455 4 ?
O2 O3 O1 48.267(16) 4 4 ?
O1 O3 O1 86.71(2) 8_455 4 ?
O1 O3 O1 80.451(18) 7_556 4 ?
O2 O3 O1 127.685(17) 6_566 4 ?
O2 O3 O1 60.313(17) 5_565 4 ?
O2 O3 O1 53.846(16) . 4 ?
O2 O3 O1 99.13(2) 2 4 ?
O1 O3 O1 152.85(3) 3_455 4 ?
Co O3 H 107.2(12) . . ?
Co O3 H 107.6(11) 2 . ?
O2 O3 H 119.4(11) 3_455 . ?
O2 O3 H 20.8(12) 4 . ?
O1 O3 H 146.6(11) 8_455 . ?
O1 O3 H 75.7(11) 7_556 . ?
O2 O3 H 72.0(12) 6_566 . ?
O2 O3 H 90.2(11) 5_565 . ?
O2 O3 H 114.5(12) . . ?
O2 O3 H 136.2(11) 2 . ?
O1 O3 H 131.1(12) 3_455 . ?
O1 O3 H 68.4(12) 4 . ?
Co O3 H 107.6(11) . 2 ?
Co O3 H 107.2(12) 2 2 ?
O2 O3 H 20.8(12) 3_455 2 ?
O2 O3 H 119.4(12) 4 2 ?
O1 O3 H 75.7(11) 8_455 2 ?
O1 O3 H 146.6(11) 7_556 2 ?
O2 O3 H 90.2(11) 6_566 2 ?
O2 O3 H 72.0(12) 5_565 2 ?
O2 O3 H 136.2(11) . 2 ?
O2 O3 H 114.5(12) 2 2 ?
O1 O3 H 68.4(12) 3_455 2 ?
O1 O3 H 131.1(12) 4 2 ?
H O3 H 104(2) . 2 ?
loop_
_geom_bond_atom_site_label_1
_geom_bond_atom_site_label_2
_geom_bond_distance
_geom_bond_site_symmetry_2
_geom_bond_publ_flag
Co O2 2.0541(5) . ?
Co O2 2.0541(5) 5_565 ?
Co O1 2.0564(6) 8_455 ?
Co O1 2.0564(6) 4 ?
Co O3 2.1778(4) . ?
Co O3 2.1778(4) 5_565 ?
Co O2 3.4444(6) 8_455 ?
Co O2 3.4444(6) 4 ?
Co O2 3.5028(6) 6_565 ?
Co O2 3.5028(6) 2 ?
S O1 1.4667(5) . ?
S O1 1.4667(5) 2 ?
S O2 1.4845(5) . ?
S O2 1.4845(5) 2 ?
O1 O2 2.3983(7) . ?
O1 O1 2.4010(11) 2 ?
O1 O2 2.4183(8) 2 ?
O1 O2 2.7901(8) 4_545 ?
O1 O3 2.8987(7) 7_556 ?
O1 O2 3.0186(8) 8_556 ?
O1 O3 3.0888(6) 3_545 ?
O1 O2 3.2457(8) 6_556 ?
O1 O3 3.3007(10) 1_545 ?
O1 O2 3.3168(9) 7_556 ?
O2 O2 2.4232(10) 2 ?
O2 O3 2.7186(7) 3_545 ?
O2 O3 2.9123(7) 5_565 ?
O2 O3 3.0730(9) . ?
O3 H 0.797(15) . ?
O3 H 0.797(15) 2 ?
loop_
_geom_hbond_atom_site_label_D
_geom_hbond_atom_site_label_H
_geom_hbond_atom_site_label_A
_geom_hbond_distance_DH
_geom_hbond_distance_HA
_geom_hbond_distance_DA
_geom_hbond_angle_DHA
_geom_hbond_site_symmetry_A
_geom_hbond_publ_flag
O3 H O2 0.797(15) 1.993(15) 2.7186(7) 151.1(16) 4 yes
