#------------------------------------------------------------------------------
#$Date: 2022-01-01 07:13:54 +0200 (Sat, 01 Jan 2022) $
#$Revision: 271676 $
#$URL: file:///home/coder/svn-repositories/cod/cif/1/56/58/1565870.cif $
#------------------------------------------------------------------------------
#
# This file is available in the Crystallography Open Database (COD),
# http://www.crystallography.net/. The original data for this entry
# were provided by IUCr Journals, http://journals.iucr.org/.
#
# The file may be used within the scientific community so long as
# proper attribution is given to the journal article from which the
# data were obtained.
#
data_1565870
loop_
_publ_author_name
'Olejniczak, Anna'
'Katrusiak, Anna'
'Podsiad\/lo, Marcin'
'Katrusiak, Andrzej'
_publ_section_title
;
 Stochastic hydration of a high-nitrogen-content molecular compound
 recrystallized under pressure
;
_journal_issue                   1
_journal_name_full               IUCrJ
_journal_page_first              49
_journal_page_last               54
_journal_paper_doi               10.1107/S2052252521010381
_journal_volume                  9
_journal_year                    2022
_chemical_formula_moiety         'C4 H2 Cl N5'
_chemical_formula_sum            'C4 H2 Cl N5'
_chemical_formula_weight         155.56
_chemical_name_systematic        6-chloro-1,2,3,4-tetrazolo[1,5-b]pyridazine
_space_group_crystal_system      orthorhombic
_space_group_IT_number           19
_space_group_name_Hall           'P 2ac 2ab'
_space_group_name_H-M_alt        'P 21 21 21'
_atom_sites_solution_hydrogens   geom
_atom_sites_solution_primary     direct
_audit_creation_date             2020-07-14
_audit_creation_method
;
Olex2 1.3
(compiled 2020.06.28 svn.raecde09e for OlexSys, GUI svn.r6132)
;
_cell_angle_alpha                90
_cell_angle_beta                 90
_cell_angle_gamma                90
_cell_formula_units_Z            4
_cell_length_a                   7.03420(10)
_cell_length_b                   8.7569(2)
_cell_length_c                   10.0049(2)
_cell_measurement_reflns_used    2763
_cell_measurement_temperature    175.0(1)
_cell_measurement_theta_max      64.1540
_cell_measurement_theta_min      5.0740
_cell_volume                     616.28(2)
_computing_cell_refinement       'CrysAlisPro 1.171.40.67a (Rigaku OD, 2019)'
_computing_data_collection       'CrysAlisPro 1.171.40.67a (Rigaku OD, 2019)'
_computing_data_reduction        'CrysAlisPro 1.171.40.67a (Rigaku OD, 2019)'
_computing_molecular_graphics    'Olex2 1.3 (Dolomanov et al., 2009)'
_computing_publication_material  'Olex2 1.3 (Dolomanov et al., 2009)'
_computing_structure_refinement  'SHELXL 2018/3 (Sheldrick, 2015)'
_computing_structure_solution    'SHELXT 2018/2 (Sheldrick, 2018)'
_diffrn_ambient_environment      N~2~
_diffrn_ambient_temperature      175.0(1)
_diffrn_detector                 'CCD plate'
_diffrn_detector_area_resol_mean 10.5357
_diffrn_detector_type            Atlas
_diffrn_measured_fraction_theta_full 0.992
_diffrn_measured_fraction_theta_max 0.992
_diffrn_measurement_details
;
List of Runs (angles in degrees, time in seconds):

  # Type    Start    End  Width  t~exp~   \w     \q     \k     \f   Frames
--------------------------------------------------------------------------
  1  \w     13.00 116.00   1.00    1.25    --   41.73  77.00 150.00  103
  2  \w     13.00  88.00   1.00    1.25    --   41.73-125.00  60.00   75
  3  \w     40.00  99.00   1.00    1.25    --   41.73  37.00 -90.00   59
  4  \w     16.00  51.00   1.00    2.50    --   88.44 -45.00 150.00   35
  5  \w     36.00 158.00   1.00    2.50    --   88.44  15.00  60.00  122
  6  \w      8.00 106.00   1.00    2.50    --   88.44 -94.00 120.00   98
  7  \w     37.00  77.00   1.00    2.50    --   88.44 -45.00  90.00   40
  8  \w     44.00  70.00   1.00    2.50    --   88.44 -45.00-120.00   26
  9  \w     16.00 109.00   1.00    2.50    --   88.44 -94.00-120.00   93
 10  \w     26.00  75.00   1.00    2.50    --   88.44 -45.00   0.00   49
 11  \w     42.00  81.00   1.00    2.50    --   88.44 -94.00   0.00   39
 12  \w     85.00 111.00   1.00    2.50    --   88.44 125.00  90.00   26
 13  \w    116.00 146.00   1.00    2.50    --   88.44 125.00  90.00   30
 14  \w     68.00 107.00   1.00    2.50    --   88.44-125.00  90.00   39
 15  \w     75.00 156.00   1.00    2.50    --   88.44  61.00 -90.00   81
;
_diffrn_measurement_device       'four-circle diffractometer'
_diffrn_measurement_device_type
'SuperNova, Single source at offset/far, Atlas'
_diffrn_measurement_method       '\w scans'
_diffrn_orient_matrix_type
'CrysAlisPro convention (1999,Acta A55,543-557)'
_diffrn_orient_matrix_UB_11      -0.0555064000
_diffrn_orient_matrix_UB_12      -0.0083068000
_diffrn_orient_matrix_UB_13      -0.1488009000
_diffrn_orient_matrix_UB_21      0.0488855000
_diffrn_orient_matrix_UB_22      -0.1714699000
_diffrn_orient_matrix_UB_23      -0.0017387000
_diffrn_orient_matrix_UB_31      -0.2061357000
_diffrn_orient_matrix_UB_32      -0.0384140000
_diffrn_orient_matrix_UB_33      0.0396128000
_diffrn_radiation_monochromator  mirror
_diffrn_radiation_probe          x-ray
_diffrn_radiation_type           'Cu K\a'
_diffrn_radiation_wavelength     1.54184
_diffrn_reflns_av_R_equivalents  0.0163
_diffrn_reflns_av_unetI/netI     0.0134
_diffrn_reflns_Laue_measured_fraction_full 0.992
_diffrn_reflns_Laue_measured_fraction_max 0.992
_diffrn_reflns_limit_h_max       6
_diffrn_reflns_limit_h_min       -8
_diffrn_reflns_limit_k_max       9
_diffrn_reflns_limit_k_min       -10
_diffrn_reflns_limit_l_max       11
_diffrn_reflns_limit_l_min       -10
_diffrn_reflns_number            3623
_diffrn_reflns_point_group_measured_fraction_full 0.984
_diffrn_reflns_point_group_measured_fraction_max 0.984
_diffrn_reflns_theta_full        64.892
_diffrn_reflns_theta_max         64.892
_diffrn_reflns_theta_min         6.719
_diffrn_source                   'micro-focus sealed X-ray tube'
_diffrn_source_type              'SuperNova (Cu) X-ray Source'
_exptl_absorpt_coefficient_mu    4.846
_exptl_absorpt_correction_T_max  1.00000
_exptl_absorpt_correction_T_min  0.55452
_exptl_absorpt_correction_type   multi-scan
_exptl_absorpt_process_details
;
CrysAlisPro 1.171.40.67a (Rigaku Oxford Diffraction, 2019)
Empirical absorption correction using spherical harmonics,
 implemented in SCALE3 ABSPACK scaling algorithm.
;
_exptl_crystal_colour            colourless
_exptl_crystal_density_diffrn    1.677
_exptl_crystal_description       plate
_exptl_crystal_F_000             312
_exptl_crystal_size_max          0.50
_exptl_crystal_size_mid          0.20
_exptl_crystal_size_min          0.15
_refine_diff_density_max         0.150
_refine_diff_density_min         -0.155
_refine_diff_density_rms         0.034
_refine_ls_abs_structure_details
;
 Flack x determined using 384 quotients [(I+)-(I-)]/[(I+)+(I-)]
 (Parsons, Flack and Wagner, Acta Cryst. B69 (2013) 249-259).
;
_refine_ls_abs_structure_Flack   0.481(6)
_refine_ls_extinction_method     none
_refine_ls_goodness_of_fit_ref   1.056
_refine_ls_hydrogen_treatment    constr
_refine_ls_matrix_type           full
_refine_ls_number_parameters     91
_refine_ls_number_reflns         1029
_refine_ls_number_restraints     0
_refine_ls_restrained_S_all      1.056
_refine_ls_R_factor_all          0.0309
_refine_ls_R_factor_gt           0.0302
_refine_ls_shift/su_max          0.000
_refine_ls_shift/su_mean         0.000
_refine_ls_structure_factor_coef Fsqd
_refine_ls_weighting_details
'w=1/[\s^2^(Fo^2^)+(0.0364P)^2^+0.3837P] where P=(Fo^2^+2Fc^2^)/3'
_refine_ls_weighting_scheme      calc
_refine_ls_wR_factor_gt          0.0767
_refine_ls_wR_factor_ref         0.0772
_reflns_Friedel_coverage         0.633
_reflns_Friedel_fraction_full    0.971
_reflns_Friedel_fraction_max     0.971
_reflns_number_gt                1004
_reflns_number_total             1029
_reflns_threshold_expression     'I > 2\s(I)'
_cod_data_source_file            lt5042.cif
_cod_data_source_block           C4H2N5Cl1@175K_phase_alpha
_cod_database_code               1565870
_shelx_shelxl_version_number     2018/3
_chemical_oxdiff_formula         C4H2N5Cl1
_shelx_space_group_comment
;
The symmetry employed for this shelxl refinement is uniquely defined
by the following loop, which should always be used as a source of
symmetry information in preference to the above space-group names.
They are only intended as comments.
;
_reflns_odcompleteness_completeness 99.08
_reflns_odcompleteness_iscentric 1
_reflns_odcompleteness_theta     64.79
_olex2_refinement_description
;
1. Fixed Uiso
 At 1.2 times of:
  All C(H) groups
2.a Aromatic/amide H refined with riding coordinates:
 C7(H7), C8(H8)
;
_shelx_res_file
;
TITL 1a_a.res in P2(1)2(1)2(1)
    1a.res
    created by SHELXL-2018/3 at 12:43:45 on 14-Jul-2020
REM Old TITL 1a in P2(1)2(1)2(1)
REM SHELXT solution in P2(1)2(1)2(1): R1 0.122, Rweak 0.021, Alpha 0.004
REM <I/s> 0.829 for 15 systematic absences, Orientation as input
REM Flack x = 0.487 ( 0.005 ) from 388 Parsons' quotients
REM Formula found by SHELXT: C8 N Cl
CELL 1.54184 7.0342 8.7569 10.0049 90 90 90
ZERR 4 0.0001 0.0002 0.0002 0 0 0
LATT -1
SYMM 0.5-X,-Y,0.5+Z
SYMM -X,0.5+Y,0.5-Z
SYMM 0.5+X,0.5-Y,-Z
SFAC C H Cl N
UNIT 16 8 4 20

L.S. 44
PLAN  5
CONF
BOND
list 4
MORE -1
BOND $H
fmap 2 53
acta
REM <olex2.extras>
REM <HklSrc "%.\\1a.hkl">
REM </olex2.extras>

WGHT    0.036400    0.383700
FVAR       1.02452
CL1   3    0.289703    0.332551    0.318958    11.00000    0.05290    0.02586 =
         0.05844   -0.00267    0.01297   -0.00127
N4    4    0.359324    0.747728    0.411469    11.00000    0.03858    0.02825 =
         0.02526   -0.00095   -0.00032   -0.00263
N5    4    0.369538    0.593994    0.417760    11.00000    0.04110    0.02834 =
         0.03038    0.00399    0.00260    0.00008
N3    4    0.434267    0.838105    0.506046    11.00000    0.05399    0.04044 =
         0.03262   -0.00692   -0.00558   -0.00810
N2    4    0.396579    0.977298    0.465887    11.00000    0.06138    0.03590 =
         0.04660   -0.01070    0.00260   -0.00768
N1    4    0.299913    0.981173    0.349073    11.00000    0.05217    0.02997 =
         0.04399   -0.00311    0.00496   -0.00141
C9    1    0.277664    0.834636    0.314831    11.00000    0.03762    0.02773 =
         0.02753    0.00405    0.00473    0.00207
C7    1    0.199242    0.604684    0.207127    11.00000    0.04339    0.03983 =
         0.02583   -0.00689    0.00038   -0.00396
AFIX  43
H7    2    0.145246    0.548720    0.137845    11.00000   -1.20000
AFIX   0
C6    1    0.287296    0.529123    0.316111    11.00000    0.03679    0.02586 =
         0.03394   -0.00179    0.00766    0.00018
C8    1    0.194673    0.758813    0.205072    11.00000    0.04212    0.04113 =
         0.02638    0.00489    0.00058    0.00228
AFIX  43
H8    2    0.139520    0.812296    0.134748    11.00000   -1.20000
AFIX   0
HKLF 4




REM  1a_a.res in P2(1)2(1)2(1)
REM wR2 = 0.0772, GooF = S = 1.056, Restrained GooF = 1.056 for all data
REM R1 = 0.0302 for 1004 Fo > 4sig(Fo) and 0.0309 for all 1029 data
REM 91 parameters refined using 0 restraints

END

WGHT      0.0364      0.3837

REM Highest difference peak  0.150,  deepest hole -0.155,  1-sigma level  0.034
Q1    1   0.2592  0.5644  0.2616  11.00000  0.05    0.15
Q2    1   0.1434  0.3340  0.3224  11.00000  0.05    0.14
Q3    1   0.4191  0.3345  0.3386  11.00000  0.05    0.14
Q4    1   0.1882  1.0261  0.2006  11.00000  0.05    0.13
Q5    1   0.2821  1.0444  0.3181  11.00000  0.05    0.12
;
_shelx_res_checksum              7316
_shelx_hkl_file
;
   0   0  -1    0.09    0.16
   0   0  -2 1562.30    9.93
   0   0  -3    0.24    0.50
   0   0  -4   20.56    1.80
   0   0  -5   -0.36    0.76
   0   0   6 1453.28   12.72
   0   0  -6 1420.76   18.84
   0   0   7    0.46    0.70
   0   0   7   -0.54    0.50
   0   0   8 1020.47   12.17
   0   0  -8 1018.72   19.42
   0   0   8  999.82   12.49
   0   0   9   -1.18    0.58
   0   0   9    1.62    0.80
   0   0  10  396.89    8.05
   0   0  11   -0.04    0.49
   0  -1   0    0.10    0.23
   0  -1   0    0.48    0.15
   0  -1  -1 1264.36    6.94
   0   1  -1 1259.48    7.52
   0  -1  -2   36.96    1.59
   0   1  -2   33.42    1.62
   0   1  -3 4020.15   20.68
   0  -1  -3 4084.57   19.88
   0   1  -4   23.03    1.98
   0  -1  -4   24.70    1.95
   0  -1  -5 1444.24   16.19
   0   1  -5 1469.50   17.10
   0   1   6    1.99    0.57
   0   1  -6    2.53    1.20
   0  -1  -6    1.60    0.92
   0   1   6    0.84    0.56
   0  -1   6    0.71    0.51
   0  -1   6    2.91    0.76
   0  -1   7   44.94    2.57
   0  -1   7   44.51    2.44
   0   1   7   41.39    2.41
   0  -1  -7   41.87    3.55
   0   1   7   38.47    2.29
   0   1  -7   43.76    3.92
   0   1   8   68.63    3.38
   0   1   8   63.78    3.14
   0   1  -8   68.64    5.26
   0  -1  -8   69.30    5.00
   0  -1   8   68.10    3.20
   0  -1   8   67.12    3.39
   0  -1   9   39.57    2.69
   0  -1   9   39.70    2.51
   0   1   9   38.33    2.59
   0   1   9   38.05    2.51
   0  -1  10  150.78    5.05
   0   1  10  148.64    4.85
   0   1  10  149.83    4.58
   0   1  11   21.67    1.73
   0  -1  11   26.51    1.92
   0  -2   0  187.23    2.21
   0  -2   0  181.00    3.70
   0   2  -1 1160.57    8.96
   0  -2  -1 1187.52    9.67
   0   2  -2  386.54    6.03
   0  -2  -2  375.18    6.10
   0   2  -3  405.09    7.06
   0  -2  -3  387.53    6.58
   0  -2  -4    9.94    1.34
   0   2  -4    9.46    1.39
   0   2  -5  735.06   12.65
   0  -2  -5  760.31   11.98
   0   2   5  774.29    8.60
   0  -2   5  768.43    8.42
   0   2   5  762.80    8.19
   0  -2   6   10.53    1.20
   0   2   6   10.47    1.17
   0  -2  -6   10.42    1.77
   0   2  -6    6.54    1.53
   0   2   6   10.47    1.25
   0  -2   6    9.76    1.16
   0  -2   7  540.70    8.91
   0   2   7  526.17    8.57
   0  -2  -7  543.44   12.82
   0   2  -7  531.01   13.36
   0  -2   7  526.43    8.48
   0   2   7  535.77    8.39
   0  -2   8   49.02    2.97
   0   2   8   46.99    2.75
   0  -2  -8   50.12    4.32
   0   2  -8   52.92    4.64
   0   2   8   49.91    2.82
   0  -2   8   48.85    2.75
   0   2   9    1.63    0.82
   0   2   9    0.80    0.67
   0  -2   9    1.67    0.92
   0   2  10  164.42    4.90
   0  -2  10  162.31    4.97
   0   2  10  157.07    4.71
   0   2  11    2.33    0.64
   0  -2  11    3.21    0.81
   0  -3   0    0.54    0.23
   0  -3   0    0.09    0.53
   0  -3  -1  270.71    5.79
   0   3  -1  282.55    5.29
   0  -3  -1  282.09    4.11
   0  -3  -2 1987.02   16.46
   0   3  -2 1973.17   15.49
   0  -3  -3   11.40    1.50
   0   3  -3   12.02    1.48
   0  -3  -4   45.20    3.05
   0   3  -4   40.82    2.80
   0  -3   4   45.92    2.06
   0   3   4   46.59    2.10
   0   3  -5   91.25    4.72
   0   3   5   88.63    2.92
   0   3   5   86.46    3.15
   0  -3  -5   84.43    4.58
   0  -3   5   88.47    3.13
   0   3  -6   30.55    3.12
   0   3   6   32.43    1.97
   0  -3  -6   31.76    3.10
   0  -3   6   31.05    2.03
   0  -3  -6   33.04    3.00
   0   3   6   35.68    2.21
   0   3   7    5.42    1.07
   0  -3   7    4.85    0.99
   0  -3   7    6.01    1.19
   0   3   7    4.05    0.85
   0  -3  -7    5.65    1.71
   0  -3   7    6.06    1.09
   0   3  -7    5.55    1.53
   0   3   8  191.20    5.33
   0  -3   8  193.66    5.85
   0   3   8  196.35    5.68
   0   3   9   18.25    1.71
   0  -3   9   17.67    1.91
   0   3   9   17.55    1.82
   0  -3  10    1.37    0.73
   0   3  10    2.69    0.79
   0   3  10    1.72    0.48
   0   3  11    0.97    0.54
   0  -3  11    0.47    0.48
   0  -4   0   26.09    2.21
   0   4  -1 3429.59   21.19
   0  -4  -1 3352.28   23.71
   0  -4  -2   89.10    4.10
   0  -4  -2   89.00    3.03
   0   4  -2   87.52    3.72
   0   4   3  233.26    4.75
   0  -4  -3  234.41    6.93
   0   4  -3  236.39    6.59
   0  -4   3  245.25    4.84
   0  -4  -4   99.04    4.93
   0  -4   4   99.10    3.31
   0  -4   4   96.56    3.03
   0   4  -4  102.02    4.74
   0   4   4   99.10    3.35
   0   4   5  256.89    5.19
   0   4   5  261.27    5.80
   0  -4  -5  251.41    8.41
   0   4  -5  249.60    8.21
   0  -4   5  260.36    5.75
   0  -4   5  254.61    5.11
   0  -4  -6   56.83    4.25
   0   4  -6   61.24    4.57
   0   4   6   54.12    2.62
   0  -4   6   55.52    2.88
   0   4   6   58.80    3.00
   0  -4  -7  250.64    9.62
   0  -4   7  275.14    6.66
   0   4   7  272.55    6.66
   0   4  -7  258.68    9.94
   0  -4   7  263.54    6.82
   0   4   7  282.78    6.13
   0   4   8   10.54    1.48
   0  -4   8   10.13    1.41
   0   4   9  422.25    8.04
   0  -4   9  415.70    8.23
   0  -4  10   22.99    1.77
   0   4  10   21.45    1.67
   0  -5   0    1.03    0.59
   0  -5   0   -0.45    0.47
   0   5   0    0.52    0.60
   0  -5  -1  523.32    7.20
   0  -5  -1  537.91    7.31
   0  -5  -1  529.61   10.96
   0   5  -1  543.07    7.45
   0   5   1  538.27    7.47
   0  -5   1  539.32    7.59
   0   5  -1  541.05    9.56
   0  -5   1  525.78    7.38
   0   5  -2    1.30    0.57
   0  -5  -2    1.37    0.88
   0  -5  -2    1.31    0.58
   0   5  -2    1.66    0.83
   0  -5   2    1.44    0.64
   0  -5  -2    1.03    0.62
   0   5   2    2.30    0.69
   0  -5   3  865.68   10.17
   0  -5  -3  851.70   14.80
   0   5   3  846.67   10.10
   0  -5  -3  860.94    9.62
   0   5  -3  865.85   13.73
   0  -5   4  820.71   10.36
   0  -5  -4  819.28   15.26
   0   5   4  794.68   10.31
   0  -5   4  793.33    9.61
   0  -5  -4  793.08    9.58
   0   5  -4  777.33   14.12
   0  -5  -5    1.27    1.27
   0   5   5    3.10    0.93
   0  -5   5    3.01    0.92
   0  -5   5    2.79    0.79
   0  -5  -6  103.85    6.19
   0  -5   6  102.08    4.12
   0   5   6  100.66    4.11
   0   5  -6   98.58    5.93
   0   5   7   20.21    1.98
   0  -5   7   17.20    1.90
   0   5   8    3.53    1.07
   0  -5   8    6.23    1.33
   0  -5   9  102.19    3.88
   0   5   9  106.14    3.86
   0  -5  10    1.25    0.58
   0   5  10    0.06    0.38
   0  -6   0 1068.06   11.77
   0   6   0 1074.12   11.75
   0  -6   0 1098.98   11.53
   0  -6  -1   65.07    4.30
   0  -6   1   58.50    2.78
   0  -6  -1   61.50    2.73
   0  -6   1   59.86    2.88
   0   6  -1   62.27    2.91
   0   6   1   63.66    2.95
   0  -6  -1   57.85    2.78
   0  -6  -2  214.57    5.23
   0   6   2  209.66    5.34
   0  -6   2  201.90    5.23
   0  -6  -2  206.24    7.83
   0  -6  -2  202.52    4.98
   0  -6   3   22.67    1.92
   0  -6  -3   22.69    2.73
   0   6   3   25.78    2.00
   0  -6   3   24.38    1.85
   0  -6  -3   21.39    1.74
   0   6   4   13.70    1.66
   0  -6  -4   10.92    2.26
   0  -6   4   12.80    1.50
   0  -6  -4   14.36    1.47
   0  -6   4   14.43    1.63
   0   6   5    9.75    1.42
   0  -6   5    8.02    1.25
   0  -6  -5    7.60    2.01
   0  -6   5    8.93    1.47
   0  -6  -5   11.50    1.38
   0  -6   6 1515.80   16.11
   0   6   6 1517.55   16.00
   0   6   7    3.43    1.02
   0  -6   7    2.28    1.11
   0   6   8   53.00    2.83
   0  -6   8   47.84    2.75
   0  -6   9    2.29    0.77
   0   6   9    4.13    0.87
   0   7   0   -0.85    0.63
   0  -7   0    0.37    0.58
   0  -7   0   -0.50    0.62
   0   7   1    2.45    0.82
   0   7  -1    3.27    0.97
   0  -7   1    3.25    0.95
   0  -7  -1    2.75    1.07
   0  -7  -1    3.87    0.93
   0  -7   2    6.25    1.19
   0  -7  -2    8.90    1.29
   0   7   2    7.57    1.32
   0  -7   3   69.89    3.35
   0  -7   3   67.17    3.25
   0  -7  -3   71.20    3.23
   0   7   3   66.12    3.35
   0  -7  -3   63.83    4.81
   0   7   4   98.28    4.10
   0  -7   4   96.88    4.04
   0  -7  -4  104.75    3.87
   0  -7   4  101.84    4.00
   0   7   5  258.33    6.59
   0  -7   5  256.08    6.57
   0  -7   5  252.22    6.12
   0  -7   6    6.22    1.24
   0   7   6    5.36    1.08
   0  -7   7   20.13    1.89
   0   7   7   19.56    1.78
   0  -7   7   20.41    1.89
   0  -7   8   -0.26    0.52
   0   7   8   -0.98    0.47
   0   8   0    1.75    0.91
   0  -8   0    0.95    0.75
   0   8   1  604.42    9.98
   0  -8   1  614.99    9.48
   0  -8  -1  615.62    9.76
   0  -8   2   32.67    2.26
   0  -8   2   37.67    2.52
   0   8   2   35.26    2.41
   0  -8  -2   37.30    2.48
   0  -8   3    8.45    1.21
   0  -8   3    9.41    1.27
   0   8   3    7.26    1.31
   0  -8   4    1.00    0.77
   0   8   4    0.92    0.71
   0  -8   4    1.71    0.74
   0  -8   5   24.82    1.96
   0   8   5   21.89    1.93
   0  -8   5   23.05    1.85
   0  -8   6   91.79    3.50
   0   8   6  100.26    3.70
   0  -8   7   95.91    3.29
   0   8   7  102.74    3.37
   0  -9   0    0.29    0.53
   0  -9   1   79.27    3.46
   0  -9   1   75.97    3.06
   0   9   1   82.05    3.44
   0  -9   2  156.29    4.73
   0  -9   2  146.00    4.30
   0   9   2  150.05    4.65
   0  -9   3   12.97    1.46
   0   9   3   13.27    1.53
   0  -9   3   11.80    1.27
   0   9   4  218.22    5.28
   0  -9   4  206.86    4.94
   0  -9   4  207.25    4.91
   0  -9   5    9.00    1.05
   0   9   5    8.75    1.09
   0 -10   0   98.14    3.28
   0 -10  -1  169.98    4.17
   0 -10   1  178.81    4.41
   0 -10  -2   17.57    1.34
   0 -10   2   17.93    1.42
  -1   0   0    1.64    0.44
   1   0   0    0.09    0.16
  -1   0   1 1034.42    7.39
  -1   0  -1 1033.11    7.38
   1   0  -3 1403.97   11.56
  -1   0  -3 1370.19   12.75
   1   0  -4  552.25    8.66
  -1   0  -4  565.74    9.58
  -1   0  -5    7.70    1.48
  -1   0   5    6.93    0.95
   1   0  -5    8.76    1.37
   1   0   5    8.99    1.03
  -1   0  -6   47.12    3.67
  -1   0   6   42.61    2.32
   1   0   6   42.30    2.36
   1   0   6   43.41    2.13
   1   0  -6   44.59    3.28
   1   0   7   20.96    1.85
  -1   0  -7   21.20    2.83
   1   0   7   25.88    1.84
  -1   0   7   21.29    1.87
   1   0  -7   22.92    2.76
  -1   0  -8  164.86    8.20
   1   0   8  163.12    5.22
  -1   0   8  171.85    5.37
   1   0  -8  169.46    7.74
  -1   0   8  171.57    5.47
   1   0   8  169.01    4.83
   1   0   9   27.83    2.28
  -1   0   9   26.48    2.30
   1   0  10  530.28    8.97
  -1   0  10  509.50    9.24
   1   0  10  512.55    8.86
  -1   0  11   27.51    1.94
   1   0  11   25.02    1.77
  -1   1  11   28.11    1.95
   1  -1  11   28.80    1.89
   1  -1  10   87.34    3.63
  -1   1  10   88.99    3.84
  -1   1  10   86.79    3.68
   1  -1   9   69.24    3.47
   1  -1   9   64.63    3.12
  -1   1   9   70.53    3.59
  -1   1   8  349.31    7.66
   1   1  -8  362.15   11.73
   1  -1   8  356.81    7.77
  -1  -1  -8  362.70   12.26
  -1   1   8  342.84    6.84
   1  -1   8  356.68    7.12
  -1   1   7  301.03    6.67
  -1  -1  -7  305.45   10.27
   1  -1   7  304.25    6.19
   1  -1   7  305.42    6.83
  -1   1   7  297.39    5.96
  -1   1   7  308.42    6.63
   1   1  -7  302.49    9.74
  -1   1   6   12.71    1.19
  -1   1   6   13.80    1.37
   1   1  -6   13.49    1.94
   1  -1   6   15.06    1.47
   1  -1   6   13.95    1.17
  -1  -1  -6   14.63    2.18
   1  -1   6   13.82    1.28
  -1   1   6   14.45    1.44
   1   1  -5  392.78    8.80
  -1   1   5  371.08    6.00
  -1  -1  -5  396.70    9.26
  -1  -1  -4  141.21    4.91
   1   1  -4  140.24    4.60
   1   1  -3  831.40    9.89
  -1  -1  -3  795.00   10.14
  -1  -1  -2 1738.52   12.86
   1   1  -2 1676.06   12.34
  -1  -1  -1  686.00    4.47
  -1  -1   0  654.35    6.42
  -1   1   0  666.47    4.80
  -1   1  -1  687.20    5.63
  -1  -1   1  692.27    6.74
   1  -1  -1  705.67    3.60
   1  -1  -2 1689.36    9.15
  -1   1  -2 1716.85   11.76
   1  -1  -3  855.33    8.44
  -1   1  -3  873.59   10.25
  -1   1  -4  142.79    4.94
   1  -1  -4  135.45    4.12
  -1  -1   5  388.52    6.18
   1  -1  -5  384.79    8.05
   1   1   5  383.91    6.25
  -1   1  -5  389.86    9.29
  -1  -1   6   14.88    1.42
  -1   1  -6   12.89    2.06
   1  -1  -6   15.67    1.90
   1   1   6   14.20    1.39
   1   1   7  304.29    6.74
   1  -1  -7  304.90    9.26
  -1   1  -7  310.19   10.31
  -1  -1   7  302.69    6.86
   1   1   8  363.13    7.77
   1  -1  -8  341.77   10.74
  -1  -1   8  366.09    8.06
  -1   1  -8  359.22   12.02
   1   1   9   65.89    3.26
  -1  -1   9   68.25    3.59
   1   1   9   67.42    3.48
  -1  -1   9   70.36    3.65
   1   1  10   88.88    3.56
   1   1  10   92.12    3.83
  -1  -1  10   86.87    3.86
   1   1  11   30.47    1.90
  -1  -1  11   28.21    2.00
  -1   2  11   40.05    2.18
   1  -2  11   43.17    2.30
  -1   2  10   48.23    2.79
   1  -2  10   46.42    2.56
   1  -2   9   58.69    3.19
  -1   2   9   61.42    3.28
   1  -2   9   58.34    3.00
  -1   2   8   50.87    2.94
  -1   2   8   49.07    2.66
   1  -2   8   47.92    2.90
   1  -2   8   52.23    2.87
  -1  -2  -8   54.59    4.91
   1   2  -8   53.31    4.71
   1  -2   7   63.53    3.21
  -1   2   7   64.40    2.92
   1   2  -7   65.01    4.77
  -1   2   7   67.39    3.21
  -1  -2  -7   65.60    4.87
   1  -2   7   67.13    2.94
   1  -2   7   66.50    3.00
   1  -2   6  419.47    6.93
   1   2  -6  410.18   10.73
  -1   2   6  411.70    7.11
  -1   2   6  418.14    6.86
   1  -2   6  434.72    6.81
  -1  -2  -6  397.87   10.71
  -1   2   5 2051.44   14.27
   1  -2   5 2092.69   13.57
  -1  -2  -5 2072.63   21.95
  -1   2   5 2063.81   13.93
   1   2  -4  271.94    7.01
  -1  -2  -4  282.59    7.30
   1   2  -3 2054.02   17.30
  -1  -2  -3 2045.54   17.53
   1   2  -2   38.04    2.19
  -1  -2  -2   38.66    1.81
   1  -2   1  755.32    8.32
  -1  -2  -1  745.88    8.15
  -1  -2   0  719.86    7.48
  -1   2   0  717.81    3.90
   1  -2   0  731.64    8.13
  -1  -2   1  712.62    7.54
   1  -2  -1  713.33    8.49
  -1   2  -1  732.29    4.27
   1  -2  -2   41.55    1.46
  -1   2  -2   38.45    1.95
   1  -2  -2   36.03    2.17
  -1   2  -3 1996.15   16.40
   1  -2  -3 2030.38   12.94
  -1   2  -4  263.13    6.93
   1  -2  -4  276.97    5.78
   1   2   5 2076.02   14.76
  -1  -2   5 2013.11   13.42
  -1   2  -5 2036.20   21.71
  -1  -2   5 2077.92   14.58
  -1  -2   6  426.13    7.53
  -1   2  -6  419.78   11.05
   1  -2  -6  422.01    9.59
   1   2   6  405.50    6.41
   1   2   6  423.04    7.37
   1   2   7   66.82    3.23
  -1   2  -7   65.14    4.78
   1   2   7   65.94    2.88
   1  -2  -7   66.52    4.37
  -1  -2   7   70.18    3.39
  -1  -2   8   50.92    3.14
   1   2   8   53.77    2.77
   1   2   8   47.99    2.90
  -1   2  -8   49.86    4.51
  -1  -2   9   62.75    3.46
   1   2   9   57.37    3.25
   1   2   9   59.02    2.96
  -1  -2  10   45.97    2.81
  -1  -2  10   53.04    2.98
   1   2  10   51.14    2.86
  -1  -2  11   40.88    2.31
   1   2  11   39.44    2.11
  -1   3  11    9.03    1.15
   1  -3  11    9.60    1.07
   1  -3   9   48.74    2.77
  -1   3   9   49.37    2.87
  -1   3   9   48.18    2.68
   1  -3   9   48.84    2.88
   1  -3   8   84.24    3.68
   1  -3   8   85.62    3.91
  -1   3   8   86.41    3.75
  -1   3   8   79.08    3.47
   1  -3   7   67.23    3.08
   1  -3   7   66.41    3.18
  -1   3   7   62.83    3.02
   1   3  -7   57.45    4.62
  -1   3   7   64.08    3.18
  -1  -3  -7   63.70    4.57
  -1   3   6  135.19    4.22
  -1  -3  -6  126.61    5.75
   1  -3   6  138.46    4.12
   1   3  -6  139.13    6.55
  -1   3   6  135.90    4.14
  -1  -3  -5   24.38    2.38
   1  -3   5   23.22    1.62
   1   3  -5   23.70    2.53
  -1   3   5   23.69    1.65
  -1   3   5   23.35    1.66
   1  -3   4  136.24    3.54
  -1   3   4  130.63    3.44
  -1  -3  -4  132.74    4.80
   1   3  -4  136.27    5.44
  -1   3   4  138.42    3.61
  -1  -3  -3  170.11    4.87
   1   3  -3  189.45    5.82
  -1  -3  -2  261.07    5.88
  -1  -3  -2  250.72    5.33
   1   3  -2  270.98    6.48
  -1  -3  -1  139.29    3.95
   1  -3   1  140.97    4.43
  -1  -3  -1  139.85    3.85
  -1   3   0 1940.44    9.82
  -1  -3   0 1959.62   13.47
  -1  -3   1  141.72    3.56
   1  -3  -1  139.13    4.51
  -1   3  -1  139.40    3.36
  -1   3  -2  259.76    5.48
   1  -3  -2  260.99    6.46
   1  -3  -3  173.87    5.80
  -1   3  -3  173.72    5.29
   1  -3  -4  133.00    5.60
   1   3   4  130.54    3.60
  -1   3  -4  137.92    5.32
  -1  -3   4  135.21    3.61
  -1  -3   4  134.68    3.48
   1   3   5   26.54    1.85
  -1  -3   5   22.81    1.74
   1  -3  -5   22.93    2.67
  -1   3  -5   21.21    2.50
  -1  -3   5   22.80    1.54
  -1   3  -6  134.91    6.48
  -1  -3   6  128.55    3.90
   1  -3  -6  144.53    6.95
  -1  -3   6  140.60    4.45
   1   3   6  134.86    4.38
   1  -3  -7   64.65    5.04
  -1  -3   7   65.60    3.38
  -1   3  -7   67.43    5.10
   1   3   7   67.30    3.38
  -1  -3   8   91.44    4.14
   1   3   8   91.49    4.07
  -1  -3   9   48.46    3.03
   1   3   9   48.68    2.95
  -1  -3  10   13.13    1.52
   1   3  10   13.81    1.56
  -1  -3  10   13.88    1.51
  -1   3 -10   14.84    1.80
  -1  -3  11    9.65    1.12
  -1   4  10   27.94    2.14
  -1   4   9   95.67    3.68
   1  -4   9   88.88    3.65
   1  -4   9   95.32    3.74
   1  -4   8   11.07    1.45
  -1   4   8   10.61    1.47
   1  -4   8    7.81    1.32
   1  -4   8   10.42    1.45
   1  -4   7   19.61    1.83
   1   4  -7   18.88    2.86
   1  -4   7   19.93    1.87
  -1   4   7   19.51    1.87
  -1   4   7   20.07    1.87
  -1   4   6   68.88    3.16
   1  -4   6   71.15    3.22
  -1   4   6   65.68    3.04
   1   4  -6   64.52    4.71
  -1  -4  -6   63.82    4.29
   1  -4   5  441.58    7.41
  -1  -4  -5  447.97   10.46
   1   4  -5  453.63   11.45
  -1   4   5  447.46    7.58
  -1   4   4  186.99    4.64
  -1  -4  -4  177.57    6.13
   1  -4   4  185.83    4.59
   1   4  -4  191.61    6.96
  -1  -4  -3  970.02   13.07
   1  -4   3  978.14   10.05
  -1  -4  -3  984.09   13.42
  -1   4   3  970.16    9.94
   1   4  -3 1007.04   14.79
   1   4  -2   30.87    2.47
   1  -4   2   26.45    1.66
  -1  -4  -2   28.36    2.08
  -1  -4  -2   27.24    2.15
  -1   4   2   29.82    1.71
  -1  -4  -1  415.80    7.21
  -1  -4  -1  404.51    7.73
   1  -4   0  287.10    7.32
  -1  -4   0  303.44    5.58
  -1   4   0  288.08    4.75
   1  -4  -1  407.73    8.84
  -1   4  -1  410.11    6.65
   1  -4  -2   25.45    2.43
  -1  -4   2   31.06    1.80
  -1   4  -2   25.50    1.98
  -1  -4   3  977.17    9.74
   1   4   3  966.64    9.66
  -1   4  -3  951.77   13.27
   1  -4  -3  945.61   14.81
  -1  -4   4  189.34    4.67
   1  -4  -4  184.65    7.08
   1   4   4  180.78    4.56
  -1  -4   4  183.14    4.53
  -1   4  -4  185.25    6.60
   1  -4  -5  446.85   11.97
  -1  -4   5  450.05    7.41
  -1   4  -5  429.22   11.07
  -1  -4   5  455.95    7.79
   1   4   5  430.90    7.63
   1  -4  -6   66.79    5.01
  -1   4  -6   62.35    4.65
  -1  -4   6   65.73    2.97
  -1  -4   6   72.51    3.42
   1   4   6   67.50    3.27
   1  -4  -7   20.14    2.96
  -1   4  -7   18.13    2.75
  -1  -4   7   18.69    1.96
   1   4   7   17.56    1.87
  -1  -4   8    7.56    1.37
   1   4   8    8.52    1.36
  -1  -4   9   97.44    4.15
   1   4   9  100.06    4.06
  -1  -4  10   27.51    2.03
  -1  -4  10   27.65    1.92
  -1   4 -10   27.16    2.26
   1   4  10   25.32    1.91
  -1   5  10    1.47    0.60
   1  -5   9   62.57    2.82
  -1   5   9   65.21    2.85
   1  -5   8    9.57    1.30
   1  -5   8   12.91    1.60
   1  -5   8   11.08    1.48
  -1   5   8   12.58    1.52
   1  -5   7  161.39    5.16
  -1   5   7  164.54    5.17
  -1   5   6  102.57    4.08
   1  -5   6   97.08    3.93
   1   5  -6  101.21    6.18
  -1   5   5   54.81    2.93
   1   5  -5   52.53    4.19
   1  -5   5   54.66    2.87
   1  -5   4    3.91    0.95
  -1   5   4    5.65    1.01
  -1  -5  -4    4.98    1.39
   1   5  -4    4.07    1.19
   1  -5   4    4.99    0.76
  -1  -5  -3   57.12    3.72
  -1  -5  -3   51.06    2.55
   1  -5   3   62.22    2.86
   1   5  -3   53.34    3.75
  -1   5   3   51.61    2.61
  -1  -5  -2  432.09    9.47
   1  -5   2  435.74    7.23
  -1  -5  -2  407.16    6.85
  -1   5   2  431.14    7.14
   1   5  -2  427.16   10.03
  -1   5   1 2072.62   15.33
  -1  -5  -1 2051.46   15.20
   1   5  -1 2068.79   13.97
  -1  -5  -1 2028.00   20.04
   1   5   0  251.21    4.87
  -1  -5   0  232.22    5.11
   1  -5   0  237.32    7.57
   1  -5   0  235.80    5.18
   1  -5   0  239.24    4.72
  -1   5   0  244.34    5.26
  -1  -5   1 2051.56   15.24
  -1   5  -1 2055.32   15.38
   1   5   1 2084.81   14.35
  -1  -5   1 2064.91   14.17
   1  -5  -2  418.61   10.56
  -1  -5   2  404.71    6.59
  -1  -5   2  410.16    7.08
   1   5   2  422.11    6.71
  -1  -5   3   50.53    2.51
  -1  -5   3   58.13    2.69
   1  -5  -3   48.65    3.79
   1   5   3   53.17    2.56
  -1  -5   4    5.73    0.96
   1   5   4    4.80    1.01
  -1   5  -4    4.23    1.31
  -1  -5   4    4.07    0.96
   1  -5  -4    4.66    1.35
   1   5   5   55.51    2.97
  -1   5  -5   54.54    4.12
  -1  -5   5   55.92    2.97
   1  -5  -5   55.59    4.52
  -1  -5   5   56.71    2.88
   1  -5  -6   99.97    6.44
   1   5   6   99.26    4.11
  -1  -5   6   99.51    4.17
  -1  -5   6   97.91    3.86
  -1  -5   7  153.26    5.32
   1   5   7  166.99    5.45
  -1  -5   7  163.26    5.54
   1   5   8   13.64    1.64
  -1  -5   8   11.37    1.55
  -1  -5   9   67.94    3.24
   1   5   9   70.34    3.21
  -1  -5  10    2.08    0.63
   1   5  10    2.73    0.76
  -1   5 -10    3.33    1.05
  -1   6   9   12.36    1.36
  -1   6   8   74.31    3.22
   1  -6   8   73.50    3.25
  -1   6   8   76.74    3.50
   1  -6   8   65.98    3.02
   1  -6   7  140.72    4.77
  -1  -6  -7  138.25    4.51
  -1   6   7  138.35    4.70
   1  -6   6  399.14    8.14
  -1  -6  -6  403.90    8.00
  -1  -6  -5  117.83    4.34
  -1   6   5  117.87    4.49
   1   6  -5  115.82    6.45
   1  -6   5  119.32    4.47
  -1  -6  -4 2146.60   18.06
   1  -6   4 2128.29   16.55
   1  -6   4 2142.71   18.33
  -1   6   4 2146.63   18.48
   1  -6   3  160.90    4.94
  -1  -6  -3  152.72    4.78
  -1   6   3  161.57    4.95
   1   6  -3  150.39    6.70
   1  -6   2  776.60   10.53
  -1  -6  -2  769.75   10.36
  -1  -6  -2  749.00   13.96
  -1   6   2  766.43   10.55
   1   6  -2  774.40   14.56
  -1  -6  -1   72.18    3.19
   1   6  -1   74.33    4.35
   1  -6   1   70.27    3.17
   1   6  -1   77.13    3.05
  -1   6   1   72.56    3.23
   1  -6   0   16.00    1.61
   1   6   0   17.56    1.56
  -1  -6   0   18.66    1.72
   1  -6   0   18.65    1.55
  -1   6   0   19.48    1.75
  -1   6  -1   76.04    3.33
  -1  -6   1   71.86    3.27
   1  -6  -1   68.10    4.72
   1   6   1   72.87    3.01
  -1  -6   1   70.87    2.95
   1  -6  -1   66.22    3.10
  -1  -6   2  775.99   10.43
  -1  -6   2  765.19   10.61
   1  -6  -2  761.93   10.28
   1   6   2  777.57   10.05
   1  -6  -2  758.44   15.74
  -1  -6   2  767.80    9.91
  -1  -6   3  156.92    4.69
   1   6   3  156.89    4.73
   1  -6  -3  164.98    7.62
  -1  -6   3  151.94    4.78
  -1  -6   4 2141.91   18.26
   1   6   4 2128.81   18.02
   1  -6  -4 2181.50   28.44
  -1  -6   5  122.82    4.58
  -1  -6   5  116.51    4.33
   1  -6  -5  112.66    6.82
   1   6   5  120.31    4.53
  -1  -6   6  388.57    8.22
  -1  -6   6  386.87    7.72
   1   6   6  379.17    8.08
  -1  -6   7  137.19    5.00
  -1  -6   7  141.65    4.93
   1   6   7  142.97    4.88
  -1  -6   8   70.47    3.36
   1   6   8   74.36    3.34
  -1  -6   9    9.43    1.16
  -1   6  -9   12.29    1.53
   1   6   9   11.69    1.22
  -1   7   8   57.84    2.55
  -1   7   8   54.19    2.44
   1  -7   7    6.12    1.20
   1  -7   7    5.72    1.05
  -1   7   7    7.45    1.18
  -1   7   7    6.24    1.01
  -1  -7  -6   15.96    1.65
   1  -7   6   17.51    1.83
  -1   7   6   17.48    1.58
  -1   7   6   17.90    1.81
  -1   7   5    2.06    0.94
  -1  -7  -5    1.93    0.94
   1  -7   5    1.21    0.83
  -1  -7  -4    2.24    1.10
   1  -7   4    2.41    0.76
   1  -7   4    2.54    0.98
  -1   7   4    3.11    1.05
   1  -7   3   32.23    2.40
  -1   7   3   38.37    2.63
  -1  -7  -3   30.65    2.36
  -1   7   2  186.84    5.60
  -1  -7  -2  171.31    5.30
   1  -7   2  175.18    5.37
  -1   7   1  384.76    8.00
  -1  -7  -1  366.78    7.75
   1  -7   1  387.99    7.81
  -1  -7   0    0.09    0.66
  -1   7   0   -0.16    0.66
   1  -7   0    0.91    0.76
   1   7   0    1.19    0.57
  -1  -7   1  384.93    8.03
  -1  -7   1  410.21    8.02
  -1  -7   1  383.82    7.16
  -1   7  -1  402.63    8.22
   1   7   1  399.87    7.54
   1  -7  -1  385.78    7.68
  -1  -7   2  179.35    5.38
   1   7   2  176.10    5.11
  -1  -7   2  167.43    4.89
   1  -7  -2  176.10    8.09
   1  -7  -2  175.23    5.20
  -1  -7   3   33.47    2.37
   1   7   3   30.85    2.26
   1  -7  -3   32.00    3.74
  -1  -7   3   33.37    2.42
   1  -7  -3   31.27    2.26
   1   7   4    3.14    0.82
  -1  -7   4    2.59    0.91
  -1  -7   4    1.77    0.74
   1  -7  -4    2.20    0.81
  -1  -7   5    3.17    1.13
   1   7   5    4.04    1.00
  -1  -7   5    2.99    0.93
  -1  -7   6   16.75    1.69
  -1  -7   6   16.71    1.77
   1   7   6   16.52    1.69
  -1  -7   7    6.76    1.20
   1   7   7    6.48    1.15
  -1   7  -8   53.46    2.92
   1   7   8   57.42    2.61
  -1  -7   8   50.87    2.52
  -1   8   7    2.96    0.67
   1  -8   7    4.78    0.91
   1  -8   6   76.35    3.17
  -1   8   6   74.30    3.11
   1  -8   5   81.20    3.47
  -1  -8  -5   80.53    3.28
  -1   8   5   81.21    3.54
   1  -8   4  299.25    6.79
  -1   8   4  301.43    6.99
   1  -8   4  298.33    6.34
  -1  -8  -4  296.31    6.61
   1  -8   3  218.35    5.90
   1  -8   3  216.43    5.61
  -1   8   3  235.79    6.32
  -1  -8  -3  214.72    5.83
  -1   8   2   59.45    3.26
   1  -8   2   61.67    3.18
  -1  -8  -2   60.80    3.22
  -1   8   1  274.71    6.92
  -1  -8  -1  284.24    6.92
   1  -8   1  271.42    6.58
  -1  -8   0  262.76    6.62
   1   8   0  268.64    6.18
  -1   8   0  259.56    6.77
   1  -8   0  250.23    6.29
  -1  -8   0  260.35    6.69
  -1  -8   1  270.71    6.77
   1  -8  -1  267.34    6.43
   1   8   1  281.01    6.42
   1   8   2   61.34    3.08
  -1  -8   2   61.15    2.95
  -1  -8   2   62.69    3.35
   1  -8  -2   58.90    2.99
   1  -8  -3  208.29    5.32
  -1  -8   3  219.34    5.66
   1   8   3  226.89    5.89
  -1  -8   3  216.29    6.03
  -1  -8   4  298.67    6.84
   1   8   4  303.65    6.77
  -1  -8   4  287.64    6.47
  -1  -8   5   76.76    3.31
  -1  -8   5   76.98    3.30
   1   8   5   78.98    3.38
  -1  -8   6   75.03    2.95
   1   8   6   73.14    3.09
  -1   8  -6   76.33    3.41
  -1  -8   7    4.84    0.85
   1   8   7    4.20    0.81
  -1   9   5   19.82    1.56
   1  -9   5   17.64    1.43
  -1   9   4   12.55    1.42
   1  -9   4   12.75    1.17
   1  -9   4   14.75    1.42
   1  -9   3   38.61    2.25
  -1   9   3   40.23    2.45
  -1  -9  -3   38.82    2.28
   1  -9   3   39.70    2.27
  -1  -9  -2  110.27    3.81
  -1  -9  -2  115.20    3.97
   1  -9   2  112.03    3.89
  -1   9   2  112.49    4.09
   1  -9   2  114.13    3.90
   1  -9   1   76.48    3.23
  -1  -9  -1   83.74    3.48
  -1  -9   0  169.36    5.03
   1  -9   0  158.59    4.55
   1  -9  -1   78.57    3.14
   1   9   1   75.49    3.08
   1   9   2  109.38    3.69
  -1  -9   2  116.30    4.17
  -1  -9   3   38.69    2.41
   1   9   3   42.26    2.33
   1   9   4   13.57    1.40
  -1  -9   4   13.23    1.33
   1   9   5   16.86    1.37
  -1  -9   5   17.06    1.37
   1 -10   1   20.27    1.50
  -1 -10  -1   19.69    1.46
   1 -10   0    7.32    0.99
  -1 -10   0    5.30    0.94
   1 -10  -1   19.40    1.44
  -1 -10   1   19.31    1.52
  -1 -10   2   41.52    2.10
   1 -10  -2   38.58    1.91
  -2   0  -1 9999.00   33.05
   2   0  -2 7614.95   25.96
  -2   0  -2 7556.57   31.38
  -2   0  -2 7545.17   30.10
   2   0  -3  976.51   10.36
  -2   0  -3  925.10   12.14
   2   0  -4  391.27    7.48
  -2   0  -4  404.92    9.04
  -2   0   5  356.30    6.18
   2   0   5  357.28    6.59
  -2   0   5  347.15    5.72
  -2   0  -5  347.14    6.54
   2   0  -5  351.95    8.17
  -2   0   5  358.20    6.05
  -2   0  -5  362.39    9.73
   2   0   6  618.83    9.50
  -2   0   6  617.57    8.19
   2   0  -6  622.19   12.16
  -2   0   6  622.42    8.95
  -2   0   6  635.38    9.15
  -2   0  -6  656.47   14.51
  -2   0  -6  643.85    9.52
  -2   0   7   83.41    3.67
   2   0   7   83.42    3.79
  -2   0   7   76.99    3.48
   2   0  -7   72.26    4.71
  -2   0   7   80.06    3.10
  -2   0   7   80.45    3.56
  -2   0  -7   87.56    5.94
   2   0   8  897.78   12.96
  -2   0   8  932.64   12.88
  -2   0  -8  944.31   20.50
   2   0  -8  872.71   17.37
  -2   0   8  927.58   12.64
  -2   0   8  885.28   11.94
  -2   0   9    4.16    1.05
   2   0   9    5.04    1.22
   2   0  10   78.49    3.19
  -2   0  10   83.87    3.74
   2   0  10   78.00    3.57
  -2   0  11  131.49    4.02
   2   0  11  123.91    3.79
  -2   1  11   23.56    1.74
   2  -1  11   21.73    1.67
   2  -1  10   30.65    2.24
  -2   1  10   31.54    2.32
   2  -1   9   93.53    4.22
  -2   1   9   90.22    4.09
  -2   1   9   90.57    4.04
   2  -1   8   47.14    3.10
  -2   1   8   45.36    2.90
   2   1  -8   47.15    4.20
  -2   1   8   43.12    2.94
  -2  -1  -8   44.11    4.64
  -2   1   7   21.72    1.96
   2  -1   7   21.51    2.05
  -2   1   7   20.55    1.65
   2   1  -7   24.13    2.94
  -2  -1  -7   22.70    3.31
  -2   1   6  319.20    6.53
   2  -1   6  327.23    7.03
  -2   1   6  307.02    6.36
  -2   1   6  305.77    5.68
   2   1  -6  299.81    8.97
  -2  -1  -6  305.62   10.08
  -2  -1  -5  919.28   15.79
  -2   1   5  902.31    9.11
   2   1  -5  908.88   13.88
  -2   1   5  929.32   10.01
   2   1  -4   27.41    2.24
  -2  -1  -4   28.38    2.70
  -2  -1  -3  346.44    7.88
   2   1  -3  342.72    7.09
  -2  -1  -2 2098.04   17.55
  -2  -1  -1  480.60    7.82
  -2   1   1  504.56    6.56
   2  -1   0  177.53    3.58
  -2  -1   0  176.16    4.56
  -2   1   0  173.06    3.89
   2  -1  -1  509.85    4.39
  -2   1  -1  508.30    6.89
   2  -1  -1  511.74    6.78
   2  -1  -2 2135.59   10.76
  -2  -1   2 2133.41   16.25
  -2   1  -2 2133.05   15.49
  -2   1  -2 2137.14   15.19
  -2   1  -3  331.03    7.05
   2  -1  -3  354.37    5.46
  -2   1  -4   26.20    2.41
   2  -1  -4   33.09    2.07
   2   1   5  929.60   10.43
  -2  -1   5  940.23   10.15
  -2  -1   5  923.27    9.64
   2  -1  -5  939.26   12.41
   2   1   6  324.24    6.79
  -2   1  -6  303.13    9.90
  -2  -1   6  326.07    6.63
   2  -1  -6  344.85    8.75
  -2  -1   6  321.53    6.07
  -2   1  -7   22.15    3.07
  -2  -1   7   20.51    1.95
  -2   1  -7   20.11    2.09
  -2  -1   7   21.73    1.75
   2   1   7   21.22    1.96
  -2  -1   8   45.48    2.95
  -2   1  -8   41.25    4.42
  -2   1  -8   44.01    2.98
  -2  -1   8   48.99    2.99
   2   1   8   44.03    2.96
  -2  -1   9   95.23    4.25
  -2  -1   9   95.57    4.18
   2   1   9   90.73    4.15
  -2  -1  10   30.52    2.27
   2   1  10   32.97    2.43
  -2  -1  11   22.13    1.71
   2   1  11   26.55    1.77
  -2   2  10   22.88    1.90
   2  -2  10   21.16    1.91
  -2   2  10   22.34    1.96
   2  -2   9   44.75    2.94
  -2   2   9   45.37    3.05
  -2   2   9   48.54    3.02
   2  -2   8  207.75    6.36
  -2   2   8  200.01    5.99
   2  -2   7  300.74    7.41
   2   2  -7  285.15   10.03
  -2   2   7  291.36    6.88
   2   2  -6    2.80    0.94
  -2   2   6    2.38    0.84
  -2   2   6    3.63    0.79
  -2   2   5  237.75    4.80
   2  -2   5  246.86    4.71
   2   2  -5  253.37    7.82
  -2   2   5  245.22    5.35
  -2   2   4  435.74    6.04
  -2   2   4  440.96    6.54
   2   2  -4  440.47    9.64
  -2  -2  -3  123.68    5.06
   2   2  -3  112.35    4.54
  -2  -2  -3  119.69    3.17
  -2  -2  -2  110.39    4.36
  -2  -2  -2  107.30    2.32
  -2  -2  -1  973.66   11.98
   2  -2   1  986.55   10.37
  -2   2   0  104.79    2.60
   2  -2   0  105.46    3.48
  -2  -2   0  108.09    3.88
  -2  -2   1  957.20   11.20
  -2   2  -1  929.04    8.33
  -2   2  -1  940.98    7.33
  -2   2  -2  111.32    3.46
   2  -2  -2  112.28    4.12
  -2   2  -2  105.97    3.20
  -2  -2   2  114.96    4.00
  -2   2  -3  121.17    4.45
  -2   2  -3  122.73    4.05
   2  -2  -3  125.69    4.79
  -2   2  -4  449.07    9.94
  -2  -2   4  445.25    6.58
  -2   2  -4  440.53    6.19
   2   2   4  441.18    6.55
  -2  -2   5  256.32    5.58
  -2  -2   5  246.70    5.27
  -2   2  -5  236.08    8.18
  -2   2  -5  250.38    5.03
   2   2   5  258.08    5.56
  -2   2  -6    3.24    1.13
   2   2   6    2.55    0.94
  -2  -2   6    2.11    0.77
  -2  -2   6    2.03    0.81
  -2  -2   7  303.50    7.11
  -2  -2   7  279.11    6.15
  -2   2  -7  285.34   10.56
   2   2   7  288.23    6.91
  -2  -2   8  212.78    6.32
  -2   2  -8  204.76    6.68
   2   2   8  200.93    6.14
  -2   2  -9   49.03    3.20
  -2  -2   9   45.37    2.96
   2   2   9   48.48    3.03
  -2  -2   9   44.49    2.85
  -2  -2  10   20.61    1.91
   2   2  10   21.10    1.91
  -2  -2  10   24.74    2.00
  -2  -2  11   40.65    2.10
   2   2  11   39.49    2.09
  -2   3  10   15.29    1.69
   2  -3  10   15.08    1.56
  -2   3   9   22.78    2.04
   2  -3   9   21.24    1.98
  -2   3   9   26.87    2.34
   2  -3   8   20.47    2.19
  -2   3   8   20.83    2.00
  -2  -3  -7  112.22    7.24
  -2   3   7  100.23    4.12
   2   3  -7  100.17    6.31
   2  -3   7  100.27    3.64
   2  -3   6   34.32    2.07
  -2   3   6   31.95    2.27
  -2   3   6   31.78    2.05
   2   3  -6   32.35    3.38
   2   3  -5   16.65    2.24
   2  -3   5   14.69    1.36
  -2  -3  -5   15.73    2.36
  -2   3   5   13.52    1.25
  -2   3   5   13.19    1.47
  -2   3   4  270.07    5.31
  -2   3   4  281.51    5.53
  -2  -3  -4  302.11    8.98
   2   3  -4  290.70    8.53
   2  -3   4  282.59    5.26
  -2  -3  -3  280.98    7.84
   2  -3   3  279.01    5.03
  -2  -3  -2  361.02    8.21
  -2  -3  -2  348.36    5.40
  -2  -3  -1  448.52    8.69
   2  -3   1  445.64    8.27
   2  -3   0  192.28    5.53
  -2  -3   0  183.74    5.33
  -2  -3   1  461.41    8.21
   2  -3  -1  442.29    8.69
  -2   3  -2  338.66    6.33
   2  -3  -2  344.09    8.09
  -2  -3   2  358.52    7.33
   2  -3  -3  289.44    8.00
  -2   3  -3  270.76    7.18
  -2  -3   3  278.40    5.24
   2   3   3  281.02    4.95
  -2  -3   4  277.30    5.58
  -2   3  -4  296.12    8.74
  -2  -3   4  275.29    5.49
   2  -3  -4  293.75    8.72
   2   3   4  291.30    5.60
  -2   3  -4  287.21    5.32
  -2   3  -5   16.80    2.58
  -2  -3   5   14.53    1.54
   2   3   5   17.05    1.56
   2  -3  -5   15.81    2.39
  -2   3  -5   17.05    1.42
  -2  -3   6   31.27    2.37
  -2   3  -6   35.63    3.76
  -2  -3   6   33.65    2.22
   2  -3  -6   32.19    3.58
   2   3   6   36.73    2.45
  -2   3  -7  100.01    6.37
  -2  -3   7   97.62    4.22
  -2  -3   7  101.45    3.86
   2   3   7  101.78    4.22
   2  -3  -7   90.15    6.17
  -2  -3   8   22.11    2.15
  -2   3  -8   24.16    2.68
   2   3   8   19.40    1.99
  -2  -3   9   25.81    2.27
  -2   3  -9   22.84    2.35
  -2  -3   9   22.90    1.99
   2   3   9   24.90    2.16
  -2  -3  10   14.04    1.60
  -2  -3  10   16.50    1.57
   2   3  10   15.90    1.66
  -2   3 -10   13.86    1.68
  -2   4  10   71.23    3.16
   2  -4   9  120.73    4.39
  -2   4   9  132.92    4.91
   2  -4   8   57.48    3.37
   2  -4   8   56.67    2.89
  -2   4   8   61.26    3.62
   2  -4   7  387.07    7.47
  -2   4   7  375.19    7.37
   2  -4   6   15.24    1.55
   2   4  -6    9.04    2.12
  -2   4   6   12.44    1.37
  -2  -4  -6   10.88    2.23
  -2  -4  -5   99.34    5.86
   2  -4   5   97.39    3.52
   2   4  -5   91.27    5.42
  -2   4   5   98.65    3.64
   2  -4   4  245.01    5.38
   2   4  -4  260.91    8.67
  -2   4   4  242.51    5.47
  -2  -4  -4  245.68    8.45
   2   4  -3  175.95    6.80
  -2  -4  -3  166.48    6.42
  -2   4   3  156.28    4.24
   2  -4   3  166.25    4.39
   2  -4   2  459.13    7.02
  -2  -4  -2  446.68    9.76
  -2   4   2  450.87    6.86
  -2   4   2  474.58    7.02
   2  -4   1 1649.40   13.32
  -2   4   1 1641.79   12.90
  -2  -4  -1 1652.45   12.86
  -2  -4  -1 1646.54   17.58
  -2   4   0    2.09    0.54
  -2  -4   0    1.22    0.49
  -2  -4   0    1.03    0.87
  -2  -4   0    0.74    0.57
  -2  -4   0    0.68    0.65
   2  -4   0    1.31    0.93
  -2  -4   1 1669.88   16.33
  -2  -4   1 1658.61   12.94
  -2   4  -1 1640.84   13.21
  -2  -4   1 1646.06   12.65
   2  -4  -1 1669.80   19.18
   2  -4  -2  467.32   10.63
  -2  -4   2  461.82    6.91
   2   4   2  467.07    6.31
  -2  -4   2  444.83    6.94
  -2  -4   3  170.29    4.38
  -2  -4   3  167.79    4.49
   2  -4  -3  174.02    6.84
   2   4   3  171.13    4.18
   2   4   4  240.41    5.43
  -2  -4   4  240.65    5.63
  -2  -4   4  234.72    5.51
   2  -4  -4  248.38    8.70
  -2   4  -4  240.63    5.15
   2   4   5   98.89    3.79
  -2  -4   5   96.04    3.81
   2  -4  -5   92.63    5.78
  -2  -4   5   95.75    3.77
  -2   4  -5   97.18    3.35
  -2  -4   6   11.31    1.53
   2   4   6   11.59    1.52
   2  -4  -6   15.13    2.63
  -2  -4   7  395.90    8.54
   2   4   7  391.19    8.25
  -2  -4   7  378.43    7.61
  -2  -4   8   57.75    3.30
  -2   4  -8   60.31    4.02
   2   4   8   64.99    3.44
  -2  -4   9  132.40    4.71
  -2  -4   9  120.32    4.13
  -2   4  -9  123.31    5.03
   2   4   9  131.70    4.57
  -2   4 -10   62.15    3.12
   2   4  10   64.55    2.83
   2  -5   9   17.26    1.60
  -2  -5  -9   18.13    1.63
  -2   5   9   18.83    1.83
   2  -5   8   47.58    2.89
   2  -5   8   46.71    2.61
  -2   5   8   48.70    3.09
   2  -5   7   31.13    2.28
  -2   5   7   30.41    2.19
  -2   5   7   33.70    2.69
  -2   5   6  115.25    4.23
   2  -5   6  118.29    4.27
  -2   5   6  114.44    4.74
   2   5  -5  176.18    7.93
  -2  -5  -5  179.69    7.90
  -2   5   5  162.37    4.98
   2  -5   5  172.14    5.03
  -2   5   4  333.49    6.99
  -2  -5  -4  356.45   10.46
   2  -5   4  338.90    6.93
   2   5  -4  349.89   10.77
  -2   5   4  351.81    7.50
   2   5  -3  512.48   12.54
   2  -5   3  508.71    8.36
  -2  -5  -3  497.43   11.49
  -2   5   3  504.05    8.32
  -2  -5  -3  509.52    8.37
  -2   5   3  501.53    8.28
   2   5  -2   68.78    4.49
   2  -5   2   66.81    3.01
  -2  -5  -2   63.70    3.87
  -2   5   2   62.78    2.91
  -2  -5  -2   63.24    2.98
   2  -5   1  264.58    5.89
  -2   5   1  261.31    5.79
  -2  -5  -1  255.28    5.71
   2  -5   0  557.13    8.55
  -2  -5   0  546.27    8.25
  -2  -5   0  525.38    8.19
   2  -5   0  551.61   12.18
  -2   5   0  555.41    8.46
  -2  -5   1  264.46    5.87
   2   5   1  256.70    4.95
   2  -5  -1  260.98    8.59
  -2   5  -1  259.39    5.91
  -2  -5   1  259.98    5.74
   2   5   2   60.74    2.58
   2  -5  -2   68.42    4.60
  -2  -5   2   58.94    2.70
  -2  -5   2   62.48    2.93
  -2  -5   2   65.24    2.93
  -2  -5   3  492.46    8.41
   2  -5  -3  507.11   12.77
   2   5   3  502.91    7.75
  -2  -5   3  508.54    8.21
  -2  -5   4  330.99    7.04
  -2  -5   4  336.92    7.23
   2  -5  -4  356.95   11.27
   2   5   4  342.85    6.87
  -2   5  -4  332.33    6.33
  -2  -5   5  169.74    5.28
   2  -5  -5  167.69    8.22
   2   5   5  169.96    5.14
  -2  -5   5  166.37    5.28
   2   5   6  120.33    4.50
  -2  -5   6  114.67    4.42
  -2  -5   7   35.14    2.69
  -2  -5   7   32.47    2.35
   2   5   7   33.40    2.45
  -2  -5   8   47.90    2.94
  -2   5  -8   47.12    3.47
   2   5   8   53.21    2.97
  -2  -5   9   20.87    1.81
   2   5   9   17.65    1.62
  -2   5  -9   22.51    2.14
  -2   6   9   52.48    2.51
   2  -6   8  148.80    4.54
  -2  -6  -8  142.84    4.26
   2  -6   8  139.16    4.08
  -2  -6  -7  192.58    5.47
   2  -6   7  194.41    5.29
  -2   6   7  192.50    5.74
  -2   6   7  188.72    5.20
   2  -6   6  281.74    6.66
  -2   6   6  269.46    6.50
  -2  -6  -6  280.66    6.89
  -2   6   6  287.69    7.08
   2  -6   5  340.50    7.39
  -2   6   5  345.03    7.55
  -2  -6  -5  343.33    7.67
  -2   6   5  347.99    7.72
   2  -6   4  136.46    4.72
   2   6  -4  125.39    6.73
  -2   6   4  129.69    4.66
  -2  -6  -4  135.60    4.83
  -2   6   4  142.23    4.73
   2   6  -3   24.09    3.04
   2  -6   3   28.37    2.20
  -2   6   3   27.54    2.25
  -2  -6  -3   26.55    2.22
   2  -6   2  504.77    8.89
   2   6  -2  510.50   13.03
  -2  -6  -2  521.87    8.82
  -2  -6  -2  484.09    8.77
  -2   6   2  509.27    8.97
   2  -6   1   21.13    1.95
  -2   6   1   23.61    2.03
  -2  -6  -1   22.27    1.88
  -2  -6  -1   25.56    2.08
   2  -6   0  442.61    8.40
  -2  -6   0  470.51    8.45
  -2   6   0  457.42    8.46
  -2  -6   0  442.99    8.20
  -2  -6   1   21.33    1.95
   2  -6  -1   21.79    2.02
   2  -6  -1   22.01    2.93
   2   6   1   24.98    1.73
  -2  -6   1   23.20    2.00
  -2  -6   2  504.53    8.96
  -2  -6   2  506.25    8.26
   2  -6  -2  486.56   13.24
  -2  -6   2  516.28    8.95
   2   6   2  490.35    7.73
  -2  -6   3   28.63    2.12
  -2  -6   3   25.27    2.24
   2  -6  -3   25.73    3.25
   2   6   3   29.00    2.06
  -2  -6   4  139.60    4.95
   2  -6  -4  132.35    7.36
   2   6   4  135.93    4.55
  -2  -6   4  137.32    4.71
  -2  -6   5  333.11    7.53
  -2  -6   5  347.78    7.78
   2   6   5  349.87    7.51
  -2  -6   6  284.02    6.90
   2   6   6  277.78    6.72
  -2  -6   7  195.40    5.82
  -2   6  -7  200.18    6.77
   2   6   7  209.28    5.72
  -2  -6   7  184.37    5.17
  -2  -6   8  156.22    4.81
   2   6   8  160.86    4.64
  -2   6  -8  158.26    5.49
  -2  -6   9   47.52    2.33
  -2   6  -9   48.34    2.74
   2   6   9   50.81    2.31
  -2  -7  -7   16.33    1.57
   2  -7   7   17.14    1.56
  -2   7   7   19.98    1.70
  -2   7   7   16.60    1.49
   2  -7   6   86.58    3.58
  -2   7   6   84.50    3.50
  -2  -7  -6   84.83    3.62
  -2   7   6   85.19    3.50
   2  -7   5   14.86    1.65
  -2   7   5   11.60    1.53
  -2  -7  -5   14.70    1.72
  -2   7   4  156.12    5.22
  -2  -7  -4  160.56    5.29
   2  -7   4  158.65    5.21
   2  -7   3   47.38    2.92
  -2   7   3   48.21    3.01
  -2  -7  -3   45.35    2.93
  -2   7   2    6.10    1.25
   2  -7   2    5.55    1.25
  -2  -7  -2    5.47    1.05
  -2  -7  -2    3.80    1.09
   2  -7   1   34.59    2.57
  -2  -7  -1   32.03    2.49
  -2  -7  -1   27.54    2.21
   2   7  -1   25.90    2.94
  -2   7   1   30.35    2.49
  -2   7   0    7.47    1.28
  -2  -7   0    6.76    1.20
  -2  -7   0    9.19    1.49
   2   7   0    9.96    1.99
   2  -7   0    6.05    1.30
   2  -7  -1   27.19    2.29
  -2  -7   1   32.02    2.44
  -2  -7   1   31.72    2.42
   2   7   2    5.19    1.09
  -2  -7   2    5.78    1.28
   2  -7  -2    4.74    1.12
  -2  -7   3   48.30    3.00
   2   7   3   46.18    2.59
   2  -7  -3   43.54    2.86
  -2  -7   3   48.37    2.73
  -2  -7   4  155.84    4.93
   2  -7  -4  153.29    5.06
  -2   7  -4  155.70    5.50
   2   7   4  157.18    4.88
  -2  -7   4  160.33    5.36
  -2  -7   5   12.46    1.49
   2  -7  -5   14.96    1.60
   2   7   5   14.70    1.62
  -2   7  -5   15.12    1.91
  -2  -7   5   14.55    1.74
  -2  -7   6   83.43    3.56
  -2   7  -6   90.81    4.23
   2   7   6   86.28    3.51
  -2  -7   7   18.36    1.71
  -2  -7   7   15.46    1.38
   2   7   7   16.61    1.52
  -2   7  -7   16.94    1.77
  -2  -7   8   11.57    1.20
   2   7   8   11.66    1.11
  -2   7  -8   10.33    1.36
   2  -8   6   24.03    1.77
  -2   8   6   23.87    1.70
  -2  -8  -6   22.93    1.70
  -2   8   5   68.51    3.13
   2  -8   5   72.97    3.16
  -2  -8  -5   69.23    3.10
  -2   8   4    3.44    1.00
   2  -8   4    4.12    0.97
  -2  -8  -4    5.17    1.24
   2  -8   3   19.70    1.90
  -2   8   3   19.22    1.94
  -2  -8  -3   19.06    1.93
   2  -8   3   17.46    1.64
   2  -8   2  188.99    5.59
  -2   8   2  203.21    5.96
  -2  -8  -2  189.86    5.69
  -2  -8  -2  185.45    5.22
   2  -8   1  290.02    6.95
  -2  -8  -1  291.06    6.80
  -2   8   1  301.91    7.44
  -2  -8  -1  294.70    7.14
   2  -8   0    8.81    1.42
  -2  -8   0   10.75    1.51
  -2  -8   0    9.46    1.58
   2  -8  -1  284.54    6.88
  -2  -8   1  301.23    7.24
   2  -8  -2  182.99    5.43
  -2  -8   2  197.04    5.88
   2   8   2  190.66    4.87
  -2  -8   3   19.68    1.98
   2  -8  -3   15.98    1.68
   2   8   3   20.06    1.66
   2   8   4    4.51    0.90
  -2  -8   4    2.64    0.94
   2  -8  -4    2.15    0.78
  -2  -8   5   71.38    3.20
   2   8   5   66.89    2.89
  -2  -8   6   24.71    1.83
  -2  -8   6   24.80    1.72
   2   8   6   24.73    1.68
   2  -9   4  117.14    3.58
  -2   9   4  117.32    3.73
  -2  -9  -4  109.16    3.44
   2  -9   3   46.90    2.21
   2  -9   3   43.61    2.37
  -2   9   3   45.13    2.52
  -2  -9  -3   42.95    2.40
   2  -9   2  101.97    3.65
   2  -9   2  100.51    3.41
  -2  -9  -2  104.56    3.80
   2  -9   1   49.18    2.61
  -2  -9  -1   49.40    2.63
  -2  -9  -1   50.04    2.71
   2  -9   0   59.35    2.84
  -2  -9   0   59.80    2.98
  -2  -9   1   54.61    2.87
   2  -9  -1   46.01    2.52
  -2  -9   2  100.74    3.83
   2  -9  -2   92.06    3.35
  -2  -9   3   47.51    2.61
  -2  -9   4  121.37    3.79
  -3   0   0    0.25    0.78
  -3   0   1 1513.76   15.62
   3   0  -1 1497.48   10.78
  -3   0  -1 1511.16   16.21
  -3   0  -2  315.38    7.83
   3   0  -2  321.38    6.39
  -3   0   2  303.48    7.12
  -3   0   3  859.06    8.57
  -3   0   3  864.23    8.80
   3   0  -3  842.69   10.88
  -3   0  -3  864.16    8.56
  -3   0  -3  840.88   13.83
  -3   0  -3  852.63    8.38
  -3   0   4 2154.07   14.46
   3   0   4 2137.76   15.51
   3   0  -4 2194.08   18.77
  -3   0   4 2155.84   14.93
  -3   0  -4 2156.92   17.43
  -3   0   4 2144.98   16.19
  -3   0   4 2172.18   14.79
  -3   0   5  187.10    4.76
  -3   0  -5  200.61    5.69
   3   0   5  193.98    5.24
  -3   0   5  193.89    5.30
  -3   0  -5  170.70    8.39
  -3   0   5  193.59    4.90
  -3   0   5  211.65    5.04
  -3   0  -5  188.76    7.91
   3   0  -5  189.95    6.26
  -3   0   6    8.58    1.25
   3   0   6    8.92    1.42
  -3   0   6    8.44    1.25
  -3   0  -6    9.66    2.32
  -3   0  -6    8.42    1.31
  -3   0  -6   11.09    2.61
  -3   0   6    9.02    1.24
  -3   0   6    9.34    1.40
   3   0  -6   10.92    1.78
  -3   0   7  126.66    4.62
  -3   0   7  131.12    4.65
   3   0   7  122.32    4.81
  -3   0   7  128.14    4.34
  -3   0  -7  128.36    4.92
  -3   0  -7  124.58    8.75
  -3   0  -7  120.81    7.45
  -3   0   7  121.85    4.63
   3   0   8  137.35    5.19
  -3   0   8  134.87    4.32
  -3   0   8  138.50    4.99
  -3   0   8  135.04    4.86
  -3   0   9   41.77    2.72
   3   0   9   44.63    2.93
  -3   0  10   69.48    3.19
   3   0  10   67.35    3.21
  -3   1  10   20.11    1.77
   3  -1  10   23.72    1.96
  -3   1   9   18.71    1.88
  -3   1   9   18.58    2.01
   3  -1   9   19.64    2.04
   3  -1   8  226.36    6.72
  -3   1   8  210.65    6.15
  -3   1   8  208.23    6.51
   3  -1   7   84.12    4.09
  -3   1   7   80.54    3.39
  -3   1   7   83.51    3.77
  -3   1   7   76.09    4.03
   3   1  -7   77.78    5.24
  -3  -1  -7   89.90    7.17
   3  -1   6  171.74    5.47
  -3   1   6  165.76    4.68
  -3   1   6  165.67    5.01
  -3  -1  -6  173.65    9.44
   3   1  -6  161.12    6.86
  -3   1   6  158.96    5.65
   3   1  -5   59.05    3.84
  -3   1   5   58.61    2.80
  -3  -1  -5   57.29    4.94
  -3   1   5   61.76    3.41
  -3   1   5   61.62    2.72
  -3   1   4  524.06    8.77
  -3   1   4  507.16    7.41
   3   1  -4  517.94   10.48
  -3  -1  -4  513.73   12.74
  -3   1   4  513.91    7.30
   3   1  -3  267.32    7.07
  -3   1   3  257.56    4.77
  -3  -1  -3  257.04    8.07
  -3  -1  -3  263.71    4.88
  -3   1   3  248.17    5.44
  -3  -1  -2  221.57    6.90
  -3   1   1  160.36    4.79
  -3  -1  -1  159.96    5.68
  -3  -1   0  664.88   11.13
   3  -1   0  677.42    7.74
  -3  -1   1  162.28    5.46
   3  -1  -1  158.54    4.23
  -3   1  -1  152.49    4.87
   3  -1  -2  201.85    3.88
  -3   1  -2  215.96    6.14
   3  -1  -2  216.86    5.58
  -3  -1   2  226.20    6.40
  -3  -1   3  257.09    5.01
  -3   1  -3  258.67    5.93
  -3   1  -3  251.12    7.14
  -3   1  -3  254.27    7.16
  -3  -1   3  259.27    4.88
  -3   1  -3  257.02    4.78
   3   1   4  512.37    7.47
  -3   1  -4  497.87    8.89
  -3  -1   4  519.26    7.16
  -3  -1   4  506.32    7.53
  -3  -1   4  491.24    7.10
  -3   1  -4  510.33   11.43
  -3   1  -4  528.76    7.10
  -3  -1   4  507.58    7.15
  -3   1  -4  515.43   11.76
  -3  -1   4  506.97    7.44
  -3   1  -4  518.70    7.22
   3   1   5   59.12    2.86
  -3  -1   5   58.28    2.72
  -3   1  -5   64.51    4.77
  -3  -1   5   59.40    2.79
  -3   1  -5   60.54    3.37
  -3   1  -5   58.07    4.55
  -3  -1   5   58.29    2.75
  -3  -1   5   54.86    2.64
   3   1   6  166.65    5.14
  -3  -1   6  174.52    5.12
  -3  -1   6  166.56    4.84
  -3  -1   6  167.29    4.98
  -3   1  -6  165.34    5.76
  -3   1  -6  168.98    8.77
  -3   1  -6  164.97    8.29
  -3  -1   6  168.19    4.82
  -3  -1   7   85.97    3.89
  -3  -1   7   81.21    3.47
  -3  -1   7   84.09    3.80
  -3   1  -7   82.83    4.24
  -3   1  -7   83.90    6.87
  -3   1  -7   79.39    6.32
   3   1   7   81.96    3.87
  -3  -1   8  229.02    6.50
  -3  -1   8  212.99    5.51
  -3  -1   8  203.23    6.01
  -3   1  -8  214.88    6.68
   3   1   8  221.86    6.42
  -3  -1   9   17.52    1.81
   3   1   9   17.72    1.85
  -3  -1  10   21.25    1.77
   3   1  10   22.02    1.89
   3  -2  10    2.63    0.77
  -3   2  10    0.68    0.68
   3  -2   9   66.87    3.56
  -3   2   9   67.96    3.44
  -3   2   9   62.29    3.51
   3  -2   8   93.42    4.43
  -3   2   8   97.94    4.23
  -3   2   8   97.16    4.73
   3  -2   7  176.01    5.99
  -3   2   7  173.41    5.51
  -3   2   7  172.02    6.47
  -3  -2  -7  183.74   10.04
   3   2  -7  175.83    8.19
  -3   2   6  355.85    6.94
  -3   2   6  356.62    7.45
  -3   2   6  336.76    9.00
   3   2  -6  354.96   10.79
  -3   2   5   51.53    2.56
   3   2  -5   53.50    4.05
  -3   2   5   52.48    2.76
  -3  -2  -5   60.24    4.96
  -3   2   5   49.11    3.44
  -3   2   4   12.66    1.34
  -3   2   4   12.43    1.25
  -3  -2  -4   12.74    2.23
   3   2  -4   14.08    2.04
  -3   2   4   10.08    1.52
  -3   2   3 1490.84   11.76
  -3  -2  -3 1507.99   20.15
   3   2  -3 1495.49   18.66
  -3   2   3 1446.03   14.06
  -3   2   2  711.55    7.66
  -3  -2  -2  742.76   13.29
  -3  -2  -2  735.12    7.79
  -3   2   2  702.39    8.85
  -3  -2  -1   71.28    4.00
  -3   2   0  422.59    7.05
  -3  -2   0  417.88    9.20
   3  -2   0  440.16    7.77
  -3  -2   1   61.95    3.54
  -3   2  -1   57.01    2.72
   3  -2  -1   62.89    3.16
  -3  -2   2  713.89   11.73
  -3  -2   2  713.03    8.30
  -3  -2   2  723.82    8.22
  -3   2  -2  726.87   10.25
  -3   2  -2  713.97    9.76
  -3  -2   2  703.87    7.87
   3  -2  -2  734.16   11.45
  -3  -2   3 1476.19   12.15
  -3  -2   3 1484.94   12.62
  -3   2  -3 1420.67   15.81
  -3   2  -3 1488.83   15.29
  -3   2  -3 1433.86   16.70
   3  -2  -3 1492.28   17.93
   3   2   3 1445.45   11.31
  -3   2  -3 1445.08   11.99
  -3  -2   4   11.52    1.20
  -3  -2   4   14.08    1.44
  -3   2  -4   14.20    1.77
  -3  -2   4   13.72    1.34
  -3   2  -4   13.74    1.17
  -3   2  -4   10.49    1.64
   3  -2  -4   14.82    2.15
  -3   2  -4   17.68    2.39
  -3   2  -4   12.30    1.32
   3   2   4   15.52    1.40
  -3  -2   5   51.11    2.63
  -3  -2   5   49.36    2.65
  -3   2  -5   48.17    3.68
  -3  -2   5   54.19    2.54
  -3   2  -5   53.67    3.51
   3  -2  -5   57.18    4.32
  -3   2  -5   48.78    4.39
  -3  -2   5   53.32    2.75
  -3   2  -5   51.12    2.57
   3   2   5   51.79    2.67
  -3  -2   6  365.25    7.54
  -3  -2   6  355.51    7.30
  -3   2  -6  372.21    9.43
  -3  -2   6  367.83    7.60
   3  -2  -6  362.08   11.57
  -3   2  -6  360.70   12.67
   3   2   6  359.01    7.44
  -3   2  -7  172.20    6.54
  -3  -2   7  178.19    5.64
  -3  -2   7  179.78    5.55
  -3  -2   7  171.36    5.22
  -3   2  -7  179.56    9.44
   3  -2  -7  170.08    8.42
   3   2   7  172.73    5.49
  -3  -2   8   95.39    4.24
  -3  -2   8   99.87    4.21
  -3   2  -8   91.27    4.64
  -3  -2   8  100.62    3.81
   3   2   8  102.31    4.35
  -3  -2   9   67.55    3.45
  -3   2  -9   63.03    3.61
  -3  -2   9   62.90    3.15
   3   2   9   67.52    3.42
   3   2  10    1.13    0.71
  -3  -2  10    2.04    0.68
  -3   3  10    8.96    1.25
   3  -3  10    8.87    1.17
   3  -3   9   15.55    1.78
  -3   3   9   16.99    1.96
   3  -3   8   13.87    1.85
  -3   3   8   13.73    2.01
  -3   3   7   13.55    2.05
   3   3  -6  167.83    7.89
  -3  -3  -6  175.62    8.96
  -3   3   6  171.91    6.69
   3   3  -5  112.29    6.17
  -3  -3  -5  114.16    6.78
  -3   3   5  120.02    5.46
   3  -3   4   11.10    1.17
   3   3  -4   10.08    1.98
  -3  -3  -4   10.17    1.17
  -3  -3  -4   11.52    2.25
  -3   3   4   13.24    1.73
   3  -3   3  153.35    3.98
  -3  -3  -3  154.51    4.21
  -3  -3  -3  165.18    6.99
   3   3  -3  159.24    6.67
  -3   3   3  161.09    4.99
   3  -3   2   78.37    2.84
  -3  -3  -2   80.40    4.64
  -3  -3  -2   75.10    2.85
  -3   3   2   80.41    3.19
  -3  -3  -1  404.21    9.85
  -3  -3  -1  383.51    6.20
  -3   3   1  386.35    6.49
  -3  -3   0  309.04    5.54
  -3  -3   0  317.54    8.44
   3  -3   0  310.82    7.61
  -3  -3   1  386.03    9.09
  -3  -3   1  386.84    6.17
  -3  -3   1  374.42    6.12
  -3   3  -1  388.39    7.09
   3  -3  -1  388.68    8.85
  -3  -3   2   76.99    2.65
  -3  -3   2   78.68    2.95
  -3  -3   2   80.52    3.00
  -3   3  -2   79.72    3.55
   3  -3  -2   78.79    4.17
  -3  -3   2   76.72    4.08
  -3  -3   3  157.84    4.15
  -3  -3   3  157.91    4.44
  -3   3  -3  155.07    5.49
   3  -3  -3  162.13    6.46
   3   3   3  161.35    3.94
  -3  -3   4   10.18    1.10
  -3  -3   4   11.67    1.34
  -3   3  -4   10.92    1.93
   3   3   4   10.85    1.22
   3  -3  -4   12.11    1.96
  -3   3  -4   11.15    1.30
  -3  -3   5  119.32    4.20
  -3  -3   5  120.41    3.73
  -3  -3   5  118.68    4.30
  -3   3  -5  122.77    5.91
   3  -3  -5  109.42    6.23
   3   3   5  116.51    4.04
  -3   3  -5  115.17    3.92
  -3  -3   6  165.56    5.29
  -3  -3   6  164.70    5.25
  -3   3  -6  175.54    7.12
   3  -3  -6  174.21    8.39
   3   3   6  167.26    5.16
  -3  -3   7   14.26    1.66
  -3  -3   7   13.82    1.62
  -3  -3   7   15.75    1.67
  -3   3  -7   12.04    2.11
   3   3   7   13.58    1.74
  -3  -3   8   14.93    1.78
  -3  -3   8   15.09    1.67
  -3   3  -8   12.69    2.04
   3   3   8   13.22    1.59
  -3  -3   8   11.66    1.40
  -3  -3   9   16.32    1.78
  -3  -3   9   17.59    1.62
  -3   3  -9   14.86    1.99
   3   3   9   17.20    1.73
   3   3  10    8.20    1.13
   3  -4   9   66.90    3.22
  -3   4   9   70.75    3.49
   3  -4   8  124.62    4.89
  -3   4   8  123.82    5.11
  -3   4   7   30.74    2.76
   3  -4   6  107.16    3.76
  -3   4   6  114.47    5.34
   3   4  -5  219.06    9.04
  -3  -4  -5  219.47    9.49
   3  -4   5  216.71    5.27
  -3   4   5  231.94    7.27
   3  -4   4   59.56    2.78
  -3  -4  -4   51.78    4.43
  -3  -4  -4   55.73    2.63
  -3   4   4   53.93    2.84
   3   4  -4   53.58    4.38
  -3   4   4   59.06    3.47
   3  -4   3  573.43    8.42
  -3  -4  -3  579.16   13.63
  -3  -4  -3  563.57    8.14
   3   4  -3  572.29   13.60
  -3   4   3  557.48    8.60
  -3   4   3  562.36    9.53
  -3  -4  -2  152.75    4.19
  -3   4   2  138.88    4.20
  -3  -4  -2  154.72    6.65
   3  -4   2  153.31    4.35
  -3   4   2  153.54    4.55
  -3  -4  -1   13.86    2.05
  -3  -4  -1   16.36    1.44
  -3  -4  -1   14.89    1.33
  -3   4   1   15.17    1.44
  -3  -4  -1   15.05    1.41
   3  -4   1   15.87    1.51
  -3   4   1   14.85    1.39
  -3  -4   0  248.66    7.84
  -3  -4   0  258.19    5.74
  -3  -4   0  248.36    5.28
  -3   4   0  244.20    5.44
   3  -4   0  251.87    7.79
  -3  -4   0  255.21    5.42
  -3  -4   1   16.30    2.02
  -3   4  -1   13.78    1.53
  -3  -4   1   15.65    1.51
  -3  -4   1   14.84    1.36
   3  -4  -1   16.19    2.16
  -3  -4   2  143.59    4.19
  -3  -4   2  146.23    4.48
  -3   4  -2  150.43    5.11
  -3  -4   2  156.60    4.25
   3  -4  -2  153.15    6.56
  -3  -4   3  563.94    8.20
  -3  -4   3  578.66    9.26
  -3   4  -3  567.13   10.98
   3  -4  -3  587.85   13.37
   3   4   3  564.48    7.67
  -3  -4   4   51.98    2.98
  -3   4  -4   52.76    3.93
  -3  -4   4   55.12    2.55
   3  -4  -4   59.21    4.65
   3   4   4   58.62    2.77
  -3   4  -4   56.84    2.80
  -3  -4   5  224.16    6.00
  -3   4  -5  214.98    8.20
  -3  -4   5  216.37    6.09
   3  -4  -5  218.29    9.26
   3   4   5  226.70    5.75
  -3   4  -5  215.25    5.48
  -3  -4   6  104.67    4.31
  -3   4  -6  109.59    5.94
  -3  -4   6  105.74    4.40
   3   4   6  111.95    4.27
  -3   4  -6  102.89    3.81
  -3  -4   7   30.14    2.45
  -3  -4   7   28.33    2.25
  -3   4  -7   32.71    3.31
   3   4   7   29.11    2.27
  -3  -4   8  120.76    4.56
  -3  -4   8  117.92    4.06
  -3   4  -8  120.53    5.51
   3   4   8  130.28    4.59
  -3  -4   9   68.42    3.16
  -3   4  -9   69.62    3.68
   3   4   9   69.52    3.11
   3  -5   9   28.18    1.92
  -3  -5  -9   30.39    1.92
  -3   5   9   31.48    2.09
   3  -5   8   17.64    1.85
  -3   5   8   19.83    1.95
   3  -5   7   66.24    2.96
  -3   5   7   69.65    3.79
   3  -5   6   25.91    2.01
  -3   5   6   25.37    2.48
   3  -5   5  126.66    4.32
  -3   5   5  123.21    4.48
  -3   5   5  124.80    5.11
   3  -5   4  107.73    3.99
  -3  -5  -4   97.57    6.18
  -3   5   4   97.81    4.07
   3   5  -4  108.62    6.49
  -3   5   4  109.15    4.59
   3   5  -3  164.80    7.85
   3  -5   3  156.50    4.79
  -3  -5  -3  146.17    7.05
  -3   5   3  150.44    4.91
  -3  -5  -3  153.55    4.91
  -3   5   3  153.03    5.05
   3  -5   2  653.12    9.82
   3   5  -2  652.46   15.14
  -3  -5  -2  665.91    8.96
  -3   5   2  638.12    9.80
  -3  -5  -2  652.63    9.82
  -3   5   2  647.16    9.57
  -3  -5  -2  652.38   13.96
  -3  -5  -1  257.13    8.43
   3  -5   1  253.99    6.15
  -3  -5  -1  255.95    5.61
  -3   5   1  238.36    5.94
  -3  -5  -1  255.55    6.07
  -3  -5   0  192.86    6.97
  -3  -5   0  182.54    5.56
  -3   5   0  182.15    5.21
   3  -5   0  180.23    7.37
  -3  -5   0  181.63    5.03
   3  -5   0  180.20    5.27
  -3  -5   1  255.00    6.51
   3  -5  -1  241.13    8.75
  -3  -5   1  261.06    6.05
  -3  -5   1  236.96    7.43
  -3   5  -2  648.69   10.82
  -3  -5   2  628.21    9.15
  -3  -5   2  653.12    9.52
   3  -5  -2  657.35   14.88
  -3  -5   2  634.95   10.29
  -3  -5   3  155.92    5.22
  -3   5  -3  146.17    5.67
  -3  -5   3  152.74    4.34
   3  -5  -3  158.19    7.63
   3   5   3  148.21    4.17
  -3  -5   4  104.46    4.36
  -3   5  -4  102.99    5.24
   3  -5  -4  107.96    6.64
   3   5   4  105.41    3.79
  -3   5  -4  105.89    3.92
  -3  -5   5  124.89    4.86
  -3   5  -5  128.95    6.13
   3   5   5  129.05    4.43
  -3   5  -5  121.84    4.15
  -3  -5   6   26.20    2.27
  -3  -5   6   25.78    2.25
  -3   5  -6   22.52    2.83
   3   5   6   24.95    2.13
  -3  -5   7   67.85    3.43
  -3   5  -7   71.42    4.41
  -3  -5   7   64.05    3.22
   3   5   7   69.87    3.29
  -3  -5   8   20.03    1.84
  -3   5  -8   17.82    2.31
  -3  -5   8   19.45    1.57
   3   5   8   20.07    1.76
  -3  -5   9   28.14    1.90
  -3   5  -9   28.07    2.31
   3   5   9   32.80    1.86
   3  -6   8   14.68    1.44
  -3  -6  -8   15.55    1.52
  -3   6   8   17.13    1.58
   3  -6   7  323.39    6.18
  -3  -6  -7  337.49    6.93
  -3   6   7  336.55    7.26
   3  -6   6   98.54    3.74
  -3  -6  -6   99.42    4.07
  -3   6   6  103.64    4.28
   3  -6   5  171.89    5.08
  -3  -6  -5  179.95    5.63
  -3   6   5  179.56    5.68
   3  -6   4  417.05    8.09
  -3   6   4  413.03    8.38
  -3  -6  -4  420.82    8.69
  -3   6   4  422.91    8.48
   3  -6   3  235.78    6.23
  -3   6   3  239.20    6.42
  -3  -6  -3  239.87    6.52
   3   6  -3  224.40    9.49
   3  -6   2  689.69   10.71
  -3   6   2  681.69   10.87
  -3  -6  -2  688.70   10.81
   3   6  -2  650.86   15.93
   3  -6   1  487.76    9.06
  -3  -6  -1  463.45    9.36
  -3   6   1  471.28    9.03
  -3  -6  -1  496.17    9.04
   3  -6   0    0.42    0.86
  -3  -6   0   -0.25    0.64
  -3  -6   0    0.18    0.83
   3  -6  -1  489.87    9.35
  -3  -6   1  506.26    9.77
   3  -6  -1  476.10   13.29
  -3  -6   1  485.00    8.91
  -3  -6   2  692.88   11.44
   3  -6  -2  671.15   16.15
  -3  -6   2  685.29   10.59
  -3  -6   3  247.91    6.87
  -3   6  -3  220.20    6.73
   3  -6  -3  236.25    9.93
  -3   6  -4  409.32    9.68
  -3  -6   4  431.92    8.99
   3   6   4  425.31    7.62
  -3   6  -4  421.36    7.72
  -3  -6   5  180.80    5.77
  -3   6  -5  166.53    6.43
   3   6   5  182.84    5.20
  -3   6  -5  173.55    4.71
  -3  -6   6   99.99    4.12
  -3  -6   6  104.47    4.21
  -3   6  -6   98.12    4.89
   3   6   6  104.10    3.90
  -3  -6   7  320.77    6.89
  -3  -6   7  324.29    6.74
  -3   6  -7  333.73    8.39
   3   6   7  330.51    6.54
  -3  -6   8   15.04    1.43
  -3   6  -8   14.87    1.75
   3   6   8   15.57    1.33
  -3  -7  -7   34.34    2.03
   3  -7   6   34.51    2.12
  -3  -7  -6   35.83    2.36
   3  -7   5   38.47    2.45
  -3   7   5   33.20    2.24
  -3  -7  -5   39.15    2.62
   3  -7   4   28.54    2.20
  -3   7   4   23.71    2.06
  -3  -7  -4   27.27    2.35
   3  -7   3   71.03    3.52
  -3   7   3   70.96    3.54
  -3  -7  -3   73.76    3.70
   3  -7   2  153.57    5.23
  -3   7   2  153.08    5.30
  -3  -7  -2  153.92    5.27
   3  -7   1   31.06    2.54
  -3  -7  -1   29.18    2.40
  -3  -7  -1   32.06    2.52
  -3  -7   0  130.55    4.99
   3  -7   0  126.04    4.85
  -3  -7   0  121.89    4.71
   3  -7  -1   28.22    2.40
  -3  -7   1   33.60    2.59
  -3  -7   1   29.02    2.44
  -3  -7   2  157.28    5.54
   3  -7  -2  149.56    5.36
  -3  -7   3   70.88    3.74
   3  -7  -3   68.34    3.61
  -3  -7   4   25.41    2.27
   3  -7  -4   24.91    2.25
  -3   7  -4   25.39    2.31
   3  -7  -5   33.98    2.42
  -3  -7   5   39.21    2.61
  -3   7  -5   36.04    2.64
   3   7   5   36.98    2.20
  -3  -7   6   31.94    2.19
   3  -7  -6   35.48    2.20
  -3  -7   6   35.24    2.30
  -3   7  -6   32.64    2.50
   3   7   6   34.28    2.05
  -3  -7   7   34.29    2.02
  -3  -7   7   38.13    2.04
  -3   7  -7   40.25    2.54
   3   7   7   33.14    1.82
   3  -8   5   34.59    2.07
  -3  -8  -5   32.57    2.06
   3  -8   4   55.51    2.76
  -3   8   4   52.02    2.71
  -3  -8  -4   54.45    2.83
   3  -8   3  288.88    6.45
  -3   8   3  274.18    6.47
  -3  -8  -3  294.23    6.74
   3  -8   2   78.18    3.55
  -3  -8  -2   80.26    3.67
  -3  -8  -1   48.54    2.74
   3  -8   1   47.99    2.88
  -3  -8  -1   48.64    2.91
   3  -8   0  206.56    5.85
  -3  -8   0  216.15    5.95
  -3  -8   0  212.96    5.97
  -3  -8   1   50.72    2.98
   3  -8  -1   50.45    2.95
   3  -8  -2   74.31    3.49
  -3  -8   2   78.49    3.66
  -3  -8   3  298.03    6.96
   3  -8  -3  276.77    6.50
   3  -8  -4   52.19    2.71
  -3  -8   4   58.68    3.04
  -3  -8   5   27.25    1.84
  -3  -8   5   33.06    2.10
   3  -8  -5   29.96    1.86
   3  -9   3   47.37    2.28
  -3  -9  -3   47.17    2.30
   3  -9   2   41.53    2.20
  -3  -9  -2   44.95    2.38
   3  -9   1   28.15    1.93
   3  -9   0  135.26    4.09
  -3  -9   0  129.47    3.93
   3  -9  -1   29.03    1.95
  -3  -9   1   30.73    2.05
   3  -9  -2   42.59    2.25
  -3  -9   2   44.35    2.40
  -3  -9   3   45.60    2.38
   3  -9  -3   43.77    2.12
  -4   0   0   13.68    1.99
  -4   0   0   11.55    1.30
  -4   0   0   12.01    1.39
  -4   0   1  290.93    8.09
  -4   0  -1  268.95    8.16
  -4   0   1  289.19    5.99
  -4   0  -1  278.77    6.05
  -4   0   1  276.18    5.34
  -4   0   1  281.75    4.98
  -4   0   1  272.87    5.21
  -4   0  -1  268.69    5.11
  -4   0  -1  275.19    5.51
  -4   0   1  281.35    5.81
  -4   0  -1  275.15    4.80
  -4   0   2 1570.08   12.75
  -4   0  -2 1550.09   20.53
  -4   0   2 1583.29   13.04
  -4   0  -2 1587.77   15.01
  -4   0   2 1537.03   11.89
  -4   0  -2 1579.23   13.16
  -4   0   2 1596.55   14.36
  -4   0   2 1595.26   19.02
  -4   0  -2 1555.35   12.02
   4   0   3 3813.25   20.67
  -4   0   3 3799.59   21.05
  -4   0  -3 3800.34   24.37
  -4   0  -3 3818.67   34.48
  -4   0   3 3878.35   21.01
  -4   0  -3 3841.78   20.90
  -4   0   3 3791.17   23.48
  -4   0  -3 3851.99   20.13
   4   0   4   32.08    2.13
  -4   0   4   26.39    1.87
  -4   0  -4   27.72    3.23
  -4   0  -4   31.37    2.08
  -4   0   4   27.38    2.00
  -4   0   4   28.06    2.24
   4   0   5  368.57    7.62
  -4   0   5  372.09    7.41
  -4   0   5  368.93    7.45
  -4   0  -5  367.78   13.33
  -4   0   5  353.57    7.87
   4   0   6  546.21    9.65
  -4   0   6  531.50    9.22
  -4   0   6  538.94    9.62
  -4   0   6  523.99    9.92
   4   0   7  144.88    5.16
  -4   0   7  140.74    4.74
  -4   0   7  131.31    4.86
  -4   0  -7  137.76    5.15
  -4   0   7  130.64    4.95
  -4   0   8   84.42    3.60
  -4   0   8   82.38    3.81
  -4   0   8   78.78    3.65
   4   0   8   86.98    3.95
  -4   0   9   81.16    3.49
   4   0   9   82.09    3.54
   4   0  10    8.93    1.12
   4  -1  10   33.47    2.00
  -4   1   9   10.74    1.48
   4  -1   9    9.14    1.31
   4  -1   8   44.93    2.90
  -4   1   8   43.21    2.99
   4  -1   7  124.68    4.90
  -4   1   7  127.33    4.51
  -4   1   7  123.02    4.69
  -4   1   7  126.41    5.33
   4  -1   6  301.87    7.42
  -4   1   6  313.21    6.90
  -4   1   6  307.65    7.22
  -4  -1  -6  306.52   13.91
  -4   1   6  314.06    8.46
  -4  -1  -6  297.82    7.04
   4  -1   5    7.30    1.17
  -4  -1  -5    4.51    1.15
  -4   1   5    4.34    1.02
  -4   1   5    5.64    1.06
  -4  -1  -5    6.52    2.17
  -4   1   5    4.46    1.23
  -4   1   4  148.00    4.41
  -4  -1  -4  147.99    4.83
  -4  -1  -4  147.92    7.93
   4   1  -4  145.78    6.07
  -4   1   4  161.46    5.42
   4   1  -3   36.50    3.01
  -4   1   3   36.18    2.10
  -4  -1  -3   33.81    3.63
  -4  -1  -3   36.53    2.36
  -4  -1  -3   35.49    2.11
  -4   1   3   35.59    2.44
  -4   1   2  155.82    3.97
  -4   1   2  155.85    3.96
  -4  -1  -2  153.19    4.61
  -4  -1  -2  153.62    4.15
  -4   1   2  147.04    4.56
  -4   1   1  302.86    5.15
  -4  -1  -1  309.77    9.20
  -4   1   1  298.69    5.23
  -4   1   1  314.15    6.17
  -4  -1  -1  299.75    6.16
  -4  -1  -1  308.01    5.69
  -4   1   1  307.06    6.25
  -4  -1  -1  298.75    4.73
  -4   1   1  297.36    7.72
  -4   1   0  988.69   14.19
  -4  -1   0 1030.52   16.23
  -4   1   0  957.34    9.05
  -4  -1   0 1005.08   11.18
  -4   1   0  999.47   11.34
  -4  -1   0  975.15   10.46
  -4  -1   0 1002.58   10.37
  -4   1   0  975.23   10.77
  -4  -1   1  309.07    8.71
  -4   1  -1  298.67    8.10
  -4  -1   1  301.06    5.36
  -4   1  -1  302.80    6.52
  -4  -1   1  301.10    5.69
  -4   1  -1  307.90    5.91
  -4  -1   1  306.60    5.90
  -4  -1   1  304.24    5.91
  -4  -1   2  157.63    4.35
  -4  -1   2  158.06    4.16
  -4  -1   2  155.36    4.03
  -4   1  -2  173.42    4.42
  -4  -1   2  153.90    4.35
  -4   1  -2  169.24    6.46
  -4  -1   2  161.18    6.29
  -4   1  -2  151.31    4.01
  -4  -1   3   33.99    2.13
  -4  -1   3   36.32    2.13
  -4   1  -3   32.34    3.14
  -4   1  -3   35.07    2.06
  -4  -1   3   37.06    2.27
   4  -1  -3   38.65    2.95
  -4   1  -3   34.73    2.09
   4   1   4  154.73    4.45
  -4  -1   4  147.38    4.55
  -4   1  -4  145.78    5.50
  -4   1  -4  143.78    6.79
  -4   1  -4  148.93    4.25
  -4  -1   4  152.58    4.48
  -4  -1   4  145.85    4.58
   4  -1  -4  155.02    6.42
  -4   1  -4  147.32    4.36
  -4  -1   5    3.98    0.93
   4   1   5    4.85    1.02
  -4   1  -5    5.56    1.45
  -4  -1   5    6.11    1.18
  -4   1  -5    7.62    1.77
  -4  -1   5    5.91    1.10
   4  -1  -5    4.94    1.36
  -4  -1   6  303.69    6.79
  -4  -1   6  313.27    7.22
  -4  -1   6  312.42    7.44
  -4   1  -6  307.52    8.61
  -4   1  -6  304.52   12.03
  -4  -1   6  297.45    6.91
   4  -1  -6  311.11   10.94
   4   1   6  308.62    7.11
  -4  -1   7  119.44    4.44
  -4  -1   7  126.72    4.59
  -4  -1   7  123.00    4.77
   4   1   7  128.28    4.74
  -4  -1   8   42.43    2.60
  -4  -1   8   44.37    2.81
   4   1   8   43.71    2.82
  -4  -1   9    9.28    1.09
  -4  -1   9    9.62    1.30
   4   1   9    9.46    1.37
   4   1  10   33.37    1.95
   4  -2  10   30.70    1.91
   4  -2   9   68.68    3.30
  -4   2   9   66.31    3.31
   4  -2   8   64.00    3.46
  -4   2   8   65.47    3.83
   4  -2   7   95.12    4.36
  -4   2   7   99.18    5.14
   4  -2   6   32.92    2.63
  -4   2   6   40.70    2.60
  -4  -2  -6   35.88    5.11
  -4   2   6   29.67    3.03
   4   2  -6   34.46    3.76
  -4   2   5   27.89    2.15
   4   2  -5   26.30    3.09
  -4  -2  -5   33.30    4.44
  -4   2   5   24.60    2.75
  -4   2   4  261.28    5.95
  -4  -2  -4  259.25    5.97
  -4  -2  -4  253.29   10.44
   4   2  -4  242.62    8.62
  -4   2   4  263.31    7.57
  -4   2   3   29.97    1.95
  -4  -2  -3   24.91    3.21
  -4  -2  -3   27.47    1.96
  -4  -2  -3   31.78    2.11
  -4   2   3   28.84    2.35
  -4   2   2  190.87    4.48
  -4  -2  -2  200.03    8.10
  -4  -2  -2  191.10    5.00
  -4  -2  -2  191.50    5.06
  -4  -2  -2  184.39    4.50
  -4   2   2  185.93    5.32
  -4   2   1  338.85    5.64
  -4  -2  -1  331.05    9.92
  -4   2   1  336.97    6.50
  -4  -2  -1  328.37    6.45
  -4  -2  -1  334.95    5.90
  -4   2   1  336.05    6.77
  -4   2   0   32.09    2.43
  -4  -2   0   32.51    3.05
  -4  -2   0   33.99    1.81
  -4   2   0   30.51    2.12
  -4  -2   0   29.79    1.95
  -4  -2   0   31.83    1.85
  -4   2   0   30.48    2.07
  -4  -2   1  346.96    9.72
  -4   2  -1  335.85    7.86
  -4  -2   1  337.46    6.55
  -4   2  -1  331.03    7.02
  -4  -2   1  338.01    6.33
  -4  -2   1  327.46    5.85
  -4  -2   1  332.37    5.99
  -4   2  -1  337.85    6.36
  -4   2  -2  179.08    6.06
  -4  -2   2  191.09    4.83
  -4  -2   2  185.61    4.91
  -4  -2   2  185.38    4.64
   4  -2  -2  192.63    6.33
  -4   2  -2  187.67    4.59
  -4  -2   2  186.63    4.51
  -4  -2   2  192.73    7.19
  -4  -2   3   31.66    2.16
  -4  -2   3   29.88    2.04
  -4   2  -3   27.21    2.56
  -4   2  -3   30.54    1.88
   4  -2  -3   32.16    2.84
  -4  -2   3   26.30    1.82
  -4   2  -3   29.24    2.00
  -4  -2   4  260.76    6.31
  -4  -2   4  261.80    5.93
  -4   2  -4  265.42    8.03
  -4   2  -4  259.98    5.47
   4  -2  -4  272.08    8.98
   4   2   4  268.22    5.73
  -4   2  -4  264.42    6.00
  -4  -2   5   26.68    2.00
  -4  -2   5   23.32    2.06
  -4  -2   5   27.83    2.11
  -4   2  -5   27.52    2.96
   4  -2  -5   26.11    3.38
  -4   2  -5   27.01    2.09
   4   2   5   24.44    2.00
  -4  -2   6   33.78    2.38
  -4  -2   6   39.48    2.70
  -4   2  -6   33.21    3.24
   4  -2  -6   32.99    4.05
   4   2   6   36.05    2.48
  -4  -2   7  100.43    4.13
  -4  -2   7  100.94    4.13
  -4   2  -7   98.16    5.22
   4   2   7  103.53    4.18
  -4  -2   8   66.32    3.34
  -4  -2   8   59.63    3.00
   4   2   8   64.82    3.28
  -4  -2   9   58.89    2.54
  -4   2  -9   64.01    3.21
   4   2   9   67.51    3.07
  -4   3   9    1.36    0.71
   4  -3   9   -0.09    0.51
   4  -3   8    3.97    1.09
  -4   3   8    5.19    1.47
   4  -3   7   13.73    1.94
  -4   3   7   13.33    2.19
  -4  -3  -6   15.29    1.59
  -4   3   6   18.30    2.59
  -4  -3  -5  182.53    9.50
   4   3  -5  173.32    7.97
  -4  -3  -5  171.31    5.18
  -4   3   5  179.64    7.20
  -4  -3  -4  103.85    6.81
  -4  -3  -4  100.43    3.93
   4   3  -4   92.38    5.83
  -4   3   4  108.17    5.14
  -4  -3  -3   32.11    3.69
  -4  -3  -3   28.70    2.15
   4   3  -3   32.05    3.45
  -4   3   3   29.47    2.46
   4  -3   2   40.63    2.20
  -4  -3  -2   41.49    2.47
  -4   3   2   41.72    2.72
  -4  -3  -2   44.84    3.96
  -4  -3  -1  225.71    8.51
  -4   3   1  209.27    5.16
  -4  -3  -1  213.73    5.34
  -4  -3  -1  202.94    4.78
  -4  -3  -1  204.70    4.63
   4  -3   1  210.14    5.04
  -4   3   1  204.49    5.44
  -4   3   0    3.49    1.06
  -4  -3   0    3.49    0.77
  -4  -3   0    3.05    0.72
  -4  -3   0    1.98    1.28
  -4  -3   0    5.09    0.82
  -4  -3   0    2.56    0.70
   4  -3   0    3.21    1.04
  -4   3   0    3.29    0.78
  -4  -3   1  226.62    8.10
  -4  -3   1  215.38    5.26
  -4  -3   1  215.35    5.32
   4  -3  -1  211.08    6.95
  -4  -3   1  205.89    4.42
  -4   3  -1  215.90    5.13
  -4  -3   2   39.05    2.38
  -4  -3   2   41.51    2.48
  -4   3  -2   36.66    2.88
  -4  -3   2   39.69    2.41
   4  -3  -2   42.94    3.38
  -4   3  -2   40.07    2.15
  -4  -3   2   41.88    3.54
  -4  -3   3   29.40    2.21
  -4  -3   3   33.23    2.28
  -4   3  -3   26.66    2.72
   4  -3  -3   30.96    3.02
  -4   3  -3   32.62    2.24
  -4  -3   4  106.67    4.31
  -4   3  -4  103.50    5.52
  -4  -3   4  108.95    3.88
   4  -3  -4  102.70    5.85
  -4   3  -4  109.50    4.07
  -4  -3   5  175.74    5.11
  -4  -3   5  184.28    5.71
  -4  -3   5  188.31    5.13
  -4   3  -5  183.64    7.83
   4  -3  -5  171.69    8.17
   4   3   5  184.71    5.15
  -4   3  -5  185.58    5.35
  -4  -3   6   13.64    1.60
  -4   3  -6   17.36    2.60
  -4  -3   6   18.86    1.94
   4   3   6   18.34    1.82
  -4  -3   7   14.40    1.66
  -4  -3   7   11.77    1.58
  -4   3  -7   13.94    2.47
   4   3   7   14.06    1.61
  -4  -3   8    4.87    1.10
   4   3   8    6.49    1.10
  -4   3  -8    4.62    1.44
  -4  -3   8    4.79    0.91
   4   3   9    0.10    0.42
  -4  -3   9    2.27    0.66
   4  -4   9   22.97    1.77
  -4   4   9   23.64    1.83
   4  -4   8   13.78    1.69
  -4   4   8   14.45    1.93
   4  -4   7  144.06    5.29
  -4   4   7  148.05    5.97
  -4   4   6  169.22    6.68
  -4  -4  -5   21.63    1.86
  -4   4   5   22.27    2.58
  -4  -4  -4  326.95   12.04
  -4  -4  -4  312.95    6.79
   4   4  -4  316.52   11.33
  -4   4   4  329.94    8.75
   4  -4   3  110.86    3.83
  -4  -4  -3  109.72    6.65
   4   4  -3  115.06    6.82
  -4  -4  -3  108.15    4.03
  -4   4   3  113.38    4.72
  -4  -4  -2  327.58   10.98
   4  -4   2  349.38    6.86
  -4  -4  -2  345.32    7.10
  -4  -4  -2  350.03    7.00
  -4   4   2  356.11    7.78
  -4  -4  -1  201.13    8.33
   4  -4   1  210.32    5.51
  -4  -4  -1  211.18    5.52
  -4  -4  -1  213.03    5.37
  -4   4   1  218.95    5.77
  -4  -4   0   97.21    5.66
  -4  -4   0  108.39    4.08
  -4   4   0  104.60    3.97
  -4  -4   0  106.15    3.91
  -4  -4   0  107.86    3.75
  -4   4   0  107.81    3.88
  -4  -4   1  207.62    8.00
  -4  -4   1  222.02    6.02
  -4  -4   1  226.04    5.70
   4  -4  -1  207.50    7.79
  -4  -4   1  217.85    5.24
  -4  -4   2  341.75    7.27
  -4  -4   2  364.76    7.85
  -4   4  -2  350.19    8.69
  -4  -4   2  348.01    6.57
   4  -4  -2  337.34   10.24
  -4   4  -3  112.06    4.23
  -4  -4   3  109.05    4.07
  -4  -4   3  113.94    4.50
  -4   4  -3  105.85    5.31
   4  -4  -3  102.49    5.87
  -4  -4   4  315.77    6.72
  -4  -4   4  320.65    7.69
  -4   4  -4  296.66    9.64
   4  -4  -4  315.34   10.93
  -4   4  -4  322.35    7.15
  -4  -4   5   19.58    1.84
  -4  -4   5   21.46    1.76
  -4  -4   5   19.27    2.10
  -4   4  -5   17.37    2.75
   4   4   5   21.00    1.86
  -4   4  -5   25.51    2.10
  -4  -4   6  146.73    4.93
  -4  -4   6  142.45    5.12
  -4   4  -6  149.65    7.26
   4   4   6  151.47    4.79
  -4  -4   7  148.71    4.85
  -4   4  -7  151.06    6.74
  -4  -4   7  145.77    4.87
   4   4   7  152.01    4.71
  -4  -4   8   15.66    1.63
  -4  -4   8   14.98    1.50
  -4   4  -8   13.31    1.94
   4   4   8   14.13    1.40
   4  -5   8    7.25    1.16
  -4  -5  -8    8.16    1.06
  -4   5   8    7.64    1.32
  -4  -5  -7   46.20    2.69
  -4   5   7   46.84    3.04
  -4  -5  -6  155.54    5.11
  -4   5   6  154.58    5.68
   4  -5   5   85.53    3.41
  -4  -5  -5   94.49    4.14
  -4   5   5   94.37    4.60
   4  -5   4   20.88    1.83
  -4  -5  -4   22.26    1.82
  -4  -5  -4   23.45    2.18
  -4   5   4   19.04    2.16
   4   5  -3  115.11    7.18
  -4  -5  -3  104.42    6.63
   4  -5   3  115.46    4.22
  -4  -5  -3  121.43    4.18
  -4  -5  -3  120.49    4.57
  -4   5   3  118.92    4.81
  -4  -5  -2   96.95    6.08
   4  -5   2   88.56    3.78
  -4  -5  -2   99.79    3.88
  -4  -5  -2   90.57    3.91
  -4   5   2   96.43    4.03
   4   5  -2   89.67    6.22
  -4  -5  -1  137.25    6.91
   4  -5   1  146.72    4.90
  -4  -5  -1  144.31    4.68
  -4  -5  -1  135.46    4.62
   4  -5   0  403.02    8.29
  -4  -5   0  380.82    8.70
  -4  -5   0  398.19    7.74
  -4  -5   1  143.19    5.43
  -4   5  -1  137.13    4.83
   4  -5  -1  143.26    6.97
  -4  -5   1  141.29    4.63
  -4  -5   1  129.40    6.35
  -4  -5   2   93.59    3.93
  -4  -5   2   98.35    4.52
  -4  -5   2   87.47    3.60
   4  -5  -2   87.84    5.82
  -4  -5   3  120.33    4.95
  -4  -5   3  113.78    4.14
  -4   5  -3  119.33    5.48
   4  -5  -3  107.56    6.38
  -4  -5   4   19.66    1.78
  -4  -5   4   23.09    2.27
  -4   5  -4   18.66    2.46
  -4   5  -4   20.44    1.94
  -4  -5   5   92.57    3.87
  -4  -5   5   90.41    4.23
  -4   5  -5  100.04    5.61
  -4   5  -5   89.75    3.68
  -4  -5   6  149.67    4.79
  -4  -5   6  156.55    5.23
  -4   5  -6  157.36    6.87
   4   5   6  157.26    4.62
  -4  -5   7   49.65    2.66
  -4  -5   7   45.71    2.62
  -4   5  -7   52.65    3.79
   4   5   7   47.53    2.44
   4   5   8    7.24    0.87
  -4  -5   8    6.81    0.98
   4  -6   7   21.95    1.85
  -4  -6  -7   20.23    1.63
  -4   6   7   19.97    1.73
  -4  -6  -6    0.17    0.73
  -4   6   6    1.60    0.84
   4  -6   5   35.50    2.22
  -4  -6  -5   38.54    2.55
  -4   6   5   38.27    2.55
   4  -6   4   56.39    2.92
  -4  -6  -4   56.37    3.25
  -4   6   4   57.50    3.21
   4  -6   3  435.45    8.27
  -4  -6  -3  435.61    8.77
  -4   6   3  418.23    8.17
   4  -6   2   56.88    3.20
  -4  -6  -2   56.30    3.19
   4  -6   1    3.96    1.17
  -4  -6  -1    5.28    1.26
   4  -6   0  454.15    9.07
  -4  -6   0  452.09    8.67
   4  -6  -1    4.43    1.24
  -4  -6   1    3.32    1.03
  -4  -6   1    4.93    1.25
  -4  -6   1    4.86    1.23
   4  -6  -2   57.70    3.49
  -4  -6   2   57.34    3.04
  -4  -6   2   59.79    3.62
  -4   6  -3  429.92    8.31
  -4  -6   3  460.90    9.75
  -4  -6   4   58.28    3.39
  -4   6  -4   55.25    3.71
  -4   6  -4   59.39    2.99
  -4  -6   5   40.68    2.78
  -4   6  -5   40.04    3.19
  -4   6  -5   35.96    2.18
  -4   6  -6    1.26    0.86
  -4  -6   6    1.96    0.85
  -4  -6   7   19.46    1.52
  -4  -7  -6   15.85    1.45
   4  -7   5   42.09    2.21
  -4  -7  -5   43.17    2.46
   4  -7   4    0.77    0.73
  -4  -7  -4    1.17    0.79
   4  -7   3    5.55    1.18
  -4  -7  -3    4.95    1.16
   4  -7   2   71.05    3.42
  -4  -7  -2   70.03    3.46
   4  -7   1   25.27    2.22
  -4  -7  -1   24.81    2.17
   4  -7   0   26.77    2.35
  -4  -7   0   27.06    2.35
  -4  -7   0   26.61    2.25
   4  -7  -1   26.16    2.29
  -4  -7   1   23.69    1.96
  -4  -7   1   28.20    2.43
  -4  -7   1   27.22    2.19
  -4  -7   2   73.21    3.79
   4  -7  -2   71.42    3.65
  -4   7  -3    4.77    0.95
   4  -7  -3    3.41    0.95
  -4  -7   3    3.84    1.09
  -4   7  -4    1.49    0.55
   4  -7  -4    0.87    0.75
  -4  -7   4   -0.18    0.72
   4  -7  -5   44.19    2.59
  -4  -7   5   47.56    2.68
   4  -7  -6   12.82    1.32
  -4  -7   6   15.21    1.38
   4  -8   4   82.57    2.85
  -4  -8  -4   83.67    3.08
   4  -8   3   58.80    2.63
  -4  -8  -3   62.18    2.87
   4  -8   2   84.44    3.32
  -4  -8  -2   89.18    3.52
   4  -8   1   24.75    2.03
  -4  -8  -1   23.78    1.86
  -4  -8  -1   24.85    2.00
   4  -8   0   69.05    3.17
  -4  -8   0   71.42    3.19
   4  -8  -1   23.18    1.97
  -4  -8   1   22.68    1.93
   4  -8  -2   84.27    3.47
  -4   8  -2   81.38    3.08
   4  -8  -3   61.16    2.87
  -4  -8   3   58.04    2.89
  -4   8  -3   56.53    2.37
   4  -8  -4   82.22    3.09
  -4  -8   4   80.26    3.18
   4  -9   0    9.93    1.06
  -5   0   0   -0.25    0.47
  -5   0   0   -0.30    0.80
  -5   0   0   -0.77    0.61
  -5   0   0   -0.01    0.84
  -5   0   0   -0.45    0.73
  -5   0  -1  307.05   10.01
  -5   0   1  311.69    5.95
  -5   0   1  314.20    6.41
  -5   0  -1  305.50    6.13
  -5   0  -1  301.02    7.39
  -5   0   1  315.26    6.35
  -5   0  -1  293.97    6.71
  -5   0  -1  319.23    6.75
  -5   0   1  327.30    7.16
  -5   0  -1  317.73    5.84
  -5   0   1  328.97    9.88
  -5   0  -2    3.14    0.87
  -5   0   2    3.78    1.03
  -5   0  -2    2.95    0.85
  -5   0  -2    4.19    1.11
  -5   0   2    2.37    0.72
  -5   0   2    3.37    0.83
  -5   0  -2    3.32    1.43
  -5   0  -2    3.81    0.91
  -5   0   2    4.43    1.13
  -5   0   3   43.22    2.58
  -5   0  -3   42.46    4.16
  -5   0   3   42.91    2.56
  -5   0  -3   43.30    3.00
  -5   0  -3   46.04    2.65
  -5   0   3   44.91    2.93
  -5   0   4  514.03    8.96
  -5   0  -4  475.40   14.72
  -5   0  -4  511.48   10.27
  -5   0   4  488.81    9.68
   5   0   5  581.39    9.50
  -5   0   5  598.44   10.02
  -5   0  -5  533.13   16.90
  -5   0  -5  578.98   10.99
  -5   0   5  554.59   10.51
   5   0   6   75.23    3.57
  -5   0   6   73.05    3.55
  -5   0  -6   73.77    4.02
  -5   0   6   65.26    3.65
  -5   0   7  235.01    6.03
  -5   0  -7  231.62    6.43
   5   0   7  223.46    5.95
  -5   0   8   10.48    1.32
   5   0   8   11.26    1.34
   5   0   9    1.95    0.60
   5  -1   9   26.93    1.78
  -5  -1  -8   19.13    1.76
  -5   1   8   19.30    1.91
   5  -1   8   17.90    1.62
   5  -1   7   15.11    1.70
  -5   1   7   16.22    1.78
  -5   1   7   15.46    1.91
   5  -1   6   16.47    1.87
  -5   1   6   12.82    1.64
  -5  -1  -6   15.23    1.70
  -5   1   6   14.27    2.06
   5  -1   5  272.53    6.73
  -5   1   5  269.38    6.65
  -5  -1  -5  263.38    7.03
  -5   1   5  274.24    8.11
   5  -1   4    3.10    0.75
  -5  -1  -4    1.81    0.97
  -5   1   4    1.78    0.88
  -5  -1  -4    1.92    1.06
  -5   1   4    2.87    1.17
  -5   1   3   65.76    3.07
  -5  -1  -3   66.96    5.53
  -5  -1  -3   63.90    3.56
  -5  -1  -3   65.73    3.14
  -5   1   3   66.19    3.68
  -5   1   2  118.50    3.87
  -5  -1  -2  118.30    6.88
  -5   1   2  117.97    3.91
  -5  -1  -2  119.43    4.74
  -5  -1  -2  116.00    4.47
  -5  -1  -2  116.91    4.08
  -5   1   2  113.17    4.52
  -5  -1  -1  125.09    6.74
  -5   1   1  134.89    3.88
  -5   1   1  133.26    3.96
  -5  -1  -1  121.51    4.22
  -5  -1  -1  138.35    4.94
  -5  -1  -1  134.45    4.62
  -5  -1  -1  136.34    4.35
  -5   1   1  133.74    4.73
  -5   1   0   13.75    2.21
  -5   1   0   10.57    1.19
  -5  -1   0   12.59    1.57
  -5   1   0   12.21    1.62
  -5  -1   0   10.97    1.45
  -5   1   0   12.57    1.45
  -5  -1   0   13.45    2.23
  -5  -1   0   14.50    1.57
  -5   1   0   14.10    1.68
  -5   1   0   11.70    1.36
  -5  -1   1  137.51    6.74
  -5   1  -1  126.57    6.08
  -5  -1   1  131.80    4.02
  -5  -1   1  128.86    4.41
  -5   1  -1  135.25    5.02
  -5  -1   1  137.71    4.38
  -5   1  -1  143.60    4.66
  -5  -1   1  138.58    4.56
  -5   1  -1  130.63    4.09
  -5   1  -2  112.82    5.93
  -5  -1   2  115.96    4.00
  -5  -1   2  120.28    4.27
  -5   1  -2  110.57    4.71
  -5  -1   2  115.00    3.90
  -5   1  -2  117.97    4.16
  -5  -1   2  116.41    4.26
  -5   1  -2  114.25    3.98
  -5   1  -3   60.78    4.57
  -5  -1   3   67.27    3.20
  -5  -1   3   64.52    3.21
  -5   1  -3   62.82    3.75
  -5   1  -3   67.83    3.14
  -5  -1   3   65.25    3.33
  -5   1  -3   65.54    3.11
  -5  -1   4    3.32    0.99
  -5   1  -4    2.19    1.33
  -5  -1   4    2.97    1.00
  -5   1  -4    1.78    0.85
  -5  -1   4    0.44    0.70
  -5   1  -5  259.64    7.89
  -5  -1   5  247.05    6.54
  -5  -1   6   13.15    1.67
  -5   1  -6   14.51    2.25
  -5  -1   6   12.07    1.48
   5   1   6   13.71    1.51
  -5  -1   7   14.95    1.72
  -5   1  -7   14.45    1.98
   5   1   7   13.26    1.52
  -5  -1   8   18.29    1.63
  -5   1  -8   14.51    1.77
   5   1   8   14.93    1.51
   5   1   9   27.52    1.73
   5  -2   8  128.90    4.33
  -5  -2  -8  126.52    3.95
  -5   2   8  130.20    4.80
   5  -2   7   31.66    2.43
  -5  -2  -7   30.46    2.34
  -5   2   7   33.37    3.00
   5  -2   6   58.12    3.30
  -5  -2  -6   54.90    3.25
  -5   2   6   55.60    4.14
   5  -2   5   52.84    3.15
  -5  -2  -5   48.09    3.14
  -5   2   5   47.91    3.88
  -5   2   4   79.29    3.56
  -5  -2  -4   75.00    6.49
  -5  -2  -4   79.58    3.69
  -5  -2  -4   76.72    3.89
  -5   2   4   81.27    4.65
  -5   2   3    8.87    1.30
  -5  -2  -3    7.94    1.37
  -5  -2  -3   12.01    2.86
  -5   2   3    9.41    1.72
   5   2  -3    5.23    1.53
  -5  -2  -2  314.94   11.45
  -5  -2  -2  312.69    7.35
  -5  -2  -2  317.06    6.56
  -5   2   2  315.36    7.77
  -5  -2  -1  134.41    7.27
  -5   2   1  147.16    4.94
  -5  -2  -1  145.79    4.89
  -5  -2  -1  142.82    4.39
  -5   2   1  146.08    5.06
  -5  -2   0  599.67   14.75
  -5  -2   0  576.39    9.81
  -5   2   0  586.89   10.09
  -5  -2   0  614.47    9.61
  -5  -2   0  597.54    8.87
  -5   2   0  593.31    9.72
  -5  -2   1  146.60    7.16
  -5  -2   1  151.84    4.48
  -5  -2   1  153.97    4.96
  -5   2  -1  144.52    5.29
  -5  -2   1  148.27    4.70
  -5  -2   1  145.91    4.46
  -5   2  -1  140.48    4.63
  -5   2  -1  144.37    4.58
  -5  -2   2  308.04    6.74
  -5  -2   2  314.05    7.07
  -5   2  -2  308.75    8.11
  -5  -2   2  322.28    6.81
  -5   2  -2  298.09    6.62
  -5  -2   2  295.26    6.42
  -5   2  -2  321.08    6.77
  -5  -2   3    9.38    1.36
  -5  -2   3    7.65    1.27
  -5   2  -3    9.70    1.86
  -5   2  -3    8.75    1.25
  -5  -2   3    8.49    1.20
  -5   2  -3    8.35    1.28
  -5  -2   4   75.94    3.64
  -5  -2   4   78.75    3.60
  -5   2  -4   74.37    4.61
  -5   2  -4   76.64    3.28
  -5  -2   4   71.11    3.19
  -5   2  -4   73.24    3.46
  -5  -2   5   53.72    3.12
  -5   2  -5   49.87    3.91
  -5  -2   6   58.24    3.26
  -5   2  -6   59.33    4.24
   5   2   6   57.51    2.88
  -5  -2   7   35.38    2.42
  -5   2  -7   34.26    2.89
   5   2   7   34.28    2.25
  -5  -2   8  127.33    4.01
  -5   2  -8  124.62    4.64
   5   2   8  122.00    3.81
   5  -3   8    4.94    1.03
  -5   3   8    6.03    1.21
   5  -3   7   17.25    1.88
  -5  -3  -7   16.14    1.55
  -5   3   7   16.18    2.22
   5  -3   6    8.38    1.30
  -5  -3  -6    7.51    1.34
  -5   3   6    7.64    1.80
  -5  -3  -5   50.39    3.03
  -5   3   5   55.31    4.26
  -5  -3  -4   38.72    2.73
  -5   3   4   36.10    3.23
   5   3  -3  213.85    9.12
  -5  -3  -3  236.44   10.65
  -5  -3  -3  229.84    6.39
  -5  -3  -3  221.43    5.74
  -5   3   3  226.86    7.20
   5   3  -2   48.23    4.53
  -5  -3  -2   54.25    5.10
  -5  -3  -2   55.00    3.03
  -5  -3  -2   50.57    2.68
  -5   3   2   49.94    3.25
  -5  -3  -1   32.41    3.62
  -5   3   1   30.14    2.29
  -5  -3  -1   26.69    2.20
  -5  -3  -1   32.53    2.14
  -5   3   1   31.05    2.50
  -5  -3   0   29.26    3.42
  -5  -3   0   26.66    2.26
  -5   3   0   26.90    2.33
  -5  -3   0   27.57    2.18
  -5  -3   0   24.84    1.80
  -5   3   0   27.12    2.18
  -5  -3   1   29.37    3.47
  -5  -3   1   30.47    2.25
  -5  -3   1   29.27    2.35
  -5   3  -1   28.35    2.54
  -5  -3   1   29.88    2.26
  -5  -3   1   25.56    1.83
  -5   3  -1   29.39    2.20
  -5  -3   2   52.91    3.04
  -5  -3   2   50.19    2.99
  -5   3  -2   47.41    3.42
  -5   3  -2   51.79    2.74
  -5   3  -2   54.52    3.02
  -5  -3   3  224.07    6.32
  -5  -3   3  231.85    6.17
  -5   3  -3  229.15    7.82
  -5   3  -3  218.74    5.22
  -5   3  -3  223.60    6.06
  -5  -3   4   38.83    2.79
  -5  -3   4   36.02    2.46
  -5   3  -4   37.15    2.60
  -5  -3   5   54.61    3.25
  -5   3  -5   53.14    2.99
  -5  -3   6    7.13    1.38
  -5  -3   7   19.09    1.84
  -5   3  -7   18.25    2.56
  -5   3  -8    5.45    1.24
  -5  -3   8    5.90    0.93
   5  -4   8   74.46    3.02
  -5  -4  -8   80.81    2.96
  -5   4   8   72.32    3.16
   5  -4   7   24.55    2.10
  -5  -4  -7   25.83    1.91
  -5   4   7   24.90    2.38
   5  -4   6  150.82    5.28
  -5  -4  -6  138.76    4.21
  -5  -4  -6  141.46    4.73
  -5   4   6  154.78    6.16
  -5  -4  -5  120.64    4.25
  -5  -4  -5  125.03    4.56
  -5   4   5  135.01    5.92
  -5  -4  -4    6.00    1.23
  -5  -4  -4    3.69    0.95
  -5   4   4    5.86    1.54
  -5  -4  -3   19.08    1.95
  -5  -4  -3   18.86    1.87
  -5   4   3   22.28    2.44
  -5  -4  -2  113.42    4.41
  -5  -4  -2  111.07    4.16
  -5   4   2  107.98    4.63
  -5  -4  -1   29.44    3.70
   5  -4   1   28.19    2.12
  -5  -4  -1   29.77    2.35
  -5  -4  -1   31.55    2.17
  -5   4   1   31.69    2.42
  -5  -4   0  202.44    8.86
   5  -4   0  216.46    5.97
  -5  -4   0  229.05    6.64
  -5   4   0  215.00    6.05
  -5  -4   0  222.65    6.09
  -5   4   0  211.01    5.78
  -5  -4   1   31.81    2.53
  -5  -4   1   31.15    2.51
  -5   4  -1   28.51    2.49
  -5   4  -1   31.95    2.20
  -5  -4   1   25.62    3.29
  -5   4  -2  111.65    4.42
  -5  -4   2  116.17    4.81
  -5  -4   2  110.98    4.49
  -5   4  -2  103.05    4.87
  -5  -4   3   22.47    2.21
  -5  -4   3   20.98    2.01
  -5   4  -3   19.80    2.52
  -5   4  -3   19.18    1.95
  -5   4  -4    4.37    1.09
  -5  -4   4    6.35    1.23
  -5  -4   4    5.99    1.29
  -5  -4   5  127.12    4.91
  -5   4  -5  128.57    4.51
  -5  -4   6  142.45    4.92
  -5  -4   7   23.87    1.88
  -5   4  -7   23.61    2.53
  -5  -4   8   68.42    2.61
  -5   4  -8   73.24    3.38
   5  -5   7   14.12    1.42
  -5  -5  -7   15.25    1.36
  -5   5   7   16.67    1.64
   5  -5   6   17.58    1.83
  -5  -5  -6   19.89    1.79
  -5   5   6   18.83    1.95
  -5  -5  -5    0.80    0.82
  -5   5   5    0.92    0.84
  -5  -5  -4  288.43    6.21
  -5  -5  -4  298.49    6.98
  -5   5   4  302.90    7.77
  -5  -5  -3   48.91    2.79
  -5  -5  -3   43.49    2.74
  -5   5   3   45.62    2.93
   5  -5   2  121.24    4.29
  -5  -5  -2  116.48    4.36
  -5  -5  -2  116.83    4.32
  -5   5   2  116.88    4.57
   5  -5   1   31.19    2.33
  -5  -5  -1   34.95    2.57
  -5  -5  -1   32.43    2.31
  -5   5   1   30.29    2.32
   5  -5   0   26.40    2.23
  -5  -5   0   25.95    2.44
  -5  -5   0   23.05    1.94
   5  -5  -1   33.56    2.59
  -5  -5   1   32.29    2.79
  -5  -5   1   36.57    2.71
  -5   5  -1   31.10    2.38
  -5   5  -2  120.29    4.62
  -5  -5   2  112.13    5.03
  -5  -5   2  116.23    4.48
  -5   5  -2  112.50    4.76
  -5  -5   3   45.41    3.20
  -5  -5   3   47.08    2.79
  -5   5  -3   40.18    3.13
  -5   5  -3   47.84    2.92
  -5  -5   4  306.28    7.68
  -5  -5   4  290.45    6.26
  -5   5  -4  301.13    8.58
  -5   5  -4  296.27    6.81
  -5   5  -5    1.90    0.77
  -5   5  -5    1.00    1.17
  -5  -5   5    0.56    0.85
  -5  -5   6   19.60    1.78
  -5   5  -6   21.17    2.33
  -5  -5   7   14.68    1.43
  -5   5  -7   15.42    1.77
   5  -6   6    9.78    1.21
  -5  -6  -6    9.84    1.15
  -5  -6  -5   79.37    3.27
  -5   6   5   71.43    3.08
  -5  -6  -4   17.52    1.73
  -5   6   4   16.73    1.59
   5  -6   3   22.43    1.81
  -5  -6  -3   24.52    2.08
   5  -6   2  106.10    3.96
  -5  -6  -2  109.19    4.15
   5  -6   1  620.12    9.77
  -5  -6  -1  620.33    9.71
   5  -6   0   36.83    2.51
  -5  -6   0   35.76    2.65
  -5  -6   0   31.91    2.27
   5  -6  -1  627.44   10.41
  -5  -6   1  626.73   10.10
  -5  -6   1  608.17    9.15
   5  -6  -2  110.34    4.47
  -5  -6   2  111.54    4.87
  -5  -6   2  107.71    4.00
  -5   6  -2  114.39    4.34
   5  -6  -3   22.80    2.18
  -5  -6   3   22.47    2.18
  -5  -6   3   20.56    1.69
  -5   6  -3   18.88    1.86
  -5   6  -3   22.10    1.92
   5  -6  -4   18.24    1.88
  -5  -6   4   17.91    1.85
  -5   6  -4   15.64    1.70
  -5   6  -4   17.72    1.60
  -5  -6   5   76.77    3.44
  -5   6  -5   70.61    3.43
  -5  -6   6    8.90    1.10
   5  -6  -6    8.84    1.13
  -5   6  -6    8.91    1.34
  -5  -7  -4   68.93    2.84
   5  -7   3   22.89    1.66
  -5  -7  -3   28.57    1.99
   5  -7   2   12.38    1.33
  -5  -7  -2   14.18    1.53
   5  -7   1   28.32    2.04
  -5  -7  -1   27.00    2.08
  -5  -7  -1   26.67    1.97
   5  -7   0    4.88    1.14
  -5  -7   0    5.18    1.19
  -5  -7   0    5.05    0.98
   5  -7  -1   30.15    2.21
  -5  -7   1   23.36    1.81
   5  -7  -2   12.72    1.54
  -5  -7   2   12.90    1.53
  -5   7  -2   15.43    1.53
   5  -7  -3   30.17    2.14
  -5  -7   3   27.21    2.01
  -5   7  -3   27.52    1.83
   5  -7  -4   70.16    3.01
  -5  -7   4   70.36    3.04
  -5   7  -4   68.65    2.55
   5  -8   1   60.61    2.46
  -5   8   0   17.06    1.40
   5  -8   0   16.89    1.47
   5  -8  -1   61.78    2.57
  -5   8  -1   61.61    2.48
  -6   0   0    0.85    0.69
  -6   0   0    1.80    0.88
  -6   0   0    1.81    0.91
  -6   0   0    3.25    1.13
  -6   0  -1   33.74    3.87
  -6   0   1   33.36    2.13
  -6   0   1   35.99    2.40
  -6   0  -1   35.44    2.27
  -6   0   1   33.95    2.35
  -6   0  -1   35.99    2.65
  -6   0  -1   36.93    2.63
  -6   0   1   36.96    2.67
  -6   0   2   10.49    1.39
  -6   0   2   10.79    1.54
  -6   0  -2   13.65    1.93
  -6   0  -2   11.11    1.60
  -6   0   2   10.01    1.72
  -6   0   3  857.23   11.41
  -6   0  -3  841.46   13.61
  -6   0  -3  830.51   12.97
  -6   0  -3  845.46   11.61
  -6   0   3  830.76   12.64
  -6   0   4   69.75    3.40
  -6   0  -4   72.67    4.03
  -6   0   4   72.29    3.90
  -6   0   5  902.25   11.88
  -6   0  -5  903.35   13.42
  -6   0   6   28.31    2.17
  -6   0  -6   26.11    2.38
  -6   0   6   27.23    2.19
  -6   0  -7    1.70    0.90
  -6   0  -7    1.78    1.06
  -6  -1  -7   53.41    2.86
  -6   1   7   48.36    2.76
  -6  -1  -6    1.72    1.10
  -6   1   6    0.92    0.98
  -6   1   5   51.51    2.94
  -6  -1  -5   47.51    3.03
  -6  -1  -5   52.51    3.35
  -6   1   5   56.38    3.62
  -6   1   4   30.74    2.38
  -6  -1  -4   29.32    2.53
  -6  -1  -4   29.23    2.66
  -6   1   4   33.85    2.95
  -6   1   3   17.02    1.82
  -6  -1  -3   14.35    1.57
  -6  -1  -3   17.16    2.11
  -6  -1  -3   18.68    1.96
  -6   1   3   19.47    2.21
  -6   1   2   87.45    3.57
  -6  -1  -2   77.27    3.47
  -6  -1  -2   84.35    4.11
  -6  -1  -2   85.74    3.74
  -6   1   2   88.50    4.34
  -6  -1  -1    5.23    1.15
  -6  -1  -1    6.76    1.43
  -6  -1  -1    5.75    1.27
  -6   1   1    7.14    1.45
  -6  -1   0  398.50   12.60
  -6   1   0  397.41    7.01
  -6  -1   0  398.48    8.01
  -6  -1   0  420.67    8.38
  -6   1   0  392.28    7.73
  -6  -1   0  412.85    8.24
  -6   1   0  408.91    8.56
  -6   1  -1    6.45    1.05
  -6  -1   1    7.09    1.19
  -6   1  -1    6.98    1.53
  -6  -1   1   11.10    1.61
  -6   1  -1    5.08    1.24
  -6   1  -1    7.57    1.46
  -6  -1   1    6.34    1.31
  -6  -1   2   83.90    3.57
  -6  -1   2   87.30    3.87
  -6   1  -2   83.32    4.53
  -6  -1   2   85.23    3.57
  -6   1  -2   85.80    4.08
  -6   1  -2   84.47    3.73
  -6  -1   2   84.60    3.93
  -6   1  -2   88.74    3.62
  -6  -1   3   17.98    1.82
  -6  -1   3   18.31    1.83
  -6   1  -3   19.54    2.49
  -6   1  -3   17.58    1.86
  -6  -1   3   16.00    1.81
  -6  -1   4   31.64    2.44
  -6   1  -4   30.03    3.02
  -6  -1   4   25.49    2.09
  -6  -1   5   52.92    3.07
  -6   1  -5   54.00    3.72
  -6  -1   5   44.67    2.65
  -6   1  -6   -1.02    1.02
  -6  -1   6    3.21    0.98
  -6  -1   7   54.47    2.67
  -6   1  -7   48.58    2.87
  -6  -2  -7    2.44    0.85
  -6   2   7    4.94    1.10
  -6  -2  -6   11.31    1.56
  -6   2   6   12.37    1.85
  -6  -2  -5   77.91    3.87
  -6   2   5   80.61    4.68
  -6  -2  -4   52.26    3.30
  -6   2   4   56.49    3.87
  -6  -2  -3    5.94    1.20
  -6  -2  -3    8.07    1.58
  -6   2   3    4.92    1.48
  -6  -2  -2  174.05    5.67
  -6  -2  -2  204.24    6.22
  -6  -2  -2  193.63    5.53
  -6   2   2  185.91    6.33
  -6  -2  -1   20.52    2.11
  -6  -2  -1   22.81    2.22
  -6  -2  -1   22.64    1.99
  -6   2   1   24.19    2.31
  -6   2   0    8.78    1.22
  -6  -2   0   11.62    1.65
  -6   2   0    9.75    1.74
  -6  -2   0   10.09    1.57
  -6  -2   0    9.32    1.42
  -6   2   0    8.74    1.47
  -6  -2   1   23.64    2.21
  -6   2  -1   27.83    2.63
  -6  -2   1   21.05    2.00
  -6   2  -1   20.26    2.00
  -6  -2   1   19.94    1.87
  -6   2  -1   21.33    2.02
  -6   2  -1   20.53    1.85
  -6  -2   2  191.22    5.50
  -6  -2   2  198.68    5.90
  -6   2  -2  191.97    6.82
  -6   2  -2  180.40    5.44
  -6   2  -2  194.94    5.52
  -6   2  -3    5.68    1.21
  -6  -2   3    4.71    1.16
  -6   2  -3    3.41    1.58
  -6  -2   3    5.15    1.16
  -6   2  -3    5.32    1.19
  -6  -2   3    4.90    1.02
  -6  -2   4   49.25    2.99
  -6  -2   4   53.22    3.06
  -6   2  -4   49.52    3.90
  -6  -2   5   79.77    3.69
  -6   2  -5   82.75    4.79
  -6  -2   6   12.93    1.54
  -6   2  -6   10.27    2.05
  -6   2  -7    3.15    0.98
  -6  -2   7    3.96    0.87
  -6   3   7   10.59    1.40
   6  -3   6   20.75    1.76
  -6  -3  -6   19.52    1.74
  -6   3   6   20.40    2.28
  -6  -3  -5   54.55    3.02
  -6   3   5   55.52    3.82
  -6  -3  -4   12.02    1.68
  -6  -3  -4   14.56    1.81
  -6   3   4   16.55    2.18
  -6  -3  -3   10.33    1.74
  -6  -3  -3   11.51    1.73
  -6   3   3   11.23    2.02
  -6  -3  -2   13.36    1.93
  -6  -3  -2   11.87    1.72
  -6   3   2   12.45    1.79
  -6   3   1   61.39    3.21
  -6  -3  -1   71.02    3.86
  -6  -3  -1   69.33    3.63
  -6   3   1   69.26    3.71
  -6   3   0    5.45    1.18
  -6  -3   0    6.43    1.40
  -6   3   0    4.31    0.97
  -6  -3   0    5.21    1.16
  -6  -3   0    5.49    1.01
  -6   3   0    4.36    1.17
  -6  -3   1   69.04    3.68
  -6   3  -1   65.53    3.77
  -6  -3   1   69.31    3.49
  -6  -3   1   59.88    2.84
  -6   3  -1   65.06    3.32
  -6   3  -1   67.04    3.35
  -6  -3   2   10.40    1.64
  -6  -3   2   11.77    1.72
  -6   3  -2   11.21    1.99
  -6   3  -2   10.78    1.37
  -6   3  -2   11.48    1.56
  -6  -3   3   10.05    1.69
  -6  -3   3   11.71    1.61
  -6   3  -3    9.78    1.87
  -6   3  -3    9.37    1.35
  -6   3  -3    8.99    1.40
  -6  -3   4   12.55    1.64
  -6  -3   4   13.36    1.64
  -6   3  -4   11.70    2.28
  -6   3  -4   13.46    1.59
  -6  -3   5   57.00    3.11
  -6   3  -5   54.73    3.98
  -6  -3   6   21.16    1.82
  -6   3  -6   20.92    2.41
  -6  -3   7   10.17    1.19
  -6   3  -7   10.15    1.45
  -6   4   6   76.76    3.61
  -6  -4  -5   11.56    1.57
  -6  -4  -5   13.75    1.49
  -6   4   5   16.77    2.00
  -6  -4  -4  277.42    6.39
  -6   4   4  282.57    7.71
  -6  -4  -3    9.94    1.86
  -6  -4  -3   10.23    1.56
  -6   4   3   10.03    1.71
  -6  -4  -2  103.08    4.82
  -6   4   2   94.96    4.25
  -6  -4  -1   13.15    1.89
  -6  -4  -1   16.71    1.84
  -6   4   1   15.30    1.79
  -6  -4   0   23.01    2.30
  -6  -4   0   24.61    2.20
  -6   4   0   21.18    1.95
  -6   4   0   21.77    2.09
   6  -4  -1   14.78    1.60
  -6  -4   1   15.96    1.95
  -6   4  -1   17.19    1.97
  -6   4  -1   14.92    1.52
  -6   4  -1   16.20    1.73
  -6  -4   2  103.77    4.45
  -6  -4   2   96.63    4.09
  -6   4  -2   94.66    4.51
  -6   4  -2  103.34    4.15
  -6  -4   3    9.87    1.66
  -6  -4   3   11.59    1.61
  -6   4  -3   11.18    1.94
  -6   4  -3   10.13    1.43
  -6  -4   4  282.58    7.04
  -6  -4   4  274.29    6.22
  -6   4  -4  271.78    6.26
  -6  -4   5   12.61    1.56
  -6   4  -5   14.09    2.11
  -6  -4   6   79.35    3.18
  -6   4  -6   79.73    3.97
  -6  -5  -5    8.61    1.27
  -6   5   5    6.10    1.13
  -6  -5  -4    9.88    1.55
  -6   5   4    8.80    1.31
  -6  -5  -3    0.08    0.96
  -6   5   3   -1.62    0.91
  -6  -5  -2   85.03    4.15
  -6   5   2   80.03    3.46
  -6  -5  -1  112.03    4.68
  -6   5   1   98.10    3.63
  -6   5   0   14.35    1.71
   6  -5   0   14.03    1.51
  -6  -5   0   16.82    1.87
   6  -5  -1   99.90    3.81
  -6  -5   1  109.61    4.34
  -6   5  -1  107.67    4.25
   6  -5  -2   78.93    3.54
  -6  -5   2   84.95    3.61
  -6   5  -2   77.78    3.56
  -6   5  -2   84.71    3.64
  -6   5  -3    0.88    0.81
   6  -5  -3    0.29    0.90
  -6  -5   3    0.62    0.73
  -6   5  -3   -1.81    0.98
  -6  -5   3    1.34    0.90
  -6  -5   4   10.83    1.40
   6  -5  -4   10.80    1.38
  -6   5  -4    8.86    1.46
  -6   5  -4    9.28    1.16
  -6  -5   5    8.89    1.22
  -6   5  -5    9.99    1.39
  -6  -6  -4   14.16    1.49
  -6  -6  -3  139.31    4.55
  -6  -6  -2    1.65    0.99
  -6  -6  -1  132.65    4.47
   6  -6   0   66.19    2.79
  -6  -6   0   72.95    3.31
  -6   6   0   77.02    3.40
   6  -6  -1  121.95    3.92
  -6  -6   1  131.84    4.18
  -6   6  -1  133.09    4.30
  -6   6  -2   -0.52    0.59
   6  -6  -2   -0.36    0.72
  -6  -6   2    0.63    0.64
   6  -6  -3  125.86    3.94
  -6  -6   3  123.77    3.45
  -6   6  -3  130.21    3.83
   6  -6  -4   12.33    1.32
  -6   7   0   29.27    1.79
  -6   7  -1   21.66    1.54
  -7   0   0    1.43    0.56
  -7   0   0    0.99    0.63
  -7   0  -1  117.82    4.42
  -7   0  -1  113.08    4.26
  -7   0   1  118.61    4.59
  -7   0  -2    2.55    1.06
  -7   0  -2    4.11    1.22
  -7   0   2    3.38    1.13
  -7   0  -3   71.70    3.71
  -7   0   3   66.72    3.41
  -7   0  -4    2.07    1.08
  -7   0   4    2.33    0.93
  -7   0  -5  151.07    5.06
  -7   0   5  124.50    4.04
  -7   0  -6   54.71    2.77
  -7  -1  -6    5.52    1.08
  -7  -1  -5   49.67    2.86
  -7   1   5   46.10    2.81
  -7  -1  -4    7.35    1.33
  -7   1   4    5.16    1.31
  -7  -1  -3   71.61    3.58
  -7   1   3   63.45    3.64
  -7  -1  -2   58.27    3.27
  -7  -1  -2   64.04    3.19
  -7   1   2   60.29    3.47
  -7  -1  -1    2.24    0.81
  -7  -1  -1    5.97    1.30
  -7  -1  -1    4.07    1.12
  -7   1   1    4.84    1.24
  -7  -1   0    2.76    0.90
  -7  -1   0    3.26    0.99
  -7  -1   0    2.66    0.99
  -7   1   0    2.98    1.16
  -7  -1   1    4.98    1.05
  -7  -1   1    5.86    1.13
  -7   1  -1    5.43    1.15
  -7   1  -1    5.04    1.24
  -7  -1   1    5.64    1.16
  -7  -1   2   59.30    3.04
  -7   1  -2   62.17    3.31
  -7   1  -2   61.59    3.07
  -7  -1   2   57.91    3.03
  -7  -1   3   66.07    3.08
  -7   1  -3   66.24    3.57
  -7  -1   3   61.36    3.01
  -7  -1   4    8.13    1.23
  -7   1  -4    8.52    1.53
  -7  -1   4    7.01    1.05
  -7  -1   5   44.80    2.43
  -7   1  -5   47.88    3.00
  -7   1  -6    5.46    1.04
  -7  -2  -5    3.07    0.96
  -7   2   5    0.73    0.72
  -7  -2  -4   16.29    1.76
  -7   2   4   15.22    1.86
  -7  -2  -3   18.78    1.94
  -7   2   3   15.98    2.05
  -7  -2  -2   19.95    1.79
  -7  -2  -2   23.86    2.14
  -7   2   2   20.13    2.14
  -7  -2  -1    8.46    1.34
  -7  -2  -1    7.69    1.32
  -7  -2  -1    8.08    1.33
  -7   2   1    8.78    1.58
  -7  -2   0  351.07    7.49
  -7  -2   0  363.27    7.52
  -7  -2   0  356.33    7.10
  -7   2   0  345.49    7.50
  -7  -2   1    7.24    1.31
  -7  -2   1    9.58    1.33
  -7   2  -1    7.40    1.32
  -7  -2   2   24.07    2.01
  -7   2  -2   21.15    1.84
  -7  -2   2   20.42    1.64
  -7  -2   3   17.29    1.67
  -7   2  -3   14.56    2.11
  -7   2  -3   16.84    1.84
  -7  -2   4   12.89    1.49
  -7   2  -4   12.84    2.01
  -7   2  -4   13.66    1.80
  -7   2  -5    2.16    1.14
  -7  -2   5    2.82    0.86
  -7   2  -5    0.94    0.86
  -7  -3  -5    8.29    1.19
  -7   3   5    5.92    1.26
  -7  -3  -4   18.56    1.69
  -7   3   4   17.87    2.06
  -7  -3  -3   72.54    3.28
  -7   3   3   81.76    4.04
  -7  -3  -2   24.51    2.27
  -7  -3  -2   26.35    2.10
  -7   3   2   27.63    2.34
  -7  -3  -1    0.32    0.70
  -7  -3  -1    0.87    0.80
  -7   3   1   -0.33    0.89
  -7  -3   0    2.04    0.93
  -7   3   0    2.05    0.90
  -7   3  -1    0.73    0.52
  -7  -3   1   -0.24    0.69
  -7   3  -1    0.81    0.75
  -7  -3   2   26.57    2.07
  -7   3  -2   24.13    1.78
  -7   3  -3   60.94    3.73
  -7  -3   4   17.86    1.69
  -7   3  -4   17.62    2.09
  -7   3  -5    7.13    1.39
  -7   4   4    1.17    0.76
  -7  -4  -3    3.17    0.99
  -7  -4  -3    3.41    0.94
  -7   4   3    3.14    1.02
  -7  -4  -2   38.48    2.68
  -7   4   2   33.60    2.23
  -7  -4  -1    5.56    1.23
  -7   4   1    8.06    1.17
  -7  -4   0  106.21    4.07
  -7   4   0   95.46    3.34
  -7   4   0   97.70    3.73
  -7  -4   1    9.66    1.42
  -7   4  -1    8.93    1.28
  -7  -4   2   39.20    2.34
  -7   4  -2   39.09    2.26
  -7   4  -4   -0.39    0.67
  -7  -5  -2   22.37    1.80
  -7  -5  -1   12.10    1.38
  -7   5   0    0.82    0.67
  -7  -5   0    0.00    0.77
  -7  -5   1   10.73    1.32
  -7   5  -1   12.92    1.38
  -7  -5   2   21.60    1.59
  -7   5  -2   22.28    1.60
  -8   0   0   30.80    2.01
  -8   0   1   28.64    1.91
  -8   0   2   35.69    2.13
  -8   1   2   11.49    1.42
  -8   1   1   17.44    1.63
  -8   1   0   51.38    2.59
  -8   1  -1   18.03    1.62
  -8  -1   1   18.64    1.43
  -8   2   1    7.78    1.19
  -8   2   0    0.88    0.60
   0   0   0    0.00    0.00


TITL 1a in P2(1)2(1)2(1)
REM P2(1)2(1)2(1) (#19 in standard setting)
CELL 1.54184   7.034205   8.756943  10.004850  90.0000  90.0000  90.0000
ZERR    3.00   0.000149   0.000168   0.000191   0.0000   0.0000   0.0000
LATT -1
SYMM -x+1/2,-y, z+1/2
SYMM -x, y+1/2,-z+1/2
SYMM  x+1/2,-y+1/2,-z
SFAC C H N Cl
UNIT 12.00 6.00 15.00 3.00
TREF
HKLF 4
END
_computing_structure_solution     'SHELXT 2018/2 (Sheldrick, 2018)'
;
_shelx_hkl_checksum              6836
_olex2_submission_special_instructions 'No special instructions were received'
_oxdiff_exptl_absorpt_empirical_details
;
Empirical correction (ABSPACK) includes:
- Absorption correction using spherical harmonics
- Frame scaling
;
_oxdiff_exptl_absorpt_empirical_full_max 1.773
_oxdiff_exptl_absorpt_empirical_full_min 0.784
loop_
_space_group_symop_operation_xyz
'x, y, z'
'-x+1/2, -y, z+1/2'
'-x, y+1/2, -z+1/2'
'x+1/2, -y+1/2, -z'
loop_
_atom_site_label
_atom_site_type_symbol
_atom_site_fract_x
_atom_site_fract_y
_atom_site_fract_z
_atom_site_U_iso_or_equiv
_atom_site_adp_type
_atom_site_occupancy
_atom_site_site_symmetry_order
_atom_site_calc_flag
_atom_site_refinement_flags_posn
_atom_site_refinement_flags_adp
_atom_site_refinement_flags_occupancy
_atom_site_disorder_assembly
_atom_site_disorder_group
Cl1 Cl 0.28970(13) 0.33255(9) 0.31896(9) 0.0457(3) Uani 1 1 d . . . . .
N4 N 0.3593(4) 0.7477(3) 0.4115(3) 0.0307(6) Uani 1 1 d . . . . .
N5 N 0.3695(4) 0.5940(3) 0.4178(3) 0.0333(6) Uani 1 1 d . . . . .
N3 N 0.4343(4) 0.8381(4) 0.5060(3) 0.0423(7) Uani 1 1 d . . . . .
N2 N 0.3966(5) 0.9773(4) 0.4659(3) 0.0480(8) Uani 1 1 d . . . . .
N1 N 0.2999(5) 0.9812(3) 0.3491(3) 0.0420(7) Uani 1 1 d . . . . .
C9 C 0.2777(5) 0.8346(3) 0.3148(3) 0.0310(6) Uani 1 1 d . . . . .
C7 C 0.1992(5) 0.6047(4) 0.2071(3) 0.0363(7) Uani 1 1 d . . . . .
H7 H 0.145246 0.548720 0.137845 0.044 Uiso 1 1 calc R U . . .
C6 C 0.2873(5) 0.5291(3) 0.3161(3) 0.0322(7) Uani 1 1 d . . . . .
C8 C 0.1947(5) 0.7588(4) 0.2051(3) 0.0365(7) Uani 1 1 d . . . . .
H8 H 0.139520 0.812296 0.134748 0.044 Uiso 1 1 calc R U . . .
loop_
_atom_site_aniso_label
_atom_site_aniso_U_11
_atom_site_aniso_U_22
_atom_site_aniso_U_33
_atom_site_aniso_U_23
_atom_site_aniso_U_13
_atom_site_aniso_U_12
Cl1 0.0529(5) 0.0259(4) 0.0584(5) -0.0027(4) 0.0130(4) -0.0013(4)
N4 0.0386(14) 0.0283(13) 0.0253(13) -0.0009(11) -0.0003(12) -0.0026(11)
N5 0.0411(15) 0.0283(13) 0.0304(14) 0.0040(11) 0.0026(13) 0.0001(12)
N3 0.0540(17) 0.0404(17) 0.0326(14) -0.0069(15) -0.0056(13) -0.0081(16)
N2 0.061(2) 0.0359(17) 0.0466(17) -0.0107(14) 0.0026(16) -0.0077(15)
N1 0.0522(19) 0.0300(13) 0.0440(16) -0.0031(12) 0.0050(16) -0.0014(14)
C9 0.0376(16) 0.0277(15) 0.0275(14) 0.0041(13) 0.0047(13) 0.0021(15)
C7 0.0434(18) 0.0398(17) 0.0258(15) -0.0069(13) 0.0004(17) -0.0040(15)
C6 0.0368(17) 0.0259(15) 0.0339(16) -0.0018(13) 0.0077(17) 0.0002(14)
C8 0.0421(18) 0.0411(18) 0.0264(16) 0.0049(13) 0.0006(16) 0.0023(16)
loop_
_atom_type_symbol
_atom_type_description
_atom_type_scat_dispersion_real
_atom_type_scat_dispersion_imag
_atom_type_scat_source
C C 0.0181 0.0091 'International Tables Vol C Tables 4.2.6.8 and 6.1.1.4'
H H 0.0000 0.0000 'International Tables Vol C Tables 4.2.6.8 and 6.1.1.4'
Cl Cl 0.3639 0.7018 'International Tables Vol C Tables 4.2.6.8 and 6.1.1.4'
N N 0.0311 0.0180 'International Tables Vol C Tables 4.2.6.8 and 6.1.1.4'
loop_
_geom_angle_atom_site_label_1
_geom_angle_atom_site_label_2
_geom_angle_atom_site_label_3
_geom_angle
_geom_angle_site_symmetry_1
_geom_angle_site_symmetry_3
_geom_angle_publ_flag
N5 N4 C9 127.9(3) . . ?
N3 N4 N5 122.3(3) . . ?
N3 N4 C9 109.7(3) . . ?
C6 N5 N4 112.1(3) . . ?
N2 N3 N4 104.7(3) . . ?
N3 N2 N1 113.0(3) . . ?
C9 N1 N2 104.8(3) . . ?
N4 C9 C8 117.8(3) . . ?
N1 C9 N4 107.8(3) . . ?
N1 C9 C8 134.4(3) . . ?
C6 C7 H7 120.4 . . ?
C8 C7 H7 120.4 . . ?
C8 C7 C6 119.2(3) . . ?
N5 C6 Cl1 114.8(2) . . ?
N5 C6 C7 126.3(3) . . ?
C7 C6 Cl1 118.9(2) . . ?
C9 C8 H8 121.7 . . ?
C7 C8 C9 116.7(3) . . ?
C7 C8 H8 121.7 . . ?
loop_
_geom_bond_atom_site_label_1
_geom_bond_atom_site_label_2
_geom_bond_distance
_geom_bond_site_symmetry_2
_geom_bond_publ_flag
Cl1 C6 1.722(3) . ?
N4 N5 1.350(4) . ?
N4 N3 1.341(4) . ?
N4 C9 1.358(4) . ?
N5 C6 1.301(4) . ?
N3 N2 1.311(4) . ?
N2 N1 1.353(4) . ?
N1 C9 1.337(4) . ?
C9 C8 1.410(5) . ?
C7 H7 0.9300 . ?
C7 C6 1.418(5) . ?
C7 C8 1.350(5) . ?
C8 H8 0.9300 . ?
loop_
_geom_torsion_atom_site_label_1
_geom_torsion_atom_site_label_2
_geom_torsion_atom_site_label_3
_geom_torsion_atom_site_label_4
_geom_torsion
_geom_torsion_site_symmetry_1
_geom_torsion_site_symmetry_2
_geom_torsion_site_symmetry_3
_geom_torsion_site_symmetry_4
_geom_torsion_publ_flag
N4 N5 C6 Cl1 -178.6(2) . . . . ?
N4 N5 C6 C7 1.5(5) . . . . ?
N4 N3 N2 N1 0.1(4) . . . . ?
N4 C9 C8 C7 1.7(5) . . . . ?
N5 N4 N3 N2 -180.0(3) . . . . ?
N5 N4 C9 N1 179.8(3) . . . . ?
N5 N4 C9 C8 -1.1(5) . . . . ?
N3 N4 N5 C6 179.8(3) . . . . ?
N3 N4 C9 N1 -0.5(4) . . . . ?
N3 N4 C9 C8 178.7(3) . . . . ?
N3 N2 N1 C9 -0.4(4) . . . . ?
N2 N1 C9 N4 0.5(4) . . . . ?
N2 N1 C9 C8 -178.4(4) . . . . ?
N1 C9 C8 C7 -179.5(4) . . . . ?
C9 N4 N5 C6 -0.4(5) . . . . ?
C9 N4 N3 N2 0.2(4) . . . . ?
C6 C7 C8 C9 -0.8(6) . . . . ?
C8 C7 C6 Cl1 179.2(3) . . . . ?
C8 C7 C6 N5 -0.9(6) . . . . ?
