#------------------------------------------------------------------------------
#$Date: 2021-11-30 12:26:09 +0200 (Tue, 30 Nov 2021) $
#$Revision: 270940 $
#$URL: file:///home/coder/svn-repositories/cod/cif/1/56/54/1565453.cif $
#------------------------------------------------------------------------------
#
# This file is available in the Crystallography Open Database (COD),
# http://www.crystallography.net/
#
# All data on this site have been placed in the public domain by the
# contributors.
#
data_1565453
loop_
_publ_author_name
'Adonin, Sergey A.'
'Bondarenko, Mikhail A.'
'Novikov, Alexander S.'
'Plyusnin, Pavel E.'
'Korolkov, Ilya V.'
'Sokolov, Maxim N.'
'Fedin, Vladimir P.'
_publ_section_title
;
 Five new Sb(V) bromide complexes and their polybromide derivatives with
 pyridinium-type cations: Structures, thermal stability and features of
 halogen&#x22EF;halogen contacts in solid state
;
_journal_name_full               'Inorganica Chimica Acta'
_journal_page_first              119278
_journal_paper_doi               10.1016/j.ica.2019.119278
_journal_volume                  502
_journal_year                    2020
_chemical_formula_sum            'C7 H0 Br6 N Sb'
_chemical_formula_weight         699.29
_space_group_crystal_system      triclinic
_space_group_IT_number           2
_space_group_name_Hall           '-P 1'
_space_group_name_H-M_alt        'P -1'
_atom_sites_solution_hydrogens   geom
_audit_creation_method           SHELXL-2014/7
_cell_angle_alpha                75.226(4)
_cell_angle_beta                 88.079(4)
_cell_angle_gamma                79.872(4)
_cell_formula_units_Z            2
_cell_length_a                   7.6803(4)
_cell_length_b                   8.5900(4)
_cell_length_c                   12.6261(5)
_cell_measurement_reflns_used    1762
_cell_measurement_temperature    150(2)
_cell_measurement_theta_max      29.3990
_cell_measurement_theta_min      2.4920
_cell_volume                     792.84(7)
_computing_cell_refinement       'CrysAlisPro 1.171.38.46 (Rigaku OD, 2015)'
_computing_data_collection       'CrysAlisPro 1.171.38.46 (Rigaku OD, 2015)'
_computing_data_reduction        'CrysAlisPro 1.171.38.46 (Rigaku OD, 2015)'
_computing_structure_refinement  'SHELXL-2014/7 (Sheldrick, 2014)'
_diffrn_ambient_temperature      150(2)
_diffrn_detector_area_resol_mean 10.6168
_diffrn_measured_fraction_theta_full 0.998
_diffrn_measured_fraction_theta_max 0.834
_diffrn_measurement_device_type  'New Xcalibur, AtlasS2'
_diffrn_measurement_method       '\w scans'
_diffrn_radiation_type           MoK\a
_diffrn_radiation_wavelength     0.71073
_diffrn_reflns_av_R_equivalents  0.0360
_diffrn_reflns_av_unetI/netI     0.0708
_diffrn_reflns_Laue_measured_fraction_full 0.998
_diffrn_reflns_Laue_measured_fraction_max 0.834
_diffrn_reflns_limit_h_max       9
_diffrn_reflns_limit_h_min       -10
_diffrn_reflns_limit_k_max       11
_diffrn_reflns_limit_k_min       -10
_diffrn_reflns_limit_l_max       17
_diffrn_reflns_limit_l_min       -16
_diffrn_reflns_number            6073
_diffrn_reflns_point_group_measured_fraction_full 0.998
_diffrn_reflns_point_group_measured_fraction_max 0.834
_diffrn_reflns_theta_full        25.500
_diffrn_reflns_theta_max         29.465
_diffrn_reflns_theta_min         2.490
_diffrn_source                   'fine-focus sealed X-ray tube'
_exptl_absorpt_coefficient_mu    16.831
_exptl_absorpt_correction_T_max  1.00000
_exptl_absorpt_correction_T_min  0.20486
_exptl_absorpt_correction_type   multi-scan
_exptl_absorpt_process_details
;
CrysAlisPro 1.171.39.46 (Rigaku Oxford Diffraction, 2018)
Empirical absorption correction using spherical harmonics,
 implemented in SCALE3 ABSPACK scaling algorithm.
;
_exptl_crystal_colour            purple
_exptl_crystal_density_diffrn    2.929
_exptl_crystal_description       block
_exptl_crystal_F_000             620
_exptl_crystal_size_max          0.320
_exptl_crystal_size_mid          0.160
_exptl_crystal_size_min          0.120
_refine_diff_density_max         3.040
_refine_diff_density_min         -2.225
_refine_diff_density_rms         0.361
_refine_ls_extinction_coef       .
_refine_ls_extinction_method     none
_refine_ls_goodness_of_fit_ref   0.933
_refine_ls_hydrogen_treatment    constr
_refine_ls_matrix_type           full
_refine_ls_number_parameters     136
_refine_ls_number_reflns         3675
_refine_ls_number_restraints     0
_refine_ls_restrained_S_all      0.933
_refine_ls_R_factor_all          0.0799
_refine_ls_R_factor_gt           0.0574
_refine_ls_shift/su_max          0.000
_refine_ls_shift/su_mean         0.000
_refine_ls_structure_factor_coef Fsqd
_refine_ls_weighting_details
'w=1/[\s^2^(Fo^2^)+(0.1000P)^2^] where P=(Fo^2^+2Fc^2^)/3'
_refine_ls_weighting_scheme      calc
_refine_ls_wR_factor_gt          0.1436
_refine_ls_wR_factor_ref         0.1655
_reflns_Friedel_coverage         0.000
_reflns_Friedel_fraction_full    .
_reflns_Friedel_fraction_max     .
_reflns_number_gt                2653
_reflns_number_total             3675
_reflns_threshold_expression     'I > 2\s(I)'
_cod_data_source_file            ICA-2020-502-119278.cif
_cod_data_source_block           BM43_a
_cod_original_cell_volume        792.85(7)
_cod_database_code               1565453
_shelx_shelxl_version_number     2014/7
_shelx_space_group_comment
;
The symmetry employed for this shelxl refinement is uniquely defined
by the following loop, which should always be used as a source of
symmetry information in preference to the above space-group names.
They are only intended as comments.
;
_shelx_estimated_absorpt_t_min   0.075
_shelx_estimated_absorpt_t_max   0.237
_shelx_res_file
;

    BM43_a.res created by SHELXL-2014/7


TITL BM43_a.res in P-1
REM Old TITL BM43 in P-1

REM SHELXT solution in P-1
REM R1 0.130,  Rweak 0.006,  Alpha 0.035,  Orientation as input
REM Formula found by SHELXT:  C7 N Br6 Sb

CELL  0.71073   7.6803   8.5900  12.6261   75.226   88.079   79.872
ZERR   2.000   0.0004   0.0004   0.0005    0.004    0.004    0.004
LATT  1
SFAC C H N BR SB
UNIT 14 0 2 12 2
SIZE 0.12 0.32 0.16
TEMP -123
L.S. 10
BOND $H
LIST 6
FMAP 2
PLAN 20
OMIT -1  -2  14
OMIT 8   2   8
OMIT 0 -10   2
OMIT 0  10   5
OMIT -2   6  11
OMIT -1  -5  10
OMIT  4  11   2
OMIT -3   8  10
OMIT -7  -7   6
OMIT   8   8   1
OMIT   -6  -6   4
ACTA 51

WGHT    0.100000
FVAR       0.25573
SB1   5    0.247475    0.695703    0.209169    11.00000    0.02783    0.01486 =
         0.01494   -0.00086   -0.00091   -0.00705
BR1   4    0.464744    0.776513    0.058082    11.00000    0.03421    0.03419 =
         0.02224    0.00308    0.00387   -0.01212
C1    1    0.804073    0.389666    0.156237    11.00000    0.03400    0.01873 =
         0.03629    0.01350   -0.00667   -0.00496
AFIX 133
H1A   2    0.787893    0.364634    0.086075    11.00000   -1.50000
H1B   2    0.922816    0.415215    0.159898    11.00000   -1.50000
H1C   2    0.715487    0.483894    0.162610    11.00000   -1.50000
AFIX   0
N1    3    0.782900    0.246131    0.247332    11.00000    0.03011    0.01734 =
         0.02180   -0.00379   -0.00172   -0.00036
BR2   4    0.499720    0.600582    0.349836    11.00000    0.04130    0.02817 =
         0.02518   -0.00142   -0.01303   -0.00639
C2    1    0.817507    0.251334    0.348606    11.00000    0.03284    0.01776 =
         0.03055   -0.00756   -0.00931   -0.00612
AFIX  43
H2    2    0.856097    0.344474    0.360967    11.00000   -1.20000
AFIX   0
C3    1    0.797185    0.119889    0.436971    11.00000    0.04490    0.02429 =
         0.02400   -0.01278   -0.00787   -0.00487
AFIX  43
H3    2    0.825973    0.122953    0.508918    11.00000   -1.20000
AFIX   0
BR3   4    0.290479    0.407415    0.180707    11.00000    0.03647    0.01865 =
         0.03118   -0.00830    0.00044   -0.00607
BR4   4    0.039088    0.615067    0.368521    11.00000    0.04313    0.02429 =
         0.02544   -0.00330    0.01142   -0.01080
C4    1    0.736582   -0.012824    0.421414    11.00000    0.02741    0.02329 =
         0.02469   -0.00640   -0.00073    0.00575
C5    1    0.703804   -0.013517    0.313869    11.00000    0.03281    0.01504 =
         0.03156    0.00185   -0.00954   -0.00843
AFIX  43
H5    2    0.663548   -0.104304    0.298988    11.00000   -1.20000
AFIX   0
BR5   4   -0.014777    0.784278    0.078160    11.00000    0.03430    0.02552 =
         0.03000   -0.00125   -0.01030   -0.00659
C6    1    0.729608    0.117469    0.228555    11.00000    0.03131    0.02583 =
         0.02819   -0.01023   -0.00472   -0.00191
AFIX  43
H6    2    0.708696    0.114890    0.155340    11.00000   -1.20000
AFIX   0
BR6   4    0.210232    0.984595    0.236448    11.00000    0.04259    0.01895 =
         0.03496   -0.00840   -0.00271   -0.00844
C7    1    0.709607   -0.151496    0.514068    11.00000    0.04015    0.04015 =
         0.03122   -0.00912    0.00528   -0.01203
AFIX 133
H7A   2    0.823721   -0.205355    0.549495    11.00000   -1.50000
H7B   2    0.656928   -0.229982    0.486802    11.00000   -1.50000
H7C   2    0.630308   -0.110976    0.567262    11.00000   -1.50000
AFIX   0
HKLF 4

REM  BM43_a.res in P-1
REM R1 =  0.0574 for    2653 Fo > 4sig(Fo)  and  0.0799 for all    3675 data
REM    136 parameters refined using      0 restraints

END

WGHT      0.0755      0.0000

REM Highest difference peak  3.040,  deepest hole -2.225,  1-sigma level  0.361
Q1    1   0.1896  0.7813  0.0718  11.00000  0.05    3.04
Q2    1  -0.1596  0.6059  0.3598  11.00000  0.05    2.92
Q3    1   0.0727  0.6910  0.2106  11.00000  0.05    2.86
Q4    1   0.6928  0.7846  0.0664  11.00000  0.05    2.71
Q5    1   0.5826  0.7006  0.2059  11.00000  0.05    2.71
Q6    1   0.4269  0.7018  0.2093  11.00000  0.05    2.67
Q7    1   0.2114  0.6044  0.3625  11.00000  0.05    2.63
Q8    1   0.6598  0.6069  0.3549  11.00000  0.05    2.59
Q9    1   0.2844  0.7815  0.0661  11.00000  0.05    2.58
Q10   1   0.3446  0.6103  0.3564  11.00000  0.05    2.52
Q11   1  -0.0785  0.6983  0.2039  11.00000  0.05    2.44
Q12   1  -0.1735  0.7832  0.0697  11.00000  0.05    2.34
Q13   1  -0.1968  0.6976  0.2065  11.00000  0.05    2.28
Q14   1   1.0969  0.4063  0.1827  11.00000  0.05    1.81
Q15   1   1.0309  0.4060  0.1820  11.00000  0.05    1.78
Q16   1   0.4537  0.4081  0.1830  11.00000  0.05    1.73
Q17   1   0.9386 -0.0215  0.2373  11.00000  0.05    1.59
Q18   1   0.7918 -0.0211  0.2384  11.00000  0.05    1.58
Q19   1   0.5311 -0.0209  0.2379  11.00000  0.05    1.57
Q20   1   0.3765  0.9820  0.2402  11.00000  0.05    1.56
;
_shelx_res_checksum              56435
_shelx_hkl_file
;
   0   0  -2 1403.11   42.01
   0   0  -2 1379.04   37.89
   0   0   2 1409.14   42.35
   0   0   2 1399.39   37.36
   0   0   3    9.42    2.67
   0   0  -3    8.79    2.01
   0   0   3    8.52    1.71
   0   0  -3    7.83    2.88
   0   0  -4   42.25    6.18
   0   0   4   46.62    6.73
   0   0   4   44.69    4.06
   0   0  -4   38.49    4.28
   0   0  -5  942.98   37.71
   0   0   5  922.25   30.10
   0   0  -5  958.75   32.50
   0   0   5 1034.14   41.72
   0   0   6   74.71   10.43
   0   0  -6   51.65    6.16
   0   0   6   51.31    5.14
   0   0  -6   63.69    8.41
   0   0  -7 4823.23  125.70
   0   0   7 4756.30  139.52
   0   0  -7 4390.17  130.92
   0   0   7 4341.55  119.52
   0   0  -8  226.23   15.19
   0   0  -8  192.61   16.54
   0   0   8  211.40   20.03
   0   0   8  199.26   11.77
   0   0   9   10.45    2.71
   0   0  -9   13.23    4.12
   0   0   9    5.68    3.85
   0   0  -9    7.48    3.86
   0   0 -10  101.56   10.47
   0   0  10   94.48   14.80
   0   0  10   97.86    8.34
   0   0 -11   48.98    7.92
   0   0  11   48.48   10.81
   0   0  12   17.60    8.06
   0   0 -13    0.44    1.98
   0   0  13   -1.97    3.94
   0   0  14  251.47   26.83
   0   0  15   -3.88    6.40
   0   0  16   -0.41    4.29
   0  -1  16    6.32    4.73
   0  -1  15   85.60   16.17
   0  -1  14   -2.70    5.69
   0  -1  13  994.28   57.91
   0   1 -12  253.73   17.20
   0  -1  12  193.41   23.17
   0  -1  11  341.25   30.35
   0   1 -11  357.61   21.01
   0   1 -11  413.54   22.26
   0   1 -10   15.05    3.88
   0  -1  10   15.03    6.12
   0   1 -10   14.57    4.05
   0  -1   9  173.95   20.04
   0   1  -9  171.38   12.90
   0   1  -9  190.95   13.37
   0  -1   8  887.11   48.18
   0   1  -8  969.08   35.53
   0   1  -8  976.14   36.11
   0   1  -8 1041.20   49.21
   0   1  -7  222.54   13.49
   0   1  -7  215.91   12.98
   0  -1   7  217.47   20.68
   0   1  -7  264.73   21.63
   0   1  -6 6143.62  168.75
   0   1  -6 5829.18  149.94
   0   1  -6 5751.70  149.82
   0   1  -5 1302.17   51.50
   0   1  -5 1264.10   38.49
   0   1  -5 1290.79   38.70
   0   1  -4   64.58    4.91
   0   1  -4   65.61    5.07
   0  -1   4   57.44    8.17
   0   1  -4   63.56    8.54
   0   1  -3 1017.11   29.27
   0   1  -3 1031.34   37.39
   0   1  -3 1014.62   29.03
   0  -1   3  923.14   36.66
   0  -1   2   -0.14    0.40
   0   1  -2    1.89    0.83
   0  -1   2   -1.13    2.29
   0   1  -1 1003.25   26.80
   0  -1   1  995.02   29.37
   0  -1   1  966.33   26.36
   0   1  -1 1001.18   29.68
   0   1   0  337.81   11.24
   0  -1   0  346.65   10.81
   0  -1   0  330.02   11.01
   0   1   0  340.49   10.89
   0  -1  -1 1952.71   53.79
   0   1   1 2049.30   53.97
   0   1   2  539.05   18.99
   0  -1  -2  492.73   19.96
   0   1   2  523.64   19.67
   0  -1  -3  423.26   18.32
   0   1   3  424.73   16.83
   0  -1  -3  396.60   19.37
   0   1   4 4179.93  109.75
   0   1   4 4188.49  109.24
   0  -1  -4 3972.33  112.68
   0   1   5   21.77    4.28
   0   1   5   29.96    4.27
   0  -1  -5   24.67    4.53
   0   1   6   30.76    4.75
   0  -1  -6   20.43    4.73
   0   1   6   18.92    5.12
   0   1   7  191.68   12.68
   0   1   7  201.25   16.90
   0  -1  -7  188.44   14.82
   0   1   8  695.78   36.71
   0   1   8  672.34   28.23
   0  -1  -8  682.08   32.81
   0   1   9   12.88    4.84
   0   1   9    8.86    3.06
   0  -1  -9    5.90    3.01
   0  -1  -9   12.66    4.37
   0   1  10   59.79    7.24
   0  -1 -10   46.77    8.38
   0  -1 -10   63.50   10.44
   0   1  10   78.96   12.80
   0   1  11  423.09   21.70
   0   1  11  426.96   31.95
   0  -1 -11  466.67   29.94
   0   1  12    0.15    1.39
   0  -1 -12   -0.91    3.04
   0   1  13  129.82   18.63
   0   1  13  104.08    9.82
   0   1  14   83.46   15.18
   0   1  15   74.00   15.19
   0   1  16   55.38   12.87
   0   1  17    4.17    4.57
   0  -2  15   -1.52    4.83
   0  -2  14  129.52   20.28
   0  -2  13  250.44   27.48
   0  -2  12  247.73   26.69
   0   2 -11  162.64   13.42
   0  -2  11  161.85   20.95
   0  -2  10   -3.31    4.09
   0   2 -10    1.95    1.78
   0   2 -10   -0.27    1.85
   0   2  -9  573.11   25.90
   0   2  -9  573.15   25.88
   0   2  -8   -0.23    1.35
   0   2  -8    1.95    1.82
   0   2  -7  258.64   14.13
   0   2  -7  262.32   14.61
   0   2  -7  287.94   23.74
   0  -2   7  214.93   21.00
   0   2  -6 1270.65   40.24
   0   2  -6 1359.40   55.55
   0   2  -6 1243.47   39.22
   0   2  -5  114.33    7.70
   0   2  -5  105.07    7.60
   0   2  -5  112.18   12.74
   0  -2   5   85.00   11.03
   0   2  -4   12.15    3.44
   0  -2   4    6.00    1.68
   0   2  -4    9.84    2.02
   0  -2   4    6.34    1.95
   0   2  -3    1.31    0.99
   0  -2   3    1.18    1.43
   0  -2   3    1.62    0.88
   0   2  -3    3.64    2.21
   0  -2   2 4597.97  116.46
   0  -2   2 4552.17  122.99
   0   2  -2 4631.92  117.78
   0   2  -2 4609.97  123.71
   0   2  -1  221.97   11.39
   0   2  -1  236.07   10.46
   0  -2   1  218.01    9.44
   0  -2   1  240.20   11.41
   0   2   0  482.72   16.48
   0  -2   0  447.02   16.32
   0  -2   0  464.98   15.94
   0   2   0  447.77   17.30
   0  -2  -1 2503.35   69.28
   0   2   1 2553.06   70.09
   0   2   2  647.27   24.84
   0  -2  -2  639.64   24.52
   0   2   3    3.55    2.14
   0  -2  -3    5.73    2.37
   0  -2  -4    1.00    1.38
   0   2   4    2.96    1.92
   0  -2  -5  639.29   32.78
   0   2   5  763.41   29.36
   0  -2  -6   36.57    7.61
   0   2   6   30.30    4.89
   0   2   6   23.69    3.78
   0   2   7 1181.47   42.87
   0   2   7 1229.71   42.86
   0  -2  -8 2258.64   84.77
   0   2   8 2455.84   79.01
   0   2   8 2426.17   75.37
   0   2   9  146.38   13.00
   0   2   9  156.29   15.75
   0  -2  -9  152.61   17.50
   0  -2 -10  326.17   26.48
   0   2  10  343.55   25.73
   0   2  10  328.20   20.47
   0   2  11   54.24   10.66
   0   2  11   68.79    9.00
   0  -2 -11   72.61   12.52
   0   2  12    5.72    3.26
   0  -2 -12    8.73    4.64
   0   2  12    8.31    5.65
   0   2  13  278.53   26.42
   0   2  13  260.93   18.11
   0   2  14  179.37   22.08
   0   2  14  190.08   14.98
   0   2  15  557.41   41.19
   0   2  16   10.17    6.25
   0   2  17   71.85   14.62
   0  -3  14    7.22    6.75
   0  -3  13   17.39    8.01
   0  -3  12  333.83   32.24
   0  -3  11    0.43    4.13
   0  -3  10   -0.61    5.16
   0   3 -10    6.02    2.77
   0   3  -9  186.53   14.32
   0   3  -9  174.84   12.90
   0  -3   9  142.32   18.81
   0   3  -8  265.44   15.36
   0   3  -8  267.84   16.72
   0   3  -7    9.16    2.41
   0  -3   7    2.41    2.87
   0   3  -7   10.39    3.16
   0   3  -6  193.34   18.94
   0   3  -6  185.45   11.38
   0   3  -6  179.99   12.27
   0   3  -5 3547.01   95.43
   0  -3   5 3341.31   91.51
   0  -3   5 3090.07  105.81
   0   3  -5 3778.86  111.09
   0   3  -4   16.59    5.02
   0  -3   4   15.02    4.86
   0   3  -4   18.41    3.41
   0  -3   4   17.25    2.85
   0   3  -3   10.19    3.87
   0  -3   3    7.96    3.10
   0   3  -3    9.47    2.33
   0  -3   3    4.57    1.48
   0   3  -2  261.78   15.79
   0  -3   2  252.04   11.56
   0   3  -2  259.24   13.59
   0  -3   2  269.46   15.28
   0  -3   1   23.34    3.24
   0  -3   1   22.69    3.71
   0   3  -1   20.69    3.41
   0   3  -1   26.29    4.09
   0  -3   0 1124.54   35.53
   0  -3   0 1154.75   36.15
   0   3   0 1178.28   36.81
   0   3   0 1146.06   38.69
   0   3   1  585.08   24.44
   0  -3  -1  587.48   22.91
   0   3   1  564.95   20.53
   0  -3  -2 9637.02  250.98
   0   3   2 9999.00  252.45
   0   3   3  160.53   12.98
   0  -3  -3  173.41   13.00
   0  -3  -4  537.82   27.38
   0   3   4  588.30   27.79
   0   3   5   29.47    6.09
   0  -3  -5   38.21    7.33
   0   3   6   -0.34    1.70
   0  -3  -6   -3.13    3.18
   0  -3  -7 1195.44   55.55
   0   3   7 1468.29   51.40
   0  -3  -8   32.74    8.04
   0   3   8   35.31    6.58
   0   3   8   29.22    5.41
   0   3   9 3103.71   93.60
   0   3   9 3005.73   91.40
   0   3  10  159.84   14.77
   0  -3 -10  115.72   15.63
   0   3  10  137.16   14.40
   0  -3 -11   27.24    7.78
   0   3  11   30.06    7.66
   0   3  11   31.68    6.95
   0   3  12    4.44    2.16
   0   3  12    6.15    3.85
   0   3  13    0.27    2.45
   0   3  13    6.21    5.93
   0   3  14  122.08   17.80
   0   3  14  117.19   13.43
   0   3  15    2.85    3.59
   0   3  16  104.52   17.17
   0  -4  13   67.81   15.14
   0  -4  12    4.35    5.10
   0  -4  11  879.44   55.46
   0   4 -10  125.27   13.14
   0  -4  10   99.13   17.01
   0   4  -9  129.62   13.15
   0  -4   9   81.07   14.65
   0   4  -8   52.01    8.28
   0  -4   8   36.46    9.86
   0   4  -8   53.39    6.89
   0  -4   7   71.66   12.52
   0   4  -7   85.41   10.08
   0   4  -7   87.29    8.48
   0  -4   6 1398.74   62.47
   0   4  -6 1647.70   55.95
   0  -4   5  141.61    9.43
   0  -4   5  153.66   16.15
   0   4  -5  165.67   13.23
   0  -4   4 4662.04  124.98
   0   4  -4 4838.20  132.80
   0  -4   4 4567.95  137.32
   0  -4   3 1012.07   33.71
   0  -4   3 1013.43   40.51
   0   4  -3 1057.54   39.46
   0   4  -3 1060.05   43.45
   0  -4   2   97.45    7.45
   0   4  -2  102.47    9.76
   0   4  -2   98.88   10.22
   0  -4   2   95.90    9.39
   0   4  -1   93.17    9.07
   0  -4   1  100.79    7.91
   0  -4   1  100.37    9.03
   0   4  -1  114.32   10.43
   0   4   0    5.23    2.32
   0   4   0    5.46    2.39
   0  -4   0    6.54    1.86
   0   4   1 2211.99   64.55
   0   4   1 2271.81   70.86
   0  -4  -1 2177.95   66.52
   0  -4  -2  315.96   17.84
   0   4   2  318.75   19.38
   0   4   2  316.97   14.99
   0   4   3 2219.17   71.19
   0  -4  -3 2034.45   68.48
   0  -4  -4  219.18   17.25
   0   4   4  269.36   19.19
   0  -4  -5  138.07   14.36
   0   4   5  136.01   14.01
   0   4   6  876.50   39.10
   0  -4  -6  750.68   39.94
   0  -4  -7    7.28    4.03
   0   4   7   10.07    4.02
   0   4   8  175.07   15.88
   0  -4  -8  182.40   19.89
   0   4   9   54.35    9.13
   0  -4  -9   37.29    9.54
   0   4  10  182.59   15.31
   0   4  10  182.56   17.19
   0   4  11    7.82    2.71
   0   4  11    4.64    3.07
   0   4  12   42.99    9.04
   0   4  12   43.19    8.78
   0   4  13  136.31   15.82
   0   4  13  128.71   17.21
   0   4  14    2.11    3.97
   0   4  14   -6.86    7.60
   0   4  15   45.86   11.05
   0   4  15   45.41    9.09
   0   4  16   13.21    5.79
   0  -5  11  251.86   28.66
   0  -5  10  301.42   31.00
   0  -5   9  102.35   17.15
   0   5  -9  150.75   16.57
   0   5  -8   13.19    5.17
   0  -5   8    9.10    6.46
   0   5  -7  231.45   20.03
   0  -5   7  178.44   20.29
   0  -5   6   -0.55    3.49
   0  -5   6   -0.05    1.55
   0   5  -6    3.51    2.98
   0   5  -5  637.40   33.31
   0  -5   5  572.39   33.13
   0  -5   5  541.04   23.42
   0  -5   4  943.90   42.73
   0  -5   4  959.72   34.34
   0   5  -4 1050.98   44.51
   0   5  -3  196.57   16.56
   0  -5   3  172.27   14.89
   0  -5   3  180.96   11.84
   0  -5   2   47.35    5.61
   0  -5   2   50.97    7.60
   0   5  -2   47.11    7.96
   0   5  -2   50.66    7.94
   0  -5   1    8.81    2.61
   0   5  -1    6.82    3.09
   0  -5   1   11.96    3.75
   0   5  -1   16.03    5.44
   0   5   0 1924.20   63.11
   0   5   0 1984.11   68.02
   0  -5   0 1892.45   60.29
   0   5   1   32.49    5.42
   0   5   1   20.97    5.64
   0  -5  -1   30.07    5.28
   0   5   2  262.19   19.42
   0   5   2  277.03   15.71
   0  -5  -2  266.24   17.44
   0   5   3  879.57   40.22
   0  -5  -3  827.61   36.40
   0   5   3  828.29   31.34
   0   5   4  178.18   16.60
   0  -5  -4  178.15   15.77
   0  -5  -5  152.86   15.69
   0   5   5  172.61   16.74
   0   5   6    2.95    3.76
   0  -5  -6    0.48    1.59
   0   5   6   -2.28    3.06
   0   5   7  373.90   26.13
   0   5   8    4.40    2.60
   0   5   9  418.66   28.20
   0   5  10  522.48   33.16
   0   5  11   51.00    9.81
   0   5  11   38.77    7.40
   0   5  12   55.94    9.41
   0   5  12   54.75   10.47
   0   5  13   12.23    4.68
   0   5  13   15.71    5.91
   0   5  14   32.15    8.50
   0   5  14   33.58    8.60
   0   5  15  102.97   15.04
   0   5  15   94.20   15.90
   0  -6  10  274.27   29.45
   0  -6   9   -7.37    5.12
   0   6  -8   94.94   14.59
   0  -6   8   58.23   12.57
   0  -6   7  110.57   15.93
   0   6  -7  160.09   19.40
   0  -6   6  207.50   21.22
   0  -6   6  207.70   14.13
   0  -6   5   -0.84    2.70
   0  -6   5   -2.22    1.54
   0  -6   4   84.38    8.61
   0   6  -4   97.89   14.12
   0  -6   4   78.25   11.64
   0  -6   3 1279.60   44.85
   0  -6   3 1207.24   50.34
   0  -6   2    9.14    2.98
   0   6  -2   13.17    6.63
   0  -6   2   13.36    4.37
   0   6  -1  120.55   14.76
   0  -6   1  120.53   10.79
   0   6   0  146.07   16.06
   0  -6   0  154.27   12.52
   0  -6  -1   34.46    6.23
   0   6   1   33.97    6.48
   0   6   1   31.30    7.32
   0   6   2  482.64   30.36
   0  -6  -2  455.18   25.28
   0   6   2  468.68   24.04
   0   6   3  338.24   25.29
   0   6   3  371.20   20.38
   0   6   4 3051.91  104.78
   0   6   4 3080.15   90.57
   0   6   5   48.24    9.60
   0   6   6  114.77   15.62
   0   6   7   32.86    8.11
   0   6   8   18.71    6.25
   0   6   9  803.24   42.48
   0   6  10   18.76    6.43
   0   6  11 1331.31   62.68
   0   6  12   93.33   14.63
   0   6  12   73.20   10.91
   0   6  13   28.79    7.76
   0   6  13   51.48    9.79
   0   6  14   94.21   14.06
   0   6  14   94.63   15.13
   0   6  15    3.84    3.04
   0  -7   8   13.51    7.51
   0  -7   7   11.14    6.67
   0   7  -7   18.14    8.25
   0   7  -6   48.67   12.25
   0  -7   6   46.97   10.97
   0   7  -5   40.11   12.04
   0  -7   5   43.84    9.76
   0  -7   4 1036.66   50.52
   0   7  -4 1431.78   68.31
   0   7  -3   60.87   13.00
   0   7  -2 2489.14   97.92
   0   7  -1  509.92   36.24
   0   7   0   94.44   15.28
   0   7   1   13.71    5.70
   0   7   2   20.34    6.22
   0   7   3 1963.66   80.20
   0   7   4  159.27   19.00
   0   7   5 1298.26   61.90
   0   7   6  147.14   18.26
   0   7   7   15.71    6.81
   0   7   8    3.15    3.01
   0   7   9    7.16    5.41
   0   7  10  250.56   24.33
   0   7  11    6.80    4.34
   0   7  12   37.02   10.12
   0   7  13    3.91    3.29
   0   7  13    0.49    3.61
   0   7  14    9.15    4.67
   0   7  15    8.36    6.00
   0  -8   6   20.36    7.49
   0   8  -6   30.18   11.97
   0   8  -5   10.41    8.02
   0   8  -4   10.80    6.52
   0   8  -3  802.72   55.70
   0   8  -2  595.84   45.97
   0   8  -1  226.93   26.61
   0   8   0   59.37   13.39
   0   8   1    2.96    3.48
   0   8   2  402.29   34.46
   0   8   3   -0.31    4.90
   0   8   4  144.19   20.11
   0   8   5   84.38   14.86
   0   8   6    8.38    6.47
   0   8   7  120.65   18.09
   0   8   8   -3.79    4.11
   0   8   9  142.87   19.38
   0   8  10    4.95    5.47
   0   8  11   26.07    8.30
   0   8  12   62.37   13.79
   0   8  13    3.77    5.33
   0   8  14    3.83    4.51
   0   8  15   10.50    6.10
   0   9  -4  134.27   25.70
   0   9  -3   11.43    9.67
   0   9  -2   43.89   14.38
   0   9  -1  296.39   34.99
   0   9   0   -0.34    4.98
   0   9   1  129.52   21.94
   0   9   2   31.51   10.92
   0   9   3    9.47    3.92
   0   9   4  116.15   19.50
   0   9   5  107.37   18.79
   0   9   6  671.41   48.36
   0   9   7   -2.13    4.32
   0   9   8   28.52   10.69
   0   9   9   33.42   11.32
   0   9  10   30.31    9.17
   0   9  11  277.28   29.80
   0   9  12   25.10    8.52
   0  10  -3   23.13   13.27
   0  10  -2  633.75   61.55
   0  10  -1    3.87    7.81
   0  10   0  809.46   65.59
   0  10   1   81.79   19.18
   0  10   2   35.50   11.83
   0  10   3   59.28   15.68
   0  10   4   11.27    8.22
   0  10   5  931.38   62.75
   0  10   6   31.70   11.07
   0  10   7  397.31   38.85
   0  10   8  120.14   20.36
   0  10   9   11.57    6.88
   0  11  -1  584.35   63.78
   0  11   0  263.90   41.08
   0  11   1  145.73   29.07
   0  11   2   -3.42    5.41
  -1  10   7   18.25    8.79
  -1  10   6   73.43   16.29
  -1  10   5    1.36    6.05
  -1  10   4  264.71   31.60
  -1  10   3   95.89   18.62
  -1  10   2  244.69   31.55
  -1  10   1  169.52   26.09
  -1  10   0    8.92    7.23
  -1  10  -1  126.51   23.94
  -1  10  -2   13.75    8.77
  -1  10  -3   81.51   20.14
  -1  10  -4   24.05   12.40
  -1   9  12   30.94   10.04
  -1   9  11   19.32    8.06
  -1   9  10  165.84   23.03
  -1   9   9  305.29   31.19
  -1   9   8   55.48   13.45
  -1   9   7  103.02   17.75
  -1   9   6    5.79    3.92
  -1   9   5   -1.92    4.30
  -1   9   4   27.24    8.49
  -1   9   3   45.20   11.54
  -1   9   2   39.50   11.38
  -1   9   1    4.39    4.28
  -1   9   0    2.23    4.44
  -1   9  -1   -8.41    6.18
  -1   9  -2   10.32    8.58
  -1   9  -3   10.62    8.77
  -1   9  -4    3.06    6.26
  -1   9  -5    1.14    5.45
  -1   8  15  160.92   22.04
  -1   8  14    4.67    5.43
  -1   8  13    5.78    5.50
  -1   8  12    8.38    5.31
  -1   8  11   29.97    8.95
  -1   8  10    9.41    4.76
  -1   8   9    4.79    3.22
  -1   8   8   62.27   12.30
  -1   8   7  -11.21    7.27
  -1   8   6   34.94    9.68
  -1   8   5   46.79   10.09
  -1   8   4   27.98    8.59
  -1   8   3    0.06    3.80
  -1   8   2    4.72    5.56
  -1   8   1  105.80   16.40
  -1   8   0    6.80    5.80
  -1   8  -1   17.04    7.31
  -1   8  -2   15.63    7.26
  -1   8  -3   12.18    7.33
  -1   8  -4   64.89   14.88
  -1   8  -5   12.63    7.49
  -1   8  -6   83.58   18.34
  -1   7  15    0.80    2.94
  -1   7  14   39.85    9.27
  -1   7  14   21.59    8.36
  -1   7  13   -0.42    4.18
  -1   7  12   -4.40    5.14
  -1   7  11   70.08   12.94
  -1   7  10    5.91    3.76
  -1   7   9   36.04    9.15
  -1   7   8   24.97    6.23
  -1   7   7  228.31   22.87
  -1   7   6   51.31   10.40
  -1   7   5   11.54    6.17
  -1   7   4   59.04   10.94
  -1   7   3    5.33    4.11
  -1   7   2  552.01   34.68
  -1   7   1  136.59   16.35
  -1   7   0  301.73   25.23
  -1   7  -1  386.58   29.24
  -1   7  -2   24.91    7.78
  -1   7  -3  475.08   34.79
  -1   7  -4   31.48    9.01
  -1   7  -5  153.66   20.32
  -1   7  -6   72.44   14.14
  -1   7  -7   32.84    9.10
   1  -7   7   43.37   11.40
   1  -7   8  162.21   21.94
  -1   6  15  118.43   17.64
  -1   6  15  123.65   17.31
  -1   6  14  191.36   20.95
  -1   6  14  172.68   19.63
  -1   6  13  115.95   16.10
  -1   6  13  125.16   15.72
  -1   6  12   86.25   14.18
  -1   6  11   14.92    5.94
  -1   6  10   74.63   12.49
  -1   6   9  132.71   16.25
  -1   6   8  747.91   42.41
  -1   6   7  836.09   44.12
  -1   6   6  170.42   17.58
  -1   6   5  450.83   29.20
  -1   6   4    0.33    2.62
  -1   6   3  245.85   20.08
  -1   6   2  128.91   14.06
  -1   6   1  215.83   18.42
  -1   6   0  242.98   19.86
  -1   6  -1   36.24    7.98
  -1   6  -2   81.29   11.52
  -1   6  -3    7.01    4.96
  -1   6  -4   27.72    6.72
  -1   6  -5    4.52    2.57
   1  -6   5    6.46    4.55
   1  -6   6    5.75    5.74
  -1   6  -6    3.60    4.31
  -1   6  -7    9.32    5.82
   1  -6   7   29.46    9.15
  -1   6  -8    4.10    3.80
   1  -6   8    6.61    5.35
   1  -6   9   22.73    8.65
   1  -6  10   10.44    8.29
  -1   5  16   25.06    9.98
  -1   5  15   92.70   16.49
  -1   5  14   77.92   13.84
  -1   5  14   95.56   14.04
  -1   5  13  423.21   30.57
  -1   5  13  501.49   32.50
  -1   5  12   -2.30    2.96
  -1   5  12    2.12    3.02
  -1   5  11   15.93    4.74
  -1   5  10   14.94    5.07
  -1   5   9    4.74    3.29
  -1   5   8   64.55   10.22
  -1   5   8   44.09    9.01
  -1   5   7    5.63    3.85
  -1   5   6  193.42   17.59
   1  -5  -5    8.75    4.15
  -1   5   5    2.82    2.26
  -1   5   4  110.98   12.32
   1  -5  -4  135.76   13.31
   1  -5  -3   78.83    9.50
  -1   5   3   66.07    8.94
   1  -5  -2   59.28    7.84
  -1   5   2   59.02    8.45
  -1   5   2   72.96    7.66
  -1   5   1    8.17    2.74
  -1   5   1    5.98    1.92
   1  -5  -1   10.84    3.25
  -1   5   0   -0.67    2.12
   1  -5   0    1.39    1.65
  -1   5   0    1.59    1.78
  -1   5  -1    9.57    3.56
  -1   5  -1    5.59    2.54
   1  -5   1    4.32    1.91
  -1   5  -2    2.07    1.87
   1  -5   2    6.55    2.36
   1  -5   3   13.42    3.17
  -1   5  -3    7.62    3.96
   1  -5   3   18.60    5.10
  -1   5  -4   30.82    6.71
   1  -5   4   48.07    9.67
   1  -5   4   29.12    4.94
   1  -5   5    2.97    1.88
   1  -5   5    6.13    4.57
  -1   5  -5    5.41    3.25
  -1   5  -6    5.14    3.81
   1  -5   6    9.60    4.87
   1  -5   6    4.86    1.91
   1  -5   7   24.93    7.59
  -1   5  -7   21.87    6.29
   1  -5   8    5.21    5.20
  -1   5  -8    8.87    4.90
  -1   5  -9   38.79    9.15
   1  -5   9   19.78    8.09
   1  -5  10  198.74   24.42
   1  -5  11  221.41   26.74
  -1   4  17   13.87    7.76
  -1   4  16   36.03   10.83
  -1   4  15   -6.31    6.21
  -1   4  14   38.05    9.52
  -1   4  14   39.00    8.18
  -1   4  13   26.38    7.46
  -1   4  13   41.99    8.75
  -1   4  12   49.12    8.76
  -1   4  12   48.53    9.41
  -1   4  11    5.38    3.63
  -1   4  11    1.63    2.43
  -1   4  10   63.82    9.79
  -1   4  10   69.25    9.86
  -1   4   9  203.73   16.79
   1  -4  -9  215.97   22.34
  -1   4   8    3.03    2.88
   1  -4  -8    4.32    3.00
   1  -4  -7   88.70   12.17
  -1   4   7   79.02   10.78
  -1   4   6   19.37    5.10
   1  -4  -6   23.49    5.35
  -1   4   5  113.85   11.59
   1  -4  -5  147.99   14.19
   1  -4  -4   56.95    7.94
  -1   4   4   49.77    7.24
   1  -4  -3   12.89    3.81
  -1   4   3   15.52    4.27
  -1   4   2  152.39   12.15
   1  -4  -2  188.88   13.23
   1  -4  -1   -0.19    1.50
  -1   4   1    2.97    1.72
  -1   4   0  555.31   25.78
  -1   4   0  616.38   24.81
   1  -4   0  598.79   24.89
  -1   4  -1   98.65    9.21
   1  -4   1  104.14    8.55
  -1   4  -1   96.76    9.33
  -1   4  -2  288.06   17.52
   1  -4   2  293.18   15.30
  -1   4  -2  261.33   16.58
   1  -4   3  707.60   31.13
  -1   4  -3  690.60   30.72
  -1   4  -3  655.82   31.49
   1  -4   3  756.63   27.95
  -1   4  -4  108.16   12.10
  -1   4  -4  118.13   11.39
   1  -4   4  137.54   10.20
   1  -4   4  137.94   13.05
   1  -4   5 1147.24   48.22
  -1   4  -5 1082.25   44.44
   1  -4   5 1226.12   40.69
   1  -4   6   54.08    9.66
  -1   4  -6   41.40    7.37
  -1   4  -7  193.63   14.76
  -1   4  -7  170.36   15.71
   1  -4   7  188.01   19.29
  -1   4  -8  107.77   12.66
  -1   4  -8   95.25   10.39
   1  -4   8  110.97   15.81
  -1   4  -9   54.13    9.31
   1  -4   9   52.01   11.61
  -1   4 -10  379.93   26.27
   1  -4  10  415.06   34.64
   1  -4  11   50.18   13.11
   1  -4  12  397.30   36.53
   1  -4  13   37.77   12.10
  -1   3  17    0.87    3.66
  -1   3  16   -8.13    6.92
  -1   3  15   20.77    8.13
  -1   3  14   -2.96    5.01
  -1   3  13  260.72   26.34
  -1   3  13  321.21   21.73
  -1   3  12  222.22   18.00
  -1   3  12  219.33   22.40
  -1   3  11  114.00   12.27
  -1   3  11  113.63   14.56
   1  -3 -11  127.08   16.76
  -1   3  10   40.15    7.63
  -1   3  10   45.59    7.39
   1  -3 -10   49.13   10.01
  -1   3   9   17.36    5.17
  -1   3   9   17.74    4.52
   1  -3  -9   14.78    5.89
  -1   3   8  158.90   13.15
   1  -3  -8  203.70   19.56
  -1   3   7  170.01   13.96
   1  -3  -7  197.58   18.36
  -1   3   6 1542.69   55.88
   1  -3  -6 1704.63   62.04
  -1   3   5 1328.81   48.80
   1  -3  -5 1479.71   52.78
  -1   3   4  371.48   19.48
   1  -3  -4  395.44   21.36
   1  -3  -3 1368.40   44.82
  -1   3   3 1208.41   42.45
  -1   3   2    5.56    1.79
   1  -3  -2    4.06    1.72
   1  -3  -1 1230.52   38.98
  -1   3   1 1134.32   38.80
   1  -3   0  489.46   19.68
  -1   3   0  473.65   19.01
  -1   3   0  440.54   19.78
  -1   3  -1  550.03   21.84
  -1   3  -1  521.58   22.15
   1  -3   1  538.34   20.97
  -1   3  -2  655.31   26.32
  -1   3  -2  676.12   27.34
   1  -3   2  725.95   27.05
   1  -3   2  686.25   25.05
   1  -3   3  124.06   10.57
   1  -3   3  127.78    9.04
  -1   3  -3  120.98   10.58
  -1   3  -3  129.54   10.11
   1  -3   4  845.36   35.20
  -1   3  -4  838.22   32.82
   1  -3   4  878.67   30.47
  -1   3  -4  819.23   35.90
   1  -3   5   14.58    3.06
  -1   3  -5   11.88    3.35
   1  -3   5    6.20    3.01
  -1   3  -5   12.20    4.26
  -1   3  -6  334.80   24.14
   1  -3   6  387.96   25.41
  -1   3  -6  354.19   19.03
  -1   3  -6  328.19   19.41
   1  -3   7   34.09    8.80
  -1   3  -7   21.42    4.49
  -1   3  -7   24.15    5.07
  -1   3  -8   14.27    4.08
  -1   3  -8   17.92    4.82
   1  -3   8   19.77    7.56
  -1   3  -9   31.22    6.49
   1  -3   9   39.19   10.01
  -1   3  -9   23.02    5.22
   1  -3  10   -1.23    3.40
  -1   3 -10   -2.77    1.83
  -1   3 -10    1.33    2.14
   1  -3  11  143.62   20.83
  -1   3 -11  141.66   14.34
   1  -3  12    9.74    6.84
   1  -3  13   52.22   13.96
   1  -3  14    2.25    5.78
  -1   2  17   15.16    7.90
  -1   2  16   21.70    8.83
  -1   2  15   21.52    8.53
  -1   2  14  100.51   16.97
  -1   2  13  250.12   25.95
  -1   2  13  272.70   17.34
  -1   2  12  209.08   23.05
   1  -2 -12  222.01   20.80
  -1   2  12  234.22   16.24
  -1   2  11 1105.84   42.09
   1  -2 -11 1109.93   52.29
  -1   2  11 1003.96   52.63
  -1   2  10    7.55    3.01
  -1   2  10    0.21    3.52
   1  -2 -10    2.26    2.82
  -1   2   9  133.48   11.27
   1  -2  -9  132.92   15.44
  -1   2   9  127.67   13.83
  -1   2   8    0.72    2.05
  -1   2   8    3.13    2.25
   1  -2  -8    0.08    2.29
  -1   2   7  222.07   14.07
  -1   2   7  255.68   16.50
   1  -2  -7  218.61   18.65
  -1   2   6  296.71   16.55
   1  -2  -6  308.77   20.48
   1  -2  -5   51.66    7.28
  -1   2   5   47.40    6.16
   1  -2  -4  531.22   23.65
  -1   2   4  495.60   21.35
  -1   2   3   11.43    2.91
   1  -2  -3   15.37    3.43
   1  -2  -2   10.70    2.32
  -1   2   2   10.50    2.42
   1  -2  -1    1.46    1.06
  -1   2   1    1.93    1.42
   1  -2   0    3.80    1.41
  -1   2   0    2.52    1.60
  -1   2  -1   35.54    3.91
   1  -2   1   35.18    3.99
  -1   2  -1   39.78    4.41
   1  -2   2   10.27    2.84
   1  -2   2   12.33    2.38
  -1   2  -2   10.51    2.59
  -1   2  -2   12.41    2.49
   1  -2   3  145.15   10.28
  -1   2  -3  141.19   10.55
   1  -2   3  148.91    8.94
  -1   2  -3  152.30    9.96
   1  -2   4    3.29    3.12
  -1   2  -4    1.97    1.54
  -1   2  -4    0.73    1.76
  -1   2  -5   55.85    8.24
  -1   2  -5   56.60    6.51
  -1   2  -5   50.72    6.35
   1  -2   5   52.00    8.23
  -1   2  -6   57.62    7.25
   1  -2   6   55.44    9.00
  -1   2  -6   45.38    7.99
  -1   2  -6   56.98    6.68
   1  -2   7    0.06    2.76
  -1   2  -7    3.36    2.03
  -1   2  -7    4.30    3.16
  -1   2  -7    2.18    2.25
   1  -2   8   97.93   14.34
  -1   2  -8   88.85    9.69
  -1   2  -8   92.57   10.41
   1  -2   9   85.59   14.03
  -1   2  -9   69.90    9.05
  -1   2  -9   68.64    9.35
   1  -2  10    5.37    5.37
  -1   2 -10    8.93    3.88
  -1   2 -10    4.72    2.29
   1  -2  11   21.26    8.53
  -1   2 -11   13.16    4.62
  -1   2 -12  318.76   22.56
   1  -2  12  348.72   32.52
   1  -2  13  184.94   24.39
   1  -2  14    1.58    3.80
   1  -2  15    5.28    7.16
  -1   1  16   -3.81    4.11
  -1   1  15    3.24    4.70
  -1   1  14   26.50    9.25
  -1   1  13   12.72    6.65
  -1   1  12  188.21   11.85
   1  -1 -12  220.26   19.06
  -1   1  12  190.21   22.00
  -1   1  11   39.71   10.00
  -1   1  11   46.31    5.59
   1  -1 -11   42.11    8.17
  -1   1  10   57.15   11.26
  -1   1  10   72.62    7.39
   1  -1 -10   53.54    9.11
   1  -1  -9    7.34    3.50
  -1   1   9    9.74    2.56
  -1   1   9    4.05    2.50
  -1   1   8  128.53    9.60
   1  -1  -8  115.86   12.83
  -1   1   8  129.54   14.51
  -1   1   7  163.78   14.72
   1  -1  -7  166.62   14.80
  -1   1   7  159.95   10.50
  -1   1   6    8.82    3.24
  -1   1   6   10.80    3.09
   1  -1  -6    9.40    3.42
  -1   1   5   76.64    6.32
   1  -1  -5   88.72    8.54
  -1   1   5   85.73    8.31
  -1   1   4    3.11    1.59
   1  -1  -4    1.04    1.06
  -1   1   3   12.01    2.23
   1  -1  -3    9.40    1.91
   1  -1  -2  178.43    8.68
  -1   1   2  183.88    8.28
  -1   1   1   68.82    4.50
   1  -1  -1   73.29    4.79
  -1   1   0  388.00   13.91
   1  -1   0  413.33   14.11
   1  -1   1   44.90    3.84
  -1   1  -1   44.19    3.90
  -1   1  -1   42.69    3.42
  -1   1  -2   88.41    5.98
   1  -1   2   81.06    5.78
   1  -1   2   85.20    6.06
  -1   1  -2   87.76    6.32
  -1   1  -3   29.45    4.09
  -1   1  -3   28.41    3.78
  -1   1  -3   27.30    4.00
   1  -1   3   29.15    4.34
  -1   1  -4  179.58   10.79
  -1   1  -4  167.94   12.31
   1  -1   4  183.17   12.62
  -1   1  -4  177.08   11.25
  -1   1  -5  711.47   32.20
  -1   1  -5  745.27   28.85
   1  -1   5  738.60   32.56
  -1   1  -5  745.45   28.04
   1  -1   6  392.99   24.20
  -1   1  -6  386.96   19.56
  -1   1  -6  364.98   23.40
  -1   1  -6  354.67   19.16
   1  -1   7 1465.43   57.44
  -1   1  -7 1294.44   46.80
  -1   1  -7 1314.00   46.90
  -1   1  -7 1292.19   54.44
  -1   1  -8   16.31    4.14
   1  -1   8   20.85    6.98
  -1   1  -8   13.82    4.37
  -1   1  -8   13.04    5.54
  -1   1  -9   97.62   14.21
   1  -1   9   91.25   13.80
  -1   1  -9   92.37   10.51
  -1   1  -9   98.10   10.70
  -1   1 -10   20.94    5.17
   1  -1  10   27.03    7.19
  -1   1 -10   27.01    6.09
  -1   1 -11   65.73    9.54
  -1   1 -11   79.51   10.28
   1  -1  11   83.38   14.68
   1  -1  12  679.88   44.99
  -1   1 -12  608.03   32.39
   1  -1  13  132.89   19.71
  -1   1 -13  131.48   13.92
   1  -1  14  464.08   37.97
   1  -1  15   34.75   10.92
   1  -1  16   12.73    5.83
  -1   0  16   17.12    8.59
  -1   0  15   20.64    8.77
  -1   0  14    2.65    3.46
  -1   0  13   21.39    8.29
  -1   0  12    1.33    3.21
  -1   0  11  328.48   29.28
   1   0 -11  366.94   22.77
   1   0 -10  122.91   12.45
  -1   0  10  111.59   16.15
  -1   0   9   27.11    7.38
   1   0  -9   39.75    6.97
  -1   0   9   34.86    3.77
  -1   0   8    9.55    1.98
   1   0  -8    2.24    2.74
  -1   0   8    5.03    3.50
   1   0  -7   33.74    6.66
  -1   0   7   32.11    3.38
  -1   0   7   29.34    7.58
   1   0  -7   20.57    4.46
  -1   0   6  326.46   12.46
  -1   0   6  308.42   21.93
   1   0  -6  280.36   16.45
   1   0  -6  306.64   19.78
  -1   0   5   71.33    9.30
   1   0  -5   72.01    8.34
   1   0  -5   69.93    6.66
  -1   0   5   77.80    4.81
   1   0  -4 1231.57   36.52
  -1   0   4 1209.58   33.44
  -1   0   3  995.83   28.84
  -1   0   3 1094.47   35.35
   1   0  -3 1032.82   28.46
  -1   0   2  615.26   20.58
  -1   0   2  561.22   15.65
   1   0  -2  543.53   15.73
   1   0  -1 1432.19   37.31
  -1   0   1 1427.37   36.93
  -1   0   0    4.51    0.99
  -1   0   0    3.72    1.01
   1   0   1 1682.25   46.21
  -1   0  -1 1706.91   46.58
  -1   0  -2  704.19   21.44
  -1   0  -2  697.46   23.84
   1   0   2  729.70   23.73
   1   0   2  732.88   21.15
   1   0   3  476.08   18.09
  -1   0  -3  480.25   18.72
  -1   0  -3  476.86   19.32
   1   0   3  483.12   18.67
   1   0   4  560.58   23.62
  -1   0  -4  539.97   22.66
   1   0   4  580.51   22.06
  -1   0  -4  537.01   23.69
   1   0   5   59.94    7.58
   1   0   5   74.42    6.98
  -1   0  -5   65.16    7.97
  -1   0  -5   67.10    7.19
  -1   0  -6 1999.41   72.15
   1   0   6 2415.64   76.30
   1   0   6 2327.60   66.32
  -1   0  -6 2130.53   68.65
  -1   0  -7   51.87    7.45
   1   0   7   55.90    9.15
   1   0   7   59.98    6.86
  -1   0  -7   49.02    8.28
  -1   0  -8  702.70   36.12
  -1   0  -8  691.81   32.67
   1   0   8  760.69   30.25
   1   0   9   59.29    7.30
  -1   0  -9   51.88    9.02
   1   0   9   62.00   11.06
  -1   0  -9   46.75    7.56
  -1   0 -10   81.25   10.51
  -1   0 -10   80.35   11.50
   1   0  10  111.88   15.81
   1   0  11   15.77    5.18
  -1   0 -11    6.89    3.23
   1   0  12    4.02    5.32
  -1   0 -12    5.65    3.64
  -1   0 -12    0.25    2.01
   1   0  13  400.84   33.82
  -1   0 -13  352.48   24.04
   1   0  14    9.87    6.67
   1   0  15   40.18   11.45
   1   0  16    5.83    6.24
  -1  -1  15   16.71    6.75
  -1  -1  14    2.69    3.55
  -1  -1  13   23.35    9.16
  -1  -1  12  212.66   24.68
  -1  -1  11  356.17   31.15
   1   1 -11  390.02   20.55
   1   1 -11  356.34   17.36
  -1  -1  10  247.34   24.68
   1   1 -10  245.94   15.82
   1   1 -10  223.28   12.69
   1   1  -9 1415.27   44.78
   1   1  -9 1597.90   51.31
  -1  -1   9 1484.96   66.84
  -1  -1   8    3.98    2.99
   1   1  -8    5.26    1.81
   1   1  -8    8.73    3.99
   1   1  -8    3.63    1.44
   1   1  -8    9.37    3.19
  -1  -1   7  547.85   33.56
   1   1  -7  456.92   17.32
   1   1  -7  475.33   29.91
   1   1  -7  512.54   18.38
  -1  -1   6  100.26   13.76
   1   1  -6   94.10   12.35
   1   1  -6   90.10    5.81
   1   1  -6   81.29    5.09
  -1  -1   5  900.78   41.80
   1   1  -5  858.93   40.52
   1   1  -5  872.74   24.38
   1   1  -4 1039.83   43.59
  -1  -1   4 1035.35   44.18
  -1  -1   3  217.09   15.84
   1   1  -3  203.61   15.38
  -1  -1   2  990.56   36.76
   1   1  -2  947.15   36.96
  -1  -1   1   42.01    3.19
   1   1  -1   37.04    3.46
  -1  -1   1   36.90    4.79
   1   1  -1   38.14    5.08
   1   1   0 1020.73   32.79
  -1  -1   0 1095.13   32.08
  -1  -1   0 1103.78   32.25
   1   1   0 1074.10   32.49
  -1  -1  -1  336.87   14.60
   1   1   1  353.43   15.16
  -1  -1  -2  432.89   18.53
   1   1   2  461.04   19.26
  -1  -1  -3   34.68    2.94
  -1  -1  -3   32.78    4.82
   1   1   3   39.10    5.29
   1   1   3   45.36    4.31
   1   1   4   47.53    5.96
   1   1   4   58.09    6.14
  -1  -1  -4   50.14    6.24
  -1  -1  -4   40.07    4.24
  -1  -1  -5   11.01    2.65
  -1  -1  -5   18.22    4.19
   1   1   5   14.08    4.03
   1   1   5   14.62    3.71
   1   1   6    2.60    1.82
  -1  -1  -6    1.93    1.37
   1   1   6    1.61    1.69
  -1  -1  -7  308.23   18.21
   1   1   7  351.24   19.61
  -1  -1  -7  369.51   22.00
   1   1   8   51.23    9.46
   1   1   8   38.23    6.11
  -1  -1  -8   32.30    5.90
  -1  -1  -8   43.73    7.93
  -1  -1  -9    3.03    2.80
   1   1   9   -0.97    1.97
   1   1   9    5.19    3.68
  -1  -1  -9    1.99    2.27
   1   1  10  260.31   17.51
   1   1  10  316.38   25.91
  -1  -1 -10  275.44   20.84
  -1  -1 -11   26.81    6.60
   1   1  11   27.78    5.80
  -1  -1 -12   46.25    8.53
   1   1  12   43.07   10.50
   1   1  12   38.83    6.66
   1   1  13    9.53    2.93
   1   1  13    7.30    3.01
   1   1  14  335.27   30.51
   1   1  15   66.42   13.84
   1   1  16   -0.34    3.96
  -1  -2  14  282.47   30.05
  -1  -2  13   10.65    6.77
  -1  -2  12   -3.49    6.92
  -1  -2  11   74.14   13.94
   1   2 -10  508.81   20.85
  -1  -2  10  474.85   35.87
   1   2 -10  411.25   17.70
   1   2 -10  428.94   17.50
  -1  -2   9    2.74    2.65
   1   2  -9   -0.28    0.91
   1   2  -9    0.16    0.91
   1   2  -8   41.48    4.15
   1   2  -8   43.09    4.56
  -1  -2   8   50.01   11.41
   1   2  -7    2.73    1.10
   1   2  -7    2.01    3.28
  -1  -2   7    7.83    4.29
   1   2  -7    1.56    1.02
   1   2  -6    7.58    1.69
  -1  -2   6    8.22    5.10
   1   2  -6    6.76    1.62
   1   2  -6    3.43    3.41
   1   2  -5   38.78    3.50
   1   2  -5   45.86    3.57
   1   2  -5   37.79    8.37
  -1  -2   5   46.06    8.96
  -1  -2   4   22.12    5.57
   1   2  -4   24.18    2.77
   1   2  -4   18.50    5.43
  -1  -2   3   50.85    7.83
   1   2  -3   50.48    8.30
  -1  -2   3   44.48    2.78
   1   2  -3   49.72    4.43
   1   2  -2   -0.98    1.66
   1   2  -2    1.92    1.20
  -1  -2   2    1.58    0.65
   1   2  -1  114.56    8.79
   1   2  -1  112.87    9.48
  -1  -2   1  114.81    8.53
  -1  -2   1  121.63    6.53
  -1  -2   0   28.69    3.68
  -1  -2   0   26.16    3.18
   1   2   0   28.48    4.28
   1   2   0   22.60    3.59
   1   2   1   22.68    2.52
  -1  -2  -1   27.72    4.27
  -1  -2  -1   26.65    2.31
   1   2   1   27.22    4.60
   1   2   2   35.83    2.46
   1   2   2   35.35    5.53
  -1  -2  -2   35.59    5.31
   1   2   3    1.55    1.83
  -1  -2  -3    3.91    2.02
   1   2   4  247.08   16.00
  -1  -2  -4  270.19   16.98
   1   2   5   26.08    5.29
  -1  -2  -5   18.46    4.05
   1   2   5   16.83    2.89
   1   2   6    0.27    1.81
  -1  -2  -6    3.01    2.34
   1   2   6    4.86    3.05
   1   2   7  635.56   30.12
  -1  -2  -7  641.37   32.41
   1   2   7  610.46   29.98
   1   2   8  329.33   21.09
   1   2   8  379.84   23.83
  -1  -2  -8  371.93   24.44
   1   2   9  807.82   37.26
   1   2   9  928.97   43.44
  -1  -2  -9  892.02   42.55
  -1  -2 -10    6.78    3.88
   1   2  10    9.75    4.56
   1   2  10    4.22    3.51
  -1  -2 -11    2.89    3.12
   1   2  11    3.86    4.45
   1   2  11   -1.94    2.52
  -1  -2 -12   22.68    6.74
   1   2  12   19.74    4.90
   1   2  12   26.20    7.93
   1   2  13   90.14   10.98
   1   2  13   79.85   13.88
   1   2  14  505.17   28.51
   1   2  14  574.83   40.22
   1   2  15   97.56   16.07
   1   2  16  305.32   29.11
  -1  -3  14  -10.08    7.10
  -1  -3  13   21.95    8.20
  -1  -3  12   -8.80    7.15
  -1  -3  11    3.97    3.81
   1   3 -10   -0.75    1.64
  -1  -3  10   -4.54    5.83
   1   3  -9   71.32    7.16
  -1  -3   9   63.04   12.75
   1   3  -9   71.37    6.56
   1   3  -8   50.75    6.18
   1   3  -8   49.93    5.21
  -1  -3   8   50.80   10.64
   1   3  -7    1.41    1.07
   1   3  -7    3.66    1.29
   1   3  -6    7.61    2.59
   1   3  -6    1.66    1.21
   1   3  -5   -2.46    2.09
   1   3  -5   -2.47    3.45
  -1  -3   5    0.83    0.53
  -1  -3   5    0.14    3.79
  -1  -3   4  203.68   17.42
  -1  -3   4  216.45    9.15
   1   3  -4  185.44   18.06
   1   3  -4  196.84   12.64
   1   3  -3   67.60    7.27
  -1  -3   3   59.72    4.22
   1   3  -3   56.96    8.81
  -1  -3   3   66.08    8.87
   1   3  -2  420.03   20.88
   1   3  -2  408.10   23.39
  -1  -3   2  438.37   15.79
  -1  -3   2  466.61   22.66
  -1  -3   1  300.59   15.51
   1   3  -1  257.90   16.20
  -1  -3   1  279.57   12.49
   1   3  -1  274.10   16.79
   1   3   0  185.96   11.77
   1   3   0  199.27   15.07
  -1  -3   0  200.85   11.48
  -1  -3   0  221.21   11.20
  -1  -3  -1 1715.10   46.91
   1   3   1 1653.50   48.81
   1   3   1 1609.13   57.91
  -1  -3  -1 1673.80   52.81
   1   3   2    3.28    1.22
   1   3   2    6.85    2.30
  -1  -3  -2    5.23    2.33
  -1  -3  -3 1832.79   60.94
   1   3   3 1607.98   58.57
   1   3   4  157.54   13.76
  -1  -3  -4  193.84   16.33
  -1  -3  -5  165.56   16.22
   1   3   5  151.22   13.93
  -1  -3  -6  548.43   32.84
   1   3   6  473.14   26.70
   1   3   7  157.94   10.83
  -1  -3  -7  194.55   19.40
   1   3   7  168.67   15.11
   1   3   8 2401.22   75.88
   1   3   8 2356.97   81.89
  -1  -3  -9   27.76    8.52
   1   3   9   15.92    4.32
   1   3   9   19.66    5.82
   1   3  10  591.16   33.29
   1   3  10  662.35   35.36
   1   3  11   47.35    9.26
   1   3  11   51.94    9.21
   1   3  12   49.56    9.75
   1   3  12   49.96    8.88
   1   3  13   51.57    9.08
   1   3  13   65.92   12.49
   1   3  14    1.08    3.63
   1   3  14    4.55    3.82
   1   3  15  438.03   34.06
   1   3  15  381.61   25.94
  -1  -4  12    6.98    6.00
  -1  -4  11    6.22    4.52
  -1  -4  10  244.77   26.64
  -1  -4   9  201.98   23.53
   1   4  -9  239.25   16.88
   1   4  -8  189.78   11.42
  -1  -4   8  200.87   22.46
   1   4  -8  193.21   15.99
  -1  -4   7  697.28   41.38
   1   4  -7  639.90   24.09
  -1  -4   6    2.36    3.97
   1   4  -6   10.19    4.47
  -1  -4   5  767.83   39.77
  -1  -4   5  747.07   24.50
   1   4  -5  669.44   33.28
  -1  -4   4   95.45    6.47
  -1  -4   4   86.69   11.38
   1   4  -4  100.07   11.28
   1   4  -4   86.61   12.51
   1   4  -3  922.69   44.38
  -1  -4   3 1027.18   31.80
   1   4  -3  949.84   41.42
  -1  -4   2  418.05   22.30
   1   4  -2  343.12   22.85
   1   4  -2  363.56   22.91
  -1  -4   2  407.29   16.56
   1   4  -1  109.53   12.17
  -1  -4   1  138.58   10.64
   1   4  -1  105.53   10.82
  -1  -4   1  126.58    8.75
   1   4   0  860.59   34.87
   1   4   0  919.04   41.51
  -1  -4   0  963.78   33.44
  -1  -4   0  957.82   32.73
  -1  -4  -1   33.18    5.18
  -1  -4  -1   44.56    4.75
   1   4   1   48.86    9.04
   1   4   1   37.12    5.06
   1   4   2 1887.17   70.69
   1   4   2 1966.90   57.95
  -1  -4  -2 2077.86   65.27
   1   4   3  418.18   17.21
   1   4   3  425.77   25.86
  -1  -4  -3  462.22   24.94
  -1  -4  -4  393.02   24.83
   1   4   4  359.39   24.10
  -1  -4  -5    7.69    3.56
   1   4   5    2.98    2.82
   1   4   6   28.67    6.97
  -1  -4  -6   33.60    7.74
  -1  -4  -7   26.12    7.41
   1   4   7   11.93    4.62
  -1  -4  -8    9.45    4.56
   1   4   8   10.10    4.37
   1   4   9  427.68   21.89
   1   4   9  415.71   27.32
   1   4  10   37.80    6.57
   1   4  10   41.42    8.51
   1   4  11    7.08    4.36
   1   4  11    2.83    2.13
   1   4  12  183.86   18.88
   1   4  12  184.49   18.92
   1   4  13   13.15    5.18
   1   4  13   21.29    7.15
   1   4  14   16.21    5.21
   1   4  14   15.95    6.73
   1   4  15    2.46    3.72
  -1  -5  11   51.89   13.38
  -1  -5  10   17.13    7.69
  -1  -5   9  107.88   17.55
  -1  -5   8  389.40   32.98
   1   5  -8  478.16   30.88
   1   5  -7   -0.73    3.49
  -1  -5   7   -0.35    4.15
  -1  -5   6   97.38    7.58
  -1  -5   6  103.61   14.97
   1   5  -6   70.53   11.92
   1   5  -5   31.89    8.24
  -1  -5   5   29.53    3.97
  -1  -5   5   32.94    8.23
  -1  -5   4   76.03   11.30
   1   5  -4   70.05   11.89
  -1  -5   4   70.24    6.33
  -1  -5   3   45.03    8.17
   1   5  -3   44.38    9.18
  -1  -5   3   34.72    4.43
   1   5  -2   28.53    6.75
  -1  -5   2   25.17    5.48
   1   5  -2   20.57    6.60
  -1  -5   2   32.24    4.51
   1   5  -1   41.48    9.05
  -1  -5   1   46.17    5.66
  -1  -5   1   35.78    5.91
   1   5  -1   27.21    5.57
   1   5   0    1.64    2.20
   1   5   0    1.49    1.51
  -1  -5   0    4.37    1.98
  -1  -5   0    2.21    1.88
   1   5   1   35.31    7.84
   1   5   1   29.90    5.23
  -1  -5  -1   27.46    5.20
  -1  -5  -2   31.13    5.70
   1   5   2   26.73    6.51
   1   5   2   30.60    5.09
   1   5   3   16.00    5.37
  -1  -5  -3   34.90    6.81
   1   5   3   28.57    4.48
   1   5   4    0.91    1.39
  -1  -5  -4    1.09    1.59
   1   5   4    0.40    2.31
   1   5   5    6.01    3.38
  -1  -5  -5    8.71    3.55
  -1  -5  -6  593.02   35.28
   1   5   6  462.14   29.96
   1   5   7   16.56    5.24
   1   5   8   14.08    6.22
   1   5   9  222.67   20.82
   1   5  10  151.05   12.93
   1   5  10  136.36   16.56
   1   5  11  129.14   13.05
   1   5  11  139.94   16.97
   1   5  12   -2.29    4.54
   1   5  12   -0.02    3.43
   1   5  13   37.99    9.08
   1   5  13   27.72    7.77
   1   5  14   17.04    6.07
   1   5  14   16.43    6.47
   1   5  15   65.45   12.48
  -1  -6  10    8.38    6.58
  -1  -6   9    3.78    6.02
  -1  -6   8    5.79    6.43
  -1  -6   7    8.66    5.85
   1   6  -7   -4.26    4.65
  -1  -6   6    9.26    2.50
   1   6  -6   20.57    9.31
  -1  -6   6   16.60    6.65
  -1  -6   5   10.66    2.86
   1   6  -5   16.80    7.90
  -1  -6   5    6.36    4.41
  -1  -6   4    5.91    1.77
  -1  -6   4    9.25    4.56
   1   6  -4    5.87    5.34
  -1  -6   3   -0.27    1.10
   1   6  -3    0.33    2.99
  -1  -6   3   -0.74    2.58
  -1  -6   2   30.15    6.40
   1   6  -2   32.64    9.41
  -1  -6   2   30.42    4.91
  -1  -6   1    2.24    2.42
   1   6  -1   -0.94    3.00
  -1  -6   1    1.06    1.47
  -1  -6   0    3.73    2.11
   1   6   0    2.28    2.22
   1   6   1   15.02    5.84
   1   6   1   14.35    3.84
  -1  -6  -1   16.01    4.24
   1   6   2   40.41    6.74
  -1  -6  -2   44.49    7.21
   1   6   2   30.16    8.89
  -1  -6  -3 1064.20   44.41
   1   6   3 1000.16   38.96
   1   6   4   14.51    5.81
   1   6   4   12.32    3.37
   1   6   5  551.62   36.34
   1   6   5  589.78   26.09
   1   6   6    4.57    4.55
   1   6   7   50.33   11.72
   1   6   8  261.64   23.87
   1   6   9  199.18   21.18
   1   6  10 1191.59   58.32
   1   6  11    6.78    4.05
   1   6  11    1.33    4.01
   1   6  12  267.06   20.04
   1   6  12  253.64   24.91
   1   6  13   21.73    6.18
   1   6  13   30.62    8.86
   1   6  14    4.00    4.31
   1   6  15   63.92   13.27
   1   6  16    8.04    5.99
  -1  -7   8  103.20   17.10
  -1  -7   7   49.39   11.48
   1   7  -6  105.01   19.76
  -1  -7   6   86.52   14.18
   1   7  -5  179.74   25.92
  -1  -7   5  197.94   20.45
   1   7  -4    4.59    3.98
  -1  -7   4    5.58    5.21
  -1  -7   4    3.08    1.93
   1   7  -3  606.15   47.89
  -1  -7   3  629.94   34.29
  -1  -7   2   33.78    7.40
   1   7  -2   21.15    8.30
   1   7  -1  490.28   40.34
   1   7   0   52.68   12.37
   1   7   1   41.49   10.68
   1   7   2  580.57   41.50
   1   7   3    8.22    3.99
   1   7   3    3.88    3.38
   1   7   4 1438.00   53.15
   1   7   4 1345.70   65.25
   1   7   4 1271.22   66.74
   1   7   5  217.22   23.60
   1   7   5  240.00   17.24
   1   7   6  163.10   14.02
   1   7   6  131.85   17.99
   1   7   7    3.82    4.32
   1   7   7    7.98    3.94
   1   7   8    5.76    4.62
   1   7   9   56.88   12.02
   1   7  10   52.97   11.77
   1   7  11  333.96   30.16
   1   7  12   25.89    6.03
   1   7  12   13.52    6.38
   1   7  13    2.85    3.80
   1   7  14   51.21   12.16
   1   7  15    6.99    4.79
   1   7  16   -1.31    3.34
  -1  -8   7  112.38   17.87
  -1  -8   6  187.53   21.99
  -1  -8   5    7.06    4.84
   1   8  -5   -0.77    5.01
  -1  -8   4  183.84   19.42
   1   8  -4  170.33   28.32
  -1  -8   3   72.41   11.53
   1   8  -3   64.68   16.05
   1   8  -2  133.17   23.21
   1   8  -1  108.21   21.71
   1   8   0    5.72    6.01
   1   8   1   -5.09    6.76
   1   8   2   -2.32    6.51
   1   8   3    6.05    5.49
   1   8   4  103.82   18.87
   1   8   5   54.65   12.47
   1   8   6   -0.72    3.56
   1   8   7    0.77    3.27
   1   8   8  226.82   24.25
   1   8   9    0.07    3.20
   1   8  10    6.17    5.16
   1   8  11   33.40    9.81
   1   8  12   46.85   11.80
   1   8  13    8.23    5.92
   1   8  14   -2.88    4.54
   1   9  -4  -10.72   12.44
   1   9  -3  -11.62   10.92
   1   9  -2   16.90   10.75
   1   9  -1  -13.64   12.00
   1   9   0    2.68    5.79
   1   9   1    6.80    7.02
   1   9   2  101.87   20.89
   1   9   3   -5.36    5.01
   1   9   4   17.53    9.75
   1   9   5  182.20   24.68
   1   9   6    0.97    4.96
   1   9   7   41.65   11.62
   1   9   8   -3.26    5.27
   1   9   9    0.34    4.26
   1   9  10   68.24   14.60
   1   9  11   43.96   11.67
   1   9  12  393.74   36.75
   1  10  -3   66.88   21.96
   1  10  -2   -3.42    7.71
   1  10  -1  255.02   41.34
   1  10   0   19.34   15.05
   1  10   1  106.73   24.08
   1  10   2   25.00   12.19
   1  10   3   25.07   13.03
   1  10   4  291.14   37.00
   1  10   5    0.84    4.63
   1  10   6  685.74   53.45
   1  10   7   62.28   15.75
   1  10   8   75.00   16.14
   1  10   9    6.80    3.92
   1  11   0  181.28   36.01
   1  11   1   77.70   22.66
   1  11   2   17.44   10.45
  -2  10   4   36.62   12.31
  -2  10   3  417.41   38.89
  -2  10   2  271.50   31.31
  -2  10   1   45.55   13.37
  -2  10   0   23.99   10.10
  -2  10  -1   -2.82    6.50
  -2   9  11  101.49   17.94
  -2   9  10  165.26   22.02
  -2   9   9  100.31   17.64
  -2   9   8  300.40   30.47
  -2   9   7    7.86    3.95
  -2   9   6    3.96    4.07
  -2   9   5   -7.73    4.87
  -2   9   4   48.29   11.81
  -2   9   3  261.83   28.05
  -2   9   2   75.43   15.16
  -2   9   1  154.50   22.18
  -2   9   0    1.64    5.13
  -2   9  -1  142.05   22.22
  -2   9  -2    9.38    7.15
  -2   9  -3    2.00    5.61
  -2   9  -4   78.90   18.02
  -2   9  -5   11.94    8.24
  -2   8  14   50.19   11.80
  -2   8  13   -0.99    2.88
  -2   8  12    3.88    3.09
  -2   8  11    9.98    4.60
  -2   8  10    3.82    2.73
  -2   8  10   -7.25    4.66
  -2   8   9   94.50   15.84
  -2   8   8   10.40    5.55
  -2   8   7   -3.05    5.87
  -2   8   6   47.92   10.69
  -2   8   5  159.79   19.36
  -2   8   4  102.17   15.42
  -2   8   3   -5.38    2.87
  -2   8   2  154.58   18.99
  -2   8   1    2.25    4.19
  -2   8   0    5.08    5.41
  -2   8  -1   24.46    7.70
  -2   8  -2   96.69   16.35
  -2   8  -3    1.48    3.94
  -2   8  -4   -1.19    4.88
  -2   8  -5  427.45   39.20
  -2   8  -6   21.05    9.64
  -2   7  15   12.59    6.95
  -2   7  14   15.21    6.50
  -2   7  14   14.22    7.05
  -2   7  13    1.38    3.32
  -2   7  12   42.28   10.15
  -2   7  11   13.73    5.77
  -2   7  10    3.83    4.23
  -2   7  10    6.85    5.00
  -2   7   9   11.74    4.31
  -2   7   8  266.46   25.26
  -2   7   7  101.25   14.93
  -2   7   6   23.94    6.65
  -2   7   5   42.14    9.24
  -2   7   4    1.14    3.16
  -2   7   3   99.87   13.50
  -2   7   2   67.09   11.25
  -2   7   1 1315.65   58.50
  -2   7   0  542.93   35.12
  -2   7  -1  126.32   15.94
  -2   7  -2   -5.62    5.05
  -2   7  -3    6.64    3.49
  -2   7  -4  298.28   27.40
  -2   7  -5  110.15   17.17
  -2   7  -6  579.69   42.23
  -2   7  -7  245.24   27.25
  -2   7  -8   -8.33    7.11
  -2   6  16   11.58    6.98
  -2   6  15   19.44    7.19
  -2   6  14   94.32   14.61
  -2   6  14   98.17   15.32
  -2   6  13  127.63   16.91
  -2   6  13  124.87   15.77
  -2   6  12   38.01    9.12
  -2   6  11    2.98    3.06
  -2   6  10   12.64    5.37
  -2   6   9  251.88   23.25
  -2   6   8  447.76   30.64
  -2   6   7  490.20   31.34
  -2   6   6  836.13   41.47
  -2   6   5   45.69    9.00
  -2   6   4    8.04    4.24
  -2   6   3    6.02    3.44
  -2   6   2  410.63   26.52
  -2   6   1 1048.74   46.68
  -2   6   0  368.73   24.94
  -2   6  -1  402.60   26.68
  -2   6  -2    9.91    5.23
  -2   6  -3  206.17   19.77
  -2   6  -4    0.90    2.88
  -2   6  -5   30.24    8.04
  -2   6  -6  259.11   24.81
  -2   6  -7   48.81   10.41
  -2   6  -8   19.45    7.69
  -2   6  -9   -5.79    4.32
  -2   5  16   -8.21    6.23
  -2   5  15   26.28    9.04
  -2   5  14  320.25   25.06
  -2   5  14  294.26   27.50
  -2   5  13   18.99    6.60
  -2   5  13   12.86    5.79
  -2   5  12  242.20   21.53
  -2   5  12  228.74   20.85
  -2   5  11    5.07    2.97
  -2   5  10    2.73    1.98
  -2   5   9   -2.37    4.33
  -2   5   8   48.12    9.10
  -2   5   7  956.78   43.67
  -2   5   6    2.85    2.67
  -2   5   5   22.91    5.73
  -2   5   4   55.72    8.29
  -2   5   3  398.93   23.76
  -2   5   2  130.05   12.54
  -2   5   1   15.40    4.47
  -2   5   0  665.79   32.17
  -2   5  -1    1.44    2.12
  -2   5  -2   65.21    9.41
  -2   5  -3  154.50   15.10
  -2   5  -4  332.04   23.90
  -2   5  -5   37.25    8.41
  -2   5  -6   41.56    9.23
   2  -5   7  575.96   35.91
  -2   5  -7  541.79   34.82
   2  -5   8    9.43    6.52
  -2   5  -8    6.48    3.71
  -2   5  -9   19.49    7.40
   2  -5   9   14.60    7.85
   2  -5  10    3.86    4.40
  -2   5 -10   -0.63    4.04
   2  -5  11   13.55    8.68
  -2   4  16   -5.15    7.21
  -2   4  15   -7.69    5.49
  -2   4  14   -1.31    3.19
  -2   4  13  115.70   13.61
  -2   4  13  114.07   16.34
  -2   4  12   26.36    7.59
  -2   4  12   24.49    5.97
  -2   4  11    6.38    3.31
  -2   4  11    4.62    3.40
  -2   4  10  240.77   19.01
  -2   4   9   69.21   10.80
  -2   4   9   76.44   10.44
  -2   4   8   28.61    6.44
   2  -4  -8   22.53    6.88
  -2   4   7   14.74    4.66
   2  -4  -7   17.42    6.00
  -2   4   6  650.20   31.43
   2  -4  -6  722.02   36.79
  -2   4   5   93.06   10.03
   2  -4  -5  116.31   12.55
  -2   4   4   21.15    4.68
   2  -4  -4   14.69    3.82
   2  -4  -3  840.54   35.07
  -2   4   3  781.87   32.98
  -2   4   2   53.18    7.09
   2  -4  -2   62.78    7.83
   2  -4  -1  155.65   11.88
  -2   4   1  144.73   11.96
  -2   4   0  100.91    8.99
   2  -4   0   95.57    9.25
  -2   4   0   98.43    9.91
  -2   4  -1 2588.33   81.42
   2  -4   1 2724.10   78.96
  -2   4  -1 2664.52   78.71
  -2   4  -2  691.60   29.65
  -2   4  -2  661.04   30.81
   2  -4   2  701.50   28.77
  -2   4  -3   54.53    7.65
   2  -4   3   59.62    7.30
  -2   4  -3   61.10    8.45
   2  -4   4   33.59    5.40
  -2   4  -4   23.16    5.70
   2  -4   5    9.82    3.03
  -2   4  -5    9.53    4.49
  -2   4  -6  631.18   34.13
   2  -4   6  635.24   34.51
   2  -4   7  196.79   19.05
  -2   4  -7  171.52   17.27
   2  -4   8 1066.04   52.72
  -2   4  -8  985.93   48.15
  -2   4  -9  396.76   28.64
   2  -4   9  345.02   30.27
   2  -4  10    1.87    4.36
  -2   4 -10    0.33    2.79
   2  -4  11   -0.01    3.94
  -2   4 -11    9.49    4.87
   2  -4  12    3.43    4.69
   2  -4  13   81.41   17.39
  -2   3  16   23.11    9.33
  -2   3  15    7.02    5.74
  -2   3  14   -3.06    4.72
  -2   3  13   87.34   10.51
  -2   3  13   80.03   14.55
  -2   3  12  181.50   15.34
  -2   3  12  192.91   20.95
  -2   3  11  160.73   14.22
  -2   3  11  181.15   18.23
  -2   3  10   30.32    5.75
   2  -3 -10   24.29    7.40
  -2   3  10   31.02    7.44
  -2   3   9   45.81    7.25
   2  -3  -9   56.00   10.34
   2  -3  -8   34.38    7.65
  -2   3   8   25.25    5.80
  -2   3   7  643.39   30.51
   2  -3  -7  651.68   34.97
   2  -3  -6 1240.22   48.91
  -2   3   6 1151.01   43.07
  -2   3   5 1448.48   49.69
   2  -3  -5 1558.64   54.59
  -2   3   4 1347.11   46.57
   2  -3  -4 1466.86   49.86
  -2   3   3   50.56    6.44
   2  -3  -3   36.06    5.67
   2  -3  -2   25.24    5.08
  -2   3   2   11.85    3.47
  -2   3   1   18.09    4.33
   2  -3  -1   14.55    3.64
  -2   3   0 1912.00   59.55
   2  -3   0 1971.54   59.05
  -2   3  -1 2897.76   84.14
  -2   3  -1 2857.38   80.95
   2  -3   1 2912.98   82.16
  -2   3  -2 1026.70   36.23
   2  -3   2 1075.17   37.03
  -2   3  -2 1030.02   38.71
  -2   3  -3  812.69   32.10
  -2   3  -3  762.55   32.32
   2  -3   3  831.73   31.40
   2  -3   4   66.76    8.33
  -2   3  -4   65.54    8.06
   2  -3   4   65.03    7.17
  -2   3  -4   57.61    7.84
   2  -3   5  132.62   12.58
  -2   3  -5  133.34   12.86
  -2   3  -5  144.38   13.21
  -2   3  -6    7.87    3.20
   2  -3   6    9.13    4.24
  -2   3  -6    5.96    3.73
   2  -3   7  178.80   17.33
  -2   3  -7  199.31   16.03
  -2   3  -7  184.03   16.67
  -2   3  -8  638.58   34.87
   2  -3   8  648.04   38.00
   2  -3   9   59.55   12.20
  -2   3  -9   60.30   10.18
  -2   3 -10   34.44    8.30
   2  -3  10   36.04   10.13
   2  -3  11    6.50    4.79
  -2   3 -11    0.02    2.83
   2  -3  12   71.24   14.72
  -2   3 -12   80.13   12.55
   2  -3  13   -9.95    7.00
   2  -3  14   25.07    9.93
  -2   2  16   -3.73    6.54
  -2   2  15   22.58    8.65
  -2   2  14    5.84    4.64
  -2   2  13  178.32   22.67
  -2   2  12  913.58   52.65
  -2   2  12  943.59   36.32
  -2   2  11   92.06   14.53
   2  -2 -11   81.64   12.55
  -2   2  11   90.64    9.20
  -2   2  10  439.75   29.38
  -2   2  10  431.10   21.20
  -2   2   9   17.79    4.06
  -2   2   9   23.77    6.28
   2  -2  -9   11.39    4.68
  -2   2   8    2.85    2.83
  -2   2   8    0.57    1.06
   2  -2  -8    1.14    2.78
  -2   2   7  111.94   10.33
   2  -2  -7   99.62   11.55
   2  -2  -6  525.00   26.29
  -2   2   6  492.68   22.80
  -2   2   5 3695.29  102.35
   2  -2  -5 3796.68  106.66
   2  -2  -4    9.24    3.15
  -2   2   4    5.72    1.73
   2  -2  -3   79.08    7.47
  -2   2   3   82.43    6.76
  -2   2   2   39.86    4.75
   2  -2  -2   39.22    4.62
  -2   2   1  434.43   18.48
   2  -2  -1  466.40   19.20
   2  -2   0   21.00    3.38
  -2   2   0   19.15    3.40
  -2   2  -1  205.56   12.28
  -2   2  -1  213.52   10.77
   2  -2   1  198.34   11.98
  -2   2  -2 1911.82   55.48
  -2   2  -2 1914.53   59.13
   2  -2   2 1918.49   57.30
   2  -2   3    4.55    2.00
  -2   2  -3    4.31    2.21
  -2   2  -3    0.88    1.56
   2  -2   4  178.66   12.34
  -2   2  -4  198.70   13.38
  -2   2  -4  155.22   11.76
  -2   2  -4  190.92   13.81
  -2   2  -5  385.81   20.61
   2  -2   5  346.60   20.13
  -2   2  -5  376.28   21.09
  -2   2  -5  360.65   21.05
   2  -2   6  457.13   25.58
  -2   2  -6  506.78   25.47
  -2   2  -6  477.48   25.76
  -2   2  -6  463.85   26.56
  -2   2  -7   11.31    3.94
  -2   2  -7    5.99    2.94
   2  -2   7   12.38    4.32
  -2   2  -7   11.32    3.81
  -2   2  -8  131.25   13.74
   2  -2   8  131.03   15.25
  -2   2  -8  113.28   12.28
   2  -2   9  442.99   31.57
  -2   2  -9  407.35   25.96
  -2   2  -9  445.21   27.55
  -2   2 -10   -2.56    2.76
   2  -2  10    5.68    5.78
   2  -2  11   14.97    6.94
  -2   2 -11    6.00    3.20
   2  -2  12   10.17    7.01
  -2   2 -12   10.68    4.30
   2  -2  13    3.30    3.53
   2  -2  14   37.84   11.59
   2  -2  15    0.64    5.33
  -2   1  16   62.67   14.33
  -2   1  15   20.14    9.24
  -2   1  14   -1.85    5.02
  -2   1  13   25.42    8.74
  -2   1  12    2.11    1.06
  -2   1  12    5.85    6.50
  -2   1  11  644.77   22.89
   2  -1 -11  569.43   32.28
  -2   1  11  616.22   41.69
   2  -1 -10   26.34    6.29
  -2   1  10   41.95    4.95
  -2   1  10   42.98    9.39
  -2   1   9   30.77    8.26
   2  -1  -9   23.62    5.52
  -2   1   9   29.95    4.22
  -2   1   8  565.50   21.52
  -2   1   8  560.04   31.64
   2  -1  -8  482.08   26.40
  -2   1   7  124.32   12.66
   2  -1  -7  115.71   10.54
  -2   1   7  112.70    7.79
  -2   1   6   10.66    3.96
   2  -1  -6    4.80    2.21
  -2   1   6    3.96    1.94
  -2   1   5   20.26    3.27
   2  -1  -5   23.52    3.94
   2  -1  -4 1106.25   35.55
  -2   1   4 1119.68   34.25
   2  -1  -3   27.01    3.32
  -2   1   3   27.18    3.30
   2  -1  -2  504.95   18.90
  -2   1   2  511.57   18.16
  -2   1   1 3742.71   97.23
   2  -1  -1 3706.46   98.02
   2  -1   0  552.42   20.37
  -2   1   0  528.94   20.19
   2  -1   1  180.54   10.55
  -2   1  -1  186.61   10.88
  -2   1  -2   54.04    4.47
  -2   1  -2   59.99    6.19
  -2   1  -2   51.62    5.74
   2  -1   2   50.72    5.86
  -2   1  -3 2406.87   67.72
  -2   1  -3 2473.09   71.60
  -2   1  -3 2436.66   71.73
   2  -1   4  324.77   16.10
  -2   1  -4  327.02   16.30
  -2   1  -4  339.83   18.37
  -2   1  -4  342.50   18.31
  -2   1  -5   23.68    5.19
  -2   1  -5   31.96    5.47
  -2   1  -5   26.40    4.74
   2  -1   5   29.82    4.67
   2  -1   6   91.45    9.75
  -2   1  -6   97.46   10.55
  -2   1  -6   76.46    9.26
  -2   1  -6   90.45    9.71
  -2   1  -7    0.77    2.19
  -2   1  -7    3.46    2.79
   2  -1   7    8.82    4.24
  -2   1  -7    4.69    2.45
   2  -1   8  704.74   37.14
  -2   1  -8  605.49   34.85
  -2   1  -8  684.04   33.59
  -2   1  -8  671.37   32.91
  -2   1  -9  235.97   18.58
  -2   1  -9  219.77   20.86
   2  -1   9  270.51   23.55
  -2   1  -9  215.24   18.25
  -2   1 -10  847.35   42.15
  -2   1 -10  920.91   42.01
   2  -1  10  936.18   50.16
   2  -1  11  405.20   33.22
  -2   1 -11  436.52   27.63
  -2   1 -12    4.74    4.15
   2  -1  12   -6.09    5.88
  -2   1 -13   31.03    7.27
   2  -1  13   34.25   10.36
   2  -1  14   13.54    8.41
   2  -1  15  188.68   24.89
  -2   0  15    6.82    5.42
  -2   0  14  118.68   19.31
  -2   0  13    1.18    7.11
  -2   0  12   -0.97    3.02
  -2   0  11  208.01   23.61
   2   0 -11  231.91   14.73
  -2   0  10  221.83   23.17
   2   0 -10  188.28   13.27
   2   0  -9   74.87    7.62
  -2   0   9   92.60   14.09
  -2   0   8   -3.15    4.12
   2   0  -8    0.54    1.46
   2   0  -7  541.00   21.74
  -2   0   7  571.75   33.89
  -2   0   7  622.26   17.76
  -2   0   6    2.12    1.83
  -2   0   6    7.36    1.35
   2   0  -6    6.97    1.71
  -2   0   5 1186.92   34.95
   2   0  -5 1170.84   34.13
  -2   0   5 1291.58   46.31
  -2   0   4 1983.25   60.59
  -2   0   4 1875.66   49.89
   2   0  -4 1833.45   50.36
  -2   0   3 2184.41   57.24
   2   0  -3 2221.43   58.55
  -2   0   2 1255.64   34.64
   2   0  -2 1242.43   35.97
  -2   0   1    7.53    1.68
   2   0  -1    4.73    1.45
  -2   0   1    7.51    1.81
  -2   0   0  102.47    6.65
  -2   0   0   91.91    6.75
  -2   0  -1    4.97    1.62
  -2   0  -1    4.66    1.91
   2   0   1    7.54    2.25
  -2   0  -2 4042.70  101.23
   2   0   2 3969.81  107.94
  -2   0  -2 4029.66  108.84
  -2   0  -3 4222.58  107.93
  -2   0  -3 4230.74  115.26
   2   0   3 4169.01  113.81
   2   0   4 1690.97   48.71
   2   0   4 1740.22   54.06
  -2   0  -4 1692.89   50.26
  -2   0  -4 1720.81   55.96
   2   0   5 1134.07   40.12
   2   0   5 1100.79   37.12
  -2   0  -5 1079.15   38.59
  -2   0  -5 1124.28   42.12
   2   0   6   13.62    3.36
   2   0   6   17.19    4.40
  -2   0  -6   16.52    4.44
  -2   0  -6   11.42    3.22
   2   0   7    7.43    3.75
  -2   0  -7    2.67    2.36
  -2   0  -7    2.99    2.31
   2   0   7    7.75    3.24
   2   0   8   49.63    8.58
   2   0   8   72.20    8.83
  -2   0  -8   53.86    8.74
  -2   0  -8   51.04    8.77
  -2   0  -9  581.82   32.53
  -2   0  -9  550.19   32.91
   2   0   9  640.81   36.67
   2   0   9  671.24   30.37
  -2   0 -10  656.72   36.50
   2   0  10  699.61   40.73
  -2   0 -10  706.78   36.85
  -2   0 -11   75.49   10.72
   2   0  11   79.69   13.75
   2   0  12   49.79   11.95
  -2   0 -12   44.68    8.74
   2   0  13    5.83    4.55
  -2   0 -13    0.47    2.28
  -2   0 -14    2.70    3.12
   2   0  14    4.89    3.94
   2   0  15    8.82    6.60
  -2  -1  15   56.74   14.28
  -2  -1  14   14.01    8.29
  -2  -1  13    5.48    4.80
  -2  -1  12    7.79    5.75
  -2  -1  11  515.13   38.83
  -2  -1  10 1607.08   73.78
  -2  -1   9  277.77   26.26
  -2  -1   8  303.87   26.97
   2   1  -7   79.25   11.54
  -2  -1   7   67.44   11.79
   2   1  -6   22.47    6.36
  -2  -1   6   28.70    7.21
  -2  -1   5  199.38   18.18
   2   1  -5  196.11   16.74
  -2  -1   4 1528.13   56.98
   2   1  -4 1449.88   53.20
  -2  -1   3 5798.59  160.89
  -2  -1   3 5898.60  142.73
   2   1  -3 5859.34  157.86
  -2  -1   3 5714.83  144.70
   2   1  -2   54.09    3.85
  -2  -1   2   56.09    6.78
   2   1  -2   60.32    6.47
  -2  -1   2   59.10    4.52
  -2  -1   2   56.73    3.44
   2   1  -1  113.97    6.93
  -2  -1   1  116.13    8.33
  -2  -1   1  106.17    7.34
   2   1   0  118.03    8.18
  -2  -1   0  131.32    7.60
  -2  -1   0  118.09    8.60
   2   1   1  515.46   21.43
  -2  -1  -1  508.54   21.67
   2   1   2  221.21   13.55
  -2  -1  -2  219.36   13.71
  -2  -1  -3  537.42   16.31
   2   1   3  570.46   24.97
  -2  -1  -3  536.30   25.03
   2   1   4 1934.74   50.92
  -2  -1  -4 1850.56   53.78
   2   1   4 2014.43   62.37
  -2  -1  -4 1955.47   63.55
   2   1   5   21.86    4.61
   2   1   5   19.68    3.43
  -2  -1  -5   19.37    3.68
  -2  -1  -5   21.62    4.86
   2   1   6  265.67   15.75
   2   1   6  308.02   18.72
  -2  -1  -6  283.93   16.25
  -2  -1  -6  322.09   20.70
   2   1   7  110.19   11.01
   2   1   7  110.19   11.01
  -2  -1  -7  100.23    9.72
  -2  -1  -7  104.15   11.84
   2   1   8  235.64   18.72
   2   1   8  259.58   17.79
  -2  -1  -8  234.81   16.06
  -2  -1  -8  233.19   19.04
  -2  -1  -9    0.53    1.46
  -2  -1  -9    3.81    3.02
   2   1   9    0.86    1.93
   2   1   9    1.46    3.45
  -2  -1 -10   57.13    8.55
   2   1  10   71.25    9.54
   2   1  10   77.57   12.31
  -2  -1 -10   66.56   10.69
   2   1  11  207.95   16.91
  -2  -1 -11  183.42   16.13
   2   1  11  226.47   22.69
   2   1  12    1.07    4.46
   2   1  12    0.47    3.11
   2   1  13   17.45    6.87
   2   1  13   16.93    4.76
   2   1  14   17.65    7.53
  -2  -1 -15    5.05    3.02
   2   1  15    7.02    5.32
  -2  -2  14   49.38   12.95
  -2  -2  13   31.71   10.72
  -2  -2  12   19.61    8.84
  -2  -2  11  173.74   22.24
  -2  -2  10    0.71    4.40
  -2  -2   9 1450.25   68.83
  -2  -2   8   98.80   15.34
  -2  -2   7   40.16    8.99
  -2  -2   6  685.30   39.32
   2   2  -6  607.49   36.56
  -2  -2   5  206.68   19.52
   2   2  -5  223.31   20.23
  -2  -2   4  372.57   25.06
   2   2  -4  379.28   25.98
   2   2  -4  346.51   12.13
   2   2  -3   10.50    4.59
   2   2  -3    9.22    2.03
  -2  -2   3    8.34    1.06
  -2  -2   3    4.89    2.91
  -2  -2   2 1341.11   49.71
   2   2  -2 1300.20   51.45
   2   2  -2 1314.92   41.34
  -2  -2   2 1280.17   37.36
   2   2  -1   12.80    3.92
   2   2  -1   11.34    2.79
  -2  -2   1   12.56    2.68
  -2  -2   1   14.14    3.47
  -2  -2   0 1036.52   35.66
  -2  -2   0 1098.55   36.44
   2   2   0 1049.19   38.43
   2   2   0 1067.17   38.76
  -2  -2  -1 2641.56   68.65
   2   2   1 2450.39   70.49
   2   2   1 2503.44   77.49
  -2  -2  -1 2560.64   75.39
   2   2   2  191.00   14.19
  -2  -2  -2  166.41   12.82
  -2  -2  -3  152.22   12.58
   2   2   3  161.73   13.66
   2   2   4   13.35    4.22
  -2  -2  -4   12.78    3.73
  -2  -2  -5 1187.24   46.75
   2   2   5 1128.33   34.78
   2   2   5 1201.26   46.37
  -2  -2  -6   36.43    7.15
   2   2   6   35.24    6.88
   2   2   6   35.74    5.33
   2   2   7   82.35    9.52
  -2  -2  -7   76.58   11.22
   2   2   7   71.17    9.71
   2   2   8  208.09   16.86
   2   2   8  165.22   15.29
  -2  -2  -8  178.74   17.53
  -2  -2  -9    4.47    2.22
   2   2   9    0.21    2.34
   2   2   9    0.99    1.94
  -2  -2 -10  466.98   30.74
   2   2  10  436.80   26.94
   2   2  11  108.19   14.98
   2   2  11   99.00   12.05
   2   2  12  559.57   36.32
   2   2  12  422.79   27.08
   2   2  13  214.19   22.66
   2   2  13  186.67   17.56
   2   2  14   10.36    4.92
   2   2  14    0.85    4.74
   2   2  15   68.44   10.37
  -2  -3  13   -3.51    6.33
  -2  -3  12  195.36   24.64
  -2  -3  11   -0.75    4.78
  -2  -3  10   90.76   15.63
  -2  -3   9  250.72   25.95
  -2  -3   8  194.37   22.22
  -2  -3   7    3.05    3.28
   2   3  -6   77.22    5.95
   2   3  -6   68.30    3.94
  -2  -3   6   85.34   13.12
  -2  -3   5 1032.30   50.20
   2   3  -5  958.62   52.82
   2   3  -5 1038.92   35.50
  -2  -3   4   31.28    2.34
  -2  -3   4   34.92    7.80
   2   3  -4   29.86    4.98
   2   3  -4   27.17    8.26
  -2  -3   3  854.58   39.49
   2   3  -3  737.79   42.70
  -2  -3   3  841.30   24.41
   2   3  -3  791.18   33.34
  -2  -3   2 1123.29   43.46
  -2  -3   2 1075.93   32.47
   2   3  -2 1025.18   47.65
   2   3  -2 1022.33   40.78
  -2  -3   1 1052.30   38.70
   2   3  -1  964.08   44.09
  -2  -3   1 1036.20   34.09
   2   3  -1 1044.98   41.72
  -2  -3   0  148.91   11.09
   2   3   0  153.23   13.43
  -2  -3   0  147.00   10.03
   2   3   0  162.53   14.19
  -2  -3  -1   29.25    5.01
  -2  -3  -1   32.45    3.79
   2   3   1   27.43    5.07
   2   3   1   30.32    6.17
  -2  -3  -2   12.97    3.79
   2   3   2    4.46    3.47
   2   3   2    5.81    2.09
  -2  -3  -2    3.67    1.03
  -2  -3  -3    2.73    1.94
   2   3   3    4.23    2.87
   2   3   3    0.67    0.87
   2   3   4 2933.89   74.20
   2   3   4 2913.82   94.34
  -2  -3  -4 2977.33   92.67
   2   3   5 2110.94   56.00
   2   3   5 2236.80   75.94
  -2  -3  -5 2185.34   74.27
   2   3   6  939.00   31.09
   2   3   6  856.57   41.20
  -2  -3  -6  832.25   40.64
   2   3   7  670.67   36.05
  -2  -3  -7  670.62   36.52
   2   3   8   31.17    5.82
  -2  -3  -8   24.49    6.52
   2   3   8   19.67    5.77
  -2  -3  -9  119.41   15.05
   2   3   9  102.23   13.27
   2   3  10  124.68   14.31
   2   3  10   91.96   12.65
   2   3  11  819.19   41.74
   2   3  11  607.73   35.91
   2   3  12  657.76   38.28
   2   3  12  468.07   31.09
   2   3  13   42.81    8.63
   2   3  13   65.78   12.07
   2   3  14   74.28   11.44
   2   3  14  109.32   15.60
   2   3  15    6.49    4.24
  -2  -4  12   16.81    9.03
  -2  -4  11    2.25    3.88
  -2  -4  10    6.62    3.73
  -2  -4   9  576.61   41.80
  -2  -4   8 1409.69   65.93
   2   4  -8 1442.53   39.13
   2   4  -7  151.08    8.15
  -2  -4   7  161.17   19.71
   2   4  -6  101.53   11.39
  -2  -4   6   94.61   14.15
   2   4  -5   42.53    7.60
  -2  -4   5   51.85    9.63
  -2  -4   5   51.62    3.76
   2   4  -4   70.99   10.58
  -2  -4   4   67.44    4.60
  -2  -4   4   71.88   10.53
   2   4  -4   66.51   11.81
  -2  -4   3  469.14   17.25
  -2  -4   3  469.71   27.42
   2   4  -3  468.00   32.34
   2   4  -3  437.39   28.97
  -2  -4   2 1951.64   55.08
  -2  -4   2 1975.77   65.82
   2   4  -2 1768.95   71.91
   2   4  -2 1865.54   72.52
  -2  -4   1 4587.22  121.04
  -2  -4   1 4831.07  126.76
   2   4  -1 4398.02  138.83
  -2  -4   0   91.95    8.25
   2   4   0   70.49    9.55
  -2  -4   0   77.94    7.95
   2   4   0   93.11   12.61
  -2  -4  -1  181.12   10.16
   2   4   1  159.47   13.13
  -2  -4  -1  163.99   13.03
   2   4   1  143.44   15.37
  -2  -4  -2   14.81    2.47
   2   4   2    8.80    1.62
  -2  -4  -2   12.87    4.35
   2   4   3    0.88    2.51
   2   4   3    0.54    1.12
  -2  -4  -3   -0.56    2.03
   2   4   4  536.28   19.88
  -2  -4  -4  574.45   32.78
   2   4   4  613.02   34.82
   2   4   5  571.98   19.44
  -2  -4  -5  639.00   36.13
   2   4   5  583.36   33.84
  -2  -4  -6 1506.92   63.98
   2   4   6 1315.06   57.94
  -2  -4  -6 1470.31   61.06
   2   4   7   13.11    2.56
  -2  -4  -7   14.82    5.75
   2   4   7   15.03    5.77
  -2  -4  -7    7.38    3.89
   2   4   8   57.56   10.45
   2   4   8   49.25    6.07
   2   4   9   15.63    4.35
   2   4   9    9.14    4.26
   2   4  10   37.16    7.23
   2   4  10   21.99    5.81
   2   4  11   14.20    5.60
   2   4  11    5.06    3.21
   2   4  12   14.42    5.45
   2   4  12   11.50    4.59
   2   4  13   94.50   14.14
   2   4  13   57.15   10.38
   2   4  14    0.18    2.29
   2   4  15   -1.26    3.17
   2   4  16   -4.65    4.42
  -2  -5  11   44.37   12.02
  -2  -5  10   44.75   12.47
  -2  -5   9  379.64   33.47
  -2  -5   8   31.31    8.85
   2   5  -8   53.93    7.94
  -2  -5   7 1485.93   71.26
   2   5  -7 1829.07   68.30
  -2  -5   6   26.05    3.27
  -2  -5   6   37.19    8.91
  -2  -5   5   11.43    2.38
  -2  -5   5   11.55    5.49
  -2  -5   4  233.23   20.21
  -2  -5   4  212.84   10.68
  -2  -5   3   12.46    2.56
  -2  -5   3    5.20    3.63
   2   5  -2  605.26   37.20
  -2  -5   2  667.40   25.12
  -2  -5   2  690.81   32.57
  -2  -5   1    4.05    3.62
   2   5  -1    5.83    4.00
  -2  -5   1    1.43    1.30
   2   5  -1    3.34    3.00
  -2  -5   0  769.26   29.80
   2   5   0  651.13   35.15
  -2  -5   0  739.34   30.47
   2   5   0  761.38   44.45
  -2  -5  -1    5.07    2.76
  -2  -5  -1    5.38    2.07
   2   5   1    4.16    4.05
   2   5   1    1.37    2.44
   2   5   2  503.93   25.85
  -2  -5  -2  596.83   29.34
   2   5   2  530.08   35.02
   2   5   3  570.16   25.71
  -2  -5  -3  639.07   32.72
   2   5   3  551.25   35.15
   2   5   4   10.83    4.63
   2   5   4   10.59    3.02
  -2  -5  -4    7.48    3.93
   2   5   5   73.72   12.02
  -2  -5  -5   78.94   11.92
   2   5   5   78.90    6.94
   2   5   6    1.09    1.39
   2   5   6   -1.47    2.75
   2   5   7  221.08   21.56
   2   5   8    0.67    4.14
   2   5   9   41.60    5.54
   2   5   9   32.31    8.25
   2   5  10   92.69   14.38
   2   5  10   94.65   10.12
   2   5  11    2.22    1.81
   2   5  11    0.93    2.68
   2   5  12   79.29   13.68
   2   5  12  124.36   14.10
   2   5  13   15.63    6.60
   2   5  14   93.75   15.29
   2   5  15   43.58   10.64
   2   5  16    2.98    2.87
  -2  -6  10  110.89   19.14
  -2  -6   9    0.07    4.45
  -2  -6   8  162.86   21.25
  -2  -6   7  144.12   19.55
   2   6  -7  197.65   22.23
  -2  -6   6   77.02   13.50
  -2  -6   5   69.13   12.17
  -2  -6   5   62.79    6.06
  -2  -6   4  121.96   14.95
  -2  -6   4  113.20    8.42
  -2  -6   3  614.73   33.49
  -2  -6   3  580.03   24.03
  -2  -6   2   28.44    6.13
  -2  -6   2   21.31    4.23
  -2  -6   1  343.67   20.45
   2   6  -1  282.63   24.44
  -2  -6   1  322.76   17.98
   2   6  -1  315.29   31.54
  -2  -6   0  319.74   18.16
   2   6   0  262.55   22.31
  -2  -6   0  290.31   17.85
   2   6   0  284.43   30.28
  -2  -6  -1  177.28   12.05
   2   6   1  129.78   14.16
   2   6   1  155.15   21.42
  -2  -6  -1  177.03   14.31
   2   6   2    0.12    4.80
  -2  -6  -2    5.57    3.43
   2   6   2    2.26    1.62
   2   6   3   33.25    8.83
   2   6   3   23.79    4.98
  -2  -6  -3   38.46    7.70
   2   6   4   34.17    6.03
   2   6   4   23.74    7.89
   2   6   5    8.67    4.86
   2   6   5   17.17    4.33
   2   6   6 1063.20   38.49
   2   6   6  997.57   53.97
   2   6   7  526.15   23.62
   2   6   7  466.01   35.58
   2   6   8  165.57   19.85
   2   6   9  229.15   23.56
   2   6  10   36.49    5.78
   2   6  10   37.51    9.76
   2   6  11  187.61   14.84
   2   6  11  185.65   21.79
   2   6  12   41.83   10.98
   2   6  12   48.60    8.44
   2   6  13  225.27   24.84
   2   6  14  227.07   25.24
   2   6  15   23.87    8.27
   2   6  16   97.61   16.30
  -2  -7   8   15.47    8.58
  -2  -7   7  268.83   27.32
  -2  -7   6  609.70   40.13
  -2  -7   5   40.95    9.64
  -2  -7   4    4.78    1.90
  -2  -7   4    0.84    3.26
  -2  -7   3   15.71    5.06
  -2  -7   3   18.07    4.10
  -2  -7   2   57.02    8.96
  -2  -7   2   77.05    8.39
  -2  -7   1  465.66   25.91
  -2  -7   1  455.26   23.57
   2   7  -1  464.54   43.75
  -2  -7   0 1282.36   47.07
   2   7   0 1151.12   71.32
   2   7   1 1822.06   90.49
   2   7   2   40.29    8.01
   2   7   2   41.88   12.33
   2   7   3  156.28   15.69
   2   7   3  196.83   24.29
   2   7   4   11.64    4.51
   2   7   4   13.24    7.17
   2   7   5  175.72   15.49
   2   7   5  175.02   21.80
   2   7   6  342.08   31.27
   2   7   6  392.73   23.56
   2   7   7  373.84   22.01
   2   7   7  310.55   29.76
   2   7   8  769.27   34.30
   2   7   8  718.64   47.91
   2   7   9   -4.06    5.80
   2   7   9   -0.73    2.30
   2   7  10   19.23    6.32
   2   7  11    0.65    1.96
   2   7  11    3.88    4.17
   2   7  12    1.02    4.63
   2   7  13   21.94    9.61
   2   7  14   15.23    7.05
   2   7  15   15.27    7.64
   2   7  16    9.87    5.50
  -2  -8   7  373.72   32.79
  -2  -8   6   92.90   15.30
  -2  -8   5  741.70   45.16
   2   8  -5 1157.01   80.12
  -2  -8   4    3.73    4.96
   2   8  -4   15.47   10.71
  -2  -8   3    9.50    5.00
   2   8  -3   10.00   14.81
   2   8  -2   29.47   15.33
  -2  -8   2   17.02    5.28
  -2  -8   1   58.87    9.25
   2   8  -1   68.85   21.15
   2   8   0  367.84   41.94
   2   8   1    6.68    9.54
   2   8   2  291.96   35.15
   2   8   3    5.17    7.07
   2   8   4  131.19   21.13
   2   8   5   97.46   13.07
   2   8   5  110.59   18.46
   2   8   6   17.33    6.12
   2   8   6    4.78    4.38
   2   8   7   24.18    8.73
   2   8   7   35.52    8.25
   2   8   8   -3.24    3.26
   2   8   9    4.95    3.32
   2   8  10    7.24    5.12
   2   8  11   22.53    8.88
   2   8  12    5.97    4.06
   2   8  13   -5.56    4.19
   2   8  14   11.33    6.29
  -2  -9   5   80.70   14.66
  -2  -9   4   24.49    7.60
   2   9  -4   37.18   17.40
  -2  -9   3   33.74    8.68
   2   9  -3   35.58   17.84
   2   9  -2  101.55   29.10
   2   9  -1  195.70   36.13
   2   9   0    4.72    7.68
   2   9   1  107.23   25.85
   2   9   2   53.96   17.48
   2   9   3   14.88   10.45
   2   9   4    9.62    7.41
   2   9   5   11.79    8.64
   2   9   6    4.16    6.07
   2   9   7    4.05    4.40
   2   9   8  167.32   23.88
   2   9   9   58.31   14.80
   2   9  10   21.99    9.75
   2   9  11   63.62   15.21
   2   9  12    5.95    6.01
   2  10  -3    0.65    8.74
   2  10  -2   -3.79   12.91
   2  10  -1    4.80   14.03
   2  10   0   42.17   22.06
   2  10   1  159.35   32.19
   2  10   2  364.10   45.98
   2  10   3  479.20   51.27
   2  10   4   16.49   10.05
   2  10   5   97.57   20.71
   2  10   6    7.64    8.83
   2  10   7  120.55   21.63
   2  10   8  170.57   26.70
   2  10   9  125.36   21.61
   2  11  -2    0.78   13.55
   2  11  -1   36.68   20.37
   2  11   0   22.69   17.45
   2  11   1   81.35   25.58
   2  11   2  254.33   41.60
   2  11   3    6.39    8.93
  -3   9   8    9.59    5.41
  -3   9   7  233.45   26.47
  -3   9   6   -3.65    3.34
  -3   9   5  183.88   22.89
  -3   9   4   47.60   12.21
  -3   9   3   26.92   10.21
  -3   9   2   14.39    6.95
  -3   9   1   12.87    7.75
  -3   9   0   23.28    9.79
  -3   9  -1   10.04    7.06
  -3   9  -2   12.95    6.68
  -3   9  -3   -2.80    6.20
  -3   9  -4   -3.19    6.99
  -3   8  13   77.05   14.58
  -3   8  12   43.26   11.51
  -3   8  11   17.32    6.12
  -3   8  11   20.86    8.60
  -3   8  10   -2.17    4.78
  -3   8   9    6.18    4.86
  -3   8   8    7.27    4.86
  -3   8   7   -3.94    5.28
  -3   8   6   17.77    7.19
  -3   8   5    4.72    4.21
  -3   8   4    0.08    2.41
  -3   8   3   13.33    6.23
  -3   8   2    5.12    4.33
  -3   8   1    3.57    4.95
  -3   8   0    1.82    4.60
  -3   8  -1    5.60    3.31
  -3   8  -2    8.18    5.68
  -3   8  -3    5.69    4.28
  -3   8  -4   45.78   13.05
  -3   8  -5    2.58    4.14
  -3   8  -6   39.43   11.95
  -3   8  -7    5.05    5.14
  -3   7  13    1.27    3.78
  -3   7  12    3.24    3.15
  -3   7  11   18.26    7.29
  -3   7  11   13.61    6.50
  -3   7  10   -0.11    4.49
  -3   7   9   49.19   11.15
  -3   7   8    4.96    3.76
  -3   7   7    3.56    3.97
  -3   7   6   12.96    6.26
  -3   7   5   37.77    8.71
  -3   7   4  117.85   15.54
  -3   7   3    4.94    5.50
  -3   7   2  131.94   16.36
  -3   7   1   43.87    9.30
  -3   7   0   88.26   13.60
  -3   7  -1  190.11   20.73
  -3   7  -2   14.98    6.95
  -3   7  -3  240.85   24.82
  -3   7  -4   22.04    7.93
  -3   7  -5  287.50   29.32
  -3   7  -6  190.48   24.61
  -3   7  -7   55.60   13.18
  -3   7  -8   68.67   15.18
  -3   6  14    6.29    5.44
  -3   6  13   10.17    4.77
  -3   6  13    6.50    3.02
  -3   6  12  170.67   19.08
  -3   6  11    1.41    2.92
  -3   6  11   -2.45    2.98
  -3   6  10  299.28   26.57
  -3   6   9   34.74    8.58
  -3   6   8  117.71   14.75
  -3   6   7  103.46   13.62
  -3   6   6   61.78   10.52
  -3   6   5  734.44   37.91
  -3   6   4   -1.10    2.55
  -3   6   3  554.97   31.98
  -3   6   2  137.65   15.01
  -3   6   1  168.67   16.65
  -3   6   0  260.19   21.39
  -3   6  -1    7.00    4.20
  -3   6  -2  114.43   14.70
  -3   6  -3    2.29    2.49
  -3   6  -4   37.46    9.01
  -3   6  -5   65.30   12.49
  -3   6  -6   63.51   12.63
  -3   6  -7   43.53   11.36
  -3   6  -8    3.12    5.20
  -3   6  -9   28.54    9.81
  -3   5  15    9.79    6.80
  -3   5  14   21.67    8.33
  -3   5  13   33.27    8.48
  -3   5  13   36.70    9.73
  -3   5  12    1.26    2.63
  -3   5  12   -1.95    3.14
  -3   5  11  430.21   29.21
  -3   5  10  115.15   14.92
  -3   5   9   98.93   13.68
  -3   5   8   20.18    5.94
  -3   5   7    1.57    2.88
  -3   5   6   29.29    6.83
  -3   5   5    0.89    2.10
  -3   5   4   27.78    6.08
  -3   5   3    2.53    1.72
  -3   5   2   11.11    4.58
  -3   5   1    2.46    2.50
  -3   5   0    0.60    2.40
  -3   5  -1    1.17    2.37
  -3   5  -2   12.51    4.35
  -3   5  -3   47.85    8.81
  -3   5  -4   17.97    6.14
  -3   5  -5    4.00    2.27
  -3   5  -6   74.45   12.44
  -3   5  -7    5.35    4.93
  -3   5  -8   39.16    9.87
  -3   5  -9    6.25    4.09
  -3   5 -10   17.02    6.84
  -3   4  15   -4.74    6.29
  -3   4  14   25.30    7.98
  -3   4  13   -1.96    4.10
  -3   4  12    8.01    5.73
  -3   4  12   -1.06    1.84
  -3   4  11   13.19    5.86
  -3   4  11   18.21    5.12
  -3   4  10   12.71    4.99
  -3   4  10   20.62    5.76
  -3   4   9   12.82    4.66
  -3   4   8    2.12    2.12
  -3   4   7  121.03   12.52
  -3   4   6    3.08    2.44
   3  -4  -6    1.73    2.13
  -3   4   5    1.19    2.09
   3  -4  -5    2.10    2.35
  -3   4   4    4.82    1.51
   3  -4  -4    5.94    3.26
  -3   4   3   13.20    4.06
   3  -4  -3   13.14    3.86
   3  -4  -2   35.15    6.06
  -3   4   2   37.98    6.39
  -3   4   1    2.10    2.36
   3  -4  -1    1.88    1.20
  -3   4   0  191.31   15.01
   3  -4   0  192.10   14.15
  -3   4  -1   57.47    8.12
  -3   4  -2   99.75   11.53
  -3   4  -3  108.73   12.53
  -3   4  -4   -2.11    2.89
  -3   4  -5  188.24   17.79
  -3   4  -6   33.17    7.78
  -3   4  -7  713.32   40.20
  -3   4  -8  273.12   24.13
  -3   4  -9   81.38   13.24
  -3   4 -10   65.48   12.40
   3  -4  10   54.97   12.40
   3  -4  11    7.81    5.37
  -3   4 -11   19.53    7.19
   3  -4  12   50.40   13.58
  -3   3  15   16.73    6.80
  -3   3  14   -5.63    7.35
  -3   3  13   12.55    5.19
  -3   3  12   17.23    6.90
  -3   3  12   17.33    4.93
  -3   3  11   31.89    8.04
  -3   3  11   17.37    4.91
   3  -3 -11   15.63    6.16
  -3   3  10  220.74   19.86
   3  -3 -10  175.32   20.17
  -3   3  10  228.12   16.93
  -3   3   9   -0.68    2.07
   3  -3  -9    2.17    2.31
   3  -3  -8  253.09   21.90
  -3   3   8  259.82   18.50
  -3   3   7   68.82    8.51
   3  -3  -7   64.42   10.14
  -3   3   6  230.82   15.47
   3  -3  -6  241.82   19.05
  -3   3   5  268.09   16.45
   3  -3  -5  272.09   18.63
  -3   3   4  201.89   13.53
   3  -3  -4  201.68   14.84
   3  -3  -3 1188.06   43.44
  -3   3   3 1156.16   41.15
  -3   3   2    0.97    1.65
   3  -3  -2    4.16    2.59
  -3   3   1  980.13   37.34
   3  -3  -1 1030.64   37.88
   3  -3   0  529.47   24.48
  -3   3   0  530.85   25.12
  -3   3  -1  853.68   31.63
   3  -3   1  878.98   33.93
  -3   3  -1  794.90   34.29
  -3   3  -2 1148.33   39.14
   3  -3   2 1163.19   41.65
  -3   3  -3   72.31    7.85
  -3   3  -3   72.96    9.39
   3  -3   3   71.06    8.44
  -3   3  -4  168.66   13.19
  -3   3  -4  149.80   14.41
   3  -3   4  169.68   13.86
  -3   3  -5   13.52    4.80
  -3   3  -6  195.36   18.18
  -3   3  -7  222.05   20.28
   3  -3   8  354.12   26.33
  -3   3  -8  371.46   27.46
   3  -3   9  158.18   18.70
  -3   3  -9  166.44   18.30
   3  -3  10    8.69    6.35
  -3   3 -10    5.92    4.10
   3  -3  11   51.60   12.48
  -3   3 -11   63.84   11.89
   3  -3  12   -8.52    7.22
  -3   3 -12   -2.29    3.49
   3  -3  13    3.82    5.13
   3  -3  14   42.75   13.81
  -3   2  15   13.48    7.34
  -3   2  14  112.13   19.83
  -3   2  13   22.44    8.24
  -3   2  12   70.70   13.67
   3  -2 -11  161.48   17.51
  -3   2  11  185.80   21.03
  -3   2  11  173.54   12.45
  -3   2  10    7.73    5.20
  -3   2  10    7.37    2.89
   3  -2 -10    3.82    2.47
  -3   2   9 1044.55   46.57
  -3   2   9  983.76   36.82
   3  -2  -8  166.73   15.81
  -3   2   8  169.43   13.50
  -3   2   8  168.08   15.73
  -3   2   7  277.79   16.57
   3  -2  -7  296.28   20.13
   3  -2  -6  179.70   14.20
  -3   2   6  197.06   12.72
  -3   2   5   25.06    4.16
   3  -2  -5   27.52    5.05
   3  -2  -4  513.21   23.72
  -3   2   4  490.27   21.03
  -3   2   3   21.95    3.59
   3  -2  -3   25.05    4.59
  -3   2   2   38.35    5.18
   3  -2  -2   43.63    5.80
   3  -2  -1   14.06    3.41
  -3   2   1   20.09    3.68
   3  -2   0   -1.25    1.59
  -3   2   0    1.33    1.34
   3  -2   1  248.98   14.97
  -3   2  -1  251.90   15.66
   3  -2   2    8.29    2.62
  -3   2  -2    6.95    2.04
  -3   2  -2    2.95    1.99
   3  -2   3   36.55    5.87
  -3   2  -3   36.57    4.80
  -3   2  -3   36.16    6.02
  -3   2  -3   37.30    6.13
  -3   2  -4    7.34    3.13
  -3   2  -4   10.42    2.75
  -3   2  -4   10.97    4.31
  -3   2  -5  272.05   17.22
  -3   2  -5  309.81   20.18
  -3   2  -5  305.14   20.69
  -3   2  -6   63.06    9.32
  -3   2  -6   66.94    8.55
  -3   2  -6   71.27    9.90
  -3   2  -7    2.59    2.75
  -3   2  -7    3.63    2.02
   3  -2   7    4.52    3.77
   3  -2   8  139.26   15.08
  -3   2  -8  142.13   15.63
  -3   2  -9   -0.68    3.17
   3  -2   9   10.16    5.38
   3  -2  10   33.89    9.14
  -3   2 -10   56.98   10.95
   3  -2  11   -1.10    3.35
  -3   2 -11    1.18    3.02
  -3   2 -12  133.51   16.55
   3  -2  12  107.70   18.41
   3  -2  13    3.39    3.75
  -3   2 -13    4.09    4.39
   3  -2  14   -0.67    5.93
  -3   1  15  115.51   20.02
  -3   1  14  139.43   21.72
  -3   1  13    0.55    5.26
  -3   1  12    3.02    4.58
  -3   1  11    1.37    1.02
  -3   1  11    3.09    4.80
  -3   1  10   60.69   11.67
  -3   1  10   57.87    5.22
   3  -1 -10   46.21    7.25
  -3   1   9   39.77    8.85
  -3   1   9   37.82    4.54
   3  -1  -9   36.32    6.16
  -3   1   8   23.74    6.54
  -3   1   8   26.67    4.00
   3  -1  -8   24.17    4.50
  -3   1   7   20.72    5.38
  -3   1   7   16.84    3.55
   3  -1  -7   16.14    3.84
  -3   1   6   32.58    4.49
   3  -1  -6   25.09    4.45
  -3   1   5   20.51    3.23
   3  -1  -5   20.69    3.93
  -3   1   4    0.85    0.93
   3  -1  -4    1.26    1.28
   3  -1  -3    3.73    1.56
  -3   1   3    3.22    1.64
   3  -1  -2    5.53    2.05
  -3   1   2    5.88    1.72
   3  -1  -1    2.94    1.80
  -3   1   1    2.61    1.61
   3  -1   0    4.00    2.07
  -3   1   0    2.80    1.42
  -3   1  -1    5.27    2.52
   3  -1   1    4.22    1.84
  -3   1  -1    4.86    2.14
  -3   1  -2  390.72   20.77
  -3   1  -2  400.86   20.34
  -3   1  -3   68.30    5.87
  -3   1  -3   74.23    8.58
  -3   1  -3   70.22    8.21
  -3   1  -4  102.11    8.18
  -3   1  -4   98.45   10.47
  -3   1  -4  111.49   11.16
  -3   1  -5    3.24    2.61
  -3   1  -5    4.10    1.78
  -3   1  -5    2.62    2.05
  -3   1  -6   25.00    5.51
  -3   1  -6   33.65    6.64
   3  -1   6   31.38    5.57
  -3   1  -6   20.82    4.55
  -3   1  -7   63.90    9.52
   3  -1   7   79.87    9.38
  -3   1  -7   63.90    8.95
  -3   1  -7   88.70   11.55
  -3   1  -8    9.22    4.18
   3  -1   8    9.63    4.45
  -3   1  -8    5.07    3.00
   3  -1   9 1145.24   51.03
  -3   1  -9 1122.80   51.78
  -3   1  -9 1142.30   50.31
   3  -1  10  146.18   17.63
  -3   1 -10  162.92   16.83
  -3   1 -11   62.39   10.69
   3  -1  11   26.98    8.12
  -3   1 -12   20.69    6.19
   3  -1  12   15.27    7.46
  -3   1 -13   13.38    5.16
   3  -1  13   18.81    7.33
  -3   1 -14   65.47   12.15
   3  -1  14   49.48   12.60
  -3   0  15   68.05   15.83
  -3   0  14    0.87    3.87
  -3   0  13    5.37    4.29
  -3   0  12    4.03    6.38
  -3   0  11    9.17    4.71
   3   0 -10   47.44    4.26
  -3   0  10   31.50    8.60
  -3   0   9   23.06    6.21
   3   0  -9   21.73    3.14
  -3   0   8  121.26   15.82
   3   0  -8  106.76    7.41
  -3   0   7    3.21    0.91
  -3   0   7    0.12    2.21
  -3   0   7    2.04    0.62
   3   0  -7    4.01    1.45
  -3   0   6   63.23    9.78
  -3   0   6   62.03    4.38
  -3   0   6   58.33    4.94
   3   0  -6   57.42    5.36
  -3   0   5   39.66    6.94
  -3   0   5   42.23    3.96
   3   0  -5   36.50    4.23
  -3   0   5   32.93    3.43
  -3   0   4  267.77   12.35
   3   0  -4  267.53   13.15
  -3   0   4  285.20   17.69
  -3   0   4  275.24   11.39
  -3   0   3  346.96   15.38
  -3   0   3  333.51   13.36
   3   0  -3  358.46   15.96
  -3   0   2  332.12   15.82
  -3   0   2  350.20   14.32
   3   0  -2  358.92   16.79
  -3   0   1  284.33   14.93
  -3   0   1  281.92   13.28
  -3   0   0   12.27    2.83
  -3   0   0   15.11    3.26
  -3   0  -1  747.56   29.84
  -3   0  -1  718.57   27.81
  -3   0  -2  965.93   37.23
  -3   0  -2  971.97   36.29
  -3   0  -3 1719.71   47.39
   3   0   3 1691.11   55.77
  -3   0  -3 1691.33   57.07
  -3   0  -3 1775.77   58.44
  -3   0  -4 1410.49   41.37
   3   0   4 1325.36   47.98
  -3   0  -4 1368.70   51.07
  -3   0  -5   13.75    4.03
  -3   0  -5   20.30    3.50
   3   0   5   18.06    4.37
   3   0   6  111.97    9.03
   3   0   6  126.22   11.92
  -3   0  -6  110.81    9.93
  -3   0  -6  103.80   12.18
   3   0   7   58.98    7.37
  -3   0  -7   55.08    9.23
   3   0   7   74.11   10.13
  -3   0  -7   57.75    8.01
  -3   0  -8  421.65   27.48
   3   0   8  380.39   22.78
  -3   0  -8  383.23   24.20
   3   0   9  449.35   27.61
  -3   0  -9  463.21   28.91
  -3   0  -9  487.23   29.70
   3   0  10  469.25   31.02
  -3   0 -10  513.95   31.74
  -3   0 -10  499.66   30.78
  -3   0 -11  370.53   26.61
   3   0  11  355.99   28.58
  -3   0 -12   -3.70    2.29
   3   0  12   14.27    6.52
  -3   0 -13   50.56    9.82
   3   0  13   59.30   12.72
  -3   0 -14   29.91    7.88
   3   0  14   28.59   10.60
  -3  -1  14  216.10   28.00
  -3  -1  13   12.27    5.35
  -3  -1  12   56.59   13.88
  -3  -1  11   15.51    6.37
  -3  -1  10   64.63   14.17
  -3  -1   9  507.29   37.41
  -3  -1   8   33.94    9.46
  -3  -1   7 1040.05   53.25
  -3  -1   6  222.10   20.84
  -3  -1   5  500.69   30.19
  -3  -1   5  449.32   13.78
  -3  -1   4 1009.33   43.88
  -3  -1   4 1031.45   28.55
  -3  -1   4 1044.50   31.24
  -3  -1   3  313.94   19.23
  -3  -1   3  307.19   14.11
  -3  -1   3  314.26   11.57
  -3  -1   2 1586.46   52.60
  -3  -1   2 1597.27   44.70
  -3  -1   2 1586.45   48.87
   3   1  -1    7.17    2.29
  -3  -1   1    6.04    1.60
  -3  -1   1   11.97    3.38
  -3  -1   1    8.53    2.63
   3   1   0  227.52   13.10
  -3  -1   0  228.26   14.37
   3   1   1  126.28   10.05
  -3  -1  -1  123.81   10.83
   3   1   2  250.42   15.73
  -3  -1  -2  253.52   16.78
  -3  -1  -3 1117.68   30.42
   3   1   3 1124.85   42.17
  -3  -1  -3 1120.96   43.92
  -3  -1  -4   69.16    9.38
  -3  -1  -4   74.85    4.93
   3   1   4   75.63    8.94
  -3  -1  -5  312.87   14.36
   3   1   5  342.52   20.81
  -3  -1  -5  328.70   22.14
   3   1   6   33.19    4.14
   3   1   6   33.20    6.70
  -3  -1  -6   27.88    4.52
  -3  -1  -6   39.51    7.97
   3   1   7  354.14   17.33
   3   1   7  398.10   23.73
  -3  -1  -7  330.83   19.36
  -3  -1  -7  379.37   25.52
  -3  -1  -8   29.09    6.29
   3   1   8   36.90    7.66
   3   1   8   29.91    5.31
  -3  -1  -8   31.09    5.63
  -3  -1  -9    8.89    3.22
   3   1   9   13.69    5.14
   3   1   9   12.30    4.12
   3   1  10  263.53   21.72
   3   1  10  304.80   21.80
  -3  -1 -10  287.23   19.36
  -3  -1 -11    9.37    3.80
   3   1  11    0.83    3.13
   3   1  11    9.87    4.24
   3   1  12    5.06    3.37
   3   1  12    1.40    2.07
   3   1  13   -2.19    3.81
  -3  -1 -14  138.65   16.73
  -3  -1 -15    3.91    4.32
  -3  -2  13  232.17   28.76
  -3  -2  12  182.76   24.67
  -3  -2  11    5.06    4.20
  -3  -2  10   52.78   12.41
  -3  -2   9   11.90    6.29
  -3  -2   8  291.41   27.38
  -3  -2   7   34.90    9.04
  -3  -2   6   56.79   11.71
   3   2  -5   10.62    4.73
  -3  -2   5    5.51    3.04
   3   2  -4    2.54    2.76
  -3  -2   4    3.14    0.82
  -3  -2   4    4.13    3.48
   3   2  -4    3.30    1.00
  -3  -2   4    5.09    0.74
   3   2  -3   20.68    5.69
   3   2  -3   20.80    2.92
  -3  -2   3   23.56    2.46
  -3  -2   3   24.89    5.72
  -3  -2   3   20.25    2.87
   3   2  -2    1.11    2.11
   3   2  -2    0.78    1.18
  -3  -2   2    3.01    1.15
  -3  -2   2    2.38    2.53
  -3  -2   1    2.34    1.71
   3   2  -1    0.60    1.73
  -3  -2   1    1.73    1.61
   3   2   0   98.23    9.69
  -3  -2   0   95.14    9.23
  -3  -2   0   92.29    9.04
  -3  -2  -1  151.70   10.11
  -3  -2  -1  152.55   12.57
   3   2   1  150.64   12.70
  -3  -2  -2   83.24    6.03
   3   2   2   88.25   10.02
  -3  -2  -2   83.55    9.63
  -3  -2  -3    8.66    3.95
   3   2   3    3.23    1.77
   3   2   4  479.45   27.09
  -3  -2  -4  453.57   26.52
  -3  -2  -5   10.04    3.26
   3   2   5   10.27    3.96
  -3  -2  -6   16.55    5.31
   3   2   6   18.73    5.40
   3   2   7  108.64    7.36
   3   2   7  123.89   13.52
  -3  -2  -7  117.37   13.85
   3   2   8  106.26    9.12
   3   2   8  122.02   13.70
  -3  -2  -8  112.11   13.93
   3   2   9   22.22    6.03
   3   2   9   23.41    5.64
   3   2  10   -1.81    3.05
   3   2  10    2.55    3.58
   3   2  11  922.31   45.87
   3   2  11  990.39   45.68
   3   2  12   71.49   10.94
   3   2  12   64.50   11.91
   3   2  13    9.00    4.07
   3   2  13   10.69    7.18
   3   2  14    1.22    2.59
   3   2  15   16.00    6.25
  -3  -3  13   85.45   17.21
  -3  -3  12    3.78    4.97
  -3  -3  11   -0.81    4.56
  -3  -3  10    6.97    6.21
  -3  -3   9    2.99    3.62
  -3  -3   8    3.60    2.99
  -3  -3   7   24.60    8.40
  -3  -3   6    2.05    3.99
   3   3  -5   11.84    5.57
   3   3  -5    9.90    1.47
  -3  -3   5    9.21    4.61
   3   3  -4    3.87    4.16
   3   3  -4    1.94    1.35
  -3  -3   4    9.09    4.82
  -3  -3   4    2.85    0.73
  -3  -3   3  106.60   13.31
   3   3  -3  111.06   14.69
  -3  -3   3  104.63    6.74
   3   3  -3  109.76    9.60
  -3  -3   2  368.72   23.49
   3   3  -2  355.50   25.89
  -3  -3   2  347.05   16.43
   3   3  -2  360.49   20.65
  -3  -3   1  157.84   13.78
   3   3  -1  165.54   15.69
   3   3  -1  164.17   14.20
  -3  -3   1  154.30   11.60
  -3  -3   0  111.05   10.11
   3   3   0  101.74   10.89
  -3  -3   0  102.55    9.68
   3   3   0  102.57   12.00
   3   3   1    4.00    2.09
  -3  -3  -1    3.82    2.34
  -3  -3  -1    3.16    1.82
   3   3   1    4.90    3.56
   3   3   2   16.26    2.65
  -3  -3  -2   13.32    3.58
  -3  -3  -2   20.09    2.58
   3   3   2   26.08    6.40
   3   3   3  541.67   31.77
  -3  -3  -3  526.48   28.99
   3   3   4  741.22   38.14
  -3  -3  -4  644.83   34.82
   3   3   5 1738.24   66.50
  -3  -3  -5 1630.97   64.81
   3   3   6  939.81   45.81
  -3  -3  -6  998.96   47.18
   3   3   7   16.80    5.47
  -3  -3  -7   22.16    6.18
   3   3   8   20.69    3.24
   3   3   8   22.53    6.72
   3   3   9   43.79    6.20
   3   3   9   49.47    9.43
   3   3  10  514.39   27.66
   3   3  10  621.95   35.94
   3   3  11  541.85   30.80
   3   3  11  518.85   32.75
   3   3  12  575.58   33.85
   3   3  12  499.64   32.66
   3   3  13  351.95   26.67
   3   3  14    2.55    3.55
   3   3  15   14.48    5.50
   3   3  16   31.09    7.79
  -3  -4  12  137.86   21.84
  -3  -4  11   -1.02    6.26
  -3  -4  10   14.04    6.46
  -3  -4   9   25.77    9.28
  -3  -4   8   70.23   12.90
  -3  -4   7  452.46   34.65
   3   4  -6   48.06    4.84
  -3  -4   6   36.01    9.13
  -3  -4   5  418.63   30.85
  -3  -4   5  414.73   12.31
   3   4  -5  480.40   21.43
  -3  -4   4  117.60   14.72
   3   4  -4  134.20   18.80
  -3  -4   4  120.35    6.34
   3   4  -4  137.65   12.02
  -3  -4   3  495.50   30.17
   3   4  -3  477.78   36.49
  -3  -4   3  510.17   19.14
   3   4  -3  528.38   28.62
  -3  -4   2 1116.07   47.14
   3   4  -2 1152.52   57.98
  -3  -4   2 1151.06   37.76
   3   4  -2 1145.70   49.49
   3   4  -1  396.26   27.30
  -3  -4   1  423.52   23.25
   3   4  -1  372.88   29.63
  -3  -4   1  409.98   20.26
  -3  -4   0 1409.00   47.53
   3   4   0 1284.92   59.31
  -3  -4   0 1395.02   49.27
   3   4   0 1396.95   59.66
   3   4   1    9.56    4.83
  -3  -4  -1    4.88    2.20
   3   4   1    2.95    3.57
  -3  -4  -2  235.49   11.01
   3   4   2  220.28   17.55
   3   4   2  231.33   21.27
  -3  -4  -2  239.75   18.43
   3   4   3  208.61   14.79
   3   4   3  214.29   20.70
  -3  -4  -3  213.12   18.21
   3   4   4  736.72   25.97
   3   4   4  667.96   39.94
  -3  -4  -4  673.57   36.33
   3   4   5 1787.42   72.88
  -3  -4  -5 1790.48   69.49
   3   4   6  138.84   17.24
  -3  -4  -6  135.36   15.72
   3   4   7  396.55   29.72
   3   4   8    6.20    4.20
   3   4   9  154.84   10.59
   3   4   9  165.72   18.90
   3   4  10   -1.93    2.87
   3   4  10    0.27    3.60
   3   4  11   55.53   10.47
   3   4  11   69.35    9.51
   3   4  12  417.43   26.60
   3   4  12  325.95   27.51
   3   4  13   26.24    8.38
   3   4  14    2.69    2.44
   3   4  15   -4.35    4.56
   3   4  16   81.45   13.44
  -3  -5  11  187.97   25.34
  -3  -5  10  133.23   20.63
  -3  -5   9   26.39    8.70
  -3  -5   8  253.68   26.73
   3   5  -7   17.03    3.14
  -3  -5   7   12.44    5.02
  -3  -5   6  380.28   30.87
   3   5  -6  457.47   23.39
  -3  -5   5   13.51    5.36
   3   5  -5   17.08    5.29
  -3  -5   5   14.17    2.05
  -3  -5   4   68.72    5.38
  -3  -5   4   63.05   10.65
   3   5  -4   85.07   12.47
  -3  -5   3   57.37    5.55
  -3  -5   3   52.48    9.27
   3   5  -3   57.41   10.70
   3   5  -2    5.67    5.10
  -3  -5   2    8.82    3.98
  -3  -5   2    4.71    1.78
   3   5  -2    3.14    3.42
  -3  -5   1  417.25   23.33
  -3  -5   1  422.43   20.69
   3   5  -1  359.09   30.49
   3   5  -1  416.04   32.67
  -3  -5   0    4.46    2.75
  -3  -5   0    3.86    2.26
   3   5   0    4.02    4.59
   3   5   0   -2.05    3.61
  -3  -5  -1    5.00    2.24
  -3  -5  -1    4.22    2.06
   3   5   1    3.99    2.13
   3   5   1   -0.04    2.89
  -3  -5  -2  186.98   16.66
  -3  -5  -2  162.15    9.82
   3   5   2  159.76   16.67
   3   5   2  177.57   21.17
   3   5   3  201.43   17.32
  -3  -5  -3  229.00   19.90
   3   5   3  234.83   23.95
   3   5   4   23.32    7.40
  -3  -5  -4   22.77    6.71
   3   5   4   21.74    5.14
   3   5   5   13.20    6.34
   3   5   5    7.23    3.18
   3   5   6  300.33   14.91
   3   5   6  341.80   28.73
   3   5   7    1.66    0.87
   3   5   7   -0.69    3.60
   3   5   7   -0.28    1.38
   3   5   8  152.54    8.28
   3   5   8  173.21   20.40
   3   5   9  132.90    7.64
   3   5   9  150.94   18.72
   3   5  10  185.46   13.36
   3   5  10  119.44   17.46
   3   5  11    5.09    2.61
   3   5  11   -1.78    4.82
   3   5  12    2.67    3.97
   3   5  13  369.36   30.91
   3   5  14   20.49    7.48
   3   5  15    2.48    4.72
   3   5  16   -0.86    3.15
  -3  -6  10   -1.75    3.88
  -3  -6   9   -5.58    7.27
  -3  -6   8    8.40    3.08
  -3  -6   7    7.77    5.23
  -3  -6   6    3.50    4.70
   3   6  -6    4.68    3.75
   3   6  -5    6.98    4.87
  -3  -6   5    4.12    1.51
  -3  -6   5    1.19    3.18
   3   6  -4   53.91   11.51
  -3  -6   4   42.28    4.85
  -3  -6   4   42.67    9.14
  -3  -6   3   54.30    9.77
  -3  -6   3   47.32    5.70
   3   6  -3   43.08   11.25
  -3  -6   2    5.97    4.42
  -3  -6   2    2.99    1.81
  -3  -6   1  126.25   12.55
   3   6  -1   81.03   15.91
  -3  -6   1  114.94   10.42
   3   6  -1   92.84   16.04
  -3  -6   0  230.28   15.55
   3   6   0  207.86   22.89
  -3  -6   0  241.52   16.57
   3   6   0  208.81   25.72
   3   6   1   13.02    6.78
  -3  -6  -1   14.84    3.76
  -3  -6  -1   16.97    4.48
   3   6   1   18.02    6.60
   3   6   2   -0.68    4.64
  -3  -6  -2    1.77    1.51
  -3  -6  -2    5.03    3.17
   3   6   2   -1.20    3.16
   3   6   3  111.71   13.78
   3   6   3  114.19   18.29
   3   6   4   14.65    5.41
   3   6   4   13.68    7.21
   3   6   5  243.39   17.95
   3   6   5  258.28   26.81
   3   6   6  215.99   15.72
   3   6   6  244.75   25.95
   3   6   7  709.35   30.09
   3   6   7  782.51   48.03
   3   6   8  303.29   16.65
   3   6   8  336.84   30.66
   3   6   9   29.21    3.98
   3   6   9   32.91   10.41
   3   6   9   40.17    5.89
   3   6  10    1.62    2.92
   3   6  10    2.03    1.73
   3   6  11   19.23    8.48
   3   6  12  421.58   35.36
   3   6  13  247.04   26.77
   3   6  14  310.29   29.90
   3   6  15  116.49   17.75
   3   6  16    7.82    6.34
  -3  -7   8    5.42    5.37
  -3  -7   7   24.69    8.54
  -3  -7   6   81.10   14.58
  -3  -7   5  133.91   17.72
   3   7  -5  162.38   21.83
   3   7  -4   34.07   10.89
  -3  -7   4   37.10    9.07
  -3  -7   3   84.58   12.46
  -3  -7   3   71.13    7.57
   3   7  -3   62.59   16.04
  -3  -7   2   16.91    5.03
   3   7  -2   15.44    8.38
  -3  -7   2   24.89    5.04
  -3  -7   1  334.59   21.65
  -3  -7   1  331.16   19.47
  -3  -7   0  645.35   29.87
   3   7   0  503.10   46.98
  -3  -7  -1  234.95   15.51
   3   7   1  202.10   28.61
   3   7   1  217.29   24.02
   3   7   2  543.11   37.96
   3   7   2  585.06   47.53
   3   7   3    7.54    5.30
   3   7   3   11.61    6.34
   3   7   4   56.65   10.97
   3   7   4   67.91   15.30
   3   7   5  133.61   14.87
   3   7   5  170.29   23.96
   3   7   6  483.07   29.82
   3   7   6  530.77   42.37
   3   7   7 1140.73   47.95
   3   7   7 1062.67   62.08
   3   7   8  103.37   17.65
   3   7   9  143.43   20.86
   3   7  10    0.90    5.68
   3   7  11   12.84    6.55
   3   7  12   34.76    9.99
   3   7  13   57.29   13.02
   3   7  14  206.89   26.06
   3   7  15   -2.72    5.51
  -3  -8   7   28.91    8.98
  -3  -8   6  325.96   29.44
  -3  -8   5   11.58    5.39
  -3  -8   4  288.26   25.16
   3   8  -4  429.27   43.47
  -3  -8   3    1.63    2.52
   3   8  -3   13.10    8.13
  -3  -8   2   59.63   10.23
   3   8  -2   36.83   14.41
  -3  -8   1  199.79   17.40
   3   8  -1  150.83   28.78
  -3  -8   0   29.61    6.51
   3   8   0   17.56   10.63
   3   8   1  791.97   63.56
   3   8   2   10.99    9.45
   3   8   3   12.74    8.99
   3   8   3   27.20    9.16
   3   8   4   46.20   14.47
   3   8   4   16.81    7.54
   3   8   5   11.40    4.25
   3   8   5   26.53   11.23
   3   8   6    7.37    7.59
   3   8   7   10.23    7.60
   3   8   8  188.94   25.42
   3   8   9    2.73    6.25
   3   8  10   80.69   16.53
   3   8  11   80.47   16.29
   3   8  12   47.72   13.53
   3   8  13   -3.00    7.29
  -3  -9   5   52.23   11.55
  -3  -9   4    2.24    3.40
   3   9  -3   -5.30    9.03
  -3  -9   3   -1.48    2.69
  -3  -9   2   46.06    8.98
   3   9  -2   60.28   20.82
  -3  -9   1   13.65    5.57
   3   9  -1    8.39   13.06
   3   9   0   -3.41   11.41
   3   9   1   30.70   15.59
   3   9   2   40.74   16.81
   3   9   3   25.78   12.57
   3   9   4   19.64   11.73
   3   9   5  205.55   30.81
   3   9   6   18.80   10.47
   3   9   7   55.85   15.89
   3   9   8   70.51   16.83
   3   9   9  198.06   27.86
   3   9  10   40.69   13.90
   3   9  11   -6.63    5.71
   3  10  -2   12.14   18.36
   3  10  -1    3.84    9.58
   3  10   0    9.49   14.89
   3  10   1  154.69   33.97
   3  10   2  219.38   39.29
   3  10   3   76.61   22.23
   3  10   4  123.29   26.88
   3  10   5   -9.40   10.50
   3  10   6   48.13   15.76
   3  10   7   81.98   21.66
   3  10   8  296.84   36.69
   3  11  -1   -5.44    9.54
   3  11   0   36.48   21.04
   3  11   1  164.90   39.01
   3  11   2   26.94   15.99
   3  11   3  507.62   62.54
   3  11   4  -12.23   12.61
  -4   8  12  102.79   17.27
  -4   8  10   -1.41    3.25
  -4   8   9   15.16    6.70
  -4   8   8  -10.54    5.41
  -4   8   7    7.81    4.95
  -4   8   6   54.09   11.29
  -4   8   5   40.57   10.00
  -4   8   4   13.02    6.19
  -4   8   3    9.67    5.44
  -4   8   2  247.91   25.79
  -4   8   1   -6.16    5.16
  -4   8   0   -3.67    4.28
  -4   8  -1   64.29   14.28
  -4   8  -2   58.73   13.78
  -4   8  -3    4.57    7.34
  -4   8  -4   -0.87    5.72
  -4   7  12   39.74   10.17
  -4   7  12   29.09    9.26
  -4   7  11   -8.19    5.38
  -4   7  10    6.56    5.11
  -4   7   9    6.55    5.27
  -4   7   8  104.38   15.31
  -4   7   7    1.60    2.64
  -4   7   6   18.58    6.80
  -4   7   5  314.55   26.22
  -4   7   4   14.61    5.32
  -4   7   3   48.03    9.88
  -4   7   2    1.98    3.76
  -4   7   1   13.92    5.37
  -4   7   0   13.46    6.23
  -4   7  -1  165.11   20.13
  -4   7  -2  752.47   46.87
  -4   7  -3    4.15    5.27
  -4   7  -4  161.94   21.65
  -4   7  -5    4.92    3.45
  -4   7  -6    3.56    5.37
  -4   7  -7   37.63   12.01
  -4   7  -8   45.08   12.81
  -4   6  12    4.85    3.88
  -4   6  11  272.75   25.66
  -4   6  10    4.37    3.54
  -4   6   9   73.16   12.40
  -4   6   8    7.12    3.56
  -4   6   7   10.48    4.66
  -4   6   6  192.02   18.75
  -4   6   5   17.86    4.75
  -4   6   4 1262.82   54.82
  -4   6   3  117.91   14.31
  -4   6   2  101.91   13.38
  -4   6   1   -0.42    3.19
  -4   6   0    5.28    4.01
  -4   6  -1  281.33   24.01
  -4   6  -2    0.30    2.31
  -4   6  -3  805.77   46.35
  -4   6  -4   81.40   14.46
  -4   6  -5    7.00    6.98
  -4   6  -6   25.37    9.03
  -4   6  -7   17.78    8.12
  -4   6  -8   15.70    8.77
  -4   6  -9    7.75    6.16
  -4   5  13    6.33    4.84
  -4   5  12  156.20   17.28
  -4   5  11   70.41   11.81
  -4   5  10  454.20   31.18
  -4   5   9  124.64   14.90
  -4   5   8   13.98    4.82
  -4   5   7   37.35    7.58
  -4   5   6   -0.31    2.67
  -4   5   5  184.15   16.65
  -4   5   4  258.36   19.69
  -4   5   3  401.40   25.16
  -4   5   2   27.43    6.35
  -4   5   1   34.25    7.37
  -4   5   0  587.62   32.89
  -4   5  -1   -1.20    2.10
  -4   5  -2   14.10    4.97
  -4   5  -3  127.98   15.54
  -4   5  -4   89.47   13.59
  -4   5  -5    1.43    3.29
  -4   5  -6   16.09    6.28
  -4   5  -7  149.90   19.80
  -4   5  -8    8.76    5.39
  -4   5  -9   39.63   10.22
  -4   5 -10   75.07   15.24
  -4   4  14    6.27    5.52
  -4   4  13   31.89    9.53
  -4   4  12   -3.03    2.50
  -4   4  12   -1.34    2.01
  -4   4  11    9.71    4.30
  -4   4  11   15.23    5.30
  -4   4  10  211.52   19.15
  -4   4   9    0.55    2.04
  -4   4   8    2.33    3.18
  -4   4   7   14.94    4.87
  -4   4   6  447.91   25.56
  -4   4   5   14.74    4.45
  -4   4   4   61.28    8.48
  -4   4   3  548.47   28.05
  -4   4   2   14.14    4.48
  -4   4   1   13.47    4.62
  -4   4   0    9.61    4.05
  -4   4  -1  170.24   15.78
  -4   4  -2   18.23    5.17
  -4   4  -3  374.68   26.07
  -4   4  -4  997.36   47.69
  -4   4  -5    8.55    5.20
  -4   4  -6  141.02   16.72
  -4   4  -7    1.35    2.84
  -4   4  -8    1.91    3.40
  -4   4  -9   60.41   11.92
  -4   4 -10   58.21   12.99
  -4   4 -11  381.65   32.92
  -4   3  14   -7.15    7.37
  -4   3  13   40.14   11.16
  -4   3  12   25.95    8.78
  -4   3  11    9.97    5.72
  -4   3  11    8.48    3.29
  -4   3  10   14.52    5.71
  -4   3  10   10.78    3.48
  -4   3   9  659.05   32.69
   4  -3  -9  634.08   39.29
  -4   3   8    2.82    2.27
   4  -3  -8    1.65    2.08
  -4   3   7    3.15    2.16
   4  -3  -7    9.69    4.20
   4  -3  -6  111.97   13.44
  -4   3   6  100.52   10.13
  -4   3   5    0.26    1.75
   4  -3  -5    3.66    2.62
  -4   3   4  469.25   23.58
   4  -3  -4  464.12   26.05
  -4   3   3  103.62   10.03
   4  -3  -3  105.97   11.42
   4  -3  -2 2688.48   84.52
  -4   3   2 2678.53   82.08
  -4   3   1  198.82   15.04
   4  -3  -1  207.07   15.54
  -4   3   0   99.91   10.43
  -4   3  -1    2.89    2.65
  -4   3  -2   14.63    3.46
  -4   3  -2   18.22    5.11
  -4   3  -3  853.70   39.93
  -4   3  -4    1.39    3.25
  -4   3  -5 1584.35   64.08
  -4   3  -6  167.23   17.89
  -4   3  -7    9.09    4.79
  -4   3  -8    2.42    3.03
  -4   3  -9    7.04    5.70
  -4   3 -10   93.71   15.20
  -4   3 -11   -0.16    5.02
  -4   3 -12  129.22   18.37
  -4   2  14   23.40    9.41
  -4   2  13   32.50   10.12
  -4   2  12    8.15    3.91
  -4   2  11   24.84    8.05
  -4   2  11   17.87    3.97
  -4   2  10  514.69   34.04
   4  -2 -10  493.23   31.22
  -4   2  10  518.62   24.36
  -4   2   9  157.28   17.06
  -4   2   9  153.68   13.24
   4  -2  -9  128.17   14.80
  -4   2   8 1192.90   43.74
   4  -2  -8 1148.00   49.73
  -4   2   7  277.81   16.64
   4  -2  -7  242.52   19.06
  -4   2   6   26.54    4.75
   4  -2  -6   29.60    6.14
  -4   2   5   27.43    4.74
   4  -2  -5   23.64    5.04
  -4   2   4    4.60    2.07
   4  -2  -4    3.34    2.23
  -4   2   3 1414.76   46.65
   4  -2  -3 1377.94   50.29
   4  -2  -2  829.78   34.59
  -4   2   2  858.48   32.97
  -4   2   1 1390.92   47.77
   4  -2  -1 1453.69   50.57
   4  -2   0   77.54    8.76
  -4   2   0   73.32    8.47
   4  -2   1   73.42    8.97
  -4   2  -1   62.04    8.26
  -4   2  -2  502.80   22.19
  -4   2  -2  566.77   29.13
  -4   2  -2  489.73   26.25
   4  -2   2  556.08   27.47
  -4   2  -3    5.05    1.93
  -4   2  -3    4.31    2.39
  -4   2  -4  233.03   14.45
  -4   2  -4  224.50   18.24
  -4   2  -5  148.69   12.31
  -4   2  -5  168.56   16.31
  -4   2  -6   92.44   10.27
  -4   2  -6   97.70   13.01
  -4   2  -7    4.13    3.38
  -4   2  -8    2.01    2.65
  -4   2  -9  201.81   20.72
  -4   2 -10   13.94    6.11
  -4   2 -11   17.66    6.45
  -4   2 -12   44.78   10.46
  -4   2 -13   18.37    6.91
  -4   1  14  104.58   20.19
  -4   1  13   59.02   14.16
  -4   1  12   38.09   11.69
  -4   1  11   33.17    9.56
  -4   1  10   -0.57    3.29
  -4   1  10    1.17    1.30
  -4   1   9  194.99   19.88
  -4   1   9  189.42   13.38
   4  -1  -9  177.56   14.26
  -4   1   9  206.75   11.66
  -4   1   8  668.29   27.32
  -4   1   8  645.65   36.33
   4  -1  -8  622.23   29.57
   4  -1  -7   32.65    5.89
  -4   1   7   40.74    8.02
  -4   1   7   41.27    5.40
  -4   1   6   65.56    6.49
   4  -1  -6   59.11    7.71
   4  -1  -5   10.35    3.13
  -4   1   5    7.92    2.20
  -4   1   4  875.49   30.50
   4  -1  -4  835.06   34.20
   4  -1  -3   19.92    4.24
  -4   1   3   21.28    3.91
  -4   1   2  224.77   13.01
   4  -1  -2  226.34   15.10
  -4   1   1  519.79   25.75
  -4   1   1  487.04   22.48
   4  -1  -1  511.54   24.99
   4  -1   0   32.78    5.88
  -4   1   0   39.11    5.41
  -4   1   0   34.39    6.05
  -4   1  -1  289.08   18.96
  -4   1  -1  270.97   16.87
  -4   1  -2   24.76    5.31
  -4   1  -2   29.47    5.88
  -4   1  -3  490.83   20.11
  -4   1  -3  536.63   28.58
  -4   1  -3  508.37   26.71
  -4   1  -4    0.17    1.45
  -4   1  -4    2.59    1.46
  -4   1  -5  278.84   15.76
  -4   1  -5  272.17   20.53
  -4   1  -6  870.43   34.80
  -4   1  -6  828.06   40.73
  -4   1  -7    0.61    3.03
  -4   1  -7   -2.61    2.54
  -4   1  -8   39.58    8.61
  -4   1  -8   18.18    4.91
  -4   1  -9    2.85    3.20
  -4   1 -10    6.17    4.24
  -4   1 -11  104.76   14.81
  -4   1 -12   45.01   10.42
   4  -1  13  268.82   28.39
  -4   1 -13  300.71   26.59
  -4   1 -14   12.59    6.34
  -4   0  14  170.24   25.65
  -4   0  13    1.99    4.41
  -4   0  12   44.75   12.69
  -4   0  11   64.62   14.19
  -4   0  10  108.77   17.62
  -4   0   9   39.92    9.20
  -4   0   8   32.66    8.21
   4   0  -8   23.73    4.05
  -4   0   8   26.60    2.52
  -4   0   8   20.43    3.35
  -4   0   8   19.67    2.15
  -4   0   7  865.24   27.07
  -4   0   7  843.79   42.98
  -4   0   7  811.77   28.18
   4   0  -7  829.08   31.65
   4   0  -6   17.45    3.65
  -4   0   6   15.77    5.23
  -4   0   6   20.49    3.28
  -4   0   6   17.12    2.86
   4   0  -5  117.00   10.13
  -4   0   5  116.45    8.65
  -4   0   5  116.10   12.57
  -4   0   5  110.09    7.33
  -4   0   4  292.64   15.50
  -4   0   4  291.40   13.50
   4   0  -4  290.22   17.09
  -4   0   3    0.74    1.23
  -4   0   3    0.93    0.84
  -4   0   2  817.49   32.82
  -4   0   2  829.04   29.01
  -4   0   1  145.18   12.07
  -4   0   1  150.86   10.41
  -4   0   0 3785.69  110.24
  -4   0   0 3818.43  105.60
  -4   0  -1   79.38    9.34
  -4   0  -1   81.65    8.43
  -4   0  -2   23.32    4.97
  -4   0  -2   32.61    6.28
  -4   0  -3    3.48    2.11
  -4   0  -3    5.08    2.64
  -4   0  -3    7.23    1.67
  -4   0  -4  166.08    9.39
  -4   0  -4  193.71   16.77
  -4   0  -4  144.09   13.91
  -4   0  -5 1362.81   43.31
  -4   0  -5 1477.58   57.69
  -4   0  -5 1318.03   53.97
  -4   0  -6   21.62    5.90
  -4   0  -6   15.97    3.58
  -4   0  -7 1591.02   53.98
  -4   0  -7 1459.99   61.16
  -4   0  -8  182.07   15.43
  -4   0  -8  167.31   17.56
  -4   0  -9   11.98    4.76
  -4   0  -9   14.04    4.62
  -4   0 -10   23.84    6.97
  -4   0 -10   23.05    6.43
  -4   0 -11    2.53    3.35
   4   0  11    7.06    5.11
   4   0  12  136.25   17.73
  -4   0 -12  159.66   18.29
  -4   0 -13    9.31    5.06
  -4   0 -14  113.41   15.98
  -4   0 -15   21.69    7.46
  -4  -1  13  334.06   35.23
  -4  -1  12    4.36    5.01
  -4  -1  11   12.79    6.98
  -4  -1  10   73.64   14.91
  -4  -1   9   63.53   14.09
  -4  -1   8 1038.19   56.83
  -4  -1   7  161.60   19.30
  -4  -1   6 1884.28   74.67
  -4  -1   6 1846.33   49.18
  -4  -1   6 1800.37   49.19
  -4  -1   5  115.16   13.98
  -4  -1   5  118.97    8.30
  -4  -1   5  116.54    6.53
  -4  -1   4    9.54    4.00
  -4  -1   4    7.80    2.35
  -4  -1   4    8.55    1.81
  -4  -1   3    9.72    3.41
  -4  -1   3    7.85    2.62
  -4  -1   3    5.98    1.55
  -4  -1   2   40.28    6.40
  -4  -1   2   47.86    6.52
  -4  -1   2   39.35    4.47
  -4  -1   1 2879.24   88.43
  -4  -1   1 2991.79   82.35
   4   1   0  774.66   31.08
  -4  -1   0  768.38   34.26
  -4  -1   0  808.04   30.63
   4   1   1 1442.49   49.76
  -4  -1  -1 1448.81   53.76
   4   1   2  212.35   15.45
  -4  -1  -2  195.45   16.39
   4   1   3   42.36    6.99
  -4  -1  -3   42.18    7.98
  -4  -1  -4  148.94    7.48
   4   1   4  150.68   13.95
  -4  -1  -4  153.23   15.54
   4   1   5    2.62    3.07
  -4  -1  -5   -0.65    1.08
  -4  -1  -5    3.40    3.23
   4   1   6  509.39   28.67
  -4  -1  -6  470.41   20.51
   4   1   7  273.88   20.47
  -4  -1  -7  228.70   14.84
   4   1   8   79.50   11.10
  -4  -1  -8   69.02    8.49
  -4  -1  -9    1.26    2.21
   4   1   9   -0.93    2.08
  -4  -1 -10    7.86    3.52
   4   1  10   -0.66    2.28
   4   1  11   83.03   12.09
   4   1  11  108.46   13.87
   4   1  12   14.20    6.52
  -4  -1 -13    6.36    3.48
  -4  -1 -14   13.95    5.71
  -4  -1 -15   -0.36    3.27
  -4  -2  13  298.38   33.95
  -4  -2  12  214.46   27.54
  -4  -2  11   39.46   12.12
  -4  -2  10   20.57    9.63
  -4  -2   9   15.68    8.74
  -4  -2   8   24.40    8.74
  -4  -2   7  918.56   52.39
  -4  -2   6 1138.53   57.93
  -4  -2   5   36.27    2.57
  -4  -2   5   38.83    8.44
  -4  -2   4   27.77    3.94
  -4  -2   4   24.90    2.68
  -4  -2   4   23.71    6.76
  -4  -2   3    5.70    1.57
  -4  -2   3    3.44    1.16
   4   2  -3    3.08    1.74
  -4  -2   3    4.31    2.43
   4   2  -2  407.21   18.90
  -4  -2   2  403.18   25.57
  -4  -2   2  414.43   21.21
  -4  -2   2  430.63   17.65
  -4  -2   1   -0.17    2.36
  -4  -2   1    1.91    1.31
   4   2  -1    2.51    1.57
   4   2   0  455.92   23.31
  -4  -2   0  491.71   23.35
  -4  -2   0  439.56   24.93
   4   2   1  510.80   26.36
  -4  -2  -1  490.12   21.82
  -4  -2  -1  540.57   28.55
   4   2   2   40.16    7.07
  -4  -2  -2   41.20    4.67
  -4  -2  -2   38.37    7.36
   4   2   3  467.17   27.09
  -4  -2  -3  469.04   16.84
  -4  -2  -3  469.14   28.46
  -4  -2  -4   12.37    4.83
  -4  -2  -4   17.18    1.68
   4   2   4   20.07    5.64
  -4  -2  -5  306.77   10.90
   4   2   5  329.67   23.21
  -4  -2  -5  326.61   24.36
   4   2   6    2.14    2.57
  -4  -2  -6    0.29    0.60
   4   2   7  189.25   17.90
  -4  -2  -7  187.00    9.07
   4   2   8  349.85   25.12
  -4  -2  -8  312.16   14.09
   4   2   9    3.96    3.22
   4   2  10    4.19    3.88
   4   2  11    1.73    2.84
   4   2  11    5.17    4.05
   4   2  12    2.32    2.77
   4   2  13   58.69   10.13
   4   2  14   24.30    7.87
  -4  -2 -16    7.08    5.31
  -4  -3  12  256.92   30.55
  -4  -3  11    1.94    4.67
  -4  -3  10  149.66   21.78
  -4  -3   9  107.61   17.68
  -4  -3   8   74.23   14.30
  -4  -3   7   94.37   15.83
  -4  -3   6   37.49    9.50
  -4  -3   5  537.53   36.79
  -4  -3   4    3.92    1.18
   4   3  -4    5.70    1.81
   4   3  -4    0.58    2.51
  -4  -3   4    2.28    0.77
  -4  -3   4   -1.08    2.29
  -4  -3   3  615.98   36.23
   4   3  -3  595.03   24.55
   4   3  -3  607.13   34.34
  -4  -3   3  602.87   24.87
  -4  -3   2  320.22   23.49
   4   3  -2  328.65   18.64
  -4  -3   2  276.30   16.22
  -4  -3   1    8.12    2.23
   4   3  -1    4.19    2.72
  -4  -3   1    3.24    2.52
  -4  -3   0  502.58   26.74
   4   3   0  512.41   28.39
  -4  -3   0  538.70   27.84
  -4  -3  -1   98.37    9.47
   4   3   1  102.26   12.64
  -4  -3  -1   90.33   10.85
  -4  -3  -2 1808.08   54.02
   4   3   2 1860.28   69.24
  -4  -3  -2 1758.29   65.65
  -4  -3  -3   28.90    2.72
   4   3   3   23.68    6.13
  -4  -3  -3   28.44    6.69
  -4  -3  -4   -2.81    3.17
   4   3   4    2.19    2.41
   4   3   5    2.99    2.89
  -4  -3  -5    6.17    3.76
   4   3   6  175.63   18.42
   4   3   7 1153.71   54.24
   4   3   8   19.46    6.85
   4   3   9 1116.84   53.10
   4   3  10  194.19   19.68
   4   3  11   80.62   12.87
   4   3  12   54.39   10.60
   4   3  13   20.78    7.01
   4   3  14  149.47   17.94
   4   3  15    6.70    4.32
   4   3  16   99.67   14.96
  -4  -4  11  229.92   28.09
  -4  -4  10    0.45    3.39
  -4  -4   9   18.82    8.62
  -4  -4   8  116.07   18.57
  -4  -4   7   48.14   11.77
  -4  -4   6 1126.51   58.68
   4   4  -5   87.37    6.86
  -4  -4   5  107.20   15.64
  -4  -4   4 1163.17   56.30
   4   4  -4 1174.08   41.71
  -4  -4   4 1208.16   35.42
   4   4  -3   49.36   10.95
  -4  -4   3   44.50    5.18
   4   4  -3   45.98    7.46
  -4  -4   3   48.62    9.68
   4   4  -2    4.87    2.67
  -4  -4   2    4.17    1.85
  -4  -4   2    9.16    4.35
   4   4  -2    4.99    2.74
   4   4  -1   23.46    6.66
  -4  -4   1   20.51    4.61
  -4  -4   1   22.49    5.54
   4   4  -1   24.68    6.73
  -4  -4   0   98.82   10.50
   4   4   0   98.88   11.66
   4   4   0  107.66   14.78
  -4  -4   0  103.08   11.35
  -4  -4  -1 2933.85   82.70
   4   4   1 2739.48   85.07
   4   4   1 2787.65  100.64
  -4  -4  -1 2782.84   90.36
  -4  -4  -2  414.50   17.35
   4   4   2  410.21   30.85
  -4  -4  -2  369.10   24.40
  -4  -4  -3  943.50   27.11
   4   4   3  957.84   50.93
  -4  -4  -3  871.93   42.76
   4   4   4  300.24   26.88
  -4  -4  -4  285.50   22.87
   4   4   5    4.48    4.01
   4   4   6   10.75    5.72
   4   4   7    2.50    3.69
   4   4   8  561.58   37.69
   4   4   9  242.62   24.06
   4   4  10   84.86   13.81
   4   4  11   26.87    7.72
   4   4  12   -3.31    3.83
   4   4  13    5.37    3.27
   4   4  14   -2.79    4.05
   4   4  15   10.57    5.72
   4   4  16   14.80    6.20
  -4  -5  10  180.03   24.36
  -4  -5   9    3.42    4.54
  -4  -5   8   18.32    7.19
  -4  -5   7   23.91    8.45
   4   5  -6   31.88    3.97
  -4  -5   6   25.50    7.09
  -4  -5   5 1175.71   58.94
   4   5  -5 1222.81   44.23
  -4  -5   5 1239.23   33.68
  -4  -5   4  816.06   45.33
  -4  -5   4  884.93   28.54
   4   5  -4  932.03   40.19
   4   5  -3   36.10    7.93
  -4  -5   3   36.88    8.11
  -4  -5   3   41.83    5.21
   4   5  -2    4.10    4.14
   4   5  -2    2.79    3.17
  -4  -5   2   -2.98    4.11
  -4  -5   2    1.90    1.66
   4   5  -1    5.05    2.35
   4   5  -1    2.82    2.78
  -4  -5   1    6.22    2.28
  -4  -5   1    2.38    2.13
   4   5   0   11.91    5.33
   4   5   0    7.92    3.90
  -4  -5   0   13.74    4.11
  -4  -5   0   14.63    4.09
   4   5   1   27.38    7.09
   4   5   1   27.26    8.75
  -4  -5  -1   32.84    5.21
  -4  -5  -1   31.20    6.47
  -4  -5  -2  522.64   21.08
   4   5   2  523.95   30.37
   4   5   2  528.15   39.08
  -4  -5  -2  499.69   30.34
  -4  -5  -3  381.81   14.64
   4   5   3  390.51   21.14
   4   5   3  401.06   33.53
   4   5   4   -0.51    3.94
   4   5   4   11.07    2.35
   4   5   5  257.00   27.25
   4   5   6   -3.63    5.50
   4   5   7   50.73   11.82
   4   5   8   13.70    7.20
   4   5   9   66.54   13.34
   4   5  10   32.12    9.80
   4   5  11    0.20    4.40
   4   5  12   -3.60    3.21
   4   5  13    8.47    5.83
   4   5  14   -3.56    5.93
   4   5  15    3.49    3.64
  -4  -6   9   -3.82    6.74
  -4  -6   8  101.38   17.51
  -4  -6   7   49.66   11.37
  -4  -6   6    5.14    4.10
   4   6  -5  119.67   13.03
  -4  -6   5  111.89   15.97
   4   6  -4   42.24    8.46
  -4  -6   4   42.03    4.66
  -4  -6   4   27.07    7.79
  -4  -6   3  171.32   17.59
  -4  -6   3  154.99   10.75
   4   6  -3  182.30   20.13
   4   6  -2   -2.42    4.48
  -4  -6   2    2.82    2.74
  -4  -6   2    0.91    1.21
  -4  -6   1  735.68   34.97
   4   6  -1  669.42   50.21
  -4  -6   1  674.93   30.69
   4   6  -1  704.02   47.84
  -4  -6   0  159.32   13.38
   4   6   0  122.52   19.41
  -4  -6   0  145.91   13.45
   4   6   0  121.98   20.18
   4   6   1    8.04    3.43
  -4  -6  -1    6.62    3.05
  -4  -6  -1    4.32    2.38
   4   6   1    0.41    3.03
  -4  -6  -2  127.09    9.53
   4   6   2  117.32   19.57
   4   6   2  112.53   17.72
   4   6   3   34.04   10.52
   4   6   3   23.16    6.54
   4   6   4  320.66   24.60
   4   6   4  332.11   33.51
   4   6   5   15.11    6.53
   4   6   5   23.51    4.69
   4   6   6   19.44    7.57
   4   6   7   -2.84    4.66
   4   6   8   42.35   11.12
   4   6   9  348.87   33.44
   4   6  10    0.93    3.54
   4   6  11  405.31   35.42
   4   6  12   75.02   14.57
   4   6  13   60.37   12.85
   4   6  14   97.33   16.61
   4   6  15   23.41    9.12
  -4  -7   8    7.55    7.12
  -4  -7   7   77.43   15.32
  -4  -7   6   53.57   12.08
  -4  -7   5   30.10    9.08
  -4  -7   4  610.41   38.77
   4   7  -4  718.66   44.18
   4   7  -3   77.09   14.94
  -4  -7   3   48.71    9.88
  -4  -7   2  346.54   24.88
  -4  -7   2  310.60   18.29
   4   7  -2  324.24   34.04
  -4  -7   1   53.39    8.95
   4   7  -1   50.40   13.36
  -4  -7   1   43.06    6.86
  -4  -7   0   15.65    4.55
   4   7   0    3.08    8.73
  -4  -7  -1   65.49    8.10
   4   7   1   59.53   16.38
   4   7   1   59.10   13.34
  -4  -7  -2   80.94    8.22
   4   7   2   75.23   18.81
   4   7   2   69.37   15.05
   4   7   3 1532.32   80.16
   4   7   3 1665.00   89.97
   4   7   4  170.91   22.93
   4   7   4  208.61   28.97
   4   7   5  689.62   44.51
   4   7   5  641.10   51.32
   4   7   6  339.18   25.27
   4   7   6  237.37   30.20
   4   7   7   50.17   14.87
   4   7   8  169.06   24.22
   4   7   9    5.06    6.73
   4   7  10  349.37   35.16
   4   7  11  103.48   19.19
   4   7  12   77.53   16.52
   4   7  13   80.30   16.83
   4   7  14    6.56    6.97
  -4  -8   6   34.10   10.77
  -4  -8   5  108.07   16.85
   4   8  -4   12.85    6.87
  -4  -8   4   25.30    9.11
  -4  -8   3  937.72   48.07
   4   8  -3 1152.50   71.11
  -4  -8   2  404.85   27.40
   4   8  -2  491.13   48.29
   4   8  -1   47.29   14.02
  -4  -8   1   69.18   10.13
  -4  -8   0    5.09    3.48
   4   8   0    0.30    9.45
  -4  -8  -1    3.48    2.58
   4   8   1    6.55    8.36
   4   8   2   55.61   16.75
   4   8   3   23.98    8.32
   4   8   3   14.39    9.72
   4   8   4  330.17   39.82
   4   8   5  158.34   28.01
   4   8   6   17.64    6.72
   4   8   7   24.90   10.26
   4   8   8    5.34    5.12
   4   8   9    7.63    7.49
   4   8  10   -0.19    4.64
   4   8  11   -1.29    6.89
   4   8  12   -4.41    6.84
  -4  -9   5   -1.28    4.35
  -4  -9   4   14.04    6.79
  -4  -9   3   92.98   14.08
   4   9  -3  109.23   24.34
  -4  -9   2   29.89    7.90
   4   9  -2   31.82    9.16
  -4  -9   1   47.48    8.94
   4   9  -1   22.19    7.83
  -4  -9   0    9.81    4.43
   4   9   0    5.54   11.08
   4   9   1  238.30   40.94
   4   9   2   26.22   12.85
   4   9   3    0.65    8.31
   4   9   4   27.50   13.03
   4   9   5    7.68    9.27
   4   9   6   47.80   16.65
   4   9   7    5.32    5.87
   4   9   8    4.49    5.21
   4   9   9   -4.45    6.56
   4   9  10   16.01    9.00
  -4 -10   3   14.78    6.90
  -4 -10   2  145.62   17.33
   4  10  -1  -11.58   10.01
   4  10   0   26.86   10.82
   4  10   1    0.18   16.38
   4  10   2   -3.48   16.93
   4  10   3   35.54   16.28
   4  10   4   30.59   13.78
   4  10   5  491.60   56.31
   4  10   6   49.06   18.26
   4  10   7  165.47   29.90
   4  11   0  169.42   40.77
   4  11   1   23.12   13.80
   4  11   2    2.32   12.33
   4  11   3   -6.57   13.76
  -5   8   5    2.35    3.81
  -5   8   4    8.96    5.43
  -5   8   3    1.33    4.99
  -5   8   2    0.43    4.90
  -5   7  12    1.39    5.73
  -5   7  11   11.94    7.09
  -5   7  10   -5.26    5.51
  -5   7   9    1.23    3.04
  -5   7   8    2.06    3.57
  -5   7   7    4.29    4.97
  -5   7   6   -3.91    2.31
  -5   7   5    3.25    2.54
  -5   7   4    6.89    3.93
  -5   7   3   -5.60    5.72
  -5   7   2   17.01    6.67
  -5   7   1    9.96    5.12
  -5   7   0   40.71   10.64
  -5   7  -1  125.48   18.61
  -5   7  -2    8.28    4.86
  -5   7  -3  162.04   22.59
  -5   7  -4    1.06    4.51
  -5   6  12   -0.05    2.66
  -5   6  11    1.21    3.25
  -5   6  10   47.97   10.42
  -5   6   9   14.82    5.18
  -5   6   8  150.58   17.45
  -5   6   7   93.39   13.45
  -5   6   6   15.81    6.15
  -5   6   5  234.75   21.36
  -5   6   4    5.62    4.56
  -5   6   3  288.30   24.11
  -5   6   2   55.13   10.02
  -5   6   1  107.23   14.83
  -5   6   0  159.69   18.66
  -5   6  -1    5.95    5.10
  -5   6  -2  399.32   32.29
  -5   6  -3   37.27   10.63
  -5   6  -4   61.17   13.23
  -5   6  -5    8.11    4.95
  -5   6  -6    0.14    4.80
  -5   6  -7    5.78    3.79
  -5   5  12   -0.54    2.91
  -5   5  11   41.95    9.37
  -5   5  10   31.93    8.37
  -5   5   9  106.39   14.06
  -5   5   8  196.67   18.64
  -5   5   7   26.45    6.80
  -5   5   6  110.76   13.51
  -5   5   5   21.09    5.70
  -5   5   4   51.51    9.27
  -5   5   3   34.54    7.41
  -5   5   2    8.34    3.42
  -5   5   1    3.28    2.91
  -5   5   0    7.06    4.35
  -5   5  -1    9.14    4.94
  -5   5  -2    9.78    5.08
  -5   5  -3   50.88   10.75
  -5   5  -4   14.55    6.35
  -5   5  -5    0.76    3.94
  -5   5  -6   84.01   15.24
  -5   5  -7   -2.71    3.79
  -5   5  -8   -7.39    6.23
  -5   5  -9    8.64    4.07
  -5   4  12    8.40    6.19
  -5   4  11   -1.03    3.43
  -5   4  10    6.36    3.32
  -5   4   9    3.25    2.32
  -5   4   8    4.63    3.47
  -5   4   7   -3.38    3.55
  -5   4   6   -2.86    3.01
  -5   4   5   15.21    4.50
  -5   4   4    2.13    2.67
  -5   4   3    1.33    2.50
  -5   4   2    8.67    3.89
  -5   4   1    1.98    2.29
  -5   4   0   25.05    6.29
  -5   4  -1    1.66    2.91
  -5   4  -2   19.02    6.39
  -5   4  -3  253.66   22.46
  -5   4  -4   39.49    9.21
  -5   4  -5  144.55   17.75
  -5   4  -6    8.90    5.70
  -5   4  -7   -1.28    3.91
  -5   4  -8   45.62   11.38
  -5   4  -9   54.68   12.29
  -5   4 -10  312.27   30.09
  -5   4 -11   31.77   10.11
  -5   3  13   15.93    7.05
  -5   3  12    5.40    4.71
  -5   3  11    8.36    5.45
  -5   3  11    2.93    2.07
  -5   3  10    6.35    3.40
  -5   3  10    4.91    2.86
  -5   3   9    0.11    2.10
  -5   3   8   75.79    9.64
  -5   3   7    8.39    2.94
  -5   3   6  124.09   11.92
  -5   3   5   97.34   10.33
  -5   3   4   11.35    3.70
  -5   3   3  656.87   30.97
  -5   3   2   -0.56    1.53
  -5   3   1  597.02   30.44
  -5   3   0   61.10    8.86
  -5   3  -1   73.00   10.36
  -5   3  -2  308.21   22.14
  -5   3  -3   27.07    7.52
  -5   3  -4 1133.84   52.42
  -5   3  -5   47.16   10.19
  -5   3  -6  186.53   20.23
  -5   3  -7    6.85    3.03
  -5   3  -8   -4.86    4.94
  -5   3  -9   23.99    7.74
  -5   3 -10    2.61    4.57
  -5   3 -11  326.69   30.87
  -5   3 -12   10.85    5.02
  -5   2  13  109.60   19.47
  -5   2  12   73.71   14.15
  -5   2  11  105.39   15.98
  -5   2  10    2.77    5.53
  -5   2  10   -0.25    2.45
  -5   2   9  188.24   19.16
  -5   2   9  174.70   14.20
   5  -2  -9  160.35   17.46
   5  -2  -8   40.87    8.34
  -5   2   8   53.46    7.54
   5  -2  -7  349.45   25.32
  -5   2   7  397.93   21.32
  -5   2   6  264.30   16.66
   5  -2  -6  273.04   21.09
   5  -2  -5   40.59    7.67
  -5   2   5   38.61    6.00
  -5   2   4  358.18   19.67
   5  -2  -4  351.61   23.24
   5  -2  -3   22.97    5.59
  -5   2   3   19.77    4.36
  -5   2   2  370.78   20.78
  -5   2   1  183.85   14.02
  -5   2   0   39.34    6.47
  -5   2  -1    1.73    1.97
  -5   2  -2    7.46    1.96
  -5   2  -3   19.26    3.97
  -5   2  -3   15.07    4.95
  -5   2  -4   55.18    6.90
  -5   2  -4   46.91    8.90
  -5   2  -5  251.37   21.74
  -5   2  -6   42.63    9.66
  -5   2  -7   16.20    5.98
  -5   2  -8  171.59   19.94
  -5   2  -9   19.33    6.93
  -5   2 -10    4.06    4.85
  -5   2 -11   16.13    7.09
  -5   2 -12   85.23   14.79
  -5   2 -13   34.13    9.24
  -5   1  13   27.51    9.54
  -5   1  12  193.87   25.40
  -5   1  11   20.94    9.24
  -5   1  10   25.17    7.66
  -5   1   9   14.42    6.39
  -5   1   9   17.97    4.11
  -5   1   8    6.76    2.34
   5  -1  -8    8.93    3.39
  -5   1   8   16.58    6.70
  -5   1   8   11.49    3.25
  -5   1   7   63.01    7.61
  -5   1   7   77.62   11.47
  -5   1   7   76.46    7.85
   5  -1  -7   70.78    9.84
   5  -1  -6    9.90    4.16
  -5   1   6   11.47    3.18
  -5   1   6    8.19    3.19
   5  -1  -5    0.76    1.51
  -5   1   5    0.92    1.36
  -5   1   5    1.52    2.30
   5  -1  -4    4.54    2.03
  -5   1   4    5.70    2.63
  -5   1   4    3.40    1.85
   5  -1  -3   25.55    5.84
  -5   1   3   18.42    3.83
  -5   1   3   22.30    5.14
  -5   1   2  123.98   12.97
  -5   1   2   99.15    9.47
   5  -1  -2  110.46   12.12
  -5   1   1   44.38    8.12
  -5   1   1   40.09    6.08
  -5   1   0    9.99    4.18
  -5   1   0    5.92    2.56
  -5   1  -1   11.57    3.87
  -5   1  -2  279.54   19.56
  -5   1  -3    1.95    3.20
  -5   1  -3    2.66    1.99
  -5   1  -4   34.48    7.68
  -5   1  -4   39.62    5.33
  -5   1  -5  265.17   15.66
  -5   1  -5  246.25   20.87
  -5   1  -6   73.30   11.59
  -5   1  -6   90.85    9.39
  -5   1  -7   58.37   10.71
  -5   1  -7   57.72    8.07
  -5   1  -8    1.09    3.10
  -5   1  -8    4.33    2.82
  -5   1  -9   68.76   12.43
  -5   1 -10   10.17    5.37
  -5   1 -11   73.75   13.26
  -5   1 -12  329.12   29.02
  -5   1 -13   31.14    9.09
  -5   1 -14   76.79   14.53
  -5   0  13   28.39   11.44
  -5   0  12    2.67    5.08
  -5   0  11   17.59    7.93
  -5   0  10    5.61    5.47
  -5   0   9   37.48   10.25
  -5   0   8    3.16    2.55
  -5   0   8    1.45    0.97
  -5   0   8    2.76    1.49
  -5   0   7   10.66    5.63
  -5   0   7    7.30    2.47
  -5   0   7    9.44    2.42
  -5   0   6   46.79    8.69
  -5   0   6   39.71    5.45
  -5   0   6   46.10    5.13
  -5   0   5   11.31    4.43
  -5   0   5    3.92    2.06
  -5   0   5    5.00    1.69
  -5   0   4    3.92    2.48
  -5   0   4    0.62    1.04
  -5   0   3   23.09    4.94
  -5   0   3   25.45    4.06
  -5   0   2    4.45    2.28
  -5   0   2    7.54    2.32
  -5   0   1  718.06   34.29
  -5   0   1  716.04   29.29
  -5   0   0    1.81    1.87
  -5   0   0    0.20    1.91
  -5   0  -1  338.32   23.32
  -5   0  -1  343.23   20.34
  -5   0  -2   11.19    4.05
  -5   0  -2   19.82    5.96
  -5   0  -3    3.03    2.34
  -5   0  -4  263.88   13.17
  -5   0  -4  246.41   19.77
  -5   0  -5   33.87    7.38
  -5   0  -5   34.50    4.80
  -5   0  -6 1772.37   54.99
  -5   0  -6 1587.64   66.24
  -5   0  -7   41.56    9.34
  -5   0  -7   37.05    5.82
  -5   0  -8  177.04   14.92
  -5   0  -8  163.46   18.10
  -5   0  -9    0.66    2.95
  -5   0  -9    9.26    3.90
  -5   0 -10   -1.79    2.89
  -5   0 -11   96.32   14.81
  -5   0 -12    1.84    2.61
  -5   0 -13  434.85   33.56
  -5   0 -14   30.75    8.57
  -5  -1  12  145.29   23.79
  -5  -1  11   69.91   15.58
  -5  -1  10   25.54    9.08
  -5  -1   9  101.13   17.51
  -5  -1   8   -6.58    5.52
  -5  -1   7  405.09   32.63
  -5  -1   7  398.36   15.33
  -5  -1   7  394.18   14.77
  -5  -1   6  123.80   16.16
  -5  -1   6  110.78    7.13
  -5  -1   6  106.71    8.50
  -5  -1   5  571.38   34.12
  -5  -1   5  601.20   25.86
  -5  -1   5  574.65   21.27
  -5  -1   4  269.26   20.78
  -5  -1   4  287.97   17.50
  -5  -1   4  260.58   13.09
  -5  -1   3   50.62    8.17
  -5  -1   3   54.21    7.67
  -5  -1   3   52.23    5.54
  -5  -1   2  703.94   32.99
  -5  -1   2  663.64   31.53
  -5  -1   2  689.11   26.76
  -5  -1   1   47.16    7.79
  -5  -1   1   54.54    6.49
  -5  -1   0 1485.57   57.42
  -5  -1   0 1465.00   50.02
  -5  -1  -1  349.20   24.18
  -5  -1  -1  335.28   20.03
   5   1   2  120.33   12.37
  -5  -1  -2  131.73   14.98
  -5  -1  -2  111.53   11.87
  -5  -1  -3   -1.29    2.77
  -5  -1  -3   -2.07    2.57
   5   1   3    5.13    3.64
  -5  -1  -4    7.73    1.83
   5   1   4    3.38    2.73
  -5  -1  -5  332.86   14.66
   5   1   5  339.60   23.65
  -5  -1  -6   53.62    5.80
   5   1   6   70.12   10.66
   5   1   7  638.02   35.34
  -5  -1  -7  579.05   25.46
  -5  -1  -8   62.03    7.88
   5   1   8   80.50   12.07
  -5  -1  -9   20.12    4.85
   5   1   9   28.83    8.07
  -5  -1 -10  173.07   20.00
  -5  -1 -11   23.69    7.51
  -5  -1 -12   28.63    8.00
  -5  -1 -13   12.34    5.15
  -5  -1 -14   89.08   14.75
  -5  -1 -15   14.74    7.01
  -5  -2  12  114.89   20.83
  -5  -2  11  109.98   19.94
  -5  -2  10  250.49   29.63
  -5  -2   9    1.91    4.29
  -5  -2   8   99.75   17.71
  -5  -2   7   77.68   14.59
  -5  -2   6  218.34   24.01
  -5  -2   6  201.87    8.23
  -5  -2   6  200.51    9.54
  -5  -2   5  154.54   19.19
  -5  -2   5  156.95    8.15
  -5  -2   5  155.26   10.49
  -5  -2   4   44.50    6.12
  -5  -2   4   46.58    4.64
  -5  -2   4   36.83    9.37
  -5  -2   3   14.74    4.77
  -5  -2   3   15.07    2.80
  -5  -2   3   13.61    3.83
  -5  -2   2   13.18    3.85
  -5  -2   2   13.94    4.56
  -5  -2   2   16.69    3.22
   5   2  -2   13.50    3.55
   5   2  -1    7.50    3.13
  -5  -2   1    9.03    3.44
  -5  -2   1    8.05    2.60
  -5  -2   1   11.54    3.62
   5   2   0  273.27   18.12
  -5  -2   0  289.04   18.21
  -5  -2   0  258.99   20.48
   5   2   1  123.55   12.67
  -5  -2  -1  134.36   10.97
  -5  -2  -1  127.86   14.47
   5   2   2    5.74    2.95
  -5  -2  -2    1.98    1.85
  -5  -2  -2    1.43    3.16
   5   2   3   -3.67    3.52
  -5  -2  -3    6.05    3.62
  -5  -2  -4  545.67   17.34
   5   2   4  577.90   33.06
   5   2   5    5.80    4.06
  -5  -2  -5    0.91    0.70
   5   2   6   34.58    8.23
  -5  -2  -6   39.94    3.84
   5   2   7  292.93   23.77
  -5  -2  -7  252.30   11.88
   5   2   8   71.72   11.75
  -5  -2  -8   70.98    5.60
   5   2   9    3.40    3.93
  -5  -2  -9    2.32    1.17
   5   2  10   -0.36    3.03
   5   2  11  152.61   17.89
   5   2  12    0.79    5.18
   5   2  13   97.76   14.77
  -5  -2 -14  238.10   24.74
  -5  -2 -15   23.35    8.33
  -5  -3  11   67.05   15.96
  -5  -3  10    7.13    6.98
  -5  -3   9    4.48    4.53
  -5  -3   8   -3.50    4.19
  -5  -3   7   23.91    8.26
  -5  -3   6   24.17    8.12
  -5  -3   5    4.67    1.36
  -5  -3   5    0.62    3.89
  -5  -3   5    5.33    1.19
  -5  -3   4    3.06    1.19
  -5  -3   4    4.30    1.57
  -5  -3   4    2.43    3.42
   5   3  -3   17.67    3.86
  -5  -3   3   16.60    3.08
  -5  -3   3   16.22    3.91
  -5  -3   3   10.43    3.43
   5   3  -2   85.94    9.16
  -5  -3   2  101.70   13.69
  -5  -3   2   94.12   10.47
   5   3  -1    5.86    2.77
  -5  -3   1    2.36    1.65
  -5  -3   1    2.74    3.20
   5   3   0    9.02    3.80
  -5  -3   0    7.88    3.98
  -5  -3   0   12.36    4.14
  -5  -3  -1  507.13   27.20
   5   3   1  540.00   30.92
  -5  -3  -1  578.66   32.26
   5   3   2   -2.59    3.38
  -5  -3  -2   -0.19    2.14
  -5  -3  -2    0.66    1.58
   5   3   3   30.12    6.57
  -5  -3  -3   19.72    5.21
  -5  -3  -3   26.09    3.96
   5   3   4    8.61    3.71
  -5  -3  -4    5.98    0.83
  -5  -3  -4    8.32    1.30
   5   3   5   14.96    5.51
   5   3   6  224.09   21.96
   5   3   7   54.93   10.65
   5   3   8 1735.18   72.78
   5   3   9   30.72    8.61
   5   3  10   74.08   12.53
   5   3  11   17.45    7.07
   5   3  12    4.97    4.28
   5   3  13  194.56   21.18
   5   3  14   15.84    5.84
   5   3  15  406.48   32.25
  -5  -4  10   87.90   18.53
  -5  -4   9   15.70    5.72
  -5  -4   8    0.63    3.24
  -5  -4   7   62.24   13.70
  -5  -4   6   -0.71    4.06
   5   4  -5  469.69   18.88
  -5  -4   5  508.62   36.99
  -5  -4   5  486.73   16.07
  -5  -4   5  496.70   15.38
   5   4  -4   57.66    6.52
  -5  -4   4   60.36    6.20
  -5  -4   4   65.26    5.52
  -5  -4   4   77.48   13.50
  -5  -4   3  324.24   26.62
   5   4  -3  300.38   18.20
   5   4  -2   54.41    8.24
  -5  -4   2   66.03   10.95
  -5  -4   2   70.69    9.37
  -5  -4   1   22.33    5.30
   5   4  -1   15.79    4.86
  -5  -4   1   24.74    6.26
  -5  -4   0  801.12   36.94
   5   4   0  784.62   40.82
  -5  -4   0  739.78   36.44
  -5  -4  -1   49.78    8.77
   5   4   1   52.31   10.29
  -5  -4  -1   51.69    7.47
  -5  -4  -2 2043.70   61.43
   5   4   2 1975.08   80.51
  -5  -4  -2 1963.11   75.41
  -5  -4  -3  260.13   11.65
   5   4   3  227.09   23.57
   5   4   4  147.77   18.56
   5   4   5    0.76    4.22
   5   4   6   -4.85    5.57
   5   4   7  871.15   50.49
   5   4   8   40.50   10.31
   5   4   9  736.35   45.30
   5   4  10   61.41   12.30
   5   4  11    2.22    4.23
   5   4  12   66.83   12.67
   5   4  13    5.92    4.67
   5   4  14   50.85   11.49
   5   4  15    8.38    4.74
  -5  -5  10  132.72   21.44
  -5  -5   9  121.25   20.07
  -5  -5   8  152.08   22.14
  -5  -5   7   -3.48    4.99
  -5  -5   6  192.10   23.40
  -5  -5   5  162.34   20.29
   5   5  -5  151.76   10.71
  -5  -5   5  162.97    7.28
  -5  -5   4  486.34   34.81
   5   5  -4  495.22   25.00
  -5  -5   4  468.58   19.39
  -5  -5   3  154.25   17.87
   5   5  -3  149.67   14.50
  -5  -5   3  142.74   10.86
   5   5  -2   52.32    9.58
  -5  -5   2   51.13    7.31
  -5  -5   2   49.90    9.42
   5   5  -1   10.76    5.32
  -5  -5   1    6.42    2.56
  -5  -5   1    7.09    1.98
   5   5   0   22.12    6.77
  -5  -5   0   21.51    5.76
  -5  -5   0   22.68    5.03
   5   5   0   15.96    6.57
  -5  -5  -1  197.23   14.29
   5   5   1  208.62   23.52
  -5  -5  -2  329.13   16.61
   5   5   2  330.45   31.11
  -5  -5  -3  156.61    8.52
   5   5   3  141.42   20.36
   5   5   4    4.82    7.22
   5   5   5    2.83    5.27
   5   5   6  476.17   38.89
   5   5   7    1.79    4.93
   5   5   8   28.43   10.02
   5   5   9  296.00   29.60
   5   5  10   40.67   10.53
   5   5  11   19.04    8.41
   5   5  12   -2.34    4.34
   5   5  13  126.17   18.76
   5   5  14    8.05    6.60
  -5  -6   9   67.02   15.04
  -5  -6   8   -1.70    7.20
  -5  -6   7   -5.78    5.26
  -5  -6   6    0.07    4.49
  -5  -6   5   -1.68    4.74
   5   6  -4   80.54   10.96
  -5  -6   4   91.73   14.16
   5   6  -3    4.75    4.41
  -5  -6   3    2.35    1.05
  -5  -6   2    2.11    2.38
  -5  -6   2    1.40    1.46
   5   6  -2    3.43    4.89
  -5  -6   1   11.49    4.08
  -5  -6   1    9.43    3.84
   5   6  -1   19.30    6.47
   5   6   0  101.63   15.51
  -5  -6   0  117.83   12.10
  -5  -6   0  111.15   12.89
   5   6   0  111.76   18.66
   5   6   1   -0.05    2.83
  -5  -6  -1    6.44    3.27
   5   6   1    6.03    8.70
   5   6   2    5.91    3.38
  -5  -6  -2    6.41    2.42
   5   6   2    7.48    4.38
  -5  -6  -3  408.35   16.70
   5   6   3  374.23   20.75
   5   6   3  402.84   39.17
   5   6   4    1.14    4.45
   5   6   5   20.88    7.84
   5   6   6   24.81    9.42
   5   6   7   41.36   13.18
   5   6   8  128.70   20.82
   5   6   9  117.18   19.50
   5   6  10  756.86   52.29
   5   6  11    7.51    6.80
   5   6  12   28.99   10.39
   5   6  13   -1.87    4.70
  -5  -7   7    1.72    3.37
  -5  -7   6    6.80    6.31
  -5  -7   5   17.54    7.03
  -5  -7   4    5.06    4.23
   5   7  -4    1.53    4.09
  -5  -7   3  311.51   25.62
   5   7  -3  296.12   27.55
  -5  -7   2    5.92    4.30
   5   7  -2    6.36    7.12
   5   7  -1   48.72   13.37
  -5  -7   1   41.47    8.43
   5   7   0    8.74    6.49
  -5  -7   0    6.43    3.92
   5   7   1    0.46    5.52
   5   7   1   11.29    8.58
  -5  -7  -1    1.50    1.61
  -5  -7  -2  589.07   25.30
   5   7   2  543.76   39.72
   5   7   2  535.85   50.04
   5   7   3   11.20    9.22
   5   7   3    8.08    4.29
   5   7   4 1159.20   76.25
   5   7   5  141.19   25.21
   5   7   6   31.97   10.45
   5   7   7   16.22    7.01
   5   7   8    5.78    7.13
   5   7   9  698.33   53.92
   5   7  10   55.67   15.43
   5   7  11  490.47   43.44
   5   7  12   52.04   14.11
  -5  -8   6   53.65   12.27
  -5  -8   5    7.14    5.68
  -5  -8   4  292.45   26.99
  -5  -8   3  157.27   18.33
   5   8  -3  166.85   22.84
  -5  -8   2  420.38   28.97
   5   8  -2  456.26   41.62
  -5  -8   1  140.00   14.70
   5   8  -1  137.35   24.30
   5   8   0   36.43   11.45
  -5  -8   0   32.26    6.70
   5   8   1   10.34    8.19
  -5  -8  -1   19.02    4.59
   5   8   2   15.70    6.49
  -5  -8  -2   18.47    4.63
   5   8   3  381.81   46.72
   5   8   4  364.88   45.04
   5   8   5  182.04   30.30
   5   8   6    4.65   10.55
   5   8   7    3.90    8.12
   5   8   8   94.12   21.20
   5   8   9    3.49    7.79
   5   8  10   68.69   16.37
   5   8  11   93.31   18.77
  -5  -9   4    6.32    2.79
  -5  -9   3   13.59    5.90
  -5  -9   2  118.26   15.16
   5   9  -2  133.50   25.42
   5   9  -1   16.07   13.17
  -5  -9   1    7.85    3.92
   5   9   0    5.25    8.30
  -5  -9   0   14.70    5.19
   5   9   1   13.95   10.86
   5   9   2   48.22   18.21
   5   9   3   22.07   15.85
   5   9   4   14.82    7.40
   5   9   5   95.60   24.82
   5   9   6    9.56    7.24
   5   9   7   70.99   21.08
   5   9   8   12.25    7.91
   5   9   9   27.11   11.95
  -5 -10   3   25.08    7.79
  -5 -10   2    8.17    4.66
  -5 -10   1   99.20   13.39
   5  10   0  -11.85   11.23
   5  10   1   -8.64   11.09
   5  10   2   17.99   13.11
   5  10   3   -1.02   10.26
   5  10   4  262.93   45.98
   5  10   5   15.02   14.94
   5  10   6  341.13   49.63
   5  11   1   73.02   25.68
   5  11   2   41.90   24.67
  -6   7   7    2.81    3.83
  -6   7   6   11.07    5.46
  -6   7   5   53.92   11.51
  -6   7   4    1.08    2.73
  -6   7   3   17.56    6.55
  -6   7   2   15.18    6.55
  -6   7   1  155.45   20.79
  -6   6  11   12.17    6.53
  -6   6  10  -10.07    6.13
  -6   6   9   77.72   13.60
  -6   6   8  127.51   16.58
  -6   6   7   90.68   14.16
  -6   6   6   48.68   10.10
  -6   6   5    4.21    3.43
  -6   6   4    3.37    4.92
  -6   6   3    7.69    4.05
  -6   6   2  359.57   28.86
  -6   6   1  462.84   33.86
  -6   6   0   95.22   15.09
  -6   6  -1  140.22   19.07
  -6   6  -2   -1.03    2.98
  -6   6  -3    6.46    4.95
  -6   6  -4   17.68    7.40
  -6   5  11    0.86    2.65
  -6   5  10   19.89    6.85
  -6   5   9   55.00   10.43
  -6   5   8   70.25   11.81
  -6   5   7  533.30   33.20
  -6   5   6   -2.36    3.39
  -6   5   5   15.82    5.39
  -6   5   4    6.30    3.46
  -6   5   3    2.22    3.43
  -6   5   2   56.69   10.04
  -6   5   1   34.18    8.68
  -6   5   0  307.55   25.75
  -6   5  -1   14.96    5.93
  -6   5  -2   71.75   13.16
  -6   5  -3   26.18    8.65
  -6   5  -4   25.78    7.84
  -6   5  -5   -0.57    3.42
  -6   5  -6    0.73    3.33
  -6   4  10   32.38    7.47
  -6   4   9    7.61    4.63
  -6   4   8   73.45   10.95
  -6   4   7   11.57    4.70
  -6   4   6  101.48   12.20
  -6   4   5    4.45    4.02
  -6   4   4  102.51   12.35
  -6   4   3  202.65   18.03
  -6   4   2    2.10    2.38
  -6   4   1   60.48   10.27
  -6   4   0   18.27    5.86
  -6   4  -1  140.90   16.33
  -6   4  -2   10.88    5.49
  -6   4  -3   23.71    7.89
  -6   4  -4   52.73   10.97
  -6   4  -5    1.37    4.85
  -6   4  -6  168.43   21.27
  -6   4  -7   20.93    8.11
  -6   4  -8  109.61   17.99
  -6   3  11    2.05    4.39
  -6   3  10    3.73    4.66
  -6   3  10   -2.51    1.78
  -6   3   9   82.26   10.68
  -6   3   8    1.28    2.00
  -6   3   7  180.49   15.64
  -6   3   6  216.70   17.07
  -6   3   5  106.78   11.77
  -6   3   4    4.63    3.22
  -6   3   3    6.76    3.91
  -6   3   2   20.76    5.25
  -6   3   1   21.25    5.81
  -6   3   0  730.38   37.05
  -6   3  -1  733.33   37.78
  -6   3  -2   97.34   13.02
  -6   3  -3  166.64   17.81
  -6   3  -4    5.15    4.35
  -6   3  -5   36.36    9.53
  -6   3  -6   32.12    8.82
  -6   3  -7  145.71   20.05
  -6   3  -8  357.02   32.28
  -6   3  -9    1.69    5.66
  -6   3 -10   70.37   14.72
  -6   2  11   16.74    6.86
  -6   2  10   24.33    8.14
  -6   2   9   13.42    5.61
  -6   2   9   14.72    4.29
  -6   2   8   35.72    6.75
  -6   2   7  199.09   15.15
  -6   2   6  341.77   20.46
  -6   2   5 1232.52   46.34
  -6   2   4    3.11    2.81
  -6   2   3   35.66    6.51
  -6   2   2    3.21    2.32
  -6   2   1  101.36   11.01
  -6   2   0  253.15   18.81
  -6   2  -1  118.60   13.42
  -6   2  -2  780.57   39.44
  -6   2  -3   17.69    5.67
  -6   2  -4   23.51    7.07
  -6   2  -5   23.86    7.30
  -6   2  -6    1.29    3.72
  -6   2  -7    8.71    4.54
  -6   2  -8    0.38    2.80
  -6   2  -9   66.26   13.41
  -6   2 -10    9.81    5.93
  -6   2 -11   -4.62    3.61
  -6   1  12    7.69    5.15
  -6   1  11  304.01   31.18
  -6   1  10    5.91    7.26
  -6   1   9    9.22    5.23
  -6   1   9    5.09    2.33
  -6   1   8   49.82   10.21
  -6   1   8   49.33    6.78
  -6   1   7    0.92    1.44
  -6   1   7    4.87    4.79
  -6   1   7    6.65    2.56
  -6   1   6  296.76   20.48
  -6   1   6  305.13   17.72
  -6   1   5   19.36    4.72
  -6   1   5   26.48    5.12
  -6   1   4  212.19   18.59
  -6   1   4  210.87   14.70
  -6   1   3   -1.23    2.03
  -6   1   2  253.23   16.84
  -6   1   1  412.53   23.21
  -6   1   0    9.45    3.48
  -6   1  -1  131.24   13.14
  -6   1  -2   26.82    6.57
  -6   1  -3   33.32    5.36
  -6   1  -3   31.24    7.23
  -6   1  -4    2.33    3.25
  -6   1  -4    6.34    2.76
  -6   1  -5   81.87   12.89
  -6   1  -5   69.72    8.05
  -6   1  -6   78.27   12.95
  -6   1  -6   74.83    8.79
  -6   1  -7    2.17    4.71
  -6   1  -8   86.44   14.50
  -6   1  -9   24.79    9.01
  -6   1 -10   69.23   13.48
  -6   1 -11   55.46   12.47
  -6   1 -12    3.17    4.80
  -6   0  11  102.67   18.96
  -6   0  10   14.69    7.58
  -6   0   9   28.86    9.85
  -6   0   8   13.76    5.91
  -6   0   8   20.90    4.17
  -6   0   7  186.69   19.84
  -6   0   7  200.88   12.50
  -6   0   6    4.51    3.72
  -6   0   6    4.73    2.56
  -6   0   6    4.66    2.05
  -6   0   5  357.10   21.73
  -6   0   5  342.59   24.45
  -6   0   5  373.90   18.52
  -6   0   4  269.76   19.63
  -6   0   4  281.96   16.13
  -6   0   3   29.12    6.48
  -6   0   3   31.00    5.06
  -6   0   2   27.51    6.47
  -6   0   2   27.02    5.00
  -6   0   1   -0.58    1.30
  -6   0   0    6.72    3.26
  -6   0  -1    3.62    2.71
  -6   0  -2  842.77   39.12
  -6   0  -3  761.72   38.29
  -6   0  -4  110.83    8.79
  -6   0  -4   90.59   12.69
  -6   0  -5  141.65   10.30
  -6   0  -5  129.72   15.67
  -6   0  -6    2.30    3.36
  -6   0  -6    2.95    2.13
  -6   0  -7   52.96   10.90
  -6   0  -7   69.71    8.32
  -6   0  -8   16.96    6.93
  -6   0  -9  183.99   20.95
  -6   0 -10  403.50   32.41
  -6   0 -11    6.82    5.34
  -6   0 -12   92.31   15.68
  -6  -1  11  137.66   22.51
  -6  -1  10  304.00   33.71
  -6  -1   9   12.74    6.30
  -6  -1   8   19.47    8.27
  -6  -1   7   44.59   10.87
  -6  -1   7   39.26    4.45
  -6  -1   6   90.72   14.40
  -6  -1   6  103.63    7.86
  -6  -1   6   95.30    9.53
  -6  -1   5  215.13   20.91
  -6  -1   5  245.13   17.12
  -6  -1   5  245.17   13.46
  -6  -1   4  500.74   31.00
  -6  -1   4  531.82   28.31
  -6  -1   4  529.99   22.47
  -6  -1   3 1402.76   56.09
  -6  -1   3 1442.22   55.82
  -6  -1   3 1414.07   46.91
  -6  -1   2    4.57    3.44
  -6  -1   2    0.03    1.74
  -6  -1   2    2.77    2.39
  -6  -1   1   35.96    5.73
  -6  -1   1   25.10    6.70
  -6  -1   0   -1.47    1.60
  -6  -1  -1  277.20   19.17
  -6  -1  -2  476.56   27.52
  -6  -1  -3  213.51   18.47
  -6  -1  -4  945.76   30.84
  -6  -1  -4  857.11   44.11
  -6  -1  -5   40.12    9.13
  -6  -1  -5   49.61    5.17
  -6  -1  -6   -4.12    3.92
  -6  -1  -6   -0.24    0.92
  -6  -1  -7   -7.20    5.51
  -6  -1  -7    3.84    1.93
  -6  -1  -8   10.50    4.80
  -6  -1  -9   34.94    9.37
  -6  -1 -10    5.02    4.67
  -6  -1 -11   54.00   12.53
  -6  -1 -12    8.01    5.49
  -6  -1 -13   -2.12    3.20
  -6  -2  11  311.14   35.66
  -6  -2  10   20.92   10.21
  -6  -2   9  488.52   42.29
  -6  -2   8    1.89    4.07
  -6  -2   7   -4.08    5.99
  -6  -2   6   15.85    3.32
  -6  -2   6   16.75    2.77
  -6  -2   6    8.37    4.02
  -6  -2   5   64.13    5.75
  -6  -2   5   50.87    7.15
  -6  -2   5   56.38   11.43
  -6  -2   4  937.65   50.31
  -6  -2   4  934.37   32.22
  -6  -2   4  899.81   38.68
  -6  -2   3   11.93    3.07
  -6  -2   3    4.49    2.20
  -6  -2   3    6.85    2.62
  -6  -2   2  314.84   23.60
  -6  -2   2  307.55   22.51
  -6  -2   2  302.84   17.00
  -6  -2   1    3.70    1.93
  -6  -2   1    1.21    2.68
  -6  -2   1    3.42    3.06
   6   2   0  182.26   15.53
  -6  -2   0  185.19   15.41
  -6  -2   0  186.91   18.72
  -6  -2   0  177.97   14.38
   6   2   1  232.89   18.68
  -6  -2  -1  226.70   16.05
  -6  -2  -1  221.84   17.51
  -6  -2  -2    3.10    2.41
   6   2   2    4.57    2.45
   6   2   3  199.45   18.80
   6   2   4   30.46    7.69
   6   2   5    8.22    5.09
  -6  -2  -5    6.33    1.91
   6   2   6   -0.24    2.52
  -6  -2  -6    0.64    1.16
   6   2   7   65.38   11.79
  -6  -2  -7   59.21    5.45
   6   2   8   88.21   14.09
   6   2   9    4.70    3.23
   6   2  10   24.22    7.27
   6   2  11   26.23    7.92
  -6  -2 -12   27.96    8.92
  -6  -2 -13   27.30    8.63
  -6  -3  10  267.15   32.29
  -6  -3   9  141.37   22.65
  -6  -3   8    0.14    7.10
  -6  -3   7   66.54   14.76
  -6  -3   6   45.38   11.95
  -6  -3   5  156.87   20.77
  -6  -3   5  138.12    8.24
  -6  -3   5  147.52   11.18
  -6  -3   4   -0.92    1.72
  -6  -3   4    3.13    2.98
  -6  -3   4    2.27    1.69
  -6  -3   3  310.14   27.87
  -6  -3   3  328.77   16.49
  -6  -3   3  305.85   20.91
   6   3  -2  200.11   15.06
  -6  -3   2  167.19   18.89
  -6  -3   2  188.65   12.86
  -6  -3   2  175.12   16.18
   6   3  -1   11.98    4.26
  -6  -3   1    4.78    1.92
  -6  -3   1    7.86    3.66
  -6  -3   1    7.67    3.69
   6   3   0  108.63   12.59
  -6  -3   0   93.56   12.63
  -6  -3   0   95.60   12.95
   6   3   1   12.87    5.28
  -6  -3  -1    2.48    1.97
   6   3   2    7.19    4.34
  -6  -3  -2    5.89    2.98
   6   3   3    5.18    4.13
  -6  -3  -3    4.55    2.27
   6   3   4  460.66   32.44
  -6  -3  -4  427.68   18.69
   6   3   5  458.36   32.90
   6   3   6   63.30   11.71
   6   3   7   86.61   14.02
   6   3   8   11.73    5.87
   6   3   9   72.84   13.50
   6   3  10   30.01    8.95
   6   3  11  176.70   21.17
   6   3  12  297.29   27.74
   6   3  13    1.62    2.86
  -6  -4  10   43.54   13.87
  -6  -4   9  165.11   24.87
  -6  -4   8  213.68   27.08
  -6  -4   7   -3.05    5.46
  -6  -4   6   86.55   15.91
  -6  -4   5   31.93    3.36
  -6  -4   5   43.73   10.96
   6   4  -4  115.60    9.82
  -6  -4   4  125.00   18.17
  -6  -4   4  127.95    8.77
   6   4  -3  186.79   14.02
  -6  -4   3  164.16   20.07
  -6  -4   3  186.16   12.20
  -6  -4   3  170.39   14.76
   6   4  -2  404.04   23.79
  -6  -4   2  405.49   30.61
  -6  -4   2  388.86   24.04
  -6  -4   1  824.20   43.70
   6   4  -1  858.75   40.07
  -6  -4   1  843.17   40.47
   6   4   0    2.72    2.29
  -6  -4   0    0.30    2.02
   6   4   1   33.24    8.19
  -6  -4  -1   33.49    6.38
   6   4   2    0.21    2.67
  -6  -4  -2    5.58    2.79
  -6  -4  -3  327.49   16.14
   6   4   3  354.20   29.33
  -6  -4  -4  484.89   14.59
   6   4   4  522.07   37.09
   6   4   5  211.58   23.68
   6   4   6  743.90   47.09
   6   4   7   65.54   13.41
   6   4   8   59.04   12.67
   6   4   9   20.63    7.76
   6   4  10   50.22   11.84
   6   4  11   65.27   13.06
   6   4  12   11.31    6.35
   6   4  13   84.17   14.90
  -6  -5   9  449.07   41.87
  -6  -5   8   29.73   11.49
  -6  -5   7  379.38   36.38
  -6  -5   6    2.25    5.98
  -6  -5   5    4.41    4.39
  -6  -5   4    3.67    1.53
   6   5  -4    1.93    1.73
  -6  -5   3  180.57   20.57
   6   5  -3  134.71   13.04
  -6  -5   2 1134.75   54.52
   6   5  -2 1164.17   48.73
  -6  -5   2 1051.31   45.20
   6   5  -1   -0.98    3.45
  -6  -5   1    5.20    4.43
  -6  -5   0  293.00   21.50
   6   5   0  284.20   25.55
   6   5   1   17.05    6.32
  -6  -5  -1   20.51    4.69
   6   5   2   -2.44    7.08
  -6  -5  -2   10.96    3.05
   6   5   3    6.48    3.76
  -6  -5  -3   12.27    2.58
   6   5   4   24.23    7.38
   6   5   5  194.39   24.95
   6   5   6   21.63    8.32
   6   5   7   23.14    8.59
   6   5   8   -5.19    6.24
   6   5   9    9.98    6.40
   6   5  10   60.49   12.91
   6   5  11    2.78    5.10
   6   5  12   -2.40    5.16
  -6  -6   8  304.94   32.75
  -6  -6   7   48.13   11.25
  -6  -6   6   -5.02    6.36
  -6  -6   5   45.41   10.45
  -6  -6   4   -0.92    5.06
   6   6  -3   32.07    6.88
  -6  -6   3   14.50    4.21
   6   6  -2    1.95    3.40
  -6  -6   2    2.36    2.54
  -6  -6   1  107.42   13.13
   6   6  -1   90.53   14.21
  -6  -6   0   86.01   10.97
   6   6   0   78.60   14.51
   6   6   1   39.62   11.66
  -6  -6  -1   47.78    6.95
  -6  -6  -2  117.09    9.96
   6   6   2  109.97   20.26
  -6  -6  -3   11.66    2.59
   6   6   3   12.19    7.70
   6   6   4   13.10    5.36
   6   6   5    3.03    3.71
   6   6   6   89.10   18.28
   6   6   7  113.70   21.05
   6   6   8   -4.13    8.25
   6   6   9   41.13   13.52
   6   6  10   -2.09    4.78
   6   6  11   49.82   12.63
   6   6  12    6.79    4.07
  -6  -7   7   52.16   13.49
  -6  -7   6   59.24   13.32
  -6  -7   5    4.95    4.37
  -6  -7   4   75.57   14.00
   6   7  -3    7.11    3.09
  -6  -7   3    5.15    4.14
  -6  -7   2   57.15    9.99
   6   7  -2   63.06   12.31
  -6  -7   1  107.25   13.45
   6   7  -1  101.33   17.08
  -6  -7   0  227.78   18.38
   6   7   0  206.58   27.36
  -6  -7  -1  339.08   20.84
   6   7   1  297.57   34.79
  -6  -7  -2    2.19    1.75
   6   7   2   -1.23    6.88
  -6  -7  -3   59.59    5.98
   6   7   3   46.39   15.03
   6   7   4    0.05    6.84
   6   7   5  331.11   39.48
   6   7   6  272.17   36.01
   6   7   7  127.00   24.97
   6   7   8  480.41   46.62
   6   7   9   14.89    9.41
   6   7  10  160.59   25.09
   6   7  11   17.42    9.11
  -6  -8   5  139.20   19.97
  -6  -8   4    7.07    5.88
  -6  -8   3   19.97    7.67
  -6  -8   2   18.76    6.43
   6   8  -2    8.53    5.00
  -6  -8   1  210.95   19.27
   6   8  -1  199.97   27.44
  -6  -8   0  642.90   32.78
   6   8   0  540.48   50.16
  -6  -8  -1    3.58    3.04
   6   8   1   -1.06    6.66
  -6  -8  -2  234.43   15.39
   6   8   2  206.17   34.61
   6   8   3   32.54   15.07
   6   8   4   21.07   13.66
   6   8   5    9.99    9.54
   6   8   6   30.34   15.56
   6   8   7  145.48   28.12
   6   8   8   25.77   12.26
   6   8   9   45.07   15.38
  -6  -9   4    3.91    3.12
  -6  -9   3    6.03    4.49
  -6  -9   2    1.32    3.71
  -6  -9   1    3.56    2.69
   6   9  -1    8.44    8.92
  -6  -9   0    8.89    4.40
   6   9   0    1.10    5.62
   6   9   1   29.43   15.05
   6   9   2   29.23   13.92
   6   9   3   31.95   15.32
   6   9   4    9.21    9.85
   6   9   5    9.00    6.79
   6   9   6   15.00    9.76
   6   9   7   -3.09   14.36
   6  10   1   49.44   20.91
   6  10   2   36.21   20.63
   6  10   3   77.40   26.32
   6  10   4   14.64    7.63
  -7   6   8    9.40    5.74
  -7   6   7   28.93    8.21
  -7   6   6   17.14    7.13
  -7   6   5   58.31   11.28
  -7   6   4    3.77    3.68
  -7   6   3   85.91   14.04
  -7   5  10   18.81    6.88
  -7   5   9   17.02    6.29
  -7   5   8   83.78   13.37
  -7   5   7   11.35    5.04
  -7   5   6  124.98   15.86
  -7   5   5    2.06    2.86
  -7   5   4   45.92    9.82
  -7   5   3   25.61    7.01
  -7   5   2   12.60    5.59
  -7   5   1  145.14   18.00
  -7   5   0    4.21    4.45
  -7   5  -1   29.15    8.60
  -7   5  -2   11.05    6.68
  -7   5  -3   25.33    8.17
  -7   4   9   -3.18    3.23
  -7   4   8    4.80    3.65
  -7   4   7   -2.14    3.10
  -7   4   6    3.30    1.89
  -7   4   5    6.16    4.26
  -7   4   4   14.36    5.01
  -7   4   3   17.16    5.77
  -7   4   2    4.79    4.17
  -7   4   1    7.50    3.80
  -7   4   0   38.08    9.09
  -7   4  -1   11.03    6.43
  -7   4  -2    2.47    3.03
  -7   4  -3   26.59    8.38
  -7   4  -4    5.61    4.59
  -7   4  -5   19.54    7.66
  -7   3   9   -1.50    1.66
  -7   3   8    0.49    2.71
  -7   3   7    6.25    4.19
  -7   3   6   35.06    7.04
  -7   3   5   28.47    6.49
  -7   3   4   18.68    5.68
  -7   3   3   41.41    8.16
  -7   3   2    0.79    2.04
  -7   3   1  147.00   15.88
  -7   3   0  148.48   16.32
  -7   3  -1  209.49   19.92
  -7   3  -2  164.09   18.00
  -7   3  -3    4.87    3.50
  -7   3  -4    0.66    3.53
  -7   3  -5    5.66    4.44
  -7   3  -6  191.23   23.14
  -7   3  -7  179.94   23.02
  -7   2  10    7.73    6.04
  -7   2   9  100.21   15.41
  -7   2   8   10.79    4.78
  -7   2   8   16.10    5.04
  -7   2   7   56.87    8.48
  -7   2   6  207.60   16.49
  -7   2   5   56.85    8.63
  -7   2   4  280.09   19.92
  -7   2   3   -0.13    1.94
  -7   2   2   21.77    5.60
  -7   2   1   75.85   10.38
  -7   2   0   37.95    7.85
  -7   2  -1  435.32   28.40
  -7   2  -2    1.85    2.95
  -7   2  -3   21.61    7.30
  -7   2  -4   -1.49    4.53
  -7   2  -5   22.08    7.14
  -7   2  -6    7.03    4.60
  -7   2  -7   16.50    7.36
  -7   2  -8  142.06   20.37
  -7   1  10  152.28   20.61
  -7   1   9   22.51    8.09
  -7   1   8   10.96    5.77
  -7   1   8    3.71    2.60
  -7   1   7   34.23    8.05
  -7   1   7   35.46    6.31
  -7   1   6    6.99    3.09
  -7   1   5  120.83   11.64
  -7   1   4    6.72    3.43
  -7   1   3    9.12    3.78
  -7   1   2   14.32    4.32
  -7   1   1   21.34    4.98
  -7   1   0    1.89    2.50
  -7   1  -1    5.60    4.01
  -7   1  -2  123.99   14.33
  -7   1  -3    3.53    4.57
  -7   1  -4   16.94    5.91
  -7   1  -5  115.08   15.94
  -7   1  -6   16.49    6.78
  -7   1  -7    4.96    3.06
  -7   1  -8    9.74    6.07
  -7   1  -9  155.27   21.35
  -7   0  10    0.26    4.85
  -7   0   9   -0.56    4.31
  -7   0   8    1.26    4.25
  -7   0   7    6.99    5.27
  -7   0   7    3.10    2.35
  -7   0   6    9.09    4.74
  -7   0   6    9.60    3.26
  -7   0   5   14.39    5.69
  -7   0   5   13.31    3.68
  -7   0   4   43.08    6.65
  -7   0   3    5.97    2.93
  -7   0   2    1.22    2.69
  -7   0   1   22.30    5.31
  -7   0   0    8.05    4.95
  -7   0  -1  142.11   14.73
  -7   0  -2  179.96   17.44
  -7   0  -3  266.95   22.43
  -7   0  -4   69.57   11.90
  -7   0  -4  101.74    9.35
  -7   0  -5   11.55    6.11
  -7   0  -6   -0.05    3.58
  -7   0  -7    8.13    4.33
  -7   0  -8  263.11   26.77
  -7   0  -9  211.78   24.04
  -7   0 -10  143.54   19.72
  -7  -1  10   39.93   12.55
  -7  -1   9  111.05   19.59
  -7  -1   8    3.07    4.79
  -7  -1   7   28.23    9.13
  -7  -1   6   21.81    7.52
  -7  -1   6   26.22    4.40
  -7  -1   5   98.67   14.58
  -7  -1   5   93.82    8.84
  -7  -1   4  404.54   28.78
  -7  -1   4  439.63   27.59
  -7  -1   4  424.68   21.13
  -7  -1   3  122.75   14.47
  -7  -1   3  144.15   11.98
  -7  -1   2  282.87   21.33
  -7  -1   2  313.02   18.92
  -7  -1   1    9.03    3.90
  -7  -1   0   18.49    4.55
  -7  -1  -1  133.47   13.88
  -7  -1  -2  259.43   20.91
  -7  -1  -3  887.73   44.44
  -7  -1  -4   21.94    6.25
  -7  -1  -4   27.56    4.36
  -7  -1  -5   51.03   10.66
  -7  -1  -6    0.24    3.19
  -7  -1  -7    7.13    4.53
  -7  -1  -8   48.17   11.66
  -7  -1  -9   47.64   11.07
  -7  -1 -10  259.80   27.31
  -7  -1 -11    1.78    6.06
  -7  -2  10  146.99   24.58
  -7  -2   9    1.32    3.66
  -7  -2   8  239.92   29.60
  -7  -2   7   15.14    7.68
  -7  -2   6    2.92    4.18
  -7  -2   5   96.66    8.27
  -7  -2   5   90.84   15.98
  -7  -2   4    3.33    4.81
  -7  -2   4    2.66    2.09
  -7  -2   4    2.42    1.33
  -7  -2   3  393.13   30.38
  -7  -2   3  420.78   27.77
  -7  -2   3  410.31   20.90
  -7  -2   2    4.41    2.65
  -7  -2   2   10.50    5.37
  -7  -2   1    7.53    3.62
  -7  -2   1   12.85    5.29
  -7  -2   0   21.02    5.12
  -7  -2   0   25.50    6.40
  -7  -2  -1   12.43    4.37
  -7  -2  -1    9.71    3.94
  -7  -2  -2   49.11    8.87
  -7  -2  -2   55.69    8.06
  -7  -2  -3   -2.29    2.95
  -7  -2  -3    3.76    2.61
   7   2   3    4.35    4.03
   7   2   4  260.88   23.33
  -7  -2  -4  222.80   22.19
  -7  -2  -5   -4.93    5.25
   7   2   5    9.63    5.90
  -7  -2  -6   61.15   12.44
   7   2   6   72.98   13.01
   7   2   7  175.25   20.60
  -7  -2  -7  144.84   19.91
  -7  -2  -8    7.40    3.94
   7   2   8   25.08    7.47
  -7  -2  -9   11.09    5.96
  -7  -2 -10   -6.05    6.04
  -7  -2 -11  131.48   20.10
  -7  -3   9   73.39   16.91
  -7  -3   8   10.70    9.31
  -7  -3   7   -3.37    5.21
  -7  -3   6   23.88   10.31
  -7  -3   5    4.95    4.33
  -7  -3   5    7.33    2.12
  -7  -3   4   -4.19    5.62
  -7  -3   4    1.61    1.74
  -7  -3   3   36.43    5.53
  -7  -3   3   34.93    7.10
  -7  -3   3   21.55    7.10
  -7  -3   2   64.68    7.97
  -7  -3   2   54.69   10.99
  -7  -3   1    1.91    1.51
  -7  -3   1    1.40    2.57
  -7  -3   0   11.91    3.64
   7   3   0   19.14    6.31
  -7  -3   0    6.69    2.36
   7   3   1  193.40   18.58
  -7  -3  -1  160.50   16.92
  -7  -3  -1  179.90   17.12
   7   3   2   15.88    6.46
  -7  -3  -2    1.37    1.76
   7   3   3  117.01   16.26
  -7  -3  -3  118.08   12.15
   7   3   4  173.78   20.07
  -7  -3  -4  143.80   11.63
   7   3   5  156.06   19.73
   7   3   6   17.11    7.34
   7   3   7   37.09   10.07
   7   3   8   10.51    6.11
   7   3   9    7.43    4.12
   7   3  10  396.59   33.90
   7   3  11  277.75   28.16
  -7  -4   9   20.49    9.25
  -7  -4   8   37.75   13.94
  -7  -4   7   47.03   13.81
  -7  -4   6   10.34    5.66
  -7  -4   5    2.49    4.15
  -7  -4   4   43.90    5.51
  -7  -4   4   52.88   12.56
  -7  -4   3  130.98   10.77
  -7  -4   3  130.46   19.01
   7   4  -2  427.20   25.66
  -7  -4   2  460.03   35.06
  -7  -4   2  465.87   23.90
   7   4  -1  128.27   14.11
  -7  -4   1  127.09   17.12
  -7  -4   1  132.90   13.02
   7   4   0  117.86   14.63
  -7  -4   0  120.51   15.22
   7   4   1   12.20    6.27
  -7  -4  -1    6.77    3.68
   7   4   2   25.35    7.94
  -7  -4  -2   33.27    6.45
  -7  -4  -3  164.20   12.38
   7   4   3  135.00   18.49
  -7  -4  -4  423.82   16.07
   7   4   4  431.53   35.07
   7   4   5 1011.62   57.42
   7   4   6   53.42   12.63
   7   4   7  108.86   18.38
   7   4   8    4.20    5.19
   7   4   9   -1.13    3.05
   7   4  10   96.41   16.95
   7   4  11  147.24   20.99
  -7  -5   8  262.17   32.67
  -7  -5   7    7.91    7.44
  -7  -5   6  164.74   23.69
  -7  -5   5    2.68    3.29
  -7  -5   4   36.66   10.64
   7   5  -3  149.71   14.07
  -7  -5   3  147.59   19.45
  -7  -5   3  170.53   12.58
  -7  -5   2   35.73    6.28
   7   5  -2   27.17    6.79
  -7  -5   2   43.22   10.18
  -7  -5   1  540.63   35.12
   7   5  -1  548.08   33.09
   7   5   0    0.93    2.27
  -7  -5   0    6.88    3.68
   7   5   1   14.50    6.55
  -7  -5  -1   19.26    5.83
   7   5   2   11.65    5.96
  -7  -5  -2   19.86    4.26
   7   5   3    1.16    3.85
  -7  -5  -3    2.21    1.33
   7   5   4  180.72   24.02
   7   5   5   11.12    6.72
   7   5   6  309.62   32.64
   7   5   7   -0.78    5.52
   7   5   8  127.21   20.60
   7   5   9   77.32   16.07
   7   5  10    8.23    7.07
  -7  -6   7  142.54   22.01
  -7  -6   6    6.73    4.39
  -7  -6   5   -9.25    7.83
  -7  -6   4    8.22    5.18
  -7  -6   3    8.44    3.02
   7   6  -2   37.53    8.05
  -7  -6   2   55.53   10.80
   7   6  -1   40.34    9.47
  -7  -6   1   42.42    8.30
   7   6   0   75.20   13.28
  -7  -6   0   67.29   10.00
   7   6   1    9.82    5.77
  -7  -6  -1    7.04    3.14
   7   6   2   34.41   10.74
  -7  -6  -2   50.57    6.80
   7   6   3  144.41   22.91
   7   6   4    3.82    4.79
   7   6   5  111.21   20.93
   7   6   6   79.43   17.85
   7   6   7   47.48   13.33
   7   6   8   12.63    9.19
   7   6   9   32.73   12.01
   7   6  10   12.13    4.66
  -7  -7   6    8.74    4.12
  -7  -7   5   -2.15    7.08
  -7  -7   4   -4.84    6.04
  -7  -7   3   15.46    6.59
   7   7  -2   11.99    5.39
  -7  -7   2    9.88    3.50
   7   7  -1   66.02   13.22
  -7  -7   1   91.60   12.68
  -7  -7   0  213.38   18.17
   7   7   0  188.69   23.99
   7   7   1   40.32   12.21
   7   7   2    0.10    6.10
   7   7   3   -4.78    9.77
   7   7   4   -3.52   12.68
   7   7   5  114.45   23.47
   7   7   6  316.65   39.62
   7   7   7  677.23   58.81
   7   7   8   15.17    7.89
   7   7   9   56.99   16.08
  -7  -8   5    2.24    3.28
  -7  -8   4   77.22   14.71
  -7  -8   3   10.04    6.47
  -7  -8   2   39.43    8.96
  -7  -8   1  231.26   20.74
   7   8  -1  176.27   23.30
   7   8   0   33.47   11.20
   7   8   1  445.61   44.26
   7   8   2   -7.08   10.14
   7   8   3   16.27   10.11
   7   8   4   -9.76    8.12
   7   8   5   19.72   10.57
   7   8   6  293.96   41.76
   7   8   7   11.50   10.81
   7   9   1   26.27   13.19
   7   9   2   31.11   13.10
   7   9   3   15.39    9.46
   7   9   4   36.39   15.23
   7   9   5   75.17   21.64
   7  10   2   60.85   21.36
  -8   4   8    0.77    3.40
  -8   4   7   -5.74    4.72
  -8   4   6   10.22    4.56
  -8   4   5   18.65    6.03
  -8   4   4   25.02    7.44
  -8   4   3   92.72   13.64
  -8   4   2    1.84    3.31
  -8   4   1   41.55   10.05
  -8   4   0    3.99    3.32
  -8   4  -1    9.06    5.63
  -8   3   8   -1.33    2.84
  -8   3   7   46.27    8.87
  -8   3   6   25.21    6.23
  -8   3   5    0.98    2.09
  -8   3   4   67.31   10.84
  -8   3   3    3.30    3.76
  -8   3   2   83.15   12.25
  -8   3   1   20.41    5.93
  -8   3   0    3.19    3.63
  -8   3  -1    7.25    5.40
  -8   3  -2   28.58    8.37
  -8   3  -3  183.25   21.26
  -8   2   8   74.43   12.85
  -8   2   7    5.38    3.97
  -8   2   6    5.12    3.07
  -8   2   5   12.85    4.87
  -8   2   4   10.99    4.17
  -8   2   3  503.91   29.92
  -8   2   2  150.03   16.05
  -8   2   1  150.27   16.18
  -8   2   0   27.97    7.15
  -8   2  -1    0.27    2.56
  -8   2  -2   30.47    7.96
  -8   2  -3    2.51    3.62
  -8   2  -4  151.67   19.92
  -8   2  -5   94.02   15.97
  -8   1   8  159.04   19.57
  -8   1   7    5.08    4.72
  -8   1   7    3.31    2.58
  -8   1   6   15.50    5.75
  -8   1   6    8.04    3.23
  -8   1   5    2.82    2.02
  -8   1   4    2.02    2.28
  -8   1   3   28.32    6.69
  -8   1   2   92.07   11.56
  -8   1   1  105.01   12.71
  -8   1   0   26.41    7.07
  -8   1  -1   68.94   11.29
  -8   1  -2   10.96    5.03
  -8   1  -3   14.97    5.90
  -8   1  -4   -3.25    3.84
  -8   1  -5    5.50    3.89
  -8   1  -6   49.24   11.74
  -8   1  -7    3.98    4.77
  -8   0   8    4.45    4.44
  -8   0   7   26.39    8.07
  -8   0   6    2.48    4.30
  -8   0   6   11.01    4.24
  -8   0   5   91.84   13.59
  -8   0   5  100.58   10.65
  -8   0   4   51.35    9.77
  -8   0   4   47.23    7.43
  -8   0   3    7.31    3.10
  -8   0   2  100.93   11.55
  -8   0   1    0.95    2.17
  -8   0   0   49.58    8.48
  -8   0  -1    8.56    3.83
  -8   0  -2   11.12    4.78
  -8   0  -3    0.90    3.17
  -8   0  -4   45.70   10.43
  -8   0  -5  187.18   22.10
  -8   0  -6    2.60    4.30
  -8   0  -7  137.15   19.95
  -8   0  -8   39.59   10.92
  -8  -1   8  215.02   26.95
  -8  -1   7   32.03    9.62
  -8  -1   6   44.73   10.88
  -8  -1   5    0.50    3.43
  -8  -1   5    2.79    1.84
  -8  -1   4    3.83    4.46
  -8  -1   4    2.46    1.83
  -8  -1   3   24.09    7.49
  -8  -1   3   24.04    5.31
  -8  -1   2   33.43    8.35
  -8  -1   2   20.55    5.53
  -8  -1   1  647.97   35.49
  -8  -1   1  675.98   33.34
  -8  -1   0  159.56   15.78
  -8  -1  -1  155.65   16.52
  -8  -1  -2   41.94    9.17
  -8  -1  -3   11.76    5.27
  -8  -1  -4   67.23   12.49
  -8  -1  -5    9.12    5.20
  -8  -1  -6  190.07   22.82
  -8  -1  -7  100.99   17.08
  -8  -1  -8   19.61    8.21
  -8  -2   8   16.21    5.15
  -8  -2   7  304.32   33.70
  -8  -2   6  208.98   26.22
  -8  -2   5   10.04    6.80
  -8  -2   4   -2.46    2.72
  -8  -2   4    3.86    2.54
  -8  -2   3    3.55    3.78
  -8  -2   3    4.35    2.81
  -8  -2   2   76.97   12.78
  -8  -2   2   86.50   10.25
  -8  -2   1   47.21    7.88
  -8  -2   1   46.08    9.67
  -8  -2   0  117.42   14.49
  -8  -2   0  135.06   14.24
  -8  -2  -1  145.52   15.43
  -8  -2  -1  160.08   16.41
  -8  -2  -2   36.44    8.48
  -8  -2  -2   28.86    6.63
  -8  -2  -3   15.97    6.62
  -8  -2  -3   18.75    5.08
  -8  -2  -4    6.56    4.70
  -8  -2  -5    0.51    3.41
  -8  -2  -6   -2.51    5.19
  -8  -2  -7    3.45    4.37
  -8  -2  -8    9.99    4.01
  -8  -2  -9    2.59    3.54
  -8  -3   8   25.79    9.88
  -8  -3   7  130.32   22.25
  -8  -3   6   -3.69    5.28
  -8  -3   5   18.46    8.68
  -8  -3   4    5.26    5.00
  -8  -3   4   12.18    3.64
  -8  -3   3  109.34   10.71
  -8  -3   3   99.29   17.08
  -8  -3   2   45.48    7.45
  -8  -3   2   24.37    7.53
  -8  -3   1   12.02    4.44
  -8  -3   1   12.04    4.81
  -8  -3   0   76.44   10.75
  -8  -3   0   98.77   14.77
  -8  -3  -1   -1.25    3.53
  -8  -3  -1   -4.05    4.87
  -8  -3  -2    7.91    3.68
  -8  -3  -2   12.70    4.53
  -8  -3  -3   -0.94    3.90
   8   3   3   12.69    7.74
  -8  -3  -4    3.53    2.99
   8   3   4   22.11    8.53
  -8  -3  -5   -1.16    6.41
   8   3   5    4.62    4.02
  -8  -3  -6   33.03   10.38
   8   3   6   47.33   12.24
  -8  -3  -7   53.70   12.78
   8   3   7   67.89   14.46
  -8  -3  -8   -7.08    6.45
   8   3   8    4.67    5.46
  -8  -3  -9   81.76   16.01
   8   3   9  107.56   17.94
  -8  -4   7   15.35    7.73
  -8  -4   6  215.71   28.38
  -8  -4   5   12.97    7.11
  -8  -4   4   10.71    7.55
  -8  -4   3   13.98    4.20
  -8  -4   3   14.99    7.50
  -8  -4   2    0.67    1.81
  -8  -4   2   -5.19    3.32
  -8  -4   1   22.69    5.41
  -8  -4   1   25.95    8.08
  -8  -4   0   40.82    7.96
  -8  -4   0   31.52    8.81
   8   4   0   44.03    9.71
   8   4   1  487.71   33.37
  -8  -4  -1  422.63   29.81
  -8  -4  -1  453.34   30.62
  -8  -4  -2   98.45   14.28
   8   4   2  133.61   18.01
   8   4   3   84.76   15.24
   8   4   4   60.53   12.66
   8   4   5   36.24   11.08
   8   4   6   80.44   16.10
   8   4   7   -0.44    3.64
   8   4   8  235.40   27.91
   8   4   9  190.82   25.85
  -8  -5   7   95.80   19.94
  -8  -5   6   21.15    7.89
  -8  -5   5  330.57   34.13
  -8  -5   4  195.13   25.38
  -8  -5   3    7.50    6.17
  -8  -5   2   28.42    5.85
  -8  -5   2   23.77    8.35
   8   5  -2   29.54    7.43
   8   5  -1   15.98    6.23
  -8  -5   1   22.77    5.59
  -8  -5   1   17.55    5.80
   8   5   0  227.30   22.18
  -8  -5   0  203.82   20.58
  -8  -5   0  224.96   20.06
   8   5   1   44.67   10.80
   8   5   2  187.69   22.72
   8   5   3  177.06   23.36
   8   5   4    9.56    6.42
   8   5   5   -1.69    4.16
   8   5   6   14.28    7.44
   8   5   7   15.86    6.14
   8   5   8    4.79    4.47
  -8  -6   6   71.22   15.45
  -8  -6   5  132.29   20.40
  -8  -6   4   -0.47    4.27
  -8  -6   3    8.09    3.05
  -8  -6   2    0.93    3.88
   8   6  -1   48.54   10.56
  -8  -6   1   49.78    9.87
   8   6   0   15.10    6.82
   8   6   1   12.11    6.34
   8   6   2   16.94    7.67
   8   6   3   12.55    6.94
   8   6   4    1.02    4.61
   8   6   5   10.16    5.87
   8   6   6    5.10    5.20
   8   6   7   14.66   10.35
  -8  -7   5   -2.06    6.99
  -8  -7   4   84.93   15.27
  -8  -7   3   14.17    4.58
   8   7   0    3.44    4.64
   8   7   1    4.70    5.77
   8   7   2   18.33    8.14
   8   7   3  193.63   27.94
   8   7   4   55.93   15.34
   8   7   5   53.73   17.40
   8   7   6   50.48   15.05
   8   8   1    2.67    5.36
   8   8   2  181.70   28.12
   8   8   3    7.41    7.94
   8   8   4   89.75   20.92
   8   8   5  150.77   29.78
   8   9   2   -9.88    9.05
   8   9   3  -11.21   14.41
  -9   3   6    4.23    2.58
  -9   3   5   -2.40    4.21
  -9   3   4    1.65    3.85
  -9   3   3   76.99   12.84
  -9   3   2   -0.55    3.38
  -9   2   6   12.54    5.06
  -9   2   5    5.73    3.79
  -9   2   4   72.15   11.22
  -9   2   3   11.28    4.82
  -9   2   2  143.91   16.43
  -9   2   1   44.66    9.81
  -9   2   0    7.58    4.60
  -9   2  -1    5.20    4.09
  -9   1   6    2.82    2.26
  -9   1   5    5.75    4.99
  -9   1   5    6.15    3.61
  -9   1   4   17.61    6.06
  -9   1   3   25.54    6.71
  -9   1   2   61.09   10.15
  -9   1   1   12.51    5.05
  -9   1   0    2.02    2.55
  -9   1  -1   -3.66    3.01
  -9   1  -2   33.34    8.75
  -9   1  -3   -0.63    4.18
  -9   0   6   -3.54    4.54
  -9   0   5    7.08    4.34
  -9   0   5    9.33    3.58
  -9   0   4   24.25    7.10
  -9   0   4   30.05    6.40
  -9   0   3    4.83    4.74
  -9   0   3    5.02    2.88
  -9   0   2    0.27    2.84
  -9   0   1   91.80   12.39
  -9   0   0   -0.91    3.22
  -9   0  -1    5.77    2.84
  -9   0  -2    9.47    4.88
  -9   0  -3    0.48    3.74
  -9   0  -4   57.25   12.06
  -9  -1   7   50.65   13.95
  -9  -1   6    2.21    3.55
  -9  -1   5   14.70    7.37
  -9  -1   4    2.62    3.88
  -9  -1   4    0.30    2.14
  -9  -1   3    2.59    2.24
  -9  -1   3    0.22    1.88
  -9  -1   2  122.38   16.08
  -9  -1   2  154.60   15.22
  -9  -1   1   12.27    5.98
  -9  -1   1    9.06    3.89
  -9  -1   0  228.63   20.73
  -9  -1   0  227.58   20.30
  -9  -1  -1   38.25    8.53
  -9  -1  -2    6.01    4.80
  -9  -1  -3    2.45    4.39
  -9  -1  -4    2.84    5.26
  -9  -1  -5  212.52   24.53
  -9  -2   7   47.44   13.82
  -9  -2   6  100.58   19.00
  -9  -2   5   66.71   15.02
  -9  -2   4    7.12    5.02
  -9  -2   3   10.65    6.01
  -9  -2   3    4.71    2.78
  -9  -2   2    8.98    5.30
  -9  -2   2    8.76    3.40
  -9  -2   1  120.76   16.75
  -9  -2   1  128.12   14.03
  -9  -2   0  166.65   18.91
  -9  -2   0  174.19   17.39
  -9  -2  -1   30.83    7.97
  -9  -2  -1   39.00    8.86
  -9  -2  -2   -1.75    2.88
  -9  -2  -3    3.12    4.01
  -9  -2  -4   11.89    7.19
  -9  -2  -5    6.87    4.59
  -9  -2  -6   75.15   15.52
  -9  -3   6   66.29   15.39
  -9  -3   5   -5.33    7.88
  -9  -3   4    4.99    5.82
  -9  -3   3   -2.51    5.29
  -9  -3   2   21.39    7.99
  -9  -3   2   36.97    7.02
  -9  -3   1   16.70    5.35
  -9  -3   1    3.65    4.57
  -9  -3   0    6.31    4.67
  -9  -3   0    2.45    2.62
  -9  -3  -1   74.45   11.65
  -9  -3  -2    0.24    2.61
  -9  -3  -3   40.59    9.84
  -9  -3  -4   12.48    6.31
  -9  -3  -5    5.07    5.22
  -9  -3  -6   18.74    7.45
  -9  -4   6    4.43    4.79
  -9  -4   5   67.56   16.30
  -9  -4   4    0.96    4.16
  -9  -4   3   -3.46    5.60
  -9  -4   2   10.90    6.98
  -9  -4   1   -1.92    2.52
  -9  -4   0  194.81   18.78
  -9  -4  -1    7.33    3.87
  -9  -4  -2  188.61   20.65
  -9  -4  -3    5.00    3.51
   9   4   3   23.83    9.66
  -9  -4  -4   -0.43    3.19
   9   4   4   13.07    7.79
  -9  -4  -5  -13.47    9.19
   9   4   5   11.32    8.47
  -9  -4  -6    5.01    4.08
   9   4   6   16.52    9.32
  -9  -5   5   71.74   16.31
  -9  -5   4  124.53   20.74
  -9  -5   3   21.06    7.66
  -9  -5   0   13.40    5.02
   9   5   0   24.96    7.90
   9   5   1  243.92   24.83
  -9  -5  -1  249.46   23.38
  -9  -5  -2  130.74   18.35
   9   5   2  182.15   22.86
   9   5   3   34.42   10.94
  -9  -5  -3   15.78    5.41
   9   5   4   20.75   10.13
   9   5   5    0.12    4.24
   9   6   0   13.95    7.51
   9   6   1   39.49   11.19
  -9  -6  -1   17.18    5.50
   9   6   2   18.59    9.22
   9   6   3   86.60   17.46
   9   6   4    7.19    3.56
   9   6   5   72.52   18.07
   9   7   1    0.30    5.23
   9   7   2  130.65   21.27
   9   7   3   10.44    6.32
   9   7   4   61.08   15.70
 -10   1   4   31.18    8.27
 -10   1   3   17.65    6.34
 -10   1   2   -3.32    2.79
 -10   0   4   28.11    9.03
 -10   0   3   24.27    8.32
 -10   0   3    9.21    4.35
 -10   0   2   11.72    6.19
 -10   0   2   29.09    7.91
 -10   0   1   -1.83    3.08
 -10   0   1    2.59    2.16
 -10   0   0    5.66    4.59
 -10  -1   4   23.99    9.50
 -10  -1   3   32.99   10.15
 -10  -1   2    0.56    3.64
 -10  -1   2   -0.39    1.85
 -10  -1   1    4.36    3.02
 -10  -1   0   -3.36    3.48
 -10  -1  -1  107.18   15.46
 -10  -2   5   43.49   12.08
 -10  -2   4  153.22   23.36
 -10  -2   3    7.72    6.18
 -10  -2   2   27.01    6.98
 -10  -2   1    7.09    4.94
 -10  -2   0    7.71    4.46
 -10  -2  -1   15.06    6.97
 -10  -2  -2   12.97    6.19
 -10  -3   4    5.72    4.41
 -10  -3   1   20.84    6.54
 -10  -3   0   21.77    7.81
 -10  -3  -1   -1.74    2.03
 -10  -3  -2    5.49    4.91
 -10  -3  -3    3.41    5.09
 -10  -4   0    8.85    4.92
 -10  -4  -1    2.73    3.76
 -10  -4  -2    1.68    4.18
 -10  -4  -3   67.29   13.76
 -10  -5  -1   14.87    6.77
 -10  -5  -2   23.04    7.61
 -10  -5  -3    8.14    5.33
   0   0   0    0.00    0.00


TITL BM43 in P-1
REM P-1 (#2 in standard setting)
CELL 0.71073   7.680316   8.590035  12.626097  75.2259  88.0792  79.8720
ZERR   11.00   0.000356   0.000362   0.000522   0.0036   0.0036   0.0037
LATT  1
SFAC C H N Br Sb
UNIT 11.00 11.00 11.00 11.00 11.00
TREF
HKLF 4
END
_computing_structure_solution     'SHELXT 2014/5 (Sheldrick, 2014)'
;
_shelx_hkl_checksum              31746
loop_
_space_group_symop_operation_xyz
'x, y, z'
'-x, -y, -z'
loop_
_atom_site_label
_atom_site_type_symbol
_atom_site_fract_x
_atom_site_fract_y
_atom_site_fract_z
_atom_site_U_iso_or_equiv
_atom_site_adp_type
_atom_site_occupancy
_atom_site_site_symmetry_order
_atom_site_calc_flag
_atom_site_refinement_flags_posn
_atom_site_refinement_flags_adp
_atom_site_refinement_flags_occupancy
_atom_site_disorder_assembly
_atom_site_disorder_group
Sb1 Sb 0.24747(7) 0.69570(6) 0.20917(4) 0.01930(18) Uani 1 1 d . . . . .
Br1 Br 0.46474(12) 0.77651(12) 0.05808(7) 0.0314(3) Uani 1 1 d . . . . .
C1 C 0.8041(12) 0.3897(11) 0.1562(8) 0.033(2) Uani 1 1 d . . . . .
H1A H 0.7879 0.3646 0.0861 0.050 Uiso 1 1 calc R U . . .
H1B H 0.9228 0.4152 0.1599 0.050 Uiso 1 1 calc R U . . .
H1C H 0.7155 0.4839 0.1626 0.050 Uiso 1 1 calc R U . . .
N1 N 0.7829(9) 0.2461(9) 0.2473(5) 0.0237(16) Uani 1 1 d . . . . .
Br2 Br 0.49972(13) 0.60058(12) 0.34984(7) 0.0322(3) Uani 1 1 d . . . . .
C2 C 0.8175(11) 0.2513(11) 0.3486(7) 0.0263(19) Uani 1 1 d . . . . .
H2 H 0.8561 0.3445 0.3610 0.032 Uiso 1 1 calc R U . . .
C3 C 0.7972(12) 0.1199(11) 0.4370(7) 0.030(2) Uani 1 1 d . . . . .
H3 H 0.8260 0.1230 0.5089 0.036 Uiso 1 1 calc R U . . .
Br3 Br 0.29048(12) 0.40742(11) 0.18071(7) 0.0282(2) Uani 1 1 d . . . . .
Br4 Br 0.03909(13) 0.61507(12) 0.36852(7) 0.0311(3) Uani 1 1 d . . . . .
C4 C 0.7366(11) -0.0128(11) 0.4214(7) 0.0263(19) Uani 1 1 d . . . . .
C5 C 0.7038(11) -0.0135(11) 0.3139(7) 0.027(2) Uani 1 1 d . . . . .
H5 H 0.6635 -0.1043 0.2990 0.033 Uiso 1 1 calc R U . . .
Br5 Br -0.01478(12) 0.78428(12) 0.07816(7) 0.0306(3) Uani 1 1 d . . . . .
C6 C 0.7296(11) 0.1175(11) 0.2286(7) 0.028(2) Uani 1 1 d . . . . .
H6 H 0.7087 0.1149 0.1553 0.034 Uiso 1 1 calc R U . . .
Br6 Br 0.21023(13) 0.98460(11) 0.23645(8) 0.0314(3) Uani 1 1 d . . . . .
C7 C 0.7096(13) -0.1515(13) 0.5141(8) 0.037(2) Uani 1 1 d . . . . .
H7A H 0.8237 -0.2054 0.5495 0.055 Uiso 1 1 calc R U . . .
H7B H 0.6569 -0.2300 0.4868 0.055 Uiso 1 1 calc R U . . .
H7C H 0.6303 -0.1110 0.5673 0.055 Uiso 1 1 calc R U . . .
loop_
_atom_site_aniso_label
_atom_site_aniso_U_11
_atom_site_aniso_U_22
_atom_site_aniso_U_33
_atom_site_aniso_U_23
_atom_site_aniso_U_13
_atom_site_aniso_U_12
Sb1 0.0278(3) 0.0149(3) 0.0149(3) -0.0009(2) -0.0009(2) -0.0070(2)
Br1 0.0342(5) 0.0342(6) 0.0222(5) 0.0031(4) 0.0039(4) -0.0121(4)
C1 0.034(5) 0.019(5) 0.036(5) 0.014(4) -0.007(4) -0.005(4)
N1 0.030(4) 0.017(4) 0.022(4) -0.004(3) -0.002(3) 0.000(3)
Br2 0.0413(5) 0.0282(6) 0.0252(5) -0.0014(4) -0.0130(4) -0.0064(4)
C2 0.033(5) 0.018(5) 0.031(5) -0.008(4) -0.009(4) -0.006(4)
C3 0.045(6) 0.024(5) 0.024(5) -0.013(4) -0.008(4) -0.005(4)
Br3 0.0365(5) 0.0186(5) 0.0312(5) -0.0083(4) 0.0004(4) -0.0061(4)
Br4 0.0431(6) 0.0243(5) 0.0254(5) -0.0033(4) 0.0114(4) -0.0108(4)
C4 0.027(4) 0.023(5) 0.025(4) -0.006(4) -0.001(3) 0.006(4)
C5 0.033(5) 0.015(5) 0.032(5) 0.002(4) -0.010(4) -0.008(4)
Br5 0.0343(5) 0.0255(6) 0.0300(5) -0.0013(4) -0.0103(4) -0.0066(4)
C6 0.031(5) 0.026(5) 0.028(5) -0.010(4) -0.005(4) -0.002(4)
Br6 0.0426(6) 0.0190(5) 0.0350(5) -0.0084(4) -0.0027(4) -0.0084(4)
C7 0.040(6) 0.040(6) 0.031(5) -0.009(5) 0.005(4) -0.012(5)
loop_
_atom_type_symbol
_atom_type_description
_atom_type_scat_dispersion_real
_atom_type_scat_dispersion_imag
_atom_type_scat_source
C C 0.0033 0.0016 'International Tables Vol C Tables 4.2.6.8 and 6.1.1.4'
H H 0.0000 0.0000 'International Tables Vol C Tables 4.2.6.8 and 6.1.1.4'
N N 0.0061 0.0033 'International Tables Vol C Tables 4.2.6.8 and 6.1.1.4'
Br Br -0.2901 2.4595 'International Tables Vol C Tables 4.2.6.8 and 6.1.1.4'
Sb Sb -0.5866 1.5461 'International Tables Vol C Tables 4.2.6.8 and 6.1.1.4'
loop_
_geom_angle_atom_site_label_1
_geom_angle_atom_site_label_2
_geom_angle_atom_site_label_3
_geom_angle
_geom_angle_site_symmetry_1
_geom_angle_site_symmetry_3
Br5 Sb1 Br1 92.92(3) . .
Br5 Sb1 Br2 176.73(3) . .
Br1 Sb1 Br2 90.34(3) . .
Br5 Sb1 Br3 90.47(3) . .
Br1 Sb1 Br3 90.61(3) . .
Br2 Sb1 Br3 89.27(3) . .
Br5 Sb1 Br6 90.09(4) . .
Br1 Sb1 Br6 88.47(3) . .
Br2 Sb1 Br6 90.23(4) . .
Br3 Sb1 Br6 178.95(3) . .
Br5 Sb1 Br4 89.69(3) . .
Br1 Sb1 Br4 177.20(4) . .
Br2 Sb1 Br4 87.06(3) . .
Br3 Sb1 Br4 90.40(3) . .
Br6 Sb1 Br4 90.50(3) . .
N1 C1 H1A 109.5 . .
N1 C1 H1B 109.5 . .
H1A C1 H1B 109.5 . .
N1 C1 H1C 109.5 . .
H1A C1 H1C 109.5 . .
H1B C1 H1C 109.5 . .
C6 N1 C2 120.8(7) . .
C6 N1 C1 121.1(7) . .
C2 N1 C1 118.1(8) . .
N1 C2 C3 120.0(8) . .
N1 C2 H2 120.0 . .
C3 C2 H2 120.0 . .
C4 C3 C2 120.9(8) . .
C4 C3 H3 119.5 . .
C2 C3 H3 119.5 . .
C3 C4 C5 116.9(8) . .
C3 C4 C7 121.9(8) . .
C5 C4 C7 121.2(8) . .
C6 C5 C4 120.2(9) . .
C6 C5 H5 119.9 . .
C4 C5 H5 119.9 . .
N1 C6 C5 121.0(8) . .
N1 C6 H6 119.5 . .
C5 C6 H6 119.5 . .
C4 C7 H7A 109.5 . .
C4 C7 H7B 109.5 . .
H7A C7 H7B 109.5 . .
C4 C7 H7C 109.5 . .
H7A C7 H7C 109.5 . .
H7B C7 H7C 109.5 . .
loop_
_geom_bond_atom_site_label_1
_geom_bond_atom_site_label_2
_geom_bond_distance
_geom_bond_site_symmetry_2
Sb1 Br5 2.5327(10) .
Sb1 Br1 2.5346(9) .
Sb1 Br2 2.5513(10) .
Sb1 Br3 2.5552(10) .
Sb1 Br6 2.5570(11) .
Sb1 Br4 2.5598(9) .
C1 N1 1.485(10) .
C1 H1A 0.9800 .
C1 H1B 0.9800 .
C1 H1C 0.9800 .
N1 C6 1.321(12) .
N1 C2 1.328(11) .
C2 C3 1.397(12) .
C2 H2 0.9500 .
C3 C4 1.364(13) .
C3 H3 0.9500 .
C4 C5 1.391(12) .
C4 C7 1.480(12) .
C5 C6 1.383(12) .
C5 H5 0.9500 .
C6 H6 0.9500 .
C7 H7A 0.9800 .
C7 H7B 0.9800 .
C7 H7C 0.9800 .
