#------------------------------------------------------------------------------
#$Date: 2022-02-04 21:07:58 +0200 (Fri, 04 Feb 2022) $
#$Revision: 272564 $
#$URL: file:///home/coder/svn-repositories/cod/cif/1/56/53/1565374.cif $
#------------------------------------------------------------------------------
#
# This file is available in the Crystallography Open Database (COD),
# http://www.crystallography.net/
#
# All data on this site have been placed in the public domain by the
# contributors.
#
data_1565374
loop_
_publ_author_name
'Borys, Andryj M.'
'Clark, Ewan R.'
'Saines, Paul J.'
'Alberola, Antonio'
'Rawson, Jeremy M.'
_publ_section_title
;
 A short, versatile route towards benzothiadiazinyl radicals.
;
_journal_issue                   1
_journal_name_full               'Chemical science'
_journal_page_first              149
_journal_page_last               158
_journal_paper_doi               10.1039/d1sc04248c
_journal_volume                  13
_journal_year                    2021
_chemical_formula_moiety         'C16 H12 Cl4 N2 O S'
_chemical_formula_sum            'C16 H12 Cl4 N2 O S'
_chemical_formula_weight         422.14
_chemical_properties_physical    Moisture-sensitive
_space_group_crystal_system      triclinic
_space_group_IT_number           2
_space_group_name_Hall           '-P 1'
_space_group_name_H-M_alt        'P -1'
_atom_sites_solution_hydrogens   geom
_atom_sites_solution_primary     dual
_audit_creation_date             2018-06-27
_audit_creation_method
;
Olex2 1.2
(compiled 2018.05.29 svn.r3508 for OlexSys, GUI svn.r5506)
;
_audit_update_record
;
2021-08-03 deposited with the CCDC.	2021-11-23 downloaded from the CCDC.
;
_cell_angle_alpha                115.075(9)
_cell_angle_beta                 91.228(8)
_cell_angle_gamma                95.201(8)
_cell_formula_units_Z            2
_cell_length_a                   7.4264(7)
_cell_length_b                   11.9574(11)
_cell_length_c                   11.9660(9)
_cell_measurement_reflns_used    3110
_cell_measurement_temperature    99.9(6)
_cell_measurement_theta_max      75.2470
_cell_measurement_theta_min      4.3620
_cell_volume                     956.37(16)
_computing_cell_refinement       'CrysAlisPro 1.171.38.41 (Rigaku OD, 2015)'
_computing_data_collection       'CrysAlisPro 1.171.38.41 (Rigaku OD, 2015)'
_computing_data_reduction        'CrysAlisPro 1.171.38.41 (Rigaku OD, 2015)'
_computing_molecular_graphics    'Olex2 (Dolomanov et al., 2009)'
_computing_publication_material  'Olex2 (Dolomanov et al., 2009)'
_computing_structure_refinement  'ShelXL (Sheldrick, 2015)'
_computing_structure_solution    'ShelXT (Sheldrick, 2015)'
_diffrn_ambient_environment      N~2~
_diffrn_ambient_temperature      99.9(6)
_diffrn_detector                 'CCD plate'
_diffrn_detector_area_resol_mean 5.2887
_diffrn_detector_type            AtlasS2
_diffrn_measured_fraction_theta_full 0.998
_diffrn_measured_fraction_theta_max 0.998
_diffrn_measurement_details
;
List of Runs (angles in degrees, time in seconds):

  # Type    Start    End  Width  t~exp~   \w     \q     \k     \f   Frames
#--------------------------------------------------------------------------
  1  \w    -84.00  -6.00   1.00   12.50    --  -42.45 125.00  90.00   78
  2  \w   -119.00  -8.00   1.00   12.50    --  -42.45 -19.00   0.00  111
  3  \w   -114.00 -41.00   1.00   12.50    --  -42.45 -38.00 -60.00   73
  4  \w     25.00  50.00   1.00   12.50    --   42.45-125.00 -90.00   25
  5  \w     36.00  96.00   1.00   12.50    --   42.45-125.00   0.00   60
  6  \w     82.00 123.00   1.00   37.50    --  111.00  77.00 -30.00   41
  7  \w     64.00 111.00   1.00   37.50    --  111.00-111.00 -60.00   47
  8  \w     47.00 104.00   1.00   37.50    --  111.00 -94.00  90.00   57
  9  \w     84.00 122.00   1.00   37.50    --  111.00  61.00  60.00   38
 10  \w     43.00 137.00   1.00   37.50    --  111.00 -61.00 150.00   94
 11  \w     76.00 103.00   1.00   37.50    --  111.00-111.00  60.00   27
 12  \w     56.00 102.00   1.00   37.50    --  111.00 -94.00 150.00   46
 13  \w     44.00  71.00   1.00   37.50    --  111.00-111.00  60.00   27
 14  \w    127.00 177.00   1.00   37.50    --  111.00  77.00 -30.00   50
 15  \w     36.00 133.00   1.00   37.50    --  111.00 -30.00  30.00   97
 16  \w     37.00 130.00   1.00   37.50    --  111.00 -77.00 -60.00   93
 17  \w    137.00 164.00   1.00   37.50    --  111.00 111.00  90.00   27
 18  \w     45.00 137.00   1.00   37.50    --  111.00 -15.00-180.00   92
 19  \w     89.00 176.00   1.00   37.50    --  111.00  30.00  30.00   87
;
_diffrn_measurement_device       'four-circle diffractometer'
_diffrn_measurement_device_type  'SuperNova, Dual, Cu at zero, AtlasS2'
_diffrn_measurement_method       '\w scans'
_diffrn_orient_matrix_type
'CrysAlisPro convention (1999,Acta A55,543-557)'
_diffrn_orient_matrix_UB_11      0.0116791000
_diffrn_orient_matrix_UB_12      0.0654763000
_diffrn_orient_matrix_UB_13      -0.0865942000
_diffrn_orient_matrix_UB_21      -0.0297331000
_diffrn_orient_matrix_UB_22      0.1236541000
_diffrn_orient_matrix_UB_23      0.1090144000
_diffrn_orient_matrix_UB_31      0.2063030000
_diffrn_orient_matrix_UB_32      0.0300649000
_diffrn_orient_matrix_UB_33      0.0301780000
_diffrn_radiation_monochromator  mirror
_diffrn_radiation_probe          x-ray
_diffrn_radiation_type           CuK\a
_diffrn_radiation_wavelength     1.54184
_diffrn_reflns_av_R_equivalents  0.0440
_diffrn_reflns_av_unetI/netI     0.0492
_diffrn_reflns_Laue_measured_fraction_full 0.998
_diffrn_reflns_Laue_measured_fraction_max 0.998
_diffrn_reflns_limit_h_max       8
_diffrn_reflns_limit_h_min       -6
_diffrn_reflns_limit_k_max       13
_diffrn_reflns_limit_k_min       -14
_diffrn_reflns_limit_l_max       14
_diffrn_reflns_limit_l_min       -14
_diffrn_reflns_number            6147
_diffrn_reflns_point_group_measured_fraction_full 0.998
_diffrn_reflns_point_group_measured_fraction_max 0.998
_diffrn_reflns_theta_full        67.075
_diffrn_reflns_theta_max         67.075
_diffrn_reflns_theta_min         4.088
_diffrn_source                   'micro-focus sealed X-ray tube'
_diffrn_source_type              'SuperNova (Cu) X-ray Source'
_exptl_absorpt_coefficient_mu    6.697
_exptl_absorpt_correction_T_max  0.804
_exptl_absorpt_correction_T_min  0.295
_exptl_absorpt_correction_type   gaussian
_exptl_absorpt_process_details
;
CrysAlisPro 1.171.38.41 (Rigaku Oxford Diffraction, 2015)
Numerical absorption correction based on gaussian integration over
			a multifaceted crystal model
Empirical absorption correction using spherical harmonics,
 implemented in SCALE3 ABSPACK scaling algorithm.
;
_exptl_crystal_colour            'dark yellow'
_exptl_crystal_colour_modifier   dark
_exptl_crystal_colour_primary    yellow
_exptl_crystal_density_diffrn    1.466
_exptl_crystal_description       needle
_exptl_crystal_F_000             428
_exptl_crystal_size_max          0.415
_exptl_crystal_size_mid          0.042
_exptl_crystal_size_min          0.028
_refine_diff_density_max         0.812
_refine_diff_density_min         -0.836
_refine_diff_density_rms         0.097
_refine_ls_extinction_method     none
_refine_ls_goodness_of_fit_ref   1.056
_refine_ls_hydrogen_treatment    constr
_refine_ls_matrix_type           full
_refine_ls_number_parameters     218
_refine_ls_number_reflns         3403
_refine_ls_number_restraints     0
_refine_ls_restrained_S_all      1.056
_refine_ls_R_factor_all          0.0611
_refine_ls_R_factor_gt           0.0546
_refine_ls_shift/su_max          0.000
_refine_ls_shift/su_mean         0.000
_refine_ls_structure_factor_coef Fsqd
_refine_ls_weighting_details
'w=1/[\s^2^(Fo^2^)+(0.0891P)^2^+0.7585P] where P=(Fo^2^+2Fc^2^)/3'
_refine_ls_weighting_scheme      calc
_refine_ls_wR_factor_gt          0.1486
_refine_ls_wR_factor_ref         0.1565
_reflns_Friedel_coverage         0.000
_reflns_number_gt                2906
_reflns_number_total             3403
_reflns_threshold_expression     'I > 2\s(I)'
_iucr_refine_instructions_details
;
TITL serc232-r1-rf_a.res in P-1
    serc232-r1-rf.res
    created by SHELXL-2016/6 at 19:50:33 on 27-Jun-2018
REM Old TITL sERC232-R1-rf in P-1
REM SHELXT solution in P-1
REM R1 0.164, Rweak 0.007, Alpha 0.041, Orientation as input
REM Formula found by SHELXT: C17 N2 O3 S Cl4
CELL 1.54184 7.4264 11.9574 11.966 115.075 91.228 95.201
ZERR 2 0.0007 0.0011 0.0009 0.009 0.008 0.008
LATT 1
SFAC C H Cl N O S
UNIT 32 24 8 4 2 2

L.S. 24
PLAN  20
BOND $H
list 4
ABIN
fmap 2
ACTA
SHEL 1000 0.837
REM <olex2.extras>
REM <HklSrc "%.\\sERC232-R1-rf.hkl">
REM </olex2.extras>

WGHT    0.089100    0.758500
FVAR       0.46109
S1    6    0.791606    0.356541    0.238776    11.00000    0.02438    0.02412 =
         0.03204    0.00863    0.00617    0.00591
CL4   3    0.593572    0.694640    0.090226    11.00000    0.03290    0.03355 =
         0.03091    0.01297    0.00070    0.00769
CL3   3    0.737338    0.966048    0.364225    11.00000    0.03278    0.02481 =
         0.04766    0.01370    0.01030    0.00218
CL2   3    0.784252    0.899837    0.630071    11.00000    0.03524    0.04066 =
         0.03674    0.00111   -0.00189    0.00019
CL1   3    0.520224    0.241802    0.155222    11.00000    0.03761    0.03593 =
         0.04127    0.01365   -0.00189   -0.00274
O1    5    0.879936    0.347240    0.895749    11.00000    0.03995    0.03737 =
         0.03738    0.01932    0.00749    0.01136
N2    4    0.716937    0.543758    0.493529    11.00000    0.01686    0.02288 =
         0.03350    0.01180    0.00477    0.00328
N1    4    0.836234    0.352756    0.365867    11.00000    0.02407    0.02743 =
         0.03764    0.01128    0.00371    0.00782
C9    1    0.692877    0.576752    0.397840    11.00000    0.01358    0.02397 =
         0.03364    0.01048    0.00324    0.00090
C14   1    0.721699    0.500971    0.274753    11.00000    0.01696    0.02545 =
         0.03249    0.01008    0.00151    0.00322
C3    1    0.783155    0.500693    0.702737    11.00000    0.01846    0.02451 =
         0.03725    0.01066    0.00538    0.00456
AFIX  43
H3    2    0.746693    0.576657    0.713007    11.00000   -1.20000
AFIX   0
C7    1    0.865839    0.299631    0.570796    11.00000    0.01546    0.02245 =
         0.03935    0.00913    0.00280    0.00145
AFIX  43
H7    2    0.887424    0.240718    0.492649    11.00000   -1.20000
AFIX   0
C11   1    0.607749    0.733116    0.332295    11.00000    0.01361    0.02473 =
         0.03311    0.01020    0.00409    0.00231
C10   1    0.634855    0.696000    0.426055    11.00000    0.01586    0.02375 =
         0.03187    0.00945    0.00372    0.00194
C1    1    0.782518    0.439355    0.475061    11.00000    0.01594    0.02219 =
         0.03553    0.00951    0.00301    0.00108
C2    1    0.811489    0.412168    0.583463    11.00000    0.01400    0.02540 =
         0.03721    0.01429    0.00121    0.00206
C12   1    0.635468    0.651742    0.209185    11.00000    0.01805    0.02855 =
         0.03279    0.01308    0.00106    0.00073
C6    1    0.888789    0.272851    0.672082    11.00000    0.01909    0.02524 =
         0.04165    0.01599    0.00196    0.00367
AFIX  43
H6    2    0.923063    0.196268    0.661522    11.00000   -1.20000
AFIX   0
C13   1    0.694356    0.536840    0.178842    11.00000    0.02012    0.02850 =
         0.02937    0.00807    0.00340    0.00281
AFIX  43
H13   2    0.715167    0.485037    0.097666    11.00000   -1.20000
AFIX   0
C15   1    0.602537    0.776073    0.558151    11.00000    0.02666    0.02492 =
         0.03109    0.00932    0.00740    0.00710
AFIX  23
H15A  2    0.592346    0.725439    0.603615    11.00000   -1.20000
H15B  2    0.489127    0.811397    0.561519    11.00000   -1.20000
AFIX   0
C16   1    0.547226    0.857551    0.358312    11.00000    0.02272    0.02629 =
         0.03600    0.01335    0.00440    0.00413
AFIX  23
H16A  2    0.490977    0.889232    0.436635    11.00000   -1.20000
H16B  2    0.457752    0.848878    0.294091    11.00000   -1.20000
AFIX   0
C4    1    0.808329    0.477081    0.804439    11.00000    0.02351    0.03097 =
         0.03665    0.01154    0.00521    0.00585
AFIX  43
H4    2    0.791169    0.537384    0.882853    11.00000   -1.20000
AFIX   0
C5    1    0.859883    0.362087    0.789999    11.00000    0.02021    0.03028 =
         0.03828    0.01742    0.00612    0.00316
C8    1    0.912789    0.227452    0.885928    11.00000    0.03744    0.03444 =
         0.04563    0.02178    0.00700    0.01226
AFIX 137
H8A   2    0.812223    0.167706    0.840268    11.00000   -1.50000
H8B   2    0.926935    0.230578    0.967170    11.00000   -1.50000
H8C   2    1.021255    0.203692    0.843756    11.00000   -1.50000
AFIX   0
HKLF 4




REM  serc232-r1-rf_a.res in P-1
REM R1 =  0.0546 for    2906 Fo > 4sig(Fo)  and  0.0611 for all    3403 data
REM    218 parameters refined using      0 restraints

END  
     
WGHT      0.0891      0.7597 

REM Highest difference peak  0.812,  deepest hole -0.836,  1-sigma level  0.097
Q1    1   0.8231  0.8434  0.6414  11.00000  0.05    0.81
Q2    1   0.7654  0.1638  0.8936  11.00000  0.05    0.61
Q3    1   0.3216  0.1992  0.1153  11.00000  0.05    0.56
Q4    1   0.8373  0.9424  0.3804  11.00000  0.05    0.50
Q5    1   0.8137  0.3330  0.1675  11.00000  0.05    0.48
Q6    1   0.7471  0.9899  0.4340  11.00000  0.05    0.45
Q7    1   0.5467  0.2232  0.0741  11.00000  0.05    0.37
Q8    1   0.6634  0.5859  0.1989  11.00000  0.05    0.35
Q9    1   0.5636  0.1741  0.1152  11.00000  0.05    0.34
Q10   1   0.4708  0.9055  0.2945  11.00000  0.05    0.33
Q11   1   0.7673  0.9791  0.5608  11.00000  0.05    0.33
Q12   1   0.6348  0.2163  0.1668  11.00000  0.05    0.33
Q13   1   0.6840  0.7399  0.0962  11.00000  0.05    0.32
Q14   1   0.5450  0.3479  0.1152  11.00000  0.05    0.32
Q15   1   0.5459  0.9822  0.4010  11.00000  0.05    0.32
Q16   1   0.7591  0.4537  0.2642  11.00000  0.05    0.32
Q17   1   0.8331  0.4246  0.7818  11.00000  0.05    0.30
Q18   1   0.8214  0.3538  0.5806  11.00000  0.05    0.29
Q19   1   0.4168  0.3129  0.1062  11.00000  0.05    0.29
Q20   1   0.5017  0.7768  0.0456  11.00000  0.05    0.27

  REM The information below was added by Olex2.
  REM
  REM R1 = 0.0546 for 2906 Fo > 4sig(Fo) and 0.0611 for all 6694 data
  REM n/a parameters refined using n/a restraints
  REM Highest difference peak 0.81, deepest hole -0.84
  REM Mean Shift 0, Max Shift 0.000.

  REM +++ Tabular Listing of Refinement Information +++
  REM R1_all = 0.0611
  REM R1_gt = 0.0546
  REM wR_ref = 0.1565
  REM GOOF = 1.056
  REM Shift_max = 0.000
  REM Shift_mean = 0
  REM Reflections_all = 6694
  REM Reflections_gt = 2906
  REM Parameters = n/a
  REM Hole = -0.84
  REM Peak = 0.81
  REM Flack = n/a

  
;
_cod_data_source_file            d1sc04248c2.cif
_cod_data_source_block           serc232-r1-rf
_cod_depositor_comments
'Adding full bibliography for 1565368--1565385.cif.'
_cod_database_code               1565374
_shelx_shelxl_version_number     2016/6
_chemical_oxdiff_formula         'C15 O0.5 S1.5 Cl5 N2 H12'
_chemical_oxdiff_usercomment     ABS-326
_shelx_space_group_comment
;
The symmetry employed for this shelxl refinement is uniquely defined
by the following loop, which should always be used as a source of
symmetry information in preference to the above space-group names.
They are only intended as comments.
;
_reflns_odcompleteness_completeness 99.79
_reflns_odcompleteness_iscentric 1
_reflns_odcompleteness_theta     66.97
_olex2_refinement_description
;
1. Fixed Uiso
 At 1.2 times of:
  All C(H) groups, All C(H,H) groups
 At 1.5 times of:
  All C(H,H,H) groups
2.a Secondary CH2 refined with riding coordinates:
 C15(H15A,H15B), C16(H16A,H16B)
2.b Aromatic/amide H refined with riding coordinates:
 C3(H3), C7(H7), C6(H6), C13(H13), C4(H4)
2.c Idealised Me refined as rotating group:
 C8(H8A,H8B,H8C)
;
_shelx_fab_file
;
-8 -4 1 -0.6012 0.3140
-8 -4 2 -1.0960 0.0852
-8 -4 3 -1.5912 -0.1248
-8 -4 4 -1.7205 -0.0824
-8 -4 5 -1.2307 0.0291
-8 -3 1 -0.5919 0.4616
-8 -3 2 -1.5529 0.1414
-8 -3 3 -2.3664 -0.1079
-8 -3 4 -2.4477 -0.1436
-8 -3 5 -1.6839 -0.0507
-8 -3 6 -0.6314 0.1023
-8 -2 1 -0.8255 0.4945
-8 -2 2 -2.3447 0.1992
-8 -2 3 -3.3177 -0.0909
-8 -2 4 -3.1232 -0.1766
-8 -2 5 -1.9607 -0.0154
-8 -2 6 -0.6311 0.2032
-8 -1 1 -1.5539 0.4895
-8 -1 2 -3.4658 0.2138
-8 -1 3 -4.2285 -0.0800
-8 -1 4 -3.5225 -0.1287
-8 -1 5 -2.0069 0.0390
-8 -1 6 -0.5689 0.1679
-8 0 1 -2.7872 0.3936
-8 0 2 -4.5970 0.1499
-8 0 3 -4.7432 -0.0611
-8 0 4 -3.5156 -0.0930
-8 0 5 -1.7880 -0.0172
-8 0 6 -0.3143 0.0646
-8 1 1 -4.0108 0.2088
-8 1 2 -5.1230 0.0651
-8 1 3 -4.5696 -0.0615
-8 1 4 -3.0175 -0.1166
-8 1 5 -1.1786 -0.0589
-8 2 1 -4.3984 0.0675
-8 2 2 -4.6723 0.0178
-8 2 3 -3.7397 -0.0669
-8 2 4 -2.1393 -0.0985
-8 2 5 -0.4046 -0.0021
-8 3 1 -3.7602 0.0395
-8 3 2 -3.6196 0.0327
-8 3 3 -2.7252 -0.0288
-8 3 4 -1.3458 -0.0491
-8 4 1 -2.8949 0.0974
-8 4 2 -2.7372 0.1125
-8 4 3 -2.0022 0.0175
-8 4 4 -0.9029 -0.0573
-8 5 1 -2.5506 0.2215
-8 5 2 -2.2353 0.2227
-8 5 3 -1.4219 0.0539
-8 6 1 -2.4243 0.3673
-7 -7 1 0.1469 0.2457
-7 -7 2 -0.5507 0.0894
-7 -7 3 -1.3333 -0.0989
-7 -7 4 -1.9552 -0.1169
-7 -7 5 -2.1243 0.0699
-7 -7 6 -1.7519 0.2068
-7 -6 1 -0.1115 0.4344
-7 -6 2 -1.0255 0.2396
-7 -6 3 -1.8943 -0.0830
-7 -6 4 -2.5994 -0.1763
-7 -6 5 -2.8244 0.0329
-7 -6 6 -2.4081 0.1774
-7 -6 7 -1.5973 0.0696
-7 -5 1 -0.1705 0.6420
-7 -5 2 -1.1257 0.3502
-7 -5 3 -2.2021 -0.0766
-7 -5 4 -3.2164 -0.1854
-7 -5 5 -3.6076 -0.0048
-7 -5 6 -3.0911 0.0910
-7 -5 7 -2.0127 0.0217
-7 -5 8 -0.8721 -0.0421
-7 -4 1 0.1766 0.6779
-7 -4 2 -1.0421 0.3385
-7 -4 3 -2.6400 -0.0579
-7 -4 4 -4.0791 -0.1668
-7 -4 5 -4.4482 -0.0643
-7 -4 6 -3.5850 0.0232
-7 -4 7 -2.1268 0.0241
-7 -4 8 -0.6422 -0.0383
-7 -3 1 0.5575 0.5098
-7 -3 2 -1.2912 0.2475
-7 -3 3 -3.5384 -0.0477
-7 -3 4 -5.0780 -0.1464
-7 -3 5 -4.9828 -0.0541
-7 -3 6 -3.6093 0.0585
-7 -3 7 -1.7639 0.0443
-7 -3 8 0.0320 -0.0468
-7 -3 9 1.0526 -0.0284
-7 -2 1 0.3449 0.2599
-7 -2 2 -2.2388 0.1124
-7 -2 3 -4.6899 -0.0542
-7 -2 4 -5.6541 -0.0629
-7 -2 5 -4.8569 0.0437
-7 -2 6 -3.0866 0.0752
-7 -2 7 -0.9202 -0.0089
-7 -2 8 1.0005 -0.0504
-7 -1 1 -0.7233 0.0013
-7 -1 2 -3.5097 -0.0347
-7 -1 3 -5.2921 -0.0232
-7 -1 4 -5.3062 0.0505
-7 -1 5 -4.0518 0.0644
-7 -1 6 -2.1052 -0.0069
-7 -1 7 0.2392 -0.0453
-7 -1 8 1.9177 -0.0092
-7 0 1 -1.9909 -0.2247
-7 0 2 -4.0678 -0.1151
-7 0 3 -4.7221 0.0326
-7 0 4 -4.1069 0.0687
-7 0 5 -2.8329 -0.0090
-7 0 6 -0.9271 -0.0362
-7 0 7 1.2485 0.0122
-7 0 8 2.3436 0.0076
-7 1 1 -2.3269 -0.3228
-7 1 2 -3.3633 -0.0982
-7 1 3 -3.3068 0.0573
-7 1 4 -2.6772 0.0313
-7 1 5 -1.6985 -0.0253
-7 1 6 -0.1060 0.0115
-7 1 7 1.5708 0.0360
-7 1 8 2.1239 -0.0236
-7 2 1 -1.5383 -0.2625
-7 2 2 -2.1410 -0.0303
-7 2 3 -2.0912 0.0778
-7 2 4 -1.7769 0.0314
-7 2 5 -1.1510 -0.0256
-7 2 6 0.0631 -0.0210
-7 2 7 1.3081 0.0057
-7 3 1 -0.7927 -0.1441
-7 3 2 -1.6444 0.0392
-7 3 3 -1.8121 0.1000
-7 3 4 -1.5954 0.0052
-7 3 5 -0.9788 -0.0991
-7 3 6 0.1205 -0.0698
-7 3 7 1.0863 0.0725
-7 4 1 -1.1161 -0.0673
-7 4 2 -2.1041 0.0636
-7 4 3 -2.0319 0.0728
-7 4 4 -1.3478 -0.0378
-7 4 5 -0.3767 -0.0920
-7 4 6 0.5935 0.0190
-7 5 1 -1.9404 -0.0520
-7 5 2 -2.3787 0.0251
-7 5 3 -1.5828 0.0508
-7 5 4 -0.3277 0.0436
-7 5 5 0.6504 0.0580
-7 6 1 -1.7806 -0.0906
-7 6 2 -1.4084 -0.0314
-7 6 3 -0.2517 0.0942
-7 6 4 0.7807 0.1748
-7 7 1 -0.2452 -0.1762
-7 7 2 0.2198 -0.0869
-7 7 3 0.7102 0.0940
-7 8 1 1.3187 -0.2643
-7 8 2 0.9596 -0.1566
-6 -9 2 0.4937 0.1358
-6 -9 3 -0.3452 -0.0131
-6 -9 4 -1.6167 -0.0778
-6 -9 5 -2.9051 -0.0210
-6 -9 6 -3.4085 0.0869
-6 -9 7 -2.8756 0.0909
-6 -8 1 1.4539 0.2809
-6 -8 2 0.4937 0.2003
-6 -8 3 -0.8742 0.0306
-6 -8 4 -2.4017 -0.0763
-6 -8 5 -3.5633 -0.0281
-6 -8 6 -3.8030 0.1028
-6 -8 7 -3.2087 0.0861
-6 -8 8 -2.2669 -0.0836
-6 -8 9 -1.2056 -0.0882
-6 -7 1 1.5670 0.3390
-6 -7 2 0.2453 0.2587
-6 -7 3 -1.2025 0.0503
-6 -7 4 -2.5534 -0.1015
-6 -7 5 -3.5190 -0.0452
-6 -7 6 -3.7987 0.0946
-6 -7 7 -3.3417 0.0754
-6 -7 8 -2.3440 -0.0275
-6 -7 9 -1.0958 0.0142
-6 -6 1 1.4806 0.2950
-6 -6 2 0.1939 0.2119
-6 -6 3 -1.0856 0.0204
-6 -6 4 -2.3504 -0.0896
-6 -6 5 -3.4857 -0.0239
-6 -6 6 -3.9545 0.0598
-6 -6 7 -3.4228 0.0320
-6 -6 8 -2.2103 -0.0084
-6 -6 9 -0.8157 0.0037
-6 -6 10 0.3744 -0.0073
-6 -5 1 1.7609 0.0717
-6 -5 2 0.5824 0.0527
-6 -5 3 -0.7870 0.0095
-6 -5 4 -2.4756 -0.0095
-6 -5 5 -3.9884 -0.0075
-6 -5 6 -4.3500 -0.0218
-6 -5 7 -3.4354 -0.0294
-6 -5 8 -1.9201 -0.0141
-6 -5 9 -0.2757 -0.0253
-6 -5 10 1.0576 -0.0396
-6 -4 1 2.5522 -0.2652
-6 -4 2 1.1070 -0.1239
-6 -4 3 -0.9282 0.0344
-6 -4 4 -3.2900 0.0663
-6 -4 5 -4.7960 -0.0132
-6 -4 6 -4.6065 -0.0748
-6 -4 7 -3.2084 -0.0478
-6 -4 8 -1.3351 0.0028
-6 -4 9 0.5810 0.0103
-6 -4 10 1.7315 0.0261
-6 -3 1 3.1226 -0.5702
-6 -3 2 0.9485 -0.2616
-6 -3 3 -1.8417 0.0493
-6 -3 4 -4.2730 0.1289
-6 -3 5 -5.0873 0.0244
-6 -3 6 -4.2381 -0.0764
-6 -3 7 -2.5159 -0.0572
-6 -3 8 -0.4028 0.0299
-6 -3 9 1.4283 0.0672
-6 -3 10 1.9364 0.0520
-6 -2 1 2.4441 -0.7555
-6 -2 2 -0.1450 -0.3460
-6 -2 3 -2.7623 0.0758
-6 -2 4 -4.3033 0.2106
-6 -2 5 -4.2355 0.0578
-6 -2 6 -3.1111 -0.1151
-6 -2 7 -1.4268 -0.0778
-6 -2 8 0.5307 0.0624
-6 -2 9 1.8288 0.0749
-6 -2 10 1.6950 0.0049
-6 -1 1 0.8346 -0.7950
-6 -1 2 -0.9501 -0.3384
-6 -1 3 -2.3939 0.1298
-6 -1 4 -2.9013 0.2330
-6 -1 5 -2.5265 0.0051
-6 -1 6 -1.7189 -0.1519
-6 -1 7 -0.4894 -0.0419
-6 -1 8 0.9586 0.0824
-6 -1 9 1.7404 0.0326
-6 -1 10 1.4473 -0.0172
-6 0 1 0.1998 -0.6772
-6 0 2 -0.1050 -0.2425
-6 0 3 -0.6315 0.1440
-6 0 4 -0.9487 0.1636
-6 0 5 -1.0430 -0.0336
-6 0 6 -0.9371 -0.0919
-6 0 7 -0.2724 0.0095
-6 0 8 0.8261 0.0483
-6 0 9 1.5414 0.0047
-6 0 10 1.4135 0.0128
-6 1 1 1.6159 -0.4400
-6 1 2 1.8735 -0.1283
-6 1 3 1.1058 0.1115
-6 1 4 0.1245 0.1125
-6 1 5 -0.7596 0.0047
-6 1 6 -1.1503 -0.0394
-6 1 7 -0.5462 -0.0217
-6 1 8 0.6877 0.0016
-6 1 9 1.4951 0.0178
-6 2 1 3.6653 -0.1884
-6 2 2 3.1695 -0.0424
-6 2 3 1.5262 0.0867
-6 2 4 -0.2371 0.0896
-6 2 5 -1.4832 -0.0044
-6 2 6 -1.5461 -0.0791
-6 2 7 -0.3976 -0.0610
-6 2 8 0.9201 0.0058
-6 2 9 1.3520 0.0221
-6 3 1 4.3696 -0.0285
-6 3 2 3.0451 -0.0083
-6 3 3 0.8866 0.0407
-6 3 4 -1.0833 0.0170
-6 3 5 -1.8357 -0.0569
-6 3 6 -1.0079 -0.0742
-6 3 7 0.3999 -0.0203
-6 3 8 1.0674 0.0147
-6 4 1 3.8293 -0.0039
-6 4 2 2.6012 -0.0509
-6 4 3 0.6097 -0.0384
-6 4 4 -0.9568 -0.0242
-6 4 5 -0.9692 -0.0046
-6 4 6 0.1497 0.0183
-6 4 7 0.8625 0.0072
-6 5 1 3.7665 -0.0846
-6 5 2 3.1966 -0.1315
-6 5 3 1.5332 -0.0614
-6 5 4 0.1893 0.0452
-6 5 5 0.0897 0.0949
-6 5 6 0.4748 0.0442
-6 5 7 0.2894 -0.0466
-6 6 1 5.0354 -0.2042
-6 6 2 4.6522 -0.1847
-6 6 3 2.7064 -0.0266
-6 6 4 0.8051 0.0981
-6 6 5 -0.0991 0.0824
-6 6 6 -0.4021 -0.0251
-6 7 1 6.5218 -0.3034
-6 7 2 5.3490 -0.2055
-6 7 3 2.5520 -0.0248
-6 7 4 0.0125 0.0550
-6 7 5 -1.1731 0.0093
-6 8 1 6.5149 -0.3113
-6 8 2 4.2225 -0.1832
-6 8 3 1.0775 -0.0368
-6 8 4 -1.0911 0.0163
-6 9 1 4.6950 -0.1745
-6 9 2 2.1106 -0.0925
-5 -11 5 -0.2662 0.0471
-5 -10 1 2.1422 0.0075
-5 -10 2 2.0741 0.0753
-5 -10 3 1.3660 0.0869
-5 -10 4 0.3998 0.0753
-5 -10 5 -0.9435 0.0373
-5 -10 6 -2.3375 -0.0249
-5 -10 7 -2.8914 -0.0401
-5 -10 8 -2.4312 -0.0642
-5 -10 9 -1.5641 -0.1796
-5 -9 1 2.9113 -0.0848
-5 -9 2 2.3182 0.0004
-5 -9 3 1.2974 0.0661
-5 -9 4 0.0608 0.0749
-5 -9 5 -1.3203 0.0183
-5 -9 6 -2.3670 -0.0215
-5 -9 7 -2.7323 -0.0002
-5 -9 8 -2.5544 -0.0270
-5 -9 9 -1.8602 -0.0935
-5 -9 10 -0.6652 -0.0104
-5 -8 1 2.9869 -0.1582
-5 -8 2 2.1411 -0.0479
-5 -8 3 1.0940 0.0602
-5 -8 4 -0.0214 0.0625
-5 -8 5 -1.0345 -0.0269
-5 -8 6 -1.8395 -0.0654
-5 -8 7 -2.4739 -0.0118
-5 -8 8 -2.6554 0.0319
-5 -8 9 -1.8766 0.0519
-5 -8 10 -0.3890 0.0994
-5 -8 11 0.7048 0.1156
-5 -7 1 2.6825 -0.2773
-5 -7 2 2.0076 -0.1562
-5 -7 3 1.2146 0.0244
-5 -7 4 0.3618 0.0685
-5 -7 5 -0.5293 -0.0323
-5 -7 6 -1.5443 -0.0955
-5 -7 7 -2.4821 -0.0312
-5 -7 8 -2.6719 0.0688
-5 -7 9 -1.6471 0.1003
-5 -7 10 0.0692 0.0387
-5 -7 11 1.2512 -0.0533
-5 -6 1 2.5092 -0.5084
-5 -6 2 2.3930 -0.3153
-5 -6 3 1.9207 0.0180
-5 -6 4 0.9842 0.1472
-5 -6 5 -0.3024 0.0198
-5 -6 6 -1.6353 -0.1107
-5 -6 7 -2.5555 -0.0735
-5 -6 8 -2.5171 0.0412
-5 -6 9 -1.2074 0.0672
-5 -6 10 0.7478 -0.0253
-5 -6 11 1.8704 -0.1041
-5 -5 1 2.9963 -0.7384
-5 -5 2 3.4443 -0.4135
-5 -5 3 2.8868 0.0632
-5 -5 4 1.3688 0.2315
-5 -5 5 -0.3853 0.0602
-5 -5 6 -1.6846 -0.1206
-5 -5 7 -2.3139 -0.1061
-5 -5 8 -1.9986 0.0171
-5 -5 9 -0.4356 0.0752
-5 -5 10 1.5109 0.0189
-5 -5 11 2.1242 -0.0485
-5 -4 1 3.8619 -0.8210
-5 -4 2 4.2404 -0.4187
-5 -4 3 3.1765 0.0823
-5 -4 4 1.2932 0.2398
-5 -4 5 -0.2609 0.0805
-5 -4 6 -1.0657 -0.0911
-5 -4 7 -1.3891 -0.0941
-5 -4 8 -0.9871 0.0291
-5 -4 9 0.4630 0.1142
-5 -4 10 1.8777 0.0641
-5 -4 11 1.7637 -0.0345
-5 -3 1 3.5137 -0.7259
-5 -3 2 3.5283 -0.3573
-5 -3 3 2.6165 0.0584
-5 -3 4 1.4877 0.2015
-5 -3 5 0.8630 0.0955
-5 -3 6 0.5323 -0.0552
-5 -3 7 0.0774 -0.0742
-5 -3 8 0.0435 0.0339
-5 -3 9 0.8824 0.0926
-5 -3 10 1.6028 0.0202
-5 -3 11 1.1581 -0.0566
-5 -2 1 1.1580 -0.4623
-5 -2 2 2.0510 -0.2122
-5 -2 3 2.7052 0.0415
-5 -2 4 3.0165 0.1282
-5 -2 5 3.0691 0.0498
-5 -2 6 2.4439 -0.0539
-5 -2 7 1.1418 -0.0470
-5 -2 8 0.2936 0.0192
-5 -2 9 0.5652 0.0146
-5 -2 10 1.0655 -0.0331
-5 -2 11 0.8715 -0.0243
-5 -1 1 -0.9433 -0.0645
-5 -1 2 2.3383 -0.0087
-5 -1 3 4.6932 0.0095
-5 -1 4 5.5796 -0.0084
-5 -1 5 5.1337 -0.0341
-5 -1 6 3.3031 -0.0207
-5 -1 8 -0.3275 0.0011
-5 -1 9 0.0264 -0.0364
-5 -1 10 0.7876 -0.0236
-5 -1 11 0.9189 0.0125
-5 0 1 0.1336 0.3277
-5 0 2 5.0942 0.1459
-5 0 3 7.4625 -0.0618
-5 0 4 7.4542 -0.1279
-5 0 5 5.5895 -0.0445
-5 0 6 2.4571 0.0570
-5 0 7 -0.2189 0.0548
-5 0 8 -0.8969 -0.0129
-5 0 9 -0.0579 -0.0318
-5 0 10 0.7410 -0.0087
-5 0 11 0.7736 -0.0192
-5 1 1 3.6232 0.5572
-5 1 2 7.8840 0.1987
-5 1 3 8.8605 -0.1080
-5 1 4 7.4699 -0.1417
-5 1 5 4.3351 -0.0032
-5 1 6 0.8710 0.0760
-5 1 7 -0.8678 0.0346
-5 1 8 -0.5496 -0.0146
-5 1 9 0.2703 -0.0132
-5 1 10 0.4695 -0.0103
-5 2 1 5.9666 0.5813
-5 2 2 8.5224 0.1736
-5 2 3 8.4395 -0.1062
-5 2 4 6.2447 -0.1066
-5 2 5 2.7630 0.0009
-5 2 6 0.1463 0.0373
-5 2 7 -0.2635 0.0092
-5 2 8 0.3408 -0.0073
-5 2 9 0.3577 0.0140
-5 2 10 -0.0905 0.0539
-5 3 1 5.7884 0.4395
-5 3 2 7.7537 0.0873
-5 3 3 7.5791 -0.1017
-5 3 4 5.2142 -0.0732
-5 3 5 2.1204 0.0119
-5 3 6 0.5401 0.0364
-5 3 7 0.6026 0.0057
-5 3 8 0.5950 -0.0032
-5 3 9 -0.0517 0.0725
-5 4 1 5.1696 0.2215
-5 4 2 7.5526 -0.0106
-5 4 3 7.3824 -0.0839
-5 4 4 4.8304 -0.0113
-5 4 5 1.9665 0.0708
-5 4 6 0.5877 0.0620
-5 4 7 0.2393 -0.0112
-5 4 8 -0.1665 -0.0170
-5 4 9 -0.4510 0.0996
-5 5 1 6.0557 0.0693
-5 5 2 8.3201 -0.0391
-5 5 3 7.3589 -0.0434
-5 5 4 4.0897 0.0343
-5 5 5 0.8745 0.0936
-5 5 6 -0.8243 0.0478
-5 5 7 -1.2837 -0.0595
-5 5 8 -1.0509 -0.0825
-5 6 1 7.7808 0.0615
-5 6 2 8.7049 0.0019
-5 6 3 6.2511 -0.0397
-5 6 4 2.0886 -0.0135
-5 6 5 -1.3345 0.0366
-5 6 6 -2.7591 -0.0023
-5 6 7 -2.4135 -0.1300
-5 7 1 8.4536 0.1645
-5 7 2 7.5162 0.0743
-5 7 3 3.8394 -0.0804
-5 7 4 -0.4132 -0.1192
-5 7 5 -3.0677 -0.0476
-5 7 6 -3.3978 -0.0537
-5 8 1 7.3151 0.3409
-5 8 2 5.1223 0.1716
-5 8 3 1.3907 -0.1210
-5 8 4 -1.7764 -0.2124
-5 8 5 -2.9795 -0.1067
-5 9 1 5.1814 0.5137
-5 9 2 2.8427 0.2203
-5 9 3 0.1234 -0.1672
-5 9 4 -1.4982 -0.2495
-5 10 1 3.1561 0.5035
-5 10 2 1.4051 0.1355
-4 -12 4 1.4379 0.1156
-4 -12 5 1.0729 -0.0184
-4 -12 6 0.5533 -0.0840
-4 -12 7 -0.4725 -0.0631
-4 -11 1 1.7778 0.1045
-4 -11 2 2.4358 0.0898
-4 -11 3 2.1665 0.0818
-4 -11 4 1.5739 0.0388
-4 -11 5 1.0160 -0.0378
-4 -11 6 0.1745 -0.0725
-4 -11 7 -0.7484 -0.0008
-4 -11 8 -1.0968 0.0941
-4 -11 9 -0.8935 0.0268
-4 -10 1 2.2926 0.0308
-4 -10 2 2.3520 -0.0358
-4 -10 3 1.8030 -0.0025
-4 -10 4 1.2530 0.0197
-4 -10 5 0.7843 -0.0183
-4 -10 6 0.2843 -0.0327
-4 -10 7 -0.1066 0.0355
-4 -10 8 -0.4124 0.0781
-4 -10 9 -0.7035 -0.0060
-4 -10 10 -0.6149 -0.0620
-4 -10 11 0.0085 0.0643
-4 -9 1 2.0206 -0.0655
-4 -9 2 1.6453 -0.1071
-4 -9 3 1.1852 -0.0336
-4 -9 4 1.0453 0.0271
-4 -9 5 1.1223 0.0123
-4 -9 6 1.1691 -0.0238
-4 -9 7 0.9067 -0.0112
-4 -9 8 0.1811 0.0182
-4 -9 9 -0.5466 0.0244
-4 -9 10 -0.5458 0.0638
-4 -9 11 0.1381 0.1191
-4 -8 1 1.0297 -0.1432
-4 -8 2 0.6380 -0.1819
-4 -8 3 0.7996 -0.0793
-4 -8 4 1.4984 0.0433
-4 -8 5 2.1737 0.0511
-4 -8 6 2.3207 -0.0306
-4 -8 7 1.7259 -0.0599
-4 -8 8 0.5988 -0.0044
-4 -8 9 -0.3606 0.0601
-4 -8 10 -0.4764 0.0837
-4 -8 11 0.1904 0.0242
-4 -8 12 0.8922 -0.1093
-4 -7 1 -0.6050 -0.2540
-4 -7 2 -0.2811 -0.2740
-4 -7 3 1.1177 -0.0978
-4 -7 4 2.7348 0.0948
-4 -7 5 3.5750 0.1023
-4 -7 6 3.3507 -0.0179
-4 -7 7 2.3209 -0.0713
-4 -7 8 0.9236 -0.0264
-4 -7 9 -0.2012 0.0270
-4 -7 10 -0.4179 0.0303
-4 -7 11 0.2424 -0.0407
-4 -7 12 0.9485 -0.1338
-4 -6 1 -2.1961 -0.2968
-4 -6 2 -0.4149 -0.2552
-4 -6 3 2.2410 -0.0474
-4 -6 4 4.2483 0.1287
-4 -6 5 4.7811 0.1116
-4 -6 6 4.0928 -0.0040
-4 -6 7 2.7753 -0.0645
-4 -6 8 1.2692 -0.0551
-4 -6 9 0.0884 -0.0114
-4 -6 10 -0.2239 0.0282
-4 -6 11 0.2811 0.0117
-4 -6 12 0.8272 -0.0468
-4 -5 1 -2.7970 -0.1240
-4 -5 2 0.0904 -0.1005
-4 -5 3 3.1447 -0.0122
-4 -5 4 5.0436 0.0584
-4 -5 5 5.3965 0.0539
-4 -5 6 4.6713 0.0175
-4 -5 7 3.4250 -0.0221
-4 -5 8 1.9327 -0.0473
-4 -5 9 0.5780 -0.0146
-4 -5 10 -0.0451 0.0519
-4 -5 11 0.1868 0.0670
-4 -5 12 0.5945 0.0048
-4 -4 1 -3.3223 0.2052
-4 -4 2 -0.5035 0.0898
-4 -4 3 2.6397 -0.0414
-4 -4 4 5.0242 -0.0809
-4 -4 5 6.0287 -0.0110
-4 -4 6 5.8011 0.0680
-4 -4 7 4.6188 0.0471
-4 -4 8 2.6910 -0.0297
-4 -4 9 0.7443 -0.0451
-4 -4 10 -0.2124 0.0120
-4 -4 11 -0.0369 0.0535
-4 -4 12 0.3813 0.0146
-4 -3 1 -6.0175 0.5670
-4 -3 2 -2.8442 0.2861
-4 -3 3 1.8331 -0.0735
-4 -3 4 5.8787 -0.1993
-4 -3 5 7.8977 -0.0524
-4 -3 6 7.7339 0.1114
-4 -3 7 5.6574 0.0919
-4 -3 8 2.5432 -0.0421
-4 -3 9 0.0486 -0.1096
-4 -3 10 -0.7235 -0.0450
-4 -3 11 -0.2531 0.0485
-4 -3 12 0.2912 0.0538
-4 -2 1 -10.1164 0.9126
-4 -2 2 -4.0614 0.4672
-4 -2 3 3.4846 -0.0904
-4 -2 4 8.8859 -0.2787
-4 -2 5 10.7130 -0.0863
-4 -2 6 9.1285 0.1273
-4 -2 7 5.1449 0.1118
-4 -2 8 0.9675 -0.0510
-4 -2 9 -1.2269 -0.1252
-4 -2 10 -1.2335 -0.0309
-4 -2 11 -0.3820 0.0820
-4 -2 12 0.2621 0.0939
-4 -1 1 -11.1757 1.1136
-4 -1 2 -1.1781 0.5231
-4 -1 3 7.8262 -0.1216
-4 -1 4 12.4435 -0.3090
-4 -1 5 12.3285 -0.0864
-4 -1 6 8.4103 0.1448
-4 -1 7 2.8724 0.1264
-4 -1 8 -1.1764 -0.0305
-4 -1 9 -2.2623 -0.0807
-4 -1 10 -1.5239 0.0057
-4 -1 11 -0.5569 0.0811
-4 -1 12 0.0629 0.0947
-4 0 1 -7.1958 1.0203
-4 0 2 4.0222 0.4251
-4 0 3 11.5144 -0.1342
-4 0 4 13.7668 -0.2582
-4 0 5 11.3978 -0.0393
-4 0 6 5.9217 0.1490
-4 0 7 0.3109 0.1080
-4 0 8 -2.5897 -0.0256
-4 0 9 -2.6762 -0.0658
-4 0 10 -1.7596 -0.0127
-4 0 11 -0.9176 0.0574
-4 1 1 -2.0579 0.7069
-4 1 2 7.0358 0.2733
-4 1 3 11.9858 -0.1048
-4 1 4 12.4575 -0.1632
-4 1 5 9.0439 0.0001
-4 1 6 3.5013 0.1046
-4 1 7 -1.1368 0.0425
-4 1 8 -3.0048 -0.0687
-4 1 9 -2.8601 -0.0991
-4 1 10 -2.1210 -0.0234
-4 1 11 -1.1938 0.0907
-4 2 1 -0.0965 0.3586
-4 2 2 6.6997 0.1231
-4 2 3 10.4949 -0.0740
-4 2 4 10.5525 -0.0860
-4 2 5 7.1248 0.0061
-4 2 6 2.1583 0.0433
-4 2 7 -1.6726 -0.0203
-4 2 8 -3.2717 -0.1013
-4 2 9 -3.2720 -0.0874
-4 2 10 -2.3464 0.0349
-4 3 1 -0.4631 0.0599
-4 3 2 5.8733 -0.0005
-4 3 3 9.6179 -0.0400
-4 3 4 9.4649 -0.0302
-4 3 5 5.8911 0.0044
-4 3 6 1.1268 0.0184
-4 3 7 -2.5029 -0.0159
-4 3 8 -4.0726 -0.0537
-4 3 9 -3.7115 -0.0180
-4 3 10 -2.0516 0.0699
-4 4 1 0.3126 -0.1175
-4 4 2 6.6625 -0.0216
-4 4 3 9.6924 0.0195
-4 4 4 8.4704 -0.0007
-4 4 5 4.1914 0.0005
-4 4 6 -0.6930 0.0405
-4 4 7 -4.0795 0.0544
-4 4 8 -4.9879 0.0231
-4 4 9 -3.6019 0.0004
-4 5 1 2.8700 -0.1059
-4 5 2 7.9161 0.0535
-4 5 3 9.0612 0.0628
-4 5 4 6.3198 -0.0100
-4 5 5 1.4816 -0.0086
-4 5 6 -3.0597 0.0716
-4 5 7 -5.4587 0.1018
-4 5 8 -5.0357 0.0267
-4 5 9 -2.7589 -0.0531
-4 6 1 4.8789 0.0069
-4 6 2 7.5919 0.1302
-4 6 3 6.7968 0.0809
-4 6 4 3.2230 -0.0261
-4 6 5 -1.2527 -0.0311
-4 6 6 -4.5913 0.0500
-4 6 7 -5.4263 0.0648
-4 6 8 -3.8426 -0.0230
-4 7 1 4.7887 0.1015
-4 7 2 5.5837 0.1926
-4 7 3 3.8795 0.1043
-4 7 4 0.6029 -0.0483
-4 7 5 -2.6438 -0.0856
-4 7 6 -4.3457 -0.0176
-4 7 7 -3.8615 0.0049
-4 8 1 3.4806 0.1728
-4 8 2 3.4271 0.2216
-4 8 3 1.7550 0.0750
-4 8 4 -0.6077 -0.0979
-4 8 5 -2.3938 -0.1178
-4 8 6 -2.7614 -0.0411
-4 9 1 2.4930 0.1646
-4 9 2 2.1336 0.1131
-4 9 3 0.7281 -0.0264
-4 9 4 -0.6965 -0.0924
-4 9 5 -1.3265 -0.0477
-4 10 1 2.0636 -0.0052
-4 10 2 1.3745 -0.0735
-4 10 3 0.2338 -0.0512
-4 11 1 1.4965 -0.1809
-4 11 2 0.6383 -0.1130
-3 -12 1 0.2167 0.2979
-3 -12 2 0.1286 0.0740
-3 -12 3 0.1561 -0.2051
-3 -12 4 0.1833 -0.1483
-3 -12 5 0.2522 0.1024
-3 -12 6 0.3439 0.1511
-3 -12 7 0.4825 -0.0108
-3 -12 8 0.7527 -0.0495
-3 -12 9 0.8328 0.0830
-3 -11 1 0.1707 0.3228
-3 -11 2 -0.1424 -0.0289
-3 -11 3 -0.2771 -0.2550
-3 -11 4 -0.3255 -0.1253
-3 -11 5 -0.2244 0.0904
-3 -11 6 0.2229 0.0955
-3 -11 7 1.1119 -0.0187
-3 -11 8 1.8996 -0.0066
-3 -11 9 1.7111 0.0792
-3 -11 10 0.7065 0.0394
-3 -11 11 0.0689 -0.0260
-3 -10 1 -0.3160 0.2152
-3 -10 2 -0.8891 -0.0700
-3 -10 3 -1.2624 -0.1813
-3 -10 4 -1.2931 -0.0594
-3 -10 5 -0.6515 0.0799
-3 -10 6 0.7938 0.0517
-3 -10 7 2.5245 -0.0540
-3 -10 8 3.3819 -0.0445
-3 -10 9 2.7216 0.0347
-3 -10 10 1.3841 0.0420
-3 -10 11 0.6053 0.0402
-3 -10 12 0.4413 0.0847
-3 -9 1 -1.5347 0.1342
-3 -9 2 -2.5018 -0.0305
-3 -9 3 -2.8487 -0.1019
-3 -9 4 -2.1394 -0.0248
-3 -9 5 -0.2623 0.0688
-3 -9 6 2.3071 0.0196
-3 -9 7 4.4673 -0.0841
-3 -9 8 5.0100 -0.0657
-3 -9 9 3.8236 0.0170
-3 -9 10 2.1370 0.0425
-3 -9 11 1.0192 0.0413
-3 -9 12 0.4059 0.0143
-3 -8 1 -4.0358 0.1111
-3 -8 2 -5.0186 0.0148
-3 -8 3 -4.3003 -0.0562
-3 -8 4 -1.9572 -0.0081
-3 -8 5 1.3439 0.0639
-3 -8 6 4.6383 0.0264
-3 -8 7 6.6400 -0.0455
-3 -8 8 6.4126 -0.0454
-3 -8 9 4.4941 -0.0189
-3 -8 10 2.3951 -0.0017
-3 -8 11 0.8971 0.0148
-3 -8 12 -0.1072 -0.0213
-3 -8 13 -0.5447 -0.1069
-3 -7 1 -7.4823 0.1722
-3 -7 2 -7.1777 0.1213
-3 -7 3 -4.3979 0.0049
-3 -7 4 -0.3465 -0.0205
-3 -7 5 3.8404 0.0347
-3 -7 6 7.1113 0.0597
-3 -7 7 8.2538 0.0281
-3 -7 8 6.9348 -0.0329
-3 -7 9 4.3725 -0.0713
-3 -7 10 1.9741 -0.0295
-3 -7 11 0.1463 0.0428
-3 -7 12 -0.9555 0.0384
-3 -7 13 -0.9620 -0.0450
-3 -6 1 -9.9558 0.3998
-3 -6 2 -7.6402 0.3089
-3 -6 3 -3.2604 0.0356
-3 -6 4 1.5994 -0.1123
-3 -6 5 5.9191 -0.0437
-3 -6 6 8.6305 0.0825
-3 -6 7 8.8004 0.0924
-3 -6 8 6.7253 -0.0177
-3 -6 9 3.7564 -0.0889
-3 -6 10 0.9939 -0.0211
-3 -6 11 -0.9882 0.0931
-3 -6 12 -1.6845 0.1080
-3 -6 13 -1.1147 -0.0164
-3 -5 1 -10.7051 0.6884
-3 -5 2 -7.6975 0.4498
-3 -5 3 -3.0365 -0.0049
-3 -5 4 2.2048 -0.2414
-3 -5 5 6.8158 -0.1266
-3 -5 6 9.3997 0.1003
-3 -5 7 9.1629 0.1488
-3 -5 8 6.5220 0.0087
-3 -5 9 2.8155 -0.0983
-3 -5 10 -0.4100 -0.0391
-3 -5 11 -2.0692 0.0933
-3 -5 12 -2.0681 0.1140
-3 -5 13 -1.2142 -0.0414
-3 -4 1 -12.4547 0.8401
-3 -4 2 -10.0920 0.5010
-3 -4 3 -4.7555 -0.0396
-3 -4 4 2.1075 -0.3077
-3 -4 5 8.0441 -0.1543
-3 -4 6 10.9934 0.1202
-3 -4 7 10.1068 0.1702
-3 -4 8 6.1159 -0.0002
-3 -4 9 1.2701 -0.1353
-3 -4 10 -1.9883 -0.0786
-3 -4 11 -2.8482 0.0680
-3 -4 12 -2.2455 0.0884
-3 -4 13 -1.2773 -0.0520
-3 -3 1 -17.3428 0.8398
-3 -3 2 -13.8915 0.4996
-3 -3 3 -5.5326 -0.0372
-3 -3 4 4.1595 -0.2823
-3 -3 5 11.2326 -0.1225
-3 -3 6 13.4054 0.1127
-3 -3 7 10.5033 0.1253
-3 -3 8 4.6022 -0.0376
-3 -3 9 -0.8294 -0.1371
-3 -3 10 -3.3981 -0.0589
-3 -3 11 -3.3527 0.0652
-3 -3 12 -2.2653 0.0608
-3 -3 13 -1.0691 -0.0300
-3 -2 1 -21.7447 0.6830
-3 -2 2 -14.1607 0.3660
-3 -2 3 -2.1479 -0.0467
-3 -2 4 8.8212 -0.1827
-3 -2 5 14.7018 -0.0581
-3 -2 6 14.2576 0.0674
-3 -2 7 8.9149 0.0515
-3 -2 8 2.0542 -0.0325
-3 -2 9 -2.8478 -0.0499
-3 -2 10 -4.4122 0.0119
-3 -2 11 -3.6273 0.0469
-3 -2 12 -2.0832 0.0170
-3 -2 13 -0.6848 -0.0021
-3 -1 1 -20.1216 0.2622
-3 -1 2 -9.0368 0.0745
-3 -1 3 3.4436 -0.0401
-3 -1 4 12.3602 -0.0262
-3 -1 5 15.1720 0.0107
-3 -1 6 12.1868 0.0086
-3 -1 7 5.8925 -0.0001
-3 -1 8 -0.4080 0.0223
-3 -1 9 -4.2364 0.0519
-3 -1 10 -4.9921 0.0351
-3 -1 11 -3.6964 -0.0129
-3 -1 12 -1.8179 -0.0179
-3 0 1 -13.4812 -0.3067
-3 0 2 -3.3146 -0.1913
-3 0 3 6.0895 0.0275
-3 0 4 11.7609 0.1281
-3 0 5 12.4095 0.0537
-3 0 6 8.7895 -0.0487
-3 0 7 3.1333 -0.0354
-3 0 8 -2.0471 0.0555
-3 0 9 -4.9826 0.0769
-3 0 10 -5.2118 0.0009
-3 0 11 -3.5570 -0.0469
-3 0 12 -1.4946 -0.0146
-3 1 1 -8.5421 -0.7042
-3 1 2 -1.9991 -0.3110
-3 1 3 4.5068 0.1007
-3 1 4 8.8127 0.2205
-3 1 5 9.3014 0.0579
-3 1 6 6.1689 -0.1073
-3 1 7 1.2828 -0.0767
-3 1 8 -3.0906 0.0425
-3 1 9 -5.3589 0.0580
-3 1 10 -5.0649 -0.0098
-3 1 11 -3.0339 -0.0279
-3 1 12 -0.9579 -0.0056
-3 2 1 -8.3812 -0.8369
-3 2 2 -3.7082 -0.3368
-3 2 3 2.5038 0.1470
-3 2 4 7.1224 0.2510
-3 2 5 7.6873 0.0223
-3 2 6 4.4413 -0.1615
-3 2 7 -0.2623 -0.0988
-3 2 8 -4.0263 0.0415
-3 2 9 -5.4741 0.0609
-3 2 10 -4.3998 0.0004
-3 2 11 -2.0253 -0.0161
-3 3 1 -9.1673 -0.8004
-3 3 2 -3.7023 -0.2729
-3 3 3 3.1111 0.1899
-3 3 4 7.2575 0.2128
-3 3 5 6.6325 -0.0463
-3 3 6 2.5671 -0.1749
-3 3 7 -2.0042 -0.0597
-3 3 8 -4.8960 0.0729
-3 3 9 -5.1715 0.0516
-3 3 10 -3.2109 -0.0282
-3 4 1 -6.8833 -0.6029
-3 4 2 -0.8187 -0.1251
-3 4 3 4.9598 0.1782
-3 4 4 7.0637 0.1065
-3 4 5 4.7673 -0.0897
-3 4 6 0.2667 -0.1170
-3 4 7 -3.6448 0.0116
-3 4 8 -5.2867 0.0745
-3 4 9 -4.2974 -0.0083
-3 4 10 -1.8379 -0.0686
-3 5 1 -2.7459 -0.3165
-3 5 2 1.8786 -0.0333
-3 5 3 5.2509 0.0897
-3 5 4 5.3409 0.0316
-3 5 5 2.2966 -0.0533
-3 5 6 -1.7372 -0.0366
-3 5 7 -4.4711 0.0380
-3 5 8 -4.7723 0.0240
-3 5 9 -2.9671 -0.0693
-3 6 1 -0.4297 -0.1458
-3 6 2 2.0306 -0.0473
-3 6 3 3.6919 0.0415
-3 6 4 3.0662 0.0546
-3 6 5 0.3062 0.0048
-3 6 6 -2.6694 -0.0083
-3 6 7 -4.0441 0.0124
-3 6 8 -3.3963 -0.0299
-3 7 1 -0.9121 -0.1305
-3 7 2 0.6805 -0.0633
-3 7 3 2.0588 0.0614
-3 7 4 1.4924 0.0825
-3 7 5 -0.6390 0.0140
-3 7 6 -2.3871 -0.0163
-3 7 7 -2.6635 -0.0192
-3 8 1 -2.0351 -0.1788
-3 8 2 -0.0259 -0.1002
-3 8 3 1.3621 0.0309
-3 8 4 0.7290 0.0633
-3 8 5 -0.7528 0.0200
-3 8 6 -1.4470 -0.0136
-3 9 1 -1.9403 -0.3136
-3 9 2 0.2612 -0.2257
-3 9 3 1.0768 -0.0255
-3 9 4 0.2926 0.0826
-3 9 5 -0.5443 0.0564
-3 10 1 -1.0432 -0.4928
-3 10 2 0.4888 -0.2941
-3 10 3 0.6193 0.0178
-3 10 4 -0.0201 0.1368
-3 11 1 -0.5201 -0.5005
-3 11 2 0.2393 -0.1900
-3 11 3 0.1843 0.0911
-3 12 1 -0.4288 -0.3142
-2 -13 3 -1.4191 0.1276
-2 -13 4 -1.0935 0.0845
-2 -13 5 -0.2317 0.0692
-2 -13 6 0.5886 0.0612
-2 -13 7 0.9498 0.0254
-2 -13 8 1.1378 0.0063
-2 -13 9 1.6140 0.0794
-2 -12 1 -1.0045 0.0914
-2 -12 2 -1.6189 0.0985
-2 -12 3 -1.5567 0.0750
-2 -12 4 -0.9342 0.0685
-2 -12 5 -0.1777 0.0536
-2 -12 6 0.4602 0.0255
-2 -12 7 1.0247 0.0084
-2 -12 8 1.7512 0.0234
-2 -12 9 2.5521 0.0822
-2 -12 10 2.7538 0.1025
-2 -12 11 1.9499 0.0103
-2 -11 1 -1.4201 -0.0099
-2 -11 2 -1.8748 0.0225
-2 -11 3 -1.7496 0.0802
-2 -11 4 -1.3780 0.0835
-2 -11 5 -0.7747 0.0271
-2 -11 6 0.1771 -0.0073
-2 -11 7 1.3845 -0.0137
-2 -11 8 2.6477 -0.0068
-2 -11 9 3.5712 0.0259
-2 -11 10 3.5541 0.0203
-2 -11 11 2.4681 -0.0324
-2 -11 12 1.0276 0.0036
-2 -10 1 -1.9624 -0.1291
-2 -10 2 -2.8020 0.0135
-2 -10 3 -3.1504 0.1032
-2 -10 4 -2.7960 0.0564
-2 -10 5 -1.5420 -0.0212
-2 -10 6 0.3556 -0.0407
-2 -10 7 2.4019 -0.0351
-2 -10 8 4.1187 -0.0153
-2 -10 9 4.9017 0.0012
-2 -10 10 4.3223 -0.0342
-2 -10 11 2.6989 -0.0377
-2 -10 12 0.8617 0.0660
-2 -9 1 -3.8411 -0.1482
-2 -9 2 -5.5469 0.0435
-2 -9 3 -5.8663 0.0967
-2 -9 4 -4.3828 0.0088
-2 -9 5 -1.5893 -0.0658
-2 -9 6 1.6513 -0.0571
-2 -9 7 4.5558 -0.0005
-2 -9 8 6.2728 0.0405
-2 -9 9 6.1945 -0.0089
-2 -9 10 4.6087 -0.0884
-2 -9 11 2.3271 -0.0288
-2 -9 12 -0.0163 0.1043
-2 -9 13 -1.6524 0.0747
-2 -8 1 -7.5853 -0.0777
-2 -8 2 -9.3254 0.1144
-2 -8 3 -8.2921 0.1130
-2 -8 4 -4.8653 -0.0246
-2 -8 5 -0.3132 -0.1047
-2 -8 6 4.1581 -0.0457
-2 -8 7 7.3123 0.0712
-2 -8 8 8.1207 0.0837
-2 -8 9 6.7435 -0.0493
-2 -8 10 4.2543 -0.1228
-2 -8 11 1.3152 0.0020
-2 -8 12 -1.5613 0.1226
-2 -8 13 -3.0523 0.0442
-2 -7 1 -11.1596 0.0831
-2 -7 2 -11.6082 0.2289
-2 -7 3 -8.9724 0.1242
-2 -7 4 -4.2055 -0.0747
-2 -7 5 1.4154 -0.1397
-2 -7 6 6.3854 -0.0276
-2 -7 7 9.0480 0.1038
-2 -7 8 8.8135 0.0715
-2 -7 9 6.6265 -0.0756
-2 -7 10 3.4946 -0.1003
-2 -7 11 -0.1624 0.0366
-2 -7 12 -3.2082 0.1130
-2 -7 13 -3.9659 0.0203
-2 -6 1 -11.9423 0.2240
-2 -6 2 -11.6983 0.2418
-2 -6 3 -9.1056 0.0616
-2 -6 4 -4.3507 -0.1149
-2 -6 5 1.6675 -0.1354
-2 -6 6 6.9472 -0.0178
-2 -6 7 9.4971 0.0864
-2 -6 8 8.9568 0.0516
-2 -6 9 6.2936 -0.0491
-2 -6 10 2.3838 -0.0544
-2 -6 11 -1.7760 0.0299
-2 -6 12 -4.3859 0.0634
-2 -6 13 -4.3194 -0.0070
-2 -5 1 -11.1966 0.1350
-2 -5 2 -12.5457 0.0909
-2 -5 3 -11.2622 0.0015
-2 -5 4 -6.4438 -0.0645
-2 -5 5 0.7156 -0.0692
-2 -5 6 7.1538 -0.0108
-2 -5 7 10.0997 0.0500
-2 -5 8 9.0795 0.0455
-2 -5 9 5.4460 -0.0057
-2 -5 10 0.7867 -0.0332
-2 -5 11 -3.2712 -0.0151
-2 -5 12 -5.0906 0.0057
-2 -5 13 -4.3450 -0.0090
-2 -4 1 -13.1052 -0.1583
-2 -4 2 -16.2417 -0.0892
-2 -4 3 -14.5856 0.0177
-2 -4 4 -7.7411 0.0618
-2 -4 5 1.5976 0.0253
-2 -4 6 8.8770 -0.0190
-2 -4 7 10.9260 -0.0066
-2 -4 8 8.2725 0.0332
-2 -4 9 3.5387 0.0284
-2 -4 10 -1.2179 -0.0203
-2 -4 11 -4.5919 -0.0457
-2 -4 12 -5.4172 -0.0214
-2 -4 13 -3.8553 0.0236
-2 -3 1 -17.5980 -0.4806
-2 -3 2 -19.1943 -0.2627
-2 -3 3 -14.3799 0.0416
-2 -3 4 -4.8601 0.1904
-2 -3 5 5.1020 0.0954
-2 -3 6 10.6633 -0.0661
-2 -3 7 10.0968 -0.0804
-2 -3 8 5.8039 0.0234
-2 -3 9 0.8770 0.0705
-2 -3 10 -3.2331 0.0128
-2 -3 11 -5.5335 -0.0511
-2 -3 12 -5.1304 -0.0356
-2 -3 13 -2.7617 0.0562
-2 -2 1 -18.5207 -0.8385
-2 -2 2 -16.2847 -0.4803
-2 -2 3 -9.0635 0.0561
-2 -2 5 7.3871 0.1064
-2 -2 6 9.6010 -0.1387
-2 -2 7 7.0695 -0.1327
-2 -2 8 2.6274 0.0350
-2 -2 9 -1.5929 0.1144
-2 -2 10 -4.7093 0.0365
-2 -2 11 -5.7377 -0.0695
-2 -2 12 -4.2450 -0.0601
-2 -2 13 -1.6292 0.0630
-2 -1 1 -12.3978 -1.1893
-2 -1 2 -9.2917 -0.6001
-2 -1 3 -4.0395 0.1197
-2 -1 4 1.5435 0.3287
-2 -1 5 5.4421 0.0609
-2 -1 6 6.0912 -0.1856
-2 -1 7 3.7955 -0.1357
-2 -1 8 0.2051 0.0540
-2 -1 9 -3.2029 0.1226
-2 -1 10 -5.3024 0.0192
-2 -1 11 -5.2325 -0.0981
-2 -1 12 -3.2510 -0.0824
-2 -1 13 -0.9634 0.0288
-2 0 1 -4.8084 -1.2460
-2 0 2 -5.7378 -0.4983
-2 0 3 -4.7965 0.1718
-2 0 4 -1.8486 0.2758
-2 0 5 1.6619 0.0118
-2 0 6 3.2885 -0.1710
-2 0 7 1.9826 -0.0992
-2 0 8 -1.0877 0.0583
-2 0 9 -3.9304 0.0915
-2 0 10 -5.1523 -0.0084
-2 0 11 -4.4048 -0.1040
-2 0 12 -2.4129 -0.1054
-2 1 1 -3.3292 -0.9413
-2 1 2 -8.6215 -0.3271
-2 1 3 -9.1768 0.1410
-2 1 4 -5.1578 0.1939
-2 1 5 0.0996 0.0019
-2 1 6 2.6061 -0.1130
-2 1 7 1.2877 -0.0480
-2 1 8 -1.7923 0.0511
-2 1 9 -4.1236 0.0571
-2 1 10 -4.6070 -0.0139
-2 1 11 -3.4285 -0.0934
-2 1 12 -1.5600 -0.1284
-2 2 1 -7.3331 -0.5645
-2 2 2 -12.5634 -0.2033
-2 2 3 -10.8124 0.1057
-2 2 4 -4.6465 0.1316
-2 2 5 0.9958 -0.0032
-2 2 6 2.6319 -0.0534
-2 2 7 0.5923 -0.0002
-2 2 8 -2.3809 0.0394
-2 2 9 -4.0229 0.0331
-2 2 10 -3.7698 -0.0027
-2 2 11 -2.2564 -0.0582
-2 3 1 -9.8386 -0.2471
-2 3 2 -11.8509 -0.0471
-2 3 3 -8.0120 0.0917
-2 3 4 -2.1632 0.0349
-2 3 5 1.7193 -0.0331
-2 3 6 1.9183 -0.0021
-2 3 7 -0.4301 0.0271
-2 3 8 -2.8021 0.0131
-2 3 9 -3.5138 0.0195
-2 3 10 -2.5948 0.0476
-2 3 11 -1.0667 0.0425
-2 4 1 -7.5343 0.0775
-2 4 2 -7.7962 0.0962
-2 4 3 -4.8472 0.0039
-2 4 4 -1.1780 -0.0848
-2 4 5 1.0141 -0.0327
-2 4 6 0.6432 0.0440
-2 4 7 -1.2849 0.0171
-2 4 8 -2.6300 -0.0212
-2 4 9 -2.4233 0.0447
-2 4 10 -1.3074 0.1531
-2 5 1 -4.1112 0.2918
-2 5 2 -5.5199 0.0829
-2 5 3 -4.5034 -0.1148
-2 5 4 -1.9848 -0.1080
-2 5 5 -0.1050 0.0279
-2 5 6 -0.2612 0.0634
-2 5 7 -1.3389 -0.0209
-2 5 8 -1.6332 -0.0372
-2 5 9 -1.0615 0.0949
-2 6 1 -3.9585 0.2640
-2 6 2 -6.5852 -0.0138
-2 6 3 -5.6235 -0.1307
-2 6 4 -2.5834 -0.0313
-2 6 5 -0.4783 0.0851
-2 6 6 -0.2529 0.0470
-2 6 7 -0.5009 -0.0638
-2 6 8 -0.3480 -0.0577
-2 6 9 -0.1465 0.0847
-2 7 1 -6.4989 0.1293
-2 7 2 -8.0142 -0.0629
-2 7 3 -5.5136 -0.0895
-2 7 4 -1.9839 0.0263
-2 7 5 -0.0350 0.0955
-2 7 6 0.4313 0.0072
-2 7 7 0.4596 -0.1246
-2 7 8 0.2959 -0.1270
-2 8 1 -8.0716 0.0255
-2 8 2 -7.2308 -0.1056
-2 8 3 -3.8610 -0.0926
-2 8 4 -0.8758 0.0292
-2 8 5 0.6002 0.0643
-2 8 6 0.9671 -0.0629
-2 8 7 0.6510 -0.2049
-2 9 1 -7.0463 -0.0444
-2 9 2 -4.9433 -0.1429
-2 9 3 -2.1479 -0.1030
-2 9 4 -0.1451 -0.0064
-2 9 5 0.8229 -0.0187
-2 9 6 0.7936 -0.1429
-2 10 1 -4.9490 -0.0048
-2 10 2 -3.0571 -0.0896
-2 10 3 -1.2323 -0.1149
-2 10 4 0.0469 -0.1044
-2 11 1 -3.4448 0.1673
-2 11 2 -2.0450 -0.0301
-2 11 3 -0.7860 -0.1943
-2 12 1 -2.4440 0.2613
-1 -13 1 -1.1103 -0.2118
-1 -13 2 -2.3098 -0.0219
-1 -13 3 -2.9582 0.0673
-1 -13 4 -2.5750 0.0076
-1 -13 5 -1.8650 -0.1253
-1 -13 6 -1.2712 -0.1760
-1 -13 7 -0.3588 -0.0531
-1 -13 8 0.9300 0.0920
-1 -13 9 1.8444 0.0928
-1 -13 10 1.9432 0.0366
-1 -12 1 -1.6313 -0.3921
-1 -12 2 -2.8187 -0.1041
-1 -12 3 -3.3568 0.1060
-1 -12 4 -3.1947 0.0671
-1 -12 5 -2.7279 -0.1073
-1 -12 6 -1.8025 -0.1458
-1 -12 7 -0.1488 -0.0192
-1 -12 8 1.7199 0.0430
-1 -12 9 2.9228 -0.0085
-1 -12 10 3.0694 -0.0289
-1 -12 11 2.3237 -0.0263
-1 -11 1 -1.7970 -0.5128
-1 -11 2 -3.1921 -0.1154
-1 -11 3 -4.2720 0.1382
-1 -11 4 -4.5929 0.0674
-1 -11 5 -3.9045 -0.0923
-1 -11 6 -2.1912 -0.0821
-1 -11 7 0.2226 0.0012
-1 -11 8 2.6646 -0.0108
-1 -11 9 4.2132 -0.0404
-1 -11 10 4.1400 -0.0257
-1 -11 11 2.6774 -0.0463
-1 -11 12 0.9796 -0.0520
-1 -10 1 -2.4922 -0.4621
-1 -10 2 -4.6684 -0.0849
-1 -10 3 -6.3170 0.0971
-1 -10 4 -6.4566 0.0178
-1 -10 5 -4.9863 -0.0605
-1 -10 6 -2.3795 -0.0123
-1 -10 7 0.9096 0.0234
-1 -10 8 4.0316 0.0016
-1 -10 9 5.5008 0.0076
-1 -10 10 4.5669 0.0016
-1 -10 11 2.3013 -0.0496
-1 -10 12 0.3162 -0.0250
-1 -10 13 -0.8026 0.0785
-1 -9 1 -4.5097 -0.3265
-1 -9 2 -7.0319 -0.0674
-1 -9 3 -8.2612 0.0413
-1 -9 4 -7.6190 -0.0064
-1 -9 5 -5.4242 -0.0164
-1 -9 6 -2.0098 0.0383
-1 -9 7 2.1153 0.0502
-1 -9 8 5.3642 0.0374
-1 -9 9 5.9858 0.0422
-1 -9 10 4.1138 0.0086
-1 -9 11 1.4804 -0.0389
-1 -9 12 -0.6691 -0.0039
-1 -9 13 -1.9083 0.0667
-1 -8 1 -6.4088 -0.1934
-1 -8 2 -7.9391 -0.0303
-1 -8 3 -8.2516 0.0239
-1 -8 4 -7.3446 -0.0116
-1 -8 5 -5.1255 0.0060
-1 -8 6 -1.4200 0.0495
-1 -8 7 2.8674 0.0390
-1 -8 8 5.6096 0.0217
-1 -8 9 5.4876 0.0298
-1 -8 10 3.3065 0.0144
-1 -8 11 0.5742 -0.0145
-1 -8 12 -1.8048 -0.0028
-1 -8 13 -2.9550 0.0349
-1 -7 1 -5.2943 -0.1061
-1 -7 2 -5.8358 -0.0272
-1 -7 3 -6.5308 -0.0099
-1 -7 4 -6.7630 -0.0141
-1 -7 5 -5.3958 0.0218
-1 -7 6 -1.9121 0.0283
-1 -7 7 2.3872 -0.0198
-1 -7 8 5.0502 -0.0316
-1 -7 9 4.8438 0.0171
-1 -7 10 2.5796 0.0415
-1 -7 11 -0.3866 0.0042
-1 -7 12 -2.9158 -0.0298
-1 -7 13 -3.7815 0.0051
-1 -7 14 -2.6266 0.0769
-1 -6 1 -1.0823 -0.1805
-1 -6 2 -3.0187 -0.1342
-1 -6 3 -6.0591 -0.0414
-1 -6 4 -8.0692 0.0404
-1 -6 5 -7.1835 0.0677
-1 -6 6 -3.0831 0.0023
-1 -6 7 2.0413 -0.0855
-1 -6 8 4.9318 -0.0688
-1 -6 9 4.3691 0.0360
-1 -6 10 1.6427 0.0746
-1 -6 11 -1.5832 -0.0103
-1 -6 12 -4.0351 -0.0789
-1 -6 13 -4.5194 0.0002
-1 -6 14 -2.9364 0.1434
-1 -5 1 2.0061 -0.4014
-1 -5 2 -3.4086 -0.2528
-1 -5 3 -8.6503 -0.0078
-1 -5 4 -10.7314 0.1433
-1 -5 5 -8.3031 0.1275
-1 -5 6 -2.4818 -0.0183
-1 -5 7 3.0465 -0.1310
-1 -5 8 4.9546 -0.0680
-1 -5 9 3.2696 0.0772
-1 -5 10 0.0775 0.0854
-1 -5 11 -3.0773 -0.0540
-1 -5 12 -5.0703 -0.1151
-1 -5 13 -4.8158 0.0244
-1 -5 14 -2.6359 0.2015
-1 -4 1 1.1266 -0.5705
-1 -4 2 -6.3735 -0.3218
-1 -4 3 -11.0839 0.0135
-1 -4 4 -10.8552 0.2086
-1 -4 5 -6.2234 0.1601
-1 -4 6 -0.1393 -0.0430
-1 -4 7 3.6163 -0.1476
-1 -4 8 3.5646 -0.0342
-1 -4 9 1.1443 0.1098
-1 -4 10 -1.8535 0.0674
-1 -4 11 -4.4006 -0.0890
-1 -4 12 -5.3644 -0.1181
-1 -4 13 -4.0838 0.0412
-1 -4 14 -1.6395 0.2023
-1 -3 1 0.4056 -0.6560
-1 -3 2 -6.0448 -0.4254
-1 -3 3 -8.8489 -0.0312
-1 -3 4 -7.3713 0.2165
-1 -3 5 -3.4280 0.1465
-1 -3 6 0.1653 -0.0678
-1 -3 7 1.5233 -0.1283
-1 -3 8 0.7825 0.0035
-1 -3 9 -1.0478 0.1077
-1 -3 10 -3.2174 0.0399
-1 -3 11 -4.7232 -0.0927
-1 -3 12 -4.4682 -0.1008
-1 -3 13 -2.6302 0.0376
-1 -2 1 6.1268 -0.7070
-1 -2 2 0.2527 -0.4648
-1 -2 3 -3.9831 -0.0354
-1 -2 4 -5.5167 0.1769
-1 -2 5 -4.9021 0.0837
-1 -2 6 -3.3774 -0.0730
-1 -2 7 -1.9864 -0.0869
-1 -2 8 -1.3906 0.0145
-1 -2 9 -1.9883 0.0766
-1 -2 10 -3.2895 0.0202
-1 -2 11 -3.8870 -0.0683
-1 -2 12 -3.0301 -0.0568
-1 -2 13 -1.4440 0.0483
-1 -1 1 16.4242 -0.4937
-1 -1 2 6.2293 -0.2346
-1 -1 3 -3.8137 0.0059
-1 -1 4 -9.6693 0.0537
-1 -1 5 -10.2214 -0.0001
-1 -1 6 -7.2863 -0.0456
-1 -1 7 -3.6730 -0.0410
-1 -1 8 -1.5055 0.0090
-1 -1 9 -1.4481 0.0401
-1 -1 10 -2.4207 0.0108
-1 -1 11 -2.7682 -0.0169
-1 -1 12 -2.0353 0.0215
-1 -1 13 -0.9333 0.0782
-1 0 1 21.5065 0.1180
-1 0 2 4.1505 0.1193
-1 0 3 -10.3277 -0.0457
-1 0 4 -15.9990 -0.1153
-1 0 5 -13.4684 -0.0425
-1 0 6 -7.5787 0.0146
-1 0 7 -2.5440 0.0129
-1 0 8 -0.2124 0.0071
-1 0 9 -0.4617 0.0037
-1 0 10 -1.6609 0.0044
-1 0 11 -2.1328 0.0371
-1 0 12 -1.5898 0.0890
-1 1 1 16.0680 0.7408
-1 1 2 -4.2253 0.2970
-1 1 3 -16.5341 -0.1588
-1 1 4 -17.4239 -0.2070
-1 1 5 -11.4640 -0.0211
-1 1 6 -4.8063 0.0872
-1 1 7 -0.4940 0.0620
-1 1 8 0.8161 -0.0057
-1 1 9 -0.1224 -0.0417
-1 1 10 -1.4334 -0.0191
-1 1 11 -1.7389 0.0470
-1 1 12 -1.1505 0.1125
-1 2 1 6.2555 1.0092
-1 2 2 -9.9330 0.3295
-1 2 3 -16.1279 -0.1851
-1 2 4 -13.3252 -0.2004
-1 2 5 -7.3374 0.0185
-1 2 6 -2.2747 0.1311
-1 2 7 0.4841 0.0682
-1 2 8 0.7513 -0.0423
-1 2 9 -0.3518 -0.0899
-1 2 10 -1.1232 -0.0617
-1 2 11 -1.0275 0.0215
-1 3 1 1.1736 1.0373
-1 3 2 -8.9151 0.3555
-1 3 3 -11.6205 -0.1563
-1 3 4 -9.2427 -0.1729
-1 3 5 -5.1955 0.0394
-1 3 6 -1.5932 0.1197
-1 3 7 0.2520 0.0296
-1 3 8 0.3021 -0.0707
-1 3 9 -0.1274 -0.1064
-1 3 10 -0.2002 -0.0827
-1 3 11 -0.1638 -0.0017
-1 4 1 1.7202 0.9601
-1 4 2 -6.0411 0.2927
-1 4 3 -9.3736 -0.1663
-1 4 4 -8.5552 -0.1366
-1 4 5 -5.1777 0.0444
-1 4 6 -1.7421 0.0707
-1 4 7 0.0964 -0.0017
-1 4 8 0.7348 -0.0463
-1 4 9 0.9918 -0.0675
-1 4 10 0.7947 -0.0740
-1 5 1 1.8612 0.6918
-1 5 2 -6.6974 0.1071
-1 5 3 -10.6074 -0.1644
-1 5 4 -9.1511 -0.0727
-1 5 5 -4.9036 0.0356
-1 5 6 -1.1353 0.0288
-1 5 7 1.0991 0.0155
-1 5 8 2.1660 0.0229
-1 5 9 2.0371 -0.0180
-1 5 10 0.9308 -0.0893
-1 6 1 -1.7783 0.3079
-1 6 2 -9.6841 -0.0381
-1 6 3 -11.3539 -0.1056
-1 6 4 -7.8826 -0.0199
-1 6 5 -3.0867 0.0184
-1 6 6 0.6045 0.0228
-1 6 7 2.7891 0.0633
-1 6 8 3.1747 0.0738
-1 6 9 1.8522 -0.0171
-1 7 1 -6.2110 0.0467
-1 7 2 -10.4814 -0.0589
-1 7 3 -8.9591 -0.0359
-1 7 4 -4.6114 0.0060
-1 7 5 -0.5035 0.0125
-1 7 6 2.3637 0.0411
-1 7 7 3.5177 0.0972
-1 7 8 2.5794 0.0758
-1 8 1 -7.4366 -0.0150
-1 8 2 -7.8262 0.0178
-1 8 3 -4.8764 0.0445
-1 8 4 -1.3568 0.0260
-1 8 5 1.2901 0.0093
-1 8 6 2.7200 0.0583
-1 8 7 2.4893 0.1115
-1 9 1 -5.5397 0.0974
-1 9 2 -4.2637 0.1852
-1 9 3 -1.7515 0.1224
-1 9 4 0.3682 0.0042
-1 9 5 1.5158 -0.0125
-1 9 6 1.5888 0.0774
-1 10 1 -3.2636 0.3302
-1 10 2 -2.0812 0.3231
-1 10 3 -0.4212 0.0813
-1 10 4 0.6528 -0.0855
-1 10 5 0.7727 -0.0270
-1 11 1 -2.0589 0.4566
-1 11 2 -1.2071 0.2314
-1 11 3 -0.0452 -0.0914
-1 12 1 -1.3678 0.2847
0 -14 4 -1.0661 0.1539
0 -14 5 -1.1386 0.2159
0 -14 6 -1.2473 0.0465
0 -14 7 -1.3247 -0.1554
0 -14 8 -0.9991 -0.1436
0 -13 1 -0.8564 -0.2515
0 -13 2 -0.7942 -0.2663
0 -13 3 -0.9646 -0.0895
0 -13 4 -1.3567 0.1435
0 -13 5 -1.8233 0.2026
0 -13 6 -1.9645 0.0474
0 -13 7 -1.5019 -0.0802
0 -13 8 -0.7551 -0.0536
0 -13 9 -0.1353 -0.0356
0 -13 10 0.4429 -0.1062
0 -12 1 -0.8888 -0.2634
0 -12 2 -0.7632 -0.2202
0 -12 3 -1.0539 -0.0618
0 -12 4 -1.7632 0.1065
0 -12 5 -2.2839 0.1349
0 -12 6 -2.0029 0.0422
0 -12 7 -1.1649 -0.0105
0 -12 8 -0.4402 -0.0045
0 -12 9 0.1633 -0.0271
0 -12 10 0.9171 -0.0578
0 -12 11 1.3012 -0.0605
0 -12 12 0.6996 -0.0767
0 -11 1 -0.9811 -0.0342
0 -11 2 -1.0850 -0.0270
0 -11 3 -1.4622 -0.0216
0 -11 4 -1.9179 0.0283
0 -11 5 -2.0379 0.0530
0 -11 6 -1.6276 0.0373
0 -11 7 -0.9485 0.0273
0 -11 8 -0.2496 0.0134
0 -11 9 0.5186 0.0024
0 -11 10 1.1451 0.0279
0 -11 11 1.0111 0.0307
0 -11 12 0.0272 -0.0442
0 -10 1 -1.8954 0.2840
0 -10 2 -1.7797 0.1300
0 -10 3 -1.3411 -0.0228
0 -10 4 -1.0812 -0.0338
0 -10 5 -1.2596 0.0153
0 -10 6 -1.3960 0.0427
0 -10 7 -0.9908 0.0275
0 -10 8 -0.1789 -0.0074
0 -10 9 0.5510 0.0148
0 -10 10 0.7939 0.0873
0 -10 11 0.3338 0.0762
0 -10 12 -0.7041 -0.0454
0 -10 13 -1.6370 -0.1238
0 -9 1 -2.6498 0.4522
0 -9 2 -0.9824 0.1615
0 -9 3 0.6578 -0.0488
0 -9 4 0.7665 -0.0534
0 -9 5 -0.5367 0.0232
0 -9 6 -1.6302 0.0441
0 -9 7 -1.5576 -0.0204
0 -9 8 -0.7912 -0.0684
0 -9 9 -0.0806 0.0021
0 -9 10 0.2376 0.1004
0 -9 11 -0.0968 0.0639
0 -9 12 -1.1424 -0.0652
0 -9 13 -2.1132 -0.1087
0 -8 1 -0.3657 0.4206
0 -8 2 3.0903 0.0691
0 -8 3 4.3811 -0.1173
0 -8 4 2.4792 -0.0546
0 -8 5 -0.8893 0.0579
0 -8 6 -3.1368 0.0364
0 -8 7 -3.3178 -0.0833
0 -8 8 -2.1705 -0.1161
0 -8 9 -0.7513 -0.0065
0 -8 10 0.1440 0.0807
0 -8 11 -0.0675 0.0264
0 -8 12 -1.2766 -0.0692
0 -8 13 -2.3110 -0.0647
0 -8 14 -2.0461 0.0347
0 -7 1 6.2383 0.2355
0 -7 2 9.2436 -0.1177
0 -7 3 7.5228 -0.1955
0 -7 4 2.1458 -0.0201
0 -7 5 -3.4159 0.1114
0 -7 6 -6.1249 0.0374
0 -7 7 -5.4669 -0.1056
0 -7 8 -3.0293 -0.1125
0 -7 9 -0.6935 -0.0002
0 -7 10 0.4392 0.0549
0 -7 11 0.0227 -0.0021
0 -7 12 -1.4194 -0.0582
0 -7 13 -2.4812 -0.0184
0 -7 14 -2.1437 0.0866
0 -6 1 14.0916 0.0158
0 -6 2 13.7984 -0.2334
0 -6 3 7.7865 -0.1807
0 -6 4 -0.6370 0.0394
0 -6 5 -6.9061 0.1421
0 -6 6 -8.3765 0.0404
0 -6 7 -6.0089 -0.0882
0 -6 8 -2.7098 -0.0730
0 -6 9 -0.4412 0.0199
0 -6 10 0.3477 0.0365
0 -6 11 -0.3245 -0.0208
0 -6 12 -1.8001 -0.0392
0 -6 13 -2.5669 0.0221
0 -6 14 -1.8714 0.0979
0 -5 1 18.8655 -0.0136
0 -5 2 15.1935 -0.1501
0 -5 3 6.5813 -0.1119
0 -5 4 -2.6277 0.0344
0 -5 5 -7.9299 0.0974
0 -5 6 -7.9945 0.0150
0 -5 7 -5.2660 -0.0550
0 -5 8 -2.6912 -0.0098
0 -5 9 -1.1098 0.0412
0 -5 10 -0.4434 0.0098
0 -5 11 -0.9368 -0.0262
0 -5 12 -1.9616 0.0005
0 -5 13 -2.0398 0.0381
0 -5 14 -1.0099 0.0350
0 -4 1 21.1948 0.1528
0 -4 2 17.1636 -0.0145
0 -4 3 8.5728 -0.0987
0 -4 4 -0.6085 -0.0463
0 -4 5 -6.2760 -0.0073
0 -4 6 -7.3811 -0.0215
0 -4 7 -6.0523 0.0094
0 -4 8 -4.2793 0.0580
0 -4 9 -2.4389 0.0257
0 -4 10 -1.0418 -0.0286
0 -4 11 -0.8655 -0.0023
0 -4 12 -1.2325 0.0429
0 -4 13 -0.8820 0.0059
0 -4 14 -0.0786 -0.0625
0 -3 1 26.7466 0.2465
0 -3 2 24.0691 0.0673
0 -3 3 14.5365 -0.0632
0 -3 4 2.2376 -0.1073
0 -3 5 -6.9545 -0.1013
0 -3 6 -10.1808 -0.0136
0 -3 7 -9.0574 0.0950
0 -3 8 -6.0951 0.0771
0 -3 9 -2.6710 -0.0341
0 -3 10 -0.1893 -0.0547
0 -3 11 0.4240 0.0318
0 -3 12 0.0961 0.0575
0 -3 13 0.1015 -0.0317
0 -2 1 37.5258 0.2528
0 -2 2 32.6010 0.2495
0 -2 3 17.3423 0.0843
0 -2 4 -1.0028 -0.1212
0 -2 5 -12.8883 -0.1408
0 -2 6 -14.9845 0.0338
0 -2 7 -11.0813 0.1405
0 -2 8 -5.5602 0.0406
0 -2 9 -0.6440 -0.0914
0 -2 10 2.0495 -0.0657
0 -2 11 2.0701 0.0484
0 -2 12 0.9921 0.0684
0 -2 13 0.3574 -0.0178
0 -1 1 46.0102 0.3968
0 -1 2 33.1621 0.5143
0 -1 3 10.3722 0.2002
0 -1 4 -10.4857 -0.1361
0 -1 5 -19.2793 -0.1381
0 -1 6 -16.5429 0.0645
0 -1 7 -9.2434 0.1378
0 -1 8 -2.2215 0.0063
0 -1 9 2.5757 -0.1202
0 -1 10 4.0380 -0.0704
0 -1 11 2.8035 0.0642
0 -1 12 1.0816 0.0938
0 -1 13 0.2117 0.0166
0 0 1 42.9462 0.5452
0 0 2 22.2751 0.5617
0 0 3 -2.1509 0.1615
0 0 4 -17.8351 -0.1518
0 0 5 -19.6807 -0.1240
0 0 6 -12.9238 0.0715
0 0 7 -4.6745 0.1336
0 0 8 1.6398 -0.0076
0 0 9 4.7041 -0.1282
0 0 10 4.4416 -0.0531
0 0 11 2.5546 0.0826
0 0 12 0.9618 0.0916
0 1 0 44.2878 0.0541
0 1 1 29.7811 0.3867
0 1 2 8.5570 0.3495
0 1 3 -9.6203 0.0722
0 1 4 -17.1508 -0.1440
0 1 5 -14.5964 -0.1035
0 1 6 -7.6135 0.0818
0 1 7 -0.7748 0.1220
0 1 8 3.6035 -0.0263
0 1 9 4.7676 -0.1071
0 1 10 3.7580 -0.0150
0 1 11 2.2785 0.0731
0 1 12 1.1285 0.0571
0 2 0 31.3159 -0.1196
0 2 1 17.5172 0.0682
0 2 2 2.1293 0.1502
0 2 3 -8.6511 0.0293
0 2 4 -12.1453 -0.1173
0 2 5 -9.7593 -0.0663
0 2 6 -4.4432 0.0774
0 2 7 0.7371 0.0730
0 2 8 3.5632 -0.0377
0 2 9 4.0120 -0.0562
0 2 10 3.4032 0.0141
0 2 11 2.4273 0.0502
0 3 0 22.2271 -0.2671
0 3 1 12.9280 -0.0810
0 3 2 2.4902 0.0613
0 3 3 -5.7442 0.0119
0 3 4 -9.5163 -0.0653
0 3 5 -8.1393 -0.0271
0 3 6 -3.4770 0.0339
0 3 7 0.9920 0.0166
0 3 8 3.3680 -0.0209
0 3 9 4.0921 -0.0079
0 3 10 3.7159 0.0266
0 3 11 2.3702 0.0418
0 4 0 19.1005 -0.2045
0 4 1 11.7853 -0.1119
0 4 2 1.8922 -0.0062
0 4 3 -6.6705 0.0302
0 4 4 -10.0962 0.0102
0 4 5 -7.6193 -0.0180
0 4 6 -2.4076 -0.0212
0 4 7 1.9420 -0.0080
0 4 8 4.3422 0.0024
0 4 9 4.9085 0.0093
0 4 10 3.6468 0.0132
0 5 0 15.8282 -0.1695
0 5 1 7.3344 -0.1994
0 5 2 -2.7967 -0.0421
0 5 3 -9.5666 0.0937
0 5 4 -9.9578 0.0547
0 5 5 -5.4258 -0.0443
0 5 6 0.0577 -0.0557
0 5 7 3.9554 -0.0099
0 5 8 5.6465 0.0079
0 5 9 4.9071 -0.0179
0 6 0 8.5251 -0.3132
0 6 1 -0.0780 -0.2987
0 6 2 -7.3824 -0.0238
0 6 3 -9.8023 0.1306
0 6 4 -6.9418 0.0361
0 6 5 -1.6445 -0.0809
0 6 6 2.9643 -0.0648
0 6 7 5.4727 0.0034
0 6 8 5.4760 0.0000
0 6 9 3.3636 -0.0789
0 7 0 0.4219 -0.4886
0 7 1 -5.1081 -0.3411
0 7 2 -7.8115 -0.0054
0 7 3 -6.6576 0.1165
0 7 4 -2.7160 -0.0059
0 7 5 1.6124 -0.1003
0 7 6 4.4192 -0.0386
0 7 7 4.9777 0.0426
0 7 8 3.5198 -0.0053
0 8 0 -3.6387 -0.5656
0 8 1 -5.3222 -0.3158
0 8 2 -5.0563 0.0302
0 8 3 -2.9452 0.1033
0 8 4 0.1476 -0.0372
0 8 5 2.7395 -0.0854
0 8 6 3.6987 0.0256
0 8 7 2.8981 0.0899
0 9 0 -3.3067 -0.4788
0 9 1 -3.1330 -0.1687
0 9 2 -2.3641 0.1062
0 9 3 -0.9195 0.0760
0 9 4 0.8380 -0.0648
0 9 5 2.0029 -0.0441
0 9 6 1.9296 0.0796
0 10 0 -1.7292 -0.1995
0 10 1 -1.5466 0.0373
0 10 2 -1.2341 0.1116
0 10 3 -0.5404 -0.0120
0 10 4 0.3571 -0.0878
0 11 0 -1.0740 0.0937
0 11 1 -1.1725 0.0983
0 11 2 -1.0622 -0.0122
0 11 3 -0.6175 -0.1083
0 12 0 -1.1047 0.1696
0 12 1 -1.1479 -0.0082
1 -14 4 0.4800 -0.1782
1 -14 5 1.0409 -0.2281
1 -14 6 0.9258 -0.0581
1 -14 7 0.3740 0.0818
1 -14 8 0.1002 0.0644
1 -13 1 -0.5563 -0.0413
1 -13 2 -0.1550 0.1215
1 -13 3 0.4578 0.0272
1 -13 4 1.3906 -0.2022
1 -13 5 2.1529 -0.2101
1 -13 6 2.0262 -0.0264
1 -13 7 1.1236 0.0669
1 -13 8 0.2223 0.0324
1 -13 9 -0.2954 0.0097
1 -13 10 -0.4928 0.0341
1 -12 0 -1.3228 -0.3218
1 -12 1 -0.6590 -0.0109
1 -12 2 0.0831 0.1994
1 -12 3 1.1066 0.0413
1 -12 4 2.7836 -0.1706
1 -12 5 4.1762 -0.1334
1 -12 6 3.7851 0.0061
1 -12 7 1.7528 0.0422
1 -12 8 -0.2701 0.0114
1 -12 9 -1.2338 -0.0053
1 -12 10 -1.2832 0.0127
1 -12 11 -0.8035 0.0782
1 -12 12 -0.1588 0.1319
1 -11 0 -1.9068 -0.2644
1 -11 1 -1.0781 0.1171
1 -11 2 0.1158 0.2169
1 -11 3 2.2739 0.0204
1 -11 4 5.2318 -0.1080
1 -11 5 6.7641 -0.0455
1 -11 6 5.0872 0.0362
1 -11 7 1.4834 0.0404
1 -11 8 -1.4022 -0.0047
1 -11 9 -2.5198 -0.0513
1 -11 10 -2.3073 -0.0221
1 -11 11 -1.3074 0.0815
1 -11 12 -0.1890 0.1092
1 -10 0 -3.0901 -0.0611
1 -10 1 -1.5480 0.1706
1 -10 2 1.2829 0.1379
1 -10 3 5.2798 -0.0098
1 -10 4 8.7054 -0.0520
1 -10 5 8.7809 0.0035
1 -10 6 5.0356 0.0519
1 -10 7 0.1533 0.0398
1 -10 8 -3.1349 -0.0398
1 -10 9 -4.1438 -0.0987
1 -10 10 -3.3310 -0.0310
1 -10 11 -1.4944 0.0761
1 -10 12 0.0866 0.0511
1 -10 13 0.4902 -0.0620
1 -9 0 -4.0907 0.0512
1 -9 1 0.0099 0.1006
1 -9 2 5.4900 0.0328
1 -9 3 10.3744 -0.0364
1 -9 4 12.0992 -0.0449
1 -9 5 9.2061 -0.0110
1 -9 6 3.2406 0.0358
1 -9 7 -2.4463 0.0319
1 -9 8 -5.5813 -0.0478
1 -9 9 -5.8287 -0.0902
1 -9 10 -3.9180 -0.0172
1 -9 11 -1.2392 0.0545
1 -9 12 0.5616 0.0156
1 -9 13 0.8347 -0.0575
1 -8 0 -2.4187 -0.0015
1 -8 1 5.3320 -0.0508
1 -8 2 12.3727 -0.0629
1 -8 3 15.7190 -0.0426
1 -8 4 13.7929 -0.0527
1 -8 5 7.3714 -0.0559
1 -8 6 -0.3797 0.0100
1 -8 7 -5.9949 0.0598
1 -8 8 -7.9519 0.0107
1 -8 9 -6.7628 -0.0446
1 -8 10 -3.8050 -0.0159
1 -8 11 -0.7080 0.0321
1 -8 12 1.0637 0.0232
1 -8 13 1.1467 -0.0169
1 -8 14 0.4895 -0.0326
1 -7 0 2.9701 -0.2317
1 -7 1 12.7115 -0.2684
1 -7 2 18.6844 -0.0848
1 -7 3 18.6642 0.0612
1 -7 4 12.8409 -0.0088
1 -7 5 3.8268 -0.0923
1 -7 6 -4.3495 0.0000
1 -7 7 -8.6928 0.1151
1 -7 8 -8.9267 0.0798
1 -7 9 -6.5899 -0.0171
1 -7 10 -3.2389 -0.0365
1 -7 11 -0.1348 0.0085
1 -7 12 1.5256 0.0395
1 -7 13 1.4486 0.0219
1 -7 14 0.6573 -0.0254
1 -6 0 9.0625 -0.6118
1 -6 1 17.9463 -0.4362
1 -6 2 21.4848 0.0586
1 -6 3 18.7056 0.2686
1 -6 4 10.9204 0.0540
1 -6 5 1.3444 -0.1312
1 -6 6 -6.1685 -0.0286
1 -6 7 -9.3465 0.1285
1 -6 8 -8.6927 0.1102
1 -6 9 -6.0340 -0.0141
1 -6 10 -2.6333 -0.0767
1 -6 11 0.5425 -0.0241
1 -6 12 2.2499 0.0616
1 -6 13 2.0913 0.0554
1 -6 14 1.1020 -0.0562
1 -5 0 11.8183 -0.9411
1 -5 1 19.4585 -0.4550
1 -5 2 22.1746 0.2448
1 -5 3 19.2352 0.4094
1 -5 4 11.6087 0.0649
1 -5 5 1.8527 -0.1966
1 -5 6 -6.1881 -0.0991
1 -5 7 -9.6659 0.1074
1 -5 8 -8.8673 0.1250
1 -5 9 -5.7805 -0.0314
1 -5 10 -1.7997 -0.1258
1 -5 11 1.8598 -0.0304
1 -5 12 3.6297 0.1029
1 -5 13 3.0855 0.0550
1 -5 14 1.5374 -0.1315
1 -4 0 12.1183 -1.0975
1 -4 1 21.3139 -0.4720
1 -4 2 25.7577 0.2695
1 -4 3 23.6333 0.4152
1 -4 4 14.7881 0.0332
1 -4 5 2.1854 -0.2576
1 -4 6 -8.1121 -0.1351
1 -4 7 -11.8341 0.1171
1 -4 8 -9.8511 0.1215
1 -4 9 -5.2002 -0.0707
1 -4 10 0.0414 -0.1374
1 -4 11 4.0718 0.0091
1 -4 12 5.2275 0.1212
1 -4 13 3.7130 0.0062
1 -3 0 15.8130 -1.1818
1 -3 1 28.4468 -0.5543
1 -3 2 33.6252 0.2111
1 -3 3 28.6099 0.3678
1 -3 4 14.3345 -0.0051
1 -3 5 -2.5521 -0.2393
1 -3 6 -13.2801 -0.0717
1 -3 7 -14.6360 0.1310
1 -3 8 -9.8460 0.0706
1 -3 9 -3.0891 -0.0910
1 -3 10 2.9503 -0.0932
1 -3 11 6.2033 0.0410
1 -3 12 5.8807 0.0921
1 -3 13 3.3969 -0.0322
1 -2 0 25.4704 -1.1079
1 -2 1 38.3135 -0.4553
1 -2 2 38.8106 0.2108
1 -2 3 26.1321 0.2600
1 -2 4 6.0235 -0.0368
1 -2 5 -10.9729 -0.1252
1 -2 6 -17.5628 0.0150
1 -2 7 -14.6636 0.0851
1 -2 8 -7.3150 0.0121
1 -2 9 0.3176 -0.0639
1 -2 10 5.4699 -0.0449
1 -2 11 6.8038 0.0392
1 -2 12 5.1084 0.0642
1 -2 13 2.4144 -0.0308
1 -1 0 34.3245 -0.6300
1 -1 1 41.2841 -0.1321
1 -1 2 33.3924 0.1415
1 -1 3 14.6166 0.0567
1 -1 4 -4.8925 -0.0410
1 -1 5 -15.8805 -0.0056
1 -1 6 -16.6091 0.0296
1 -1 7 -10.9946 0.0143
1 -1 8 -3.3300 -0.0077
1 -1 9 3.0886 -0.0275
1 -1 10 6.0843 -0.0143
1 -1 11 5.7296 0.0421
1 -1 12 3.6762 0.0451
1 -1 13 1.4267 -0.0422
1 0 0 32.9745 0.0466
1 0 1 32.3750 0.0768
1 0 2 19.9038 -0.0695
1 0 3 2.8590 -0.1237
1 0 4 -9.5825 -0.0206
1 0 5 -13.7070 0.0408
1 0 6 -11.6309 -0.0002
1 0 7 -6.3887 -0.0298
1 0 8 -0.3795 -0.0164
1 0 9 3.8575 0.0011
1 0 10 5.1177 0.0268
1 0 11 4.2916 0.0398
1 0 12 2.5775 -0.0045
1 1 0 21.6814 0.4385
1 1 1 18.7095 0.0719
1 1 2 9.1491 -0.2128
1 1 3 -1.0196 -0.1777
1 1 4 -7.0666 -0.0057
1 1 5 -8.7215 0.0482
1 1 6 -7.3100 -0.0215
1 1 7 -3.6352 -0.0684
1 1 8 0.6533 -0.0248
1 1 9 3.4502 0.0462
1 1 10 4.2374 0.0556
1 1 11 3.5951 0.0015
1 1 12 2.0094 -0.0362
1 2 0 10.6296 0.5184
1 2 1 10.6960 0.0935
1 2 2 6.3557 -0.1894
1 2 3 0.5589 -0.1581
1 2 4 -4.0920 0.0225
1 2 5 -6.4155 0.0717
1 2 6 -5.7257 -0.0434
1 2 7 -2.5199 -0.0997
1 2 8 1.1409 -0.0025
1 2 9 3.5500 0.0816
1 2 10 4.2935 0.0397
1 2 11 3.3963 -0.0182
1 3 0 6.9222 0.5419
1 3 1 9.2379 0.1604
1 3 2 6.1582 -0.1483
1 3 3 0.2134 -0.1100
1 3 4 -4.9558 0.0932
1 3 5 -6.8160 0.0986
1 3 6 -4.9514 -0.0581
1 3 7 -1.1133 -0.0858
1 3 8 2.4162 0.0261
1 3 9 4.4095 0.0689
1 3 10 4.4518 0.0162
1 3 11 2.7595 0.0083
1 4 0 6.9769 0.4822
1 4 1 7.3705 0.1010
1 4 2 2.5781 -0.1499
1 4 3 -3.5427 -0.0317
1 4 4 -7.0402 0.1569
1 4 5 -6.3980 0.1093
1 4 6 -2.8315 -0.0371
1 4 7 1.2046 -0.0528
1 4 8 3.9344 0.0159
1 4 9 4.7047 0.0283
1 4 10 3.5606 -0.0099
1 5 0 4.1837 0.2686
1 5 1 1.8893 -0.0268
1 5 2 -2.7230 -0.1393
1 5 3 -6.1806 0.0116
1 5 4 -6.3955 0.1538
1 5 5 -3.6359 0.1096
1 5 6 0.1762 -0.0075
1 5 7 3.0799 -0.0453
1 5 8 4.1711 -0.0187
1 5 9 3.4863 -0.0316
1 6 0 -1.3812 0.0973
1 6 1 -3.2233 -0.0707
1 6 2 -4.8515 -0.1366
1 6 3 -4.8880 -0.0301
1 6 4 -3.0699 0.0960
1 6 5 -0.2796 0.0932
1 6 6 2.0945 0.0063
1 6 7 3.1376 -0.0421
1 6 8 2.7520 -0.0572
1 7 0 -4.8244 0.1118
1 7 1 -4.1322 -0.0263
1 7 2 -3.0504 -0.1446
1 7 3 -1.5360 -0.0997
1 7 4 0.1615 0.0227
1 7 5 1.4691 0.0744
1 7 6 1.9862 0.0399
1 7 7 1.7281 -0.0220
1 8 0 -4.1882 0.2517
1 8 1 -2.0608 0.0986
1 8 2 -0.3532 -0.0997
1 8 3 0.8922 -0.1453
1 8 4 1.4463 -0.0285
1 8 5 1.2709 0.0983
1 8 6 0.8061 0.0994
1 9 0 -1.9879 0.4605
1 9 1 -0.1969 0.2894
1 9 2 0.9359 -0.0281
1 9 3 1.4004 -0.1648
1 9 4 1.0758 -0.0209
1 9 5 0.4041 0.1535
1 10 0 -0.7740 0.6458
1 10 1 0.2674 0.4078
1 10 2 0.7825 -0.0006
1 10 3 0.7718 -0.1429
1 10 4 0.3759 0.0288
1 11 0 -0.6370 0.6473
1 11 1 -0.0299 0.3742
1 11 2 0.1363 0.0073
1 11 3 0.1525 -0.0805
1 12 0 -0.6409 0.4809
1 12 1 -0.3201 0.2824
2 -14 4 0.9999 0.1122
2 -14 5 1.5802 -0.1215
2 -14 6 2.2057 -0.1174
2 -14 7 2.2508 -0.0251
2 -13 1 -2.0880 -0.3231
2 -13 2 -0.8389 0.0627
2 -13 3 0.7459 0.2151
2 -13 4 2.0743 0.0351
2 -13 5 3.4082 -0.0878
2 -13 6 4.4555 -0.0115
2 -13 7 3.9393 0.0095
2 -13 8 1.5478 -0.0796
2 -13 9 -1.1699 -0.0788
2 -13 10 -2.5605 -0.0027
2 -12 0 -3.2297 -0.4116
2 -12 1 -2.7290 -0.1918
2 -12 2 -0.9085 0.0933
2 -12 3 1.4224 0.1051
2 -12 4 3.7933 -0.0286
2 -12 5 5.9080 -0.0227
2 -12 6 6.5830 0.0582
2 -12 7 4.6627 0.0286
2 -12 8 0.8477 -0.0375
2 -12 9 -2.7068 -0.0259
2 -12 10 -4.2962 -0.0102
2 -12 11 -3.6440 -0.0396
2 -11 0 -4.2056 -0.2018
2 -11 1 -3.2955 -0.0623
2 -11 2 -0.5548 0.0440
2 -11 3 3.1608 0.0094
2 -11 4 6.6726 -0.0243
2 -11 5 8.5872 0.0312
2 -11 6 7.6696 0.0659
2 -11 7 4.0141 0.0312
2 -11 8 -0.7361 0.0066
2 -11 9 -4.4892 -0.0010
2 -11 10 -5.7215 -0.0310
2 -11 11 -4.2655 -0.0399
2 -11 12 -1.6998 0.0063
2 -10 0 -5.5091 -0.0596
2 -10 1 -3.3355 -0.0419
2 -10 2 1.3672 -0.0026
2 -10 3 6.7613 0.0126
2 -10 4 10.4673 0.0312
2 -10 5 10.7240 0.0335
2 -10 6 7.4478 0.0005
2 -10 7 2.2296 0.0004
2 -10 8 -2.8836 0.0412
2 -10 9 -6.1737 0.0241
2 -10 10 -6.5025 -0.0495
2 -10 11 -4.1973 -0.0528
2 -10 12 -1.2774 0.0471
2 -10 13 0.3827 0.1273
2 -9 0 -6.1513 -0.0682
2 -9 1 -1.4164 -0.0776
2 -9 2 5.5130 -0.0055
2 -9 3 11.5899 0.0786
2 -9 4 13.9544 0.0871
2 -9 5 11.5426 -0.0215
2 -9 6 5.8546 -0.1077
2 -9 7 -0.4109 -0.0248
2 -9 8 -5.2240 0.0993
2 -9 9 -7.4405 0.0549
2 -9 10 -6.6288 -0.0829
2 -9 11 -3.7087 -0.0778
2 -9 12 -0.7028 0.0831
2 -9 13 0.9186 0.1768
2 -8 0 -4.4311 -0.1586
2 -8 1 2.7076 -0.1637
2 -8 2 10.4481 -0.0156
2 -8 3 15.5071 0.1546
2 -8 4 15.4593 0.1252
2 -8 5 10.4480 -0.0902
2 -8 6 3.2669 -0.1769
2 -8 7 -3.0666 -0.0021
2 -8 8 -7.0034 0.1523
2 -8 9 -8.0136 0.0558
2 -8 10 -6.2581 -0.1130
2 -8 11 -2.9602 -0.0863
2 -8 12 0.0774 0.0834
2 -8 13 1.6513 0.1439
2 -7 0 -0.8539 -0.3166
2 -7 1 6.6928 -0.2887
2 -7 2 13.4312 -0.0210
2 -7 3 16.5990 0.2114
2 -7 4 14.5398 0.1343
2 -7 5 8.4057 -0.1140
2 -7 6 1.2140 -0.1670
2 -7 7 -4.6081 0.0181
2 -7 8 -7.8700 0.1386
2 -7 9 -8.0881 0.0374
2 -7 10 -5.6398 -0.1037
2 -7 11 -1.9394 -0.0841
2 -7 12 1.2437 0.0371
2 -7 13 2.7160 0.0708
2 -6 0 1.3360 -0.4390
2 -6 1 7.7683 -0.3256
2 -6 2 13.4270 -0.0218
2 -6 3 15.7869 0.1793
2 -6 4 13.5067 0.1121
2 -6 5 7.6622 -0.0758
2 -6 6 0.5931 -0.1313
2 -6 7 -5.4189 -0.0167
2 -6 8 -8.5976 0.0816
2 -6 9 -8.1772 0.0338
2 -6 10 -4.8330 -0.0678
2 -6 11 -0.4243 -0.0726
2 -6 12 2.9138 0.0030
2 -6 13 3.9355 0.0232
2 -5 0 0.0077 -0.3453
2 -5 1 6.5144 -0.2583
2 -5 2 13.2080 -0.0979
2 -5 3 16.6692 0.0572
2 -5 4 14.7465 0.0891
2 -5 5 8.0398 -0.0182
2 -5 6 -0.4742 -0.1033
2 -5 7 -7.1928 -0.0527
2 -5 8 -9.8422 0.0325
2 -5 9 -8.1097 0.0278
2 -5 10 -3.3594 -0.0221
2 -5 11 1.7434 -0.0236
2 -5 12 4.6162 0.0038
2 -5 13 4.5788 -0.0075
2 -4 0 -2.2923 -0.0823
2 -4 1 7.0640 -0.1772
2 -4 2 16.3569 -0.1876
2 -4 3 20.2293 -0.0471
2 -4 4 15.9431 0.0610
2 -4 5 5.9127 0.0316
2 -4 6 -4.1431 -0.0320
2 -4 7 -9.9378 -0.0456
2 -4 8 -10.5225 -0.0264
2 -4 9 -6.7654 0.0104
2 -4 10 -0.8280 0.0462
2 -4 11 3.9176 0.0346
2 -4 12 5.3255 -0.0143
2 -4 13 4.1318 -0.0315
2 -3 0 -0.9988 0.2255
2 -3 1 11.4576 0.0109
2 -3 2 20.9742 -0.1433
2 -3 3 21.3259 -0.1268
2 -3 4 12.0728 -0.0037
2 -3 5 -0.2771 0.1060
2 -3 6 -8.6137 0.0823
2 -3 7 -10.9758 -0.0510
2 -3 8 -8.7846 -0.0957
2 -3 9 -3.6502 0.0212
2 -3 10 1.9169 0.1082
2 -3 11 4.8745 0.0360
2 -3 12 4.6340 -0.0560
2 -3 13 2.9983 -0.0226
2 -2 0 3.4483 0.6527
2 -2 1 14.8207 0.3699
2 -2 2 19.9751 -0.0659
2 -2 3 14.9475 -0.2610
2 -2 4 3.4491 -0.0604
2 -2 5 -6.1809 0.1998
2 -2 6 -9.5699 0.1428
2 -2 7 -8.3077 -0.0906
2 -2 8 -4.7747 -0.1176
2 -2 9 -0.2299 0.0551
2 -2 10 3.3410 0.1174
2 -2 11 4.3002 0.0012
2 -2 12 3.3272 -0.0793
2 -2 13 1.9235 -0.0171
2 -1 0 4.3299 1.1318
2 -1 1 10.4389 0.6206
2 -1 2 10.7524 -0.1270
2 -1 3 4.5894 -0.3748
2 -1 4 -3.0653 -0.0510
2 -1 5 -6.7114 0.2363
2 -1 6 -6.0212 0.1207
2 -1 7 -3.7182 -0.1085
2 -1 8 -1.0834 -0.0951
2 -1 9 1.5507 0.0686
2 -1 10 3.1661 0.1025
2 -1 11 3.2353 -0.0213
2 -1 12 2.3709 -0.1145
2 0 0 -2.5527 1.2997
2 0 1 -0.1320 0.5624
2 0 2 0.4403 -0.2076
2 0 3 -1.2805 -0.3467
2 0 4 -3.0146 -0.0159
2 0 5 -2.9500 0.2028
2 0 6 -1.8538 0.0842
2 0 7 -0.8181 -0.1051
2 0 8 0.3367 -0.0838
2 0 9 1.6999 0.0701
2 0 10 2.6327 0.0945
2 0 11 2.6877 -0.0574
2 0 12 1.9454 -0.1793
2 1 0 -11.7450 1.0667
2 1 1 -7.6221 0.4044
2 1 2 -2.9690 -0.1579
2 1 3 -0.4250 -0.2407
2 1 4 0.0452 0.0046
2 1 5 -0.3095 0.1676
2 1 6 -0.7079 0.0521
2 1 7 -0.5789 -0.1202
2 1 8 0.4062 -0.0798
2 1 9 1.7768 0.0724
2 1 10 2.6637 0.0693
2 1 11 2.5621 -0.0887
2 2 0 -14.6837 0.7352
2 2 1 -7.1908 0.3061
2 2 2 -0.8555 -0.0884
2 2 3 1.4144 -0.1581
2 2 4 0.5115 0.0369
2 2 5 -1.0971 0.1427
2 2 6 -1.6591 0.0085
2 2 7 -0.7169 -0.1237
2 2 8 1.0308 -0.0639
2 2 9 2.4440 0.0573
2 2 10 2.8191 0.0658
2 2 11 2.1454 -0.0218
2 3 0 -11.1033 0.4365
2 3 1 -3.9735 0.1626
2 3 2 -0.1315 -0.0860
2 3 3 -0.1124 -0.0852
2 3 4 -1.6784 0.0625
2 3 5 -2.4416 0.0992
2 3 6 -1.4628 -0.0047
2 3 7 0.5654 -0.0871
2 3 8 2.2571 -0.0556
2 3 9 2.8038 0.0600
2 3 10 2.2605 0.1481
2 4 0 -8.0198 0.1150
2 4 1 -4.1496 0.0031
2 4 2 -2.7078 -0.0611
2 4 3 -2.7396 -0.0330
2 4 4 -2.6008 0.0306
2 4 5 -1.3258 0.0645
2 4 6 0.7106 0.0302
2 4 7 2.2746 -0.0516
2 4 8 2.6433 -0.0491
2 4 9 2.0522 0.1063
2 4 10 1.0286 0.2272
2 5 0 -8.8540 -0.0844
2 5 1 -6.5701 -0.0024
2 5 2 -4.5970 0.0011
2 5 3 -2.7253 -0.0496
2 5 4 -0.6131 -0.0288
2 5 5 1.5302 0.0572
2 5 6 2.7528 0.0559
2 5 7 2.5654 -0.0435
2 5 8 1.6253 -0.0455
2 5 9 0.6912 0.1042
2 6 0 -10.0046 -0.0208
2 6 1 -6.7187 0.1124
2 6 2 -3.2750 0.0339
2 6 3 -0.2382 -0.0912
2 6 4 2.2444 -0.0688
2 6 5 3.4693 0.0411
2 6 6 2.8762 0.0470
2 6 7 1.3382 -0.0635
2 6 8 0.2212 -0.1026
2 7 0 -8.0176 0.1558
2 7 1 -3.9729 0.2113
2 7 2 -0.4918 0.0534
2 7 3 2.1462 -0.1074
2 7 4 3.6420 -0.0994
2 7 5 3.3062 0.0162
2 7 6 1.5551 0.0214
2 7 7 0.0150 -0.1306
2 8 0 -4.2833 0.2701
2 8 1 -1.0683 0.2607
2 8 2 1.3927 0.0620
2 8 3 2.9736 -0.1258
2 8 4 3.1879 -0.1154
2 8 5 1.9380 0.0068
2 8 6 0.3375 -0.0287
2 9 0 -1.6558 0.2856
2 9 1 0.3672 0.2228
2 9 2 1.8596 0.0073
2 9 3 2.4046 -0.1498
2 9 4 1.8425 -0.1045
2 9 5 0.7399 -0.0134
2 10 0 -0.6895 0.1752
2 10 1 0.6364 0.0839
2 10 2 1.3428 -0.0755
2 10 3 1.2067 -0.1589
2 11 0 -0.4356 0.0079
2 11 1 0.3419 -0.0338
2 11 2 0.4377 -0.1273
2 12 0 -0.2818 -0.0409
3 -13 2 -1.3891 -0.0623
3 -13 3 -0.2660 -0.0380
3 -13 4 1.4009 0.0210
3 -13 5 2.9031 0.0201
3 -13 6 3.7233 0.0214
3 -13 7 3.4796 0.0513
3 -13 8 2.1349 0.0554
3 -13 9 0.1866 0.0429
3 -12 0 -1.2634 0.3841
3 -12 1 -1.8798 0.1768
3 -12 2 -1.5339 -0.0511
3 -12 3 -0.0460 -0.0963
3 -12 4 2.1837 -0.0459
3 -12 5 4.3414 -0.0151
3 -12 6 5.2687 -0.0027
3 -12 7 4.2464 0.0024
3 -12 8 1.7668 0.0065
3 -12 9 -0.9795 0.0315
3 -12 10 -2.9058 0.0671
3 -11 0 -1.8271 0.4751
3 -11 1 -2.5373 0.1503
3 -11 2 -1.8204 -0.1072
3 -11 3 0.3237 -0.1319
3 -11 4 3.3585 -0.0469
3 -11 5 5.9619 0.0099
3 -11 6 6.3633 -0.0044
3 -11 7 4.0801 -0.0464
3 -11 8 0.5178 -0.0299
3 -11 9 -2.5309 0.0450
3 -11 10 -4.0094 0.0765
3 -11 11 -3.6361 0.0272
3 -10 0 -2.8115 0.3498
3 -10 1 -3.1245 0.0373
3 -10 2 -1.5511 -0.1429
3 -10 3 1.4770 -0.1089
3 -10 4 5.1087 0.0170
3 -10 5 7.4393 0.0670
3 -10 6 6.5831 -0.0151
3 -10 7 2.9276 -0.0918
3 -10 8 -1.2176 -0.0281
3 -10 9 -3.9305 0.0789
3 -10 10 -4.5869 0.0565
3 -10 11 -3.5030 -0.0570
3 -10 12 -1.6908 -0.0815
3 -9 0 -3.3453 0.1801
3 -9 1 -2.6123 -0.0425
3 -9 2 -0.1467 -0.1444
3 -9 3 3.3517 -0.0530
3 -9 4 6.7564 0.0930
3 -9 5 7.9100 0.0914
3 -9 6 5.5814 -0.0450
3 -9 7 1.1925 -0.0990
3 -9 8 -2.7289 0.0036
3 -9 9 -4.7208 0.0847
3 -9 10 -4.5960 0.0155
3 -9 11 -2.9381 -0.0947
3 -9 12 -0.8548 -0.0940
3 -8 0 -2.4901 0.0851
3 -8 1 -1.0658 -0.0793
3 -8 2 1.4794 -0.1173
3 -8 3 4.5983 0.0033
3 -8 4 7.0669 0.1073
3 -8 5 7.0151 0.0615
3 -8 6 4.0449 -0.0443
3 -8 7 -0.1273 -0.0597
3 -8 8 -3.4418 0.0080
3 -8 9 -4.8392 0.0494
3 -8 10 -4.1741 0.0158
3 -8 11 -2.0114 -0.0493
3 -8 12 0.4072 -0.0775
3 -8 13 1.7682 -0.0482
3 -7 0 -1.2856 0.0642
3 -7 1 -0.4483 -0.0286
3 -7 2 1.3970 -0.0448
3 -7 3 4.0551 -0.0041
3 -7 4 6.2290 0.0305
3 -7 6 3.2521 0.0171
3 -7 7 -0.6829 -0.0250
3 -7 8 -3.7306 -0.0371
3 -7 9 -4.7762 0.0176
3 -7 10 -3.5935 0.0665
3 -7 11 -0.8087 0.0224
3 -7 12 1.9281 -0.0560
3 -7 13 2.9393 -0.0539
3 -6 0 -2.2434 0.1981
3 -6 1 -2.5541 0.1504
3 -6 2 -0.7104 0.0044
3 -6 3 2.9776 -0.1081
3 -6 4 6.2372 -0.0606
3 -6 5 6.2950 0.0714
3 -6 6 2.8436 0.0936
3 -6 7 -1.6277 -0.0217
3 -6 8 -4.5478 -0.0884
3 -6 9 -4.9199 0.0011
3 -6 10 -2.7970 0.1056
3 -6 11 0.7201 0.0718
3 -6 12 3.3437 -0.0265
3 -6 13 3.5004 -0.0368
3 -5 0 -6.0416 0.4961
3 -5 1 -6.1081 0.3403
3 -5 2 -2.2955 -0.0163
3 -5 3 3.6155 -0.2096
3 -5 4 7.4105 -0.0923
3 -5 5 6.0021 0.1198
3 -5 6 0.8562 0.1454
3 -5 7 -3.9140 -0.0194
3 -5 8 -5.8063 -0.1260
3 -5 9 -4.6449 -0.0312
3 -5 10 -1.2637 0.1095
3 -5 11 2.4063 0.0945
3 -5 12 4.0015 -0.0275
3 -5 13 3.0899 -0.0652
3 -4 0 -9.7592 0.7720
3 -4 1 -7.7225 0.4616
3 -4 2 -1.6020 -0.0087
3 -4 3 4.7432 -0.2340
3 -4 4 6.5449 -0.1077
3 -4 5 2.7381 0.1380
3 -4 6 -2.9099 0.1818
3 -4 7 -6.1768 -0.0176
3 -4 8 -5.8545 -0.1658
3 -4 9 -2.8907 -0.0615
3 -4 10 0.9499 0.1068
3 -4 11 3.4733 0.0734
3 -4 12 3.5424 -0.0935
3 -4 13 2.1185 -0.1314
3 -3 0 -10.4070 0.9228
3 -3 1 -7.1345 0.5679
3 -3 2 -1.6523 0.0417
3 -3 3 2.1278 -0.2546
3 -3 4 1.5506 -0.1389
3 -3 5 -2.1800 0.1443
3 -3 6 -5.4289 0.1852
3 -3 7 -5.8234 -0.0441
3 -3 8 -3.5059 -0.1791
3 -3 9 -0.0413 -0.0440
3 -3 10 2.6305 0.1025
3 -3 11 3.3295 0.0157
3 -3 12 2.4882 -0.1603
3 -2 0 -9.9741 0.9515
3 -2 1 -8.8612 0.5758
3 -2 2 -6.5147 0.0061
3 -2 3 -4.6336 -0.2808
3 -2 4 -4.0717 -0.1244
3 -2 5 -4.2541 0.1341
3 -2 6 -3.9626 0.1269
3 -2 7 -2.5022 -0.0688
3 -2 8 -0.1558 -0.1295
3 -2 9 1.9729 0.0093
3 -2 10 2.8291 0.0962
3 -2 11 2.4440 -0.0158
3 -2 12 1.6084 -0.1577
3 -1 0 -13.4336 0.7268
3 -1 1 -15.4198 0.3491
3 -1 2 -13.9138 -0.0754
3 -1 3 -9.7773 -0.2026
3 -1 4 -5.0815 -0.0598
3 -1 5 -1.6475 0.0793
3 -1 6 0.0904 0.0514
3 -1 7 0.9122 -0.0531
3 -1 8 1.6151 -0.0515
3 -1 9 2.1451 0.0597
3 -1 10 2.1288 0.0968
3 -1 11 1.6717 -0.0064
3 -1 12 1.0654 -0.1058
3 0 0 -20.6320 0.2121
3 0 1 -21.7924 0.0442
3 0 2 -16.8200 -0.0401
3 0 3 -8.7232 -0.0437
3 0 4 -1.5210 -0.0158
3 0 5 2.2614 0.0180
3 0 6 2.7050 0.0088
3 0 7 1.8182 -0.0264
3 0 8 1.4085 0.0071
3 0 9 1.5891 0.0795
3 0 10 1.6084 0.0714
3 0 11 1.2177 0.0096
3 1 0 -24.7969 -0.2975
3 1 1 -21.4670 -0.1159
3 1 2 -13.0135 0.0568
3 1 3 -4.1285 0.0625
3 1 4 1.7111 0.0072
3 1 5 3.3863 -0.0118
3 1 6 2.2889 -0.0241
3 1 7 1.0970 -0.0134
3 1 8 1.1280 0.0337
3 1 9 1.5511 0.0375
3 1 10 1.4031 0.0148
3 1 11 0.8094 0.0683
3 2 0 -21.6913 -0.5744
3 2 1 -15.5823 -0.1911
3 2 2 -7.7100 0.0798
3 2 3 -1.4647 0.1121
3 2 4 1.6675 0.0313
3 2 5 1.9192 -0.0482
3 2 6 1.1806 -0.0575
3 2 7 1.2264 0.0046
3 2 8 1.7862 0.0188
3 2 9 1.7305 -0.0367
3 2 10 1.0410 0.0143
3 3 0 -15.4408 -0.6928
3 3 1 -10.6499 -0.2548
3 3 2 -5.5716 0.0889
3 3 3 -1.6988 0.1482
3 3 4 0.3105 0.0106
3 3 5 1.0298 -0.0989
3 3 6 1.7319 -0.0553
3 3 7 2.4730 0.0223
3 3 8 2.3161 -0.0141
3 3 9 1.3386 -0.0524
3 3 10 0.4535 0.0731
3 4 0 -11.9028 -0.6770
3 4 1 -9.1620 -0.1981
3 4 2 -5.2905 0.1421
3 4 3 -1.7919 0.1270
3 4 4 0.5033 -0.0492
3 4 5 2.0928 -0.1081
3 4 6 3.2008 -0.0251
3 4 7 3.0727 0.0297
3 4 8 1.7645 -0.0122
3 4 9 0.5425 -0.0311
3 5 0 -10.9053 -0.4623
3 5 1 -8.0444 -0.0403
3 5 2 -3.7465 0.1515
3 5 3 -0.1419 0.0616
3 5 4 2.1825 -0.0647
3 5 5 3.5431 -0.0736
3 5 6 3.6075 0.0020
3 5 7 2.2763 0.0486
3 5 8 0.7455 -0.0053
3 6 0 -8.8850 -0.1995
3 6 1 -5.1130 0.0401
3 6 2 -0.9567 0.1039
3 6 3 1.9771 0.0427
3 6 4 3.5392 -0.0276
3 6 5 3.7616 -0.0334
3 6 6 2.6615 0.0403
3 6 7 1.1223 0.0651
3 7 0 -5.2156 -0.0945
3 7 1 -1.7712 0.0120
3 7 2 1.2726 0.0729
3 7 3 3.1697 0.0648
3 7 4 3.6752 0.0114
3 7 5 2.8584 0.0202
3 7 6 1.4969 0.0875
3 8 0 -1.9876 -0.1295
3 8 1 0.3378 -0.0548
3 8 2 2.3092 0.0482
3 8 3 3.2656 0.0771
3 8 4 2.8625 0.0529
3 8 5 1.7071 0.0794
3 9 0 -0.2271 -0.2290
3 9 1 1.2807 -0.1418
3 9 2 2.4320 0.0284
3 9 3 2.5020 0.0988
3 9 4 1.6411 0.0854
3 10 0 0.5409 -0.3477
3 10 1 1.4664 -0.1647
3 10 2 1.7869 0.0753
3 10 3 1.2605 0.1170
3 11 0 0.6895 -0.3403
3 11 1 1.0247 -0.0405
4 -13 3 -0.1566 0.1384
4 -13 4 -0.2850 0.2531
4 -13 5 0.0642 0.1433
4 -13 6 0.9856 -0.0753
4 -13 7 1.7821 -0.1514
4 -12 0 1.0476 0.1505
4 -12 1 0.7778 0.0175
4 -12 2 0.0336 -0.0067
4 -12 3 -0.7004 0.1300
4 -12 4 -0.8210 0.1830
4 -12 5 0.2181 0.0552
4 -12 6 1.9734 -0.0633
4 -12 7 2.8694 -0.0600
4 -12 8 1.8868 -0.0308
4 -12 9 -0.1714 -0.0515
4 -11 0 1.5808 0.0706
4 -11 1 0.6558 -0.0465
4 -11 2 -0.6916 -0.0030
4 -11 3 -1.6175 0.0887
4 -11 4 -1.2334 0.0637
4 -11 5 0.6812 -0.0100
4 -11 6 2.7846 -0.0104
4 -11 7 3.1296 0.0230
4 -11 8 1.2836 0.0142
4 -11 9 -1.2246 -0.0209
4 -11 10 -2.5075 -0.0403
4 -10 0 1.5432 -0.0613
4 -10 1 0.0557 -0.0329
4 -10 2 -1.5457 0.0323
4 -10 3 -2.2610 0.0222
4 -10 4 -1.3371 -0.0299
4 -10 5 0.8169 -0.0227
4 -10 6 2.4875 0.0288
4 -10 7 2.1923 0.0514
4 -10 8 0.1205 0.0314
4 -10 9 -2.1263 -0.0071
4 -10 10 -2.9595 -0.0285
4 -10 11 -2.0992 -0.0081
4 -9 0 1.4871 -0.0721
4 -9 1 -0.3568 0.0401
4 -9 2 -2.1335 0.0426
4 -9 3 -2.8837 -0.0287
4 -9 4 -2.0969 -0.0572
4 -9 5 -0.3273 -0.0229
4 -9 6 1.0470 0.0222
4 -9 7 0.9211 0.0467
4 -9 8 -0.6087 0.0223
4 -9 9 -2.2705 -0.0356
4 -9 10 -2.6933 -0.0246
4 -9 11 -1.6465 0.0601
4 -9 12 -0.1266 0.0482
4 -8 0 1.8552 -0.0039
4 -8 1 -0.7671 0.0904
4 -8 2 -3.3364 0.0498
4 -8 3 -4.7217 -0.0285
4 -8 4 -4.2088 -0.0627
4 -8 5 -2.1673 -0.0434
4 -8 6 -0.0910 0.0184
4 -8 7 0.5114 0.0548
4 -8 8 -0.4966 -0.0134
4 -8 9 -1.7967 -0.0838
4 -8 10 -1.9878 0.0091
4 -8 11 -0.8621 0.1398
4 -8 12 0.5931 0.0525
4 -7 0 1.6912 0.0717
4 -7 1 -2.5631 0.1523
4 -7 2 -6.2939 0.0900
4 -7 3 -7.7801 -0.0270
4 -7 4 -6.2524 -0.0916
4 -7 5 -2.8369 -0.0451
4 -7 6 0.0565 0.0617
4 -7 7 0.7780 0.0650
4 -7 8 -0.2865 -0.0684
4 -7 9 -1.4427 -0.1101
4 -7 10 -1.3354 0.0524
4 -7 11 -0.0229 0.1582
4 -7 12 1.2448 0.0093
4 -6 0 -0.4613 0.1820
4 -6 1 -6.2866 0.2337
4 -6 2 -9.9892 0.1058
4 -6 3 -9.8316 -0.0603
4 -6 4 -6.3497 -0.1091
4 -6 5 -2.1170 -0.0063
4 -6 6 0.3710 0.1043
4 -6 7 0.4554 0.0462
4 -6 8 -0.7357 -0.1044
4 -6 9 -1.4340 -0.0994
4 -6 10 -0.6645 0.0594
4 -6 11 0.8525 0.1094
4 -6 12 1.5915 -0.0324
4 -5 0 -4.1194 0.2591
4 -5 1 -9.9043 0.2380
4 -5 2 -11.8158 0.0748
4 -5 3 -9.5943 -0.0756
4 -5 4 -5.5096 -0.0917
4 -5 5 -2.1568 0.0165
4 -5 6 -0.6378 0.0916
4 -5 7 -0.6881 0.0191
4 -5 8 -1.2360 -0.0876
4 -5 9 -0.9395 -0.0671
4 -5 10 0.4554 0.0328
4 -5 11 1.6099 0.0493
4 -5 12 1.4518 -0.0563
4 -4 0 -6.6723 0.1736
4 -4 1 -11.1703 0.1432
4 -4 2 -11.6933 0.0490
4 -4 3 -9.4245 -0.0496
4 -4 4 -6.5467 -0.0703
4 -4 5 -4.1037 -0.0053
4 -4 6 -2.2255 0.0435
4 -4 7 -1.0671 0.0164
4 -4 8 -0.3427 -0.0285
4 -4 9 0.6590 -0.0270
4 -4 10 1.7115 0.0093
4 -4 11 1.8073 0.0087
4 -4 12 0.9714 -0.0778
4 -3 0 -7.0540 -0.0680
4 -3 1 -11.5356 -0.0137
4 -3 2 -12.9252 0.0217
4 -3 3 -11.9211 -0.0002
4 -3 4 -9.4398 -0.0320
4 -3 5 -5.8654 -0.0356
4 -3 6 -2.0218 -0.0083
4 -3 7 0.7510 0.0298
4 -3 8 2.0206 0.0358
4 -3 9 2.3790 0.0123
4 -3 10 2.1482 0.0029
4 -3 11 1.3559 -0.0202
4 -3 12 0.5246 -0.0918
4 -2 0 -8.1055 -0.4118
4 -2 1 -14.4216 -0.2437
4 -2 2 -16.7977 -0.0094
4 -2 3 -15.1515 0.1077
4 -2 4 -10.6575 0.0454
4 -2 5 -4.6912 -0.0674
4 -2 6 0.7745 -0.0605
4 -2 7 3.7086 0.0361
4 -2 8 3.8640 0.0753
4 -2 9 2.7269 0.0429
4 -2 10 1.5539 -0.0017
4 -2 11 0.6870 -0.0598
4 -1 0 -12.3859 -0.8125
4 -1 1 -19.0444 -0.4679
4 -1 2 -19.3541 0.0362
4 -1 3 -14.7281 0.2581
4 -1 4 -7.8825 0.0977
4 -1 5 -0.9219 -0.1116
4 -1 6 3.9196 -0.1011
4 -1 7 5.1017 0.0261
4 -1 8 3.6318 0.0885
4 -1 9 1.8140 0.0589
4 -1 10 0.6955 -0.0372
4 -1 11 0.1349 -0.1286
4 0 0 -16.9928 -1.0898
4 0 1 -20.1836 -0.5254
4 0 2 -16.6192 0.1369
4 0 3 -9.9598 0.3235
4 0 4 -3.1147 0.0804
4 0 5 2.2931 -0.1377
4 0 6 4.7143 -0.1180
4 0 7 4.0751 0.0127
4 0 8 2.3148 0.0953
4 0 9 0.9694 0.0449
4 0 10 0.1341 -0.1094
4 0 11 -0.2495 -0.1813
4 1 0 -16.7385 -1.0683
4 1 1 -15.5858 -0.4347
4 1 2 -10.4030 0.1593
4 1 3 -4.6724 0.2688
4 1 4 0.0624 0.0460
4 1 5 2.9055 -0.1323
4 1 6 3.4249 -0.1118
4 1 7 2.6361 0.0217
4 1 8 1.6947 0.0955
4 1 9 0.6865 0.0058
4 1 10 -0.2090 -0.1361
4 2 0 -11.6709 -0.8261
4 2 1 -9.3245 -0.3257
4 2 2 -5.6053 0.1143
4 2 3 -2.0133 0.1928
4 2 4 0.7600 0.0181
4 2 5 2.1595 -0.1167
4 2 6 2.5201 -0.0731
4 2 7 2.4606 0.0450
4 2 8 1.7425 0.0764
4 2 9 0.4138 0.0073
4 2 10 -0.4232 -0.0440
4 3 0 -6.8157 -0.5159
4 3 1 -5.8677 -0.1869
4 3 2 -3.8375 0.1031
4 3 3 -1.2986 0.1189
4 3 4 0.8407 -0.0239
4 3 5 2.1846 -0.0781
4 3 6 2.9220 -0.0162
4 3 7 2.7167 0.0406
4 3 8 1.3510 0.0616
4 3 9 -0.0471 0.0790
4 4 0 -4.9313 -0.1729
4 4 1 -4.7718 -0.0095
4 4 2 -2.9460 0.0807
4 4 3 -0.4738 0.0188
4 4 4 1.6174 -0.0357
4 4 5 2.9705 -0.0098
4 4 6 3.2164 0.0036
4 4 7 2.0711 0.0065
4 4 8 0.4579 0.0680
4 5 0 -4.0955 0.1055
4 5 1 -3.3498 0.0635
4 5 2 -1.3481 -0.0119
4 5 3 0.8002 -0.0392
4 5 4 2.4720 0.0158
4 5 5 3.1562 0.0303
4 5 6 2.4016 -0.0222
4 5 7 0.8355 -0.0139
4 6 0 -2.2691 0.1674
4 6 1 -1.1271 -0.0099
4 6 2 0.3212 -0.0865
4 6 3 1.6723 -0.0143
4 6 4 2.5925 0.0592
4 6 5 2.4091 0.0196
4 6 6 1.1435 -0.0280
4 7 0 -0.0475 0.0714
4 7 1 0.6333 -0.0957
4 7 2 1.2298 -0.0961
4 7 3 1.8878 0.0129
4 7 4 2.1444 0.0536
4 7 5 1.4193 0.0196
4 8 0 1.3730 -0.0197
4 8 1 1.3795 -0.1428
4 8 2 1.4591 -0.0988
4 8 3 1.7126 0.0139
4 8 4 1.4907 0.0511
4 9 0 1.8267 -0.0921
4 9 1 1.3610 -0.1725
4 9 2 1.2249 -0.0755
4 9 3 1.2056 0.0402
4 10 0 1.5124 -0.1434
4 10 1 0.8151 -0.1225
5 -12 2 0.4518 -0.0666
5 -12 4 -2.3184 -0.0075
5 -12 5 -2.5281 -0.0484
5 -12 6 -1.7772 0.0043
5 -12 7 -0.8084 0.0732
5 -11 0 2.4297 -0.3695
5 -11 1 2.1426 -0.1682
5 -11 2 0.4896 0.1033
5 -11 3 -1.7033 0.1266
5 -11 4 -3.1589 -0.0482
5 -11 5 -3.3509 -0.1039
5 -11 6 -2.7161 0.0110
5 -11 7 -1.8288 0.0631
5 -11 8 -0.9969 -0.0031
5 -11 9 -0.4649 -0.0435
5 -10 0 3.9851 -0.4744
5 -10 1 3.0283 -0.0707
5 -10 2 0.5551 0.2156
5 -10 3 -2.1967 0.1128
5 -10 4 -4.1113 -0.0850
5 -10 5 -4.8582 -0.0683
5 -10 6 -4.4918 0.0293
5 -10 7 -3.1631 0.0132
5 -10 8 -1.4810 -0.0309
5 -10 9 -0.3103 -0.0321
5 -10 10 0.1183 -0.0625
5 -9 0 5.6281 -0.3625
5 -9 1 3.7233 0.0195
5 -9 2 0.2771 0.1659
5 -9 3 -3.3728 0.0323
5 -9 4 -6.0958 -0.0584
5 -9 5 -7.0941 -0.0138
5 -9 6 -6.0095 0.0041
5 -9 7 -3.4322 -0.0118
5 -9 8 -0.8587 0.0103
5 -9 9 0.5311 -0.0089
5 -9 10 0.8476 -0.0728
5 -8 0 6.6552 -0.2069
5 -8 1 3.3346 0.0087
5 -8 2 -1.4133 0.0571
5 -8 3 -5.9363 0.0045
5 -8 4 -8.5837 -0.0096
5 -8 5 -8.3821 -0.0131
5 -8 6 -5.7067 -0.0141
5 -8 7 -2.1708 0.0390
5 -8 8 0.4292 0.0599
5 -8 9 1.3921 -0.0208
5 -8 10 1.3641 -0.0544
5 -8 11 1.1846 0.0372
5 -7 0 6.0158 -0.1148
5 -7 1 1.0937 -0.0313
5 -7 2 -4.5289 0.0108
5 -7 3 -8.6263 0.0239
5 -7 4 -9.5722 -0.0001
5 -7 5 -7.4771 -0.0310
5 -7 6 -3.8975 0.0140
5 -7 7 -0.6027 0.0767
5 -7 8 1.2835 0.0319
5 -7 9 1.7141 -0.0389
5 -7 10 1.5053 -0.0044
5 -7 11 1.2414 0.0430
5 -6 0 3.6990 -0.0925
5 -6 1 -2.0007 -0.0709
5 -6 2 -7.0883 -0.0014
5 -6 3 -9.4463 0.0380
5 -6 4 -8.5321 0.0003
5 -6 5 -5.6519 -0.0233
5 -6 6 -2.4596 0.0152
5 -6 7 0.0648 0.0194
5 -6 8 1.4814 -0.0182
5 -6 9 1.8732 0.0030
5 -6 10 1.7181 0.0336
5 -6 11 1.2547 -0.0260
5 -5 0 1.4930 -0.1861
5 -5 1 -3.6858 -0.1692
5 -5 2 -7.5893 -0.0276
5 -5 3 -8.8142 0.0657
5 -5 4 -7.4980 0.0369
5 -5 5 -4.9470 -0.0215
5 -5 6 -2.2125 -0.0537
5 -5 7 0.2350 -0.0536
5 -5 8 1.9691 0.0124
5 -5 9 2.6338 0.0791
5 -5 10 2.2457 0.0203
5 -5 11 1.2059 -0.0974
5 -4 0 1.1500 -0.4026
5 -4 1 -3.5758 -0.3144
5 -4 2 -7.5457 -0.0424
5 -4 3 -9.1045 0.1313
5 -4 4 -7.9709 0.0929
5 -4 5 -5.2423 -0.0432
5 -4 6 -1.9436 -0.1173
5 -4 7 1.2684 -0.0457
5 -4 8 3.4640 0.0905
5 -4 9 3.8104 0.1055
5 -4 10 2.5266 -0.0212
5 -4 11 0.8298 -0.1150
5 -3 0 1.6530 -0.6259
5 -3 1 -4.1778 -0.4232
5 -3 2 -9.1916 -0.0223
5 -3 3 -10.6729 0.2077
5 -3 4 -8.5328 0.1344
5 -3 5 -4.5490 -0.0604
5 -3 6 -0.1559 -0.1204
5 -3 7 3.5121 0.0024
5 -3 8 5.1083 0.1138
5 -3 9 4.1949 0.0680
5 -3 10 1.9642 -0.0462
5 -3 11 0.1263 -0.0974
5 -2 0 0.1896 -0.7250
5 -2 1 -6.9767 -0.4330
5 -2 2 -11.4006 0.0241
5 -2 3 -10.8744 0.2446
5 -2 4 -6.8536 0.1285
5 -2 5 -1.7436 -0.0707
5 -2 6 2.8271 -0.0969
5 -2 7 5.4273 0.0143
5 -2 8 5.2797 0.0711
5 -2 9 3.2140 0.0224
5 -2 10 0.8684 -0.0486
5 -1 0 -3.3454 -0.6226
5 -1 1 -9.3375 -0.3177
5 -1 2 -10.7796 0.0615
5 -1 3 -7.8126 0.1874
5 -1 4 -2.9058 0.0585
5 -1 5 1.8453 -0.0777
5 -1 6 4.8799 -0.0738
5 -1 7 5.3221 -0.0033
5 -1 8 3.8457 0.0277
5 -1 9 1.8158 0.0059
5 -1 10 0.0408 -0.0458
5 0 0 -5.3072 -0.3084
5 0 1 -7.8817 -0.1198
5 0 2 -6.5965 0.0344
5 0 3 -3.0714 0.0431
5 0 4 0.8656 -0.0201
5 0 5 3.7707 -0.0538
5 0 6 4.5801 -0.0404
5 0 7 3.6984 -0.0080
5 0 8 2.4156 0.0189
5 0 9 1.1157 0.0158
5 0 10 -0.1764 -0.0265
5 1 0 -3.2774 0.1072
5 1 1 -3.4156 0.0585
5 1 2 -1.9171 -0.0456
5 1 3 0.2459 -0.0822
5 1 4 2.3143 -0.0369
5 1 5 3.3202 0.0020
5 1 6 3.0723 0.0032
5 1 7 2.5306 0.0054
5 1 8 2.0287 0.0285
5 1 9 1.0482 0.0495
5 2 0 0.5157 0.4585
5 2 1 0.2633 0.1768
5 2 2 0.4017 -0.0911
5 2 3 1.0707 -0.1227
5 2 4 1.8716 -0.0112
5 2 5 2.2072 0.0594
5 2 6 2.3136 0.0423
5 2 7 2.4491 0.0081
5 2 8 2.0194 0.0345
5 2 9 0.9387 0.1033
5 3 0 2.5796 0.6679
5 3 1 1.3596 0.2513
5 3 2 0.7253 -0.0960
5 3 3 0.9569 -0.1322
5 3 4 1.5059 0.0181
5 3 5 1.9873 0.1114
5 3 6 2.4148 0.0535
5 3 7 2.3766 -0.0217
5 3 8 1.5289 0.0326
5 4 0 2.5244 0.7147
5 4 1 1.3401 0.2401
5 4 2 1.0772 -0.1301
5 4 3 1.4999 -0.1347
5 4 4 1.9554 0.0663
5 4 5 2.2423 0.1391
5 4 6 2.2507 0.0135
5 4 7 1.6562 -0.0642
5 5 0 2.2134 0.5808
5 5 1 1.8942 0.1300
5 5 2 2.1594 -0.1602
5 5 3 2.4187 -0.0868
5 5 4 2.3222 0.1044
5 5 5 2.0387 0.0954
5 5 6 1.5508 -0.0474
5 6 0 2.6076 0.3590
5 6 1 2.8839 0.0437
5 6 2 3.0039 -0.1133
5 6 3 2.6193 -0.0335
5 6 4 1.9905 0.0572
5 6 5 1.4416 0.0077
5 7 0 3.1966 0.2182
5 7 1 3.2980 0.0554
5 7 2 2.7656 -0.0545
5 7 3 1.9324 -0.0604
5 7 4 1.3081 -0.0389
5 8 0 3.2734 0.1736
5 8 1 2.7047 0.0707
5 8 2 1.6970 -0.0626
5 8 3 0.9850 -0.1135
5 9 0 2.5680 0.1162
5 9 1 1.4762 0.0360
6 -11 2 2.3432 -0.0750
6 -11 3 0.4899 0.0741
6 -11 4 -1.7700 0.0400
6 -11 5 -3.4027 -0.0032
6 -11 6 -3.9369 0.0664
6 -10 0 4.0474 -0.0571
6 -10 1 4.4434 -0.0509
6 -10 2 2.9137 -0.0256
6 -10 3 -0.0497 -0.0454
6 -10 4 -3.2798 -0.0360
6 -10 5 -5.5205 0.0489
6 -10 6 -5.8250 0.0594
6 -10 7 -4.0633 -0.0390
6 -10 8 -1.3076 -0.0382
6 -9 0 5.9944 0.1770
6 -9 1 5.0921 0.0617
6 -9 2 2.1700 -0.0973
6 -9 3 -1.8463 -0.1219
6 -9 4 -5.5222 0.0211
6 -9 5 -7.2465 0.0900
6 -9 6 -6.1927 -0.0350
6 -9 7 -3.0915 -0.1002
6 -9 8 0.1806 0.0287
6 -9 9 1.9572 0.0937
6 -8 0 6.4700 0.2552
6 -8 1 4.0169 0.0174
6 -8 2 0.0587 -0.1473
6 -8 3 -4.1131 -0.0487
6 -8 4 -6.8914 0.1092
6 -8 5 -7.0084 0.0450
6 -8 6 -4.5909 -0.0943
6 -8 7 -1.1516 -0.0355
6 -8 8 1.5506 0.0723
6 -8 9 2.6158 -0.0025
6 -7 0 5.1603 0.1728
6 -7 1 1.9222 -0.0572
6 -7 2 -1.8901 -0.1030
6 -7 3 -4.9760 0.0489
6 -7 4 -6.1979 0.1065
6 -7 5 -5.1424 -0.0139
6 -7 6 -2.5591 -0.0638
6 -7 7 0.1698 0.0175
6 -7 8 2.0140 0.0127
6 -7 9 2.7162 -0.0765
6 -7 10 2.4492 -0.0406
6 -6 0 3.4147 0.0463
6 -6 1 0.6978 -0.1075
6 -6 2 -2.0364 -0.0741
6 -6 3 -4.0164 0.0537
6 -6 4 -4.5979 0.0636
6 -6 5 -3.5657 -0.0186
6 -6 6 -1.5282 -0.0355
6 -6 7 0.5388 -0.0094
6 -6 8 2.0770 -0.0245
6 -6 9 2.9180 -0.0236
6 -6 10 2.7993 0.0367
6 -5 0 2.9530 -0.0653
6 -5 1 1.2268 -0.1667
6 -5 2 -1.0105 -0.0996
6 -5 3 -3.0903 0.0338
6 -5 4 -3.9389 0.0607
6 -5 5 -3.0791 -0.0069
6 -5 6 -1.1563 -0.0464
6 -5 7 0.9021 -0.0207
6 -5 8 2.5944 0.0281
6 -5 9 3.5093 0.0530
6 -5 10 3.1530 0.0382
6 -4 0 3.7167 -0.1164
6 -4 1 1.9561 -0.1776
6 -4 2 -1.0050 -0.0817
6 -4 3 -3.5263 0.0521
6 -4 4 -4.0698 0.0658
6 -4 5 -2.6246 -0.0082
6 -4 6 -0.2622 -0.0394
6 -4 7 2.0235 0.0070
6 -4 8 3.5845 0.0592
6 -4 9 3.9468 0.0455
6 -4 10 2.9872 -0.0206
6 -3 0 3.7696 -0.0241
6 -3 1 0.9697 -0.0540
6 -3 2 -2.4016 -0.0062
6 -3 3 -4.0729 0.0408
6 -3 4 -3.3309 0.0287
6 -3 5 -1.0467 -0.0036
6 -3 6 1.5824 -0.0162
6 -3 7 3.5160 -0.0054
6 -3 8 4.1279 0.0153
6 -3 9 3.5115 0.0019
6 -3 10 2.1272 -0.0678
6 -2 0 2.0199 0.2281
6 -2 1 -0.9641 0.1494
6 -2 2 -2.9747 0.0241
6 -2 3 -2.7704 -0.0538
6 -2 4 -0.9393 -0.0347
6 -2 5 1.4858 0.0111
6 -2 6 3.4926 -0.0077
6 -2 7 4.1362 -0.0437
6 -2 8 3.4492 -0.0204
6 -2 9 2.2730 -0.0012
6 -1 0 0.1283 0.5293
6 -1 1 -1.1846 0.3067
6 -1 2 -1.0003 -0.0269
6 -1 3 0.3670 -0.1768
6 -1 4 2.0558 -0.0766
6 -1 5 3.5217 0.0461
6 -1 6 4.0195 0.0241
6 -1 7 3.2187 -0.0354
6 -1 8 1.9780 -0.0096
6 -1 9 1.0608 0.0398
6 0 0 0.4036 0.7483
6 0 1 1.1869 0.3804
6 0 2 2.4160 -0.0880
6 0 3 3.3285 -0.2419
6 0 4 3.7486 -0.0585
6 0 5 3.6886 0.1196
6 0 6 2.8707 0.0910
6 0 7 1.6473 -0.0096
6 0 8 0.8468 -0.0020
6 1 0 2.6040 0.8329
6 1 1 4.1037 0.3987
6 1 2 4.6920 -0.1013
6 1 3 4.2054 -0.2216
6 1 4 3.3092 0.0030
6 1 5 2.3932 0.1844
6 1 6 1.4264 0.1159
6 1 7 0.7190 -0.0399
6 1 8 0.4933 -0.0265
6 2 0 4.3932 0.7744
6 2 1 5.2211 0.3580
6 2 2 4.5743 -0.0843
6 2 3 3.1322 -0.1665
6 2 4 2.0081 0.0388
6 2 5 1.3721 0.1729
6 2 6 0.8724 0.0525
6 2 7 0.5535 -0.1247
6 3 0 4.3889 0.5628
6 3 1 4.3652 0.2363
6 3 2 3.1778 -0.0836
6 3 3 1.9960 -0.1299
6 3 4 1.5491 0.0271
6 3 5 1.3152 0.0924
6 3 6 0.8610 -0.0653
6 4 0 3.3286 0.2407
6 4 1 3.1200 0.0658
6 4 2 2.3721 -0.0914
6 4 3 1.9751 -0.0896
6 4 4 1.8466 0.0006
6 4 5 1.3649 -0.0272
6 4 6 0.6570 -0.1826
6 5 0 2.5559 -0.0627
6 5 1 2.7061 -0.0579
6 5 2 2.5178 -0.0499
6 5 3 2.2597 -0.0310
6 5 4 1.7337 -0.0613
6 5 5 0.9400 -0.1656
6 6 0 2.4527 -0.2207
6 6 1 2.7794 -0.0723
6 6 2 2.4612 0.0191
6 6 3 1.7577 -0.0353
6 6 4 1.0032 -0.1773
6 7 0 2.3825 -0.2289
6 7 1 2.3052 -0.0416
6 7 2 1.5147 0.0061
6 8 0 1.6841 -0.1898
6 8 1 1.0898 -0.0675
7 -9 0 2.1153 0.2642
7 -9 1 1.7330 0.1206
7 -9 2 0.5243 -0.0879
7 -9 3 -1.1830 -0.1332
7 -9 4 -2.9063 0.0495
7 -9 5 -3.7731 0.1931
7 -9 6 -3.0649 0.1077
7 -8 0 1.2103 0.1886
7 -8 1 0.5708 -0.0185
7 -8 2 -0.5041 -0.1341
7 -8 3 -1.8015 -0.0404
7 -8 4 -2.8572 0.1041
7 -8 5 -3.0171 0.0965
7 -8 6 -1.9647 0.0036
7 -8 7 -0.3235 0.0051
7 -7 0 -0.3840 0.0897
7 -7 1 -0.3334 -0.0347
7 -7 2 -0.4753 -0.0510
7 -7 3 -0.9916 0.0136
7 -7 4 -1.6213 0.0352
7 -7 5 -1.7523 -0.0148
7 -7 6 -0.9727 -0.0483
7 -7 7 0.2440 -0.0308
7 -7 8 0.8493 -0.0194
7 -6 0 -1.0485 0.0740
7 -6 1 0.1336 0.0293
7 -6 2 0.7279 -0.0054
7 -6 3 0.2867 -0.0165
7 -6 4 -0.6309 -0.0270
7 -6 5 -0.9779 -0.0514
7 -6 6 -0.2762 -0.0614
7 -6 7 0.8207 -0.0448
7 -6 8 1.2572 -0.0160
7 -5 0 -0.2995 0.1053
7 -5 1 1.3368 0.0717
7 -5 2 1.6618 0.0107
7 -5 3 0.6980 -0.0148
7 -5 4 -0.3156 -0.0322
7 -5 5 -0.3293 -0.0395
7 -5 6 0.5959 -0.0033
7 -5 7 1.5509 0.0232
7 -5 8 1.7135 0.0131
7 -4 0 0.6035 0.1615
7 -4 1 1.7237 0.1470
7 -4 2 1.4538 0.0805
7 -4 3 0.5714 -0.0061
7 -4 4 0.2646 -0.0623
7 -4 5 0.7874 0.0061
7 -4 6 1.6130 0.1100
7 -4 7 2.0924 0.0591
7 -4 8 1.8827 -0.0382
7 -3 0 0.4113 0.2840
7 -3 1 1.0689 0.2738
7 -3 2 1.0742 0.1096
7 -3 3 1.1721 -0.0966
7 -3 4 1.6609 -0.1181
7 -3 5 2.1624 0.0748
7 -3 6 2.3615 0.1584
7 -3 7 2.1812 -0.0082
7 -3 8 1.6828 -0.0890
7 -2 0 -0.4103 0.4090
7 -2 1 0.7140 0.3116
7 -2 2 1.7542 0.0149
7 -2 3 2.7614 -0.2095
7 -2 4 3.3407 -0.1179
7 -2 5 3.1746 0.1116
7 -2 6 2.5016 0.1058
7 -2 7 1.7627 -0.0676
7 -2 8 1.2034 -0.0473
7 -1 0 -0.4591 0.3898
7 -1 1 1.5507 0.2150
7 -1 2 3.3162 -0.0699
7 -1 3 4.4180 -0.1926
7 -1 4 4.3420 -0.0526
7 -1 5 3.2163 0.0949
7 -1 6 1.8645 0.0382
7 -1 7 0.9961 -0.0572
7 0 0 0.6227 0.2211
7 0 1 2.9500 0.1125
7 0 2 4.5953 -0.0264
7 0 3 5.0058 -0.0609
7 0 4 3.9336 0.0151
7 0 5 2.1659 0.0461
7 0 6 0.8332 -0.0174
7 0 7 0.3346 -0.0604
7 1 0 1.8510 0.0073
7 1 1 3.7438 0.0449
7 1 2 4.6395 0.0603
7 1 3 4.0712 0.0579
7 1 4 2.4301 0.0321
7 1 5 0.9129 -0.0280
7 1 6 0.1978 -0.0907
7 2 0 2.2587 -0.2320
7 2 1 3.4126 -0.0660
7 2 2 3.5021 0.0804
7 2 3 2.4919 0.0941
7 2 4 1.2220 0.0030
7 2 5 0.4514 -0.0917
7 3 0 1.7891 -0.4820
7 3 1 2.4186 -0.1997
7 3 2 2.2980 0.0462
7 3 3 1.6796 0.0838
7 3 4 1.0526 0.0006
7 3 5 0.5493 -0.0912
7 4 0 1.0815 -0.6073
7 4 1 1.7046 -0.2526
7 4 2 1.9320 0.0274
7 4 3 1.7152 0.1060
7 4 4 1.1119 0.0542
7 5 0 0.7622 -0.5283
7 5 1 1.5740 -0.2023
7 5 2 1.8923 0.0625
7 6 0 0.7794 -0.3530
7 6 1 1.3487 -0.1048
8 -7 1 -1.7548 -0.0281
8 -7 2 -0.2494 0.0660
8 -7 3 0.9610 0.0272
8 -7 4 1.2894 0.0139
8 -6 0 -2.3398 -0.1763
8 -6 1 -1.1042 -0.0081
8 -6 2 0.4819 -0.0202
8 -6 3 1.4007 -0.0419
8 -6 4 1.4971 0.0091
8 -6 5 1.3058 -0.0035
8 -5 0 -2.0176 -0.0855
8 -5 1 -0.7084 -0.0323
8 -5 2 0.6796 -0.0369
8 -5 3 1.5389 0.0137
8 -5 5 2.3253 -0.0730
8 -4 0 -2.2671 -0.0322
8 -4 1 -0.8752 0.0102
8 -4 2 0.7445 0.0635
8 -4 3 2.0701 0.0589
8 -4 4 3.0299 -0.0613
8 -4 5 3.4629 -0.0962
8 -3 0 -2.7878 0.0029
8 -3 1 -0.7973 0.0694
8 -3 2 1.3643 0.0993
8 -3 3 2.9487 0.0040
8 -3 4 3.8196 -0.1004
8 -3 5 3.8192 -0.0270
8 -2 0 -2.5871 -0.0597
8 -2 1 0.0617 0.0040
8 -2 2 2.2416 0.0363
8 -2 3 3.3843 -0.0127
8 -2 4 3.7183 -0.0174
8 -2 5 3.2709 0.0559
8 -1 0 -1.4705 -0.2450
8 -1 1 1.1293 -0.1211
8 -1 2 2.6207 0.0207
8 -1 3 3.0166 0.0757
8 -1 4 2.8266 0.0889
8 -1 5 2.1758 0.0566
8 0 0 -0.2423 -0.4115
8 0 1 1.6475 -0.1858
8 0 2 2.2871 0.0517
8 0 3 2.0497 0.1376
8 0 4 1.5321 0.0774
8 1 0 0.4019 -0.4916
8 1 1 1.4669 -0.2385
8 1 2 1.4575 0.0239
8 1 3 0.8895 0.0758
8 1 4 0.4342 -0.0694
8 2 0 0.4020 -0.5420
8 2 1 0.8433 -0.2900
8 2 2 0.5721 -0.0354
8 2 3 0.1696 -0.0585
8 3 0 0.0579 -0.4930
8 3 1 0.2630 -0.2191
8 4 0 -0.1753 -0.2459
0 0 0 0.0 0.0
;
_olex2_submission_special_instructions 'No special instructions were received'
_oxdiff_exptl_absorpt_empirical_details
;
Empirical correction (ABSPACK) includes:
- Absorption correction using spherical harmonics
- Frame scaling
;
_oxdiff_exptl_absorpt_empirical_full_max 1.742
_oxdiff_exptl_absorpt_empirical_full_min 0.521
loop_
_space_group_symop_operation_xyz
'x, y, z'
'-x, -y, -z'
loop_
_atom_site_label
_atom_site_type_symbol
_atom_site_fract_x
_atom_site_fract_y
_atom_site_fract_z
_atom_site_U_iso_or_equiv
_atom_site_adp_type
_atom_site_occupancy
_atom_site_site_symmetry_order
_atom_site_calc_flag
_atom_site_refinement_flags_posn
_atom_site_refinement_flags_adp
_atom_site_refinement_flags_occupancy
_atom_site_disorder_assembly
_atom_site_disorder_group
S1 S 0.79161(11) 0.35654(8) 0.23878(8) 0.0277(2) Uani 1 1 d . . . . .
Cl4 Cl 0.59357(11) 0.69464(8) 0.09023(8) 0.0325(2) Uani 1 1 d . . . . .
Cl3 Cl 0.73734(12) 0.96605(8) 0.36422(9) 0.0356(2) Uani 1 1 d . . . . .
Cl2 Cl 0.78425(13) 0.89984(10) 0.63007(9) 0.0432(3) Uani 1 1 d . . . . .
Cl1 Cl 0.52022(13) 0.24180(9) 0.15522(9) 0.0398(2) Uani 1 1 d . . . . .
O1 O 0.8799(4) 0.3472(3) 0.8957(3) 0.0365(6) Uani 1 1 d . . . . .
N2 N 0.7169(3) 0.5438(3) 0.4935(3) 0.0244(6) Uani 1 1 d . . . . .
N1 N 0.8362(4) 0.3528(3) 0.3659(3) 0.0303(7) Uani 1 1 d . . . . .
C9 C 0.6929(4) 0.5768(3) 0.3978(3) 0.0244(7) Uani 1 1 d . . . . .
C14 C 0.7217(4) 0.5010(3) 0.2748(3) 0.0257(7) Uani 1 1 d . . . . .
C3 C 0.7832(4) 0.5007(3) 0.7027(3) 0.0274(7) Uani 1 1 d . . . . .
H3 H 0.746693 0.576657 0.713007 0.033 Uiso 1 1 calc R . . . .
C7 C 0.8658(4) 0.2996(3) 0.5708(3) 0.0272(7) Uani 1 1 d . . . . .
H7 H 0.887424 0.240718 0.492649 0.033 Uiso 1 1 calc R . . . .
C11 C 0.6077(4) 0.7331(3) 0.3323(3) 0.0245(7) Uani 1 1 d . . . . .
C10 C 0.6349(4) 0.6960(3) 0.4261(3) 0.0247(7) Uani 1 1 d . . . . .
C1 C 0.7825(4) 0.4394(3) 0.4751(3) 0.0256(7) Uani 1 1 d . . . . .
C2 C 0.8115(4) 0.4122(3) 0.5835(3) 0.0252(7) Uani 1 1 d . . . . .
C12 C 0.6355(4) 0.6517(3) 0.2092(3) 0.0266(7) Uani 1 1 d . . . . .
C6 C 0.8888(4) 0.2729(3) 0.6721(3) 0.0280(7) Uani 1 1 d . . . . .
H6 H 0.923063 0.196268 0.661522 0.034 Uiso 1 1 calc R . . . .
C13 C 0.6944(4) 0.5368(3) 0.1788(3) 0.0275(7) Uani 1 1 d . . . . .
H13 H 0.715167 0.485037 0.097666 0.033 Uiso 1 1 calc R . . . .
C15 C 0.6025(5) 0.7761(3) 0.5582(3) 0.0281(7) Uani 1 1 d . . . . .
H15A H 0.592346 0.725439 0.603615 0.034 Uiso 1 1 calc R . . . .
H15B H 0.489127 0.811397 0.561519 0.034 Uiso 1 1 calc R . . . .
C16 C 0.5472(4) 0.8576(3) 0.3583(3) 0.0282(7) Uani 1 1 d . . . . .
H16A H 0.490977 0.889232 0.436635 0.034 Uiso 1 1 calc R . . . .
H16B H 0.457752 0.848878 0.294091 0.034 Uiso 1 1 calc R . . . .
C4 C 0.8083(4) 0.4771(4) 0.8044(4) 0.0311(8) Uani 1 1 d . . . . .
H4 H 0.791169 0.537384 0.882853 0.037 Uiso 1 1 calc R . . . .
C5 C 0.8599(4) 0.3621(3) 0.7900(3) 0.0285(7) Uani 1 1 d . . . . .
C8 C 0.9128(5) 0.2275(4) 0.8859(4) 0.0369(8) Uani 1 1 d . . . . .
H8A H 0.812223 0.167706 0.840268 0.055 Uiso 1 1 calc GR . . . .
H8B H 0.926935 0.230578 0.967170 0.055 Uiso 1 1 calc GR . . . .
H8C H 1.021255 0.203692 0.843756 0.055 Uiso 1 1 calc GR . . . .
loop_
_atom_site_aniso_label
_atom_site_aniso_U_11
_atom_site_aniso_U_22
_atom_site_aniso_U_33
_atom_site_aniso_U_23
_atom_site_aniso_U_13
_atom_site_aniso_U_12
S1 0.0244(4) 0.0241(4) 0.0320(4) 0.0086(3) 0.0062(3) 0.0059(3)
Cl4 0.0329(4) 0.0335(5) 0.0309(4) 0.0130(4) 0.0007(3) 0.0077(3)
Cl3 0.0328(4) 0.0248(4) 0.0477(5) 0.0137(4) 0.0103(4) 0.0022(3)
Cl2 0.0352(5) 0.0407(6) 0.0367(5) 0.0011(4) -0.0019(4) 0.0002(4)
Cl1 0.0376(5) 0.0359(5) 0.0413(5) 0.0136(4) -0.0019(4) -0.0027(4)
O1 0.0399(14) 0.0374(15) 0.0374(14) 0.0193(12) 0.0075(11) 0.0114(11)
N2 0.0169(12) 0.0229(14) 0.0335(15) 0.0118(12) 0.0048(10) 0.0033(10)
N1 0.0241(14) 0.0274(16) 0.0376(17) 0.0113(13) 0.0037(12) 0.0078(12)
C9 0.0136(14) 0.0240(17) 0.0336(18) 0.0105(14) 0.0032(12) 0.0009(12)
C14 0.0170(14) 0.0255(17) 0.0325(18) 0.0101(14) 0.0015(12) 0.0032(12)
C3 0.0185(15) 0.0245(17) 0.0373(19) 0.0107(15) 0.0054(13) 0.0046(12)
C7 0.0155(14) 0.0225(17) 0.0393(19) 0.0091(15) 0.0028(13) 0.0015(12)
C11 0.0136(14) 0.0247(17) 0.0331(18) 0.0102(14) 0.0041(12) 0.0023(12)
C10 0.0159(14) 0.0238(17) 0.0319(18) 0.0095(14) 0.0037(12) 0.0019(12)
C1 0.0159(15) 0.0222(17) 0.0355(19) 0.0095(14) 0.0030(13) 0.0011(12)
C2 0.0140(14) 0.0254(17) 0.0372(18) 0.0143(14) 0.0012(12) 0.0021(12)
C12 0.0181(14) 0.0286(18) 0.0328(18) 0.0131(15) 0.0011(13) 0.0007(12)
C6 0.0191(15) 0.0252(17) 0.042(2) 0.0160(16) 0.0020(13) 0.0037(13)
C13 0.0201(15) 0.0285(18) 0.0294(17) 0.0081(14) 0.0034(13) 0.0028(13)
C15 0.0267(16) 0.0249(17) 0.0311(18) 0.0093(14) 0.0074(13) 0.0071(13)
C16 0.0227(15) 0.0263(18) 0.0360(19) 0.0134(15) 0.0044(13) 0.0041(13)
C4 0.0235(16) 0.0310(19) 0.0367(19) 0.0115(16) 0.0052(14) 0.0058(14)
C5 0.0202(15) 0.0303(18) 0.0383(19) 0.0174(16) 0.0061(13) 0.0032(13)
C8 0.037(2) 0.034(2) 0.046(2) 0.0218(18) 0.0070(16) 0.0123(16)
loop_
_atom_type_symbol
_atom_type_description
_atom_type_scat_dispersion_real
_atom_type_scat_dispersion_imag
_atom_type_scat_source
C C 0.0181 0.0091 'International Tables Vol C Tables 4.2.6.8 and 6.1.1.4'
H H 0.0000 0.0000 'International Tables Vol C Tables 4.2.6.8 and 6.1.1.4'
Cl Cl 0.3639 0.7018 'International Tables Vol C Tables 4.2.6.8 and 6.1.1.4'
N N 0.0311 0.0180 'International Tables Vol C Tables 4.2.6.8 and 6.1.1.4'
O O 0.0492 0.0322 'International Tables Vol C Tables 4.2.6.8 and 6.1.1.4'
S S 0.3331 0.5567 'International Tables Vol C Tables 4.2.6.8 and 6.1.1.4'
loop_
_exptl_crystal_face_index_h
_exptl_crystal_face_index_k
_exptl_crystal_face_index_l
_exptl_crystal_face_perp_dist
0 7 0 0.0083
0 -7 0 0.0285
5 1 -1 0.1981
0 -3 8 0.0184
-5 -1 1 0.2010
0 3 -8 0.0092
loop_
_geom_angle_atom_site_label_1
_geom_angle_atom_site_label_2
_geom_angle_atom_site_label_3
_geom_angle
_geom_angle_site_symmetry_1
_geom_angle_site_symmetry_3
_geom_angle_publ_flag
N1 S1 Cl1 108.85(12) . . ?
N1 S1 C14 105.86(17) . . ?
C14 S1 Cl1 97.49(11) . . ?
C5 O1 C8 118.2(3) . . ?
C1 N2 C9 120.7(3) . . ?
C1 N1 S1 121.8(3) . . ?
N2 C9 C14 124.0(3) . . ?
N2 C9 C10 117.9(3) . . ?
C14 C9 C10 118.1(3) . . ?
C9 C14 S1 118.8(3) . . ?
C9 C14 C13 122.7(3) . . ?
C13 C14 S1 118.5(3) . . ?
C2 C3 H3 119.4 . . ?
C4 C3 H3 119.4 . . ?
C4 C3 C2 121.2(3) . . ?
C2 C7 H7 119.2 . . ?
C2 C7 C6 121.6(3) . . ?
C6 C7 H7 119.2 . . ?
C10 C11 C12 119.6(3) . . ?
C10 C11 C16 121.5(3) . . ?
C12 C11 C16 118.9(3) . . ?
C9 C10 C15 117.7(3) . . ?
C11 C10 C9 119.9(3) . . ?
C11 C10 C15 122.4(3) . . ?
N2 C1 N1 127.3(3) . . ?
N2 C1 C2 117.8(3) . . ?
N1 C1 C2 114.9(3) . . ?
C3 C2 C1 120.3(3) . . ?
C7 C2 C3 118.2(3) . . ?
C7 C2 C1 121.5(3) . . ?
C11 C12 Cl4 120.0(3) . . ?
C13 C12 Cl4 117.9(3) . . ?
C13 C12 C11 122.1(3) . . ?
C7 C6 H6 120.3 . . ?
C7 C6 C5 119.4(3) . . ?
C5 C6 H6 120.3 . . ?
C14 C13 H13 121.2 . . ?
C12 C13 C14 117.6(3) . . ?
C12 C13 H13 121.2 . . ?
Cl2 C15 H15A 109.4 . . ?
Cl2 C15 H15B 109.4 . . ?
C10 C15 Cl2 111.4(2) . . ?
C10 C15 H15A 109.4 . . ?
C10 C15 H15B 109.4 . . ?
H15A C15 H15B 108.0 . . ?
Cl3 C16 H16A 109.5 . . ?
Cl3 C16 H16B 109.5 . . ?
C11 C16 Cl3 110.7(2) . . ?
C11 C16 H16A 109.5 . . ?
C11 C16 H16B 109.5 . . ?
H16A C16 H16B 108.1 . . ?
C3 C4 H4 120.0 . . ?
C3 C4 C5 120.0(3) . . ?
C5 C4 H4 120.0 . . ?
O1 C5 C6 124.8(3) . . ?
O1 C5 C4 115.6(3) . . ?
C6 C5 C4 119.6(3) . . ?
O1 C8 H8A 109.5 . . ?
O1 C8 H8B 109.5 . . ?
O1 C8 H8C 109.5 . . ?
H8A C8 H8B 109.5 . . ?
H8A C8 H8C 109.5 . . ?
H8B C8 H8C 109.5 . . ?
loop_
_geom_bond_atom_site_label_1
_geom_bond_atom_site_label_2
_geom_bond_distance
_geom_bond_site_symmetry_2
_geom_bond_publ_flag
S1 Cl1 2.2789(12) . ?
S1 N1 1.570(3) . ?
S1 C14 1.726(3) . ?
Cl4 C12 1.736(4) . ?
Cl3 C16 1.808(3) . ?
Cl2 C15 1.806(4) . ?
O1 C5 1.357(4) . ?
O1 C8 1.431(4) . ?
N2 C9 1.373(4) . ?
N2 C1 1.314(4) . ?
N1 C1 1.374(5) . ?
C9 C14 1.398(5) . ?
C9 C10 1.429(5) . ?
C14 C13 1.402(5) . ?
C3 H3 0.9300 . ?
C3 C2 1.405(5) . ?
C3 C4 1.374(5) . ?
C7 H7 0.9300 . ?
C7 C2 1.387(5) . ?
C7 C6 1.389(5) . ?
C11 C10 1.387(5) . ?
C11 C12 1.412(5) . ?
C11 C16 1.499(5) . ?
C10 C15 1.499(5) . ?
C1 C2 1.481(5) . ?
C12 C13 1.380(5) . ?
C6 H6 0.9300 . ?
C6 C5 1.398(5) . ?
C13 H13 0.9300 . ?
C15 H15A 0.9700 . ?
C15 H15B 0.9700 . ?
C16 H16A 0.9700 . ?
C16 H16B 0.9700 . ?
C4 H4 0.9300 . ?
C4 C5 1.401(5) . ?
C8 H8A 0.9600 . ?
C8 H8B 0.9600 . ?
C8 H8C 0.9600 . ?
loop_
_refln_index_h
_refln_index_k
_refln_index_l
_refln_F_squared_meas
_refln_F_squared_sigma
0 0 1 101.02 3.25
0 0 2 68.36 3.68
0 0 3 29.92 2.98
0 0 4 2031.97 28.17
0 0 5 11.18 2.5
0 0 6 94.73 7.56
0 0 7 339.43 15.61
0 0 8 131.78 10.66
0 0 8 140.45 7.75
0 0 8 122.63 10.83
0 0 9 18.51 4.37
0 0 9 16.4 2.93
0 0 -9 17.13 2.58
0 0 9 14.09 4.17
0 0 10 0.7 0.81
0 0 -10 1.14 1.05
0 0 -11 75.56 5.23
0 0 11 73.89 5.5
0 0 -12 14.71 2.01
0 0 12 12 2.05
0 0 13 2.59 0.76
0 1 -13 4.29 1.02
0 -1 13 5.24 1.21
0 -1 12 145.93 7.25
0 1 -12 146.23 6.96
0 1 -11 5.46 1.54
0 -1 11 5.73 1.7
0 -1 10 142.7 8.14
0 1 -10 144.06 7.76
0 -1 9 289.75 11.27
0 1 -9 307.05 10.96
0 -1 9 256.94 15.26
0 -1 9 232.7 15.43
0 -1 8 342.43 16.23
0 -1 7 30.27 4.5
0 -1 6 82.97 6.7
0 -1 5 14.66 2.62
0 -1 4 2495.86 29.42
0 -1 3 185.47 6.75
0 -1 2 418.77 8.68
0 -1 1 6.16 0.78
0 -1 0 310.75 5.38
0 1 1 312.77 6.9
0 1 2 270.8 8.02
0 1 3 2061.35 26.34
0 1 4 347.94 12.5
0 1 5 26.13 3.97
0 1 6 11.9 3.06
0 1 7 54.58 7.13
0 1 7 59.41 7.11
0 -1 -8 1.55 0.98
0 1 8 1.45 1.46
0 1 8 1.56 1.2
0 1 8 1.09 1.19
0 1 9 237.47 16.7
0 -1 -9 236.49 9.65
0 1 9 245.41 10.74
0 -1 -10 7.41 1.65
0 1 10 6.5 1.92
0 -1 -11 87.34 5.11
0 1 11 87.87 5.78
0 1 12 -0.25 0.51
0 -2 14 1.24 0.54
0 -2 13 8.66 1.72
0 2 -13 10.19 1.75
0 2 -12 11.68 2.08
0 -2 12 12.3 2.29
0 -2 11 75.91 5.93
0 2 -11 81.11 5.96
0 -2 10 8.06 2.91
0 2 -10 7.14 1.79
0 -2 10 7.33 1.81
0 -2 10 8.75 3.28
0 2 -9 659.22 16
0 -2 9 646.02 16.61
0 -2 9 651.31 23.47
0 -2 8 18.58 3.76
0 -2 7 300.34 13.72
0 -2 6 0.74 0.8
0 -2 5 2.02 1.04
0 -2 4 48.83 3.96
0 -2 4 46.05 4.26
0 -2 3 2596.74 26.19
0 -2 2 290.86 7.34
0 -2 1 19.64 1.76
0 2 0 4.2 0.59
0 -2 0 4.33 0.95
0 2 1 740.22 10.48
0 2 2 80.08 5.14
0 2 3 199.91 9.4
0 2 4 142.68 8.91
0 2 5 29.52 4.67
0 2 5 34.63 4.88
0 2 6 10.66 3.07
0 2 6 7.53 2.53
0 2 7 49.75 7.03
0 2 7 34.62 4.26
0 -2 -8 53.48 4.57
0 2 8 48.86 5.06
0 -2 -9 15.68 2.39
0 2 9 15.47 2.71
0 -2 -10 37.75 3.46
0 2 10 41.36 4.15
0 2 11 0.38 0.47
0 2 12 70.97 3.67
0 -3 14 1.12 0.48
0 -3 13 21.12 2.59
0 3 -13 22.79 2.81
0 3 -12 38.83 4.13
0 -3 12 33.49 3.76
0 -3 11 10.34 2.19
0 3 -11 11.77 2.43
0 3 -10 0.68 0.8
0 -3 10 -0.77 0.92
0 -3 10 -0.18 0.53
0 -3 10 0.42 1.26
0 3 -9 181.69 8.5
0 -3 9 163.35 11.54
0 -3 9 180.96 8.78
0 -3 8 136.75 10.04
0 -3 7 684.02 20.69
0 -3 6 710.52 19.1
0 -3 5 76.88 5.67
0 -3 5 71.78 6.04
0 -3 4 236.87 9.45
0 -3 3 188.35 7.44
0 -3 2 4.47 1.12
0 -3 1 357.05 9.2
0 -3 0 957.64 16.39
0 3 0 949.29 9.71
0 3 1 157.43 5.42
0 -3 -1 154.3 7.66
0 3 2 52.23 4.1
0 3 3 0.22 0.6
0 3 4 793.48 21.15
0 3 5 28.65 4.68
0 3 6 282.28 15.88
0 -3 -7 3.61 1.32
0 3 7 5.37 1.92
0 3 8 217.36 10.34
0 -3 -8 202.81 8.8
0 -3 -9 83.77 5.31
0 3 9 82.09 6.26
0 3 10 0.69 0.73
0 3 11 0.05 0.44
0 -4 14 1.91 0.7
0 -4 13 6.76 1.57
0 4 -13 8.2 1.8
0 4 -12 2.89 1.56
0 -4 12 5.95 1.68
0 -4 11 10.86 2.23
0 4 -11 13.86 2.72
0 -4 10 0.78 1.18
0 -4 10 -0.08 0.74
0 4 -10 0.35 0.92
0 -4 10 1.84 1.06
0 4 -9 0.85 0.68
0 -4 9 -0.43 1.2
0 -4 9 0.67 0.65
0 -4 8 8.54 2.57
0 -4 7 150.84 9.64
0 -4 6 746.63 19.88
0 -4 6 731.36 21.45
0 -4 5 581.35 17
0 -4 4 238.74 9.96
0 -4 3 613.99 14.34
0 -4 2 15.94 2.33
0 -4 1 74.2 5.08
0 -4 0 340.2 11.4
0 4 0 283.48 5.15
0 -4 -1 189.48 9.7
0 4 1 204.25 6.7
0 -4 -2 129.29 9
0 4 2 132.75 6.86
0 4 3 14.79 2.76
0 -4 -3 16.91 3.8
0 -4 -4 16.85 4.26
0 4 4 17.75 3.46
0 -4 -5 134.23 13.05
0 -4 -6 4.17 1.25
0 4 6 7 2.22
0 -4 -6 2.52 2.42
0 -4 -6 9.86 1.89
0 -4 -7 151.62 7.54
0 4 7 152.85 9.46
0 4 8 155 8.71
0 -4 -8 167.66 7.56
0 4 9 36.94 3.82
0 4 10 2.56 1.03
0 4 11 -0.16 0.41
0 -5 14 0.43 0.35
0 5 -13 7.68 1.92
0 -5 13 6.6 1.53
0 5 -12 8.18 2.25
0 -5 12 9.19 1.96
0 -5 11 59.39 3.83
0 -5 11 46.81 4.54
0 5 -11 45.4 5.02
0 -5 10 56.56 3.68
0 5 -10 65 5.92
0 -5 10 63.79 5.4
0 5 -9 57.11 5.33
0 -5 9 64.54 7.34
0 -5 9 65.66 3.79
0 -5 9 59.66 5.02
0 -5 8 71.86 7.26
0 -5 7 102.84 9.05
0 -5 7 105 8.24
0 -5 6 249.03 12.59
0 -5 5 80.4 6.6
0 -5 4 7.7 1.87
0 -5 3 0.63 0.55
0 -5 2 1172.51 22.41
0 -5 1 1.24 1.15
0 -5 0 83.58 6.63
0 -5 -1 107.48 8.14
0 -5 -2 398.34 17.1
0 -5 -3 314.66 16.96
0 -5 -4 18.47 4.62
0 -5 -5 20.54 3.1
0 -5 -5 11.11 4.2
0 -5 -5 12.03 2.26
0 5 6 170.1 9.93
0 -5 -6 177.92 16.56
0 -5 -6 145.72 7.24
0 -5 -6 132.22 7.31
0 5 7 -0.33 0.79
0 -5 -7 0.36 0.6
0 5 8 1.27 0.95
0 5 9 44.9 3.77
0 5 10 -0.37 0.53
0 -6 14 8.47 1.33
0 -6 13 16.07 2.24
0 -6 12 10.44 1.81
0 -6 12 7.45 1.73
0 6 -12 7.61 2.23
0 -6 11 21.17 3.11
0 -6 11 29.84 2.86
0 6 -11 19.17 3.46
0 6 -10 93.8 7.11
0 -6 10 96.33 6.56
0 -6 10 105.5 5.33
0 -6 9 0.77 1.15
0 6 -9 -0.94 1.25
0 -6 9 0.18 0.72
0 -6 9 1.18 0.98
0 -6 8 1.53 1.22
0 -6 7 105.67 9.45
0 -6 6 708.47 21.92
0 -6 5 16.79 3.12
0 -6 4 44.29 4.78
0 -6 3 24.34 3.52
0 -6 2 12.32 2.56
0 -6 1 594.13 18.6
0 -6 0 56.67 6.26
0 -6 -1 0.21 0.66
0 -6 -2 426.72 19.37
0 -6 -3 2.44 1.86
0 -6 -4 90.5 6.14
0 -6 -4 84.85 5.34
0 -6 -4 94.86 11.22
0 -6 -5 164.83 8.23
0 -6 -5 167.51 15.59
0 -6 -5 178.92 7.89
0 -6 -6 3.41 1.4
0 -6 -6 1.26 0.91
0 6 6 1.82 1.59
0 6 7 4.48 1.56
0 6 8 4.03 1.36
0 6 9 93.91 4.57
0 -7 14 64.13 3.62
0 -7 13 0.15 0.8
0 -7 13 1.6 0.72
0 -7 12 0.71 0.62
0 -7 12 0.86 0.68
0 7 -11 9.26 2.44
0 -7 11 12.1 2.28
0 -7 11 14.45 2.06
0 -7 10 236.72 10.39
0 7 -10 247.09 12
0 -7 10 246.41 8.54
0 -7 9 42.04 4.3
0 7 -9 39.31 4.84
0 -7 9 46 3.75
0 -7 9 45.04 6.18
0 -7 8 46.85 4.5
0 -7 8 44.67 3.56
0 -7 8 41.77 6.66
0 -7 8 46.79 6.12
0 7 -8 45.11 5.18
0 -7 7 1.27 1.15
0 -7 6 71.79 7.42
0 -7 5 42.82 5.49
0 -7 4 9.83 2.48
0 -7 3 10.69 2.53
0 -7 2 518.44 18.97
0 -7 1 665.25 22.2
0 -7 0 65.66 7.28
0 -7 -1 71.99 8.3
0 -7 -2 151.39 7.43
0 -7 -2 159.06 13.28
0 -7 -3 145.92 7.68
0 -7 -3 170.75 14.63
0 -7 -4 102.48 6.04
0 -7 -4 118.12 7.07
0 -7 -4 123.06 13.15
0 -7 -5 138.36 7.53
0 -7 -5 134.28 6.95
0 7 6 83.13 6.81
0 7 7 0.44 0.81
0 7 8 10.03 1.6
0 -8 14 50.28 3.04
0 -8 14 23.6 2.11
0 -8 13 8.53 1.55
0 -8 13 8.47 1.4
0 -8 12 16.93 2.16
0 -8 12 12.74 2.14
0 -8 11 23.71 2.74
0 -8 11 23.91 3.08
0 -8 10 26.03 2.99
0 -8 10 31.69 3.78
0 -8 9 191.63 9.3
0 -8 9 170.3 7.35
0 -8 8 36.62 5.63
0 -8 8 23.25 3.3
0 -8 8 30.41 3.25
0 -8 8 44.36 6.89
0 -8 7 64.69 7.88
0 -8 7 71.83 5.58
0 -8 7 61.23 4.22
0 -8 6 3.88 1.99
0 -8 5 143.83 10.9
0 -8 4 0.06 0.91
0 -8 3 64.56 6.99
0 -8 2 32.08 5.24
0 -8 1 233.03 14.75
0 8 0 15.55 2.68
0 -8 0 9.42 2.18
0 -8 -1 239.94 9.6
0 -8 -1 207.86 9.33
0 -8 -1 253.3 16.85
0 -8 -2 1241.75 39.52
0 -8 -2 1294.45 23.35
0 -8 -2 1253.08 22.84
0 -8 -3 71.01 5.1
0 -8 -3 68.41 5.43
0 -8 -4 9.54 2.32
0 -8 -4 22.53 3.77
0 8 5 0.62 0.94
0 -8 -5 -0.49 1.11
0 8 6 157.22 8.17
0 8 7 3.35 1.11
0 -9 14 6.98 1.18
0 -9 13 46.07 3.14
0 -9 12 49.84 4.13
0 -9 12 42.56 3.8
0 -9 11 81.88 5.8
0 -9 11 72.24 5.57
0 -9 11 92.93 5.63
0 -9 10 17.71 2.62
0 -9 10 14.22 2.58
0 -9 10 11.89 2.37
0 -9 9 23.93 3.07
0 -9 9 32.71 3.86
0 -9 9 31.49 4.07
0 -9 8 150.34 9.08
0 -9 8 143.6 7.09
0 -9 8 171.53 13.92
0 -9 7 104.01 10.36
0 -9 7 92.19 6.05
0 -9 6 141.41 8.21
0 -9 6 126.08 11.31
0 -9 5 249.3 10.62
0 -9 5 198.47 13.81
0 -9 4 55.17 7.12
0 -9 4 22.46 3.32
0 -9 3 71.47 8.11
0 -9 3 45.51 4.53
0 -9 2 194.89 13.74
0 -9 2 255.82 10.85
0 -9 1 3.5 1.91
0 9 -1 1.07 0.68
0 -9 1 0.92 0.92
0 -9 0 57.4 8.26
0 -9 0 43.23 4.22
0 -9 -1 11.78 2.4
0 -9 -1 11.24 2.37
0 -9 -2 46.52 4.39
0 -9 -2 39.72 4.17
0 -9 -3 64.98 4.72
0 -9 -3 72.92 5.46
0 -9 -4 1.5 1.14
0 9 5 24.26 3.36
0 9 6 33 3.13
0 -10 14 1.79 0.62
0 -10 13 2.74 1.01
0 -10 13 1.85 0.66
0 -10 12 4.25 1.19
0 -10 11 17.77 2.39
0 -10 11 8.25 1.86
0 -10 10 67.71 5.61
0 -10 10 94.47 5.77
0 -10 9 4.98 1.69
0 -10 9 12.8 2.61
0 -10 8 37.62 4.65
0 -10 8 32.82 3.44
0 -10 7 387.3 20.84
0 -10 7 399.98 14.55
0 -10 6 294.27 12.25
0 -10 6 327.14 19.19
0 -10 5 51.6 7.45
0 -10 5 15.51 2.88
0 -10 4 117.07 11.18
0 -10 4 76.31 6.22
0 -10 3 0.58 0.73
0 -10 3 0.66 1.02
0 -10 2 172.4 13.62
0 -10 2 155.18 8.72
0 -10 1 15.38 2.59
0 -10 1 17.75 2.9
0 -10 0 53.64 5.01
0 -10 0 49.97 4.58
0 -10 -1 -0.35 0.67
0 -10 -1 0.63 0.83
0 -10 -2 1.96 1.14
0 -10 -2 5.57 1.48
0 -10 -2 4.39 1.45
0 -10 -3 77.43 5.23
0 10 4 0.5 0.62
0 10 5 0.45 0.43
0 -11 13 -0.21 0.55
0 -11 13 4.24 0.96
0 -11 12 -0.11 0.56
0 -11 12 -0.18 0.54
0 -11 11 -0.28 0.68
0 -11 10 10.86 2.25
0 -11 9 0.13 0.95
0 -11 8 11.98 2.67
0 -11 7 85.54 6.79
0 -11 7 75.25 5.82
0 -11 6 8.98 2.25
0 -11 5 6.49 2.07
0 -11 4 127.13 8
0 -11 3 29.97 3.43
0 -11 3 34.27 4.19
0 -11 2 68.21 5.64
0 -11 2 76.42 5.44
0 -11 1 90.64 6.06
0 -11 1 77.15 5.75
0 -11 0 1.76 1.06
0 -11 0 0.96 0.84
0 -11 -1 22.63 2.7
0 -11 -1 21.83 2.98
0 -11 -2 2.57 0.99
0 11 3 -0.21 0.61
0 11 4 6.25 1.22
0 -12 13 12.91 1.42
0 -12 12 1.23 0.73
0 -12 12 0.72 0.58
0 -12 11 6.89 1.5
0 -12 11 7.01 1.55
0 -12 10 1.02 0.84
0 -12 10 3.18 1.38
0 -12 9 4.9 1.63
0 -12 9 4.88 1.43
0 -12 8 21.56 2.85
0 -12 8 23.46 3.34
0 -12 7 -0.35 1.37
0 -12 6 2.06 1.38
0 -12 5 29.28 3.02
0 -12 5 28.44 3.77
0 -12 4 0.13 0.64
0 -12 4 0.16 0.77
0 -12 3 -0.03 0.76
0 -12 3 0.44 0.84
0 -12 2 7.78 1.75
0 -12 2 12.02 2.07
0 -12 1 27.9 3.14
0 -12 1 29.43 3.05
0 -12 0 6.04 1.44
0 -12 0 5.61 1.3
0 -12 -1 4.08 1.14
0 12 2 3.58 1.25
0 -13 11 3.78 1.02
0 -13 11 4.35 0.96
0 -13 10 1.2 0.51
0 -13 10 0.58 0.63
0 -13 9 4.23 1.38
0 -13 8 11.88 2.23
0 -13 7 22.37 3.06
0 -13 6 4.4 1.58
0 -13 5 96.23 6.14
0 -13 5 110.08 5.09
0 -13 4 1.32 0.79
0 -13 4 -0.19 0.76
0 -13 3 39.37 3.2
0 -13 3 27.96 3.07
0 -13 2 63.11 3.9
0 -13 2 55.46 3.89
0 -13 1 18.45 1.95
0 -13 1 26.97 2.41
0 -13 0 16.62 1.71
0 13 1 3.9 0.98
0 -14 10 4.2 0.92
0 -14 9 44.12 3.23
0 -14 8 0.99 0.77
0 -14 7 21.31 2.49
0 -14 6 46.4 3.6
0 -14 5 22.11 2.46
0 -14 4 15.51 1.93
0 -14 4 11.25 1.29
0 -14 3 5.62 1.04
0 -14 3 5.46 0.91
0 -14 2 26.07 1.82
1 -15 6 3.56 0.79
1 -15 7 48.12 2.64
1 -14 2 0.32 0.51
1 -14 3 11.91 1.57
1 -14 4 2.25 0.78
1 -14 5 44.79 3.65
1 -14 6 0.55 0.58
1 -14 7 38.04 3.28
1 -14 8 1.92 0.8
1 -14 9 1.28 0.63
1 -14 10 0.27 0.46
1 -13 0 -0.58 0.48
1 -13 0 0.3 0.48
1 -13 1 121.47 5.05
1 -13 1 102.37 5.04
1 -13 2 0.14 0.65
1 -13 2 1.44 0.85
1 -13 3 51.07 3.5
1 -13 3 39.68 3.71
1 -13 4 32.24 3.46
1 -13 5 61.4 4.96
1 -13 6 12.23 2.36
1 -13 7 0.36 0.83
1 -13 8 27.95 3.35
1 -13 9 59.13 4.42
1 -13 9 52.16 3.65
1 -13 10 1.77 0.78
1 -13 10 2.24 0.82
1 -13 11 0 0.38
1 -13 11 -0.17 0.37
1 -13 12 9.09 1.14
1 -12 -2 3.18 0.74
-1 12 2 0.37 0.56
1 -12 -1 3.91 1.14
1 -12 -1 3.46 1.06
1 -12 0 8.86 1.72
1 -12 0 11.49 1.83
1 -12 1 39.65 3.53
1 -12 1 43.09 4.02
1 -12 2 32.13 3.63
1 -12 2 38.33 3.61
1 -12 3 2.15 0.83
1 -12 3 0.91 0.68
1 -12 4 186.45 7.62
1 -12 4 184.39 9.27
1 -12 5 31.79 4.02
1 -12 6 2.6 1.28
1 -12 7 1.65 1.17
1 -12 8 38.94 3.91
1 -12 8 44.2 4.56
1 -12 9 -0.18 0.64
1 -12 9 0.3 0.58
1 -12 10 49.38 4.19
1 -12 10 47.44 4.22
1 -12 11 3.78 1.09
1 -12 11 4.1 1.05
1 -12 12 44.68 3.14
1 -12 13 25.86 1.94
-1 11 4 1.38 0.57
1 -11 -3 14.91 1.8
-1 11 3 9.16 1.85
1 -11 -2 86.83 5.07
1 -11 -2 85.98 5.12
1 -11 -1 19.27 2.67
1 -11 -1 14.3 2.38
1 -11 0 232.03 10.01
1 -11 0 257.85 9.62
1 -11 1 0.15 1
1 -11 1 5.75 2.06
1 -11 2 89.35 6.47
1 -11 2 92.35 5.94
1 -11 3 -0.1 0.88
1 -11 3 0.16 0.69
1 -11 4 106.21 6.11
1 -11 4 73.65 6.32
1 -11 5 49.46 5.17
1 -11 6 71.65 6.26
1 -11 7 35.06 4.31
1 -11 7 27.72 3.72
1 -11 8 63.4 5.78
1 -11 8 65.41 5.78
1 -11 9 5.48 1.76
1 -11 9 3.51 1.41
1 -11 10 7.77 1.82
1 -11 10 6.54 1.73
1 -11 11 4.96 1.5
1 -11 11 4.01 1.18
1 -11 12 2.86 0.98
1 -11 13 69.2 3.77
-1 10 5 11.83 1.72
1 -10 -4 58.39 3.75
-1 10 4 49.66 4.44
1 -10 -3 1.46 1.06
1 -10 -3 -0.42 0.82
1 -10 -3 1.05 0.96
1 -10 -2 172.3 8.36
1 -10 -2 182.72 8.29
1 -10 -1 14.64 2.45
1 -10 -1 17.64 2.93
1 -10 0 27.94 3.63
1 -10 0 26.53 3.33
1 -10 1 352.32 13.01
1 -10 1 324.23 11.3
1 -10 2 12.36 2.62
1 -10 2 9.21 3.05
1 -10 2 9.23 1.98
1 -10 3 68.07 8.24
1 -10 3 78.64 6.44
1 -10 3 72.06 5.18
1 -10 4 30.13 5.53
1 -10 4 42.87 4.7
1 -10 5 412.04 14.41
1 -10 5 359.95 19.61
1 -10 6 18.39 3.06
1 -10 6 26.15 3.74
1 -10 7 0.17 0.96
1 -10 7 15.71 4.06
1 -10 8 1.49 1.22
1 -10 9 276.15 11.47
1 -10 10 67.76 5.39
1 -10 11 0.79 0.81
1 -10 12 0.87 0.72
1 -10 13 14.47 1.93
1 -10 14 0.68 0.44
-1 9 6 24.61 2.44
-1 9 5 29.43 3.47
1 -9 -5 32.16 2.95
1 -9 -4 -0.43 0.91
1 -9 -4 0.68 0.65
1 -9 -3 186.5 8.57
1 -9 -3 166.14 7.97
1 -9 -3 166.55 8.46
1 -9 -2 62.9 5.17
1 -9 -2 66.02 5.56
1 -9 -1 14.66 2.91
1 -9 -1 19.8 2.9
1 -9 0 97.06 10.34
1 -9 0 84.35 6.38
1 -9 0 87.79 5.83
1 -9 1 124.74 11.29
1 -9 1 121.09 6.61
1 -9 1 127.33 7.84
1 -9 2 1.03 1.15
1 -9 2 1.05 0.84
1 -9 2 0.75 0.91
1 -9 3 0.21 0.85
1 -9 3 2.46 1.29
1 -9 4 10.92 3.11
1 -9 4 9.77 2.22
1 -9 5 90.78 6.56
1 -9 5 73.55 8.22
1 -9 6 159.06 12.29
1 -9 6 198.94 9.76
1 -9 7 19.81 3.07
1 -9 7 15.55 2.87
1 -9 8 1.69 1.49
1 -9 8 1.2 0.85
1 -9 8 -0.71 0.95
1 -9 8 -0.15 0.61
1 -9 9 7.44 1.81
1 -9 9 11.13 2.59
1 -9 9 10.03 2.1
1 -9 10 8.86 1.98
1 -9 10 7.62 1.9
1 -9 10 5.83 1.71
1 -9 11 3.48 1.28
1 -9 11 3.57 1.23
1 -9 12 56 4.21
1 -9 13 22.06 2.54
1 -9 13 29.57 2.73
1 -9 14 2.4 0.67
1 -8 -7 18.86 1.8
-1 8 7 16.77 2.01
1 -8 -6 27.27 2.79
-1 8 6 23.46 3.28
1 -8 -5 11.5 1.89
-1 8 5 8.96 2.26
1 -8 -4 0.36 0.89
1 -8 -4 0.5 1.11
1 -8 -4 0.54 0.77
1 -8 -3 25.8 3.39
1 -8 -3 35.75 4.16
1 -8 -2 156.25 8.68
1 -8 -2 162.41 7.99
1 -8 -2 177.48 14.32
1 -8 -1 -0.05 0.7
1 -8 -1 0.16 0.73
1 -8 -1 0.9 0.63
1 -8 0 72.17 4.83
1 -8 0 64.02 7.86
1 -8 1 114.7 10.16
1 -8 2 72.04 7.49
1 -8 3 120.35 9.32
1 -8 4 15.02 3.28
1 -8 5 5.17 2.07
1 -8 6 449.74 19.47
1 -8 7 454.08 14.59
1 -8 7 418.26 11.92
1 -8 7 416.4 19.7
1 -8 7 418.45 12.81
1 -8 8 24.28 3.54
1 -8 8 28.3 3.42
1 -8 9 105.27 6.72
1 -8 9 94.65 6.8
1 -8 9 109.48 6.46
1 -8 10 43.51 4.32
1 -8 10 36.3 4.15
1 -8 11 0.16 0.55
1 -8 11 1.52 0.97
1 -8 12 10.07 1.81
1 -8 13 1.84 0.58
1 -8 13 0.62 0.53
1 -8 14 1.29 0.47
1 -8 14 4.57 0.9
-1 7 8 2.47 0.81
1 -7 -8 2.77 0.71
1 -7 -7 4 1.01
-1 7 7 6.05 1.64
-1 7 6 99.28 7.17
1 -7 -6 90.41 5.69
1 -7 -5 37.84 4.25
1 -7 -5 37.15 3.7
-1 7 5 36.11 5.64
1 -7 -4 0.99 1.07
1 -7 -4 0.84 0.73
1 -7 -4 0.62 1.03
1 -7 -4 0.46 0.75
1 -7 -3 577.79 15.08
1 -7 -3 584.77 25.98
1 -7 -2 127.91 11.69
1 -7 -2 128.47 6.76
1 -7 -2 123.81 7.28
1 -7 -1 92.14 9.22
1 -7 0 0.11 0.65
1 -7 1 67.47 6.91
1 -7 2 554.99 19.11
1 -7 3 439.55 16.1
1 -7 4 97.44 7.75
1 -7 5 24.84 4.09
1 -7 6 8.26 2.45
1 -7 7 30.35 5.12
1 -7 8 91.64 9.57
1 -7 8 118.37 6.84
1 -7 8 99.81 5.63
1 -7 9 189.45 7.79
1 -7 9 174.78 8.59
1 -7 10 104.44 6.74
1 -7 10 110.34 6.21
1 -7 11 1.1 0.99
1 -7 11 0.52 0.72
1 -7 12 25.12 3.1
1 -7 13 1.13 0.51
1 -7 13 1.17 0.6
1 -7 14 38.9 2.76
1 -6 -9 32.96 2.26
-1 6 9 34.62 2.69
-1 6 8 2.49 1.11
1 -6 -8 3.58 1.16
-1 6 7 179.51 9.08
1 -6 -7 165.31 7.54
-1 6 6 0.12 1.15
1 -6 -6 1.76 1.2
1 -6 -5 0.61 0.68
1 -6 -5 0.75 0.73
1 -6 -5 -1.58 1.79
1 -6 -4 19.82 3.05
1 -6 -4 36.85 6.71
1 -6 -4 23.08 2.98
1 -6 -4 32.56 3.64
1 -6 -3 0.58 0.79
1 -6 -2 79.58 8.18
1 -6 -1 58.72 6.49
1 -6 0 13.15 2.96
1 -6 1 71.58 6.23
1 -6 2 94.33 7.03
1 -6 3 13.19 2.58
1 -6 4 0.52 0.75
1 -6 5 147.91 9.52
1 -6 6 692.17 22.1
1 -6 7 0.39 0.94
1 -6 7 -0.05 1.19
1 -6 7 0.27 0.82
1 -6 8 77.77 7.7
-1 6 -9 13.27 2.87
1 -6 9 2.6 1.42
1 -6 9 13.66 2.43
1 -6 9 6.44 1.51
1 -6 10 79.41 5.92
1 -6 10 88.82 5.03
-1 6 -10 79.58 6.74
1 -6 11 16.74 2.64
-1 6 -11 15.9 2.94
1 -6 11 19.11 2.44
1 -6 12 9.43 1.95
1 -6 13 4.84 1.23
1 -6 14 10.2 1.5
-1 5 10 5.92 1.05
-1 5 9 -0.22 0.66
1 -5 -9 -0.26 0.66
1 -5 -8 90.52 5.53
-1 5 8 99.34 6.45
1 -5 -7 49.03 4.36
-1 5 7 49.67 5.33
1 -5 -6 339.82 22.28
-1 5 6 346.9 14.33
1 -5 -6 287.45 10.59
1 -5 -5 2.11 1.14
1 -5 -5 -0.37 1.52
1 -5 -5 1.17 0.86
1 -5 -5 3.22 1.6
1 -5 -5 -0.82 1.39
1 -5 -4 105.57 10.79
1 -5 -3 0.96 1.36
1 -5 -2 117.77 9.12
1 -5 -1 24.3 3.85
1 -5 0 1033.38 22.3
1 -5 1 18.33 2.88
1 -5 2 260.17 10.24
1 -5 3 115.44 6.66
1 -5 4 28.78 3.65
1 -5 4 25.88 2.56
1 -5 5 73.23 5.6
1 -5 5 76.95 6.57
1 -5 6 3.07 1.54
1 -5 6 1.89 1.24
1 -5 6 2.02 0.88
1 -5 7 378.95 16.3
1 -5 7 460.23 15.55
1 -5 8 6.86 2.46
1 -5 9 22.18 4.85
1 -5 9 33.14 2.88
-1 5 -9 34.97 4.26
1 -5 9 30.78 3.72
1 -5 10 7.88 2
1 -5 10 4.03 2.39
-1 5 -10 7.87 2.24
1 -5 10 7.09 1.54
1 -5 11 149.52 8.03
-1 5 -11 167.22 9.23
1 -5 12 36.96 3.75
-1 5 -12 42.07 4.4
1 -5 13 0.89 0.7
1 -5 14 1.08 0.55
-1 4 11 11.38 1.26
1 -4 -10 97.65 4.67
-1 4 10 111.68 5.51
-1 4 9 3.92 1.29
1 -4 -9 4.56 1.11
1 -4 -8 11.82 2.44
-1 4 8 8.39 1.97
1 -4 -7 18.79 2.77
-1 4 7 20.08 3.45
1 -4 -7 15.97 4.98
-1 4 6 17.43 3.27
1 -4 -6 19.75 5.45
1 -4 -6 15.02 2.46
1 -4 -5 53.95 8.23
1 -4 -4 230.4 15.03
1 -4 -3 92.11 8.42
-1 4 3 84.77 6.12
1 -4 -2 21.78 3.63
1 -4 -1 288.29 11.38
-1 4 1 241.63 6.26
1 -4 0 2.15 0.86
1 -4 1 251.42 8.88
1 -4 2 398.92 10.63
1 -4 2 317.49 5.21
1 -4 3 3158.94 32.62
1 -4 3 3157.45 23.44
1 -4 4 22.38 2.78
1 -4 4 22.36 3.1
1 -4 5 122.9 8.13
1 -4 5 109.84 7.96
1 -4 5 122.62 6.63
1 -4 6 13 2.39
1 -4 6 13.33 3.18
1 -4 7 432.17 17.53
1 -4 7 462.69 15.5
1 -4 8 65.78 7.85
1 -4 9 0.98 0.85
1 -4 9 1.33 1.75
-1 4 -9 0.81 0.76
1 -4 10 27.22 5.41
-1 4 -10 24.67 3.5
1 -4 10 25.1 3.36
-1 4 -11 81.66 6.23
1 -4 11 72.51 5.62
1 -4 12 5.57 1.41
-1 4 -12 5.54 1.36
1 -4 13 6.7 1.48
1 -4 14 24.11 2.2
-1 3 11 18.63 2.08
1 -3 -11 16.42 1.8
1 -3 -10 6.84 1.61
-1 3 10 7.25 1.7
1 -3 -9 246.6 9.64
-1 3 9 253.43 10.59
1 -3 -8 103.62 6.54
-1 3 8 106.12 7.14
1 -3 -7 3.36 1.25
-1 3 7 3.72 1.52
-1 3 6 1.75 1.03
-1 3 5 324.8 16.44
-1 3 4 144.42 9.99
-1 3 3 0.93 1.13
-1 3 2 4.11 1.61
1 -3 -1 3031.88 32.41
1 -3 0 471.12 10.95
1 -3 1 1043.5 14.93
1 -3 1 910.88 8.61
1 -3 2 2.09 0.75
1 -3 2 1.64 0.55
1 -3 3 1206.99 16.31
1 -3 3 1143.2 18.83
1 -3 4 308.28 9.01
1 -3 4 320.58 11.27
1 -3 5 34.53 3.38
1 -3 6 563.51 15.46
1 -3 6 596.89 20.53
1 -3 7 207.66 12.49
1 -3 7 207.62 10.23
1 -3 8 32.02 4.34
1 -3 8 28.81 5.27
1 -3 9 8.68 2.21
-1 3 -9 12.35 2.28
1 -3 10 35.12 4.06
1 -3 10 47.06 7.05
-1 3 -10 36.15 4.08
-1 3 -11 0.67 0.88
1 -3 11 -0.49 0.68
1 -3 12 27.57 3.31
-1 3 -12 26.3 3.16
1 -3 13 6.19 1.46
1 -3 14 79.24 3.71
1 -2 -12 3.55 0.78
-1 2 12 4.28 0.94
-1 2 11 2.34 0.95
1 -2 -11 1.02 0.73
1 -2 -10 49.46 4.18
-1 2 10 54.18 4.7
1 -2 -9 41.93 4.17
-1 2 9 36.05 4.26
1 -2 -8 52.63 4.84
-1 2 8 44.85 4.89
-1 2 7 93.79 6.52
1 -2 -7 91.99 5.95
-1 2 7 80.4 8.96
-1 2 6 16.09 3.7
-1 2 5 183.95 11.56
-1 2 4 342.15 14.12
-1 2 3 109.3 7.14
-1 2 2 10.36 1.86
-1 2 1 42.83 3.4
1 -2 0 3793.33 24.32
1 -2 1 32.25 2.05
1 -2 1 31.92 1.86
1 -2 1 37.58 2.09
1 -2 2 267.55 7.13
1 -2 2 253.96 6.33
1 -2 3 523.5 9.45
1 -2 3 509.98 12.13
1 -2 4 278.95 9.67
1 -2 4 261.2 8.24
1 -2 5 1.43 0.91
1 -2 5 1.11 0.86
1 -2 6 89.39 8.37
1 -2 6 86.19 6.06
1 -2 7 124.98 10.4
1 -2 7 129.95 8.27
1 -2 8 48.15 6.79
1 -2 8 56.29 5.96
-1 2 -9 79.48 5.65
1 -2 9 88.48 9.52
1 -2 9 63.58 5.58
1 -2 10 111.39 11.32
1 -2 10 92.27 6.54
-1 2 -10 95.38 6.45
-1 2 -11 91.19 5.94
1 -2 11 81.89 6.01
1 -2 12 32.24 3.55
1 -2 13 8.39 1.72
1 -2 14 2.5 0.63
1 -1 -12 30.61 2.68
-1 1 12 32.13 2.81
1 -1 -11 10.41 1.9
-1 1 11 9.54 2.06
-1 1 10 12.68 2.39
1 -1 -10 13.22 2.24
1 -1 -9 6.21 1.81
-1 1 9 3.74 2.45
-1 1 9 5.52 1.74
-1 1 9 7.24 2.87
-1 1 8 42.98 6.65
-1 1 8 40.28 4.53
1 -1 -8 47.29 4.41
-1 1 7 2.34 1.65
-1 1 6 66.04 6.97
-1 1 5 44.97 5.29
-1 1 4 1608.48 28.36
-1 1 3 -0.25 0.67
1 -1 -2 720.4 12.14
-1 1 2 768.47 14.83
-1 1 1 246.6 6.72
1 -1 0 95.46 2.54
-1 1 0 103.54 2.85
1 -1 1 20.75 1.56
1 -1 1 19.39 1.33
1 -1 1 23.37 1.87
1 -1 2 223.11 4.59
1 -1 2 237.14 7.79
1 -1 2 229.94 6.66
1 -1 3 263.11 6.97
1 -1 3 249.9 8.15
1 -1 4 15.84 3.46
1 -1 4 14.7 2.15
1 -1 5 85.95 8.07
1 -1 5 85.3 5.69
1 -1 6 10.15 2.2
1 -1 6 8.09 2.82
1 -1 7 160.74 12.5
1 -1 7 168.5 10.15
1 -1 8 183.44 11.4
1 -1 8 175.52 13.02
1 -1 9 123.58 7.53
1 -1 9 192.3 14.52
1 -1 10 64.71 5.51
1 -1 11 138.18 7.45
1 -1 12 30.86 3.34
1 -1 13 0.61 0.54
-1 0 13 45.81 2.68
1 0 -13 40.83 2.77
1 0 -12 12.39 1.99
-1 0 12 10.64 1.9
1 0 -11 0.66 0.8
-1 0 11 0.85 0.6
-1 0 10 21.57 3.27
1 0 -10 23.35 3.29
1 0 -9 22.75 3.17
-1 0 9 15.6 2.84
1 0 -8 115.82 6.64
-1 0 8 113.38 6.92
-1 0 8 110.17 10.08
-1 0 7 -0.59 1.12
-1 0 6 175.14 10.81
-1 0 5 96.62 7.3
-1 0 4 9.18 2.03
-1 0 3 127.81 6.78
-1 0 2 1.5 0.75
-1 0 1 186.61 5.41
1 0 0 2.48 0.68
1 0 1 763.19 11.89
1 0 2 19.57 2.28
1 0 2 16.49 1.57
1 0 3 25.88 3.43
1 0 3 25.05 2.64
1 0 4 15.6 3.38
1 0 4 24.14 2.89
1 0 5 3.58 1.33
1 0 5 2.76 1.72
1 0 6 3.27 1.27
1 0 6 3.96 2.04
1 0 7 137.67 11.41
1 0 7 130.43 9.44
1 0 8 1.31 0.83
1 0 8 1.41 1.19
1 0 9 132.8 7.88
1 0 9 140.06 12.95
1 0 10 1.97 1.12
1 0 11 29.99 3.44
1 0 12 27.84 2.94
1 0 13 5.11 0.98
1 1 -13 18.98 2.29
-1 -1 13 19.87 2.1
-1 -1 12 0.19 0.49
1 1 -12 0.73 0.89
-1 -1 11 22.27 3.18
1 1 -11 19.48 2.92
1 1 -10 65.63 5.36
-1 -1 10 64.97 5.44
1 1 -9 4.63 1.42
-1 -1 9 5.15 1.63
-1 -1 9 7.44 2.77
-1 -1 8 129.59 10.5
-1 -1 7 79.33 7.62
-1 -1 6 26.13 4.06
-1 -1 5 81.13 6.51
-1 -1 4 342 11.65
-1 -1 3 307.94 9.68
-1 -1 2 291.28 7.28
-1 -1 1 570.4 7.57
1 1 0 15.15 1.83
-1 -1 0 19.51 1.47
1 1 1 254.6 7.63
1 1 2 72.8 4.69
1 1 3 47.77 4.85
1 1 4 1.51 0.94
1 1 4 1.75 0.96
1 1 5 352.76 13.85
1 1 5 347.37 16.51
1 1 6 278.12 15.48
1 1 7 131.51 11.78
1 1 8 164.7 13.63
1 1 8 151.2 8.34
1 1 9 1.47 0.84
1 1 10 41.34 4.38
1 1 11 20.01 2.74
1 1 12 11.16 1.7
1 2 -14 2.22 0.7
1 2 -13 -0.5 0.66
-1 -2 13 -0.36 0.53
-1 -2 12 17.4 2.63
1 2 -12 20.67 3.01
-1 -2 11 1.48 1.08
1 2 -11 0.9 1.13
1 2 -10 58.22 5.08
-1 -2 10 54.95 5.16
-1 -2 9 96.05 6.43
1 2 -9 91.12 6.18
-1 -2 8 268.11 14.77
-1 -2 7 194.16 11.84
-1 -2 6 12.1 2.64
-1 -2 5 261.05 11.22
-1 -2 4 0.65 0.58
-1 -2 4 0.58 0.66
-1 -2 3 1107.35 17.17
-1 -2 2 222.61 6.67
-1 -2 1 489.37 9.47
1 2 -1 490.55 9.51
-1 -2 0 101.8 4.72
1 2 0 93.39 4.74
-1 -2 -1 1165.56 18.75
1 2 1 1193.05 18.41
1 2 2 108.88 6.27
1 2 3 157.39 8.99
1 2 4 66.75 6.49
1 2 5 140.82 10.78
1 2 6 0.14 0.93
1 2 7 104.24 11.04
1 2 7 98.99 7.45
1 2 8 135 13.17
1 2 8 195.93 9.85
1 2 9 2 1.05
1 2 10 19.98 2.89
1 2 11 1.35 0.85
1 2 12 39.2 2.67
-1 -3 14 28.78 2.01
1 3 -14 30.86 2.62
-1 -3 13 2.16 0.98
1 3 -13 3.32 1.22
-1 -3 12 2.78 1.09
1 3 -12 3.58 1.55
1 3 -11 82.89 6.29
-1 -3 11 85.25 6.15
1 3 -10 31.58 3.76
-1 -3 10 36.39 5.89
-1 -3 10 32.87 3.84
1 3 -9 90.76 6
-1 -3 9 96.29 6.53
-1 -3 8 120.23 10
-1 -3 7 524.75 18.98
-1 -3 6 614.17 18.82
-1 -3 5 82.1 6.55
-1 -3 4 0.98 0.84
-1 -3 3 185.89 7.58
1 3 -2 35.27 2.92
-1 -3 2 36.72 3.08
-1 -3 1 35.17 3.12
1 3 -1 44.2 3.08
-1 -3 0 13.84 2.13
1 3 0 13.11 1.91
1 3 1 226.27 8.85
-1 -3 -1 225.59 9.56
-1 -3 -2 127.08 8.36
1 3 2 128.28 7.56
1 3 3 150.19 9.23
1 3 4 588.42 20.23
1 3 5 3.03 1.67
1 3 6 4.57 1.95
1 3 6 14.82 4.04
-1 -3 -7 14.13 5.04
1 3 7 15.37 2.98
1 3 7 10.73 3.76
1 3 8 212.06 10.23
1 3 9 33.01 3.78
1 3 10 -0.45 0.71
1 3 11 3.74 0.97
-1 -4 14 -0.46 0.53
1 4 -14 0.16 0.64
1 4 -13 5.48 1.64
-1 -4 13 4.35 1.22
1 4 -12 37.92 4.54
-1 -4 12 35.65 3.75
-1 -4 11 183.94 6.39
-1 -4 11 177.18 8.86
1 4 -11 182.26 9.58
1 4 -10 125.2 7.71
-1 -4 10 146.72 5.59
-1 -4 10 132.21 11.24
-1 -4 10 126.35 7.61
-1 -4 9 4.69 1.45
-1 -4 9 3.57 1.7
-1 -4 9 5.52 1.58
1 4 -9 5.15 1.6
-1 -4 8 34.29 5.3
-1 -4 7 6.29 2.36
-1 -4 6 26.02 3.79
-1 -4 6 22.15 3.82
-1 -4 5 70.75 6.13
-1 -4 4 192.44 9.19
-1 -4 3 132.19 6.93
1 4 -3 133.85 6.1
-1 -4 2 107.61 6.17
1 4 -2 109.58 4.91
-1 -4 1 30.19 3.42
1 4 -1 29.97 2.48
1 4 0 493.73 11.7
-1 -4 0 501.17 14.56
-1 -4 -1 19.41 3.29
1 4 1 21.74 2.94
1 4 2 170.98 9.24
-1 -4 -2 162.27 10.34
-1 -4 -3 27.08 4.87
1 4 3 33.13 4.52
-1 -4 -4 290.8 17.36
1 4 4 284.32 14.92
-1 -4 -5 288.63 19.26
-1 -4 -6 -0.49 1.63
1 4 6 0.78 1.34
1 4 7 44.16 5.19
1 4 8 7.71 2.02
1 4 9 63.48 4.85
1 4 10 0.2 0.57
1 4 11 1.72 0.59
-1 -5 14 37.82 2.61
1 5 -13 3.04 1.32
-1 -5 13 2.24 0.88
-1 -5 12 9.79 1.58
1 5 -12 10.92 2.51
-1 -5 12 10.97 2.06
-1 -5 11 5.69 1.77
-1 -5 11 4.89 1.49
1 5 -11 4.73 1.56
1 5 -10 172.25 9.23
-1 -5 10 163.46 6.25
-1 -5 10 166.18 8.67
-1 -5 10 155.55 12.43
1 5 -9 104.17 6.99
-1 -5 9 99.18 4.95
-1 -5 9 91.46 9.12
-1 -5 9 101.5 6.71
-1 -5 8 154.18 11.2
-1 -5 7 20.98 4.26
-1 -5 7 22.19 4.08
-1 -5 6 365.04 15.79
-1 -5 5 7.52 2.12
-1 -5 4 2.92 1.38
1 5 -4 3.03 0.98
1 5 -3 131.45 5.54
-1 -5 3 136.41 7.79
-1 -5 2 597.93 16.76
1 5 -2 590.32 10.25
-1 -5 1 14.75 2.78
-1 -5 0 217.94 11.22
1 5 0 220.03 8.06
-1 -5 -1 1011.2 25.61
-1 -5 -2 11.07 3.05
-1 -5 -3 29.14 5.37
-1 -5 -4 50.79 7.89
-1 -5 -5 463.66 12.82
-1 -5 -5 595.45 29.19
1 5 6 30.69 4.63
1 5 7 15.64 3.08
1 5 8 10.1 2.18
1 5 9 120.84 5.99
1 5 10 8.68 1.29
-1 -6 14 80.77 3.82
-1 -6 13 6.87 1.2
-1 -6 13 9.06 1.61
1 6 -13 9.97 2.23
-1 -6 12 -0.15 0.67
-1 -6 12 1.44 0.97
1 6 -12 0.38 1.11
1 6 -11 3.8 1.51
-1 -6 11 5.51 1.2
-1 -6 11 4.43 1.46
-1 -6 10 9.94 1.8
-1 -6 10 9.25 3.08
1 6 -10 8 2.03
-1 -6 10 9.71 2.08
1 6 -9 15.79 2.92
-1 -6 9 8.57 1.5
-1 -6 9 16.64 2.72
-1 -6 9 7.78 2.65
-1 -6 8 224.99 13.88
-1 -6 7 232.79 14.31
-1 -6 6 36.27 5.18
-1 -6 5 11.61 2.89
-1 -6 4 44.14 5.11
-1 -6 3 914.28 22.41
-1 -6 2 73.68 6.72
-1 -6 1 147.48 9.64
-1 -6 0 273.63 14.11
-1 -6 -1 596.91 22.28
-1 -6 -2 119.03 10.71
-1 -6 -3 1.45 1.36
-1 -6 -3 3.41 1.22
1 6 3 3.52 1.38
-1 -6 -4 2.13 1.29
-1 -6 -4 -0.32 1.2
-1 -6 -5 0.25 0.74
-1 -6 -6 14.76 2.39
1 6 6 19.51 3.66
1 6 7 16.43 2.94
1 6 8 -0.32 0.76
1 6 9 0.59 0.48
-1 -7 14 1.3 0.4
-1 -7 13 2.87 0.91
-1 -7 13 4.68 1.15
1 7 -12 74.01 6.41
-1 -7 12 74.54 5.18
-1 -7 12 80.31 4.41
-1 -7 11 198.74 7.35
1 7 -11 197.6 10.85
-1 -7 11 194.57 9.07
-1 -7 10 4.03 1.21
1 7 -10 3.46 1.62
-1 -7 10 4.53 1.57
-1 -7 9 20.29 2.6
-1 -7 9 12.9 2.31
1 7 -9 10.67 2.77
-1 -7 9 20.13 4.37
1 7 -8 1.47 1.11
-1 -7 8 1.7 1.05
-1 -7 8 0.36 1.13
-1 -7 8 0.3 0.86
-1 -7 8 -0.04 0.67
-1 -7 7 80.35 8.61
-1 -7 6 18.93 4.04
-1 -7 5 62.5 6.89
-1 -7 4 2.1 1.27
-1 -7 3 156.57 10.27
-1 -7 2 36.84 5.28
-1 -7 1 14.49 3.49
-1 -7 0 243.11 14.74
-1 -7 -1 218.74 15
-1 -7 -2 127.25 12.32
1 7 2 110.27 7.33
-1 -7 -2 113.99 6.58
-1 -7 -3 19.12 5.34
-1 -7 -3 21.87 3.13
-1 -7 -4 58.22 4.86
-1 -7 -5 5.19 1.38
1 7 5 7.8 2.89
1 7 6 21.24 3.38
1 7 7 47.41 4.28
1 7 8 5.37 1.16
-1 -8 13 4.63 1.19
-1 -8 13 7.98 1.37
-1 -8 12 7.67 1.54
-1 -8 12 8.46 1.78
-1 -8 11 46.97 3.74
-1 -8 11 38.25 3.88
-1 -8 10 63.33 4.26
-1 -8 10 54.88 5.01
-1 -8 9 5.25 2.32
-1 -8 9 5.47 1.34
-1 -8 8 76.31 9.47
-1 -8 8 66.75 4.54
-1 -8 7 3.77 1.95
-1 -8 7 2.07 0.98
-1 -8 6 121.65 10.69
-1 -8 5 166.94 12.3
-1 -8 4 11.96 3.21
-1 -8 3 113.04 9.66
-1 -8 2 148.52 11.55
-1 -8 1 2.39 1.89
1 8 0 71.16 5.69
-1 -8 0 76.25 9.13
-1 -8 -1 34.08 6.4
1 8 1 32.51 4
-1 -8 -2 8.21 3.6
-1 -8 -2 10.32 2.22
-1 -8 -3 96.55 6.35
-1 -8 -4 -0.54 0.87
-1 -8 -5 5.17 2.94
1 8 5 0.7 1.05
1 8 6 -0.43 0.63
1 8 7 2.8 0.86
-1 -9 13 10.6 1.72
-1 -9 13 22.07 2.17
-1 -9 12 28.35 3.3
-1 -9 12 41.34 3.21
-1 -9 11 0.23 0.68
-1 -9 10 33.71 3.47
-1 -9 9 213.64 8.02
-1 -9 8 74.31 9.64
-1 -9 8 46.65 3.99
-1 -9 7 68.23 6.1
-1 -9 7 64.7 8.49
-1 -9 6 49.16 7.32
-1 -9 6 55.73 5.2
-1 -9 5 75.52 8.95
-1 -9 5 66.54 5.84
-1 -9 4 4 1.59
-1 -9 4 3.57 1.98
-1 -9 3 29.91 5.41
1 9 -3 25.8 3.16
-1 -9 3 17.44 2.86
1 9 -2 533.02 14.75
-1 -9 2 543.81 23.73
-1 -9 1 9.39 2.11
-1 -9 1 2.51 1.87
1 9 -1 6.74 1.86
-1 -9 0 11.08 3.88
1 9 0 16.25 3.06
-1 -9 -1 74.91 5.6
-1 -9 -2 77.46 5.6
-1 -9 -3 5.98 1.85
-1 -9 -4 1.74 0.92
1 9 4 2.49 1.43
1 9 5 1.76 1.13
1 9 6 100.23 4.93
-1 -10 14 0.63 0.48
-1 -10 13 9.03 1.47
-1 -10 12 1.98 1.03
-1 -10 12 1.84 0.83
-1 -10 11 6.35 1.74
-1 -10 11 8.88 2.03
-1 -10 10 12.71 2.46
-1 -10 10 11.93 2.18
-1 -10 9 7.39 1.83
-1 -10 9 6.4 2.05
-1 -10 8 34.4 4.46
-1 -10 8 30.82 3.58
-1 -10 7 77.67 6.46
-1 -10 6 655.72 27.66
-1 -10 6 495.63 15.9
-1 -10 5 20.28 4.78
-1 -10 5 17.07 2.92
-1 -10 4 13.61 3.89
-1 -10 4 6.33 1.87
-1 -10 3 111.16 7.46
1 10 -3 142.34 8
-1 -10 2 189.41 9.66
1 10 -2 223.54 10.47
-1 -10 1 55.78 4.87
1 10 -1 58.79 5.62
-1 -10 0 40.41 4.05
-1 -10 -1 69.51 5.12
-1 -10 -2 116.31 6.35
-1 -10 -3 10.56 1.81
1 10 4 2.26 1.1
-1 -10 -4 1.03 0.65
1 10 5 1.84 0.77
-1 -11 13 0.18 0.39
-1 -11 13 -0.34 0.52
-1 -11 12 25.13 2.61
-1 -11 11 0.92 0.84
-1 -11 11 -0.22 0.75
-1 -11 10 19.7 2.43
-1 -11 10 20.78 3.12
-1 -11 9 2.12 1.32
-1 -11 9 3.6 1.15
-1 -11 8 24.17 3.62
-1 -11 8 8.46 1.66
-1 -11 7 0.57 0.76
-1 -11 6 -0.83 1.16
-1 -11 5 114.5 7.6
-1 -11 4 17.26 3.07
-1 -11 3 42.14 4.45
1 11 -3 38.82 4.59
-1 -11 2 -0.01 0.64
-1 -11 1 33.86 3.58
-1 -11 1 23.54 3.02
-1 -11 0 6.15 1.68
-1 -11 -1 -0.5 0.77
-1 -11 -2 3.42 1.14
-1 -11 -3 78.77 3.81
1 11 3 64.88 5.12
1 11 4 2.85 0.82
-1 -12 12 12.37 1.66
-1 -12 12 12.39 1.64
-1 -12 11 2.91 1.05
-1 -12 11 2.16 1.03
-1 -12 10 1.32 0.89
-1 -12 10 1.48 0.89
-1 -12 9 145.39 7.86
-1 -12 9 137.31 6.55
-1 -12 8 0.87 1.17
-1 -12 7 6.57 1.88
-1 -12 6 40.58 4.4
-1 -12 5 135.31 7.89
-1 -12 4 9.73 2.14
-1 -12 3 -0.22 0.96
-1 -12 3 2.34 1.05
-1 -12 2 14.85 2.31
-1 -12 2 15.52 2.3
-1 -12 1 50.51 3.93
-1 -12 0 -0.18 0.57
-1 -12 -1 9.53 1.45
-1 -12 -2 13.13 1.45
1 12 2 8.23 1.57
-1 -13 11 0.26 0.54
-1 -13 10 26.94 2.82
-1 -13 9 20.87 2.7
-1 -13 8 41.49 4.1
-1 -13 7 1.24 0.76
-1 -13 6 45.01 4.25
-1 -13 6 35.89 2.79
-1 -13 5 0.8 0.71
-1 -13 5 -0.05 0.73
-1 -13 4 1.02 0.55
-1 -13 4 1.63 0.96
-1 -13 3 19.88 2.26
-1 -13 3 14.71 2.05
-1 -13 2 41.57 3.13
-1 -13 1 1.68 0.71
-1 -13 0 92.43 3.77
-1 -14 10 8.88 1.29
-1 -14 9 15.32 1.82
-1 -14 8 4 1.06
-1 -14 7 11.43 1.78
-1 -14 6 1.35 0.73
-1 -14 5 15.59 1.84
-1 -14 5 14.24 1.43
-1 -14 4 18.41 1.68
-1 -14 4 15.4 1.59
-1 -14 3 0.74 0.42
2 -14 2 -0.68 0.55
2 -14 2 -0.68 0.56
2 -14 3 15.51 1.85
2 -14 4 49.75 3.54
2 -14 5 9.7 1.61
2 -14 6 92.77 4.94
2 -14 7 6.54 1.27
2 -14 8 9.43 1.44
2 -14 9 11.32 1.37
2 -13 0 140.2 5.3
2 -13 0 139.88 4.9
2 -13 1 0.73 0.67
2 -13 2 36.38 3.35
2 -13 3 0 0.62
2 -13 4 26.21 3.17
2 -13 5 2.69 1.14
2 -13 6 3.45 1.34
2 -13 7 3.72 1.23
2 -13 8 50.16 4.04
2 -13 8 49.56 3.61
2 -13 9 10.47 1.7
2 -13 9 9.29 1.6
2 -13 10 5.6 1.03
2 -13 10 6.28 1.27
2 -13 11 -0.38 0.55
2 -12 -2 6.57 1.06
2 -12 -1 16.95 2.16
2 -12 -1 18.43 2.17
2 -12 0 0.8 0.77
2 -12 1 30.34 3.4
2 -12 1 29.72 2.96
2 -12 2 26.72 3.42
2 -12 2 27.49 3.32
2 -12 3 3.42 1.29
2 -12 4 0.9 1.03
2 -12 5 1.06 0.98
2 -12 6 30.51 3.89
2 -12 7 4.73 1.57
2 -12 7 2.72 1.32
2 -12 8 11.1 2.24
2 -12 8 10.39 2.18
2 -12 9 57.75 4.55
2 -12 9 58.39 4.76
2 -12 10 28.02 2.74
2 -12 10 31.02 3.3
2 -12 11 11.99 1.9
2 -12 12 29.17 2.46
2 -11 -4 0.56 0.41
2 -11 -3 55.74 3.41
-2 11 3 30.71 2.78
2 -11 -2 0.21 0.73
2 -11 -2 0 0.79
2 -11 -1 75.94 4.96
2 -11 -1 68.99 5.32
2 -11 0 83.62 5.36
2 -11 0 73.51 5.75
2 -11 1 3.86 1.32
2 -11 1 4.19 1.58
2 -11 2 42.53 4.62
2 -11 2 30.68 3.36
2 -11 3 80.14 6.32
2 -11 4 21.97 3.41
2 -11 5 118.15 7.91
2 -11 6 73.77 6.3
2 -11 6 59.91 5.09
2 -11 7 10.38 2.46
2 -11 7 10.65 2.37
2 -11 8 14.12 2.78
2 -11 8 14.84 2.62
2 -11 9 0.91 0.94
2 -11 9 0.73 0.79
2 -11 10 5.65 1.68
2 -11 10 6.56 1.47
2 -11 11 15.17 2.47
2 -11 12 17.21 2.18
2 -11 13 3.14 0.78
2 -10 -5 29.29 2.21
2 -10 -4 85.2 4.68
-2 10 4 69.48 4.63
2 -10 -3 -0.72 0.73
2 -10 -2 18.36 2.61
2 -10 -2 14.69 2.73
2 -10 -1 4.94 1.68
2 -10 -1 7.69 1.81
2 -10 0 4.03 1.39
2 -10 0 2.36 1.21
2 -10 1 1.12 0.86
2 -10 1 0.36 0.75
2 -10 2 25.99 5.05
2 -10 2 39.19 3.92
2 -10 3 0.85 1.28
2 -10 3 8.96 2.17
2 -10 4 189.03 9.89
2 -10 4 180.32 13.54
2 -10 5 25.53 3.78
2 -10 5 22.75 4.69
2 -10 5 18.43 3.14
2 -10 6 71.86 8.42
2 -10 6 75.69 6.18
2 -10 6 88.19 6.86
2 -10 7 48.73 5.11
2 -10 7 52.72 5.45
2 -10 8 2.57 1.32
2 -10 8 5.4 1.8
2 -10 9 61.3 5.91
2 -10 9 51.4 4.86
2 -10 10 2.75 1.25
2 -10 10 1.72 0.85
2 -10 11 21.16 2.53
2 -10 11 25.71 3.5
2 -10 12 0.15 0.57
2 -10 12 0.31 0.39
2 -10 13 3 0.78
2 -10 13 3.01 0.68
2 -9 -6 13.95 1.61
2 -9 -5 7.7 1.46
-2 9 5 6.31 1.45
2 -9 -4 23.34 3.18
-2 9 4 20.8 3.35
2 -9 -3 57.82 5.42
2 -9 -3 69.39 5.08
2 -9 -3 61.97 4.89
2 -9 -2 59.54 5.46
2 -9 -2 42.83 4.09
2 -9 -1 5.29 1.71
2 -9 -1 7.57 1.68
2 -9 0 58.68 5.39
2 -9 0 43.82 4.07
2 -9 0 43.52 6.98
2 -9 1 144.76 8.42
2 -9 1 129.98 11.03
2 -9 1 132.88 6.89
2 -9 2 17.39 2.9
2 -9 2 20.72 2.75
2 -9 2 23.2 4.49
2 -9 3 89.86 6.51
2 -9 3 83.15 8.37
2 -9 4 0.18 0.64
2 -9 4 -0.09 0.63
2 -9 5 150.65 8.26
2 -9 5 122.39 10.5
2 -9 6 41.25 4.54
2 -9 6 32.52 4.18
2 -9 7 618.04 17.66
2 -9 7 677.34 19.53
2 -9 7 605.88 24.74
2 -9 8 133.65 8.89
2 -9 8 112.17 7.41
2 -9 8 121.99 7.14
2 -9 9 14.09 3.04
2 -9 9 13.45 2.3
2 -9 10 57.48 5.66
2 -9 10 56.72 4.68
2 -9 11 2.75 1.21
2 -9 11 3.7 1.24
2 -9 12 42.28 3.42
2 -9 12 37.48 3.62
2 -9 13 0.8 0.39
2 -8 -7 142.3 5.29
2 -8 -6 1.17 0.82
-2 8 6 -0.09 0.47
2 -8 -5 0.7 0.66
-2 8 5 1.23 0.98
2 -8 -4 -0.26 1
2 -8 -4 -0.32 0.9
2 -8 -3 529.92 14.53
2 -8 -3 551.51 16.8
2 -8 -2 72.25 9.29
2 -8 -2 82.42 5.64
2 -8 -1 79.48 9
2 -8 -1 86.31 5.54
2 -8 0 1.32 1.06
2 -8 0 0.5 1.22
2 -8 0 -0.01 0.76
2 -8 1 225.74 9.87
2 -8 1 176.07 12.14
2 -8 2 31.77 4.85
2 -8 3 11.07 2.7
2 -8 4 138.41 10.12
2 -8 5 191.72 12.31
2 -8 6 338.43 10.78
2 -8 6 355.51 17.16
2 -8 7 362.28 12.73
2 -8 7 335.05 11.15
2 -8 7 332.83 17.72
2 -8 8 46.25 4.26
2 -8 9 0.77 0.64
2 -8 10 35.2 3.73
2 -8 11 31.63 3.96
2 -8 11 35.28 3.57
2 -8 12 -0.84 0.64
2 -8 12 0.37 0.7
2 -8 13 0.97 0.66
2 -8 13 0.07 0.41
2 -8 14 45.73 2.58
2 -7 -8 14.58 1.67
2 -7 -7 1.62 1.08
-2 7 7 1.06 0.56
-2 7 6 112.46 7.24
2 -7 -6 113.29 6.42
2 -7 -5 57.46 4.8
-2 7 5 65.59 6.32
2 -7 -4 34.56 4.11
2 -7 -4 28.02 3.74
2 -7 -4 28.47 3.58
2 -7 -4 35.85 3.74
2 -7 -3 88.86 5.92
2 -7 -3 65.67 8.82
2 -7 -2 82.38 6.32
2 -7 -2 73.62 5.07
2 -7 -2 84.92 9.32
2 -7 -1 21.12 4.29
2 -7 0 26.5 4.44
2 -7 1 4.79 1.96
2 -7 2 169.54 10.14
2 -7 3 208.02 11.01
2 -7 4 410.85 16.15
2 -7 5 24.17 4
2 -7 6 76.57 7.79
2 -7 7 29.86 5.28
2 -7 7 16.56 2.47
2 -7 8 26.25 3.01
2 -7 8 25.69 3.1
2 -7 9 34.25 3.68
2 -7 10 128.82 7.23
2 -7 11 40.12 4.29
2 -7 11 51.15 4.35
2 -7 12 11.3 1.9
2 -7 12 8.01 1.79
2 -7 13 29.12 2.7
2 -7 14 12.71 1.45
2 -6 -9 44.27 2.88
-2 6 8 20.21 2.39
2 -6 -8 18 2.24
2 -6 -7 5.64 1.2
-2 6 7 6.14 1.58
2 -6 -6 67.34 5.2
-2 6 6 66.41 6.09
2 -6 -5 72 9.96
2 -6 -5 95.04 6.11
2 -6 -5 78.99 6.27
2 -6 -4 183.27 8.37
2 -6 -4 159.72 13.61
2 -6 -4 153.28 8.46
2 -6 -4 178.16 8.33
2 -6 -4 183.76 9.54
2 -6 -3 60.03 7.78
2 -6 -3 66.11 4.87
2 -6 -3 75.39 5.97
2 -6 -2 855.48 26.19
2 -6 -1 200.36 12.04
2 -6 0 25.23 3.94
2 -6 1 2.59 1.25
2 -6 2 45.53 4.69
2 -6 3 709.9 18.62
2 -6 4 23.94 3.61
2 -6 5 461.79 16.9
2 -6 6 25.16 4.4
2 -6 7 53.24 7.05
2 -6 8 98.69 5.75
2 -6 8 90.39 5.98
2 -6 9 36.92 3.58
2 -6 9 31.8 3.55
2 -6 10 2.84 1.17
2 -6 11 4.27 1.37
2 -6 11 2.74 1.14
2 -6 12 20.58 2.64
2 -6 13 9.65 1.67
2 -6 14 6.15 0.97
2 -5 -10 1.29 0.56
2 -5 -9 29.67 2.71
2 -5 -8 50.33 4.22
-2 5 8 48.91 4.27
2 -5 -7 12.93 2.3
-2 5 7 12.43 2.4
2 -5 -6 32.08 7.03
2 -5 -6 30.23 4.34
-2 5 6 47.49 5.45
2 -5 -6 45.65 4.42
2 -5 -5 37.79 4.11
2 -5 -5 41.05 3.89
-2 5 5 50.41 5.49
2 -5 -4 1.3 1.26
2 -5 -4 2.23 1.06
2 -5 -3 157.77 11.24
2 -5 -2 91.73 7.99
2 -5 -1 634.5 18.67
2 -5 0 90.58 6.62
2 -5 1 2337.33 31.33
2 -5 2 212.91 8.84
2 -5 3 184.45 8.71
2 -5 4 14.38 2.29
2 -5 4 13.77 2.61
2 -5 5 1.45 1.07
2 -5 5 0.81 0.66
2 -5 6 30.35 4.64
2 -5 6 26.61 4.89
2 -5 6 32.09 4.45
2 -5 7 82.27 8.18
2 -5 8 24.24 3.15
2 -5 8 21.93 4.8
2 -5 9 3.85 1.21
-2 5 -9 5.06 1.66
2 -5 9 1.23 1.4
2 -5 9 3.94 1.21
2 -5 10 68.26 8.81
2 -5 10 69.83 5.45
2 -5 11 25.75 3.25
2 -5 12 -0.09 0.59
2 -5 13 32.17 3
2 -5 14 145.62 4.89
2 -4 -11 41.95 2.39
2 -4 -10 28.74 2.66
2 -4 -9 36.39 3.47
-2 4 9 36.3 3.5
2 -4 -8 41.88 4.21
-2 4 8 40.96 4.22
-2 4 7 0.69 0.73
2 -4 -7 0.57 0.92
2 -4 -6 16.11 4.8
2 -4 -6 12.67 2.33
2 -4 -6 8.41 2.25
-2 4 6 14.28 2.8
2 -4 -5 129.59 12.04
2 -4 -5 191.34 8.11
2 -4 -4 -0.1 1
2 -4 -3 198.17 11.86
2 -4 -2 0.22 0.57
2 -4 -1 73.24 5.64
2 -4 0 20.43 2.72
2 -4 0 17.95 2.26
2 -4 1 302.68 9.61
2 -4 1 335.43 8.06
2 -4 2 1.32 0.7
2 -4 2 2.27 0.67
2 -4 2 1.2 0.42
2 -4 3 6.86 1.56
2 -4 3 6.54 1.49
2 -4 4 36.07 4.04
2 -4 4 33.53 3.65
2 -4 5 382.3 14.72
2 -4 5 381.65 13.97
2 -4 5 397.93 16.68
2 -4 6 63.66 6.63
2 -4 6 72.84 7.51
2 -4 7 3.03 2.02
2 -4 8 -0.06 0.84
2 -4 9 63.44 8.44
2 -4 9 59.41 4.97
2 -4 10 78.36 5.8
2 -4 11 -0.21 0.71
2 -4 12 15 2.44
2 -4 13 0.56 0.49
2 -4 14 13.7 1.44
2 -3 -11 1.01 0.55
2 -3 -10 26.62 2.94
2 -3 -9 6.79 1.86
-2 3 9 5.87 1.62
2 -3 -8 145.76 7.94
-2 3 8 147.86 8.1
2 -3 -7 6.23 1.59
2 -3 -7 4.65 1.49
-2 3 6 33.94 5.97
2 -3 -6 22.88 3.42
2 -3 -6 28.21 3.33
-2 3 5 244.9 14.77
-2 3 4 49.37 6.07
-2 3 3 156.8 9.5
2 -3 -3 134.06 7.94
2 -3 -2 301.23 11.62
-2 3 2 320.1 11.93
-2 3 1 73.28 4.88
2 -3 -1 70.33 4.72
2 -3 0 1.63 0.63
2 -3 0 2.42 0.93
2 -3 1 1.17 0.6
2 -3 1 1.14 0.55
2 -3 1 1.29 0.47
2 -3 2 109.41 5.66
2 -3 2 111.37 4.87
2 -3 2 106.4 5.07
2 -3 3 4.63 1.38
2 -3 3 3.73 1.12
2 -3 3 5.76 0.64
2 -3 4 42.43 4.27
2 -3 4 39.31 5.07
2 -3 5 718.62 20.07
2 -3 5 715.5 21.27
2 -3 6 27.18 6.13
2 -3 7 1.76 1.82
2 -3 8 112.09 11.45
2 -3 9 2.43 1.15
2 -3 9 0.78 1.18
2 -3 10 114.87 7
2 -3 11 102.53 6.55
2 -3 12 9.46 1.98
2 -3 13 0 0.41
2 -3 14 17.05 1.47
2 -2 -12 6.42 1.14
2 -2 -11 1.14 0.97
2 -2 -10 7.93 1.88
-2 2 10 6.68 1.54
2 -2 -9 70.5 5.5
-2 2 9 74.09 5.47
2 -2 -8 58.93 5.1
-2 2 8 56.89 4.96
-2 2 7 2.6 1.79
2 -2 -7 2.29 1.28
2 -2 -7 2.33 1.96
-2 2 6 47.65 6.54
-2 2 5 3.08 1.72
-2 2 4 17.34 3.37
2 -2 -3 50.76 4.3
-2 2 3 56.3 5.31
2 -2 -2 774.34 18.08
-2 2 2 766.25 16.74
2 -2 -1 37.55 2.9
2 -2 -1 40.55 4.49
-2 2 1 38.12 3.12
2 -2 0 71.32 4.4
2 -2 0 63.85 2.91
-2 2 0 68.34 3.3
2 -2 1 483.55 10.86
2 -2 1 491.21 7.89
2 -2 1 490.09 11.13
2 -2 2 1155.6 19.22
2 -2 2 1167.2 17.02
2 -2 2 1168.5 14.98
2 -2 2 1191.27 23.96
2 -2 3 68.39 5.71
2 -2 3 74.38 5.17
2 -2 4 578.74 16.74
2 -2 4 568.71 16.62
2 -2 4 531.87 8.75
2 -2 5 128.69 10.35
2 -2 6 1087.02 37.79
2 -2 7 271.89 17.17
2 -2 8 169.86 8.49
2 -2 8 216.77 15.57
2 -2 9 81.15 5.82
2 -2 9 106.94 11.23
2 -2 10 147.01 7.96
2 -2 11 53.55 4.62
2 -2 12 1 0.75
2 -2 13 54.36 3.47
2 -1 -12 0.32 0.55
2 -1 -11 69.86 4.94
2 -1 -10 16.51 2.72
-2 1 10 17.05 2.58
2 -1 -9 0.23 0.94
-2 1 9 0.28 0.48
2 -1 -8 212.88 9.58
-2 1 8 240.49 15.83
-2 1 7 16.74 3.93
-2 1 6 393.81 17.53
-2 1 5 1.16 1.17
-2 1 4 2276.73 35.72
-2 1 3 792.14 19.22
-2 1 2 1149.96 20.12
-2 1 1 0.92 0.72
2 -1 -1 2.05 1.21
2 -1 0 1182.16 17.79
-2 1 0 1205.97 12.27
2 -1 1 188.51 7.95
2 -1 1 155.62 6.46
2 -1 2 352.15 12.33
2 -1 2 364.66 11.38
2 -1 3 84.67 6
2 -1 4 121.19 8.29
2 -1 5 21.16 4.31
2 -1 6 37.14 6.73
2 -1 7 459.94 22.3
2 -1 8 79.75 6.04
2 -1 8 97.51 10.69
2 -1 9 550.82 15.3
2 -1 9 483.46 25.25
2 -1 10 4.69 1.56
2 -1 11 38.92 3.89
2 -1 12 0.71 0.61
2 -1 13 4.77 1.03
2 0 -13 7.32 1.29
2 0 -12 51.58 4.03
2 0 -11 6.32 1.63
-2 0 11 4.78 1.38
2 0 -10 11.12 2.31
-2 0 10 11.21 2.18
2 0 -9 80.7 6.02
-2 0 9 87.82 9.64
2 0 -8 390.02 12.5
-2 0 8 348.65 18.19
-2 0 7 211.89 13.35
-2 0 6 35.75 5.13
-2 0 5 418.9 16.2
-2 0 4 17.05 3.11
-2 0 3 32.17 3.65
-2 0 2 263.9 9.18
-2 0 1 5245.21 34.1
2 0 0 1863.76 23.54
2 0 1 34.54 3.56
2 0 2 3.94 1.31
2 0 2 3.46 1.5
2 0 3 1506.76 26.97
2 0 4 132.08 9.15
2 0 5 21.17 4.53
2 0 6 9.05 3.23
2 0 7 346.32 20.05
2 0 8 36.66 4.12
2 0 8 28.02 6.27
2 0 9 179.16 8.88
2 0 10 4.58 1.59
2 0 11 6.24 1.54
2 0 12 1.69 0.83
2 0 13 -0.16 0.32
2 1 -13 22.57 2.67
2 1 -12 14.82 2.43
2 1 -11 113.6 6.77
-2 -1 11 113.31 6.48
2 1 -10 21.39 3.17
-2 -1 10 21.83 3.68
2 1 -9 308.11 11.44
-2 -1 9 332.95 18.19
2 1 -8 6.91 1.69
-2 -1 8 5.41 2.08
-2 -1 7 111.16 9.5
-2 -1 6 244.76 13
-2 -1 5 419.14 15.52
-2 -1 4 44.96 4.62
-2 -1 3 615.36 15.24
-2 -1 2 106.84 4.66
-2 -1 1 643.43 8.7
-2 -1 0 4329.24 22.74
2 1 0 4451.26 38.59
-2 -1 -1 64.64 3.67
2 1 1 74.44 4.83
2 1 1 59.2 5.1
2 1 2 14.89 2.79
2 1 3 386.73 14.57
2 1 4 471.64 18.2
2 1 5 4.22 2.41
2 1 6 160.63 13.48
2 1 7 38.33 4.45
2 1 7 36.94 7.07
2 1 8 311.43 20.48
2 1 8 278.01 11.16
2 1 9 7.34 2.1
2 1 10 81.38 5.62
2 1 11 0.09 0.53
2 1 12 102.89 4.48
2 2 -14 0.45 0.49
2 2 -13 7.81 1.64
2 2 -12 49.32 4.55
-2 -2 11 117.85 6.65
2 2 -11 123.87 7.33
2 2 -10 47.61 4.59
-2 -2 10 44.18 4.31
2 2 -9 111.48 6.85
-2 -2 9 78.27 8.74
-2 -2 8 13.73 3.54
-2 -2 7 149.67 10.8
-2 -2 6 46.69 5.54
-2 -2 5 171.41 9.8
-2 -2 3 314.06 9.72
2 2 -2 11.36 2.32
-2 -2 2 8.42 1.44
2 2 -1 11.24 2.32
-2 -2 1 13.32 1.62
2 2 0 9999 57.52
-2 -2 0 9861.69 49.22
2 2 0 9814.59 61.02
2 2 1 108.86 6.23
2 2 1 98.34 7.13
-2 -2 -1 102.9 5.76
-2 -2 -2 19.05 3
2 2 2 18.16 3.32
2 2 3 749.14 21.81
2 2 4 628.15 22.48
2 2 5 161.1 12.57
2 2 6 8.35 3.17
2 2 7 60.45 9.1
2 2 7 72.68 6.1
2 2 8 16.81 2.86
2 2 9 -0.93 0.81
2 2 10 1.64 0.85
2 2 11 4.95 1.25
2 2 12 0.54 0.37
2 3 -14 12.5 1.69
2 3 -13 -2.03 1.23
2 3 -12 12.39 2.52
-2 -3 12 8.03 1.55
-2 -3 11 0.77 0.68
-2 -3 11 -0.33 0.66
2 3 -11 0.21 0.93
-2 -3 10 179.58 6.3
2 3 -10 204.8 9.7
-2 -3 10 203.44 9.21
2 3 -9 828.28 18.54
-2 -3 9 846.36 28.87
-2 -3 8 127.63 10.71
-2 -3 7 27.1 4.63
-2 -3 6 30.64 4.48
-2 -3 5 96.85 7.16
-2 -3 4 270.46 10.65
-2 -3 3 37.22 3.58
2 3 -2 12.17 2.27
-2 -3 2 14.27 2.16
2 3 -1 36.8 4.04
-2 -3 1 52.21 4.14
2 3 0 181.14 8.1
-2 -3 0 201.54 8.6
2 3 0 193.52 9.34
2 3 1 148.63 8.92
-2 -3 -1 141 7.88
-2 -3 -2 16.4 3.18
2 3 2 14.49 3.22
-2 -3 -3 775.17 23.99
2 3 3 731.9 23.52
2 3 4 15.96 4.06
-2 -3 -4 16.14 4.3
2 3 5 145.46 12.65
-2 -3 -5 161.11 13.96
2 3 6 41.16 7.55
-2 -3 -6 44.79 8.55
2 3 6 53.64 5.66
2 3 7 30.12 3.96
2 3 7 31.44 6.83
-2 -3 -7 34.64 7.76
2 3 7 23.76 2.95
2 3 8 16.85 2.94
2 3 9 62.1 4.91
2 3 10 6.88 1.48
2 3 11 2.28 0.7
2 4 -14 8.62 1.58
2 4 -13 33.06 3.63
-2 -4 12 28.81 2.3
2 4 -12 43.17 4.55
-2 -4 12 36.1 3.34
-2 -4 11 55.43 3.45
2 4 -11 49.46 5
-2 -4 11 50.57 4.39
2 4 -10 19.57 3.08
-2 -4 10 23.78 3.17
-2 -4 9 268.88 16.33
2 4 -9 255.91 10.85
-2 -4 8 36.84 5.75
-2 -4 7 89.94 8.43
-2 -4 6 159.18 10.34
-2 -4 6 182.35 11.18
-2 -4 5 26.73 3.85
2 4 -4 6.2 1.9
-2 -4 4 9.31 2.11
2 4 -3 401.73 13.45
-2 -4 3 411.66 13.08
2 4 -2 335.46 11.71
-2 -4 2 326.38 11.2
-2 -4 1 91.57 6.38
2 4 -1 88.92 5.73
2 4 0 362.23 13.25
-2 -4 0 368.47 13.52
-2 -4 -1 148.45 9.11
2 4 1 144.04 8.98
-2 -4 -2 8.6 2.5
2 4 2 7.91 2.54
-2 -4 -3 5.61 2.37
2 4 3 6.87 2.49
-2 -4 -4 270.77 17.32
2 4 4 287.72 17.12
-2 -4 -5 5.39 2.88
2 4 5 13.23 3.29
-2 -4 -6 14.46 4.9
2 4 6 13.98 3.1
2 4 7 26.73 3.78
2 4 7 16.13 2.41
2 4 8 13.55 2.51
2 4 9 8.69 1.78
2 4 10 12.12 1.65
2 5 -14 1.07 0.89
-2 -5 13 45.25 2.64
2 5 -13 40.19 4.02
2 5 -12 92.69 6.73
-2 -5 12 85.24 5.15
-2 -5 11 18.68 2.4
2 5 -11 19.84 3.43
-2 -5 11 21.6 2.81
-2 -5 10 3.63 1.73
-2 -5 10 3.45 1.57
-2 -5 10 2.69 1.05
2 5 -10 2.88 1.36
2 5 -9 80.86 6.53
-2 -5 9 86.16 5.87
-2 -5 9 90.38 9.43
-2 -5 8 50.86 6.91
-2 -5 7 94.13 8.86
-2 -5 6 913.78 26.11
-2 -5 5 287.26 13.29
2 5 -5 248.15 12.7
-2 -5 4 202.47 10.68
2 5 -4 180.08 9.63
2 5 -3 105.03 6.77
-2 -5 3 101.54 7.23
2 5 -2 20.39 2.74
-2 -5 2 22.57 3.39
-2 -5 1 23.8 3.77
-2 -5 0 13.81 2.93
2 5 0 13.67 2.81
2 5 1 491.58 16.97
-2 -5 -1 486.27 18.95
-2 -5 -2 0.57 0.71
-2 -5 -3 68.25 8.56
2 5 4 37.6 4.15
-2 -5 -4 47.07 7.99
-2 -5 -5 59.72 9.48
2 5 5 64.48 6.49
2 5 6 5.49 1.99
2 5 7 29.53 3.2
2 5 7 42.99 4.76
2 5 8 27.94 3.25
2 5 9 118.34 5.42
2 5 10 -0.1 0.37
2 6 -13 71.31 5.52
-2 -6 13 81.2 3.78
-2 -6 12 8.73 1.64
2 6 -12 4.45 1.61
-2 -6 12 5.35 1.26
2 6 -11 8.61 2.52
-2 -6 11 13.37 2.09
-2 -6 11 10.94 2.04
2 6 -10 28.78 4.39
-2 -6 10 30.81 2.89
-2 -6 10 32.66 3.58
-2 -6 9 8.28 3.15
-2 -6 9 6.13 1.7
2 6 -9 4.53 1.81
-2 -6 9 5.84 1.56
2 6 -8 11.73 2.76
-2 -6 8 21.93 4.71
-2 -6 7 14.28 3.79
-2 -6 6 7.78 2.6
-2 -6 5 7.34 2.31
-2 -6 4 4.79 1.85
-2 -6 3 439.6 16.59
-2 -6 2 0.83 1.03
-2 -6 1 92.86 8.25
-2 -6 0 284.23 15.09
-2 -6 -1 236.07 14.75
2 6 2 36.7 3.76
-2 -6 -2 26.14 5.47
-2 -6 -3 19.43 2.74
2 6 3 21.19 3.11
-2 -6 -3 15.29 4.68
-2 -6 -4 13.81 4.26
-2 -6 -4 20.58 2.72
2 6 5 115.35 8.84
2 6 6 2.06 1.18
2 6 7 20.02 2.31
2 6 7 31.64 3.48
2 6 8 75.27 4.53
2 6 9 2.13 0.59
-2 -7 14 7.08 1
-2 -7 14 4.09 0.94
-2 -7 13 1.35 0.85
-2 -7 12 33.98 2.83
2 7 -12 28.23 4.01
-2 -7 12 27.67 2.82
-2 -7 11 12.52 1.83
2 7 -11 11.71 2.64
-2 -7 11 13.79 2.2
-2 -7 10 0.3 0.69
2 7 -10 0.12 0.91
-2 -7 10 0.15 0.55
2 7 -9 76.43 7.31
-2 -7 9 96.03 5.03
-2 -7 9 91.98 6.12
-2 -7 9 97.07 10.14
-2 -7 8 0.52 0.77
2 7 -8 0.15 1.1
-2 -7 8 0.15 1.01
-2 -7 8 0.06 1.38
-2 -7 8 -0.01 0.44
-2 -7 7 122.3 5.51
-2 -7 7 150.17 12.49
-2 -7 6 72.83 8.35
-2 -7 5 8.29 2.81
-2 -7 4 8.02 2.56
-2 -7 3 69.12 7.35
-2 -7 2 1788.58 37.56
-2 -7 1 60.88 7.38
2 7 0 242.41 9.05
-2 -7 0 161.8 12.62
-2 -7 -1 43.54 7.16
2 7 1 41.15 4.05
-2 -7 -2 168.95 14.73
2 7 2 127.35 7.6
2 7 3 22.57 3.4
-2 -7 -3 16.98 2.69
-2 -7 -4 3.48 1.29
2 7 5 18.22 4.12
2 7 6 146.79 7.93
2 7 7 3.59 1.06
2 7 8 44.28 2.75
-2 -8 14 -0.28 0.46
-2 -8 14 0.18 0.33
-2 -8 13 40.35 2.73
-2 -8 12 8.66 1.57
-2 -8 11 5.22 1.42
-2 -8 10 6.89 1.5
-2 -8 9 58.93 4.11
-2 -8 8 -0.08 0.57
-2 -8 8 2.33 2.36
-2 -8 7 19.54 2.52
-2 -8 7 37.08 6.45
-2 -8 6 631.18 25.36
-2 -8 5 66.16 8.1
-2 -8 5 77.51 5.96
-2 -8 4 159.73 8.12
-2 -8 4 185.31 13.32
2 8 -3 13.57 2.07
-2 -8 3 38.01 5.91
-2 -8 2 104.14 9.99
2 8 -2 64.96 4.9
-2 -8 1 11.02 3.4
2 8 -1 4.08 1.5
-2 -8 0 0.89 1.14
2 8 0 0.88 0.98
2 8 1 217.02 9.67
-2 -8 -1 162.66 14.64
-2 -8 -2 455.31 13.18
2 8 2 446.17 14.37
-2 -8 -3 18.29 2.73
-2 -8 -4 93.96 5.45
2 8 4 104.34 8.56
2 8 5 46.91 4.7
2 8 6 0.22 0.6
2 8 6 -1.63 0.95
2 8 7 23.39 2.05
-2 -9 14 1.71 0.57
-2 -9 13 21.74 2.15
-2 -9 13 13.1 1.92
-2 -9 12 7.82 1.41
-2 -9 11 25.82 2.64
-2 -9 10 101.95 5.42
-2 -9 9 34.75 3.51
-2 -9 8 34.06 3.26
-2 -9 7 1.98 1.22
-2 -9 7 4.3 1.35
-2 -9 6 113.07 7.65
-2 -9 6 144.15 12.83
-2 -9 5 148.4 8.53
-2 -9 5 205.19 15.23
-2 -9 4 0.25 0.82
2 9 -4 0.48 0.59
2 9 -3 75.31 5.42
-2 -9 3 73.22 5.89
2 9 -2 39.76 4.16
-2 -9 2 71.42 8.83
2 9 -1 20.1 3.01
-2 -9 1 20.76 4.9
2 9 0 0.4 0.74
-2 -9 -1 0.42 0.77
2 9 1 1.97 0.99
-2 -9 -2 206.99 8.7
-2 -9 -3 20.09 2.71
-2 -9 -4 14.47 1.91
2 9 4 13.76 2.91
2 9 5 86.63 4.37
2 9 5 114.9 5.86
2 9 6 1.2 0.56
-2 -10 13 -0.14 0.53
-2 -10 13 -0.3 0.64
-2 -10 12 0.12 0.73
-2 -10 12 -0.32 0.75
-2 -10 11 4.95 1.43
-2 -10 11 5.9 1.21
-2 -10 10 8.65 1.6
-2 -10 10 7.07 2.06
-2 -10 9 82.65 4.9
-2 -10 9 102.42 7.25
-2 -10 8 48.86 4.27
-2 -10 8 76.77 6.71
-2 -10 7 228.64 11.17
-2 -10 6 42.49 4.73
-2 -10 5 1.95 1.22
2 10 -4 10.33 2.25
-2 -10 4 10.77 2.39
-2 -10 3 11.2 2.49
2 10 -3 11.46 2.32
2 10 -2 13.22 2.48
2 10 -1 31.82 4.04
-2 -10 0 -0.22 0.93
2 10 0 -0.74 1.03
-2 -10 -1 60.22 4.61
-2 -10 -2 150.47 6.71
2 10 3 30.19 3.98
-2 -10 -3 27.52 2.65
2 10 4 9.57 1.68
-2 -11 13 19.6 1.81
-2 -11 12 6.23 1.1
-2 -11 12 4.2 1.12
-2 -11 11 49.83 3.42
-2 -11 11 37.77 3.6
-2 -11 10 26.03 2.6
-2 -11 10 23.64 3.18
-2 -11 9 7.41 2.09
-2 -11 9 9.71 1.58
-2 -11 8 156.99 8.71
-2 -11 7 178.56 9.37
-2 -11 6 8.55 2.04
-2 -11 5 4.66 1.62
-2 -11 4 23.26 3.27
2 11 -4 25.81 3.39
2 11 -3 3.14 1.39
-2 -11 3 1.58 0.88
2 11 -2 12.71 2.44
2 11 -2 13.91 2.68
-2 -11 1 3.28 1.51
-2 -11 0 20.77 2.6
-2 -11 -1 0.55 0.6
-2 -11 -2 57.96 3.51
2 11 2 39.47 4.3
2 11 3 30.77 2.33
2 11 3 26.03 2.54
-2 -12 12 4.24 0.92
-2 -12 11 0.06 0.4
-2 -12 11 -0.58 0.74
-2 -12 10 21.38 2.4
-2 -12 10 22.41 2.8
-2 -12 9 0.33 0.69
-2 -12 8 50.63 4.61
-2 -12 7 34.57 3.84
-2 -12 6 83.36 6.01
-2 -12 5 2.62 1.35
-2 -12 4 16.25 2.45
2 12 -3 1.74 1.06
-2 -12 3 2.52 0.98
-2 -12 2 76.29 4.84
-2 -12 1 24.74 2.61
-2 -12 0 12.8 1.68
2 12 1 7.25 1.51
-2 -12 -1 13.39 1.51
-2 -13 11 -0.23 0.52
-2 -13 10 5.43 1.24
-2 -13 9 2.08 0.86
-2 -13 8 10.72 1.99
-2 -13 7 7.75 1.71
-2 -13 6 3.65 1.18
-2 -13 6 1.22 0.72
2 13 -5 5.41 1.5
-2 -13 5 5.98 1.22
-2 -13 5 4.12 1.09
2 13 -4 63.42 4.15
-2 -13 4 67.8 4.03
-2 -13 3 19.72 2.19
-2 -13 2 6.69 1.28
-2 -13 1 15.37 1.55
2 14 -8 11.02 1.58
2 14 -7 8.14 1.4
3 -14 2 1.12 0.51
3 -14 3 5.45 1.03
3 -14 4 0.26 0.53
3 -14 5 30.7 2.51
3 -14 6 3.43 0.83
3 -14 7 41.55 2.61
3 -13 0 13.33 1.45
3 -13 1 20.14 2.03
3 -13 1 24.29 2.41
3 -13 2 0.1 0.49
3 -13 3 2.59 0.95
3 -13 4 55.3 4.23
3 -13 5 10.71 1.88
3 -13 6 7.46 1.57
3 -13 7 13.72 1.97
3 -13 7 16.86 2.06
3 -13 8 49.59 3.35
3 -13 8 58.58 3.85
3 -13 9 7.2 1.37
3 -13 10 0.29 0.4
3 -13 11 14.04 1.45
3 -12 -2 21.03 1.76
3 -12 -1 3.14 0.99
3 -12 0 66.68 4.49
3 -12 1 -0.35 0.96
3 -12 2 24.96 3.11
3 -12 3 0.59 0.7
3 -12 4 167.15 8.28
3 -12 5 2.7 1.29
3 -12 6 3 1.17
3 -12 6 4.6 1.51
3 -12 7 82.58 5.49
3 -12 7 93.15 6
3 -12 8 21.01 2.6
3 -12 8 24.35 3.12
3 -12 9 4.12 1.25
3 -12 10 10.29 1.85
3 -12 11 84.09 4.5
3 -12 12 8.34 1.18
3 -11 -4 2.4 0.63
3 -11 -3 41.14 2.81
3 -11 -2 79.56 4.55
3 -11 -1 32.45 3.46
3 -11 0 52.49 4.81
3 -11 1 94.57 6.44
3 -11 2 -0.44 0.67
3 -11 3 34.21 4
3 -11 4 33.69 4
3 -11 5 95.96 6.69
3 -11 5 80.28 5.95
3 -11 6 56.28 5.05
3 -11 6 47.87 4.68
3 -11 7 103.35 6.79
3 -11 7 121.51 7.96
3 -11 8 10.94 2.02
3 -11 8 12.32 2.65
3 -11 9 2.95 1.01
3 -11 9 4.32 1.45
3 -11 10 9.73 2.11
3 -11 10 5.04 1.15
3 -11 11 2.77 0.98
3 -11 11 2.82 0.8
3 -11 12 8.78 1.39
3 -10 -5 36.64 2.39
3 -10 -4 -0.51 0.67
3 -10 -3 62.94 4.33
3 -10 -2 8.17 2.59
3 -10 -2 2.14 0.95
3 -10 -1 8.02 2.13
3 -10 0 0.55 0.86
3 -10 0 2.05 1.12
3 -10 1 128.71 7.98
3 -10 1 104.56 6.34
3 -10 2 4.4 1.5
3 -10 3 5.32 1.72
3 -10 4 128.44 7.85
3 -10 4 126.17 7.37
3 -10 5 17.48 3.18
3 -10 5 22 2.68
3 -10 5 17.5 3.16
3 -10 6 3.28 1.56
3 -10 6 2.8 1.21
3 -10 6 3.28 1.16
3 -10 7 21.09 2.91
3 -10 7 24.07 3.47
3 -10 7 26.89 3.81
3 -10 8 110.24 6.4
3 -10 8 117.37 7.93
3 -10 9 6.04 2.32
3 -10 9 -0.38 0.69
3 -10 10 27.97 3.14
3 -10 10 34.02 4.08
3 -10 11 2.58 1.11
3 -10 11 0.75 0.56
3 -10 12 17.44 1.84
3 -10 12 18.14 2.17
3 -10 13 29 1.85
3 -10 13 27.05 1.99
3 -9 -6 26.14 2.2
3 -9 -5 72.76 4.36
3 -9 -4 29.04 3.14
3 -9 -3 10.74 2.45
3 -9 -3 9.86 2.02
3 -9 -2 2.31 1.19
3 -9 -1 1.31 0.77
3 -9 -1 1.11 1.02
3 -9 0 123.12 5.81
3 -9 0 101.24 7.15
3 -9 0 114.68 6.72
3 -9 1 97.79 6.33
3 -9 1 98.83 5.21
3 -9 1 99.17 6.89
3 -9 2 167.49 8.87
3 -9 2 134.53 6.16
3 -9 3 24.6 3.37
3 -9 3 28.13 3.68
3 -9 4 426.3 14.03
3 -9 4 463.17 11.91
3 -9 4 416.29 13.56
3 -9 5 49.3 4.09
3 -9 5 41.57 4.46
3 -9 5 45.63 4.68
3 -9 6 73.01 5.93
3 -9 6 66.29 5.15
3 -9 6 71.58 10.19
3 -9 6 77.35 6.36
3 -9 7 6.47 2.04
3 -9 7 4.08 1.43
3 -9 8 29.78 4.04
3 -9 8 28.12 4.22
3 -9 9 13.01 2.73
3 -9 10 52.44 5
3 -9 11 16.77 2.55
3 -9 12 0.41 0.6
3 -9 13 8.86 1.25
3 -9 13 7.4 1.06
3 -8 -7 8.55 1.39
3 -8 -6 23.36 2.51
3 -8 -5 -0.87 0.89
3 -8 -4 14.45 2.44
3 -8 -4 11.69 2.24
3 -8 -3 7.99 1.88
3 -8 -3 7.51 1.75
3 -8 -3 8.04 2.21
3 -8 -2 407.24 14.49
3 -8 -2 338.9 10.49
3 -8 -1 12.95 2.45
3 -8 -1 11.4 1.88
3 -8 0 169.31 8.73
3 -8 0 156.59 7.98
3 -8 0 154.17 6.59
3 -8 1 52.27 4.74
3 -8 1 56.25 4.02
3 -8 2 -0.96 0.9
3 -8 2 0.33 0.6
3 -8 2 0.13 0.46
3 -8 3 1.02 0.75
3 -8 3 2.58 1.24
3 -8 4 39.09 3.52
3 -8 4 44.39 4.27
3 -8 5 273.22 9.65
3 -8 5 273.34 11.46
3 -8 6 42.81 4.12
3 -8 6 44.22 7.7
3 -8 6 47.68 5.04
3 -8 7 93.32 10.64
3 -8 7 82.15 5.36
3 -8 7 96.39 7.88
3 -8 8 7.87 2.69
3 -8 8 8.94 1.77
3 -8 9 54.32 4.51
3 -8 9 53.8 5.58
3 -8 10 8.73 2.13
3 -8 10 10.13 1.89
3 -8 11 0.2 0.74
3 -8 11 -0.03 0.48
3 -8 12 19.29 2.32
3 -8 12 27.15 2.57
3 -8 13 31.24 2.28
3 -7 -8 6.71 1.26
3 -7 -7 2.35 1.06
3 -7 -6 38.17 3.66
3 -7 -5 -0.19 1.19
3 -7 -5 1.7 1.12
3 -7 -4 13.08 2.56
3 -7 -4 10.02 2.06
3 -7 -4 8.81 2.32
3 -7 -3 12.77 2.93
3 -7 -3 18.19 2.59
3 -7 -2 188.09 9.88
3 -7 -2 182.46 7.48
3 -7 -2 172.77 7.95
3 -7 -1 0.14 0.44
3 -7 -1 0.28 0.74
3 -7 -1 2.49 1.08
3 -7 -1 0.43 0.88
3 -7 -1 1.37 1.62
3 -7 0 169.25 10.92
3 -7 1 427.66 15.89
3 -7 2 33.05 4.25
3 -7 3 0.95 0.47
3 -7 4 1.14 0.98
3 -7 6 87.38 7.05
3 -7 6 73.08 9.32
3 -7 7 159.59 13.34
3 -7 7 176.31 7.72
3 -7 7 173.2 10.77
3 -7 8 2.08 1.37
3 -7 8 1.2 0.89
3 -7 9 0.79 1.2
3 -7 9 -0.53 0.76
3 -7 10 4.29 1.73
3 -7 10 2.76 0.87
3 -7 11 9.65 1.94
3 -7 11 13.15 2.12
3 -7 12 19.86 2.29
3 -7 12 15.06 1.91
3 -7 13 85.58 3.99
3 -7 14 10.92 1.18
3 -6 -9 4.26 1.05
3 -6 -8 0.75 0.85
3 -6 -7 2.84 1.78
3 -6 -6 85.96 5.99
3 -6 -6 61.25 5.55
3 -6 -5 4.32 1.66
3 -6 -5 9.26 1.99
3 -6 -4 40.8 4.68
3 -6 -4 39.98 4.11
3 -6 -3 199.13 9.95
3 -6 -3 184.98 12.97
3 -6 -3 173.9 7.75
3 -6 -2 33.75 4.06
3 -6 -2 22.33 4.24
3 -6 -1 24.7 3.98
3 -6 -1 21.94 4.79
3 -6 0 37.51 4.61
3 -6 1 281.99 11.42
3 -6 2 14.62 2.53
3 -6 3 10.63 2.18
3 -6 4 231.02 10.97
3 -6 5 223.4 15.95
3 -6 5 245.74 12.38
3 -6 6 0.64 0.91
3 -6 7 168.38 13.09
3 -6 7 137.84 10.19
3 -6 8 41.58 4.05
3 -6 8 43.04 5.27
3 -6 9 395.74 12.46
3 -6 9 407.77 14.8
3 -6 10 56.36 4.59
3 -6 10 50.81 4.78
3 -6 11 -0.15 0.67
3 -6 12 15.96 2.17
3 -6 13 27.55 2.31
3 -5 -10 11.5 1.42
3 -5 -9 0.11 0.66
3 -5 -8 100.03 5.89
3 -5 -7 -0.59 0.86
3 -5 -6 2.01 1.18
3 -5 -6 3.11 1.32
3 -5 -5 113.84 6.66
3 -5 -5 117.19 7.05
3 -5 -4 17.82 3.19
3 -5 -4 23.65 4.64
3 -5 -3 626.1 21.77
3 -5 -2 85.95 7.32
3 -5 -2 82.06 8.2
3 -5 -1 69.4 6
3 -5 -1 67.52 7.93
3 -5 0 353.31 12.24
3 -5 0 356.59 18.88
3 -5 1 435.27 12.34
3 -5 2 2.91 1.03
3 -5 3 245.3 16.35
3 -5 3 224.08 9.48
3 -5 4 2.37 0.92
3 -5 4 1.66 0.74
3 -5 5 278.52 16.32
3 -5 5 282.33 13.19
3 -5 6 8.68 2.65
3 -5 6 8.29 3.21
3 -5 7 11.5 3.79
3 -5 8 11.47 2.23
3 -5 8 15.27 2.96
3 -5 9 1.87 1.17
3 -5 9 2.45 2.03
3 -5 9 0.15 0.83
3 -5 10 139.94 7.4
3 -5 11 0.62 0.66
3 -5 12 34.58 3.26
3 -5 13 -0.18 0.35
3 -5 13 -0.52 0.4
3 -4 -10 2.03 0.8
3 -4 -9 41.88 3.68
3 -4 -8 3.79 1.67
3 -4 -7 163.34 8.57
3 -4 -7 144.58 8.44
3 -4 -6 8.77 2.17
3 -4 -6 10.74 2.27
3 -4 -5 113.2 6.61
3 -4 -5 112.9 6.45
3 -4 -4 163.23 11.51
3 -4 -3 125.3 9.09
3 -4 -2 514.89 15.84
3 -4 -2 498.49 19.13
3 -4 -1 60.11 6.88
3 -4 -1 65.32 4.93
3 -4 -1 54.45 5.36
3 -4 0 61.34 5.13
3 -4 0 61.38 4.36
3 -4 0 67.16 7.65
3 -4 1 32.49 3.47
3 -4 1 30.56 5.3
3 -4 1 29.18 2.67
3 -4 2 501.76 13.71
3 -4 2 513.42 22.11
3 -4 2 555.75 13.1
3 -4 2 536.59 12.32
3 -4 3 71.75 5.6
3 -4 3 88.92 8.67
3 -4 3 86.17 5.32
3 -4 4 26.85 3.98
3 -4 4 28.61 4.92
3 -4 5 2.16 1.45
3 -4 5 0.83 0.77
3 -4 6 968.14 28.77
3 -4 7 62.17 8.98
3 -4 8 35.26 7
3 -4 8 46.45 4.42
3 -4 9 2.2 1.87
3 -4 9 2.19 1.13
3 -4 10 89.26 5.96
3 -4 11 1.67 0.92
3 -4 12 -1.13 0.77
3 -4 13 54.65 3.22
3 -3 -11 2.22 0.86
3 -3 -10 3.6 1.33
3 -3 -9 70.4 5.14
3 -3 -8 181.29 8.88
3 -3 -7 -0.61 0.72
3 -3 -7 1.65 0.75
-3 3 6 471.63 22.23
3 -3 -6 471.5 22.71
3 -3 -6 405.38 13.13
3 -3 -6 424.35 13.45
3 -3 -5 3.57 1.72
-3 3 5 3.3 1.7
3 -3 -4 82.02 7.84
-3 3 4 81.91 7.98
3 -3 -3 119.96 8.01
-3 3 3 114.29 8.36
3 -3 -2 744.59 16.74
-3 3 2 773.08 18.91
3 -3 -2 788.8 22.84
3 -3 -1 216.74 12.35
3 -3 -1 200.4 9.96
3 -3 -1 200.72 7.18
-3 3 1 202.21 8.17
3 -3 0 350.32 12.07
3 -3 0 356.51 8.3
3 -3 1 24.13 3.06
3 -3 1 38.37 3.87
3 -3 1 32.68 5.09
3 -3 2 742.67 24.07
3 -3 2 690.68 15.45
3 -3 2 707.9 17.14
3 -3 3 2.49 1.39
3 -3 3 1.7 1.3
3 -3 4 13.83 2.85
3 -3 4 15.65 3.5
3 -3 5 15.63 3.58
3 -3 6 195.58 14.65
3 -3 7 112.94 15.23
3 -3 8 3.41 1.46
3 -3 8 6.02 3.24
3 -3 9 154.8 14.93
3 -3 9 134.45 7.53
3 -3 10 0.26 0.57
3 -3 11 33.05 3.44
3 -3 12 1.63 0.8
3 -3 13 16.59 1.69
3 -2 -12 13.69 1.58
3 -2 -11 10.02 1.76
3 -2 -10 116.2 6.41
3 -2 -9 52.33 4.85
3 -2 -8 38.9 4.21
3 -2 -7 110 7.08
3 -2 -7 113.42 7.48
-3 2 7 118.58 11.2
3 -2 -6 251.34 9.86
3 -2 -6 240.45 9.33
-3 2 6 223.92 14.58
-3 2 5 93.5 8.83
-3 2 4 44.87 5.59
-3 2 3 13.47 2.86
3 -2 -2 0.57 0.41
-3 2 2 0.63 0.6
3 -2 -1 12.3 1.44
3 -2 -1 15.21 3.25
3 -2 -1 14.28 2.73
-3 2 1 14.83 2.07
3 -2 0 144.67 7.79
3 -2 0 156.26 10.45
-3 2 0 144.31 4.72
3 -2 1 3.48 1.16
3 -2 1 4.08 1.14
3 -2 1 3.58 1.44
3 -2 2 22.15 4.89
3 -2 2 21.67 2.84
3 -2 2 23.25 3.26
3 -2 3 889.56 21.99
3 -2 4 66.23 6.37
3 -2 5 51.28 6.49
3 -2 6 118.74 13.11
3 -2 7 104.9 14.27
3 -2 8 1.45 0.95
3 -2 8 1.41 2.28
3 -2 9 14.92 2.52
3 -2 10 39.85 4.06
3 -2 11 6.07 1.66
3 -2 12 -0.09 0.43
3 -2 13 0.39 0.3
3 -1 -12 9.5 1.53
3 -1 -11 28.22 3.01
3 -1 -10 30.71 3.56
3 -1 -9 83.66 6.02
3 -1 -8 19.67 3.04
-3 1 8 21.55 4.82
-3 1 7 11.5 3.38
3 -1 -7 6.86 2.34
3 -1 -7 6.99 1.93
-3 1 6 51.85 6.72
-3 1 5 83.39 7.92
-3 1 4 304.4 13.73
-3 1 3 14.77 2.87
-3 1 2 8.63 1.97
3 -1 -1 209.94 9.96
-3 1 1 197.38 7.56
-3 1 0 2.39 0.94
3 -1 0 2.55 1.14
3 -1 0 1.85 0.79
3 -1 1 230.39 10.1
3 -1 1 239.9 10.49
3 -1 2 147.31 8.99
3 -1 2 136.92 7.44
3 -1 3 156.87 9.76
3 -1 4 121.28 9.49
3 -1 5 51.44 7.05
3 -1 6 370.02 21.77
3 -1 7 12.12 2.41
3 -1 7 8.26 1.76
3 -1 7 11.04 4.1
3 -1 8 37.95 7.49
3 -1 8 15.63 2.83
3 -1 9 79.25 5.83
3 -1 10 9.35 1.89
3 -1 11 11.74 1.99
3 -1 12 34.42 2.79
3 0 -13 7.81 1.21
3 0 -12 1.75 1.12
3 0 -11 2.38 1.15
3 0 -10 47.82 4.58
3 0 -9 33.85 3.89
3 0 -8 58.14 5.24
-3 0 8 61.54 7.83
-3 0 7 -0.63 1.02
3 0 -7 -0.79 1.05
3 0 -7 0.4 0.8
-3 0 6 4.58 2.73
-3 0 5 85.26 7.79
-3 0 4 25.45 3.91
-3 0 3 4.18 1.67
-3 0 2 6.02 1.6
-3 0 1 3.23 1.11
3 0 -1 2.71 1.12
3 0 0 1487.76 27.35
3 0 0 1433.45 25.89
3 0 1 151.39 7.99
3 0 1 160.5 9.14
3 0 2 128.08 7.54
3 0 2 119.43 8.61
3 0 3 39.53 5.3
3 0 4 183.65 12.45
3 0 5 149.01 12.81
3 0 6 -0.14 1.36
3 0 7 4.78 2.65
3 0 7 2.75 0.83
3 0 7 1.98 1.13
3 0 8 18.84 5.41
3 0 8 15.09 2.21
3 0 8 14.5 2.52
3 0 9 26.15 3.28
3 0 10 4.82 1.42
3 0 11 2.17 0.86
3 0 12 1.89 0.64
3 1 -13 15.59 1.92
3 1 -12 -0.37 0.95
3 1 -11 -0.21 0.81
3 1 -10 1.57 1.13
3 1 -9 162.21 8.62
-3 -1 9 175.95 13.44
3 1 -8 0.93 0.8
-3 -1 8 1.79 1.43
-3 -1 7 79.11 8.33
-3 -1 6 102.36 8.95
-3 -1 5 105.88 8.46
-3 -1 4 113.1 7.93
-3 -1 3 57.51 5.21
3 1 -2 231.47 11.51
3 1 -1 791.45 20.37
3 1 0 146.58 9
3 1 0 130.84 8.28
3 1 1 56.56 5.81
-3 -1 -1 58.23 3.21
3 1 1 67.7 5.69
-3 -1 -2 39.63 3.46
3 1 2 34.97 4.49
3 1 2 45.25 5.61
-3 -1 -3 32.81 4.07
3 1 3 33.24 5.13
3 1 4 127.13 11.12
3 1 5 3.27 2.42
3 1 6 139.63 13.78
3 1 6 129.3 6.74
3 1 7 0.96 1.08
3 1 7 0.16 0.53
3 1 8 20.1 2.61
3 1 8 21.57 3.16
3 1 9 83.94 5.77
3 1 10 21.48 2.72
3 1 11 17.79 2.07
3 2 -13 66.97 4.31
3 2 -12 2.71 1.33
3 2 -11 12 2.48
3 2 -10 252.33 10.65
-3 -2 9 -0.3 1.49
3 2 -9 0.02 0.87
3 2 -8 23.26 3.17
-3 -2 8 39.91 6.29
-3 -2 7 18.18 3.94
-3 -2 6 150.23 10.54
-3 -2 5 110.94 8.64
-3 -2 4 5.11 1.6
3 2 -3 2.45 1.46
3 2 -2 224.6 11.59
-3 -2 2 223.59 7.3
-3 -2 1 18.14 1.91
3 2 -1 22.96 3.46
3 2 0 335.66 14.16
-3 -2 0 312.53 8.28
-3 -2 -1 327 10.14
3 2 1 308.58 12.29
3 2 1 333.69 14.56
-3 -2 -2 199.22 9.19
3 2 2 208.27 12.54
-3 -2 -3 15.36 3.3
3 2 3 18.12 4.01
-3 -2 -4 75.72 7.9
3 2 4 75.83 9.05
-3 -2 -5 12.1 3.66
3 2 5 13.26 4.21
3 2 6 1.43 1.85
3 2 6 0.62 0.67
3 2 6 1.28 0.93
3 2 7 1.32 1.42
3 2 7 0.64 0.89
3 2 7 2.83 1.19
3 2 8 154.09 8.03
3 2 8 144.82 6.73
3 2 9 17.95 2.61
3 2 10 0.65 0.59
3 2 11 14.24 1.57
3 3 -14 26.15 2.09
3 3 -13 15.58 2.15
3 3 -12 48.57 4.49
-3 -3 11 13.08 1.76
3 3 -11 7.45 1.88
3 3 -10 31.07 3.96
-3 -3 9 5.19 2.3
3 3 -9 4.77 1.62
3 3 -8 17.41 2.62
-3 -3 8 35.84 5.95
-3 -3 7 2.79 1.73
-3 -3 6 176 11.65
-3 -3 5 19.74 3.7
-3 -3 4 407.31 13.84
3 3 -4 432.44 18.51
3 3 -3 40.87 5.2
-3 -3 3 35.59 3.62
-3 -3 2 6.99 1.52
3 3 -2 8.62 2.37
3 3 -1 63.66 6.19
-3 -3 1 55.43 4.06
3 3 0 2.02 1.11
-3 -3 0 0.9 0.81
3 3 0 0.51 0.98
3 3 1 459.49 16.09
-3 -3 -1 476.74 14.69
3 3 1 474.7 18.2
3 3 2 3.74 1.64
-3 -3 -2 4.93 1.81
3 3 3 258.94 15.91
-3 -3 -3 254.32 13.74
3 3 4 109.02 11.44
-3 -3 -4 101.13 9.91
3 3 5 109.7 12.11
3 3 5 81.98 6.8
3 3 6 5.1 3.03
3 3 6 4.24 1.57
3 3 6 4.93 1.69
3 3 7 58.13 5.1
3 3 7 41 4.1
3 3 8 6.78 1.36
3 3 8 7.74 1.82
3 3 9 24.18 2.82
3 3 10 -0.33 0.47
3 4 -14 1.81 0.8
3 4 -13 45.36 3.85
-3 -4 12 27.74 2.21
3 4 -12 28.88 3.55
3 4 -11 55.85 5.27
-3 -4 11 68.77 3.86
3 4 -10 202.85 10.15
3 4 -9 30.7 4.24
-3 -4 9 67.07 8.57
3 4 -8 230.49 10.16
3 4 -8 237.54 9.14
-3 -4 7 4.7 2.33
-3 -4 6 17.67 3.86
-3 -4 5 42.13 5.19
3 4 -5 42.81 6.22
3 4 -4 27.94 4.77
-3 -4 4 27.63 3.78
3 4 -3 911.2 24.93
-3 -4 3 862.67 20.06
3 4 -2 329.32 14.56
-3 -4 2 290.32 11.03
3 4 -1 953.6 22.74
-3 -4 1 937.54 20.01
3 4 0 16.33 3.55
3 4 0 20.56 3.4
-3 -4 0 20.05 3.33
-3 -4 -1 523.94 17.7
3 4 1 525.66 20.42
-3 -4 -2 37.24 5.32
3 4 2 35.42 5.56
-3 -4 -3 41.35 6.1
3 4 3 39.9 6.48
3 4 4 12.05 2.03
3 4 4 9.88 2.53
3 4 5 197.41 8.62
3 4 5 231.73 11.15
3 4 6 2.27 1.19
3 4 6 2.74 1.38
3 4 7 71.98 5.13
3 4 7 87.36 6
3 4 8 30.19 2.73
3 4 8 37.37 3.58
3 4 9 -0.7 0.64
3 4 10 0.24 0.26
3 5 -13 0.16 0.66
-3 -5 13 1.01 0.78
-3 -5 12 2.77 1.2
3 5 -12 -0.27 0.96
-3 -5 11 15.74 2.47
3 5 -11 5.81 1.72
3 5 -10 14.49 2.85
-3 -5 9 4.05 2.5
3 5 -9 3.75 1.65
-3 -5 8 0.19 0.86
3 5 -8 -1.14 1.38
3 5 -7 273.28 17.58
-3 -5 7 322.01 17.81
-3 -5 6 446.58 18.59
3 5 -6 368.96 19.14
3 5 -5 251.83 14.75
-3 -5 5 281.87 13.87
-3 -5 4 0.11 0.89
3 5 -4 -0.97 1.19
-3 -5 3 153.37 9.35
3 5 -3 166.95 10.76
3 5 -2 490.59 16.74
-3 -5 2 499.37 16.34
-3 -5 1 6.66 1.9
3 5 -1 3.75 1.37
-3 -5 0 103.32 8.35
3 5 1 407.44 18.78
-3 -5 -1 385.12 17.09
-3 -5 -2 1.71 1.29
3 5 2 9.56 3.98
3 5 3 7.14 1.75
3 5 4 103.32 6.55
3 5 4 110.65 8.64
3 5 5 2.54 1.32
3 5 6 12.27 2.42
3 5 6 9.82 2.22
3 5 7 10.97 1.93
3 5 7 5.83 1.47
3 5 8 213.4 7.53
3 5 9 1.25 0.54
-3 -6 13 0.1 0.47
-3 -6 12 -0.37 0.61
3 6 -12 -0.06 0.85
-3 -6 11 65.26 3.95
3 6 -11 59.12 5.69
-3 -6 10 7.38 1.87
3 6 -10 5 1.67
3 6 -9 1.89 0.99
3 6 -8 16.98 3.16
-3 -6 8 23.76 5.2
-3 -6 7 0.14 1.24
3 6 -7 1.9 1.04
-3 -6 6 114.25 9.92
-3 -6 5 20.34 3.95
-3 -6 4 371.71 16.55
-3 -6 3 0.22 0.78
-3 -6 2 3 1.48
-3 -6 1 15.09 3.42
-3 -6 0 26.1 4.77
3 6 1 0.56 0.82
-3 -6 -1 0.36 0.92
3 6 1 1.38 0.78
3 6 2 49.99 4.45
3 6 3 2.71 1.47
3 6 4 98.8 6.67
3 6 4 127.49 8.87
3 6 5 2.06 1.31
3 6 6 3.49 1.47
3 6 6 3.68 1.24
3 6 7 5.14 1.14
3 6 7 3.5 1.06
3 6 8 3.02 0.79
-3 -7 14 0.5 0.42
-3 -7 13 10.71 1.36
-3 -7 12 31.39 2.55
-3 -7 11 0.24 0.64
3 7 -11 -0.97 1.45
-3 -7 10 30.48 3
3 7 -10 31.78 4.64
-3 -7 9 22.07 2.58
3 7 -9 12.38 2.96
-3 -7 8 427.03 22.69
-3 -7 7 76.01 9.06
3 7 -7 47.79 4.09
3 7 -6 42.69 3.8
-3 -7 6 63.44 7.78
3 7 -5 44.31 3.75
-3 -7 5 41.32 6.09
3 7 -4 17.89 2.39
-3 -7 4 13.49 3.39
-3 -7 3 1.12 0.6
3 7 -3 0.78 0.62
-3 -7 2 147.5 11.17
3 7 -2 124.69 6.27
-3 -7 1 117.17 10.2
3 7 -1 133.97 6.56
3 7 0 14.29 2.51
-3 -7 0 11.82 3.6
3 7 0 13.66 2.39
3 7 1 8.16 1.92
3 7 1 9.35 2.01
3 7 2 1.5 1.06
-3 -7 -3 4.81 1.48
3 7 3 3.69 1.4
3 7 4 33.98 4.56
3 7 5 169.48 8.29
3 7 6 0.72 0.71
3 7 6 0.27 0.5
3 7 7 19.98 1.54
3 7 7 20.21 1.92
-3 -8 13 1.58 0.7
-3 -8 12 8.99 1.47
-3 -8 11 12.58 1.91
-3 -8 10 1.58 0.74
-3 -8 9 22.75 2.42
-3 -8 8 6.43 1.51
-3 -8 7 21.74 2.56
3 8 -6 -0.55 0.61
-3 -8 6 -0.21 1.03
-3 -8 5 107.93 7.53
3 8 -5 120.82 6.32
-3 -8 5 125.85 11.26
3 8 -4 75.96 5.14
-3 -8 4 86.09 9.28
-3 -8 3 12.2 3.64
3 8 -3 16.1 2.48
3 8 -2 6.52 1.63
3 8 -1 0 0.69
3 8 0 128.74 7.95
3 8 0 136.17 7.4
3 8 1 140.49 7.65
3 8 2 7.36 1.83
-3 -8 -2 4.59 1.35
-3 -8 -3 39.47 3.57
3 8 3 41.73 5.04
3 8 4 54.63 4.87
3 8 5 2.51 1.1
3 8 5 4.01 1.17
3 8 6 9.26 1.17
3 8 6 7.33 1.13
-3 -9 13 0.14 0.48
-3 -9 13 1.26 0.77
-3 -9 12 8.39 1.44
-3 -9 12 9.49 1.92
-3 -9 11 122.35 5.06
-3 -9 10 88.49 4.47
-3 -9 9 28.98 2.89
-3 -9 8 38.6 3.54
-3 -9 7 2.26 1.38
-3 -9 6 9.11 2.23
3 9 -6 12.12 2.25
-3 -9 5 0.34 0.75
3 9 -5 0.41 0.74
3 9 -4 16.17 2.53
3 9 -3 0.74 1
3 9 -2 40.64 4.14
3 9 -1 23.83 3.7
3 9 -1 29.18 3.52
3 9 0 2.89 1.45
3 9 0 4.74 1.56
3 9 1 76.84 5.87
-3 -9 -1 77.81 5.11
-3 -9 -2 29.69 3.22
-3 -9 -3 9.12 1.54
3 9 3 10.66 2.25
3 9 4 10.71 1.83
3 9 4 9.07 1.72
3 9 5 36.54 2.35
3 9 5 31.39 2.16
-3 -10 13 3.63 0.7
-3 -10 13 0.57 0.57
-3 -10 12 0.26 0.59
-3 -10 12 1.46 0.6
-3 -10 11 3.33 1.16
-3 -10 11 7.6 1.21
-3 -10 10 2.37 0.89
-3 -10 10 3.14 1.47
-3 -10 9 0.64 0.97
-3 -10 9 0.26 0.68
-3 -10 8 252.22 11.19
-3 -10 7 16.11 2.91
-3 -10 6 13.14 2.74
3 10 -6 12.66 2.54
-3 -10 5 6.14 1.86
3 10 -5 8.03 2.03
3 10 -4 39.47 4.29
3 10 -3 58.34 5.12
3 10 -2 44.62 5.01
3 10 -2 45.48 4.54
3 10 -1 23.12 3.32
3 10 -1 24.44 3.33
3 10 0 40.78 4.26
-3 -10 0 51.2 4.15
-3 -10 -1 131.81 6.24
-3 -10 -2 21.73 2.31
3 10 2 18.94 2.9
3 10 3 13.85 1.84
3 10 3 10.54 1.75
-3 -11 12 46.99 3.09
-3 -11 11 14.79 1.56
-3 -11 11 11.75 1.85
-3 -11 10 0.63 0.82
-3 -11 9 15.94 2.54
-3 -11 8 4.19 1.47
-3 -11 7 4.49 1.35
-3 -11 6 23.13 3.21
-3 -11 5 47.67 4.34
3 11 -5 49.46 4.55
3 11 -4 29.58 3.56
3 11 -3 15.9 2.78
3 11 -3 16.51 2.68
3 11 -2 76.04 5.53
3 11 -2 70.51 5.31
3 11 -1 -0.71 1.15
-3 -11 1 -0.08 0.69
-3 -11 0 -0.46 0.64
-3 -11 -1 39.58 2.86
3 11 1 25.28 2.97
3 11 2 47.79 2.87
-3 -12 11 20.34 2.03
-3 -12 10 17.57 2.26
-3 -12 9 13.61 2.15
-3 -12 8 6.47 1.67
-3 -12 7 16.93 2.44
-3 -12 6 108.11 5.79
3 12 -5 5.93 1.73
3 12 -5 5.73 1.38
3 12 -4 2.8 1.29
3 12 -4 1.34 0.64
3 12 -3 48.93 4.02
-3 -12 2 141.25 5.87
-3 -12 1 71.09 3.92
-3 -12 0 0.16 0.51
3 12 0 -1.05 0.73
3 13 -9 1.94 0.86
3 13 -8 27.55 2.89
-3 -13 8 16.46 1.8
3 13 -7 -1.12 0.94
3 13 -6 25.82 2.94
-3 -13 6 21.67 1.98
-3 -13 5 35.03 2.63
3 13 -5 36.27 3.23
3 13 -4 2.49 0.75
-3 -13 4 2.72 0.86
-3 -13 3 6.65 1.1
-3 -13 2 1.06 0.54
4 -13 1 4.89 0.96
4 -13 2 -0.23 0.44
4 -13 2 -0.27 0.47
4 -13 3 37.66 2.9
4 -13 4 23.71 2.35
4 -13 5 6.85 1.28
4 -13 6 53.98 3.18
4 -13 7 50 3.18
4 -13 8 1.98 0.75
4 -13 9 10.78 1.47
4 -12 -1 0.06 0.54
4 -12 0 45.93 3.18
4 -12 1 42.57 3.43
4 -12 2 19.8 2.5
4 -12 3 63.99 4.58
4 -12 4 5.72 1.38
4 -12 5 7.59 1.5
4 -12 5 5 1.3
4 -12 6 32.87 3.12
4 -12 6 32.1 3.35
4 -12 7 0.93 0.77
4 -12 8 3.12 1.22
4 -12 9 2.65 1.01
4 -12 10 2.47 0.87
4 -12 11 3.51 0.82
4 -11 -3 92.79 3.83
4 -11 -2 3.84 1.06
4 -11 -1 42.42 3.43
4 -11 0 24.88 2.97
4 -11 1 39.9 3.9
4 -11 2 48.27 4.36
4 -11 3 9.13 1.99
4 -11 3 16.09 1.85
4 -11 4 42.03 4.17
4 -11 4 51.72 4.4
4 -11 5 1.01 0.86
4 -11 5 1.78 0.92
4 -11 5 0.19 0.42
4 -11 6 4.54 1.66
4 -11 6 4.18 1.09
4 -11 7 1.75 1.3
4 -11 7 6.49 1.75
4 -11 8 6.06 1.85
4 -11 8 6.47 1.46
4 -11 9 22.06 2.55
4 -11 9 30.23 3.36
4 -11 10 9.85 1.45
4 -11 10 12.37 2.03
4 -11 11 0.92 0.56
4 -11 11 -0.07 0.33
4 -10 -4 0.56 0.71
4 -10 -3 83.93 4.54
4 -10 -2 1.45 1.18
4 -10 -2 3.71 1.5
4 -10 -1 34.72 3.78
4 -10 -1 46.34 3.35
4 -10 0 46.95 4.41
4 -10 0 56.71 3.74
4 -10 1 0.48 0.63
4 -10 1 -0.05 0.63
4 -10 2 0.14 0.7
4 -10 2 0 0.52
4 -10 3 25.44 2.72
4 -10 3 18.71 2.88
4 -10 3 23.02 3.27
4 -10 4 43.08 4.39
4 -10 4 38.38 3.44
4 -10 4 48.03 4.65
4 -10 5 15.72 2.79
4 -10 5 24.91 2.97
4 -10 5 19.59 3.59
4 -10 6 8.57 2.29
4 -10 6 4.2 1.07
4 -10 7 -0.07 0.92
4 -10 7 0.45 0.55
4 -10 8 26.66 3.25
4 -10 8 28.11 3.93
4 -10 9 3.5 1.34
4 -10 9 2.19 1
4 -10 10 0.78 0.66
4 -10 10 0.93 0.81
4 -10 11 11.86 1.76
4 -10 11 9.68 1.68
4 -10 12 67.9 3.05
4 -10 12 62.58 3.24
4 -9 -6 0.72 0.46
4 -9 -5 1.3 0.85
4 -9 -4 13.89 2.05
4 -9 -4 7.74 1.24
4 -9 -3 12.37 1.98
4 -9 -3 15.92 2.34
4 -9 -2 83.58 6.06
4 -9 -2 96.56 5.2
4 -9 -2 85 5.59
4 -9 -1 18.77 2.98
4 -9 -1 30.75 3.04
4 -9 0 156.83 8.52
4 -9 0 169.41 6.79
4 -9 1 0.94 0.91
4 -9 1 0.3 0.58
4 -9 2 1.53 1.15
4 -9 2 0.26 0.69
4 -9 2 0.28 0.62
4 -9 3 194.71 9.24
4 -9 3 189.37 7.84
4 -9 3 197.35 9.68
4 -9 4 31.46 3.84
4 -9 4 23.67 2.81
4 -9 4 26.43 3.56
4 -9 5 0.49 0.7
4 -9 5 -0.06 0.65
4 -9 6 21.1 2.83
4 -9 6 20.58 3.48
4 -9 7 24.82 3.18
4 -9 7 25.14 4.04
4 -9 8 34.73 3.97
4 -9 8 33.14 4.47
4 -9 9 3.16 1.49
4 -9 9 2.96 1.33
4 -9 10 0.43 0.79
4 -9 10 -0.1 0.69
4 -9 11 1.5 0.72
4 -9 11 1.1 0.83
4 -9 12 0.06 0.46
4 -9 12 -0.4 0.48
4 -9 13 36.98 1.95
4 -8 -7 -0.49 0.47
4 -8 -6 1.49 0.72
4 -8 -5 28.42 2.81
4 -8 -5 34.95 3.29
4 -8 -4 167.01 7.48
4 -8 -4 180.31 7.98
4 -8 -3 3.75 1.21
4 -8 -3 2.24 0.76
4 -8 -2 6.24 1.86
4 -8 -2 13.43 2.09
4 -8 -1 107.32 7.05
4 -8 -1 115.73 5.91
4 -8 0 20.31 3.05
4 -8 0 18.3 2.4
4 -8 0 11.88 3.89
4 -8 1 127.41 6.42
4 -8 1 115.86 7.14
4 -8 1 108.27 13.21
4 -8 1 123.96 7.76
4 -8 2 26.56 3.32
4 -8 2 28.31 2.95
4 -8 2 25.58 7.87
4 -8 2 25.52 3.41
4 -8 3 12.91 2.27
4 -8 3 13.6 2.05
4 -8 3 12.87 6.57
4 -8 3 14.19 2.42
4 -8 4 39.63 8.43
4 -8 4 41.5 3.97
4 -8 4 52.99 4.93
4 -8 5 53.02 4.45
4 -8 5 59.65 9.56
4 -8 5 53.03 5.24
4 -8 6 351.18 11.98
4 -8 6 362.92 14.32
4 -8 7 259.02 11.15
4 -8 7 277.29 13.41
4 -8 8 1.62 1.41
4 -8 8 2.49 1.19
4 -8 9 216.44 10.47
4 -8 10 5.18 1.59
4 -8 11 8.65 1.67
4 -8 12 9.11 1.65
4 -8 13 15.35 1.52
4 -7 -8 0.41 0.43
4 -7 -7 2.79 0.97
4 -7 -6 48.38 3.71
4 -7 -6 74.99 4.95
4 -7 -5 87.98 5.68
4 -7 -5 91.95 5.87
4 -7 -4 21.28 3.83
4 -7 -4 13.31 2.34
4 -7 -3 9.3 2.38
4 -7 -3 13.24 2.41
4 -7 -3 8.84 1.87
4 -7 -2 9.09 2.28
4 -7 -2 2.34 0.94
4 -7 -1 -0.5 0.87
4 -7 -1 -0.4 0.71
4 -7 0 3.41 0.93
4 -7 0 1.94 0.98
4 -7 1 221.23 9.48
4 -7 1 241.58 8.73
4 -7 1 215.79 18.28
4 -7 1 240.49 10.5
4 -7 2 48.01 3.83
4 -7 2 44.24 9.68
4 -7 2 47.45 4.75
4 -7 3 39.99 3.58
4 -7 3 33.44 7.81
4 -7 3 39.92 4.2
4 -7 4 82.67 5.37
4 -7 4 67.25 10.25
4 -7 4 86.16 6.24
4 -7 5 480.2 13.97
4 -7 5 497.88 26.1
4 -7 5 491.02 15.69
4 -7 6 26.94 3.33
4 -7 6 34.56 4.75
4 -7 7 266.66 18.02
4 -7 7 268.56 14.56
4 -7 8 21.64 3.97
4 -7 9 37.12 4.39
4 -7 10 72.03 4.62
4 -7 10 68.76 5.27
4 -7 11 -0.57 0.78
4 -7 11 0.76 0.54
4 -7 12 87.8 3.77
4 -7 13 0.77 0.48
4 -6 -9 12.07 1.26
4 -6 -8 3.84 1.05
4 -6 -7 220.64 8.4
4 -6 -6 -1.1 1.32
4 -6 -6 -1.04 1.08
4 -6 -5 16.89 2.72
4 -6 -5 9.81 2.16
4 -6 -4 52.54 4.59
4 -6 -4 46.54 4.36
4 -6 -3 1202.45 21.99
4 -6 -3 1204.16 24.41
4 -6 -3 1205.79 19.82
4 -6 -2 541.66 16.02
4 -6 -2 548.78 12.76
4 -6 -1 41.26 4.17
4 -6 -1 44.12 3.57
4 -6 -1 32.66 6.01
4 -6 0 14.31 2.01
4 -6 0 8.68 3.55
4 -6 1 151.67 14.54
4 -6 2 31.94 7.16
4 -6 3 61.83 9.52
4 -6 4 47.31 7.97
4 -6 5 4.04 1.46
4 -6 5 4.35 1.46
4 -6 5 3.04 2.16
4 -6 6 225.98 9.89
4 -6 6 206.12 15.81
4 -6 7 6.93 2.29
4 -6 7 11.97 2.52
4 -6 8 131.1 8.46
4 -6 8 151.14 9.33
4 -6 9 13.24 2.68
4 -6 9 15.22 2.67
4 -6 10 2.03 1.14
4 -6 10 0.73 0.82
4 -6 10 1.08 0.42
4 -6 11 6.81 1.62
4 -6 11 9.54 1.55
4 -6 12 3.14 0.81
4 -6 12 3.91 0.75
4 -6 13 3.65 0.84
4 -5 -9 -0.09 0.66
4 -5 -8 82.38 4.97
4 -5 -7 38.59 4.01
4 -5 -7 59.81 4.86
4 -5 -6 96.86 6.5
4 -5 -6 101.45 6.59
4 -5 -5 4.17 1.66
4 -5 -5 4.38 1.37
4 -5 -4 115.44 6.39
4 -5 -4 120.26 6.96
4 -5 -3 60.47 4.66
4 -5 -3 58.48 5.29
4 -5 -3 54.05 4.1
4 -5 -2 74.11 4.47
4 -5 -2 62.74 8.22
4 -5 -2 60.31 5.02
4 -5 -1 89.97 9.69
4 -5 0 48.12 7.53
4 -5 1 190.17 15.08
4 -5 2 113.99 12.21
4 -5 3 4.69 3.01
4 -5 4 109.83 11.43
4 -5 5 64.96 8.51
4 -5 6 22.69 4.66
4 -5 6 20.93 3.28
4 -5 6 21.69 2.55
4 -5 6 19.99 3.63
4 -5 7 38.14 6.88
4 -5 7 34.42 3.25
4 -5 7 25.57 4
4 -5 8 1.71 1.33
4 -5 8 3.96 1.55
4 -5 9 54.4 4.33
4 -5 10 9.86 1.86
4 -5 11 1.85 0.88
4 -5 11 1.73 0.69
4 -5 12 12.88 1.86
4 -5 12 16.88 1.73
4 -5 13 13.61 1.51
4 -4 -10 35.93 2.6
4 -4 -9 -0.98 0.96
4 -4 -8 15.93 2.69
4 -4 -7 17.91 2.94
4 -4 -7 26.4 3.56
4 -4 -6 20.98 3.37
4 -4 -6 31.28 3.72
4 -4 -5 70.95 5.78
4 -4 -5 55.68 5.04
4 -4 -4 45.07 3.78
4 -4 -4 50.13 4.97
4 -4 -3 54.77 3.91
4 -4 -3 41.29 6.33
4 -4 -2 49.94 6.34
4 -4 -1 26.54 4.45
4 -4 -1 28.73 5.47
4 -4 0 55.35 5.92
4 -4 0 56.04 7.6
4 -4 1 173.15 9.48
4 -4 1 178.08 13.88
4 -4 2 187.31 9.4
4 -4 2 203.89 14.93
4 -4 3 165.44 13.32
4 -4 3 153.57 9.68
4 -4 4 1.14 0.96
4 -4 5 268.16 15.27
4 -4 6 13.94 3.96
4 -4 6 16.02 2.08
4 -4 7 0.14 1.16
4 -4 7 0.94 0.5
4 -4 8 21.03 5.88
4 -4 8 28.04 2.69
4 -4 9 41.2 3.21
4 -4 9 42.36 3.91
4 -4 10 2.06 0.87
4 -4 11 4.91 1.2
4 -4 12 -0.25 0.52
4 -4 12 0.48 0.35
4 -3 -11 38.68 2.39
4 -3 -10 21.83 2.42
4 -3 -9 1.08 0.73
4 -3 -8 -1.06 1.09
4 -3 -7 33.16 3.91
4 -3 -7 28.73 3.99
-4 3 6 13.15 3.78
4 -3 -6 14.51 2.6
4 -3 -6 11.14 2.56
4 -3 -5 15.24 3.28
4 -3 -5 19.37 3.19
-4 3 5 25.13 4.97
4 -3 -4 246.7 8.55
-4 3 4 258.04 14.41
4 -3 -3 51.94 6.99
-4 3 3 64.63 6.5
4 -3 -2 65 7.22
4 -3 -1 166.52 10.64
4 -3 0 76.06 6.89
4 -3 1 1326.23 27.84
4 -3 2 179.66 10.46
4 -3 2 152.95 8.76
4 -3 3 57.18 5.48
4 -3 3 53.38 5.78
4 -3 4 0.12 1
4 -3 5 53.07 7.13
4 -3 6 0.83 1.76
4 -3 6 1.16 0.81
4 -3 7 1.94 2.6
4 -3 7 -0.21 0.81
4 -3 8 20.09 6.28
4 -3 8 19.8 2.44
4 -3 9 32.26 2.81
4 -3 9 38.56 3.78
4 -3 10 0.22 0.52
4 -3 11 4.03 1.02
4 -3 12 4.02 0.82
4 -2 -11 11.96 1.66
4 -2 -10 117.66 6.07
4 -2 -9 1.1 1.05
4 -2 -8 163.5 8.66
4 -2 -8 169.43 8.62
-4 2 7 14.37 4.03
4 -2 -7 9.79 2.11
4 -2 -7 11.41 2.43
4 -2 -6 21.86 3.68
4 -2 -6 22.96 3.8
-4 2 6 18.68 4.48
4 -2 -5 0.57 0.71
4 -2 -5 0.01 0.87
-4 2 4 32.07 4.79
4 -2 -3 104.39 9.48
-4 2 3 114.45 8.17
4 -2 -2 223.33 13.41
-4 2 2 268.49 10.74
4 -2 -1 55.33 6.27
4 -2 0 5.34 1.96
4 -2 1 7.18 2.08
4 -2 1 7.07 2.39
4 -2 2 0.48 0.71
4 -2 2 0.35 0.7
4 -2 3 34.76 4.57
4 -2 3 30.05 4.52
4 -2 4 42.48 5.97
4 -2 5 1297.03 37.67
4 -2 6 -0.61 2.1
4 -2 6 0.11 0.65
4 -2 7 0.15 2.65
4 -2 7 0.09 0.55
4 -2 8 0.91 0.61
4 -2 9 82.92 4.74
4 -2 9 90.54 5.78
4 -2 10 0.95 0.66
4 -2 11 41.69 3.11
4 -2 12 1.58 0.53
4 -1 -12 -0.3 0.54
4 -1 -11 7.75 1.51
4 -1 -10 36.22 3.6
4 -1 -9 47.31 4.38
4 -1 -8 156.84 8.46
4 -1 -8 172.21 8.68
-4 1 7 11.87 3.53
4 -1 -7 12.64 2.55
4 -1 -7 9.05 2.36
-4 1 6 2.62 1.71
4 -1 -6 4.6 2.36
4 -1 -6 2.73 1.23
-4 1 5 497.96 20.29
-4 1 4 55.07 6.22
-4 1 3 6.8 2.13
4 -1 -3 6.2 2.42
4 -1 -2 115 9
-4 1 2 118.8 7.17
4 -1 -1 713.3 21.87
4 -1 0 75.11 6.99
4 -1 1 60.3 6.4
4 -1 1 66.44 6.01
4 -1 2 86.29 6.82
4 -1 2 90.57 7.74
4 -1 3 3.69 2.02
4 -1 4 66.84 7.98
4 -1 5 159.43 13.88
4 -1 6 20.12 5.6
4 -1 6 24.25 3.36
4 -1 7 55.55 10.56
4 -1 7 55.22 4.54
4 -1 8 13.94 2.2
4 -1 8 21.42 2.83
4 -1 9 30.52 2.89
4 -1 9 30.77 3.24
4 -1 10 12.11 1.87
4 -1 11 18.76 1.97
4 -1 12 5.7 1.09
4 0 -12 25.22 2.38
4 0 -11 17.71 2.47
4 0 -10 38.68 3.96
4 0 -9 74.01 5.58
4 0 -8 12.91 2.52
4 0 -7 40.18 4.15
-4 0 7 26.13 5.12
4 0 -6 51.36 4.76
-4 0 6 72.68 8.09
-4 0 5 186.96 12.21
-4 0 4 223.25 12.65
4 0 -3 36.25 5.45
-4 0 3 36.46 4.67
4 0 -2 75.75 7.39
-4 0 2 72.02 5.88
4 0 -1 170.88 10.84
4 0 0 1.71 1.29
4 0 1 352.11 16.14
4 0 1 332.62 14.05
4 0 2 1020.82 24.2
4 0 2 972.79 27.16
4 0 3 -0.1 1.48
4 0 4 80.8 9.33
4 0 5 30.43 6.32
4 0 5 14.05 2.32
4 0 6 326.73 10.66
4 0 6 342.61 23.54
4 0 6 310.06 10.86
4 0 7 25.44 6.91
4 0 7 17 2.77
4 0 8 327.15 10.59
4 0 8 344.75 11.12
4 0 9 182.28 6.78
4 0 9 174.73 7.49
4 0 10 83.58 4.59
4 0 11 16.35 1.64
4 1 -12 16.4 2.12
4 1 -11 89.17 5.67
4 1 -10 20.72 3.04
4 1 -9 50.57 4.66
4 1 -8 14.63 2.57
-4 -1 8 19.92 4.48
4 1 -7 57.55 5.06
4 1 -7 70.44 5.23
-4 -1 7 50.06 6.87
-4 -1 6 1.32 1.4
-4 -1 5 16.28 3.57
4 1 -4 810.03 28.21
-4 -1 4 765.51 23.04
4 1 -3 677.01 23.8
-4 -1 3 642.12 19.71
-4 -1 2 500.35 16.19
4 1 -2 515.4 20.16
4 1 -1 306.92 15.24
4 1 0 2.1 1.5
4 1 0 2.26 1.1
4 1 1 867.24 26.64
4 1 1 818.17 22.71
4 1 2 136.47 9.59
4 1 2 129.8 10.56
4 1 3 107.02 10.13
4 1 4 309.47 19
4 1 5 -0.16 0.83
4 1 5 0.87 1.23
4 1 6 43.18 3.97
4 1 6 49.61 4.57
4 1 7 130.4 7.04
4 1 8 0.01 0.85
4 1 8 1.51 0.55
4 1 9 110.29 5.01
4 1 9 131.04 6.13
4 1 10 0.54 0.52
4 2 -13 32.07 2.41
4 2 -12 15.29 2.18
-4 -2 11 16.96 1.71
4 2 -11 12.56 2.35
4 2 -11 14.09 2.01
4 2 -10 -0.15 0.91
4 2 -9 50.47 4.73
4 2 -8 257.31 10.27
-4 -2 8 265.47 16.59
4 2 -7 30.62 3.35
-4 -2 7 34.42 5.74
-4 -2 6 4.54 1.87
4 2 -5 111.27 11.42
-4 -2 5 107.28 9.21
-4 -2 4 4.08 1.79
4 2 -4 4.36 2.18
4 2 -3 117.56 10.22
-4 -2 3 106.23 8.25
4 2 -2 179.26 12.26
4 2 -1 4611.7 61.17
4 2 0 1678.64 38.01
4 2 0 1657.01 33.99
4 2 1 9.15 2.76
4 2 1 3.21 1.57
4 2 2 25.25 5.01
4 2 3 211.05 14.75
4 2 4 6.68 2.79
4 2 4 4.21 1.32
4 2 4 3.82 1.49
4 2 5 51.9 4.39
4 2 5 56.13 5.22
4 2 6 10.06 2.04
4 2 6 10.09 2.29
4 2 7 180.14 8.14
4 2 7 162.87 7.66
4 2 8 1.21 0.84
4 2 8 -0.1 0.47
4 2 9 -0.38 0.62
4 2 9 -0.05 0.57
4 2 10 -0.1 0.27
4 3 -13 16.51 1.92
-4 -3 12 21.43 1.65
4 3 -12 20.86 2.77
-4 -3 11 18.33 1.92
4 3 -11 14.88 2.63
4 3 -11 12.14 1.96
4 3 -10 203.71 9.58
4 3 -10 201.85 8.41
4 3 -9 28.98 3.66
4 3 -9 32.74 3.52
-4 -3 8 7.19 2.87
4 3 -8 8.93 1.92
-4 -3 7 7.39 2.71
4 3 -7 8.35 3.78
4 3 -6 235.31 17.43
4 3 -6 222.01 9.04
-4 -3 6 234.24 14.69
4 3 -5 675.07 27.34
-4 -3 5 699.93 24.45
-4 -3 4 0.68 0.94
4 3 -4 -1.34 1.64
4 3 -3 0.06 0.77
4 3 -2 12.79 3.46
4 3 -1 9.25 2.7
4 3 0 829.28 24.25
4 3 1 67.62 8.12
4 3 1 56.74 6.81
4 3 2 34.94 5.99
4 3 3 223.57 16.06
4 3 4 8.52 1.84
4 3 4 8.76 3.36
4 3 4 6.02 2.07
4 3 5 9.48 1.82
4 3 5 13.23 4.41
4 3 5 10.79 2.46
4 3 6 11.98 2.17
4 3 6 11.67 2.29
4 3 7 58.51 4.62
4 3 7 63.72 4.78
4 3 8 97.52 5.01
4 3 8 89.9 4.82
4 3 9 7.82 1.2
4 4 -13 7.92 1.38
-4 -4 12 1.07 0.8
4 4 -12 0.31 0.69
-4 -4 11 16.19 2.14
4 4 -11 11.59 2.49
4 4 -10 150.64 8.33
4 4 -10 158.72 7.13
4 4 -9 373.49 13.26
4 4 -9 382.3 12.03
-4 -4 8 0.46 1.03
4 4 -8 -0.61 1.13
4 4 -8 1.67 2.01
4 4 -8 0.58 0.69
-4 -4 7 0.91 0.8
4 4 -7 -1.03 2.11
4 4 -7 0.9 0.86
4 4 -6 17.48 4.71
4 4 -6 19.32 2.68
-4 -4 6 22.16 4.67
-4 -4 5 0.44 0.77
4 4 -5 1.44 1.41
4 4 -4 42.87 6.59
4 4 -3 19.04 4.54
4 4 -2 57.12 6.83
4 4 -1 39.85 5.41
4 4 0 124.69 9.94
4 4 1 0.52 1.14
4 4 2 10.06 2.3
4 4 2 16.79 4.49
4 4 2 11.04 1.86
4 4 3 428.28 11.66
4 4 3 465.92 24.09
4 4 4 22.12 2.88
4 4 4 19.1 2.53
4 4 5 2.26 1.33
4 4 6 53.69 4.53
4 4 6 43.48 3.96
4 4 7 11.99 1.91
4 4 7 9.97 1.73
4 4 8 0.27 0.47
4 4 8 -0.75 0.46
-4 -5 13 3.17 0.76
4 5 -13 1.99 0.79
-4 -5 12 5.12 0.93
4 5 -12 2.64 1.15
-4 -5 11 28.42 2.64
4 5 -11 27.3 3.88
4 5 -10 21.54 3.16
4 5 -10 25.43 2.75
4 5 -9 254.19 10.96
4 5 -9 263.51 9.69
4 5 -8 120.58 6.79
-4 -5 8 105.49 11.11
4 5 -7 84.64 10.65
4 5 -7 110.51 6.59
-4 -5 7 99.53 10.58
4 5 -6 243.27 17.05
4 5 -6 289.46 10.44
-4 -5 6 256.98 16.54
4 5 -5 73.16 9.03
4 5 -5 80.55 6.65
4 5 -5 80.04 5.3
4 5 -4 13.78 3.81
4 5 -3 2.66 1.58
4 5 -2 4.2 2.23
4 5 -1 9.66 2.08
4 5 -1 10.22 3.12
4 5 -1 10.03 1.89
4 5 0 0.38 0.65
4 5 0 3.05 1.57
4 5 0 1.65 0.87
4 5 1 5.09 2.19
4 5 1 3.82 1.2
4 5 2 6.47 1.78
4 5 2 7.15 1.7
4 5 3 25.29 3.08
4 5 4 14.99 2.38
4 5 5 60.38 5.07
4 5 5 44.33 4.07
4 5 6 6.33 1.59
4 5 6 7.44 1.52
4 5 7 31.51 2.76
4 5 7 26.64 2.4
4 5 8 32.79 1.89
-4 -6 13 4.4 0.87
4 6 -13 2.21 0.8
-4 -6 12 32.39 2.38
4 6 -12 25.63 3.19
-4 -6 11 6.12 1.26
4 6 -11 6.57 1.69
4 6 -10 39.33 4.41
4 6 -9 -0.47 0.77
4 6 -8 33.07 3.59
-4 -6 7 0.22 1.23
4 6 -7 -0.25 1.19
4 6 -7 0.42 0.73
4 6 -6 126.39 8.67
4 6 -6 144.33 7.51
4 6 -5 38.92 4.76
4 6 -5 38.09 3.87
4 6 -4 98.78 7.29
4 6 -4 104.22 6.1
4 6 -3 36.58 3.44
4 6 -3 23.18 3.23
4 6 -2 61.93 4.44
4 6 -2 48.58 4.58
4 6 -1 84.1 6.36
4 6 -1 85.9 5.26
4 6 0 201.87 10.06
4 6 0 224.38 8.74
4 6 1 11.73 2.55
4 6 1 9.63 2.01
4 6 2 3.61 1.35
4 6 2 4.72 1.57
4 6 3 33.29 3.63
4 6 4 168.14 8.04
4 6 4 206.74 9.37
4 6 5 23.01 2.98
4 6 5 25.94 2.9
4 6 6 2.01 0.95
4 6 6 0.63 0.37
4 6 7 64.85 3.09
-4 -7 13 3.78 0.81
-4 -7 12 10.04 1.34
4 7 -12 7.27 1.59
-4 -7 11 13.9 1.73
4 7 -11 12.46 2.42
-4 -7 10 9.9 1.82
4 7 -10 11.08 2.36
-4 -7 9 136.75 6.19
4 7 -9 133.87 8.82
4 7 -9 151.19 6.79
4 7 -8 25.34 3.85
4 7 -8 27.6 3.21
4 7 -7 41.18 4.05
4 7 -7 40.32 5.04
4 7 -6 137.08 7.22
4 7 -5 158.27 7.61
4 7 -4 33.53 3.52
4 7 -3 23.93 2.97
4 7 -2 132.41 8.45
4 7 -2 147.87 7.24
4 7 -1 9.45 2.32
4 7 -1 11.37 2.19
4 7 0 77.76 6.3
4 7 0 83.85 5.64
4 7 1 210.68 10.3
4 7 1 212.99 9.31
4 7 2 0.92 0.99
4 7 3 22.67 3.1
4 7 4 2.39 1.29
4 7 5 61.68 4.2
4 7 6 12.48 1.48
-4 -8 13 68.19 2.73
-4 -8 13 37.06 2.65
-4 -8 12 17.64 1.84
-4 -8 11 36 2.6
-4 -8 10 10.25 1.49
-4 -8 9 7.78 1.6
-4 -8 8 13.42 2
4 8 -8 24.52 2.84
4 8 -7 56.74 4.81
4 8 -6 45.29 4.26
-4 -8 6 37.32 4.77
4 8 -5 7.77 1.88
4 8 -4 -0.02 0.64
4 8 -3 87.91 5.8
4 8 -2 69.5 6.27
4 8 -2 81.2 5.54
4 8 -1 11.36 2.62
4 8 -1 14.81 2.51
4 8 0 87.92 6.67
4 8 0 87.16 6
4 8 1 170.02 8.95
4 8 1 178.36 8.53
4 8 2 28.49 3.5
-4 -8 -2 27.11 2.85
4 8 3 15.01 2.56
4 8 4 28.57 2.8
4 8 5 10.63 1.36
-4 -9 12 15.19 1.57
-4 -9 12 12.74 1.8
-4 -9 11 32.48 2.53
-4 -9 11 34.57 3.48
-4 -9 10 16.23 1.98
-4 -9 10 21.56 2.95
-4 -9 9 2.18 0.89
-4 -9 9 -0.46 1.31
-4 -9 8 1.47 1.02
4 9 -8 0.87 0.77
-4 -9 7 62.73 5.44
4 9 -7 71.42 4.93
4 9 -6 2.64 1.22
4 9 -5 17.6 2.73
4 9 -4 17.47 2.75
4 9 -3 80.23 6.89
4 9 -3 84.05 5.79
4 9 -2 407.65 14.65
4 9 -2 420.75 12.93
4 9 -1 14.08 2.86
4 9 -1 13.63 2.51
4 9 0 31.8 3.96
4 9 0 39.41 4.02
4 9 1 30.32 3.54
-4 -9 -1 31.63 3.03
-4 -9 -2 16.4 1.97
4 9 2 20.61 2.68
4 9 3 131.68 5.68
4 9 4 2.58 0.75
-4 -10 12 13.22 1.56
-4 -10 11 17.58 1.59
-4 -10 11 16.69 2.13
4 10 -10 4.51 0.99
-4 -10 10 2.75 0.75
-4 -10 10 4.31 1.38
-4 -10 9 16.6 2.62
-4 -10 8 0.35 0.7
-4 -10 7 1 0.83
4 10 -7 2.38 1
4 10 -6 45.22 3.93
4 10 -5 3.71 1.77
4 10 -5 2 1.05
4 10 -4 35.04 4.53
4 10 -4 37.83 3.84
4 10 -3 26.45 3.75
4 10 -3 27.12 3.27
4 10 -2 86.56 6.3
4 10 -2 79.15 5.57
4 10 -1 31.41 3.67
4 10 -1 29.12 3.37
4 10 0 10.42 2.03
-4 -10 0 11.27 1.73
-4 -10 -1 99.8 4.56
4 10 1 101.02 5.28
4 10 2 165.78 5.69
-4 -11 11 7.29 1.17
4 11 -10 19.57 2.01
-4 -11 10 14.66 1.89
4 11 -9 13.39 2.13
-4 -11 9 8.55 1.63
4 11 -8 18.9 2.77
-4 -11 8 15.44 2.23
4 11 -7 13.88 2.78
4 11 -6 118.72 7.59
4 11 -6 94.76 5.22
4 11 -5 58.68 5.42
4 11 -5 50.38 4.09
4 11 -4 22.22 3.21
4 11 -4 19.8 2.6
4 11 -3 20.89 2.93
4 11 -3 17.08 2.56
4 11 -2 0.03 0.7
4 11 -2 0.53 0.62
4 11 -2 -0.22 0.66
-4 -11 1 -0.19 0.64
4 11 -1 -0.1 0.65
-4 -11 0 9.18 1.29
4 11 0 5.76 1.14
4 12 -9 1.31 0.75
4 12 -8 161.26 6.83
4 12 -7 240.75 8.78
4 12 -6 21.5 2.96
4 12 -5 1.29 1.04
4 12 -5 -0.34 0.68
4 12 -4 13.22 2.09
4 12 -4 8.46 1.57
4 12 -3 42.38 3.12
-4 -12 3 43.22 2.93
-4 -12 2 0.75 0.52
5 -12 0 3.66 0.82
5 -12 1 1.06 0.68
5 -12 2 25.26 2.21
5 -12 4 37.02 2.19
5 -12 5 13.26 1.32
5 -12 6 13.99 1.45
5 -12 7 41.66 2.37
5 -12 7 45.78 3.47
5 -12 8 0.8 0.68
5 -12 8 0.45 0.36
5 -12 9 1.56 0.71
5 -11 -2 35.94 2.23
5 -11 -1 3.63 0.88
5 -11 0 93.11 3.8
5 -11 0 70.9 3.85
5 -11 1 21.65 1.96
5 -11 1 13.48 1.78
5 -11 2 25.69 2.79
5 -11 2 36.07 2.57
5 -11 3 6.39 1.48
5 -11 3 16.62 1.92
5 -11 4 34.23 2.74
5 -11 5 16.24 1.92
5 -11 5 14.67 2.49
5 -11 6 7.95 1.79
5 -11 6 7.06 1.44
5 -11 7 2.31 1.11
5 -11 7 1.68 0.66
5 -11 8 147.82 5.62
5 -11 8 154.34 7.32
5 -11 9 1.64 0.86
5 -11 9 3.21 0.78
5 -11 10 7.92 1.09
5 -11 10 8.22 1.35
5 -10 -3 2.51 0.77
5 -10 -2 36.59 2.72
5 -10 -2 29.35 2.52
5 -10 -1 44.95 3.08
5 -10 -1 34.9 2.86
5 -10 0 89.98 4.44
5 -10 0 74.89 4.51
5 -10 1 9.31 1.93
5 -10 1 12.25 1.66
5 -10 2 11.52 2.05
5 -10 2 10.6 1.6
5 -10 3 24.31 3.05
5 -10 3 18.89 2.14
5 -10 4 220.27 8.09
5 -10 4 229.05 9.91
5 -10 5 10 2.19
5 -10 5 7.97 1.5
5 -10 6 3.14 1.23
5 -10 6 2.64 1.02
5 -10 7 17.75 2.4
5 -10 7 17.38 2.89
5 -10 8 0.23 0.82
5 -10 8 0.65 0.67
5 -10 9 34.22 3.06
5 -10 9 36.73 3.65
5 -10 10 11.3 1.59
5 -10 10 12.34 1.81
5 -10 11 71.41 3.15
5 -10 11 63.46 3.11
5 -9 -5 22.73 1.71
5 -9 -4 20.89 1.95
5 -9 -4 30.35 2.44
5 -9 -3 60.15 3.83
5 -9 -3 57.22 3.78
5 -9 -2 18.29 2.19
5 -9 -2 15.67 2.04
5 -9 -1 84.1 4.79
5 -9 -1 74.66 4.67
5 -9 0 35.4 3.71
5 -9 0 39.81 3.29
5 -9 1 20.03 2.86
5 -9 1 19.6 2.33
5 -9 2 47.39 4.32
5 -9 2 58.28 4.03
5 -9 3 54.27 4.11
5 -9 3 50.9 4.77
5 -9 4 1.05 0.65
5 -9 4 0.66 0.71
5 -9 5 100.89 5.91
5 -9 5 107.71 7.52
5 -9 6 43.32 3.83
5 -9 6 38.71 4.52
5 -9 7 226.69 9.12
5 -9 7 203.16 10.73
5 -9 8 11.77 2.73
5 -9 8 9.84 1.98
5 -9 9 1.13 0.67
5 -9 9 1.32 0.84
5 -9 10 1.53 0.76
5 -9 10 0.74 0.6
5 -9 11 5.71 1.26
5 -9 11 12.6 1.65
5 -9 12 10.71 1.09
5 -8 -6 0.18 0.45
5 -8 -5 50.15 3.46
5 -8 -5 61.69 3.68
5 -8 -4 12.52 2.04
5 -8 -4 11.56 1.78
5 -8 -3 95.36 5.4
5 -8 -3 88.41 5.21
5 -8 -2 29.44 3.07
5 -8 -2 26.38 2.91
5 -8 -1 0.73 1.11
5 -8 -1 2.21 1.77
5 -8 -1 1.58 1.44
5 -8 0 28.74 3.37
5 -8 0 30.78 3.01
5 -8 1 104.46 6.6
5 -8 1 111.19 5.94
5 -8 2 34.8 3.38
5 -8 2 35.02 4.18
5 -8 3 6.71 1.7
5 -8 3 6.33 1.54
5 -8 4 12.31 2.49
5 -8 4 18.18 2.65
5 -8 4 10.66 1.87
5 -8 5 1.5 1.27
5 -8 5 0.92 0.88
5 -8 6 0.17 0.94
5 -8 6 0.67 0.79
5 -8 7 10.13 2.78
5 -8 7 11.48 2.23
5 -8 8 87.34 6.15
5 -8 8 81.43 6.64
5 -8 9 6.08 2.08
5 -8 9 4.51 1.63
5 -8 10 6.45 1.45
5 -8 10 7.78 1.73
5 -8 11 14.58 2.08
5 -8 12 8.12 1.16
5 -7 -7 28.05 1.98
5 -7 -6 2.29 0.77
5 -7 -5 11.68 2.33
5 -7 -5 11.08 1.94
5 -7 -4 47.45 4.49
5 -7 -4 47.04 3.85
5 -7 -3 0.67 0.83
5 -7 -3 0.88 0.8
5 -7 -2 194.28 7.89
5 -7 -2 145.1 7.11
5 -7 -1 78.99 5.87
5 -7 -1 103.09 5.83
5 -7 0 27.73 3.5
5 -7 0 37.08 3.39
5 -7 1 54.99 4.32
5 -7 1 43.31 8.46
5 -7 2 0.51 0.86
5 -7 2 0.83 0.78
5 -7 2 -0.53 1.54
5 -7 3 50.57 4.12
5 -7 3 57.61 4.36
5 -7 3 60.88 11.15
5 -7 3 41.76 4.65
5 -7 4 338.78 10.82
5 -7 4 340.51 11.19
5 -7 4 334.25 13.05
5 -7 5 398.62 12.28
5 -7 5 392.88 12.51
5 -7 5 422.34 15.57
5 -7 6 0.69 1.59
5 -7 6 0.4 0.59
5 -7 6 -0.08 0.67
5 -7 7 57.49 4.9
5 -7 7 66.52 5.49
5 -7 8 11.53 2.71
5 -7 8 11.83 2.29
5 -7 8 15.3 2.85
5 -7 9 12.19 2.13
5 -7 9 12.31 2.32
5 -7 9 12.75 2.32
5 -7 10 4.27 1.17
5 -7 10 2.99 1.01
5 -7 10 3.12 1.13
5 -7 11 11.42 1.88
5 -7 12 1.7 0.58
5 -6 -8 27.73 1.94
5 -6 -7 33.5 2.77
5 -6 -6 21.24 3.06
5 -6 -6 14.93 2.27
5 -6 -5 18.81 3.03
5 -6 -5 16.53 2.32
5 -6 -4 29.84 3.46
5 -6 -4 33.99 3.53
5 -6 -3 -0.35 0.85
5 -6 -3 -1.13 1.11
5 -6 -2 12.33 2.07
5 -6 -2 7.94 1.75
5 -6 -1 1.31 1.04
5 -6 -1 0.36 0.6
5 -6 0 52.51 4.19
5 -6 1 148.21 7.07
5 -6 1 158.95 8.64
5 -6 2 34.29 3.37
5 -6 2 39.77 3.57
5 -6 2 43.15 8.53
5 -6 2 30.5 3.83
5 -6 3 21.83 2.82
5 -6 3 25.81 2.96
5 -6 3 20.94 3.1
5 -6 4 11.03 2.36
5 -6 4 8.44 1.63
5 -6 4 7.13 1.66
5 -6 5 28.33 3.47
5 -6 5 28.33 3.28
5 -6 5 32.29 4.32
5 -6 6 5.49 2.36
5 -6 6 3.53 1.41
5 -6 6 2.85 1.07
5 -6 7 177.91 9.55
5 -6 7 179.85 9.27
5 -6 7 158.07 10.61
5 -6 8 93.47 6.91
5 -6 8 94.56 6.56
5 -6 8 98.95 7.32
5 -6 9 0.02 0.56
5 -6 9 0.25 0.59
5 -6 10 2.52 1.08
5 -6 10 2.43 1.1
5 -6 11 1.3 0.55
5 -6 11 -0.04 0.63
5 -6 12 24.84 2.02
5 -5 -8 0.69 0.51
5 -5 -7 -3.27 1.82
5 -5 -7 -0.09 0.86
5 -5 -6 10.88 2.13
5 -5 -6 10.34 2.02
5 -5 -5 54.19 5.04
5 -5 -5 49.66 4.37
5 -5 -4 222.11 9.24
5 -5 -4 212.82 8.98
5 -5 -3 25.64 3.4
5 -5 -3 28.34 3.26
5 -5 -2 156.55 7.15
5 -5 -1 4.62 1.22
5 -5 0 109.71 6.04
5 -5 1 161.44 7.41
5 -5 1 171.27 7.43
5 -5 1 161.26 8.71
5 -5 2 256.19 9.56
5 -5 2 249.13 8.94
5 -5 2 260.49 10.85
5 -5 3 26.74 3.26
5 -5 3 24.08 2.96
5 -5 3 27.74 3.63
5 -5 4 154.35 8.13
5 -5 4 143.58 7.16
5 -5 4 160.53 8.94
5 -5 5 6.18 1.86
5 -5 5 6.36 1.77
5 -5 5 7.83 1.79
5 -5 5 10.48 2.29
5 -5 6 -0.33 0.96
5 -5 6 1.66 1.41
5 -5 6 0.97 0.81
5 -5 6 2.26 1.67
5 -5 7 49.83 5.36
5 -5 7 47.24 3.86
5 -5 7 53.17 5.41
5 -5 8 3.33 1.59
5 -5 9 3.68 1.4
5 -5 10 29.97 3.4
5 -5 11 -0.21 0.61
5 -5 11 -0.44 0.57
5 -5 12 4.12 0.8
5 -5 12 4.3 0.8
5 -4 -9 25.71 2.26
5 -4 -8 66.1 4.36
5 -4 -7 26.18 3.52
5 -4 -7 1.17 1.13
5 -4 -6 52.87 5.14
5 -4 -6 58.32 4.8
5 -4 -5 33.47 3.86
5 -4 -5 28.04 3.27
5 -4 -4 1.71 1.05
5 -4 -4 4.23 2.14
5 -4 -3 92.97 5.65
5 -4 -2 495.48 12.46
5 -4 -1 23.93 2.61
5 -4 -1 22.24 4.49
5 -4 0 30.14 3.21
5 -4 0 30.6 4.99
5 -4 0 31.07 2.98
5 -4 1 32.2 4.68
5 -4 1 61.82 5.13
5 -4 2 47.79 4.12
5 -4 2 44.43 5.22
5 -4 2 44.38 4.34
5 -4 3 0.12 0.71
5 -4 3 0.57 0.72
5 -4 3 0.99 0.53
5 -4 3 1.93 0.99
5 -4 4 208.8 13.97
5 -4 4 198.43 9.46
5 -4 4 189.86 7.83
5 -4 4 203.09 7.73
5 -4 4 176.23 9.3
5 -4 5 365.13 13.8
5 -4 5 338.89 11.28
5 -4 5 351.77 10.25
5 -4 5 360.27 18.79
5 -4 5 334.4 13.18
5 -4 6 46.36 5.31
5 -4 6 43.03 3.59
5 -4 6 39.77 6.97
5 -4 6 46.71 4.99
5 -4 7 -0.49 0.8
5 -4 7 0.45 0.62
5 -4 8 1.64 1.45
5 -4 8 2.3 1.09
5 -4 9 169.91 9.6
5 -4 9 193.27 6.58
5 -4 10 19.62 2.84
5 -4 11 8.21 1.57
5 -4 11 4.93 1.08
5 -4 12 4.52 0.84
5 -3 -10 4.79 0.94
5 -3 -9 27.65 2.76
5 -3 -8 78.31 5.12
5 -3 -7 2.1 1.77
5 -3 -7 1.13 1.04
5 -3 -6 74.84 5.75
5 -3 -6 78.24 5.59
5 -3 -5 65.5 5.23
5 -3 -5 63.44 4.98
5 -3 -4 11.02 2.11
5 -3 -4 5.56 3.06
5 -3 -3 22.92 2.81
5 -3 -3 18.87 4.7
5 -3 -2 0.74 0.75
5 -3 -2 0.05 0.74
5 -3 -1 103.77 9.67
5 -3 0 422.49 18.77
5 -3 1 275.88 14.14
5 -3 2 70.37 6.71
5 -3 3 6.45 2.46
5 -3 3 0.66 0.55
5 -3 4 22.39 3.35
5 -3 4 25.76 2.84
5 -3 4 31.3 2.85
5 -3 4 21.77 3.08
5 -3 5 76.87 6.47
5 -3 5 81.55 5.16
5 -3 5 86.33 9.62
5 -3 6 6.6 2.1
5 -3 6 4.1 3.06
5 -3 6 3.63 0.98
5 -3 7 73.8 4.72
5 -3 8 19.29 2.31
5 -3 9 30.15 2.73
5 -3 10 40.76 4.12
5 -3 11 0.42 0.41
5 -3 11 0.16 0.49
5 -3 12 1.84 0.59
5 -2 -10 0.92 0.58
5 -2 -10 1.74 0.69
5 -2 -9 1.44 0.8
5 -2 -8 23.54 2.88
5 -2 -7 5.15 1.82
5 -2 -7 5.28 1.97
5 -2 -6 1.01 1.04
5 -2 -6 3.62 1.71
5 -2 -5 151.7 8.03
5 -2 -5 142.75 14.44
5 -2 -4 35.94 3.69
5 -2 -4 27.77 5.96
5 -2 -3 46.81 3.63
5 -2 -3 36.34 6.46
5 -2 -2 128.31 11.13
5 -2 -1 2.57 1.76
5 -2 0 0.15 0.74
5 -2 1 57.55 6.36
5 -2 2 548.12 22.19
5 -2 2 558.56 19.7
5 -2 3 43.9 6.37
5 -2 4 0.6 0.57
5 -2 4 1.08 0.91
5 -2 4 1.41 1.09
5 -2 4 0.22 1.06
5 -2 5 2.5 2.12
5 -2 5 0.94 0.72
5 -2 6 277.03 21.47
5 -2 6 214.03 8.8
5 -2 7 10.06 1.97
5 -2 8 0.63 0.56
5 -2 9 4.86 1.16
5 -2 10 58.17 4.65
5 -2 10 64.97 3.07
5 -2 11 0.11 0.42
5 -1 -11 10.13 1.33
5 -1 -11 11.76 1.37
5 -1 -10 2.86 1.05
5 -1 -9 114.2 6.17
5 -1 -8 26.1 3.11
5 -1 -7 1.99 1.36
5 -1 -7 0.52 0.98
5 -1 -6 20.88 3.2
5 -1 -6 15.34 5.59
5 -1 -5 48.69 4.85
5 -1 -5 29.22 6.66
5 -1 -4 24.14 2.86
5 -1 -4 16.89 4.51
5 -1 -3 199.69 14.81
5 -1 -2 725.01 26.68
5 -1 -1 129.55 10.83
5 -1 0 10.67 3.04
5 -1 1 42.9 5.76
5 -1 2 311.12 17.01
5 -1 2 301.75 14.83
5 -1 3 3.72 2.03
5 -1 3 11.8 2.04
5 -1 4 95.3 5.88
5 -1 4 91.28 6.17
5 -1 4 99.01 10.42
5 -1 5 1.49 1.14
5 -1 5 1.26 1.52
5 -1 5 0.8 0.79
5 -1 6 206.43 19.11
5 -1 6 179.98 8.31
5 -1 7 20.33 2.75
5 -1 8 6.17 1.57
5 -1 9 13.75 1.78
5 -1 10 8.46 1.76
5 -1 11 19.57 2
5 0 -11 16.94 1.95
5 0 -11 21.89 2.08
5 0 -10 2.08 0.83
5 0 -9 5.24 1.55
5 0 -8 7.23 1.65
5 0 -7 49.42 4.72
5 0 -7 47.52 4.26
5 0 -6 113.92 6.91
5 0 -6 101.47 13.52
5 0 -5 28.63 6.3
5 0 -4 83.8 10.12
5 0 -3 51.86 7.53
5 0 -2 8.08 2.87
5 0 -1 151.83 12.01
5 0 0 66.08 7.36
5 0 1 2.31 1.18
5 0 2 4.8 2.03
5 0 2 7.56 2.97
5 0 3 51.09 4.82
5 0 3 57.91 4.74
5 0 3 52.22 4.61
5 0 3 51.48 7.48
5 0 4 3.23 1.11
5 0 4 2.63 1.85
5 0 4 2.89 1.22
5 0 5 2.15 1.13
5 0 5 2.71 2.27
5 0 5 2.11 1.27
5 0 6 93.84 6.33
5 0 7 49.37 4.18
5 0 8 1.94 1.05
5 0 9 67.84 3.61
5 0 10 -0.64 0.65
5 1 -12 0.09 0.48
5 1 -11 0.41 0.61
5 1 -11 0.59 0.52
5 1 -10 15 2.23
5 1 -10 15.94 2.39
5 1 -9 0.35 0.85
5 1 -8 11.64 2.25
5 1 -6 35.32 7.94
-5 -1 6 40.03 6.2
5 1 -5 194.45 16.23
5 1 -4 1.21 1.21
5 1 -3 140.06 12.49
5 1 -2 7.49 2.74
5 1 -1 13.32 3.83
5 1 0 55.46 7.11
5 1 1 1.34 1.3
5 1 2 37.85 6.63
5 1 2 42.68 4.13
5 1 2 40.21 3.99
5 1 2 37.08 3.06
5 1 3 2.65 1.35
5 1 3 0.8 0.8
5 1 3 1.61 1.04
5 1 3 3.02 2.02
5 1 3 0.61 1.11
5 1 4 17.83 2.83
5 1 4 14.4 2.8
5 1 4 13.08 4.31
5 1 4 17.14 2.37
5 1 5 30.71 3.46
5 1 5 34.41 4.1
5 1 6 21.17 2.85
5 1 6 21.62 3.11
5 1 7 96.3 5.86
5 1 8 12.58 1.95
5 1 9 54.03 4.16
5 1 9 59.65 3.11
5 1 10 3.73 0.87
5 2 -12 0.77 0.51
5 2 -12 0.17 0.54
-5 -2 11 19.16 1.56
5 2 -11 15.14 1.9
5 2 -10 1.05 0.85
5 2 -10 1.05 0.87
5 2 -9 52.68 4.51
5 2 -9 51.46 4.44
5 2 -8 1.23 0.71
5 2 -7 154.23 8.18
-5 -2 7 158.26 12.92
-5 -2 6 12.18 3.5
5 2 -6 11.19 4.45
5 2 -6 11.85 2.05
5 2 -5 56.66 4.36
5 2 -5 64.6 9.45
5 2 -5 58.52 4.73
-5 -2 5 61.95 7.59
5 2 -4 9.14 1.8
5 2 -4 14.69 2.85
5 2 -4 12.6 3.97
5 2 -4 13.32 2.2
5 2 -3 9.7 3.35
5 2 -2 18.05 4.42
5 2 -1 28.94 5.39
5 2 0 25.58 4.92
5 2 1 65.98 8.14
5 2 1 62.83 4.08
5 2 2 14.44 4.34
5 2 2 8.55 2.34
5 2 2 13.57 2.22
5 2 3 236.18 17.93
5 2 3 213.34 10.33
5 2 3 226.83 9.7
5 2 3 209.94 10.12
5 2 3 207.61 7.77
5 2 4 5.92 1.58
5 2 4 7.65 2.08
5 2 5 31.65 3.44
5 2 5 34.94 3.98
5 2 6 41.93 3.83
5 2 6 49.3 4.39
5 2 7 61.94 4.41
5 2 8 8.71 1.41
5 2 9 2.43 0.79
5 2 9 4.32 0.72
-5 -3 12 16.02 1.18
5 3 -12 22.67 2.07
5 3 -12 19.69 2.38
-5 -3 11 19.84 1.9
5 3 -11 14.23 2.07
5 3 -11 15.92 1.88
5 3 -10 10.72 1.91
5 3 -10 13.3 2
5 3 -9 77.47 5.45
5 3 -8 0.04 0.68
-5 -3 7 0.23 1.41
5 3 -7 -0.62 0.76
5 3 -6 77.04 11.01
5 3 -6 83.81 5.85
-5 -3 6 84.2 9.43
5 3 -5 105.64 5.74
5 3 -5 108.31 12.35
5 3 -5 119.02 8.43
5 3 -5 108.89 6.54
-5 -3 5 110.06 10.24
5 3 -4 155.52 7.05
5 3 -4 166.35 14.63
5 3 -4 179.59 10.13
5 3 -4 165.14 7.69
5 3 -3 16.21 2.27
5 3 -3 15.53 2.76
5 3 -3 14.46 2.88
5 3 -3 14.97 4.39
5 3 -3 14.35 2.25
5 3 -2 2.23 1.24
5 3 -2 4.34 1.23
5 3 -2 4.66 2.42
5 3 -2 1.2 0.99
5 3 -2 1.33 0.66
5 3 -1 341.23 12.5
5 3 -1 353.58 19.08
5 3 -1 340.29 10.25
5 3 -1 366.9 10.02
5 3 0 0.87 0.52
5 3 0 3.73 1.55
5 3 0 1.77 1.35
5 3 0 3.45 1.08
5 3 0 2.49 1.38
5 3 1 0.08 0.72
5 3 1 -0.37 1.19
5 3 1 -0.47 0.54
5 3 1 0.21 1.02
5 3 2 4.82 1.78
5 3 2 3.13 1.12
5 3 2 2.7 1.5
5 3 3 68.48 9.78
5 3 3 57.1 5.04
5 3 3 57.8 5.44
5 3 4 165.08 8.23
5 3 4 183.2 9.23
5 3 5 0.63 0.78
5 3 5 1.03 1.2
5 3 6 102.35 5.92
5 3 7 -1.05 0.85
5 3 7 -0.22 0.75
5 3 8 0.11 0.42
5 3 8 1.07 0.42
-5 -4 12 0.81 0.8
5 4 -12 0.44 0.77
-5 -4 11 14.34 1.81
5 4 -11 8.52 2.06
5 4 -11 10.68 1.61
5 4 -10 243.97 8.67
5 4 -9 33.16 3.47
5 4 -8 149.04 7.75
5 4 -7 10.05 2.85
5 4 -7 10.79 2.18
-5 -4 6 3.15 2
5 4 -6 -0.71 1.19
5 4 -6 2.81 2.34
5 4 -6 -0.17 0.6
-5 -4 5 6.74 2.65
5 4 -5 4.09 1.02
5 4 -5 6.35 2.2
5 4 -5 4.28 3.43
5 4 -5 4.69 1.37
5 4 -4 94.15 7.14
5 4 -4 92.4 11.11
5 4 -4 116.47 8.46
5 4 -4 104.63 6.24
-5 -4 4 82.49 8.83
5 4 -4 88.37 5.24
5 4 -3 122.69 7.91
5 4 -3 105.5 11.02
5 4 -3 141.46 9.11
5 4 -3 125.1 6.7
5 4 -3 104.43 5.7
5 4 -2 25.35 3.6
5 4 -2 28.26 5.62
5 4 -2 20.46 2.75
5 4 -2 24.19 2.9
5 4 -1 5.93 1.55
5 4 -1 7.44 1.96
5 4 -1 5.66 2.52
5 4 -1 6.9 1.53
5 4 0 355.07 13.02
5 4 0 359.67 10.47
5 4 0 338.67 13.05
5 4 0 315.89 10.18
5 4 1 41.27 4.81
5 4 1 38.71 3.59
5 4 1 32.93 4.3
5 4 1 31.02 3.65
5 4 2 79.63 5.03
5 4 2 76.26 6.31
5 4 3 36.25 4.18
5 4 3 32.88 3.34
5 4 4 79.03 5.44
5 4 4 97.29 6.7
5 4 5 17.07 2.2
5 4 5 23.35 3.03
5 4 6 8.23 1.73
5 4 7 28.22 2.5
5 4 8 42.43 2.07
-5 -5 12 34.78 2.09
5 5 -12 20.68 2.53
-5 -5 11 3.99 0.98
5 5 -11 1.13 0.91
5 5 -11 2.46 0.76
5 5 -10 29.08 4.12
5 5 -10 36.54 3.22
5 5 -9 36.83 5.23
5 5 -9 40.26 3.81
5 5 -8 36.58 5.22
5 5 -8 39.54 3.97
5 5 -7 158.06 10.4
5 5 -7 159.93 8.14
-5 -5 6 17.71 4.47
5 5 -6 11.16 3.06
5 5 -6 15.19 2.5
-5 -5 5 8.8 3.14
5 5 -5 7.87 1.67
5 5 -5 7.17 2.38
5 5 -5 8.59 3.48
5 5 -5 9.96 2.64
5 5 -5 11.15 2.27
5 5 -4 133.95 9
5 5 -4 140.99 12.73
5 5 -4 147.7 9.64
5 5 -4 153.26 7.71
5 5 -4 123.03 6.28
5 5 -3 1.19 1.22
5 5 -3 1.91 1.33
5 5 -3 0.65 1.01
5 5 -3 2.44 1.2
5 5 -3 1.73 0.59
5 5 -2 2.01 1.15
5 5 -2 1.07 0.81
5 5 -2 1.29 1.81
5 5 -2 1.39 1.06
5 5 -1 37.54 4.5
5 5 -1 39.04 3.76
5 5 -1 42.33 4.03
5 5 0 47.19 5
5 5 0 51.08 4.18
5 5 0 35.12 4.92
5 5 0 38.07 3.99
5 5 1 102.46 7.25
5 5 1 104.54 6.02
5 5 1 99.04 7.79
5 5 2 2.9 1.19
5 5 2 5.27 2.23
5 5 3 73.6 5.41
5 5 3 72.38 5.01
5 5 3 77.21 6.25
5 5 4 18.5 2.51
5 5 4 16.71 2.34
5 5 4 24.19 3.22
5 5 5 4.5 1.4
5 5 6 34.71 2.87
5 5 7 21.12 1.78
-5 -6 12 31.9 2.03
5 6 -12 24.26 2.53
-5 -6 11 56.77 3.13
5 6 -11 52.18 4.52
-5 -6 10 22.7 2.61
5 6 -10 24.02 2.44
5 6 -9 6.36 2.27
5 6 -9 7.18 1.68
5 6 -8 27.07 4.23
5 6 -8 29.18 3.47
5 6 -7 -1.01 1.43
5 6 -7 -0.45 0.96
5 6 -6 30.57 4.86
5 6 -6 26.27 4.05
5 6 -6 30.23 3.61
5 6 -5 3.55 1.26
5 6 -5 -0.27 1.2
5 6 -5 2.25 1.32
5 6 -5 1.9 1.14
5 6 -4 31.65 4.61
5 6 -4 32.22 3.57
5 6 -4 21.75 3.15
5 6 -3 91.27 7.29
5 6 -3 88.93 5.91
5 6 -2 12.55 2.81
5 6 -2 12.22 2.23
5 6 -1 194.45 10.12
5 6 -1 186.18 8.66
5 6 -1 207.95 11.44
5 6 0 18.01 3.28
5 6 0 18.35 2.68
5 6 0 10.37 3.25
5 6 1 56.11 5.42
5 6 1 58.16 4.68
5 6 1 60.38 6.13
5 6 2 83.09 5.41
5 6 2 91.88 6.94
5 6 3 26 2.95
5 6 3 26.85 3.01
5 6 3 27.13 3.55
5 6 4 14.14 2.35
5 6 5 22.92 2.38
5 6 6 2.18 0.71
-5 -7 12 2.92 0.69
-5 -7 11 2.28 0.7
5 7 -11 3.51 1.17
-5 -7 10 45.37 2.96
5 7 -10 40.51 4.21
5 7 -10 53.1 3.23
-5 -7 9 8.06 1.56
5 7 -9 11.2 2.49
5 7 -9 10.98 1.73
5 7 -8 -0.11 0.87
5 7 -8 -0.06 0.62
5 7 -7 47.26 5.14
5 7 -7 38.09 4.77
5 7 -7 40.46 3.89
5 7 -6 43.43 7
5 7 -6 47 5.22
5 7 -6 51.1 4.61
5 7 -5 54.68 6.67
5 7 -5 59.12 4.87
5 7 -4 41.03 5.3
5 7 -4 42.85 4.04
5 7 -3 74.82 6.67
5 7 -3 72.91 5.29
5 7 -2 160.98 9.66
5 7 -2 172.54 8.12
5 7 -1 38.71 4.77
5 7 -1 41.52 3.98
5 7 -1 43.38 5.56
5 7 0 26.59 3.94
5 7 0 33.77 3.61
5 7 0 22.31 3.97
5 7 1 29.73 3.5
5 7 1 30.12 4.16
5 7 2 1.97 1.22
5 7 2 2.24 1.19
5 7 2 0.96 1.15
5 7 3 16.85 1.97
5 7 3 22.54 2.69
5 7 4 19.14 2.16
5 7 5 9.08 1.25
-5 -8 12 2.19 0.6
-5 -8 12 1.47 0.59
-5 -8 11 0.91 0.55
-5 -8 11 0.37 0.66
-5 -8 10 -0.08 0.52
-5 -8 9 5.3 1.22
5 8 -9 5.49 1.18
5 8 -8 0 0.8
-5 -8 8 -0.58 0.82
-5 -8 8 2.46 1.17
5 8 -8 1.48 0.88
5 8 -7 6.38 2.09
5 8 -7 6.69 1.68
5 8 -6 -1.29 1.35
5 8 -6 1.28 0.82
5 8 -5 1.75 1.22
5 8 -5 1.05 0.86
5 8 -4 104.19 7.92
5 8 -4 104.82 6.25
5 8 -3 20.6 3.57
5 8 -3 19.44 2.8
5 8 -2 7.72 2.39
5 8 -2 8.94 2.04
5 8 -1 97.03 7.17
5 8 -1 108.54 6.33
5 8 0 13.97 2.85
5 8 0 15.08 2.51
5 8 0 14.03 2.68
5 8 1 6.38 1.59
5 8 1 9.11 1.91
5 8 2 0.57 0.6
5 8 2 0.43 0.77
5 8 2 0.6 0.69
5 8 3 12.66 1.71
5 8 4 4.59 0.9
-5 -9 11 1.56 0.66
-5 -9 11 2.28 0.77
-5 -9 10 10.18 1.24
-5 -9 10 7.76 1.43
-5 -9 9 -0.01 0.54
5 9 -8 103.76 6.02
5 9 -8 102.42 5.02
5 9 -7 46.67 4.77
5 9 -7 43.35 3.76
5 9 -6 -0.45 0.96
5 9 -6 0.72 0.62
5 9 -5 23.04 3.75
5 9 -5 20.98 2.72
5 9 -4 70.3 6.38
5 9 -4 61.39 4.84
5 9 -3 0.94 1.16
5 9 -3 0 0.69
5 9 -2 4.43 1.78
5 9 -2 5.48 1.44
5 9 -1 55.18 4.95
5 9 -1 56.09 4.53
5 9 -1 42.86 3.69
5 9 0 2.06 1.04
-5 -9 0 3.09 0.9
5 9 0 3.02 1.09
5 9 1 6.66 1.19
5 9 1 7.91 1.56
5 9 1 8.39 1.54
5 9 2 0.24 0.54
5 10 -9 0.76 0.68
5 10 -8 50.44 3.92
5 10 -8 44.74 2.95
5 10 -7 3.34 1.51
5 10 -7 2.83 0.82
5 10 -6 22.7 3.36
5 10 -6 20.11 2.53
5 10 -5 76.19 5.84
5 10 -5 60.88 4.46
5 10 -4 48.17 4.62
5 10 -4 42.5 3.67
5 10 -3 0.39 0.97
5 10 -3 0.67 0.76
5 10 -2 -0.1 0.75
5 10 -2 0.26 0.73
5 10 -1 36.75 3.23
-5 -10 1 39.48 2.81
5 10 0 19.55 1.8
5 11 -8 51.93 3.45
5 11 -7 1.17 0.96
5 11 -7 0.3 0.46
5 11 -6 2.44 0.95
5 11 -6 0.32 0.47
5 11 -5 86.42 5.31
5 11 -5 51.6 3.76
5 11 -4 1.33 0.99
5 11 -4 1.51 0.76
5 11 -3 22.65 2.45
-5 -11 2 43.82 2.51
6 -11 1 47.15 2.55
6 -11 2 0.79 0.43
6 -11 3 -0.12 0.49
6 -11 4 3.4 0.72
6 -11 5 -0.51 0.59
6 -11 6 76.07 3.51
6 -11 7 61 2.99
6 -11 8 11.95 1.27
6 -10 -2 9.87 1.14
6 -10 -1 7.51 1.45
6 -10 0 2.52 0.87
6 -10 1 0.17 0.41
6 -10 2 46.54 3.01
6 -10 3 15.25 1.78
6 -10 4 12.65 1.68
6 -10 5 66.55 3.89
6 -10 6 13.76 1.83
6 -10 7 8.99 1.89
6 -10 7 7.67 1.38
6 -10 8 0.53 0.75
6 -10 8 0.41 0.5
6 -10 9 -0.02 0.4
6 -10 10 14.86 1.24
6 -9 -3 5.85 1.2
6 -9 -3 3.56 0.96
6 -9 -2 22.04 2.39
6 -9 -2 22.22 1.88
6 -9 -1 1.82 0.9
6 -9 -1 1.98 0.86
6 -9 0 6.85 1.46
6 -9 1 73.28 4.21
6 -9 2 37.12 2.98
6 -9 3 5.6 1.61
6 -9 4 48.26 3.72
6 -9 5 37.86 3.38
6 -9 5 34.83 4.08
6 -9 6 13.97 2.08
6 -9 6 14.96 2.85
6 -9 7 3.94 1.34
6 -9 7 4.62 1.18
6 -9 8 0.24 0.94
6 -9 8 -0.18 0.62
6 -9 9 15.69 1.99
6 -9 9 17.45 2.11
6 -9 10 6.57 1.08
6 -8 -4 16.5 2.15
6 -8 -4 17.12 1.55
6 -8 -3 5.67 1.48
6 -8 -3 4.23 0.94
6 -8 -2 16.85 2.36
6 -8 -2 4.32 1.07
6 -8 -1 46.36 3.51
6 -8 0 22.95 2.49
6 -8 1 122.84 5.97
6 -8 2 19.83 2.48
6 -8 3 207.88 8.09
6 -8 4 34.63 3.38
6 -8 4 37.94 4.44
6 -8 5 84.96 5.02
6 -8 5 80.36 5.1
6 -8 5 91.66 6.9
6 -8 6 34.87 3.13
6 -8 6 32.26 3.27
6 -8 6 40.77 5.17
6 -8 7 10.58 2.44
6 -8 7 15.55 2.07
6 -8 7 17.45 2.44
6 -8 8 66.72 3.84
6 -8 8 69.65 4.68
6 -8 8 71.3 5.2
6 -8 9 9.82 1.66
6 -8 9 9.44 1.64
6 -8 10 7.8 1.29
6 -7 -5 -0.21 0.79
6 -7 -5 1.14 0.55
6 -7 -4 4.69 1.52
6 -7 -4 2.48 0.89
6 -7 -3 82.04 5.06
6 -7 -3 78.85 4.31
6 -7 -2 202.2 7.92
6 -7 -1 19.23 2.42
6 -7 0 78.49 4.94
6 -7 1 2.33 0.89
6 -7 2 27.73 3.01
6 -7 3 83.13 5.41
6 -7 3 71.68 4.89
6 -7 4 110.67 6.18
6 -7 4 97.12 5.72
6 -7 4 116.63 7.86
6 -7 5 17.72 3.32
6 -7 5 17.29 2.45
6 -7 5 18.95 2.45
6 -7 6 265.26 9.83
6 -7 6 267.66 9.81
6 -7 6 286.06 17.65
6 -7 7 106.13 6.1
6 -7 7 107.55 6.39
6 -7 7 109.52 7.97
6 -7 8 18.23 2.53
6 -7 8 18.26 2.64
6 -7 8 20.38 2.91
6 -7 9 1.31 0.59
6 -7 9 2.31 1.04
6 -7 10 2.17 0.63
6 -7 10 3.25 0.9
6 -7 11 0.21 0.26
6 -6 -6 -2.76 1.49
6 -6 -6 0.58 0.44
6 -6 -5 11.34 2.08
6 -6 -5 6.34 1.18
6 -6 -4 181.68 7.7
6 -6 -4 151.19 6.09
6 -6 -3 85.96 5.42
6 -6 -2 56.61 4.34
6 -6 -1 47.33 3.9
6 -6 0 31.06 3.11
6 -6 1 68 4.65
6 -6 2 3.51 1.43
6 -6 2 2.81 0.97
6 -6 3 11.59 2.5
6 -6 3 12.21 2.09
6 -6 3 12.82 2
6 -6 4 44.61 4.06
6 -6 4 44.52 3.78
6 -6 4 44.59 4.98
6 -6 5 30.51 3.5
6 -6 5 31.63 3.37
6 -6 5 29.15 4.61
6 -6 6 246.38 10.29
6 -6 6 236.87 9.48
6 -6 7 58.42 4.97
6 -6 7 59.22 4.95
6 -6 7 57.24 5.32
6 -6 8 4.04 1.36
6 -6 8 3.12 1.2
6 -6 8 3.26 1.47
6 -6 9 49.36 3.8
6 -6 9 47.48 3.73
6 -6 10 13.51 1.7
6 -6 10 12.08 1.71
6 -5 -8 1.61 0.4
6 -5 -7 1.33 0.55
6 -5 -6 66.48 4.82
6 -5 -6 54.41 3.28
6 -5 -5 4.1 1.49
6 -5 -5 6.6 1.54
6 -5 -4 3.65 1.34
6 -5 -3 145.71 7.13
6 -5 -2 19.23 2.47
6 -5 -1 2.45 0.94
6 -5 0 35.73 3.36
6 -5 1 170.61 8.01
6 -5 1 164.35 7.29
6 -5 2 49.15 4.32
6 -5 2 49.48 3.97
6 -5 3 40.05 4
6 -5 3 38.75 3.47
6 -5 3 43.52 4.71
6 -5 4 1.9 1.42
6 -5 4 1.25 0.99
6 -5 4 1.26 0.55
6 -5 5 187.93 9.38
6 -5 5 181.8 8.15
6 -5 5 165.89 9.91
6 -5 6 1.92 1.07
6 -5 6 2.3 1.15
6 -5 6 1.74 0.79
6 -5 7 10.51 2.2
6 -5 7 10.68 2.34
6 -5 8 9.38 2.52
6 -5 8 5.85 1.79
6 -5 9 94.94 5.66
6 -5 9 85.81 5.06
6 -5 10 27.06 2.56
6 -5 10 24.89 2.23
6 -5 11 2.62 0.61
6 -4 -8 0.76 0.46
6 -4 -7 3.73 0.86
6 -4 -7 5.96 1.09
6 -4 -6 1.54 1.09
6 -4 -5 56.88 4.86
6 -4 -4 143.87 7.39
6 -4 -3 522.12 13.33
6 -4 -2 297.34 9.72
6 -4 -1 22.77 2.64
6 -4 0 60.64 4.91
6 -4 0 56.15 4.12
6 -4 1 5.58 1.57
6 -4 1 6.56 1.35
6 -4 2 53.57 4.62
6 -4 2 52.32 4.01
6 -4 3 44.48 3.41
6 -4 3 50.7 4.63
6 -4 3 40.85 3.57
6 -4 3 52.44 4.09
6 -4 4 17.92 2.94
6 -4 4 17.35 2.37
6 -4 4 19.9 2.64
6 -4 4 20.48 3.45
6 -4 5 36.41 4.42
6 -4 5 40.15 3.88
6 -4 5 45.14 3.64
6 -4 5 34.61 4.33
6 -4 6 34.49 4.32
6 -4 6 36.14 3.99
6 -4 6 38.96 3.44
6 -4 7 -1.07 1.21
6 -4 7 0.26 0.99
6 -4 8 30.85 3.82
6 -4 8 26.27 3.3
6 -4 9 14.3 2.3
6 -4 9 12 1.89
6 -4 10 0.37 0.47
6 -4 11 1.39 0.54
6 -3 -9 0.72 0.36
6 -3 -8 18.34 1.8
6 -3 -7 17.14 2.29
6 -3 -6 5.89 1.93
6 -3 -5 26.84 3.81
6 -3 -4 38.92 3.87
6 -3 -3 95.79 5.74
6 -3 -2 22.05 2.59
6 -3 -2 16.21 4.39
6 -3 -1 81.71 4.94
6 -3 -1 79.31 9.58
6 -3 0 260.67 10.05
6 -3 0 241.83 8.53
6 -3 1 94.95 6.1
6 -3 1 85.3 8.48
6 -3 1 89.7 5.22
6 -3 2 50.37 3.92
6 -3 2 50.65 4.68
6 -3 2 62.3 7.16
6 -3 2 48.47 3.78
6 -3 2 53.16 3.78
6 -3 3 2.91 0.92
6 -3 3 3.21 1.39
6 -3 3 2.81 0.89
6 -3 3 2.34 0.72
6 -3 4 1.96 0.87
6 -3 4 0.72 0.5
6 -3 4 0.97 0.91
6 -3 5 106.3 7.63
6 -3 5 103.7 6.23
6 -3 5 104.48 5.76
6 -3 6 13.74 3.08
6 -3 6 15.31 2.85
6 -3 6 13 2.04
6 -3 7 0.62 0.82
6 -3 7 1.04 0.96
6 -3 7 2.22 0.81
6 -3 8 -0.53 1.07
6 -3 8 0.05 0.54
6 -3 9 1.4 0.96
6 -3 10 8.44 1.5
6 -2 -10 -0.27 0.41
6 -2 -9 0.06 0.43
6 -2 -8 4.48 1.31
6 -2 -7 36.76 4.23
6 -2 -7 29.71 3.89
6 -2 -6 25.72 3.58
6 -2 -6 29.92 4.02
6 -2 -5 0.05 0.8
6 -2 -5 1.04 0.95
6 -2 -4 176.43 7.91
6 -2 -4 162.75 9.23
6 -2 -3 4.3 1.17
6 -2 -3 3.52 1.19
6 -2 -3 5.13 3.14
6 -2 -2 8.05 1.49
6 -2 -2 10.43 2.17
6 -2 -2 8.54 3.22
6 -2 -2 7.94 1.56
6 -2 -1 138.76 7.38
6 -2 -1 134.42 6.04
6 -2 -1 120.2 11.66
6 -2 -1 146.65 7.82
6 -2 0 26.06 3.2
6 -2 0 18.84 4.12
6 -2 1 128.49 6.43
6 -2 1 126.02 7.17
6 -2 1 126.33 6.79
6 -2 1 126.01 10.45
6 -2 1 122.02 5.59
6 -2 2 11.1 1.66
6 -2 2 12.66 2.36
6 -2 2 12.43 2.22
6 -2 2 12.38 3.34
6 -2 2 11.95 1.66
6 -2 3 33.71 2.89
6 -2 3 28.19 3.68
6 -2 3 34.1 3.69
6 -2 3 34.84 3.39
6 -2 4 22.8 3.47
6 -2 4 23.2 2.85
6 -2 5 0.07 0.76
6 -2 5 -0.69 1.17
6 -2 6 42.49 5.51
6 -2 6 40.43 3.7
6 -2 7 8.02 2.49
6 -2 7 11.31 1.77
6 -2 8 83.44 6.4
6 -2 8 90.92 4.56
6 -2 9 29.23 3.23
6 -2 9 35.31 2.4
6 -2 10 8.88 1.4
6 -1 -10 19.78 1.77
6 -1 -10 35.37 2.4
6 -1 -9 57.03 4.15
6 -1 -9 59.44 3.94
6 -1 -8 111.44 7.49
6 -1 -7 6.29 1.25
6 -1 -7 6.2 2.23
6 -1 -6 59.79 5.59
6 -1 -6 50.98 5.73
6 -1 -5 29.32 3.36
6 -1 -5 34.83 4.56
6 -1 -4 87.88 5.41
6 -1 -4 87.19 6.99
6 -1 -3 37.93 7.17
6 -1 -3 41.06 4.63
6 -1 -3 35.6 3.58
6 -1 -2 20.53 4.87
6 -1 -2 28.14 3.65
6 -1 -2 24.49 2.73
6 -1 -1 47.49 4.39
6 -1 -1 45.05 6.9
6 -1 -1 43.7 4.55
6 -1 -1 41.2 3.41
6 -1 0 11.13 2.14
6 -1 0 9.46 1.88
6 -1 0 7.89 1.76
6 -1 0 9.54 3.03
6 -1 1 51.87 4.14
6 -1 1 44.14 4.25
6 -1 1 42.92 4.2
6 -1 1 47.38 6.54
6 -1 1 45.84 3.6
6 -1 2 214.36 7.78
6 -1 2 211.62 9.45
6 -1 2 220.88 9.57
6 -1 2 230.95 14.68
6 -1 2 218.86 8.71
6 -1 3 4.73 1.04
6 -1 3 3.82 1.41
6 -1 3 4.44 1.45
6 -1 3 4.42 1.24
6 -1 4 15.72 3.08
6 -1 4 19.04 2.73
6 -1 4 14.02 2.33
6 -1 4 15.49 1.92
6 -1 5 152.57 9.73
6 -1 5 155.92 7.71
6 -1 6 25.59 4.91
6 -1 6 24.69 2.97
6 -1 7 47.03 5.82
6 -1 7 70.52 4.52
6 -1 8 0.26 0.75
6 -1 8 -0.55 0.71
6 -1 9 11.79 1.91
6 -1 9 10.49 1.26
6 -1 10 -0.13 0.38
6 0 -10 54.85 3.69
6 0 -10 76.95 3.77
6 0 -9 1.27 0.97
6 0 -9 0.15 0.59
6 0 -8 24.95 4.59
6 0 -8 24.29 3
6 0 -7 86.6 5.31
6 0 -7 78.54 8.69
6 0 -7 94.33 6.09
6 0 -6 32.45 4.95
6 0 -5 14.6 3.17
6 0 -5 14.64 2.3
6 0 -4 13.19 2.92
6 0 -4 11.54 2.14
6 0 -3 2.35 0.98
6 0 -3 2.46 1.25
6 0 -2 139.87 7.42
6 0 -2 158.9 14.16
6 0 -2 165.81 9.14
6 0 -2 141.58 6.79
6 0 -1 12.69 2.37
6 0 -1 11.68 2.33
6 0 -1 11.28 2.22
6 0 -1 11.14 2.43
6 0 -1 10.62 3.34
6 0 -1 8.62 1.48
6 0 0 41.15 3.69
6 0 0 44.52 4.16
6 0 0 42.01 4.19
6 0 0 38.49 6.32
6 0 1 0.12 0.78
6 0 1 0.24 0.83
6 0 1 -0.28 1.05
6 0 1 -0.52 1.15
6 0 1 0.44 0.7
6 0 2 28.68 3.5
6 0 2 33.42 3.88
6 0 2 34.65 3.64
6 0 2 31.57 2.96
6 0 3 165.14 8.88
6 0 3 180.73 8.68
6 0 3 175.38 8.46
6 0 3 177.07 6.8
6 0 4 28.68 3.94
6 0 4 29.33 3.49
6 0 4 32.65 3.7
6 0 4 28.31 3.02
6 0 5 609.32 20.64
6 0 5 608.62 15.29
6 0 5 579.45 15.19
6 0 6 0.04 1.65
6 0 6 1.35 1.06
6 0 7 26.35 4.02
6 0 7 28.72 2.79
6 0 8 79.53 5.37
6 0 8 87.78 4.12
6 0 9 28.28 2.48
6 0 9 33.01 1.91
6 1 -11 23.78 2.08
6 1 -11 34.75 2
6 1 -10 0.38 0.68
6 1 -10 1.24 0.64
6 1 -9 55.09 5.47
6 1 -9 52.77 4.01
6 1 -8 44.2 6.43
6 1 -8 56.21 4.55
6 1 -7 20.91 4.12
6 1 -7 20.41 2.88
6 1 -6 1.65 0.62
6 1 -6 0.93 1.16
6 1 -6 0.8 0.94
6 1 -5 312.09 14.14
6 1 -5 289.38 11.04
6 1 -4 490.89 13.81
6 1 -4 533.82 27.85
6 1 -4 530.28 17.72
6 1 -4 487.87 13.86
6 1 -3 10.4 2.14
6 1 -3 14.11 2.81
6 1 -3 12.88 2.16
6 1 -2 3.05 0.97
6 1 -2 4.07 2.48
6 1 -2 5.08 1.54
6 1 -2 3.02 0.92
6 1 -1 309.44 10.35
6 1 -1 314.48 10.49
6 1 -1 297.96 11.68
6 1 -1 301.26 18.47
6 1 -1 277.91 9.43
6 1 0 224.84 8.33
6 1 0 219.51 9.15
6 1 0 204.84 9.75
6 1 0 224.67 15.41
6 1 0 215.39 7.84
6 1 1 32.03 3.57
6 1 1 30.72 3.78
6 1 1 26.32 5.53
6 1 1 29.38 3.39
6 1 1 26.75 2.85
6 1 2 1.32 0.74
6 1 2 0.73 0.83
6 1 2 0.89 0.9
6 1 2 1.5 1.2
6 1 3 62.45 5.57
6 1 3 63.26 5.2
6 1 3 58.54 5.06
6 1 3 57.12 4.29
6 1 4 91 6.92
6 1 4 96.29 6.23
6 1 4 102.61 6.68
6 1 5 0.54 0.75
6 1 5 1.75 1.11
6 1 5 1.42 0.82
6 1 6 35.38 4.72
6 1 6 46.36 3.87
6 1 7 24.12 3.2
6 1 7 29.66 2.75
6 1 8 74.59 4.4
6 1 8 83.37 3.65
-6 -2 11 10.65 1.07
6 2 -11 14.45 1.92
6 2 -10 98.77 6.13
6 2 -10 112.84 4.99
6 2 -9 34.4 4.46
6 2 -9 33.22 3.32
6 2 -8 102.3 8.83
6 2 -8 120.31 6.76
6 2 -7 0.87 1.4
6 2 -7 0.61 0.75
6 2 -6 0.24 0.58
6 2 -6 -0.02 1.15
6 2 -6 0.43 0.94
6 2 -5 77.01 5.15
6 2 -5 73.33 7.16
6 2 -5 73.09 5.54
6 2 -4 49.57 4.14
6 2 -4 54.12 5.87
6 2 -4 48.42 4.26
6 2 -3 9.47 1.76
6 2 -3 12.16 4.28
6 2 -3 10.3 2.46
6 2 -3 9.25 1.73
6 2 -2 14.25 2.28
6 2 -2 37.08 4.78
6 2 -2 12.62 3.85
6 2 -2 31.06 3.25
6 2 -1 545.53 13.26
6 2 -1 535.47 24.87
6 2 -1 545.25 13.33
6 2 0 30.14 5.88
6 2 0 32.08 3.15
6 2 0 28.44 3.1
6 2 1 1.42 0.86
6 2 1 1.66 1.07
6 2 2 229.88 10.13
6 2 2 211.14 9.88
6 2 2 243.67 8.71
6 2 3 1.41 0.75
6 2 3 2.39 1.07
6 2 3 2.18 1.22
6 2 3 2.71 1.33
6 2 4 0.09 0.89
6 2 4 0.72 0.63
6 2 4 1.14 0.82
6 2 5 37.4 4.44
6 2 5 47.62 4.31
6 2 6 36.79 3.89
6 2 6 48.2 3.74
6 2 7 1.53 0.81
6 2 7 0.59 0.71
6 2 8 45.97 2.36
-6 -3 11 8.86 1.21
6 3 -11 11.22 1.78
6 3 -11 13.14 1.34
6 3 -10 15.46 2.63
6 3 -10 16.81 1.97
6 3 -9 23.25 3.81
6 3 -9 28.15 3.08
6 3 -8 -0.15 1.42
6 3 -8 0.86 0.83
6 3 -7 72.26 7.51
6 3 -7 69.3 5.31
6 3 -6 -0.37 0.73
6 3 -6 0.97 1.24
6 3 -6 0.35 0.71
6 3 -5 19.65 2.54
6 3 -5 18.45 3.56
6 3 -5 17.33 2.68
6 3 -4 59.34 4.53
6 3 -4 78.67 7.16
6 3 -4 72.89 5.36
6 3 -3 40.73 4.81
6 3 -3 42.69 5.26
6 3 -3 40.36 3.96
6 3 -3 46.15 4.15
6 3 -2 65.44 6.14
6 3 -2 66.92 4.87
6 3 -2 67.8 4.81
6 3 -1 725.91 15.25
6 3 -1 692.77 14.87
6 3 0 114.42 5.94
6 3 0 118.07 6.74
6 3 0 126.61 6.41
6 3 1 233.21 10.44
6 3 1 250.19 9.08
6 3 2 64.34 5.51
6 3 2 59.04 5.44
6 3 2 72.74 5.12
6 3 3 26.56 3.32
6 3 3 25.3 3.47
6 3 4 9.08 1.88
6 3 4 8.43 2.1
6 3 5 6.73 1.54
6 3 5 6.91 1.68
6 3 6 1.45 0.68
6 3 7 15.34 1.59
6 4 -11 1.27 0.84
6 4 -11 1.33 0.49
6 4 -10 66.73 5.31
6 4 -10 74.57 4.02
6 4 -9 3.54 1.76
6 4 -9 5.19 1.4
6 4 -8 9.12 2.58
6 4 -8 9.28 1.97
6 4 -7 0.17 0.98
6 4 -7 0.8 0.99
6 4 -6 0.06 0.54
6 4 -6 1.27 1.24
6 4 -6 1.06 1.05
6 4 -5 4.65 1.3
6 4 -5 8.29 2.48
6 4 -5 7.92 1.87
6 4 -4 1.75 0.85
6 4 -4 1.8 1.17
6 4 -4 3.17 1.66
6 4 -4 3.03 1.35
6 4 -3 63.73 6.18
6 4 -3 67.49 5.11
6 4 -3 65.34 4.9
6 4 -2 15.4 3.15
6 4 -2 13.51 2.23
6 4 -2 17.55 2.56
6 4 -1 607.82 18.38
6 4 -1 621 14.42
6 4 -1 598.9 14.2
6 4 0 193.3 7.84
6 4 0 178.9 8.84
6 4 0 169.13 7.84
6 4 1 2.04 0.9
6 4 1 -0.83 1.23
6 4 2 126.97 7.59
6 4 2 132.17 6.32
6 4 2 127.44 7.83
6 4 3 0.25 0.77
6 4 3 -0.91 1.14
6 4 4 26.64 2.86
6 4 4 34.93 3.58
6 4 5 6.45 1.38
6 4 6 13.27 1.63
6 4 7 20.57 1.42
-6 -5 11 0.77 0.52
6 5 -11 0.02 0.49
-6 -5 10 247.63 6.3
6 5 -10 239.13 6.86
6 5 -9 13.21 2.88
6 5 -9 14.92 2.06
6 5 -8 5.91 2.22
6 5 -8 4.13 1.25
6 5 -7 24.83 4.15
6 5 -7 25.39 3.13
6 5 -6 17.72 3.59
6 5 -6 23.09 3.21
6 5 -5 102.04 7.73
6 5 -5 92.4 7.69
6 5 -5 99.33 6.36
6 5 -5 89.35 5.58
6 5 -4 34.17 4.72
6 5 -4 40.78 4.01
6 5 -4 42.33 4.12
6 5 -3 22.6 3.86
6 5 -3 22.55 3.02
6 5 -3 17.13 2.73
6 5 -2 47.3 5.28
6 5 -2 42.58 4.01
6 5 -2 58.06 4.79
6 5 -1 13.07 2.41
6 5 -1 10.53 2.67
6 5 -1 10.76 2.07
6 5 0 26.22 3.04
6 5 0 25.88 3.87
6 5 1 0.52 0.57
6 5 1 0.15 1.18
6 5 2 23.23 3.07
6 5 2 23.94 2.7
6 5 2 25.4 3.62
6 5 3 12.73 2.08
6 5 3 12.51 2.42
6 5 4 0.03 0.49
6 5 4 0.72 0.85
6 5 5 -0.26 0.52
6 5 6 1.01 0.44
-6 -6 11 5.15 0.81
6 6 -11 3.76 1.05
-6 -6 10 64.47 3.12
6 6 -10 60.9 4.59
6 6 -10 66.66 3.29
-6 -6 9 109.44 4.49
6 6 -9 100.81 4.9
6 6 -8 7.34 2.14
6 6 -8 6.65 1.43
6 6 -7 0.82 0.99
6 6 -7 0.84 1.01
6 6 -6 33.76 3.99
6 6 -6 32.12 3.61
6 6 -5 35.57 5.92
6 6 -5 38.62 3.84
6 6 -4 4.98 2.04
6 6 -4 7.01 1.75
6 6 -3 43.59 5.25
6 6 -3 44.84 4.06
6 6 -2 112.31 7.86
6 6 -2 121.75 6.51
6 6 -1 74.74 6.84
6 6 -1 51.27 4.3
6 6 0 7.16 1.67
6 6 0 5.08 1.85
6 6 1 0.4 0.7
6 6 1 1.36 0.93
6 6 1 -0.71 1.41
6 6 2 23.24 2.78
6 6 2 20.59 2.54
6 6 3 99.06 4.75
6 6 3 130.46 5.84
6 6 4 4.37 0.99
6 6 5 21.93 1.62
-6 -7 10 7.88 1.07
6 7 -10 10.34 1.13
-6 -7 9 0.62 0.47
6 7 -9 0.36 0.43
-6 -7 8 32.51 2.46
6 7 -8 33.42 3
6 7 -7 173.97 7.23
6 7 -6 241.64 11.48
6 7 -6 240.8 8.85
6 7 -5 7.96 2.8
6 7 -5 13.88 2.2
6 7 -4 2.84 1.45
6 7 -4 1.98 0.96
6 7 -3 3.01 1.49
6 7 -3 2.43 1.04
6 7 -2 17.06 3.18
6 7 -2 17.19 2.47
6 7 -1 2.77 1.05
6 7 0 41.24 3.57
6 7 0 32.43 3.24
6 7 1 28.46 3.03
6 7 1 25.9 2.79
6 7 1 28.57 3.01
6 7 2 1.5 0.67
6 7 2 0.05 0.64
6 7 3 0.38 0.5
6 8 -9 5.92 1.03
6 8 -8 0.06 0.51
6 8 -7 3.19 1.14
6 8 -7 3.67 1.15
6 8 -6 -0.84 1.18
6 8 -6 -0.22 0.67
6 8 -5 15.88 3.04
6 8 -5 18.21 2.35
6 8 -4 122.41 7.88
6 8 -4 114.42 5.93
6 8 -3 19.77 3.23
6 8 -3 21.22 2.67
6 8 -2 -0.32 0.56
6 8 -1 54.66 3.97
6 8 0 32.19 3.06
6 8 0 29.22 2.86
6 8 0 31.24 2.57
6 8 1 2.43 0.89
6 8 1 1.9 0.8
6 8 1 3.17 0.92
6 8 2 14.06 1.39
6 9 -8 28.18 2.15
6 9 -7 20.81 2.35
6 9 -7 17.89 2.03
6 9 -6 1.37 0.93
6 9 -6 1.71 0.84
6 9 -5 82.38 5.92
6 9 -5 71.79 4.49
6 9 -4 9.38 2.12
6 9 -4 8.71 1.62
6 9 -3 97.98 5.05
6 9 -2 127.67 5.61
6 9 -1 2.54 0.98
6 9 -1 2.42 0.95
6 9 0 21.76 1.79
6 10 -6 12.37 1.54
6 10 -5 1.47 0.71
6 10 -4 0.4 0.52
6 10 -3 2.97 0.85
6 10 -3 2.49 0.9
6 10 -2 4.19 1.1
7 -10 0 0.49 0.36
7 -10 1 11.48 1.28
7 -10 2 32.25 2.11
7 -10 3 98.91 3.69
7 -10 4 19.22 1.66
7 -10 5 1.13 0.58
7 -10 6 32.29 2.07
7 -10 7 1.66 0.46
7 -9 -2 24.73 1.83
7 -9 -1 26.44 2.11
7 -9 0 21.13 1.94
7 -9 1 15.72 1.72
7 -9 2 23.77 2.06
7 -9 3 32.01 2.43
7 -9 4 2.5 0.76
7 -9 5 105.21 4.48
7 -9 6 36.57 2.64
7 -9 7 0.89 0.56
7 -9 8 23.83 1.75
7 -8 -3 0.39 0.49
7 -8 -2 4.64 1.09
7 -8 -1 71.14 3.9
7 -8 0 31.31 2.56
7 -8 1 10.46 1.47
7 -8 2 14.8 1.64
7 -8 2 22.47 2.2
7 -8 3 -0.04 0.45
7 -8 4 8.88 1.43
7 -8 5 7.84 1.39
7 -8 6 0.4 0.56
7 -8 7 1.54 0.56
7 -8 8 6.06 1.11
7 -7 -4 22.87 2.1
7 -7 -3 1.5 0.8
7 -7 -2 2.25 0.9
7 -7 -1 15.2 1.94
7 -7 0 17.61 2.04
7 -7 1 0.36 0.65
7 -7 2 73.15 4.01
7 -7 2 78.65 4.37
7 -7 3 93.45 4.85
7 -7 4 2.21 0.71
7 -7 5 8.84 1.79
7 -7 5 5.25 1.14
7 -7 6 18.9 2.26
7 -7 6 18.6 2.24
7 -7 7 34.08 2.76
7 -7 7 29.12 2.63
7 -7 8 31.04 2.3
7 -7 8 26.04 2.32
7 -7 9 3.83 0.72
7 -6 -5 13.48 1.58
7 -6 -4 52.09 3.59
7 -6 -3 41.68 3.25
7 -6 -2 60.03 4.01
7 -6 -1 77.21 4.38
7 -6 0 -0.02 0.77
7 -6 1 3.81 1.01
7 -6 2 1.14 0.43
7 -6 2 2.9 0.79
7 -6 3 10.15 1.92
7 -6 3 5.52 1.23
7 -6 4 29.55 4.03
7 -6 4 11.47 1.81
7 -6 5 57.64 4.32
7 -6 5 51.94 3.91
7 -6 6 10.44 1.93
7 -6 6 9.51 1.95
7 -6 7 0.8 0.68
7 -6 7 0.06 0.5
7 -6 8 0.49 0.43
7 -6 8 1.11 0.66
7 -6 9 1.48 0.48
7 -5 -6 1.35 0.42
7 -5 -6 2.58 0.68
7 -5 -5 12.21 1.82
7 -5 -5 8.68 1.58
7 -5 -4 1.3 1.01
7 -5 -4 -0.1 0.61
7 -5 -3 36.8 3.3
7 -5 -2 99.7 5.27
7 -5 -1 44.31 3.39
7 -5 0 19.2 2.4
7 -5 1 0.29 0.58
7 -5 2 48.79 3.49
7 -5 2 57.24 4.48
7 -5 2 49.17 3.54
7 -5 3 6.8 1.34
7 -5 3 7.47 2.06
7 -5 3 7.14 1.74
7 -5 4 17 2.44
7 -5 4 16.23 2.13
7 -5 5 177.45 8.19
7 -5 5 162.71 7.14
7 -5 6 0.88 0.62
7 -5 6 1.61 0.9
7 -5 7 72.67 4.81
7 -5 7 46.49 4.01
7 -5 8 6.52 1.32
7 -5 8 6.06 1.1
7 -5 9 8.06 1.21
7 -4 -7 26.27 1.79
7 -4 -6 15.82 1.7
7 -4 -6 13.57 1.74
7 -4 -6 17.27 2.14
7 -4 -5 6.76 1.71
7 -4 -5 3.06 1.61
7 -4 -4 172.49 7.03
7 -4 -4 144.21 7.45
7 -4 -3 0.42 0.66
7 -4 -3 2.02 0.86
7 -4 -2 60.02 4.12
7 -4 -1 1.59 0.77
7 -4 0 0.93 0.67
7 -4 1 125.62 6.11
7 -4 1 125.32 5.85
7 -4 2 12.41 1.89
7 -4 2 9.89 2.13
7 -4 2 7.47 1.34
7 -4 3 2.19 0.72
7 -4 3 4.28 1.18
7 -4 3 3.2 0.89
7 -4 4 0.49 0.7
7 -4 4 0.77 0.8
7 -4 5 17.65 2.81
7 -4 5 18.95 2.53
7 -4 6 74.37 5.68
7 -4 6 61.24 5.03
7 -4 7 87.36 5.53
7 -4 8 97.63 5.19
7 -4 9 0.52 0.39
7 -3 -8 40.8 2.09
7 -3 -7 0.6 0.39
7 -3 -7 1.72 0.69
7 -3 -6 43.94 3.14
7 -3 -6 48.47 3.69
7 -3 -5 37.75 3.46
7 -3 -5 28.56 3.59
7 -3 -4 88.21 5.11
7 -3 -4 83.95 5.45
7 -3 -3 17.69 2.35
7 -3 -3 36.68 3.83
7 -3 -2 12.9 1.92
7 -3 -1 97.57 4.92
7 -3 0 19.28 2.63
7 -3 0 21.14 2.28
7 -3 1 3.96 0.98
7 -3 1 3.86 0.87
7 -3 2 161.16 6.68
7 -3 2 164.23 7.89
7 -3 3 54.5 3.48
7 -3 3 43.34 4.13
7 -3 4 141.69 7.75
7 -3 4 154.41 6.93
7 -3 5 -0.08 0.69
7 -3 5 2.99 1.52
7 -3 6 3.1 1.63
7 -3 6 5.1 1.79
7 -3 7 18.6 2.79
7 -3 8 7.35 1.49
7 -3 9 9.83 1.29
7 -2 -8 45.04 2.84
7 -2 -7 6.61 1.04
7 -2 -7 6.59 1.4
7 -2 -6 13.98 1.88
7 -2 -6 12.64 1.7
7 -2 -5 103.58 5.97
7 -2 -5 115.63 5.91
7 -2 -5 105.9 6.58
7 -2 -5 97.09 6.29
7 -2 -4 7.71 1.71
7 -2 -4 6.87 1.73
7 -2 -4 4.67 1.23
7 -2 -3 5.99 1.58
7 -2 -2 231.57 9.69
7 -2 -2 210.54 7.71
7 -2 -1 13.58 2.55
7 -2 0 24.77 2.89
7 -2 0 26.69 3.16
7 -2 1 3.08 1
7 -2 1 4.02 1.09
7 -2 2 67.88 4.21
7 -2 2 67.03 5.01
7 -2 2 68.05 4.35
7 -2 3 41.64 4.07
7 -2 3 54.68 4.04
7 -2 3 48.38 3.35
7 -2 4 23.91 3.36
7 -2 4 29.91 3.27
7 -2 5 224.56 10.52
7 -2 5 219.26 7.77
7 -2 6 7.46 2.25
7 -2 6 8.7 1.61
7 -2 7 4.51 1.63
7 -2 7 9.32 1.56
7 -2 8 1.37 0.79
7 -2 9 25.05 1.87
7 -1 -9 90.42 3.24
7 -1 -8 1.81 0.76
7 -1 -8 2.03 0.77
7 -1 -7 7.76 1.19
7 -1 -7 12.06 2.35
7 -1 -7 9.87 1.79
7 -1 -6 19.06 2.31
7 -1 -6 20.45 3.24
7 -1 -6 21.08 2.82
7 -1 -5 12.92 2.05
7 -1 -5 12.58 2.55
7 -1 -5 11.66 2.15
7 -1 -4 22.08 2.87
7 -1 -4 25.6 3.65
7 -1 -4 22.46 2.82
7 -1 -3 1.38 0.69
7 -1 -3 5.81 1.87
7 -1 -3 6.15 1.61
7 -1 -2 50.71 4.85
7 -1 -2 38.87 3.36
7 -1 -1 74.97 5.25
7 -1 0 82.13 5.23
7 -1 0 70.99 5.05
7 -1 0 70.84 5.45
7 -1 1 141.75 6.48
7 -1 1 140.58 7.12
7 -1 1 151.56 7.8
7 -1 1 130.64 5.83
7 -1 2 3.58 1.42
7 -1 2 -0.4 0.82
7 -1 2 2.28 1.43
7 -1 2 0.5 0.73
7 -1 3 7.63 1.8
7 -1 3 9.24 1.72
7 -1 3 10.61 1.6
7 -1 4 64.94 5.52
7 -1 4 69.95 4.61
7 -1 5 39.45 4.91
7 -1 5 35.36 3.15
7 -1 6 3.81 2.01
7 -1 6 9.49 1.55
7 -1 7 17.31 2.57
7 -1 7 18.47 1.9
7 -1 8 0.4 0.52
7 -1 8 5.76 1.04
7 0 -9 3.05 0.85
7 0 -9 5.26 0.91
7 0 -8 20.61 2.78
7 0 -8 21.56 2.35
7 0 -7 5.82 1.08
7 0 -7 4.95 2.04
7 0 -7 8.05 1.78
7 0 -6 6.32 1.37
7 0 -6 11.58 2.83
7 0 -6 7.93 1.8
7 0 -5 13.57 2.24
7 0 -5 15.2 3.03
7 0 -5 15.42 2.37
7 0 -4 -0.49 0.86
7 0 -4 0.45 0.74
7 0 -4 1.07 0.94
7 0 -3 3.21 1.13
7 0 -3 5.13 1.31
7 0 -2 1.46 0.96
7 0 -2 3.44 1.03
7 0 -1 4.24 1.24
7 0 -1 3.54 1.03
7 0 -1 3.02 0.97
7 0 0 15.48 2.14
7 0 0 15.57 2.42
7 0 0 14.72 2.56
7 0 1 10.83 2
7 0 1 11.77 2.4
7 0 1 13.01 1.8
7 0 1 16.22 2.29
7 0 2 81.25 5.68
7 0 2 94.26 6.16
7 0 2 98.18 5.5
7 0 3 4.93 1.46
7 0 3 5.18 1.64
7 0 3 5.49 1.54
7 0 3 7.53 1.74
7 0 4 23 3.23
7 0 4 20.65 2.59
7 0 5 28.84 3.76
7 0 5 31.78 3.06
7 0 6 2 1.02
7 0 6 3.09 0.86
7 0 7 0.37 0.43
7 0 7 -0.04 0.44
7 0 8 5.23 0.85
7 1 -9 12.7 1.9
7 1 -9 12.49 1.56
7 1 -8 2.34 1.31
7 1 -8 1.81 0.89
7 1 -7 1.85 1.56
7 1 -7 3.86 1.24
7 1 -6 3.16 0.8
7 1 -6 3.64 1.88
7 1 -6 6.05 1.53
7 1 -5 17.49 2.35
7 1 -5 14.45 2.91
7 1 -5 13.62 2.32
7 1 -4 -0.68 1.01
7 1 -4 1 1.19
7 1 -4 -0.3 0.62
7 1 -3 28.79 3.31
7 1 -3 18.54 2.64
7 1 -2 130.39 6.69
7 1 -2 102.41 5.78
7 1 -1 31.33 3.32
7 1 -1 22.04 3.05
7 1 -1 25.42 2.67
7 1 0 70.09 4.74
7 1 0 63.65 5.27
7 1 1 89.57 5.62
7 1 1 82.18 5.96
7 1 1 91.83 5.21
7 1 2 11.94 2.07
7 1 2 12.8 2.38
7 1 2 16.03 2.36
7 1 2 19.78 2.65
7 1 3 -0.21 0.73
7 1 3 0.8 0.57
7 1 3 -0.29 0.71
7 1 3 0.09 0.92
7 1 4 3.31 1.23
7 1 4 3.41 1.18
7 1 5 5.39 1.34
7 1 5 7.62 1.49
7 1 6 3.25 0.97
7 1 6 6.13 1.14
7 1 7 0.4 0.31
7 1 7 0.67 0.44
7 2 -10 -0.47 0.55
7 2 -10 0.04 0.3
7 2 -9 0.13 0.83
7 2 -9 0.21 0.49
7 2 -8 5.51 1.78
7 2 -8 5.6 1.29
7 2 -7 2.2 1.77
7 2 -7 0.63 0.83
7 2 -6 0.79 0.54
7 2 -6 1.53 1.3
7 2 -6 -0.38 0.72
7 2 -5 37.28 4.75
7 2 -5 29.87 3.38
7 2 -4 60.61 6.08
7 2 -4 65.21 4.8
7 2 -4 79.21 4.97
7 2 -3 61.26 4.55
7 2 -3 79.24 5.03
7 2 -2 3.3 1.35
7 2 -2 4.3 1.23
7 2 -1 28.43 3.67
7 2 -1 28.99 2.9
7 2 -1 38.14 3.64
7 2 0 2.48 1.23
7 2 0 2.5 1.21
7 2 0 2.07 0.84
7 2 1 28.95 3.46
7 2 1 23.78 2.87
7 2 1 26.29 3.23
7 2 2 30.86 3.48
7 2 2 25.82 3.15
7 2 2 21.35 3.13
7 2 3 2.15 1.07
7 2 3 2.02 0.87
7 2 4 19.52 2.52
7 2 4 22.2 2.65
7 2 5 0.51 0.69
7 2 6 54.78 3.01
7 2 7 4.4 0.67
-7 -3 10 4.74 0.76
7 3 -10 6.58 1.18
7 3 -10 7.56 0.93
7 3 -9 7.15 1.67
7 3 -9 8.89 1.32
7 3 -8 4.97 1.41
7 3 -8 6.69 1.36
7 3 -7 5.82 1.98
7 3 -7 4.75 1.31
7 3 -6 4.93 1.83
7 3 -6 4.84 1.35
7 3 -6 8.54 1.46
7 3 -5 35.38 4.66
7 3 -5 34.19 3.55
7 3 -5 43.47 3.4
7 3 -4 66 4.82
7 3 -4 72.65 4.65
7 3 -3 109.11 6.87
7 3 -3 121.83 6.28
7 3 -2 68.22 4.58
7 3 -2 73.72 4.86
7 3 -1 20.7 3.24
7 3 -1 22.84 2.62
7 3 -1 21.44 3.08
7 3 0 1.13 1.21
7 3 0 -0.53 0.86
7 3 0 -0.26 0.44
7 3 1 -0.01 0.86
7 3 1 0.27 0.87
7 3 1 0.76 0.85
7 3 2 4.46 1.55
7 3 2 3.3 1.44
7 3 3 14.29 2.11
7 3 3 15.45 2.32
7 3 4 34.53 2.95
7 3 5 2.47 0.7
7 3 6 11.74 1.11
-7 -4 10 10.95 1
7 4 -9 3.48 1.28
7 4 -9 3.75 0.9
7 4 -8 31.23 3.75
7 4 -8 34.88 2.91
7 4 -7 94.53 7.19
7 4 -7 99.72 5.46
7 4 -6 16.6 2.47
7 4 -6 27.27 2.51
7 4 -5 2.92 1.09
7 4 -5 -0.02 0.67
7 4 -4 6.76 1.61
7 4 -4 5.24 1.43
7 4 -4 5.21 1.38
7 4 -3 6.99 1.89
7 4 -3 11.8 1.96
7 4 -3 12.16 2.16
7 4 -2 40.42 4.49
7 4 -2 52.02 3.96
7 4 -2 47.36 4.4
7 4 -1 34.74 3.97
7 4 -1 36.35 3.31
7 4 -1 29.64 3.44
7 4 0 107.99 6.74
7 4 0 111.64 5.54
7 4 1 -0.28 0.9
7 4 1 -0.17 0.43
7 4 1 0.44 0.97
7 4 2 5.22 1.34
7 4 2 5.28 1.62
7 4 3 48.25 3.48
7 4 3 59.94 3.96
7 4 4 2.08 0.7
7 4 5 0.58 0.4
-7 -5 9 1.31 0.65
7 5 -9 0.01 0.37
7 5 -8 -0.73 0.58
7 5 -7 46.42 3.43
7 5 -6 66.02 4.3
7 5 -5 59.17 4.18
7 5 -5 52.21 3.81
7 5 -4 81.49 6.22
7 5 -4 85.31 5.03
7 5 -4 84.34 5.4
7 5 -3 3.63 1.3
7 5 -3 4.3 1.28
7 5 -2 20.57 3.2
7 5 -2 17.25 2.43
7 5 -1 42.97 4.18
7 5 -1 36.69 3.3
7 5 0 26.39 3.1
7 5 0 18.59 2.27
7 5 1 8.8 1.78
7 5 1 6.8 1.25
7 5 1 5.82 1.42
7 5 2 5.42 1.23
7 5 2 7.48 1.46
7 5 3 64.93 3.45
7 5 3 83.86 3.81
7 5 4 40.65 2.13
7 6 -9 24.74 1.8
-7 -6 8 18.34 1.47
7 6 -8 17.68 1.93
7 6 -7 0.28 0.47
7 6 -6 3.14 1.04
7 6 -5 0.36 0.63
7 6 -5 1.38 0.7
7 6 -4 96.47 5.13
7 6 -3 80.18 4.7
7 6 -2 0.91 0.84
7 6 -2 4.62 1.23
7 6 -1 11.79 2.06
7 6 -1 10.73 1.71
7 6 0 61.06 4.22
7 6 0 42.81 3.17
7 6 1 22.97 2.35
7 6 1 15.35 1.65
7 6 1 19.93 1.85
7 6 2 0.76 0.55
7 6 2 0.63 0.46
7 7 -8 20.89 1.77
7 7 -7 70.46 3.7
7 7 -6 22.99 2.26
7 7 -5 2.62 0.97
7 7 -5 3.52 1.01
7 7 -4 9.08 1.87
7 7 -4 15.36 1.93
7 7 -3 18.01 2.49
7 7 -3 17.33 2.05
7 7 -2 1.19 0.68
7 7 -2 1.22 0.71
7 7 -1 10.16 1.62
7 7 -1 7.18 1.35
7 7 0 30.03 2.52
7 7 0 19.81 1.86
7 7 1 6.37 1.06
7 8 -7 2.21 0.67
7 8 -6 -0.4 0.47
7 8 -5 1.45 0.71
7 8 -5 2.01 0.74
7 8 -4 7.75 1.48
7 8 -4 10.88 1.5
7 8 -3 5.02 1.33
7 8 -3 5.32 1.14
7 8 -2 0.87 0.67
7 8 -2 0.39 0.45
7 8 -1 2.82 0.78
8 -8 0 0.58 0.43
8 -8 1 12.9 1.27
8 -8 2 29.58 1.88
8 -8 3 5.25 0.79
8 -8 4 35.5 2.05
8 -8 5 10.83 1.07
8 -7 -2 27.43 1.98
8 -7 -2 32.76 1.97
8 -7 -1 8.46 1.22
8 -7 -1 12.91 1.36
8 -7 0 5.08 0.96
8 -7 0 7.28 1.12
8 -7 1 2.21 0.5
8 -7 1 3.8 0.71
8 -7 2 45.71 2.58
8 -7 3 2.65 0.67
8 -7 4 1.68 0.69
8 -7 5 1.57 0.52
8 -6 -3 2.38 0.73
8 -6 -3 1.48 0.55
8 -6 -2 10.78 1.89
8 -6 -2 14.07 1.51
8 -6 -1 2.23 0.86
8 -6 -1 2.75 0.71
8 -6 0 0.53 0.48
8 -6 0 0.23 0.37
8 -6 1 66.22 3.38
8 -6 1 75.13 3.45
8 -6 2 5.36 0.85
8 -6 2 5.66 0.95
8 -6 3 60.81 3.2
8 -6 4 0.18 0.58
8 -6 5 56.89 3.45
8 -5 -4 4.9 0.89
8 -5 -3 1.09 0.67
8 -5 -3 2.67 0.98
8 -5 -2 22.67 2.93
8 -5 -2 26.28 2.16
8 -5 -1 2.76 1.04
8 -5 -1 2.08 0.73
8 -5 0 17.34 2.04
8 -5 0 20.15 1.84
8 -5 1 17.95 1.84
8 -5 1 18 1.72
8 -5 2 28.2 2.08
8 -5 2 29.92 2.23
8 -5 3 12.39 1.43
8 -5 5 15.05 2.05
8 -5 6 148.41 5.4
8 -5 7 8.11 1.12
8 -4 -5 22.33 1.61
8 -4 -4 97.64 4.34
8 -4 -4 91.84 3.59
8 -4 -3 196.08 7.49
8 -4 -3 195.38 5.76
8 -4 -2 74.81 4.88
8 -4 -2 67.73 3.44
8 -4 -1 4.66 1.24
8 -4 -1 4.86 0.95
8 -4 0 20.17 2.19
8 -4 0 19.22 1.81
8 -4 1 4.28 0.93
8 -4 2 2.63 0.63
8 -4 3 6.48 1.54
8 -4 4 16.55 2.25
8 -4 5 15.76 2.17
8 -4 6 21.47 2.24
8 -4 7 2.26 0.72
8 -3 -5 26.85 1.98
8 -3 -5 37.42 2.99
8 -3 -4 1.44 0.74
8 -3 -3 134.17 6.14
8 -3 -2 6.91 1.45
8 -3 -1 6.96 1.29
8 -3 0 -0.6 0.84
8 -3 1 67.41 3.74
8 -3 2 1.23 0.69
8 -3 3 91.9 5.18
8 -3 3 106.53 3.93
8 -3 4 79.26 4.85
8 -3 5 2.42 1.13
8 -3 6 0.79 0.49
8 -3 7 -0.17 0.32
8 -2 -6 1.53 0.44
8 -2 -6 2.5 0.76
8 -2 -5 1.34 0.56
8 -2 -5 0.58 0.79
8 -2 -4 8.25 1.38
8 -2 -4 8.99 1.51
8 -2 -3 39.41 3.23
8 -2 -2 -0.63 0.71
8 -2 -1 87.55 4.84
8 -2 0 172.89 6.47
8 -2 1 70.65 3.91
8 -2 2 0.76 0.67
8 -2 2 3.25 1.47
8 -2 3 0.32 0.48
8 -2 3 0.7 0.85
8 -2 4 9.14 1.82
8 -2 5 3.86 1.47
8 -2 6 8.81 1.53
8 -1 -7 -0.02 0.31
8 -1 -6 22.08 2.19
8 -1 -6 19.54 1.49
8 -1 -5 0.16 0.44
8 -1 -5 0.49 0.62
8 -1 -4 0.21 0.63
8 -1 -4 0.13 0.45
8 -1 -3 50.33 3.65
8 -1 -3 40.92 2.89
8 -1 -2 12.67 1.91
8 -1 -1 2.72 0.76
8 -1 0 154.35 6.13
8 -1 1 3.49 1.03
8 -1 2 3.7 1.21
8 -1 2 4.63 1.45
8 -1 3 0.95 0.66
8 -1 3 1.21 0.71
8 -1 4 11.99 2.08
8 -1 5 13.98 2.1
8 -1 6 3.68 0.83
8 0 -7 9.22 1.19
8 0 -6 -0.04 0.31
8 0 -6 0.44 0.54
8 0 -5 18.28 2.18
8 0 -5 12.68 1.5
8 0 -4 225.62 7.23
8 0 -4 211.55 7.15
8 0 -3 67.43 4.21
8 0 -3 60.73 3.63
8 0 -2 18.75 2.24
8 0 -1 24.5 2.57
8 0 0 6.88 1.5
8 0 1 9.87 1.8
8 0 2 10.67 1.7
8 0 2 8.36 1.63
8 0 3 61.47 3.95
8 0 3 72.11 3.94
8 0 4 56.41 3.58
8 0 4 66.85 3.54
8 0 5 29.43 2.19
8 0 5 42.53 2.5
8 1 -7 1.73 0.67
8 1 -6 19.48 2.06
8 1 -6 21.08 1.65
8 1 -5 38.1 3.07
8 1 -5 31.19 2.36
8 1 -4 3.68 0.91
8 1 -4 2.9 0.91
8 1 -3 17.97 1.98
8 1 -3 16.39 2.17
8 1 -2 16.58 1.82
8 1 -2 15.88 2.11
8 1 -1 188.47 7.16
8 1 0 5.87 1.59
8 1 0 6.8 1.63
8 1 1 1.87 1.07
8 1 2 23.74 2.31
8 1 3 15.38 1.93
8 1 4 7.53 1.2
8 1 5 70.96 2.78
8 2 -8 1.8 0.49
8 2 -7 58.11 3.07
8 2 -6 22.79 2.16
8 2 -6 29.63 1.97
8 2 -5 0.2 0.43
8 2 -5 0.39 0.5
8 2 -4 10.02 1.44
8 2 -4 8.83 1.34
8 2 -3 5.57 1.34
8 2 -3 3.31 0.91
8 2 -2 16.03 1.83
8 2 -2 13.44 2.14
8 2 -1 8.4 1.76
8 2 -1 14.57 2.21
8 2 0 5.24 1.45
8 2 0 5.26 1.4
8 2 1 4.71 1.26
8 2 2 21.32 2.26
8 2 3 24.97 2.29
8 2 4 9.28 1.14
8 3 -7 1.65 0.57
8 3 -6 5.29 0.88
8 3 -6 3.21 0.82
8 3 -5 56.68 3.49
8 3 -5 70.19 3.44
8 3 -4 237.28 7.17
8 3 -4 293.39 8.24
8 3 -3 20.99 2.11
8 3 -3 25.91 2.82
8 3 -2 25.57 2.86
8 3 -2 25.06 2.26
8 3 -2 28.62 3.15
8 3 -1 2.3 1.18
8 3 -1 4.28 1.32
8 3 -1 3.32 0.81
8 3 0 86.05 5.01
8 3 1 1.49 0.89
8 4 -7 16.51 1.6
8 4 -6 0.03 0.39
8 4 -5 0.24 0.51
8 4 -4 3.51 0.93
8 4 -3 3.72 1.06
8 4 -3 3.97 0.88
8 4 -2 16.58 2.6
8 4 -2 30.43 2.3
8 4 -1 293.73 9.31
8 4 -1 248.15 6.21
8 4 0 29.37 2.73
8 4 1 1.25 0.84
8 5 -7 5.98 0.94
8 5 -6 16.22 1.71
8 5 -5 3.68 0.89
8 5 -4 2.85 0.8
8 5 -3 1.55 0.89
8 5 -3 1.34 0.58
8 5 -2 1.05 0.67
8 5 -2 2.46 0.71
8 5 -1 156.77 5.84
8 5 0 45.52 2.88
8 6 -5 0.24 0.45
8 6 -4 -0.07 0.43
8 6 -3 1.44 0.52
8 6 -2 -0.55 0.45
9 -4 -1 80.01 3.2
9 -4 0 48.7 2.2
9 -3 -2 4.99 0.95
9 -3 -1 -0.32 0.49
9 -3 0 1.85 0.49
9 -3 1 4.37 0.69
9 -2 -3 17.26 1.47
9 -2 -2 60.31 3.07
9 -2 -1 1.15 0.58
9 -2 0 0.85 0.57
9 -2 1 5.91 0.92
9 -1 -3 0.42 0.44
9 -1 -2 -0.02 0.45
9 -1 -1 105.32 4.09
9 -1 0 11.49 1.43
9 -1 1 9.34 1.19
9 0 -3 5.56 0.93
9 0 -2 0.52 0.61
9 0 -1 6.82 1.22
9 0 0 -0.06 0.41
9 1 -3 16.1 1.59
9 1 -2 17.13 1.9
9 1 -1 0.47 0.42
loop_
_exptl_oxdiff_crystal_face_indexfrac_h
_exptl_oxdiff_crystal_face_indexfrac_k
_exptl_oxdiff_crystal_face_indexfrac_l
_exptl_oxdiff_crystal_face_x
_exptl_oxdiff_crystal_face_y
_exptl_oxdiff_crystal_face_z
0.0312 7.1692 -0.4688 0.5104 0.8345 0.2078
0.0997 -7.1988 0.4965 -0.5132 -0.8390 -0.1809
4.7206 0.8631 -0.6378 0.1669 -0.1032 0.9806
0.1614 -2.6202 7.7175 -0.8380 0.5125 0.1874
-4.7074 -0.9746 0.9688 -0.2027 0.1251 -0.9712
-0.1614 2.6202 -7.7175 0.8380 -0.5125 -0.1874
loop_
_smtbx_masks_void_nr
_smtbx_masks_void_average_x
_smtbx_masks_void_average_y
_smtbx_masks_void_average_z
_smtbx_masks_void_volume
_smtbx_masks_void_count_electrons
_smtbx_masks_void_content
1 -0.233 0.000 0.000 150.7 60.2 ?
