#------------------------------------------------------------------------------
#$Date: 2023-12-12 14:54:19 +0200 (Tue, 12 Dec 2023) $
#$Revision: 288248 $
#$URL: file:///home/coder/svn-repositories/cod/cif/1/56/53/1565369.cif $
#------------------------------------------------------------------------------
#
# This file is available in the Crystallography Open Database (COD),
# http://www.crystallography.net/
#
# All data on this site have been placed in the public domain by the
# contributors.
#
data_1565369
loop_
_publ_author_name
'Borys, Andryj M.'
'Clark, Ewan R.'
'Saines, Paul J.'
'Alberola, Antonio'
'Rawson, Jeremy M.'
_publ_section_title
;
 A short, versatile route towards benzothiadiazinyl radicals.
;
_journal_issue                   1
_journal_name_full               'Chemical science'
_journal_page_first              149
_journal_page_last               158
_journal_paper_doi               10.1039/d1sc04248c
_journal_volume                  13
_journal_year                    2021
_chemical_formula_moiety         'C14 H8 Cl4 N2 O S'
_chemical_formula_sum            'C14 H8 Cl4 N2 O S'
_chemical_formula_weight         394.08
_chemical_properties_physical    Moisture-sensitive
_space_group_crystal_system      triclinic
_space_group_IT_number           2
_space_group_name_Hall           '-P 1'
_space_group_name_H-M_alt        'P -1'
_atom_sites_solution_hydrogens   mixed
_atom_sites_solution_primary     direct
_audit_creation_date             2017-08-16
_audit_creation_method
;
Olex2 1.2
(compiled 2017.01.04 svn.r3372 for OlexSys, GUI svn.r5289)
;
_audit_update_record
;
2021-08-03 deposited with the CCDC.	2021-11-23 downloaded from the CCDC.
;
_cell_angle_alpha                83.2406(19)
_cell_angle_beta                 78.4301(19)
_cell_angle_gamma                71.106(2)
_cell_formula_units_Z            2
_cell_length_a                   7.10603(16)
_cell_length_b                   7.22142(17)
_cell_length_c                   15.6955(4)
_cell_measurement_reflns_used    10470
_cell_measurement_temperature    100.00(10)
_cell_measurement_theta_max      76.0600
_cell_measurement_theta_min      2.8610
_cell_volume                     745.33(3)
_computing_cell_refinement       'CrysAlisPro 1.171.38.41 (Rigaku OD, 2015)'
_computing_data_collection       'CrysAlisPro 1.171.38.41 (Rigaku OD, 2015)'
_computing_data_reduction        'CrysAlisPro 1.171.38.41 (Rigaku OD, 2015)'
_computing_molecular_graphics    'Olex2 (Dolomanov et al., 2009)'
_computing_publication_material  'Olex2 (Dolomanov et al., 2009)'
_computing_structure_refinement  'ShelXL (Sheldrick, 2015)'
_computing_structure_solution    'ShelXT (Sheldrick, 2015)'
_diffrn_ambient_environment      N~2~
_diffrn_ambient_temperature      100.00(10)
_diffrn_detector                 'CCD plate'
_diffrn_detector_area_resol_mean 5.2887
_diffrn_detector_type            AtlasS2
_diffrn_measured_fraction_theta_full 1.000
_diffrn_measured_fraction_theta_max 1.000
_diffrn_measurement_details
;
List of Runs (angles in degrees, time in seconds):

  # Type    Start    End  Width  t~exp~   \w     \q     \k     \f   Frames
#--------------------------------------------------------------------------
  1  \w   -115.00 -16.00   1.00    1.00    --  -40.37 -38.00-150.00   99
  2  \w    -73.00  36.00   1.00    1.00    --  -40.37  77.00 -30.00  109
  3  \w   -115.00 -16.00   1.00    1.00    --  -40.37 -38.00 120.00   99
  4  \w      1.00  81.00   1.00    1.00    --   40.37 -99.00  90.00   80
  5  \w      1.00  81.00   1.00    1.00    --   40.37 -99.00  60.00   80
  6  \w     23.00  96.00   1.00    1.00    --   40.37-125.00-150.00   73
  7  \w     29.00 109.00   1.00    1.00    --  112.00 -94.00  60.00   80
  8  \w     86.00 178.00   1.00    1.00    --  112.00  45.00 -60.00   92
  9  \w     86.00 178.00   1.00    1.00    --  112.00  45.00-180.00   92
 10  \w     86.00 178.00   1.00    1.00    --  112.00  45.00-150.00   92
 11  \w     36.00 116.00   1.00    1.00    --  112.00-111.00 -90.00   80
 12  \w     36.00 145.00   1.00    1.00    --  112.00 -77.00 120.00  109
 13  \w    100.00 178.00   1.00    1.00    --  112.00 111.00 120.00   78
 14  \w     36.00 116.00   1.00    1.00    --  112.00-111.00 120.00   80
 15  \w     40.00 141.00   1.00    1.00    --  112.00 -61.00-120.00  101
 16  \w    100.00 178.00   1.00    1.00    --  112.00 111.00 150.00   78
 17  \w     36.00 116.00   1.00    1.00    --  112.00-111.00   0.00   80
 18  \w     37.00 117.00   1.00    1.00    --  112.00-115.00-117.00   80
 19  \w     29.00 109.00   1.00    1.00    --  112.00 -94.00 -90.00   80
 20  \w     79.00 178.00   1.00    1.00    --  112.00  77.00-120.00   99
 21  \w   -115.00 -16.00   1.00    1.00    --  -40.37 -38.00 -60.00   99
 22  \w   -117.00  -8.00   1.00    1.00    --  -40.37 -77.00  90.00  109
 23  \w    -34.00  65.00   1.00    1.00    --   40.37 -38.00-150.00   99
 24  \w      8.00 117.00   1.00    1.00    --   40.37  77.00 -90.00  109
 25  \w      8.00 117.00   1.00    1.00    --   40.37  77.00   0.00  109
 26  \w      4.00  33.00   1.00    1.00    --   40.37  88.00-158.51   29
 27  \w     59.00 178.00   1.00    1.00    --  112.00  15.00  90.00  119
 28  \w     79.00 178.00   1.00    1.00    --  112.00  77.00   0.00   99
 29  \w     79.00 178.00   1.00    1.00    --  112.00  77.00 120.00   99
 30  \w     79.00 178.00   1.00    1.00    --  112.00  77.00 -60.00   99
 31  \w     79.00 178.00   1.00    1.00    --  112.00  77.00  60.00   99
 32  \w     86.00 178.00   1.00    1.00    --  112.00  45.00 120.00   92
 33  \w     79.00 178.00   1.00    1.00    --  112.00  77.00-150.00   99
 34  \w     79.00 178.00   1.00    1.00    --  112.00  77.00  30.00   99
 35  \w     83.00 178.00   1.00    1.00    --  112.00  61.00  90.00   95
 36  \w     83.00 178.00   1.00    1.00    --  112.00  61.00 150.00   95
 37  \w     79.00 178.00   1.00    1.00    --  112.00  77.00 -30.00   99
;
_diffrn_measurement_device       'four-circle diffractometer'
_diffrn_measurement_device_type  'SuperNova, Dual, Cu at zero, AtlasS2'
_diffrn_measurement_method       '\w scans'
_diffrn_orient_matrix_type
'CrysAlisPro convention (1999,Acta A55,543-557)'
_diffrn_orient_matrix_UB_11      0.2032564000
_diffrn_orient_matrix_UB_12      -0.1554607000
_diffrn_orient_matrix_UB_13      -0.0303672000
_diffrn_orient_matrix_UB_21      0.0413911000
_diffrn_orient_matrix_UB_22      -0.0354161000
_diffrn_orient_matrix_UB_23      0.0941725000
_diffrn_orient_matrix_UB_31      -0.1053473000
_diffrn_orient_matrix_UB_32      -0.1599522000
_diffrn_orient_matrix_UB_33      0.0167278000
_diffrn_radiation_monochromator  mirror
_diffrn_radiation_probe          x-ray
_diffrn_radiation_type           CuK\a
_diffrn_radiation_wavelength     1.54184
_diffrn_reflns_av_R_equivalents  0.0297
_diffrn_reflns_av_unetI/netI     0.0191
_diffrn_reflns_Laue_measured_fraction_full 1.000
_diffrn_reflns_Laue_measured_fraction_max 1.000
_diffrn_reflns_limit_h_max       8
_diffrn_reflns_limit_h_min       -8
_diffrn_reflns_limit_k_max       8
_diffrn_reflns_limit_k_min       -8
_diffrn_reflns_limit_l_max       19
_diffrn_reflns_limit_l_min       -19
_diffrn_reflns_number            14538
_diffrn_reflns_point_group_measured_fraction_full 1.000
_diffrn_reflns_point_group_measured_fraction_max 1.000
_diffrn_reflns_theta_full        67.684
_diffrn_reflns_theta_max         71.255
_diffrn_reflns_theta_min         2.878
_diffrn_source                   'micro-focus sealed X-ray tube'
_diffrn_source_type              'SuperNova (Cu) X-ray Source'
_exptl_absorpt_coefficient_mu    8.544
_exptl_absorpt_correction_T_max  0.559
_exptl_absorpt_correction_T_min  0.202
_exptl_absorpt_correction_type   gaussian
_exptl_absorpt_process_details
;
CrysAlisPro 1.171.38.41 (Rigaku Oxford Diffraction, 2015)
Numerical absorption correction based on gaussian integration over
			a multifaceted crystal model
Empirical absorption correction using spherical harmonics,
 implemented in SCALE3 ABSPACK scaling algorithm.
;
_exptl_crystal_colour            'clear orangish red'
_exptl_crystal_colour_lustre     clear
_exptl_crystal_colour_modifier   orangish
_exptl_crystal_colour_primary    red
_exptl_crystal_density_diffrn    1.756
_exptl_crystal_description       irregular
_exptl_crystal_F_000             396
_exptl_crystal_size_max          0.367
_exptl_crystal_size_mid          0.197
_exptl_crystal_size_min          0.115
_refine_diff_density_max         0.365
_refine_diff_density_min         -0.332
_refine_diff_density_rms         0.064
_refine_ls_extinction_method     none
_refine_ls_goodness_of_fit_ref   1.055
_refine_ls_hydrogen_treatment    mixed
_refine_ls_matrix_type           full
_refine_ls_number_parameters     230
_refine_ls_number_reflns         2893
_refine_ls_number_restraints     0
_refine_ls_restrained_S_all      1.055
_refine_ls_R_factor_all          0.0277
_refine_ls_R_factor_gt           0.0269
_refine_ls_shift/su_max          0.001
_refine_ls_shift/su_mean         0.000
_refine_ls_structure_factor_coef Fsqd
_refine_ls_weighting_details
'w=1/[\s^2^(Fo^2^)+(0.0504P)^2^+0.2877P] where P=(Fo^2^+2Fc^2^)/3'
_refine_ls_weighting_scheme      calc
_refine_ls_wR_factor_gt          0.0769
_refine_ls_wR_factor_ref         0.0778
_reflns_Friedel_coverage         0.000
_reflns_number_gt                2795
_reflns_number_total             2893
_reflns_threshold_expression     'I > 2\s(I)'
_iucr_refine_instructions_details
;
TITL serc027-r1-rf_a.res in P-1
    serc027-r1-rf.res
    created by SHELXL-2016/6 at 12:16:38 on 16-Aug-2017
REM Old TITL sERC027-R1-rf in P-1 #2
REM SHELXT solution in P-1
REM R1 0.103, Rweak 0.005, Alpha 0.027, Orientation as input
REM Formula found by SHELXT: C15 N3 S Cl4
CELL 1.54184 7.106033 7.221421 15.695491 83.2406 78.4301 71.106
ZERR 2 0.000159 0.000168 0.000359 0.0019 0.0019 0.0021
LATT 1
SFAC C H Cl N O S
UNIT 28 16 8 4 2 2

L.S. 10
PLAN  20
BOND $H
LIST 6
fmap 2
acta
SHEL 999 0.814
REM <olex2.extras>
REM <HklSrc "%.\\sERC027-R1-rf.hkl">
REM </olex2.extras>

WGHT    0.050400    0.287700
FVAR       0.62387
CL2   3    0.297256    0.643285    0.949464    11.00000    0.02947    0.01965 =
         0.01833   -0.00206   -0.00190   -0.00180
S1    6    0.489919    0.442586    0.615291    11.00000    0.02385    0.01820 =
         0.01730   -0.00075   -0.00562   -0.00417
CL1   3    0.776303    0.527003    0.565211    11.00000    0.02369    0.02884 =
         0.02225    0.00333   -0.00321   -0.00491
CL3   3    0.103088    1.076944    0.886416    11.00000    0.02782    0.01766 =
         0.03253   -0.00675    0.00020   -0.00063
CL4   3    0.078215    1.186292    0.689248    11.00000    0.02591    0.01635 =
         0.03838    0.00593   -0.00288    0.00243
O1    5    0.288327    0.843930    0.574903    11.00000    0.02658    0.02451 =
         0.02309    0.00346   -0.00725   -0.00496
N2    4    0.480708    0.371411    0.810220    11.00000    0.01894    0.01377 =
         0.01986   -0.00064   -0.00284   -0.00326
N1    4    0.548362    0.241271    0.668781    11.00000    0.02597    0.01814 =
         0.02011   -0.00122   -0.00486   -0.00544
C2    1    0.387560    0.557958    0.780166    11.00000    0.01511    0.01618 =
         0.02030    0.00053   -0.00246   -0.00406
C1    1    0.553816    0.229172    0.756802    11.00000    0.01640    0.01785 =
         0.02013   -0.00025   -0.00257   -0.00521
C6    1    0.284119    0.809021    0.662593    11.00000    0.02123    0.02079 =
         0.02238    0.00389   -0.00642   -0.00670
C4    1    0.205680    0.898082    0.812290    11.00000    0.01659    0.01609 =
         0.02654   -0.00390   -0.00085   -0.00215
C7    1    0.376946    0.616319    0.692166    11.00000    0.01857    0.01693 =
         0.02105   -0.00012   -0.00349   -0.00387
C8    1    0.646720    0.028007    0.792394    11.00000    0.01640    0.01430 =
         0.02420    0.00019   -0.00255   -0.00443
C5    1    0.197853    0.950188    0.723186    11.00000    0.01648    0.01466 =
         0.03000    0.00221   -0.00438   -0.00255
C3    1    0.295348    0.706492    0.840555    11.00000    0.01784    0.01824 =
         0.01853   -0.00017   -0.00249   -0.00403
C9    1    0.652773   -0.008091    0.881672    11.00000    0.02580    0.01824 =
         0.02271   -0.00182   -0.00099   -0.00396
C13   1    0.730531   -0.127896    0.737798    11.00000    0.02367    0.01986 =
         0.02510   -0.00406   -0.00499   -0.00482
C10   1    0.741548   -0.196158    0.914630    11.00000    0.03061    0.02096 =
         0.02465    0.00350   -0.00434   -0.00521
C11   1    0.825320   -0.350120    0.859759    11.00000    0.02487    0.01516 =
         0.03591    0.00370   -0.00522   -0.00357
C12   1    0.818492   -0.315051    0.771497    11.00000    0.02580    0.01630 =
         0.03480   -0.00668   -0.00499   -0.00256
PART -2
C15   1    0.401809    0.967580    0.527640    10.50000    0.04756    0.02458 =
         0.02314    0.00332   -0.01149   -0.01224
AFIX 137
H15A  2    0.328803    1.102077    0.539000    10.50000   -1.50000
H15B  2    0.421915    0.950477    0.466379    10.50000   -1.50000
H15C  2    0.530459    0.932726    0.545991    10.50000   -1.50000
AFIX   0
PART 0
PART -1
C14   1    0.096397    0.912582    0.543415    10.50000    0.02510    0.03936 =
         0.03145   -0.00279   -0.00948    0.00240
AFIX 137
H14A  2    0.034219    0.810303    0.553473    10.50000   -1.50000
H14B  2    0.119597    0.947424    0.482145    10.50000   -1.50000
H14C  2    0.008976    1.025232    0.573891    10.50000   -1.50000
AFIX   0
PART 0
H9    2    0.593522    0.094563    0.917761    11.00000    0.03232
H13   2    0.729716   -0.101312    0.676290    11.00000    0.04147
H11   2    0.885642   -0.477375    0.882357    11.00000    0.03732
H12   2    0.870584   -0.411226    0.737104    11.00000    0.04625
H10   2    0.738845   -0.213591    0.974201    11.00000    0.03053
HKLF 4




REM  serc027-r1-rf_a.res in P-1
REM R1 =  0.0269 for    2795 Fo > 4sig(Fo)  and  0.0277 for all    2893 data
REM    230 parameters refined using      0 restraints

END  
     
WGHT      0.0504      0.2877 

REM Highest difference peak  0.365,  deepest hole -0.332,  1-sigma level  0.064
Q1    1   0.3970  0.5904  0.7330  11.00000  0.05    0.36
Q2    1   0.1089  1.1738  0.6336  11.00000  0.05    0.35
Q3    1   0.3198  0.6818  0.8919  11.00000  0.05    0.34
Q4    1   0.6577  0.0098  0.8347  11.00000  0.05    0.34
Q5    1   0.2908  0.8333  0.6180  11.00000  0.05    0.32
Q6    1   0.1973  0.9255  0.7684  11.00000  0.05    0.31
Q7    1   0.5167  0.4694  0.5597  11.00000  0.05    0.31
Q8    1   0.1420  1.1332  0.8331  11.00000  0.05    0.29
Q9    1   0.2789  0.8930  0.6896  11.00000  0.05    0.28
Q10   1   0.7223  0.4908  0.6203  11.00000  0.05    0.28
Q11   1   0.4504  0.5436  0.6602  11.00000  0.05    0.28
Q12   1   0.8592 -0.3191  0.8109  11.00000  0.05    0.28
Q13   1   0.4760  0.3627  0.6593  11.00000  0.05    0.27
Q14   1   0.7117  0.4248  0.5844  11.00000  0.05    0.27
Q15   1   0.6951 -0.0374  0.7659  11.00000  0.05    0.25
Q16   1   0.5907  0.5244  0.5801  11.00000  0.05    0.25
Q17   1   0.8040  0.5638  0.5085  11.00000  0.05    0.24
Q18   1   0.2236  0.5764  0.9532  11.00000  0.05    0.24
Q19   1   0.3116  0.8061  0.8208  11.00000  0.05    0.23
Q20   1   0.1959  0.7917  0.8294  11.00000  0.05    0.22

  REM The information below was added by Olex2.
  REM
  REM R1 = 0.0269 for 2795 Fo > 4sig(Fo) and 0.0277 for all 14987 data
  REM n/a parameters refined using n/a restraints
  REM Highest difference peak 0.36, deepest hole -0.33
  REM Mean Shift 0, Max Shift -0.001.

  REM +++ Tabular Listing of Refinement Information +++
  REM R1_all = 0.0277
  REM R1_gt = 0.0269
  REM wR_ref = 0.0778
  REM GOOF = 1.055
  REM Shift_max = -0.001
  REM Shift_mean = 0
  REM Reflections_all = 14987
  REM Reflections_gt = 2795
  REM Parameters = n/a
  REM Hole = -0.33
  REM Peak = 0.36
  REM Flack = n/a

  
;
_cod_data_source_file            d1sc04248c2.cif
_cod_data_source_block           serc027-r1-rf
_cod_depositor_comments
'Adding full bibliography for 1565368--1565385.cif.'
_cod_database_code               1565369
_shelx_shelxl_version_number     2016/6
_chemical_oxdiff_formula         'C14 N2 S1 Cl4 O1 H8'
_chemical_oxdiff_usercomment     ABS-092
_shelx_space_group_comment
;
The symmetry employed for this shelxl refinement is uniquely defined
by the following loop, which should always be used as a source of
symmetry information in preference to the above space-group names.
They are only intended as comments.
;
_cell_oxdiff_angle_alpha         83.2406(19)
_cell_oxdiff_angle_beta          78.4301(19)
_cell_oxdiff_angle_gamma         71.106(2)
_cell_oxdiff_length_a            7.10603(16)
_cell_oxdiff_length_b            7.22142(17)
_cell_oxdiff_length_c            15.6955(4)
_cell_oxdiff_measurement_reflns_used 10470
_cell_oxdiff_volume              745.33(3)
_reflns_odcompleteness_completeness 100.00
_reflns_odcompleteness_iscentric 1
_reflns_odcompleteness_theta     66.97
_olex2_refinement_description
;
1. Fixed Uiso
 At 1.5 times of:
  All C(H,H,H) groups
2. Others
 Fixed Sof: C15(0.5) H15A(0.5) H15B(0.5) H15C(0.5) C14(0.5) H14A(0.5)
 H14B(0.5) H14C(0.5)
3.a Idealised Me refined as rotating group:
 C15(H15A,H15B,H15C), C14(H14A,H14B,H14C)
;
_olex2_submission_special_instructions 'No special instructions were received'
_oxdiff_exptl_absorpt_empirical_details
;
Empirical correction (ABSPACK) includes:
- Absorption correction using spherical harmonics
- Frame scaling
;
_oxdiff_exptl_absorpt_empirical_full_max 1.887
_oxdiff_exptl_absorpt_empirical_full_min 0.576
loop_
_space_group_symop_operation_xyz
'x, y, z'
'-x, -y, -z'
loop_
_atom_site_label
_atom_site_type_symbol
_atom_site_fract_x
_atom_site_fract_y
_atom_site_fract_z
_atom_site_U_iso_or_equiv
_atom_site_adp_type
_atom_site_occupancy
_atom_site_site_symmetry_order
_atom_site_calc_flag
_atom_site_refinement_flags_posn
_atom_site_refinement_flags_adp
_atom_site_refinement_flags_occupancy
_atom_site_disorder_assembly
_atom_site_disorder_group
Cl2 Cl 0.29726(6) 0.64329(5) 0.94946(2) 0.02414(12) Uani 1 1 d . . . . .
S1 S 0.48992(6) 0.44259(5) 0.61529(2) 0.02007(11) Uani 1 1 d . . . . .
Cl1 Cl 0.77630(6) 0.52700(6) 0.56521(2) 0.02623(12) Uani 1 1 d . . . . .
Cl3 Cl 0.10309(6) 1.07694(6) 0.88642(3) 0.02791(12) Uani 1 1 d . . . . .
Cl4 Cl 0.07822(6) 1.18629(6) 0.68925(3) 0.03010(12) Uani 1 1 d . . . . .
O1 O 0.28833(18) 0.84393(18) 0.57490(8) 0.0254(3) Uani 1 1 d . . . . .
N2 N 0.4807(2) 0.37141(19) 0.81022(9) 0.0181(3) Uani 1 1 d . . . . .
N1 N 0.5484(2) 0.2413(2) 0.66878(9) 0.0216(3) Uani 1 1 d . . . . .
C2 C 0.3876(2) 0.5580(2) 0.78017(10) 0.0176(3) Uani 1 1 d . . . . .
C1 C 0.5538(2) 0.2292(2) 0.75680(10) 0.0183(3) Uani 1 1 d . . . . .
C6 C 0.2841(2) 0.8090(2) 0.66259(11) 0.0215(3) Uani 1 1 d . . . . .
C4 C 0.2057(2) 0.8981(2) 0.81229(11) 0.0206(3) Uani 1 1 d . . . . .
C7 C 0.3769(2) 0.6163(2) 0.69217(11) 0.0193(3) Uani 1 1 d . . . . .
C8 C 0.6467(2) 0.0280(2) 0.79239(11) 0.0186(3) Uani 1 1 d . . . . .
C5 C 0.1979(2) 0.9502(2) 0.72319(11) 0.0212(3) Uani 1 1 d . . . . .
C3 C 0.2953(2) 0.7065(2) 0.84056(10) 0.0188(3) Uani 1 1 d . . . . .
C9 C 0.6528(3) -0.0081(2) 0.88167(11) 0.0234(3) Uani 1 1 d . . . . .
C13 C 0.7305(3) -0.1279(2) 0.73780(11) 0.0230(3) Uani 1 1 d . . . . .
C10 C 0.7415(3) -0.1962(3) 0.91463(12) 0.0266(4) Uani 1 1 d . . . . .
C11 C 0.8253(3) -0.3501(2) 0.85976(12) 0.0264(4) Uani 1 1 d . . . . .
C12 C 0.8185(3) -0.3151(3) 0.77150(12) 0.0262(4) Uani 1 1 d . . . . .
C15 C 0.4018(6) 0.9676(5) 0.5276(2) 0.0311(8) Uani 0.5 1 d . . P A -2
H15A H 0.328803 1.102077 0.539000 0.047 Uiso 0.5 1 calc GR . P A -2
H15B H 0.421915 0.950477 0.466379 0.047 Uiso 0.5 1 calc GR . P A -2
H15C H 0.530459 0.932726 0.545991 0.047 Uiso 0.5 1 calc GR . P A -2
C14 C 0.0964(6) 0.9126(6) 0.5434(3) 0.0343(8) Uani 0.5 1 d . . P A -1
H14A H 0.034219 0.810303 0.553473 0.051 Uiso 0.5 1 calc GR . P A -1
H14B H 0.119597 0.947424 0.482145 0.051 Uiso 0.5 1 calc GR . P A -1
H14C H 0.008976 1.025232 0.573891 0.051 Uiso 0.5 1 calc GR . P A -1
H9 H 0.594(3) 0.095(3) 0.9178(15) 0.032(6) Uiso 1 1 d . . . . .
H13 H 0.730(4) -0.101(4) 0.6763(17) 0.041(6) Uiso 1 1 d . . . . .
H11 H 0.886(4) -0.477(4) 0.8824(15) 0.037(6) Uiso 1 1 d . . . . .
H12 H 0.871(4) -0.411(4) 0.7371(17) 0.046(7) Uiso 1 1 d . . . . .
H10 H 0.739(3) -0.214(3) 0.9742(15) 0.031(5) Uiso 1 1 d . . . . .
loop_
_atom_site_aniso_label
_atom_site_aniso_U_11
_atom_site_aniso_U_22
_atom_site_aniso_U_33
_atom_site_aniso_U_23
_atom_site_aniso_U_13
_atom_site_aniso_U_12
Cl2 0.0295(2) 0.0196(2) 0.0183(2) -0.00206(14) -0.00190(15) -0.00180(16)
S1 0.0238(2) 0.0182(2) 0.01730(19) -0.00075(14) -0.00562(14) -0.00417(15)
Cl1 0.0237(2) 0.0288(2) 0.0223(2) 0.00333(15) -0.00321(15) -0.00491(16)
Cl3 0.0278(2) 0.0177(2) 0.0325(2) -0.00675(16) 0.00020(16) -0.00063(16)
Cl4 0.0259(2) 0.0164(2) 0.0384(2) 0.00593(16) -0.00288(17) 0.00243(15)
O1 0.0266(6) 0.0245(6) 0.0231(6) 0.0035(5) -0.0073(5) -0.0050(5)
N2 0.0189(6) 0.0138(6) 0.0199(6) -0.0006(5) -0.0028(5) -0.0033(5)
N1 0.0260(7) 0.0181(7) 0.0201(7) -0.0012(5) -0.0049(5) -0.0054(5)
C2 0.0151(7) 0.0162(7) 0.0203(8) 0.0005(6) -0.0025(6) -0.0041(6)
C1 0.0164(7) 0.0179(8) 0.0201(7) -0.0002(6) -0.0026(6) -0.0052(6)
C6 0.0212(8) 0.0208(8) 0.0224(8) 0.0039(6) -0.0064(6) -0.0067(6)
C4 0.0166(7) 0.0161(7) 0.0265(8) -0.0039(6) -0.0009(6) -0.0021(6)
C7 0.0186(7) 0.0169(7) 0.0210(8) -0.0001(6) -0.0035(6) -0.0039(6)
C8 0.0164(7) 0.0143(7) 0.0242(8) 0.0002(6) -0.0026(6) -0.0044(6)
C5 0.0165(7) 0.0147(7) 0.0300(9) 0.0022(6) -0.0044(6) -0.0025(6)
C3 0.0178(7) 0.0182(8) 0.0185(7) -0.0002(6) -0.0025(6) -0.0040(6)
C9 0.0258(8) 0.0182(8) 0.0227(8) -0.0018(6) -0.0010(6) -0.0040(6)
C13 0.0237(8) 0.0199(8) 0.0251(8) -0.0041(7) -0.0050(6) -0.0048(6)
C10 0.0306(9) 0.0210(8) 0.0247(9) 0.0035(7) -0.0043(7) -0.0052(7)
C11 0.0249(8) 0.0152(8) 0.0359(10) 0.0037(7) -0.0052(7) -0.0036(6)
C12 0.0258(8) 0.0163(8) 0.0348(9) -0.0067(7) -0.0050(7) -0.0026(6)
C15 0.048(2) 0.0246(18) 0.0231(17) 0.0033(14) -0.0115(16) -0.0122(16)
C14 0.0251(18) 0.039(2) 0.0315(19) -0.0028(16) -0.0095(15) 0.0024(15)
loop_
_atom_type_symbol
_atom_type_description
_atom_type_scat_dispersion_real
_atom_type_scat_dispersion_imag
_atom_type_scat_source
C C 0.0181 0.0091 'International Tables Vol C Tables 4.2.6.8 and 6.1.1.4'
H H 0.0000 0.0000 'International Tables Vol C Tables 4.2.6.8 and 6.1.1.4'
Cl Cl 0.3639 0.7018 'International Tables Vol C Tables 4.2.6.8 and 6.1.1.4'
N N 0.0311 0.0180 'International Tables Vol C Tables 4.2.6.8 and 6.1.1.4'
O O 0.0492 0.0322 'International Tables Vol C Tables 4.2.6.8 and 6.1.1.4'
S S 0.3331 0.5567 'International Tables Vol C Tables 4.2.6.8 and 6.1.1.4'
loop_
_exptl_crystal_face_index_h
_exptl_crystal_face_index_k
_exptl_crystal_face_index_l
_exptl_crystal_face_perp_dist
-3 -4 2 0.0577
-1 0 -10 0.1058
3 4 -3 0.0560
3 4 6 0.0552
0 -1 10 0.0593
-2 2 -6 0.0671
-4 0 -6 0.1113
-3 -4 -4 0.1053
-3 -3 4 0.0809
-2 -1 8 0.0771
2 4 5 0.0787
3 4 -2 0.0498
2 0 -9 0.0650
loop_
_geom_angle_atom_site_label_1
_geom_angle_atom_site_label_2
_geom_angle_atom_site_label_3
_geom_angle
_geom_angle_site_symmetry_1
_geom_angle_site_symmetry_3
_geom_angle_publ_flag
N1 S1 Cl1 108.06(6) . . ?
N1 S1 C7 105.31(8) . . ?
C7 S1 Cl1 98.17(6) . . ?
C6 O1 C15 118.96(18) . . ?
C6 O1 C14 118.06(19) . . ?
C1 N2 C2 120.15(14) . . ?
C1 N1 S1 122.10(11) . . ?
N2 C2 C7 124.66(14) . . ?
N2 C2 C3 119.04(14) . . ?
C7 C2 C3 116.30(14) . . ?
N2 C1 N1 127.38(15) . . ?
N2 C1 C8 118.55(14) . . ?
N1 C1 C8 114.01(14) . . ?
O1 C6 C7 117.03(15) . . ?
O1 C6 C5 124.63(15) . . ?
C5 C6 C7 118.33(15) . . ?
C5 C4 Cl3 119.13(12) . . ?
C3 C4 Cl3 119.74(13) . . ?
C3 C4 C5 121.13(15) . . ?
C2 C7 S1 118.44(12) . . ?
C6 C7 S1 117.80(13) . . ?
C6 C7 C2 123.74(15) . . ?
C9 C8 C1 120.30(14) . . ?
C13 C8 C1 120.71(15) . . ?
C13 C8 C9 118.98(15) . . ?
C6 C5 Cl4 119.41(13) . . ?
C6 C5 C4 119.80(14) . . ?
C4 C5 Cl4 120.78(13) . . ?
C2 C3 Cl2 118.58(12) . . ?
C4 C3 Cl2 120.75(13) . . ?
C4 C3 C2 120.67(15) . . ?
C8 C9 H9 118.7(14) . . ?
C10 C9 C8 120.16(16) . . ?
C10 C9 H9 121.1(14) . . ?
C8 C13 H13 118.5(15) . . ?
C12 C13 C8 120.32(16) . . ?
C12 C13 H13 121.1(15) . . ?
C9 C10 C11 120.44(16) . . ?
C9 C10 H10 117.1(14) . . ?
C11 C10 H10 122.4(14) . . ?
C10 C11 H11 120.2(14) . . ?
C12 C11 C10 119.53(16) . . ?
C12 C11 H11 120.3(14) . . ?
C13 C12 C11 120.57(16) . . ?
C13 C12 H12 119.8(17) . . ?
C11 C12 H12 119.6(17) . . ?
O1 C15 H15A 109.5 . . ?
O1 C15 H15B 109.5 . . ?
O1 C15 H15C 109.5 . . ?
H15A C15 H15B 109.5 . . ?
H15A C15 H15C 109.5 . . ?
H15B C15 H15C 109.5 . . ?
O1 C14 H14A 109.5 . . ?
O1 C14 H14B 109.5 . . ?
O1 C14 H14C 109.5 . . ?
H14A C14 H14B 109.5 . . ?
H14A C14 H14C 109.5 . . ?
H14B C14 H14C 109.5 . . ?
loop_
_geom_bond_atom_site_label_1
_geom_bond_atom_site_label_2
_geom_bond_distance
_geom_bond_site_symmetry_2
_geom_bond_publ_flag
Cl2 C3 1.7182(16) . ?
S1 Cl1 2.2759(6) . ?
S1 N1 1.5660(14) . ?
S1 C7 1.7291(16) . ?
Cl3 C4 1.7196(16) . ?
Cl4 C5 1.7154(16) . ?
O1 C6 1.366(2) . ?
O1 C15 1.438(4) . ?
O1 C14 1.458(4) . ?
N2 C2 1.369(2) . ?
N2 C1 1.308(2) . ?
N1 C1 1.382(2) . ?
C2 C7 1.405(2) . ?
C2 C3 1.419(2) . ?
C1 C8 1.481(2) . ?
C6 C7 1.401(2) . ?
C6 C5 1.382(2) . ?
C4 C5 1.412(2) . ?
C4 C3 1.384(2) . ?
C8 C9 1.402(2) . ?
C8 C13 1.395(2) . ?
C9 C10 1.386(2) . ?
C9 H9 0.92(2) . ?
C13 C12 1.384(2) . ?
C13 H13 0.96(3) . ?
C10 C11 1.387(3) . ?
C10 H10 0.93(2) . ?
C11 C12 1.386(3) . ?
C11 H11 0.94(2) . ?
C12 H12 0.87(3) . ?
C15 H15A 0.9600 . ?
C15 H15B 0.9600 . ?
C15 H15C 0.9600 . ?
C14 H14A 0.9600 . ?
C14 H14B 0.9600 . ?
C14 H14C 0.9600 . ?
loop_
_refln_index_h
_refln_index_k
_refln_index_l
_refln_F_squared_meas
_refln_F_squared_sigma
0 0 -1 23.33 0.82
0 0 -1 23.93 0.7
0 0 1 23.46 0.82
0 0 2 870.11 22.03
0 0 -2 826.68 21.98
0 0 -2 811.74 21.68
0 0 2 1034.65 21.83
0 0 -2 981.8 22
0 0 -2 826.79 21.9
0 0 -3 2.97 0.29
0 0 -3 3.29 0.4
0 0 -3 4.24 0.49
0 0 -3 3.07 0.38
0 0 3 3.03 0.42
0 0 3 2.73 0.39
0 0 3 3.11 0.32
0 0 -4 513.34 12.85
0 0 -4 484.62 12.88
0 0 -4 488.45 13.05
0 0 4 511.54 12.45
0 0 4 520.62 13.17
0 0 -4 468.4 12.41
0 0 4 445.08 12.86
0 0 -5 69.74 2.37
0 0 -5 72.47 2.97
0 0 5 67.6 2.83
0 0 5 69.15 2.58
0 0 5 72.82 2.99
0 0 -5 71.59 2.7
0 0 -5 69.13 2.8
0 0 5 68.07 2.3
0 0 -6 339.96 9.97
0 0 6 314.1 8.75
0 0 6 349.47 9.95
0 0 -6 337.17 9.68
0 0 6 330.7 9.72
0 0 6 321.04 9.23
0 0 -6 342.89 8.94
0 0 -6 333.3 9.46
0 0 -7 73.06 3.5
0 0 7 66.32 3.21
0 0 7 71.22 3.4
0 0 7 67.88 2.87
0 0 7 64.66 2.37
0 0 -7 71.97 3.1
0 0 -7 68.6 3.21
0 0 -7 73.86 2.57
0 0 -8 516.32 15.3
0 0 -8 568.03 15.97
0 0 8 532.19 15.45
0 0 8 515.17 14.93
0 0 8 544.69 15.66
0 0 -8 550.92 15.11
0 0 8 539.02 14.78
0 0 -9 195.97 7.46
0 0 9 194.65 7.29
0 0 -9 185.44 6.97
0 0 9 189.65 7.1
0 0 -9 187.87 6.65
0 0 9 186.37 6.36
0 0 9 185.96 6.61
0 0 10 2.58 0.64
0 0 10 2.5 0.75
0 0 -10 3 0.72
0 0 10 4.69 1
0 0 -10 1.48 0.6
0 0 -10 2.36 0.89
0 0 -11 209.99 8.62
0 0 -11 206.84 8.25
0 0 11 209.12 8.33
0 0 -12 152.37 7.02
0 0 12 147.03 6.75
0 0 -12 168.77 7.63
0 0 12 159.22 7.25
0 0 12 148.78 6.8
0 0 -12 147.36 7.34
0 0 -12 138.3 6.92
0 0 12 151.73 6.71
0 0 -12 164.05 7.31
0 0 13 25.06 2.51
0 0 -13 20.69 2.61
0 0 13 19.97 2.46
0 0 13 20.96 2.33
0 0 -13 21.97 2.63
0 0 -13 22.8 2.71
0 0 -13 19.53 2.34
0 0 -13 23.4 2.5
0 0 -14 93.13 5.9
0 0 14 97.13 5.36
0 0 -14 102.51 6
0 0 14 93.34 5.15
0 0 -14 88.4 5.31
0 0 -14 96.78 5.5
0 0 -14 104.32 6.67
0 0 15 37.5 3.06
0 0 -15 37.42 3.2
0 0 -15 40.41 3.3
0 0 -15 35.76 3.48
0 0 -15 46.86 4.14
0 0 -15 38.01 3.66
0 0 15 37.76 3.15
0 0 -16 281.27 10.49
0 0 -16 264.38 10.04
0 0 16 288.68 10.45
0 0 -16 294.87 11.55
0 0 -16 296.69 11.38
0 0 16 291.43 10.39
0 0 -17 19.84 2.02
0 0 17 16.72 1.85
0 0 -17 20.49 2.37
0 0 -17 18.9 2.25
0 0 -18 142.45 5.78
0 0 -18 159.76 6.67
0 0 -18 152.57 6.56
0 0 18 143.12 5.74
0 0 -19 57 3.11
0 0 -19 62 3.23
0 1 -19 1.48 0.54
0 1 -19 2.99 0.62
0 -1 19 2.68 0.63
0 1 -18 106.16 5.11
0 1 -18 96.4 4.16
0 -1 18 101.54 4.61
0 1 -18 114.43 5.23
0 1 -17 16.93 2.12
0 -1 17 14.87 1.54
0 1 -17 14.23 1.59
0 1 -17 15.98 1.7
0 -1 17 15.85 1.81
0 1 -17 19.25 2.3
0 1 -16 144.85 7.37
0 1 -16 154.28 7.28
0 1 -16 134.98 6.23
0 -1 16 147.7 6.7
0 1 -16 132.76 6.32
0 1 -15 228.7 9.15
0 -1 15 230.83 9.39
0 1 -15 244.55 10.13
0 1 -15 234.92 10.32
0 1 -15 234.78 9.57
0 -1 15 227.28 8.59
0 1 -14 142.49 6.85
0 -1 14 140.19 6.4
0 -1 14 144.25 6.99
0 1 -14 150.29 7.39
0 1 -14 153.21 7.91
0 -1 13 389.35 13.35
0 -1 13 367.95 12.6
0 1 -13 361.77 13.67
0 1 -13 377.16 13.16
0 -1 13 371.16 13.24
0 1 -13 395.09 14.4
0 1 -12 39.62 3.45
0 -1 12 42.39 3.51
0 1 -12 41.29 3.59
0 -1 12 46.18 3.49
0 1 -12 46.99 3.94
0 -1 12 45.36 3.27
0 -1 12 43.53 3.38
0 1 -12 46.25 3.44
0 -1 11 119.98 5.93
0 1 -11 114.44 5.9
0 1 -11 125.4 6.11
0 -1 10 106.32 5.21
0 1 -10 105.27 5.33
0 -1 10 104.93 4.89
0 1 -10 115.45 5.57
0 1 -9 612.6 17.47
0 1 -9 592.4 17.3
0 -1 9 562.4 16.85
0 -1 9 550.55 16.56
0 1 -8 557.37 15.66
0 1 -8 542.8 14.51
0 -1 8 523.44 15.15
0 -1 8 521.73 15.23
0 1 -8 549.16 15.71
0 -1 8 490.42 14.26
0 -1 8 525.49 14.55
0 1 -7 159.1 5.91
0 -1 7 155.23 5.54
0 -1 7 149.73 5.52
0 1 -7 151.93 5.66
0 -1 7 151.46 5.09
0 1 -7 152.95 5.01
0 -1 7 145.31 5.02
0 -1 6 296.31 9.17
0 -1 6 296.42 8.68
0 1 -6 322.48 9.55
0 -1 6 301.77 9.09
0 1 -6 300.2 9.19
0 1 -6 311.71 8.68
0 -1 6 304.35 8.84
0 -1 6 317 8.31
0 1 -5 190.99 5.25
0 -1 5 188.3 5.97
0 1 -5 185.49 6
0 1 -5 205.36 5.75
0 -1 5 194.34 5.42
0 -1 5 186.53 5.66
0 1 -5 197.41 6.33
0 -1 5 184.54 6.07
0 -1 5 194.93 5.93
0 1 -4 83.99 2.73
0 1 -4 82 3.04
0 -1 4 82.43 2.99
0 -1 4 81.71 2.83
0 -1 4 87.1 2.72
0 -1 4 83.84 3.06
0 1 -4 84.63 3.26
0 1 -4 95.08 2.94
0 1 -3 44.86 1.81
0 -1 3 43.75 1.76
0 -1 3 50.74 1.71
0 1 -3 46.39 1.87
0 -1 3 42.97 1.91
0 1 -3 49.56 1.73
0 1 -3 47.43 2.02
0 -1 3 47.02 1.79
0 -1 2 8.68 0.69
0 1 -2 8.47 0.61
0 -1 2 10.36 0.72
0 -1 2 8.07 0.38
0 1 -2 9.59 0.58
0 -1 2 8.3 0.53
0 1 -2 9.37 0.7
0 -1 2 9.73 0.57
0 -1 1 605.84 14.78
0 -1 1 605.83 14.92
0 1 -1 568.96 14.93
0 1 -1 589.71 14.98
0 -1 1 595.84 14.98
0 1 0 1.12 0.23
0 -1 0 1.24 0.13
0 1 0 1.31 0.12
0 1 0 1.31 0.17
0 -1 0 1.08 0.21
0 1 1 181.93 5.27
0 -1 -1 184.32 4.8
0 -1 -1 176.13 5.06
0 1 1 177.55 4.78
0 -1 -1 182.31 4.68
0 -1 -1 181.47 5.07
0 1 2 1762.94 43.91
0 -1 -2 1795.23 43.61
0 1 2 1767.29 43.58
0 -1 -2 1797.72 43.78
0 1 2 1749.56 43.61
0 -1 -3 1192.09 29.81
0 -1 -3 1240.22 29.82
0 1 3 1219.07 30.01
0 1 3 1199.53 29.73
0 -1 -3 1157.02 29.12
0 -1 -4 141.36 4.03
0 -1 -4 158.9 4.73
0 1 4 151.76 4.6
0 -1 -4 151.75 4.6
0 -1 -4 156.34 4.72
0 1 4 153.03 4.81
0 1 5 5125.97 126.31
0 -1 -5 5475.52 126.21
0 -1 -5 5273.42 126
0 1 5 4976.15 125.43
0 1 5 5118.51 126.09
0 -1 -5 5355.74 126.34
0 -1 -5 4976.02 125.42
0 1 5 5400.66 124.91
0 -1 -6 4.89 0.83
0 1 6 5.8 0.61
0 1 6 5.32 0.46
0 1 6 4.02 0.71
0 -1 -6 6.33 0.83
0 -1 -6 5.6 0.73
0 1 6 4.69 0.8
0 -1 -6 5.85 0.65
0 1 7 3.15 0.71
0 -1 -7 2.77 0.56
0 -1 -7 2.6 0.67
0 1 7 3.4 0.7
0 -1 -7 2.76 0.52
0 -1 -7 2.88 0.63
0 1 7 2.84 0.47
0 -1 -8 2.69 0.73
0 1 8 1.75 0.66
0 -1 -8 2.48 0.5
0 -1 -8 1.73 0.51
0 -1 -8 1.24 0.43
0 1 8 1.84 0.58
0 1 9 145.79 5.91
0 -1 -9 135.97 5.4
0 -1 -9 136.17 5.56
0 -1 -9 135.74 6
0 1 9 144.57 6.13
0 1 10 298.26 10.32
0 -1 -10 289.01 10.55
0 -1 -10 293.69 9.91
0 1 10 295.62 10.6
0 -1 -11 620.14 18.19
0 -1 -11 603.07 19.04
0 1 11 595.22 18.24
0 1 11 624.42 18.8
0 1 11 616.9 19.14
0 1 12 8.95 1.55
0 -1 -12 7.07 1.45
0 -1 -12 6.01 1.39
0 -1 -12 8.09 1.52
0 1 12 4.84 1.05
0 -1 -12 5.7 1.4
0 -1 -12 7.59 1.57
0 1 12 6.37 1.37
0 -1 -12 8.22 1.37
0 1 12 5.66 1.18
0 1 13 1.96 0.78
0 -1 -13 1.12 0.83
0 1 13 3.48 1.04
0 -1 -13 2.87 1.44
0 -1 -13 2.58 1
0 -1 -13 3.14 1.19
0 -1 -13 4.29 1.15
0 -1 -14 -0.48 0.66
0 1 14 0.19 0.5
0 -1 -14 0.82 0.67
0 -1 -14 -0.31 1.09
0 -1 -14 0.19 0.91
0 1 14 0.59 0.59
0 -1 -14 -1.59 0.87
0 1 15 2.26 0.83
0 -1 -15 1.37 0.95
0 -1 -15 1.8 0.94
0 -1 -15 2.6 1.3
0 -1 -15 2.2 1.07
0 1 15 1.64 0.64
0 -1 -15 2.29 0.91
0 -1 -16 6.2 1.48
0 1 16 8.37 1.46
0 -1 -16 7 1.37
0 1 16 7.3 1.32
0 -1 -16 10.14 1.79
0 -1 -17 262.38 9.53
0 -1 -17 272.36 10.17
0 -1 -17 262.9 10.11
0 1 17 234.08 8.59
0 1 17 261.24 9.48
0 1 18 10.76 1.33
0 -1 -18 10 1.48
0 1 18 9.67 1.09
0 -1 -18 10.24 1.51
0 -1 -18 10.04 1.33
0 -1 -19 12.72 1.26
0 -1 -19 14.27 1.46
0 -1 -19 16.43 1.53
0 -2 18 179.06 6.65
0 2 -18 198.39 7.12
0 2 -18 199.46 7.14
0 2 -17 3.68 0.93
0 2 -17 3.77 0.81
0 2 -17 3.88 1.02
0 -2 17 3.04 0.71
0 2 -17 3.39 0.71
0 -2 17 3.93 0.86
0 -2 17 3.65 0.87
0 2 -16 447.17 14.71
0 2 -16 400.47 12.73
0 -2 16 382.26 13.14
0 2 -16 427.71 14.23
0 -2 16 389.05 12.76
0 2 -16 416.5 13.53
0 -2 16 418.29 13.61
0 -2 15 27.89 2.77
0 2 -15 27.97 2.84
0 2 -15 33.25 3.35
0 2 -15 26.55 2.4
0 -2 15 28.33 2.5
0 2 -14 11.04 1.66
0 -2 14 10.41 1.56
0 2 -14 13.14 2.14
0 2 -14 14.95 2.4
0 -2 14 13.72 2.01
0 -2 14 11.92 1.83
0 -2 13 4.95 1.15
0 2 -13 3.05 0.86
0 2 -13 4.24 1.42
0 2 -13 3.98 1.39
0 -2 13 4.93 1.16
0 -2 13 4.43 1.13
0 2 -12 15.21 2.33
0 2 -12 13.05 1.8
0 -2 12 13.84 1.93
0 -2 12 13.01 1.83
0 -2 12 12.41 1.88
0 2 -11 142.82 6.68
0 -2 11 139.89 6.64
0 2 -11 137.68 6.87
0 -2 11 142.71 6.81
0 -2 11 134 6.41
0 2 -11 134.81 7.39
0 -2 11 135.71 6.51
0 -2 10 199.12 8.15
0 2 -10 214.2 8.68
0 -2 9 8.33 1.33
0 -2 9 5.99 0.94
0 -2 9 8.28 1.25
0 2 -9 7.84 1.34
0 -2 8 219.87 7.63
0 -2 8 194.11 7.17
0 -2 8 203.27 7.81
0 2 -8 231.64 8.35
0 -2 7 16.71 1.67
0 2 -7 16.59 1.71
0 -2 7 13.8 1.4
0 -2 7 14.87 1.43
0 -2 6 98.49 4.37
0 2 -6 104.49 4.48
0 -2 6 99.08 4.01
0 -2 6 100.17 3.88
0 -2 6 96.06 4.15
0 -2 5 122.49 4.27
0 2 -5 115.43 4.63
0 -2 5 117.46 4.26
0 -2 5 114.58 4.54
0 2 -5 111.88 4.3
0 -2 5 118.57 3.77
0 2 -5 121.4 3.93
0 -2 5 117.84 4.7
0 2 -4 1863.12 46.21
0 2 -4 1805.67 46.21
0 -2 4 1864.47 45.37
0 2 -4 1811.55 45.38
0 -2 4 1834.93 45.78
0 -2 4 1829.99 46.24
0 -2 4 1814.88 46.35
0 -2 3 1173.47 28.67
0 2 -3 1170.91 29.68
0 2 -3 1158.83 29.61
0 -2 3 1177.58 29.86
0 -2 3 1120.3 29.29
0 -2 3 1164.5 29.16
0 -2 3 1162.99 29.87
0 -2 2 53.77 2.18
0 -2 2 54.23 2.48
0 -2 2 53.27 2.42
0 -2 2 53.87 1.99
0 2 -2 54.55 2.31
0 2 -2 56.89 2.34
0 -2 1 864.41 22
0 2 -1 859.85 21.97
0 -2 1 847.13 21.71
0 -2 1 841.48 21.77
0 2 -1 854.97 21.69
0 -2 1 877.03 22.19
0 -2 0 210.9 5.38
0 -2 0 219.85 6.17
0 2 0 214.13 5.82
0 -2 0 217.88 6.27
0 2 0 204.08 5.36
0 2 0 225.73 6.4
0 -2 0 220.04 6.42
0 -2 -1 2.8 0.29
0 2 1 3.3 0.32
0 -2 -1 2.22 0.45
0 2 1 2.72 0.26
0 2 1 2.8 0.64
0 -2 -1 2.9 0.4
0 -2 -2 2511.01 60.73
0 2 2 2437.77 59.97
0 -2 -2 2429.42 59.69
0 -2 -2 2425.27 59.94
0 2 2 2511.65 60.56
0 2 2 2427.41 61.15
0 -2 -3 430.79 11.89
0 2 3 420.42 11.3
0 -2 -3 411.94 11.3
0 2 3 420.5 11.59
0 2 3 429.88 12.19
0 2 4 378.8 10.88
0 -2 -4 387.81 10.26
0 2 4 388.3 10.83
0 -2 -4 386.03 10.89
0 2 4 385.47 11.5
0 -2 -4 397.54 11.32
0 -2 -4 414.1 11.31
0 2 5 478.78 13.54
0 -2 -5 487.74 12.48
0 -2 -5 487.39 13.91
0 -2 -5 516.14 13.94
0 2 5 481.12 13.42
0 2 5 506.13 14.29
0 -2 -5 482.66 13.66
0 -2 -6 1377.37 35.9
0 -2 -6 1424.96 35.97
0 2 6 1341.37 35.23
0 2 6 1437.58 36.43
0 2 6 1371.86 35.68
0 -2 -6 1403 35.87
0 -2 -7 404.79 12.41
0 2 7 419.13 12.98
0 -2 -7 416.31 12.61
0 2 7 408.01 11.79
0 2 7 421.94 12.48
0 -2 -7 429.53 12.6
0 -2 -8 120.22 5.13
0 2 8 118.92 4.48
0 2 8 119.24 5.47
0 2 8 118.78 5.11
0 -2 -8 110.89 4.88
0 -2 -8 119.71 5.27
0 -2 -9 42.98 2.9
0 -2 -9 39.12 2.67
0 -2 -9 43.46 3.06
0 2 9 43.82 3.22
0 2 9 42.76 2.95
0 -2 -10 1009.29 28.75
0 2 10 1123.26 30.53
0 2 10 1088.82 29.65
0 -2 -10 1075.39 29.98
0 2 11 155.71 7.03
0 -2 -11 156.57 7.14
0 -2 -11 160.78 7.37
0 2 11 157.75 7.06
0 2 11 156.9 7.51
0 -2 -11 150.03 7.44
0 -2 -12 865.41 27.33
0 -2 -12 829.99 26.3
0 -2 -12 862.87 26.57
0 -2 -12 934.91 26.27
0 -2 -12 800.85 25.16
0 2 12 891.12 25.9
0 2 12 935.41 26.28
0 2 12 911.47 26.05
0 2 12 921.97 26.86
0 -2 -12 903.38 26.64
0 -2 -13 317.62 12.47
0 -2 -13 353.13 13.62
0 -2 -13 312.86 12.54
0 -2 -13 297.64 11.41
0 2 13 332.28 12.15
0 -2 -13 337.78 12.37
0 2 13 339.69 12.23
0 -2 -14 4.52 1.24
0 -2 -14 3.04 1.18
0 2 14 3.42 1.13
0 -2 -14 3.49 1.1
0 -2 -14 4.34 1.16
0 -2 -14 3.29 1.3
0 2 14 5.65 1.3
0 -2 -15 82.84 5.03
0 -2 -15 78.16 5.14
0 -2 -15 81.77 5.3
0 2 15 78.78 4.9
0 -2 -15 75.93 5.12
0 2 15 83.83 4.99
0 -2 -16 93.17 5.49
0 2 16 108.65 5.53
0 -2 -16 102.58 5.41
0 2 16 95.02 5.16
0 -2 -16 94.57 5.52
0 -2 -17 74.83 4.51
0 2 17 76.48 4.3
0 -2 -17 79.78 4.38
0 -2 -17 75.98 4.51
0 -2 -18 32.47 2.5
0 2 18 29.56 2.26
0 -2 -18 30.7 2.33
0 -2 -18 28.92 2.36
0 -2 -19 2.78 0.65
0 -3 17 235.32 8.06
0 -3 17 254.43 8.22
0 3 -17 273.02 8.78
0 -3 17 225.58 7.79
0 3 -17 271.21 8.86
0 -3 16 127.58 5.59
0 3 -16 129.25 5.94
0 3 -16 131.87 6.17
0 3 -16 116.3 5.38
0 -3 16 118.67 5.51
0 -3 16 121.62 5.31
0 -3 15 111.54 5.54
0 -3 15 103.98 5.2
0 3 -15 106.57 5.72
0 3 -15 116.79 6.22
0 -3 15 104.94 5.5
0 3 -14 19.53 2.5
0 -3 14 17.34 2.13
0 3 -14 22.02 2.77
0 -3 14 15.34 1.96
0 -3 13 119.04 6.22
0 -3 13 119.5 6.29
0 3 -13 115.34 6.88
0 -3 13 118.74 6.06
0 -3 12 215.64 9.08
0 -3 12 207.78 9
0 3 -12 203.49 8.33
0 3 -12 223.33 10.28
0 -3 12 209.88 8.86
0 -3 11 433.78 14.87
0 -3 11 417.89 14.61
0 -3 11 437.08 14.77
0 3 -10 2.1 0.92
0 -3 10 1.03 0.66
0 -3 10 3.2 1.1
0 -3 10 2.34 0.93
0 -3 10 1.93 0.92
0 -3 9 335.33 12.22
0 -3 9 321.13 11.31
0 3 -8 188.45 7.79
0 -3 8 165.2 6.93
0 -3 8 172.15 7.53
0 -3 7 90.31 4.85
0 3 -7 96.38 4.86
0 -3 7 86.89 4.52
0 3 -6 0.45 0.46
0 -3 6 0.88 0.53
0 -3 6 0.93 0.56
0 -3 5 540.15 16.02
0 3 -5 567.33 15.79
0 -3 5 523.86 15.72
0 3 -5 507.27 15.46
0 3 -4 224.16 7.64
0 3 -4 233.82 7.89
0 -3 4 229.04 8.04
0 -3 4 232.18 8.02
0 3 -3 1653.96 43.5
0 -3 3 1751.28 43.89
0 -3 3 1706.21 42.41
0 -3 3 1774.72 43.98
0 3 -3 1665.12 43.26
0 3 -2 264.96 8.44
0 -3 2 286.4 8.84
0 -3 2 267.83 7.89
0 3 -2 261.88 8.09
0 -3 2 267.92 8.61
0 3 -1 2631.4 66.2
0 -3 1 2591.04 65.78
0 -3 1 2702.14 66.47
0 -3 1 2667.36 66.21
0 3 -1 2679.47 65.54
0 -3 0 115.82 4.53
0 -3 0 115.72 4.27
0 -3 0 110.33 4.3
0 3 0 119.21 4.54
0 3 0 113.61 3.75
0 3 1 1251.5 30.87
0 -3 -1 1178.76 30.6
0 -3 -1 1168.35 30.64
0 -3 -1 1201.49 30.07
0 3 2 350.58 9.23
0 -3 -2 336.99 10.15
0 -3 -2 351.42 10.56
0 3 2 350.97 11.4
0 3 2 358.71 10.47
0 -3 -2 337.34 9.46
0 3 3 7.16 0.96
0 -3 -3 7.88 1.07
0 3 3 7.6 1.19
0 -3 -3 7.67 0.88
0 3 3 7.3 0.71
0 -3 -3 7.48 0.71
0 -3 -4 1.54 0.39
0 3 4 1.78 0.43
0 -3 -4 1.53 0.41
0 3 4 1.43 0.68
0 -3 -4 1.68 0.62
0 3 4 1.68 0.52
0 3 5 641.06 17.67
0 3 5 636.17 17.17
0 -3 -5 612.22 17.23
0 -3 -5 643.79 18.22
0 3 5 635.42 18.65
0 -3 -6 269.21 8.73
0 3 6 267.62 8.73
0 3 6 262.73 8.5
0 3 6 263.27 9.6
0 -3 -6 269.78 9.31
0 -3 -7 1490.1 39.69
0 3 7 1455.67 38.83
0 3 7 1492.63 38.94
0 -3 -7 1555.5 39.33
0 3 7 1506.79 40.38
0 3 8 14.15 1.9
0 -3 -8 12.09 1.6
0 3 8 15.84 1.66
0 -3 -8 15.86 1.76
0 3 8 13.07 1.43
0 -3 -9 90.91 4.9
0 3 9 96.46 4.85
0 3 9 101.86 5.58
0 -3 -9 97.17 5.09
0 -3 -10 223.12 9.07
0 3 10 231.61 9.67
0 3 10 231.4 8.97
0 -3 -10 203.05 8.57
0 3 10 227.98 8.8
0 -3 -10 218.8 9.55
0 -3 -10 219.6 9.57
0 -3 -10 231.76 9.2
0 -3 -11 154.75 7.51
0 -3 -11 155.7 7.84
0 -3 -11 156.49 7.45
0 3 11 151.21 7.1
0 -3 -11 139.1 6.75
0 3 11 166.13 8.05
0 -3 -11 154.8 7.99
0 3 11 163.56 7.35
0 -3 -11 156 7.82
0 3 11 173.19 7.59
0 3 12 117.66 6.13
0 -3 -12 98.52 6.13
0 -3 -12 102.19 6.38
0 -3 -12 104.34 6.28
0 3 12 114.35 5.99
0 -3 -12 94.45 5.26
0 -3 -12 103.6 5.9
0 -3 -13 2.54 0.99
0 3 13 3.46 1.05
0 -3 -13 2.85 0.98
0 -3 -13 1.31 0.72
0 -3 -13 3.69 1.11
0 -3 -13 2.37 1.03
0 3 13 2.89 0.81
0 -3 -14 0.27 0.72
0 3 14 1.65 0.89
0 -3 -14 1.47 0.77
0 3 14 0.19 0.57
0 -3 -14 0.81 0.52
0 -3 -14 -0.47 0.68
0 -3 -15 13.34 1.98
0 -3 -15 11.6 1.84
0 3 15 11.97 1.81
0 3 15 14.89 1.99
0 -3 -15 10.58 1.72
0 -3 -15 11.97 1.83
0 -3 -16 14.58 1.94
0 -3 -16 15.24 1.92
0 -3 -16 13.32 1.77
0 3 16 14.45 1.83
0 3 16 15.23 1.84
0 -3 -17 49.78 3.32
0 -3 -17 57.34 3.5
0 3 17 52.8 3.29
0 3 17 54.59 3.16
0 -3 -18 27.43 1.93
0 3 18 26.05 1.94
0 -3 -18 27.79 2.07
0 4 -16 4.25 0.87
0 -4 16 2.77 0.67
0 -4 16 2.68 0.65
0 4 -16 3.29 0.72
0 4 -16 1.27 0.49
0 -4 15 210.74 7.72
0 4 -15 185.79 7.42
0 4 -15 207.12 7.99
0 -4 15 198.8 7.41
0 -4 15 192.38 6.9
0 4 -14 148.33 7
0 -4 14 146.93 6.65
0 4 -14 141.61 6.76
0 -4 14 138.77 5.99
0 -4 14 142.41 6.31
0 -4 13 44.74 3.54
0 -4 13 44.7 3.21
0 -4 13 42.06 3.27
0 -4 13 39.99 3.23
0 4 -13 44.18 3.75
0 -4 12 220.19 9.58
0 -4 12 214.38 9.09
0 -4 12 226.51 9.26
0 4 -12 232.39 10.35
0 -4 12 242.12 9.17
0 -4 11 146.23 6.97
0 -4 11 173.5 7.42
0 -4 11 159.72 7.45
0 -4 11 160.2 7.5
0 -4 10 194.07 8.52
0 -4 10 187.52 8.35
0 -4 10 189.6 8.21
0 -4 9 299.15 11.34
0 -4 9 286.92 11.08
0 -4 9 317.77 11.67
0 -4 9 322.53 11.77
0 -4 8 426.73 14.35
0 -4 8 374.07 13.69
0 -4 8 394.89 13.91
0 -4 8 424.77 14.22
0 4 -8 419.97 14.32
0 -4 8 448.27 14.96
0 -4 8 408 14.14
0 -4 7 176.6 7.99
0 -4 7 170.69 7.59
0 -4 7 181.97 7.96
0 -4 7 172.96 7.63
0 4 -7 171.91 7.55
0 -4 6 72.12 4.53
0 -4 6 64.63 4.21
0 4 -6 64.84 3.96
0 4 -5 14.56 1.7
0 -4 5 16.61 1.97
0 -4 5 14.35 1.85
0 4 -4 107 4.94
0 4 -4 112.72 5.36
0 -4 4 112.54 5.53
0 -4 4 117.93 5.59
0 4 -3 207.69 7.36
0 -4 3 212.88 8.15
0 4 -3 209.14 7.94
0 -4 3 219.07 8.29
0 4 -2 259.79 9.21
0 -4 2 271.01 9.34
0 -4 2 263.36 9.46
0 -4 1 40.01 2.46
0 -4 1 37.31 2.74
0 -4 1 35.55 2.5
0 4 -1 40.33 2.75
0 4 0 61.12 3.5
0 -4 0 59.65 3.29
0 -4 0 61.55 3.54
0 4 0 55.82 4.02
0 -4 0 63.09 3.25
0 -4 -1 861.31 24.06
0 4 1 810.49 25.41
0 -4 -1 870.84 24.13
0 4 2 204.85 8.89
0 4 2 225.75 8.01
0 -4 -2 215.74 7.98
0 -4 -2 211.69 7.69
0 -4 -3 106.41 5.14
0 4 3 97.85 5.63
0 -4 -3 108.73 4.71
0 4 3 112.42 5.07
0 -4 -4 200.59 7.97
0 4 4 193.15 8.53
0 4 4 202.81 7.63
0 4 5 80.4 4.34
0 -4 -5 87.79 4.83
0 4 5 87.67 5.22
0 4 6 199.76 7.76
0 -4 -6 206.63 8.4
0 4 6 188.29 8.62
0 -4 -7 24.85 2.53
0 4 7 22.95 2.16
0 4 7 17.41 2.33
0 4 8 90.94 5.71
0 -4 -8 91.47 5.37
0 4 8 97.88 4.97
0 -4 -8 98.74 5.94
0 4 9 74.16 5.18
0 -4 -9 78.19 4.59
0 -4 -9 69.85 4.95
0 -4 -9 72.62 5.15
0 -4 -9 70.95 4.73
0 -4 -9 76.17 5.11
0 -4 -9 73.12 4.89
0 -4 -9 65.89 4.32
0 -4 -9 76.21 4.92
0 4 9 78.82 4.82
0 -4 -10 234.58 9.84
0 4 10 239.07 9.58
0 -4 -10 226.2 10.21
0 -4 -10 220.54 10.04
0 -4 -10 233.53 9.11
0 -4 -10 210.25 8.95
0 4 10 232.06 9.35
0 -4 -10 216.12 9.5
0 -4 -10 233.67 9.71
0 -4 -10 224.54 10.05
0 -4 -11 4.11 1.23
0 -4 -11 4.01 1.31
0 -4 -11 3.24 1.04
0 -4 -11 2.86 0.94
0 4 11 3.78 1.02
0 4 11 6.15 1.43
0 -4 -11 2.95 1.06
0 -4 -11 4.19 1.49
0 4 12 828.24 24.94
0 -4 -12 862.93 25.76
0 4 12 904.27 25.72
0 -4 -12 846.41 25.99
0 -4 -12 863.86 26.3
0 -4 -12 846.42 26.04
0 -4 -12 791.22 24.37
0 -4 -13 16.86 2.25
0 -4 -13 17.13 2.39
0 -4 -13 21.83 2.7
0 -4 -13 19.57 2.5
0 4 13 21.03 2.32
0 4 13 20.8 2.44
0 4 13 17.82 2.18
0 -4 -14 0.24 0.64
0 4 14 1.68 0.88
0 -4 -14 1.22 0.78
0 4 14 3.34 0.89
0 -4 -14 2.04 0.95
0 4 15 36.49 2.84
0 -4 -15 35.25 3.02
0 4 15 35.8 2.91
0 -4 -15 36.5 3
0 -4 -15 38.53 2.87
0 4 16 65.03 3.71
0 -4 -16 72.64 4.02
0 4 16 67.39 3.68
0 -4 -16 69.84 3.82
0 4 17 31.38 2.1
0 -4 -17 35.12 2.14
0 4 17 35.48 2.17
0 -4 -17 36.33 2.37
0 5 -15 182.49 5.92
0 5 -15 172.72 5.89
0 -5 15 179.17 5.81
0 -5 15 165.02 5.65
0 -5 14 3.99 0.8
0 5 -14 5.14 0.99
0 5 -14 4.22 0.89
0 -5 14 4.62 0.89
0 5 -13 75.5 4.26
0 -5 13 71.44 3.88
0 -5 13 66.57 3.82
0 5 -13 65.38 4
0 5 -12 49.99 3.74
0 -5 12 51.97 3.57
0 -5 12 48.03 3.2
0 -5 12 56.93 3.61
0 -5 11 159.11 7
0 -5 11 148.65 6.76
0 -5 11 172.24 7.52
0 -5 11 155.91 7.04
0 -5 10 76.3 4.49
0 -5 10 75.66 4.85
0 -5 10 72.93 4.6
0 -5 10 69.28 4.45
0 5 -9 156.02 7.43
0 -5 9 144.76 7.04
0 -5 9 162.24 7.67
0 -5 9 156.61 7.38
0 -5 9 150.07 6.96
0 -5 8 130.36 6.88
0 -5 8 130.49 6.51
0 -5 8 129.39 6.34
0 -5 8 130.1 6.34
0 -5 8 132.12 6.76
0 -5 7 10.7 1.91
0 -5 7 12.23 1.92
0 -5 7 10.58 1.66
0 -5 7 12.45 1.88
0 -5 7 8.61 1.58
0 -5 6 24.97 2.59
0 -5 6 26.18 2.83
0 -5 6 21.02 2.33
0 -5 6 22.57 2.51
0 -5 6 22.2 2.57
0 -5 6 23.53 2.73
0 -5 5 24.12 2.73
0 -5 5 26.65 2.84
0 -5 5 25.74 2.78
0 -5 5 24.47 2.67
0 -5 5 25.5 2.62
0 -5 5 29.64 3.05
0 -5 4 66.05 4.51
0 -5 4 68.04 4.76
0 -5 4 70.33 4.52
0 -5 4 77.54 4.68
0 -5 4 62.78 4.43
0 -5 4 68.85 4.69
0 -5 3 10.89 1.8
0 -5 3 8.83 1.64
0 -5 3 9.52 1.67
0 -5 3 9.53 1.66
0 -5 3 7.3 1.47
0 -5 3 12.18 1.85
0 5 -3 8.43 1.51
0 5 -2 196.63 8.35
0 -5 2 194.4 8.13
0 5 -2 198.61 9.28
0 -5 2 199.23 8.6
0 5 -1 207.54 9.58
0 5 -1 208.49 8.67
0 -5 1 213.32 8.84
0 5 0 44.99 3.44
0 -5 0 46.67 3.49
0 -5 0 43.24 3.14
0 5 0 44.13 3.95
0 -5 -1 76.78 4.5
0 -5 -1 77.21 4.62
0 5 1 77.74 5.4
0 5 1 88.21 4.99
0 5 2 12.31 2.11
0 -5 -2 15.28 1.94
0 5 2 15.91 1.99
0 -5 -2 14.99 1.89
0 5 3 1193.47 36.93
0 -5 -3 1259.59 35.79
0 -5 -4 228.61 9.94
0 -5 -4 204.63 8.81
0 5 4 174.23 9.16
0 -5 -4 208.28 8.68
0 5 4 209.91 8.68
0 -5 -4 193.91 8.7
0 -5 -4 197.07 8.79
0 -5 -4 199.89 8.97
0 -5 -5 69.26 4.46
0 5 5 72.89 4.6
0 -5 -5 78.3 5.34
0 -5 -5 61.57 4.38
0 -5 -5 61.9 4.42
0 -5 -5 65.88 4.68
0 5 5 61.13 4.94
0 -5 -5 64.34 4.63
0 -5 -6 572.63 18.81
0 -5 -6 540.24 17.78
0 -5 -6 519.83 17.92
0 -5 -6 538.04 18.07
0 -5 -6 518.87 17.65
0 -5 -6 524.58 17.17
0 5 6 519.94 16.72
0 5 6 563.29 17.63
0 5 6 485.44 18.34
0 -5 -7 331.42 12.98
0 -5 -7 335.47 12.79
0 5 7 331.9 11.94
0 -5 -7 328.64 12.76
0 5 7 337.85 12.31
0 -5 -7 344.36 13.12
0 -5 -7 358.5 13.65
0 -5 -7 315.36 12.2
0 -5 -7 344.4 12.44
0 5 7 320.57 13.49
0 5 8 14.41 1.92
0 -5 -8 17.91 2.41
0 -5 -8 17.06 2.41
0 -5 -8 18.66 2.33
0 -5 -8 15.49 2.1
0 -5 -8 21.22 2.86
0 -5 -8 18.02 2.53
0 -5 -9 16.64 2.37
0 -5 -9 16.35 2.12
0 5 9 15.17 2.04
0 -5 -9 16.7 2.54
0 -5 -9 15.25 2.27
0 -5 -9 14.84 2.09
0 -5 -9 13.92 2.12
0 -5 -10 25.75 2.63
0 5 10 24.42 2.61
0 -5 -10 25.24 2.89
0 -5 -10 27.76 3.19
0 -5 -10 26.76 2.72
0 -5 -10 25.32 2.91
0 -5 -10 23.92 2.71
0 -5 -11 6.54 1.37
0 -5 -11 4.66 1.22
0 -5 -11 5.61 1.51
0 5 11 5.76 1.21
0 -5 -11 6.29 1.44
0 5 11 6.46 1.47
0 -5 -11 5.48 1.27
0 -5 -11 5.12 1.18
0 -5 -12 89.44 5.28
0 -5 -12 86.44 4.71
0 5 12 86.03 4.73
0 5 12 90.68 5.12
0 -5 -12 89.56 5.54
0 -5 -12 89.48 5.28
0 -5 -13 78.64 4.55
0 -5 -13 72.75 4.64
0 -5 -13 71.29 4.3
0 5 13 68.12 4.11
0 5 13 72.67 4.34
0 5 13 62.18 3.8
0 -5 -14 85.59 4.7
0 5 14 80.98 4.11
0 5 14 83.24 4.06
0 -5 -14 91.4 4.56
0 -5 -14 85.55 4.33
0 5 14 83.28 4.44
0 5 15 65.4 3.29
0 -5 -15 75.41 3.61
0 5 15 74.91 3.74
0 -5 -15 77.35 3.96
0 -5 -15 73.6 3.93
0 5 16 -0.12 0.33
0 -5 -16 0.9 0.45
0 -5 -16 0.34 0.33
0 6 -13 2.8 0.59
0 -6 12 33.21 1.99
0 -6 12 38.82 2.2
0 6 -12 38.63 2.49
0 -6 12 36.67 2.16
0 6 -11 4.47 0.93
0 -6 11 5.13 0.88
0 -6 11 6.09 0.96
0 -6 11 6.53 1.08
0 -6 10 333.94 11.01
0 -6 10 347.8 11.1
0 -6 10 345.36 11.58
0 -6 9 91.23 4.64
0 -6 9 99.07 4.86
0 6 -9 99.51 4.94
0 -6 9 96.95 5.17
0 -6 9 92.63 4.62
0 6 -8 132.41 6.32
0 -6 8 118.96 5.81
0 -6 8 125.37 5.74
0 -6 8 124.83 6.29
0 -6 7 1.1 0.78
0 -6 7 0.16 0.65
0 -6 6 130.19 6.61
0 -6 6 135.91 6.89
0 -6 5 7.18 1.58
0 -6 5 4.93 1.1
0 -6 5 5.88 1.37
0 -6 4 420.46 14.34
0 -6 4 398.51 14.65
0 -6 4 403.76 14.54
0 -6 4 422.52 14.94
0 -6 3 273.22 10.38
0 -6 3 242.35 10.11
0 -6 3 267 10.96
0 -6 3 249.16 10.49
0 -6 3 242.53 10.27
0 -6 2 13.37 1.97
0 -6 2 11.54 1.91
0 -6 2 10.2 1.81
0 -6 2 13.2 2.18
0 -6 2 11.32 1.92
0 -6 2 11.2 1.83
0 -6 1 105.24 6.15
0 -6 1 102.35 5.97
0 -6 1 110.75 6.26
0 -6 1 117.1 6.73
0 -6 1 111.6 6.23
0 -6 1 101.27 5.99
0 -6 0 28.19 3.14
0 -6 0 23.25 2.72
0 -6 0 24.2 2.78
0 -6 0 26.48 2.79
0 -6 0 26.09 2.92
0 -6 0 20.14 2.48
0 -6 0 20.8 2.48
0 -6 -1 54.44 4.28
0 -6 -1 56.01 4.09
0 -6 -1 62.39 4.65
0 -6 -1 54.01 4.21
0 -6 -1 54.16 4.24
0 -6 -1 48.72 3.85
0 -6 -1 51.01 4
0 -6 -2 20.54 2.64
0 -6 -2 20.76 2.56
0 -6 -2 23.46 2.82
0 -6 -2 23.31 2.59
0 -6 -2 18.28 2.3
0 -6 -2 21.96 2.62
0 -6 -2 24.39 2.71
0 -6 -3 59.11 4.13
0 -6 -3 57.59 4.29
0 -6 -3 57.64 4.39
0 -6 -3 59.37 4.26
0 -6 -3 62.26 4.65
0 -6 -3 61.74 4.54
0 -6 -3 60.69 4.57
0 -6 -3 60.59 4.21
0 -6 -4 59.3 4.39
0 -6 -4 55.3 4.42
0 -6 -4 48.91 4
0 -6 -4 55.99 4.09
0 -6 -4 58.5 4.13
0 -6 -4 59.89 4.41
0 -6 -4 52.06 4.09
0 -6 -4 55.44 3.98
0 -6 -5 4.97 1.42
0 -6 -5 4.55 1.21
0 -6 -5 5.47 1.39
0 -6 -5 4.03 1.16
0 -6 -5 4.45 1.18
0 -6 -6 91.37 5.95
0 -6 -6 83.53 5.12
0 -6 -6 78.89 5.05
0 -6 -6 93.61 5.83
0 -6 -6 79.16 5.18
0 -6 -6 87.31 5.41
0 -6 -7 63.84 4.73
0 -6 -7 68.01 4.7
0 -6 -7 76.2 5.3
0 -6 -7 65.57 4.42
0 -6 -7 55.42 4.14
0 -6 -7 64.63 4.61
0 -6 -8 551.59 18.43
0 -6 -8 596.51 19.15
0 -6 -8 547.88 17.75
0 -6 -8 517.25 17.55
0 -6 -8 561.36 18.18
0 -6 -8 525.51 18.04
0 6 8 548.48 17.23
0 6 9 110.53 5.62
0 -6 -9 115.8 6.37
0 -6 -9 114.31 6.02
0 -6 -9 115.08 6.18
0 -6 -9 126.42 6.8
0 -6 -9 114.41 6.3
0 -6 -9 122.61 6.15
0 -6 -10 11.43 1.66
0 -6 -10 13.43 1.94
0 -6 -10 9.64 1.58
0 -6 -10 7.1 1.38
0 -6 -10 13.76 2.08
0 6 10 9.12 1.43
0 -6 -10 12.81 1.83
0 -6 -11 183.14 7.77
0 -6 -11 185.5 7.37
0 6 11 165.46 6.99
0 -6 -11 171.96 7.17
0 -6 -11 166.18 7.13
0 -6 -11 181.4 7.47
0 6 11 179.63 7.49
0 -6 -11 189.93 8
0 6 12 113.22 5.21
0 -6 -12 121.78 5.41
0 -6 -12 124.8 5.36
0 -6 -12 126.82 5.84
0 -6 -12 123.22 5.19
0 -6 -12 136.06 6.03
0 6 12 121.13 5.49
0 -6 -13 5.95 0.94
0 -6 -13 6.09 1.08
0 6 13 5.14 0.88
0 -6 -13 6.22 1.05
0 6 13 5.35 0.93
0 -6 -13 5.04 0.87
0 -6 -14 147.52 5.2
0 6 14 121.23 4.65
0 -7 10 84.79 3.45
0 7 -10 87.86 3.6
0 -7 9 -0.06 0.29
0 -7 8 21.49 1.72
0 -7 8 23.11 1.99
0 7 -8 24.03 1.82
0 -7 7 18.31 1.77
0 7 -7 22.42 2.02
0 -7 7 19.32 1.95
0 -7 6 13.99 1.75
0 7 -6 14.23 1.74
0 -7 6 10.93 1.47
0 -7 5 413.39 13.61
0 -7 5 416.42 13.75
0 -7 4 89.37 5.01
0 -7 4 96.51 4.75
0 -7 4 86.26 4.94
0 -7 3 35.42 3.06
0 -7 3 26.65 2.5
0 -7 3 37.05 2.71
0 -7 3 31.04 2.81
0 -7 2 1.62 0.81
0 -7 2 3.82 0.95
0 -7 2 2.03 0.83
0 -7 1 179.27 7.47
0 -7 1 161.06 7.58
0 -7 1 154.67 7.1
0 -7 1 152.75 7.05
0 -7 1 154.08 7.2
0 -7 0 168.64 7.64
0 -7 0 165.75 7.32
0 -7 0 166.91 7.8
0 -7 0 166.69 7.51
0 -7 0 164.03 7.54
0 -7 0 155.58 7.03
0 -7 -1 156.17 7.31
0 -7 -1 160.68 6.92
0 -7 -1 148.68 7.26
0 -7 -1 154.18 7.25
0 -7 -1 150.87 6.89
0 -7 -1 150.75 7.34
0 -7 -2 88.08 5.19
0 -7 -2 86.02 5.14
0 -7 -2 91.62 5.41
0 -7 -2 83.24 4.75
0 -7 -2 89.61 4.91
0 -7 -2 87.31 5.21
0 -7 -3 68.08 4.55
0 -7 -3 52.22 3.88
0 -7 -3 60.55 4.21
0 -7 -3 59.06 4.12
0 -7 -3 61.36 3.98
0 7 3 57.95 3.77
0 -7 -3 59.47 3.8
0 -7 -4 54.43 3.73
0 7 4 54.13 3.71
0 -7 -4 60.27 4.28
0 -7 -4 57.74 4
0 -7 -4 62.17 4.19
0 -7 -4 57.02 3.85
0 -7 -5 40.73 3.23
0 7 5 41.67 3.23
0 -7 -5 45.82 3.67
0 -7 -5 42.51 3.29
0 -7 -5 47.85 3.58
0 -7 -6 13.64 1.79
0 -7 -6 12.57 1.72
0 -7 -6 15.05 1.88
0 7 6 14.4 1.85
0 -7 -6 14.75 2.04
0 7 7 9.68 1.51
0 -7 -7 8.45 1.41
0 -7 -7 9.23 1.47
0 -7 -7 8.72 1.41
0 -7 -7 10.33 1.66
0 -7 -8 195.69 7.93
0 -7 -8 194.54 7.71
0 -7 -8 184.28 7.54
0 -7 -8 200.98 7.82
0 7 8 197.06 7.77
0 -7 -9 88.44 4.41
0 -7 -9 94.58 4.62
0 -7 -9 89.38 4.53
0 -7 -9 90.67 4.46
0 7 9 90.4 4.53
0 7 10 7.94 1.13
0 -7 -10 9.07 1.18
0 -7 -10 9.89 1.2
0 -7 -10 9.09 1.23
0 -7 -10 6.94 1.05
0 -7 -11 195.81 6.53
0 7 11 208.55 6.93
0 -7 -11 206.1 6.68
0 -7 -11 220.31 7.1
0 7 12 15.41 1.13
0 -7 -12 16.89 1.23
0 -8 5 10.5 1.04
0 8 -5 10.86 1.05
0 -8 5 10.29 1.03
0 8 -4 95.18 3.93
0 -8 4 90.07 3.86
0 -8 4 83.88 3.61
0 -8 3 50.76 2.66
0 -8 3 58.14 3.05
0 -8 2 15.58 1.55
0 -8 2 15.31 1.35
0 -8 2 15.37 1.35
0 -8 1 34.42 2.4
0 -8 1 32.47 1.97
0 -8 1 32.34 2.16
0 8 -1 34.69 2.19
0 -8 0 84.99 3.77
0 8 0 92 4.09
0 -8 0 84.47 3.99
0 -8 0 83.07 4.11
0 8 1 15.49 1.59
0 -8 -1 15.2 1.56
0 -8 -1 15.37 1.58
0 -8 -1 16.15 1.51
0 -8 -2 22.7 1.94
0 -8 -2 27.2 2.01
0 -8 -2 23.08 1.87
0 8 2 22.75 1.95
0 8 3 1.12 0.54
0 -8 -3 2.06 0.61
0 -8 -3 1.57 0.59
0 -8 -3 3.16 0.69
0 -8 -4 39.78 2.6
0 -8 -4 36.9 2.4
0 -8 -5 108.9 4.08
0 -8 -5 114.19 4.6
0 -8 -5 119.71 4.85
0 8 5 107.97 4.06
0 -8 -6 74.96 3.34
0 -8 -6 75.21 3.46
0 8 6 73.56 3.41
0 8 6 67.52 2.94
0 -8 -6 63.63 2.82
0 -8 -6 74.58 3.35
0 -8 -7 100.79 3.95
0 8 7 97.27 3.82
0 -8 -7 101.2 3.87
0 8 7 94.27 3.58
0 -8 -8 31.69 1.69
1 -8 -5 39.19 1.84
1 -8 -4 0.64 0.3
-1 8 4 0.57 0.34
1 -8 -4 0.1 0.25
1 -8 -3 2.71 0.54
1 -8 -3 3.17 0.56
-1 8 3 2.3 0.52
1 -8 -2 5.17 0.73
1 -8 -2 5.18 0.73
-1 8 2 4.74 0.72
1 -8 -2 3.45 0.55
-1 8 1 75.88 3.18
1 -8 -1 67.52 2.99
1 -8 -1 72.35 2.97
1 -8 -1 71.71 3.04
-1 8 0 173.89 5.94
-1 8 0 192.71 6.04
1 -8 0 185.49 6.12
-1 8 -1 61.48 2.8
1 -8 1 66.96 2.96
-1 8 -1 57.85 2.54
1 -8 2 185.19 6.05
-1 8 -2 180.62 5.95
1 -8 3 51.9 2.4
-1 8 -3 50.83 2.37
-1 7 10 6.59 0.78
1 -7 -10 5.77 0.73
1 -7 -9 0.67 0.33
1 -7 -9 0.51 0.34
1 -7 -9 0.47 0.4
-1 7 9 0.3 0.33
1 -7 -9 0.29 0.32
-1 7 8 323.66 10.17
1 -7 -8 304.32 9.84
1 -7 -8 307.25 9.56
-1 7 8 305.17 9.71
1 -7 -8 339.66 10.48
1 -7 -8 355.03 10.42
1 -7 -7 85.78 3.86
1 -7 -7 94.18 4.6
-1 7 7 81.75 4.11
1 -7 -7 95.1 4.46
-1 7 7 91.89 4.4
1 -7 -7 85.53 4.16
-1 7 6 1.79 0.68
1 -7 -6 0.23 0.5
1 -7 -6 0.65 0.47
1 -7 -6 -0.25 0.65
1 -7 -6 -0.02 0.41
1 -7 -5 21.41 2.03
1 -7 -5 22.72 1.96
1 -7 -5 22.32 2.27
-1 7 5 24.59 2.18
1 -7 -5 22.98 2.23
1 -7 -4 653.26 19.98
1 -7 -4 690.31 20.36
1 -7 -4 737.36 21.13
1 -7 -4 697.87 20.21
-1 7 4 677.55 20.09
1 -7 -3 4.23 1.08
1 -7 -3 2.78 0.88
-1 7 3 2.71 0.74
1 -7 -3 3.24 0.93
1 -7 -3 2.29 0.73
1 -7 -3 2.54 0.87
1 -7 -2 38.64 2.96
1 -7 -2 35.65 3.01
1 -7 -2 34.56 2.83
1 -7 -2 34.64 2.9
1 -7 -2 35.99 2.86
1 -7 -1 43.38 3.43
1 -7 -1 36.85 2.98
1 -7 -1 40.23 3.12
1 -7 -1 46.34 3.26
-1 7 1 36.1 3.05
1 -7 -1 39.8 3.04
1 -7 0 19.37 2.09
1 -7 0 18.94 2.08
1 -7 0 19.81 2.07
-1 7 0 17.24 2.03
1 -7 0 20.5 2.3
1 -7 0 18.57 1.89
1 -7 0 16.78 1.97
1 -7 1 88.74 4.73
1 -7 1 93.02 4.77
-1 7 -1 100.01 5.08
1 -7 1 97.93 5.35
1 -7 1 97.15 4.86
1 -7 1 93.4 4.98
1 -7 2 7.42 1.23
1 -7 2 11.44 1.74
1 -7 2 10.81 1.41
-1 7 -2 10.39 1.5
1 -7 2 9.81 1.41
1 -7 2 10.75 1.51
1 -7 3 38.71 2.67
1 -7 3 41.48 3.11
1 -7 3 35.54 2.83
-1 7 -3 35.88 2.66
1 -7 4 60.03 3.72
1 -7 4 64.53 3.8
1 -7 5 0.83 0.53
1 -7 5 0.8 0.5
-1 7 -5 1.11 0.58
1 -7 6 20.04 1.91
-1 7 -6 24.5 2.06
1 -7 6 20.13 1.82
-1 7 -7 112.89 4.71
1 -7 7 102.61 4.33
1 -7 7 111.09 4.76
-1 7 -8 139.3 5.16
1 -7 8 149.25 5.45
1 -7 9 17.31 1.33
-1 7 -9 17.32 1.3
1 -6 -13 207.96 6.34
1 -6 -13 213.61 6.55
-1 6 12 49.58 2.54
1 -6 -12 50.4 2.75
1 -6 -12 53.13 2.72
1 -6 -12 54.68 2.81
1 -6 -12 44.68 2.41
-1 6 12 54.31 2.74
-1 6 11 96.19 4.38
1 -6 -11 104.37 4.76
1 -6 -11 117.15 4.87
1 -6 -11 116.13 4.98
1 -6 -11 102.88 4.75
-1 6 11 115.89 4.98
-1 6 10 102.34 4.79
1 -6 -10 105.29 4.87
1 -6 -10 103.7 5.12
1 -6 -10 110.31 5.38
1 -6 -10 119.64 5.45
1 -6 -10 116.57 5.26
-1 6 10 119.34 5.49
1 -6 -9 13.07 1.73
-1 6 9 10.5 1.66
1 -6 -9 10.71 1.59
1 -6 -9 9.83 1.64
-1 6 9 11.91 1.52
1 -6 -9 11.5 1.58
1 -6 -9 11.36 1.58
1 -6 -8 1.68 0.81
1 -6 -8 0.37 0.72
1 -6 -8 0.55 0.67
-1 6 8 0.87 0.74
1 -6 -8 2.16 0.76
1 -6 -8 0.06 0.57
1 -6 -7 140.36 6.96
1 -6 -7 158.18 7.29
-1 6 7 147.25 7.32
1 -6 -7 149.08 6.99
1 -6 -7 146.21 7.43
1 -6 -7 138.39 6.72
1 -6 -7 146.23 6.6
1 -6 -6 9.04 1.56
1 -6 -6 8.52 1.58
1 -6 -6 5.82 1.38
-1 6 6 9.33 1.73
1 -6 -6 9.88 1.64
1 -6 -6 8.4 1.49
1 -6 -6 11.71 2.04
-1 6 5 17.43 2.38
1 -6 -5 12.97 1.84
1 -6 -5 16.36 2.2
1 -6 -5 13.8 1.93
1 -6 -5 14.1 1.95
1 -6 -5 14.06 2
1 -6 -5 12.26 1.88
1 -6 -5 14.65 2.22
1 -6 -4 55.81 4.08
-1 6 4 50.58 4
1 -6 -4 46.75 3.78
1 -6 -4 50.96 3.84
1 -6 -4 52.81 3.79
1 -6 -4 54.95 4.31
1 -6 -4 53.77 4.14
1 -6 -4 55.92 4.17
1 -6 -3 273.91 10.18
1 -6 -3 261.18 10.85
1 -6 -3 254.51 10.49
1 -6 -3 248.54 10.77
1 -6 -3 262.15 10.62
1 -6 -3 264.96 10.51
-1 6 3 256.94 10.34
1 -6 -3 248.54 10.21
1 -6 -2 187.37 8.74
1 -6 -2 175.2 8.17
1 -6 -2 176.25 8.49
-1 6 2 187.64 8.24
1 -6 -2 189.22 8.54
1 -6 -2 187.05 8.86
1 -6 -1 8.3 1.58
1 -6 -1 9.79 1.69
1 -6 -1 9.77 1.87
1 -6 -1 7.22 1.59
1 -6 -1 11.06 1.92
1 -6 0 22.21 2.79
1 -6 0 23.66 2.66
1 -6 0 20.43 2.51
1 -6 0 24.44 2.7
1 -6 0 17.46 2.34
1 -6 1 277.57 11.09
1 -6 1 288.51 11.29
1 -6 1 290.28 11.29
1 -6 1 277.73 11.3
-1 6 -1 284.45 10.84
1 -6 1 292.78 11.91
1 -6 2 100.14 5.71
1 -6 2 110.31 6.52
1 -6 2 110.39 6.26
1 -6 2 106.69 5.95
1 -6 2 104.78 5.95
-1 6 -3 28.59 2.87
1 -6 3 31.94 3.31
1 -6 3 31.85 2.93
1 -6 3 27.65 2.73
1 -6 3 32.61 2.96
1 -6 3 27.72 3.05
1 -6 3 31.24 3.1
1 -6 4 12.31 2
-1 6 -4 14.54 1.99
1 -6 4 12.43 1.97
1 -6 4 12.86 2.05
1 -6 4 12.31 1.77
1 -6 4 10.59 1.74
1 -6 5 21.16 2.55
1 -6 5 17.73 2
1 -6 5 19.38 2.4
1 -6 5 19.72 2.23
1 -6 5 19.77 2.47
1 -6 6 349.82 12.63
1 -6 6 384.9 13.33
1 -6 6 393.2 13.64
1 -6 7 75.64 4.74
-1 6 -7 88.51 5.01
1 -6 7 72.6 4.3
1 -6 7 74.17 4.44
1 -6 8 8.16 1.43
1 -6 8 7.89 1.28
-1 6 -8 8.41 1.42
1 -6 9 0.16 0.54
-1 6 -9 -0.36 0.47
1 -6 10 66.68 3.23
-1 6 -10 72.75 3.97
1 -6 10 65.94 3.7
-1 6 -10 72.83 3.66
1 -6 11 193.12 6.44
1 -6 11 200.18 6.98
-1 6 -12 28.98 1.88
-1 6 -12 26.04 1.83
-1 5 15 0.72 0.38
1 -5 -15 0.87 0.34
1 -5 -15 0.85 0.34
1 -5 -14 17.79 1.57
-1 5 14 16.31 1.38
1 -5 -14 17.85 1.6
-1 5 14 18.42 1.63
1 -5 -14 18.66 1.6
-1 5 13 0.79 0.41
-1 5 13 1.45 0.5
1 -5 -13 -0.05 0.53
1 -5 -13 0.25 0.43
1 -5 -13 0.82 0.59
-1 5 13 0.08 0.52
1 -5 -12 133 6.32
-1 5 12 132.16 6.13
1 -5 -12 137.05 6.25
-1 5 12 136.53 6.29
1 -5 -12 153.69 6.58
-1 5 12 136.63 5.92
1 -5 -12 151.65 6.57
1 -5 -11 0.05 0.65
-1 5 11 1.22 0.69
1 -5 -11 0.15 0.8
1 -5 -11 0.1 0.59
-1 5 11 0.09 0.49
1 -5 -11 -0.02 0.69
-1 5 11 0.82 0.7
1 -5 -10 56.68 4.13
1 -5 -10 50.97 4.14
1 -5 -10 49.71 3.6
-1 5 10 59.53 4.25
1 -5 -10 58.96 4.26
1 -5 -10 52.61 4.04
-1 5 10 52.61 3.87
-1 5 9 1.18 0.76
1 -5 -9 2.31 0.94
1 -5 -9 2.68 0.99
1 -5 -9 1.79 0.93
1 -5 -9 1.32 0.77
1 -5 -9 2.65 1.05
-1 5 9 2.12 0.88
1 -5 -8 733.01 22.66
1 -5 -8 752.49 22.8
1 -5 -8 682.83 21.74
-1 5 8 662.18 21.46
1 -5 -8 718.23 21.77
1 -5 -8 730.69 23.18
1 -5 -8 723.83 22.74
-1 5 7 10.89 1.77
1 -5 -7 13.85 2.14
1 -5 -7 12.55 2.18
1 -5 -7 11.76 1.86
1 -5 -7 10.66 1.81
1 -5 -7 12.79 2.02
1 -5 -7 12.38 2.12
1 -5 -6 106.27 6.5
1 -5 -6 106.57 6.13
1 -5 -6 102.6 6.05
1 -5 -6 104.99 5.88
1 -5 -6 87.17 5.53
1 -5 -6 109.92 6.42
1 -5 -5 147.36 7.43
1 -5 -5 136.81 7.02
1 -5 -5 154.2 7.56
1 -5 -5 133.08 7.07
-1 5 5 148.07 7.39
1 -5 -5 139.52 7.55
1 -5 -5 151.22 7.74
1 -5 -4 111.87 6.36
1 -5 -4 108.36 6.67
1 -5 -4 115.04 6.41
1 -5 -4 126.89 6.97
1 -5 -4 116.39 6.3
1 -5 -4 119.88 6.54
1 -5 -4 119.95 6.59
-1 5 4 126.1 6.63
-1 5 4 125.11 7.51
1 -5 -4 135.88 7.17
1 -5 -3 158.51 7.87
1 -5 -3 153.03 7.39
1 -5 -3 159.42 7.68
1 -5 -3 158.64 7.8
1 -5 -3 153.3 7.69
1 -5 -3 157.33 7.63
-1 5 3 146.82 7.4
1 -5 -3 146.16 7.08
1 -5 -3 140.99 7.63
-1 5 3 180.11 8.98
1 -5 -2 2941.05 77.2
1 -5 -2 2847.69 76.99
1 -5 -2 2752.37 76.78
-1 5 2 3035.6 77.13
1 -5 -2 3198.95 77.9
-1 5 2 3086.69 78.75
1 -5 -2 2920.07 76.69
1 -5 -2 3080.14 77.07
1 -5 -2 2812.49 76.62
1 -5 -2 3011.09 76.98
-1 5 1 185.93 8.27
-1 5 1 191.63 8.7
1 -5 -1 196.31 8.89
1 -5 -1 191.25 8.5
1 -5 -1 168.04 8.08
-1 5 1 192.37 9.35
1 -5 -1 174.52 8.32
1 -5 -1 189.81 8.48
1 -5 -1 193.24 8.62
1 -5 -1 199.65 8.66
1 -5 -1 181.11 8.56
-1 5 0 5.61 1.43
1 -5 0 3.83 1.12
1 -5 0 2.77 1.07
1 -5 0 2.17 0.94
1 -5 0 2.11 0.83
-1 5 0 3.68 1.31
1 -5 0 2.03 0.79
1 -5 0 2.64 0.98
1 -5 0 1.51 0.76
1 -5 0 1.29 0.84
1 -5 1 67.13 4.58
1 -5 1 64.04 4.57
1 -5 1 67.97 4.71
1 -5 1 63.78 4.41
1 -5 1 70.02 4.72
-1 5 -1 60.47 4.74
1 -5 1 61.16 4.52
-1 5 -1 70.29 4.8
1 -5 1 62.83 4.23
1 -5 2 404.84 14.36
-1 5 -2 402.25 14.9
1 -5 2 372.13 13.59
-1 5 -2 393.33 14.25
1 -5 2 395.81 14.11
1 -5 2 409.83 14.53
1 -5 2 399.98 14.56
1 -5 2 402.43 14.06
1 -5 2 407.57 14.37
1 -5 3 178.66 8.49
-1 5 -3 169.07 8.09
1 -5 3 185.5 8.26
1 -5 3 174.08 8.11
1 -5 3 179.41 8.38
1 -5 3 179.55 8.36
1 -5 3 163.44 7.75
1 -5 3 179.06 8
-1 5 -3 175.8 7.99
-1 5 -3 175.28 8.62
1 -5 4 59.18 4.56
1 -5 4 64.43 4.46
1 -5 4 63.45 4.58
1 -5 4 58.01 4.35
-1 5 -4 59.92 4.28
-1 5 -4 60.67 4.37
1 -5 4 63.76 4.4
1 -5 4 54.05 4.1
1 -5 4 59.28 4.4
-1 5 -5 45.39 3.65
1 -5 5 47.42 3.66
1 -5 5 44.52 3.87
1 -5 5 44.11 3.75
1 -5 5 46.6 3.91
1 -5 5 50.41 4.1
-1 5 -6 16.1 2.11
1 -5 6 16.47 2.36
1 -5 6 13.2 2.07
1 -5 6 17.77 2.41
1 -5 7 232.18 10.11
1 -5 7 215.72 9.52
1 -5 7 225.46 9.16
1 -5 7 231.61 9.64
1 -5 7 218.44 9.07
-1 5 -8 76.89 5.02
1 -5 8 70.86 4.5
1 -5 8 67.07 4.39
1 -5 8 67.73 4.59
1 -5 8 72.51 4.93
1 -5 8 68.13 4.41
1 -5 9 52.59 3.8
-1 5 -9 55.76 4.11
1 -5 9 49.22 3.78
1 -5 9 55.43 4.07
1 -5 9 52.19 3.76
1 -5 9 55.87 3.8
1 -5 10 7.16 1.38
-1 5 -10 8.53 1.57
1 -5 10 6.97 1.33
1 -5 10 7 1.3
1 -5 10 8.4 1.47
1 -5 11 168.42 7.16
-1 5 -11 192.35 8.1
1 -5 11 167.22 7.22
1 -5 11 175.54 7.31
-1 5 -11 173.32 7.26
1 -5 11 175.77 7.22
1 -5 12 80.8 4.3
-1 5 -12 90.82 4.87
1 -5 12 80.76 4.21
1 -5 12 82.64 4.2
1 -5 12 82.35 4.27
-1 5 -13 35.81 2.68
1 -5 13 35.6 2.45
1 -5 13 35.25 2.37
-1 5 -14 79.82 3.65
-1 5 -14 71.86 3.48
1 -5 14 74.94 3.36
1 -4 -16 80.7 3.37
-1 4 16 94.7 3.85
1 -4 -16 89.32 3.8
-1 4 16 86.05 3.74
1 -4 -16 82 3.61
1 -4 -15 312.78 10.22
1 -4 -15 318.13 10.16
-1 4 15 322.46 10.38
-1 4 15 300.3 10.12
-1 4 14 27.69 2.5
1 -4 -14 29.38 2.58
1 -4 -14 30.25 2.61
1 -4 -14 30.36 2.64
-1 4 14 30.57 2.67
-1 4 13 100.9 5.05
-1 4 13 98.3 5.36
1 -4 -13 99.55 5.48
-1 4 13 109.07 5.78
1 -4 -13 104.33 5.65
1 -4 -13 102.93 5.62
1 -4 -12 40.5 3.52
-1 4 12 41.95 3.57
1 -4 -12 47.99 3.87
-1 4 12 46.6 3.53
-1 4 12 42.89 3.48
1 -4 -12 42.16 3.6
1 -4 -12 37.86 3.36
-1 4 11 9.08 1.63
1 -4 -11 10.9 1.92
1 -4 -11 11.75 2.01
-1 4 11 10.13 1.81
-1 4 11 9.71 1.76
1 -4 -11 11.68 2.06
1 -4 -11 10.38 1.9
1 -4 -10 42.31 3.78
1 -4 -10 37.13 3.66
-1 4 10 37.47 3.4
1 -4 -10 38.76 3.6
-1 4 10 43.08 3.65
1 -4 -10 40.1 3.77
1 -4 -9 40.78 3.3
1 -4 -9 40.46 3.75
-1 4 9 43.79 3.6
1 -4 -9 40.23 3.66
1 -4 -9 38.75 3.63
-1 4 9 44.6 3.67
1 -4 -9 42.47 3.94
1 -4 -8 73.02 4.7
1 -4 -8 69.49 4.99
1 -4 -8 65.98 4.91
-1 4 8 72.91 4.61
-1 4 8 69.25 5.25
1 -4 -8 68.16 5.07
-1 4 8 71.23 4.63
1 -4 -8 72.97 4.52
1 -4 -8 74.05 5.08
1 -4 -8 72.63 5
-1 4 7 167.55 7.5
1 -4 -7 176.23 8.35
1 -4 -7 170.02 8.33
1 -4 -7 179.18 8.45
-1 4 7 171.61 7.52
1 -4 -7 176.93 8.29
1 -4 -7 183.61 8.73
1 -4 -7 173.52 7.7
-1 4 7 178.85 8.9
1 -4 -7 174.05 7.89
1 -4 -6 66.1 4.55
-1 4 6 64.63 4.96
-1 4 6 66.02 4.14
1 -4 -6 66.42 4.72
-1 4 5 151.35 6.81
1 -4 -5 152.72 7.5
-1 4 5 155.45 8
-1 4 4 71.44 5
-1 4 4 59.87 3.86
1 -4 -4 59.23 4.27
1 -4 -3 1366.27 36.86
-1 4 3 1416.94 38.9
-1 4 3 1342.89 36.84
1 -4 -3 1340.99 37.66
-1 4 2 17.55 2.4
1 -4 -2 17.5 2.11
-1 4 2 18.23 2
1 -4 -2 18.19 1.99
-1 4 1 195.2 8.67
1 -4 -1 171.54 7.47
1 -4 -1 176.14 7.51
-1 4 1 189.53 7.71
1 -4 0 188.59 7.71
-1 4 0 212.56 9.02
1 -4 0 191.79 8.02
-1 4 0 205.7 8.19
-1 4 -1 35.55 2.94
1 -4 1 37.4 2.75
1 -4 1 40.43 3.14
1 -4 1 37.86 2.79
1 -4 2 27.37 2.19
1 -4 2 25.56 2.39
-1 4 -2 26.7 2.55
1 -4 2 26.79 2.55
1 -4 3 1829.46 49
-1 4 -3 1845.95 49.12
1 -4 3 1887.7 49.44
-1 4 -4 36.29 3
1 -4 4 33.63 3.02
1 -4 4 36.1 3.07
1 -4 5 28.94 2.84
-1 4 -5 31.96 2.8
1 -4 5 27.69 2.79
-1 4 -5 28.93 2.46
1 -4 6 112.03 6.08
1 -4 6 111.13 6.03
1 -4 6 106.23 6.07
1 -4 6 106.56 5.92
-1 4 -6 113.74 5.62
1 -4 7 53.81 4.11
1 -4 7 57.8 4.34
1 -4 7 53.14 3.86
1 -4 7 64.17 4.62
1 -4 7 55.65 4.14
1 -4 7 54.71 4.01
-1 4 -7 55.73 4.02
1 -4 7 66.36 4.36
-1 4 -7 57.48 3.96
1 -4 8 10.75 1.79
-1 4 -8 11.76 1.82
1 -4 8 11.26 1.89
1 -4 8 9.47 1.76
-1 4 -8 11.25 1.8
1 -4 8 11.18 1.76
1 -4 8 10.39 1.8
1 -4 9 -0.13 0.7
-1 4 -9 0.2 0.56
-1 4 -9 1.71 0.79
1 -4 9 1.47 0.79
1 -4 9 1.25 0.75
1 -4 9 0.23 0.64
-1 4 -10 0.78 0.9
1 -4 10 0.01 0.71
1 -4 10 0.78 0.74
1 -4 10 0.5 0.5
-1 4 -10 1.86 0.84
1 -4 10 -0.33 0.56
-1 4 -11 14.92 1.96
1 -4 11 19.23 2.36
1 -4 11 18.39 2.17
-1 4 -11 18.27 2.35
1 -4 11 16.55 2.21
1 -4 12 50.47 3.77
-1 4 -12 55.38 4.4
1 -4 12 50.29 3.5
-1 4 -12 53.02 3.57
1 -4 12 46.22 3.64
-1 4 -13 4.33 1.21
1 -4 13 2.07 0.85
1 -4 13 2.72 0.86
-1 4 -13 2.3 0.73
1 -4 14 36.29 2.8
-1 4 -14 41.05 3.25
1 -4 14 39.54 2.97
1 -4 14 35.59 2.82
-1 4 -14 38.75 3.15
-1 4 -15 262.65 9.37
1 -4 15 267.28 9.03
1 -4 15 262.29 9.06
-1 4 -15 268.98 9.46
1 -4 16 30.9 1.98
-1 4 -16 27.77 1.95
1 -4 16 26.45 1.86
-1 4 -16 30.6 2.05
-1 4 -16 29.15 2.03
1 -3 -17 9.73 1.2
-1 3 17 12.4 1.32
-1 3 17 11.99 1.14
1 -3 -17 10.31 1.16
1 -3 -16 43.38 2.97
1 -3 -16 39.16 2.78
1 -3 -16 47.71 3
-1 3 16 47.22 3.12
-1 3 16 46.16 2.94
1 -3 -15 28.54 2.66
1 -3 -15 30.66 2.65
1 -3 -15 32.73 2.86
-1 3 15 32.46 2.76
-1 3 15 34.09 2.9
1 -3 -14 24.9 2.72
-1 3 14 26.27 2.7
1 -3 -14 23.79 2.58
-1 3 14 25.34 2.68
1 -3 -14 23.96 2.62
1 -3 -13 22.75 2.67
-1 3 13 23.57 2.6
1 -3 -13 25.21 2.89
-1 3 13 30.07 3.04
1 -3 -13 28.85 2.97
1 -3 -13 28.56 3
1 -3 -12 37.26 3.5
1 -3 -12 42.86 3.71
-1 3 12 41.39 3.58
-1 3 12 41.67 3.55
1 -3 -12 33.64 3.29
1 -3 -12 40.21 3.75
-1 3 11 178.28 7.78
-1 3 11 165.1 7.69
1 -3 -11 156.94 8.24
1 -3 -11 156.89 7.8
1 -3 -11 155.95 7.98
-1 3 11 172.01 8.03
1 -3 -11 162.98 7.9
-1 3 10 241.86 10.69
-1 3 10 272.8 10.4
-1 3 10 248.02 9.63
1 -3 -10 225.29 9.76
1 -3 -10 254.57 10.83
-1 3 10 256.25 9.99
1 -3 -10 248.9 10.48
1 -3 -10 261.74 10.68
1 -3 -10 259.04 10.28
1 -3 -10 224.6 9.94
-1 3 9 81.26 4.8
1 -3 -9 83.34 5.01
1 -3 -9 82.1 5.24
1 -3 -9 83.18 5.11
1 -3 -9 75.25 5.13
-1 3 9 80.26 4.48
1 -3 -9 79.78 4.95
-1 3 9 77.88 5.28
1 -3 -9 78.15 5.01
-1 3 9 88.36 5.09
1 -3 -8 63.24 4.13
1 -3 -8 64.68 4.3
-1 3 8 66.79 4.65
-1 3 8 64.89 3.74
-1 3 7 3.92 0.85
1 -3 -7 2.49 0.89
-1 3 7 3.05 0.76
-1 3 7 2.14 0.81
1 -3 -7 2.86 0.8
-1 3 6 696.48 21.3
1 -3 -6 705.25 20.84
-1 3 6 685.86 19.21
1 -3 -6 686.54 20.03
-1 3 6 700.82 19.75
1 -3 -5 136.5 5.57
-1 3 5 139.19 5.62
1 -3 -5 134.8 6.18
-1 3 5 134.92 6.5
-1 3 5 129.75 4.97
-1 3 4 253.58 9.63
1 -3 -4 244.51 8.19
1 -3 -4 251.31 9.15
-1 3 4 243.21 8.43
1 -3 -3 781.06 21.7
-1 3 3 756.93 20.92
1 -3 -3 737.42 20.26
-1 3 3 751.25 22.31
-1 3 2 399.68 13.01
-1 3 2 377.7 11.63
1 -3 -2 361.82 10.75
1 -3 -2 380.69 12.11
-1 3 1 17.77 2.04
1 -3 -1 19 1.35
-1 3 1 18.43 1.71
1 -3 -1 17.7 1.35
1 -3 -1 17.6 1.74
-1 3 0 137.79 5.5
1 -3 0 124.35 4.83
1 -3 0 127.54 5.33
1 -3 1 131 5.29
-1 3 -1 131.23 5.52
-1 3 -1 141.94 4.93
1 -3 2 11.76 1.43
1 -3 2 11.02 1.19
-1 3 -2 12.12 1.21
-1 3 -2 11.71 1.43
1 -3 3 80.94 4.19
1 -3 3 80.73 3.48
-1 3 -3 75.43 3.59
1 -3 3 78.05 3.95
-1 3 -3 77.48 4.03
1 -3 4 560.27 16.44
1 -3 4 567.1 16.84
-1 3 -4 569.82 16.83
-1 3 -4 557.36 16.17
1 -3 5 670.4 18.46
1 -3 5 633.67 18.84
-1 3 -5 621.65 18.32
1 -3 5 633.26 18.98
-1 3 -5 661.61 18.99
-1 3 -5 627.58 18.2
1 -3 6 0.18 0.43
-1 3 -6 0.65 0.41
1 -3 6 0.32 0.44
-1 3 -6 1.02 0.58
1 -3 7 198.19 8.2
1 -3 7 183.66 7.6
-1 3 -7 186.94 7.59
1 -3 8 2184.84 58.47
1 -3 8 2359.57 59.51
-1 3 -8 2230.09 58.75
-1 3 -9 25.13 2.94
1 -3 9 17.65 2.07
1 -3 9 15.82 2.08
1 -3 9 17.27 2.31
-1 3 -9 23.32 2.51
1 -3 9 18.54 2.3
1 -3 9 18.73 2.3
-1 3 -9 19.3 2.28
1 -3 10 837.9 24.61
1 -3 10 847.56 25.72
1 -3 10 865.2 25.44
-1 3 -10 839.56 25.99
1 -3 10 823.29 25.06
1 -3 10 844.24 25.34
1 -3 10 830.61 24.74
-1 3 -10 817.23 24.87
-1 3 -10 888.75 25.81
-1 3 -11 5.5 1.5
1 -3 11 2.06 0.89
1 -3 11 5.28 1.3
1 -3 11 5.15 1.33
-1 3 -11 4.91 1.18
1 -3 12 77.6 4.73
1 -3 12 82.09 5.12
-1 3 -12 81.31 5.87
-1 3 -12 72 4.66
1 -3 12 74.57 5
1 -3 13 141.51 7.07
1 -3 13 133.78 6.82
1 -3 13 139.51 6.69
-1 3 -13 143.55 6.8
-1 3 -13 156.22 8.25
1 -3 14 42.41 3.42
-1 3 -14 37.07 2.97
-1 3 -14 47.1 4.08
-1 3 -14 43.31 3.91
1 -3 14 35.8 3.08
1 -3 14 41.83 3.24
1 -3 15 55.95 3.71
-1 3 -15 56.58 4.17
1 -3 15 49.45 3.38
1 -3 15 50.97 3.39
-1 3 -15 47.49 3.13
-1 3 -15 52.1 3.99
1 -3 16 3.55 0.81
-1 3 -16 3.44 0.74
1 -3 16 3.06 0.78
-1 3 -16 4.03 1.01
1 -3 16 3.37 0.92
-1 3 -16 3.24 0.97
-1 3 -17 20.45 1.77
-1 3 -17 26.83 2.12
1 -3 17 22.68 1.66
-1 3 -17 23.45 1.94
1 -3 17 19.15 1.69
1 -3 17 22.04 1.69
1 -2 -18 2.02 0.59
1 -2 -18 2.41 0.54
-1 2 18 3.21 0.68
1 -2 -17 255.99 8.72
1 -2 -17 238.24 8.21
-1 2 17 245.29 8.59
1 -2 -16 0.43 0.72
1 -2 -16 0.63 0.69
-1 2 16 0.7 0.61
1 -2 -16 0.09 0.49
-1 2 16 1.18 0.7
1 -2 -16 0.49 0.51
1 -2 -15 124.85 6.27
1 -2 -15 131.05 6.47
1 -2 -15 124.4 6.4
1 -2 -15 135.09 6.89
-1 2 15 140 6.66
-1 2 15 119.11 6.11
-1 2 14 18.64 2.31
1 -2 -14 18.56 2.31
1 -2 -14 23.48 2.59
1 -2 -14 18.35 2.48
1 -2 -14 18.5 2.39
-1 2 14 20.13 2.41
1 -2 -13 239.85 9.88
1 -2 -13 211.65 9.54
1 -2 -13 224.14 9.87
-1 2 13 237.9 9.87
1 -2 -13 234.83 10.46
-1 2 13 257.82 10.1
1 -2 -12 29.58 3.29
1 -2 -12 32.29 3.11
1 -2 -12 29.36 3.07
-1 2 12 36.51 3.27
-1 2 12 31.99 3.12
1 -2 -12 31.65 3.07
1 -2 -11 12.92 2
-1 2 11 13.8 2.14
1 -2 -11 10.57 1.89
1 -2 -11 12.11 1.82
-1 2 11 11.78 1.86
1 -2 -11 19.27 2.61
-1 2 11 11.62 1.78
-1 2 11 12.68 1.88
1 -2 -11 10.99 1.8
1 -2 -11 11.68 1.99
-1 2 10 1.3 0.81
-1 2 10 0.71 0.82
1 -2 -10 3.28 1.04
-1 2 10 2.71 0.84
1 -2 -10 3.12 0.92
1 -2 -10 2.5 1.04
1 -2 -9 119.12 5.97
-1 2 9 116.4 5.54
-1 2 9 118.93 6.12
1 -2 -9 110.44 5.36
1 -2 -8 28.77 2.56
1 -2 -8 30.52 2.49
-1 2 8 33.15 2.82
-1 2 8 33 2.49
1 -2 -7 0.67 0.47
-1 2 7 2.39 0.63
1 -2 -7 1.09 0.58
-1 2 7 0.36 0.46
-1 2 7 2.13 0.56
-1 2 6 250.52 9.04
1 -2 -6 247.78 8.6
1 -2 -6 247.43 8.7
-1 2 6 253.4 7.95
-1 2 6 254.15 8.22
-1 2 5 1867.71 46.2
-1 2 5 1823.1 46.18
1 -2 -5 1780.9 46.68
1 -2 -5 1848.48 47.1
-1 2 5 1807.92 47.34
1 -2 -4 101.04 4.18
1 -2 -4 107.52 4.56
-1 2 4 104.04 4.03
-1 2 4 100.07 3.8
-1 2 4 100.48 4.64
-1 2 3 1428.75 38.03
1 -2 -3 1517.99 37.73
-1 2 3 1441.44 36.54
1 -2 -3 1453.2 37.15
-1 2 3 1451.01 37.04
1 -2 -2 96.98 4.02
-1 2 2 92.51 4.29
1 -2 -2 90.24 3.57
-1 2 2 85.41 3.57
-1 2 2 89.43 3.09
1 -2 -1 3965.59 99.45
1 -2 -1 4080.08 100.1
-1 2 1 4081.02 100.86
-1 2 1 4123.41 99.84
-1 2 0 13.81 1.23
1 -2 0 12.25 1.29
1 -2 0 12.6 1.2
1 -2 0 12.65 1.06
-1 2 0 14.25 1.02
-1 2 -1 176.64 6.03
-1 2 -1 182.04 5.63
1 -2 1 180.16 5.94
1 -2 1 176.32 6.29
1 -2 2 818.19 21.78
1 -2 2 789.86 20.99
-1 2 -2 812.83 21.05
-1 2 -2 795.01 21.48
1 -2 3 289.92 8.48
-1 2 -3 292.01 8.87
-1 2 -3 300.47 9.32
1 -2 3 310.57 9.48
1 -2 4 294.03 8.2
-1 2 -4 292.18 9.42
-1 2 -4 284.28 8.98
1 -2 4 297.17 9.37
1 -2 5 304.07 9.84
1 -2 5 321.73 9.86
-1 2 -5 298.82 9.49
-1 2 -5 309.96 9.71
-1 2 -5 320.24 10.08
1 -2 6 67.97 3.42
-1 2 -6 65.75 3.45
-1 2 -6 63.19 3.14
1 -2 6 68.16 3.49
-1 2 -6 61.17 3.36
-1 2 -7 95.92 4.61
1 -2 7 91.45 4.31
-1 2 -7 106.93 4.34
1 -2 7 94.23 4.47
-1 2 -7 95.31 4.28
1 -2 8 75.61 4.21
1 -2 8 71.04 3.76
-1 2 -8 75.64 4.19
-1 2 -9 132.45 6.3
1 -2 9 131.62 6.24
1 -2 9 136.66 5.73
1 -2 10 600.08 19.3
-1 2 -10 673.86 20.11
1 -2 11 33.02 3
-1 2 -11 35.32 3.76
1 -2 11 36.48 3.25
-1 2 -11 37.9 3.22
-1 2 -11 37.79 3.4
1 -2 11 40.95 3.33
1 -2 11 35.13 3.16
-1 2 -12 9 1.88
1 -2 12 6.43 1.37
1 -2 12 7.84 1.49
1 -2 12 7.08 1.42
1 -2 12 8.38 1.58
-1 2 -12 7.26 1.46
-1 2 -13 75.96 5.59
-1 2 -13 69.13 4.61
1 -2 13 66.02 4.51
1 -2 13 69.73 4.56
1 -2 13 65.36 4.57
-1 2 -13 67.98 5.43
1 -2 14 125.44 6.62
1 -2 14 127.24 6.56
-1 2 -14 139.4 7.85
-1 2 -14 141.86 7.93
1 -2 14 123.16 6.3
-1 2 -14 128.27 6.41
1 -2 15 88.75 5.12
-1 2 -15 78.06 4.68
-1 2 -15 91.29 5.93
1 -2 15 89.21 5.13
-1 2 -15 94.63 6.11
1 -2 15 84.81 4.76
-1 2 -16 1.17 1.04
-1 2 -16 0.55 0.5
1 -2 16 0.2 0.38
1 -2 16 0.27 0.58
-1 2 -16 0.56 0.87
-1 2 -17 5.26 1.17
1 -2 17 4.25 0.91
1 -2 17 4.49 0.85
-1 2 -17 2.4 0.79
-1 2 -17 4.34 0.86
-1 2 -17 4.82 1.22
1 -2 18 156.8 5.68
-1 2 -18 145.9 5.54
-1 2 -18 143.6 5.09
-1 2 -18 153.31 5.9
1 -1 -18 2.72 0.75
-1 1 18 2 0.6
1 -1 -18 0.99 0.48
-1 1 17 93.1 4.71
1 -1 -17 105.01 5.05
1 -1 -17 95.19 4.74
1 -1 -17 110.7 5.24
1 -1 -17 99.49 4.74
1 -1 -16 3.49 0.95
1 -1 -16 4.37 1.07
-1 1 16 5.18 1.21
1 -1 -16 5.6 1.24
1 -1 -15 30.78 2.93
-1 1 15 26.21 2.67
-1 1 15 32.04 2.57
1 -1 -15 30.8 3.27
1 -1 -15 32.54 2.93
1 -1 -15 28.08 2.88
1 -1 -14 214.79 8.91
-1 1 14 208.43 8.82
1 -1 -14 192.65 8.76
1 -1 -14 220.74 9.99
-1 1 14 201.49 8.08
-1 1 14 203.02 8.76
1 -1 -14 182.26 8.68
1 -1 -13 85.8 5.18
1 -1 -13 97.44 6.19
1 -1 -13 86.39 5.36
1 -1 -13 81.05 5.21
-1 1 13 89.07 5.25
-1 1 13 83.01 5.19
-1 1 13 87.81 4.79
-1 1 12 741 23.66
-1 1 12 751.7 23.4
-1 1 12 802.24 23.41
-1 1 12 817.64 23.9
1 -1 -12 789.12 23.34
1 -1 -12 791.01 24.69
-1 1 12 782.48 22.57
1 -1 -12 761.16 23.61
1 -1 -12 720.75 23.25
1 -1 -12 787.49 24.29
-1 1 11 202.37 8.34
-1 1 11 183.82 8.09
1 -1 -11 183.08 8.15
1 -1 -11 189.84 8.01
1 -1 -11 198.48 8.7
1 -1 -11 195.89 8.95
-1 1 11 181.38 8.26
1 -1 -11 184.17 8.27
-1 1 11 175.9 7.83
-1 1 10 449.05 14.98
1 -1 -10 439.83 14.95
-1 1 10 463.82 14.72
1 -1 -9 5.48 1.16
-1 1 9 8.65 1.33
-1 1 9 7.08 1.31
1 -1 -8 466.71 14.54
-1 1 8 486.34 14.68
1 -1 -8 444.19 13.52
-1 1 8 488.37 14.27
1 -1 -7 165.18 6.35
-1 1 7 165.32 6.06
-1 1 7 160.4 6.29
1 -1 -7 159.72 5.5
1 -1 -7 148.24 5.65
-1 1 6 13.88 1
-1 1 6 13.44 1.41
1 -1 -6 14.85 1.47
1 -1 -6 15.74 1.37
1 -1 -6 13.42 1.09
-1 1 6 15.47 1.4
1 -1 -5 184.89 5.84
-1 1 5 190.33 6.68
-1 1 5 195.82 5.83
-1 1 5 198.02 6.42
1 -1 -5 205.96 5.62
1 -1 -5 198.67 6.67
1 -1 -5 193.99 6.48
-1 1 4 683.05 17.49
1 -1 -4 695.41 18.25
1 -1 -4 651.88 17.33
-1 1 4 680.35 18.33
1 -1 -4 680.52 18.16
-1 1 4 677.73 17.87
1 -1 -4 680.69 17.15
1 -1 -3 57.96 2.6
1 -1 -3 54.12 1.96
-1 1 3 55.2 2.61
-1 1 3 53.55 2.2
-1 1 3 56.84 2.33
1 -1 -2 17.03 1.19
-1 1 2 18.29 1.12
-1 1 2 16.1 1.01
-1 1 2 16.93 1.29
-1 1 1 82.61 3.03
1 -1 -1 87.01 3.32
-1 1 1 84.99 3.37
1 -1 -1 86.75 3.18
-1 1 0 806.41 20.07
1 -1 0 754.83 20.54
1 -1 1 113.03 4.07
-1 1 -1 102.22 3.48
1 -1 2 1732.23 42.29
-1 1 -2 1750.3 43.44
1 -1 2 1708.92 43.55
-1 1 -2 1719.03 42.99
-1 1 -3 304.72 8.9
1 -1 3 295.05 7.92
-1 1 -3 298.76 8.53
1 -1 3 291.49 8.75
-1 1 -4 4623.04 109.94
1 -1 4 4468.52 109.97
1 -1 4 4491.2 109.27
-1 1 -4 4450.89 109.84
-1 1 -4 4350.13 110.04
1 -1 5 108.74 4.15
-1 1 -5 111 4.07
1 -1 5 105.71 3.91
1 -1 5 103.36 3.73
-1 1 -5 104.67 4.03
-1 1 -5 107.7 4.18
1 -1 6 322.35 9.71
1 -1 6 305.91 9.3
-1 1 -6 315.81 9.35
1 -1 6 315.2 9.3
-1 1 -6 332.25 9.65
-1 1 -6 327.04 9.88
1 -1 7 69.79 3.11
1 -1 7 71.32 3.39
1 -1 7 69.38 3.23
-1 1 -7 73.28 3.4
-1 1 -7 71.79 3.57
-1 1 -8 274.51 8.68
1 -1 8 256.08 8.19
1 -1 8 273.83 8.84
1 -1 8 258.73 8.6
-1 1 -8 269.48 9.14
-1 1 -9 23.3 1.88
-1 1 -9 24.74 2.23
1 -1 9 24.36 2.03
1 -1 9 22.77 1.96
1 -1 9 23.12 2.04
1 -1 10 691.26 20.18
1 -1 10 679.39 20.24
-1 1 -10 738.11 21.08
1 -1 11 31.21 2.65
1 -1 11 31.92 2.68
-1 1 -11 31.18 2.87
1 -1 12 63.72 4.27
-1 1 -12 60.02 4.79
1 -1 12 63.66 4.12
1 -1 12 59.07 4.14
-1 1 -12 66.43 5.12
-1 1 -12 66.89 4.51
-1 1 -12 66.11 4.46
1 -1 13 169.23 7.81
1 -1 13 166.39 7.44
-1 1 -13 173.26 7.92
1 -1 13 160.62 7.59
-1 1 -13 186.31 9.2
-1 1 -13 178.54 9.09
-1 1 -14 55.59 4.69
1 -1 14 52.29 3.97
-1 1 -14 56.49 4.81
-1 1 -14 50.21 3.83
1 -1 14 51.6 3.66
1 -1 14 52.73 3.88
-1 1 -15 0.96 0.94
1 -1 15 0.26 0.57
1 -1 15 0.41 0.74
-1 1 -15 0.03 0.69
1 -1 15 -0.32 0.64
-1 1 -15 2.03 1.4
1 -1 16 200.06 8.41
-1 1 -16 234.85 10.17
1 -1 16 187.45 7.49
-1 1 -16 215.11 9.4
-1 1 -16 189.19 8.14
-1 1 -16 219.27 9.49
-1 1 -17 1.7 1.07
1 -1 17 2.36 0.73
-1 1 -17 1.39 0.73
-1 1 -17 1.25 0.72
-1 1 -17 3.03 0.87
-1 1 -18 16.62 2
-1 1 -18 16.23 1.88
-1 1 -18 12.48 1.5
-1 1 -18 13.29 1.46
1 -1 18 11.56 1.29
1 -1 18 13.49 1.53
1 -1 19 28 1.93
-1 1 -19 32.88 2.29
-1 0 18 23.9 1.67
1 0 -18 25.8 2.09
1 0 -18 24.34 1.89
1 0 -17 197.91 7.69
1 0 -17 204.39 8
1 0 -17 212.47 8.19
-1 0 17 189.78 7.21
1 0 -17 201.96 7.38
1 0 -16 113.57 5.86
-1 0 16 117.93 5.69
1 0 -16 114.61 5.53
1 0 -16 123.88 6.18
1 0 -16 125.73 6.64
-1 0 16 116.46 5.52
-1 0 15 8.48 1.48
1 0 -15 10.55 1.84
1 0 -15 8.3 1.62
1 0 -15 8.74 1.79
-1 0 15 10.7 1.66
1 0 -15 9.55 1.55
-1 0 14 165.12 7.32
1 0 -14 164.81 7.41
1 0 -14 166.65 8.57
1 0 -14 161.46 7.8
-1 0 14 159.25 7.31
1 0 -14 143.38 7.39
-1 0 13 43.58 3.41
1 0 -13 41.84 3.4
-1 0 13 40.56 3.29
1 0 -13 43.36 3.63
1 0 -13 48.19 3.84
-1 0 12 120.84 6.04
-1 0 12 121.27 5.99
1 0 -12 121.66 6.4
1 0 -12 129.91 6.79
1 0 -12 110.64 6.11
1 0 -12 125.13 6.19
-1 0 12 126.45 6.6
1 0 -11 102.75 5.42
1 0 -11 90.32 5.22
1 0 -11 104.57 5.71
-1 0 11 102.34 5.51
-1 0 11 88.27 5.19
-1 0 10 58.06 3.82
1 0 -10 60.99 3.77
1 0 -10 60.42 3.96
-1 0 10 61.33 3.85
-1 0 9 356.2 11.98
1 0 -9 356.3 12.11
1 0 -9 365.74 11.79
-1 0 9 388.91 12.16
-1 0 8 203.73 7.41
1 0 -8 196.65 7.47
-1 0 8 213.1 7.46
1 0 -8 187.87 7.03
1 0 -7 4.07 0.74
1 0 -7 6.15 0.71
-1 0 7 4.97 0.87
-1 0 7 4.38 0.64
-1 0 7 2.66 0.67
-1 0 6 38.29 1.86
-1 0 6 35.92 2.18
1 0 -6 35.07 2.08
1 0 -6 35.92 1.81
1 0 -6 35.93 2.27
-1 0 6 39.01 2.29
-1 0 5 706.89 16.92
1 0 -5 690.61 16.29
1 0 -5 700.05 17.06
-1 0 5 726.25 16.95
1 0 -5 699.25 16.69
-1 0 5 743.1 16.33
-1 0 4 832.6 21.36
-1 0 4 856.19 20.95
1 0 -4 835.04 21.59
-1 0 4 802.84 20.42
-1 0 4 840.42 21.43
1 0 -4 820.23 21.26
-1 0 3 151.59 4.51
1 0 -3 165.39 5.09
-1 0 3 155.51 4.33
-1 0 3 152.8 4.75
1 0 -2 6.54 0.65
-1 0 2 5.44 0.57
-1 0 2 6.04 0.54
-1 0 2 7.3 0.55
-1 0 2 6.31 0.51
-1 0 1 31.05 1.23
-1 0 1 31.5 1.33
-1 0 1 29.8 1.27
1 0 -1 29.09 1.34
1 0 -1 31.63 1.48
1 0 0 619.44 15.33
-1 0 0 592.79 15.32
1 0 0 585.09 15.53
-1 0 -1 925.76 22.45
1 0 1 855.1 22.29
-1 0 -2 75.14 2.69
1 0 2 79.17 2.61
-1 0 -2 82.37 2.25
-1 0 -2 73.1 2.52
-1 0 -2 79.41 2.77
1 0 2 82.6 2.72
-1 0 -3 1.83 0.39
-1 0 -3 0.84 0.29
-1 0 -3 0.89 0.23
-1 0 -3 0.97 0.31
1 0 3 0.73 0.26
1 0 4 904.99 23.67
-1 0 -4 879.23 23.27
-1 0 -4 893.11 23.76
1 0 4 969.3 23.89
1 0 4 998.58 23.94
-1 0 -4 1002.5 24
1 0 5 2386.31 57.61
-1 0 -5 2250.92 57.52
-1 0 -5 2354.14 57.63
-1 0 -5 2162.66 56.8
1 0 5 2291.57 57.5
1 0 5 2392.25 57.68
1 0 6 113.33 4.23
1 0 6 118.16 4.39
1 0 6 111.69 3.57
-1 0 -6 116.16 4.36
-1 0 -6 111.42 4.27
-1 0 -6 121.09 4.44
1 0 6 113 4.26
-1 0 -6 110.77 3.61
1 0 7 2676.6 64.34
1 0 7 2521.54 62.82
-1 0 -7 2509.25 62.92
-1 0 -7 2610.32 64.26
1 0 7 2578.37 64.13
-1 0 -7 2647.59 64.18
1 0 7 2544.08 63.93
-1 0 -7 2550.2 64.1
1 0 8 57.93 2.96
-1 0 -8 52.37 2.91
-1 0 -8 60.98 3.25
1 0 8 60.74 3.16
-1 0 -8 51.89 2.99
1 0 9 150.46 6.04
-1 0 -9 158.89 6.29
1 0 9 142.21 5.69
-1 0 -9 150.9 5.84
-1 0 -9 147.78 6.02
-1 0 -10 3.82 0.92
1 0 10 2.24 0.67
1 0 10 3.36 0.89
1 0 10 2.62 0.67
-1 0 -10 1.4 0.57
-1 0 -11 89.35 4.9
-1 0 -11 94.73 4.66
1 0 11 86.81 4.77
1 0 11 87.33 4.47
1 0 12 85.01 4.89
-1 0 -12 86.99 5.08
1 0 12 82.1 4.89
1 0 12 85.53 4.76
-1 0 -12 92.64 5.77
-1 0 -12 89.38 5.66
-1 0 -12 94.33 5.26
1 0 13 20.72 2.36
1 0 13 20.18 2.21
-1 0 -13 20.59 2.79
-1 0 -13 21.35 2.82
1 0 13 22.07 2.34
1 0 13 22.98 2.6
-1 0 -13 18.6 2.29
-1 0 -13 23.65 2.65
-1 0 -14 50.31 4.31
-1 0 -14 46.9 4.37
1 0 14 47.59 3.49
-1 0 -14 52.39 4.25
-1 0 -14 46.48 3.72
1 0 14 45.68 3.45
1 0 14 52.91 3.87
-1 0 -15 288.25 12.07
-1 0 -15 262.97 11.16
-1 0 -15 271.91 11.29
1 0 15 259.93 9.87
1 0 15 258.04 10.24
-1 0 -15 255.01 10.41
1 0 16 101.82 5.48
1 0 16 98.8 5.14
-1 0 -16 100.85 5.92
-1 0 -16 102.13 5.62
-1 0 -16 104.82 6.21
-1 0 -16 112.52 6.74
-1 0 -17 6.19 1.31
-1 0 -17 4.75 1.37
1 0 17 5.06 1.12
-1 0 -17 5.2 1.11
-1 0 -17 6.69 1.59
-1 0 -18 14.33 1.65
-1 0 -18 14.54 2
-1 0 -18 15.57 1.74
1 0 18 14.93 1.63
-1 0 -18 16.01 1.99
1 0 19 0.15 0.38
-1 0 -19 -0.22 0.63
-1 0 -19 0.45 0.39
-1 0 -19 1.37 0.65
1 1 -18 179.61 6.5
-1 -1 18 190.26 6.6
1 1 -17 20.19 1.98
1 1 -17 21.48 2.12
1 1 -17 21.09 2.13
-1 -1 17 20.38 1.94
-1 -1 16 147.14 6.51
1 1 -16 143.92 6.7
1 1 -16 146.28 6.85
1 1 -16 168.08 7.8
1 1 -16 145.82 6.09
1 1 -15 1.24 0.81
1 1 -15 0.45 0.76
1 1 -15 1.43 1.03
-1 -1 15 1.15 0.7
1 1 -15 0.73 0.69
-1 -1 14 276.14 10.42
-1 -1 14 265.06 9.72
1 1 -14 244.01 10.38
1 1 -14 255.04 10.48
1 1 -14 269.48 9.98
-1 -1 13 4.54 1.16
1 1 -13 4.45 1.25
1 1 -13 3.43 1
1 1 -13 5.08 1.3
-1 -1 13 5.57 1.21
1 1 -12 467.54 15.07
1 1 -12 434.21 15.4
-1 -1 12 463.43 14.75
1 1 -12 437.23 15.47
-1 -1 12 473.06 15.36
1 1 -12 472.32 16
1 1 -11 24.27 2.51
-1 -1 11 26.1 2.49
1 1 -11 22.37 2.43
1 1 -11 25.49 2.63
-1 -1 10 265.03 10.03
1 1 -10 259.85 9.79
1 1 -10 264.46 9.9
1 1 -9 6.95 1.23
1 1 -9 6.21 1.12
-1 -1 9 5.36 0.89
-1 -1 9 5.59 1.14
1 1 -8 161.1 6.43
-1 -1 8 155.45 5.89
-1 -1 8 164.52 5.84
1 1 -8 167.19 6.54
-1 -1 8 180.47 6.73
-1 -1 8 165.84 5.74
-1 -1 7 258.01 8.39
1 1 -7 263.58 8.82
-1 -1 7 281.77 8.46
-1 -1 7 268.5 8.28
-1 -1 7 277.89 8.98
1 1 -7 272.49 8.96
-1 -1 6 2597.93 63.32
1 1 -6 2487.94 63.73
1 1 -6 2516.7 63.85
-1 -1 6 2582.63 62.5
-1 -1 6 2543.15 63.43
-1 -1 6 2576.4 63.87
-1 -1 6 2467.17 63.32
-1 -1 6 2547 63.68
-1 -1 5 204.98 6.47
-1 -1 5 205.11 6.4
-1 -1 5 205.41 6.43
1 1 -5 202.98 6.52
1 1 -5 209.55 6.68
-1 -1 5 212.23 6.69
-1 -1 5 208.96 5.62
1 1 -5 188.86 5.33
-1 -1 5 209.42 6.35
-1 -1 4 130.37 4.36
1 1 -4 128.11 4.39
-1 -1 4 131.64 4.41
-1 -1 4 131.28 4.41
-1 -1 4 128.48 4.54
-1 -1 4 128.73 4.39
1 1 -4 124.71 4.51
1 1 -3 26.56 1.44
1 1 -3 28.6 1.6
-1 -1 3 27.9 1.56
-1 -1 3 26.59 1.49
-1 -1 2 516 14.02
-1 -1 2 530.92 14.06
1 1 -2 526.59 13.91
1 1 -1 143.39 4.12
-1 -1 1 150.16 4.38
-1 -1 1 140.34 4.06
-1 -1 0 2682.92 60.15
-1 -1 0 2300.23 60.42
-1 -1 0 2362.93 60.35
1 1 0 2401.06 60.07
-1 -1 0 2565.15 60.57
-1 -1 -1 57.85 2.12
-1 -1 -1 62.28 2.19
-1 -1 -1 61.18 2.07
-1 -1 -1 59.19 2.15
1 1 1 60.36 1.82
-1 -1 -2 394.21 10.33
-1 -1 -2 431.19 10.8
1 1 2 401.32 10.77
-1 -1 -2 445.63 10.89
1 1 2 394.93 10.65
-1 -1 -2 383.5 10.56
1 1 2 421.87 10.5
-1 -1 -2 396.41 10.69
1 1 3 2158.53 52.76
-1 -1 -3 2191.9 52.89
-1 -1 -3 2082.51 52.81
1 1 4 434.46 5.33
-1 -1 -4 419.16 5.03
-1 -1 -4 423.27 5.24
-1 -1 -4 433.33 5.19
-1 -1 -5 357.77 10.18
1 1 5 367.33 10.46
-1 -1 -5 367.7 10.38
-1 -1 -5 390.02 10.67
-1 -1 -5 351.61 10.16
1 1 5 370.14 10.43
-1 -1 -6 1868.54 46.46
-1 -1 -6 1808.54 46.49
1 1 6 1881.45 46.86
-1 -1 -6 1839.58 46.79
1 1 6 1837.4 46.85
-1 -1 -6 1906.31 47
1 1 7 16.72 1.5
1 1 7 15.37 1.46
-1 -1 -7 13.22 1.35
-1 -1 -7 15.81 1.27
-1 -1 -7 18.32 1.45
-1 -1 -7 14.75 1.44
-1 -1 -8 53.43 2.64
-1 -1 -8 47.67 2.71
-1 -1 -8 50.53 2.97
-1 -1 -8 50.46 2.92
1 1 8 48.02 2.86
1 1 8 46.26 2.83
1 1 9 1289.68 34.03
-1 -1 -9 1311.32 34.29
-1 -1 -9 1278.87 32.87
1 1 9 1225.33 33.64
1 1 9 1292.63 34.02
-1 -1 -9 1289.59 34
-1 -1 -9 1257.61 33.69
-1 -1 -10 366.36 11.92
1 1 10 333.95 11.46
1 1 10 347.52 11.83
1 1 10 358.97 11.94
-1 -1 -10 387.84 12.43
-1 -1 -10 366.99 11.78
1 1 11 65.68 4.1
-1 -1 -11 68.15 4.03
1 1 11 60.71 3.77
1 1 11 65.45 4.07
-1 -1 -11 73.31 4.51
-1 -1 -12 0.8 0.62
1 1 12 0.39 0.44
1 1 12 0.95 0.9
-1 -1 -12 -0.12 0.67
-1 -1 -12 0.07 0.79
1 1 12 0.77 0.57
-1 -1 -12 0.5 0.69
1 1 12 0.72 0.63
-1 -1 -12 1.24 0.54
1 1 13 19.25 2.26
1 1 13 20.11 2.23
-1 -1 -13 19.15 2.43
-1 -1 -13 17.94 2.6
-1 -1 -13 18.7 2.43
-1 -1 -13 22.99 2.47
1 1 13 17.72 2.23
1 1 13 19.82 2.2
-1 -1 -14 33.74 3.33
1 1 14 32.64 2.93
1 1 14 29.47 2.82
-1 -1 -14 35.19 3.22
-1 -1 -14 31.91 3.29
-1 -1 -14 27.8 3.29
-1 -1 -15 0.44 0.86
1 1 15 0.88 0.66
-1 -1 -15 0.94 0.97
-1 -1 -15 0.43 0.64
-1 -1 -15 0.85 0.83
1 1 15 1.26 0.74
1 1 16 17.68 2.02
-1 -1 -16 21.1 2.8
-1 -1 -16 18.48 2.31
1 1 16 17.25 2.08
-1 -1 -16 19.85 2.36
-1 -1 -16 23.96 2.81
-1 -1 -17 85.96 4.86
-1 -1 -17 104.66 6.07
-1 -1 -17 96.33 5.12
1 1 17 91.68 4.86
-1 -1 -17 100.5 5.71
1 1 17 84.61 4.53
-1 -1 -18 95.58 5.29
-1 -1 -18 75.66 4.01
-1 -1 -18 89.86 4.51
1 1 18 78.46 3.91
-1 -1 -18 87.93 4.89
1 1 18 83.26 4.21
-1 -1 -19 88.69 4.43
-1 -1 -19 80.2 3.81
-1 -1 -19 76.59 3.79
-1 -2 18 74.05 3.34
1 2 -18 77.39 3.47
1 2 -17 -0.02 0.59
1 2 -17 0.77 0.53
-1 -2 17 -0.61 0.48
1 2 -17 0.23 0.44
-1 -2 16 80.63 4.44
1 2 -16 82.28 4.59
-1 -2 16 74.83 3.9
1 2 -16 77.29 4.42
1 2 -16 83.19 4.96
1 2 -15 34.17 3.03
-1 -2 15 34.51 2.75
-1 -2 15 33.51 2.65
1 2 -15 33.08 3.01
-1 -2 15 32.05 2.86
1 2 -14 78.07 5.09
-1 -2 14 93.79 5.29
-1 -2 14 83.71 4.85
-1 -2 14 88.14 4.82
1 2 -13 553.58 18.58
-1 -2 13 564.85 17.82
-1 -2 13 598.09 18.6
-1 -2 12 427.95 14.32
-1 -2 12 416.3 13.76
1 2 -12 384.93 13.83
1 2 -12 394.33 14.34
1 2 -11 103.11 5.87
-1 -2 11 94.41 5
-1 -2 11 108.26 5.68
1 2 -11 100.49 5.36
-1 -2 11 103.27 5.6
1 2 -11 100.2 5.57
-1 -2 11 95.3 5.17
-1 -2 10 1.03 0.53
1 2 -10 1.47 0.62
1 2 -10 2.32 0.85
-1 -2 9 180.12 7.16
1 2 -9 185.27 7.24
1 2 -9 185.54 7.75
-1 -2 8 41.28 2.55
1 2 -8 41.02 2.71
-1 -2 8 37.69 2.66
1 2 -8 41.25 2.97
-1 -2 7 1340.6 34.09
-1 -2 7 1247.04 34.48
1 2 -7 1374.41 34.96
1 2 -7 1366.4 35.49
-1 -2 7 1356.66 35.14
-1 -2 6 0.47 0.37
-1 -2 6 0.11 0.27
1 2 -6 0.22 0.38
-1 -2 6 -0.05 0.28
1 2 -6 0.12 0.45
-1 -2 5 1023.95 28.2
-1 -2 5 1089.57 27.99
-1 -2 5 1127.56 28.69
1 2 -5 1090.48 28.06
1 2 -5 1125.49 28.78
-1 -2 4 93.77 3.82
-1 -2 4 100.39 4.06
1 2 -4 95.08 4.03
1 2 -4 104.01 3.33
1 2 -4 99.11 3.56
-1 -2 4 102.39 3.78
1 2 -3 440.52 11.99
-1 -2 3 433.35 11.69
-1 -2 3 418.08 11.8
1 2 -3 403.12 11
1 2 -3 415.11 11.15
-1 -2 3 441.89 12.03
-1 -2 2 149.43 4.85
-1 -2 2 148.14 4.96
1 2 -2 139.57 4.35
1 2 -2 143.54 4.16
-1 -2 2 148.78 4.25
1 2 -2 152.65 4.94
-1 -2 2 142.7 4.88
-1 -2 1 1420.72 34.88
1 2 -1 1353.13 34.27
-1 -2 1 1489.57 35.45
-1 -2 1 1432.02 35.39
-1 -2 1 1438.69 35.42
1 2 -1 1376.34 34.94
1 2 -1 1488.51 35.32
-1 -2 0 311.34 8.64
-1 -2 0 316.61 8.71
-1 -2 0 293.75 8.46
-1 -2 0 295.84 8.37
1 2 1 9.08 0.79
-1 -2 -1 9.92 0.81
-1 -2 -1 9.8 0.76
-1 -2 -1 9.59 0.72
1 2 1 8.85 0.72
-1 -2 -1 8.81 0.78
-1 -2 -2 145.74 4.83
-1 -2 -2 152.33 4.72
1 2 2 152.56 4.69
-1 -2 -2 144.08 4.47
1 2 2 144.52 4.69
-1 -2 -2 151.67 4.55
-1 -2 -2 147.93 4.79
-1 -2 -3 1180.96 28.22
1 2 3 1111.9 28.15
-1 -2 -3 1121.31 28.83
1 2 3 1102.53 28.66
1 2 3 1081.74 28.65
-1 -2 -3 1164.16 28.9
1 2 4 127.81 4.54
-1 -2 -4 126.08 4.25
-1 -2 -4 134.84 4.64
1 2 4 130.07 4.56
-1 -2 -4 126.83 3.66
1 2 5 25.39 1.74
-1 -2 -5 26.21 1.75
-1 -2 -5 28.84 1.71
1 2 5 26.86 1.77
-1 -2 -5 31.31 2.03
-1 -2 -6 7.6 0.94
1 2 6 6.72 0.97
1 2 6 8.05 1.04
-1 -2 -6 6.27 0.9
-1 -2 -6 8.36 1.15
-1 -2 -6 6.99 0.71
1 2 7 158.88 6.1
1 2 7 164.95 6.15
-1 -2 -7 155.85 5.93
-1 -2 -7 181.78 6.55
-1 -2 -7 163.64 6.02
-1 -2 -8 72.03 3.75
1 2 8 73.88 3.86
1 2 8 72.42 3.8
-1 -2 -8 79.3 4.06
-1 -2 -8 75.43 3.75
-1 -2 -9 635.41 18.63
-1 -2 -9 660.66 19.18
1 2 9 660.42 19.29
1 2 9 651.76 19.14
-1 -2 -9 684.52 19.37
1 2 10 379.32 12.75
1 2 10 381.08 12.69
-1 -2 -10 388.3 12.85
-1 -2 -10 369.15 11.92
-1 -2 -10 389.72 12.71
1 2 11 1371.02 37.15
-1 -2 -11 1379.05 37.22
-1 -2 -11 1327.75 36.73
1 2 11 1287.52 36.61
1 2 11 1386.07 37.04
-1 -2 -12 244.01 10.44
-1 -2 -12 219.91 9.51
-1 -2 -12 235.89 9.49
-1 -2 -12 229.4 9.3
1 2 12 259 9.89
1 2 12 225.6 9.34
1 2 12 249.37 9.67
1 2 12 251.48 9.91
-1 -2 -12 229.46 9.88
1 2 13 12.34 1.89
-1 -2 -13 10.16 1.92
-1 -2 -13 9.83 1.73
1 2 13 11.61 1.63
-1 -2 -13 9.99 1.91
1 2 13 7.76 1.48
-1 -2 -13 12.55 1.89
1 2 13 9.58 1.71
-1 -2 -13 8.82 1.55
-1 -2 -14 122.96 6.58
-1 -2 -14 131.29 6.71
1 2 14 125 5.94
1 2 14 130.77 6.58
-1 -2 -14 140.34 7.64
1 2 14 135.86 6.6
-1 -2 -14 125.5 7.01
-1 -2 -15 34.38 3.12
1 2 15 34.35 3.05
-1 -2 -15 30.36 2.97
-1 -2 -15 32.83 3.35
1 2 15 30.99 2.93
1 2 15 32.22 2.64
-1 -2 -15 31.9 3.47
1 2 16 0.01 0.43
-1 -2 -16 0.1 0.9
-1 -2 -16 -0.03 0.69
-1 -2 -16 0.74 0.89
1 2 16 2.02 0.85
-1 -2 -16 -0.11 0.77
-1 -2 -17 0.73 0.78
-1 -2 -17 -0.16 0.81
-1 -2 -17 0.82 0.61
1 2 17 0.63 0.55
-1 -2 -17 0.97 0.55
-1 -2 -18 4.97 1.23
-1 -2 -18 4.2 0.82
-1 -2 -18 2.77 0.8
-1 -2 -18 4.29 0.99
1 2 18 4.15 0.93
-1 -2 -19 75.49 3.68
-1 -2 -19 77.13 4
1 2 19 71.65 3.45
-1 -3 17 22.3 1.75
1 3 -17 23.5 1.8
1 3 -17 19.53 1.57
-1 -3 17 18.18 1.54
-1 -3 16 26.6 2.1
1 3 -16 27.9 2.36
-1 -3 16 27.24 2.29
1 3 -16 28.21 2.34
1 3 -16 27.64 2.32
1 3 -15 45.83 3.32
-1 -3 15 40.35 3.01
-1 -3 15 49.42 3.45
-1 -3 15 45.95 3.08
1 3 -15 43.84 3.31
-1 -3 14 94.78 5.04
-1 -3 14 92.65 5.19
1 3 -14 94.67 4.99
1 3 -14 93.27 5.39
-1 -3 14 100.01 5.42
-1 -3 13 87.39 4.99
1 3 -13 93.89 5.57
1 3 -13 85.17 5.1
-1 -3 13 92.59 5.39
-1 -3 13 91.64 5.38
-1 -3 12 142.95 6.98
-1 -3 12 121.94 6.28
1 3 -12 135.94 6.87
-1 -3 11 243.1 9.95
-1 -3 11 260.44 10.28
1 3 -11 250.39 10.47
-1 -3 11 252.67 9.86
-1 -3 10 42.52 3.31
-1 -3 10 42.03 3.42
-1 -3 10 42.66 3.37
-1 -3 10 38.19 3.13
1 3 -10 42.17 3.59
-1 -3 9 353.87 12.06
-1 -3 9 373 12.76
-1 -3 9 357.55 12.56
-1 -3 9 378.92 12.73
1 3 -9 394.79 13.38
-1 -3 8 97.66 4.81
-1 -3 8 104.83 5.25
1 3 -8 107.22 5.48
1 3 -7 278.86 9.84
-1 -3 7 278.81 9.67
-1 -3 6 4.31 0.87
-1 -3 6 3.42 0.8
1 3 -6 4.55 0.98
-1 -3 5 140.68 5.68
-1 -3 5 149.86 5.97
-1 -3 5 138.95 5.15
1 3 -5 151.89 6.07
-1 -3 4 69.96 3.61
-1 -3 4 71.6 3.57
1 3 -4 71.57 3.16
-1 -3 4 75.7 3.36
1 3 -4 71.82 3.61
-1 -3 3 88.5 3.75
-1 -3 3 87.63 3.95
-1 -3 3 85.07 3.9
1 3 -3 85.42 3.79
1 3 -3 83.59 3.38
-1 -3 2 455.72 13.03
-1 -3 2 447.74 11.99
1 3 -2 422.56 12.26
-1 -3 2 465.26 12.85
-1 -3 2 445.71 12.87
1 3 -2 435.03 12.56
-1 -3 1 17.55 1.49
1 3 -1 15.56 1.26
-1 -3 1 16.78 1.42
-1 -3 1 16.37 1.36
-1 -3 1 16.64 1.19
1 3 -1 14.71 1.18
-1 -3 0 157.4 5.2
1 3 0 154.16 4.69
-1 -3 0 147.06 5.17
-1 -3 0 160.29 5.51
1 3 0 147.08 5.25
-1 -3 0 155.52 5.49
1 3 0 152.5 4.88
1 3 1 4.53 0.51
-1 -3 -1 3.44 0.63
-1 -3 -1 2.86 0.58
1 3 1 3.03 0.68
1 3 1 3.75 0.68
-1 -3 -1 2.91 0.52
1 3 1 3.7 0.5
1 3 2 581.89 14.85
-1 -3 -2 603.86 15.94
1 3 2 608.37 15.57
-1 -3 -2 586.93 16.13
1 3 2 569.24 16.32
1 3 2 605.23 16.25
-1 -3 -2 562.03 15.56
1 3 3 423.93 11.88
1 3 3 384.57 11.76
-1 -3 -3 409.59 11.21
-1 -3 -3 400.83 11.73
1 3 3 389.57 10.68
-1 -3 -3 389.92 10.96
-1 -3 -3 402.21 11.52
1 3 3 407.03 11.24
1 3 4 1064.18 28.91
-1 -3 -4 1076.69 28.62
-1 -3 -4 1086.91 27.78
1 3 4 1106.54 28.43
1 3 4 1185.4 29.1
-1 -3 -4 1079.1 28.9
-1 -3 -5 2085.79 53.48
-1 -3 -5 2056.08 52.74
1 3 5 2136.97 53.32
1 3 5 2015.36 53.69
-1 -3 -5 2115.22 53.76
-1 -3 -6 524.86 15.15
-1 -3 -6 554.92 15.84
1 3 6 537.5 15.97
1 3 6 572.4 15.91
1 3 6 543.08 15.6
-1 -3 -6 542.92 15.96
-1 -3 -7 190.31 7.08
1 3 7 182.65 6.73
-1 -3 -7 178.97 6.54
1 3 7 180.26 7.08
1 3 7 181.17 6.83
-1 -3 -7 181.87 7.06
-1 -3 -8 27.1 2.19
1 3 8 27.34 2.4
1 3 8 25.66 2.06
1 3 8 29.66 2.37
-1 -3 -8 28.56 2.41
-1 -3 -8 26.82 2.31
1 3 9 27.01 2.53
1 3 9 25.35 2.1
-1 -3 -9 27.38 2.37
1 3 9 29.48 2.51
-1 -3 -9 29.49 2.56
-1 -3 -9 24.84 2.31
-1 -3 -10 56.84 3.77
1 3 10 59.31 4.01
1 3 10 61.31 3.91
-1 -3 -10 57.78 3.9
-1 -3 -10 47.95 3.4
-1 -3 -11 203.02 8.36
1 3 11 218.1 9.21
-1 -3 -11 218.93 8.91
-1 -3 -11 211.34 9.66
1 3 11 212.18 8.75
-1 -3 -11 230.43 8.72
1 3 11 220.81 8.97
-1 -3 -11 210.38 9
-1 -3 -11 232.46 9.17
-1 -3 -11 205.6 9.33
1 3 12 36 3.35
-1 -3 -12 39.05 3.7
-1 -3 -12 38.37 3.74
1 3 12 36.42 3.15
-1 -3 -12 34.73 3.21
-1 -3 -12 36.46 3.21
1 3 12 40.85 3.4
1 3 13 17.11 2.15
-1 -3 -13 19.18 2.6
-1 -3 -13 14.62 2.07
-1 -3 -13 19.34 2.33
1 3 13 18.04 2.24
-1 -3 -13 19.25 2.63
1 3 14 34.24 3.07
-1 -3 -14 24.44 2.64
-1 -3 -14 35.27 3.59
-1 -3 -14 28.85 2.89
1 3 14 36.53 3.18
-1 -3 -14 38.32 3.56
-1 -3 -15 0.22 0.47
-1 -3 -15 -0.83 0.69
1 3 15 0.03 0.56
-1 -3 -15 -0.34 0.64
-1 -3 -15 -0.11 0.85
1 3 15 -0.1 0.53
1 3 16 449.54 14.42
-1 -3 -16 466.74 15.39
-1 -3 -16 435.71 14.52
-1 -3 -16 462.54 15.69
1 3 16 445.28 14.6
-1 -3 -17 53.87 3.88
1 3 17 43.87 3.03
-1 -3 -17 48.15 3.42
-1 -3 -17 48.66 3.3
1 3 17 45.33 3.11
-1 -3 -17 39 2.67
-1 -3 -18 4.54 1.03
-1 -3 -18 5.37 1.02
-1 -3 -18 5.49 1
1 3 18 5.9 0.98
-1 -3 -19 8.68 1.12
1 3 19 6.37 0.85
1 4 -16 10.35 1.14
1 4 -16 8.93 1.07
-1 -4 16 9.44 1.08
-1 -4 15 30.16 2.26
1 4 -15 30.6 2.38
1 4 -15 27.98 2.26
-1 -4 15 29.27 2.33
-1 -4 15 31.33 2.28
-1 -4 15 24.94 1.95
-1 -4 14 10.56 1.51
1 4 -14 10.21 1.58
1 4 -14 9.77 1.36
-1 -4 14 10.64 1.46
-1 -4 14 7.65 1.33
-1 -4 13 64.39 4.13
-1 -4 13 61.37 3.98
-1 -4 13 65.88 4.36
1 4 -13 64.89 4.33
1 4 -13 62.64 4.12
1 4 -12 1.97 0.97
-1 -4 12 1.32 0.84
-1 -4 12 2.73 1.09
-1 -4 12 1.27 0.64
-1 -4 11 17.42 2.23
-1 -4 11 17.9 2.2
-1 -4 11 17.27 2.36
-1 -4 11 17.09 2.05
-1 -4 10 238.98 9.63
-1 -4 10 229.09 9.34
-1 -4 10 221.23 9.08
-1 -4 10 238.55 10.05
-1 -4 10 215.89 9.14
-1 -4 9 1302.82 35.21
-1 -4 9 1248.79 34.67
-1 -4 9 1156.66 34.22
-1 -4 9 1274.31 34.89
-1 -4 9 1332.25 36.01
-1 -4 9 1222.93 34.61
-1 -4 8 749.25 22.15
-1 -4 8 747.12 22
-1 -4 8 732.6 23.54
-1 -4 8 761.91 22.23
-1 -4 8 668.54 21.55
-1 -4 8 751.13 22.44
1 4 -8 776.18 22.76
-1 -4 7 1085.36 30.15
-1 -4 7 1040.04 29.76
-1 -4 7 990.5 29.33
1 4 -7 1139.03 30.42
-1 -4 6 17.87 2.07
-1 -4 6 15.55 1.86
1 4 -6 16.61 1.98
-1 -4 5 422.32 13.85
-1 -4 5 443.77 14.15
1 4 -5 444.28 13.97
1 4 -4 273.45 9.4
-1 -4 4 273.55 9.72
-1 -4 4 276.31 9.74
-1 -4 3 14.43 1.67
-1 -4 3 17.19 1.76
1 4 -3 16.8 1.6
1 4 -3 15.19 1.56
1 4 -2 37.73 2.42
-1 -4 2 35.74 2.63
-1 -4 2 34.55 2.46
1 4 -2 39.26 2.41
-1 -4 1 151.75 5.55
-1 -4 1 156.74 6.26
1 4 -1 152.16 5.86
-1 -4 1 144.39 5.8
1 4 -1 169.18 5.73
1 4 0 18.53 1.97
1 4 0 18.29 1.67
-1 -4 0 20.87 1.84
-1 -4 0 18.48 1.59
-1 -4 0 17.62 1.54
1 4 1 231.33 8.01
-1 -4 -1 234.16 8.01
-1 -4 -1 222.57 7.48
-1 -4 -1 235.23 7.89
1 4 1 227.35 8.56
1 4 2 117.37 5.49
-1 -4 -2 123.29 4.72
-1 -4 -2 126.46 5.07
1 4 2 124.51 5.23
-1 -4 -2 121.4 5.13
1 4 3 112.63 4.91
1 4 3 107.59 5.15
-1 -4 -3 103.35 4.79
-1 -4 -3 104.06 4.38
1 4 4 81.53 4.42
-1 -4 -4 81.22 3.54
1 4 4 89.67 4.37
-1 -4 -4 88.89 4.39
1 4 5 200.36 7.94
1 4 5 214.84 7.93
1 4 5 202.94 6.94
-1 -4 -5 193.39 7.74
-1 -4 -6 2.69 0.85
1 4 6 2.24 0.71
1 4 6 2.52 0.63
1 4 6 3.53 0.97
1 4 7 699.11 20.21
1 4 7 663 20.57
1 4 7 680.34 19.57
-1 -4 -7 704.19 20.71
-1 -4 -8 629.96 18.93
1 4 8 576.51 18.78
1 4 8 595.64 18.08
1 4 8 617.76 18.03
1 4 9 1.2 0.72
-1 -4 -9 0.24 0.52
-1 -4 -9 -0.1 0.79
-1 -4 -9 -0.08 0.49
-1 -4 -9 -0.66 1.13
1 4 9 1.13 0.52
1 4 9 0.02 0.45
1 4 10 431.03 14.25
-1 -4 -10 424.68 15.39
-1 -4 -10 422.99 15.75
1 4 10 433 14.21
-1 -4 -10 419.75 14.57
1 4 10 427.65 15.08
-1 -4 -10 439.55 14.84
-1 -4 -10 417 14.71
-1 -4 -10 434.11 14.37
-1 -4 -11 232.26 9.68
-1 -4 -11 228.03 9.57
-1 -4 -11 226.8 10.13
-1 -4 -11 233.01 9.25
1 4 11 222.72 9.11
-1 -4 -11 242.55 10.72
-1 -4 -12 3.17 1.1
-1 -4 -12 0.8 0.9
1 4 12 1.37 0.57
-1 -4 -12 2.44 0.91
-1 -4 -12 2.75 1.11
-1 -4 -12 2.99 0.95
-1 -4 -13 129.08 7.12
-1 -4 -13 121.44 6.4
1 4 13 136.45 6.78
-1 -4 -13 138.71 7.64
-1 -4 -13 136.12 6.86
-1 -4 -13 139.46 6.24
1 4 13 125.16 6.32
1 4 14 62.06 4.05
-1 -4 -14 65.11 4.83
-1 -4 -14 58.49 4.4
-1 -4 -14 59.15 4.22
-1 -4 -14 61.76 4.08
1 4 14 67.88 4.39
-1 -4 -15 12.1 1.64
1 4 15 14.21 1.95
-1 -4 -15 11.81 1.8
-1 -4 -15 12.73 1.88
1 4 15 12.85 1.68
-1 -4 -15 16.25 2.28
-1 -4 -16 210.24 8.06
1 4 16 198.63 7.87
-1 -4 -16 183.17 7.17
1 4 16 199.2 7.6
-1 -4 -16 208.33 8.62
1 4 17 104.6 4.66
-1 -4 -17 119.12 5.41
1 4 17 104.38 4.56
-1 -4 -18 1.84 0.63
1 4 18 2.22 0.55
-1 -5 15 -0.05 0.28
-1 -5 14 21.83 1.86
-1 -5 14 25.95 2.06
1 5 -14 23.75 1.69
1 5 -14 22.37 1.9
-1 -5 13 373.42 12.19
1 5 -13 364.65 12.06
1 5 -13 357.97 11.68
-1 -5 13 361.11 11.85
-1 -5 12 0.32 0.48
1 5 -12 0.36 0.54
-1 -5 12 0.87 0.57
-1 -5 12 0.98 0.56
1 5 -11 54.19 4.08
-1 -5 11 54.04 3.78
-1 -5 11 53.26 3.97
-1 -5 11 52.38 3.62
-1 -5 10 12.01 1.82
-1 -5 10 11.96 1.91
-1 -5 10 10.09 1.66
-1 -5 9 11.44 1.79
-1 -5 9 11.37 1.68
-1 -5 9 12.13 1.79
-1 -5 9 12.3 2
-1 -5 8 50.33 4.1
-1 -5 8 47.68 3.5
-1 -5 8 48.32 3.68
-1 -5 8 48.8 3.74
-1 -5 7 41.23 3.42
-1 -5 7 38.64 3.65
-1 -5 7 38.99 3.58
-1 -5 7 39.3 3.23
-1 -5 7 34.21 3
-1 -5 6 604.09 19.13
-1 -5 6 589.64 18.68
-1 -5 6 593.56 18.65
-1 -5 6 607.39 19.2
-1 -5 6 585.11 19.17
-1 -5 6 637.75 20.16
-1 -5 6 635.47 20.08
-1 -5 6 572.03 18.81
-1 -5 5 216.6 9.09
-1 -5 5 220.23 8.74
-1 -5 5 231.89 9.82
-1 -5 5 225.79 9.05
-1 -5 5 229.01 9.32
-1 -5 5 234.28 9.94
-1 -5 5 200.99 8.91
-1 -5 5 211.99 8.98
-1 -5 4 264.96 10.04
-1 -5 4 263.6 9.97
-1 -5 4 231.72 9.57
-1 -5 4 258.35 10.54
-1 -5 4 252.08 9.85
-1 -5 4 227.74 9.48
-1 -5 3 179.76 7.7
-1 -5 3 187.33 7.92
-1 -5 2 624.27 18.92
1 5 -2 590.74 19.61
-1 -5 2 595.12 18.45
1 5 -2 643.01 18.66
1 5 -1 1.06 0.74
-1 -5 1 1.84 0.8
1 5 -1 1.35 0.59
-1 -5 1 0.84 0.54
-1 -5 0 440.13 14.38
1 5 0 436.21 14.21
1 5 0 433.85 15.25
-1 -5 0 480.3 14.07
1 5 1 135.98 6.95
-1 -5 -1 145.6 6.36
1 5 1 150.21 6.51
-1 -5 -1 149.36 6.33
1 5 2 501.03 16.45
1 5 2 498.52 15.66
-1 -5 -2 491.66 15.17
-1 -5 -2 486.33 15.47
1 5 3 0.96 0.69
-1 -5 -3 1.21 0.6
1 5 3 0.63 0.7
1 5 4 99.33 5.19
-1 -5 -4 88.44 4.99
1 5 4 85.95 5.23
1 5 5 2.33 0.87
-1 -5 -5 2.51 0.85
1 5 5 1.45 0.77
1 5 6 39.11 3.5
-1 -5 -6 48.73 3.92
-1 -5 -6 47.2 3.67
-1 -5 -6 45.33 3.4
-1 -5 -6 49.53 4.21
-1 -5 -6 43.41 3.53
1 5 6 51.24 3.75
-1 -5 -6 49.33 3.76
1 5 7 67.26 4.7
-1 -5 -7 70.6 5.2
1 5 7 74.82 4.63
-1 -5 -7 67.1 4.57
-1 -5 -7 72.57 4.94
-1 -5 -7 65.27 4.22
-1 -5 -7 64.19 4.45
-1 -5 -7 66.81 4.5
-1 -5 -7 71.96 4.8
-1 -5 -8 2.1 1.12
-1 -5 -8 1.55 0.73
-1 -5 -8 3.5 1.24
-1 -5 -8 1.8 0.91
-1 -5 -8 3.47 1.3
-1 -5 -8 1.62 0.82
1 5 8 2.15 0.83
1 5 8 4.58 1.27
-1 -5 -8 3.27 1.05
-1 -5 -9 57.64 4.11
-1 -5 -9 56.42 4.27
-1 -5 -9 64.09 4.61
-1 -5 -9 61.06 4.19
-1 -5 -9 59.9 4.46
-1 -5 -9 67.6 5.24
-1 -5 -10 211.97 9.41
-1 -5 -10 228.36 9.79
-1 -5 -10 206.93 9.24
-1 -5 -10 215.23 9.03
-1 -5 -10 231.26 10.6
-1 -5 -11 19.56 2.5
-1 -5 -11 20.47 2.8
-1 -5 -11 15.28 2.19
1 5 11 16.65 2.15
-1 -5 -11 15.67 2.03
1 5 11 14.98 1.88
-1 -5 -11 17.14 2.26
1 5 12 179.71 8.01
-1 -5 -12 179.66 8.95
-1 -5 -12 192.6 8.54
-1 -5 -12 179.54 8.1
-1 -5 -12 191.98 7.97
1 5 12 177 7.47
-1 -5 -13 162.68 7.91
-1 -5 -13 152.6 7.06
1 5 13 135.99 6.22
1 5 13 141.09 6.68
-1 -5 -13 144.13 6.4
-1 -5 -13 138.17 6.59
-1 -5 -14 7.34 1.12
-1 -5 -14 5.72 1.14
1 5 14 7.39 1.31
-1 -5 -14 7.48 1.36
-1 -5 -14 4.81 1.16
1 5 14 4.49 0.93
1 5 15 120.53 5.23
-1 -5 -15 126.32 5.27
-1 -5 -15 125.92 5.92
1 5 15 133.63 5.79
-1 -5 -16 208.74 7.65
-1 -5 -16 256.91 8.62
1 5 16 239.11 7.94
1 5 16 212.86 7.32
1 5 17 20.54 1.46
-1 -5 -17 23.34 1.74
-1 -6 13 2.99 0.56
1 6 -12 153.06 5.74
1 6 -12 155.89 5.91
-1 -6 12 155.27 5.81
-1 -6 12 145.77 5.48
1 6 -11 65.18 3.77
-1 -6 11 68.49 3.65
-1 -6 11 62.05 3.63
-1 -6 11 66.78 3.66
-1 -6 10 19.73 2
-1 -6 10 22.48 2.22
-1 -6 10 20.35 2.09
-1 -6 9 3.83 1.08
-1 -6 9 4.45 1.03
-1 -6 9 3.91 0.88
-1 -6 9 4.22 1.14
-1 -6 8 264.02 10.03
-1 -6 8 272.98 10.14
-1 -6 8 289.84 10.88
-1 -6 8 275.83 10.56
-1 -6 7 90.05 5.25
-1 -6 7 79.97 4.69
-1 -6 7 83.72 5.22
-1 -6 7 84.79 4.91
-1 -6 6 78.98 4.93
-1 -6 6 74.6 4.68
-1 -6 6 76.17 4.99
-1 -6 5 34.23 3.22
-1 -6 5 34.66 3.14
-1 -6 5 35.36 3.23
-1 -6 5 38.73 3.48
-1 -6 4 74.28 4.78
-1 -6 4 65.88 4.57
-1 -6 4 68.22 4.77
-1 -6 4 66.68 4.6
-1 -6 3 95.66 5.53
-1 -6 3 93.95 5.58
-1 -6 3 93.64 5.74
-1 -6 3 91.97 5.51
-1 -6 2 229.51 9.98
-1 -6 2 237.87 10.03
-1 -6 2 236.89 9.78
-1 -6 2 221.74 9.53
-1 -6 2 217.07 9.3
-1 -6 2 223.42 9.23
-1 -6 1 266.07 10.63
-1 -6 1 277.94 10.6
-1 -6 1 305.66 11.35
-1 -6 1 281.3 11.27
-1 -6 1 245.1 10.47
-1 -6 1 301.3 11.47
-1 -6 1 276.54 11.07
-1 -6 1 301.7 11.6
-1 -6 1 276.64 11.11
-1 -6 1 291.01 11.26
1 6 -1 274.89 10.95
-1 -6 0 186.12 8.14
-1 -6 0 193.08 8.66
-1 -6 0 197.74 8.75
-1 -6 0 194.85 8.68
-1 -6 0 191.42 8.12
-1 -6 0 193.51 8.77
-1 -6 0 206.77 8.99
1 6 0 178.61 8.25
-1 -6 0 177.33 8.12
-1 -6 0 201.52 8.95
-1 -6 0 186.44 8.38
1 6 1 252.4 11.11
-1 -6 -1 266.81 10.21
-1 -6 -1 271.57 11.09
-1 -6 -1 249.97 10.13
-1 -6 -1 291 10.81
-1 -6 -1 281.32 10.95
-1 -6 -1 279.41 10.99
-1 -6 -1 272.37 10.98
-1 -6 -1 276.55 11.06
1 6 1 262.65 10.58
-1 -6 -1 278.81 10.9
1 6 2 522.53 18.62
-1 -6 -2 559.7 18.38
-1 -6 -2 568.54 18.72
-1 -6 -2 559.9 18.13
-1 -6 -2 548.4 18.3
-1 -6 -2 571.17 18.31
-1 -6 -2 567.53 18.65
1 6 2 557.67 18.19
-1 -6 -2 562.77 17.99
-1 -6 -3 757.62 23.2
-1 -6 -3 740.31 22.74
-1 -6 -3 788.78 23.08
-1 -6 -3 754.26 23.33
-1 -6 -3 764.64 23.32
-1 -6 -3 788.26 23.91
-1 -6 -3 769.17 23.69
1 6 3 713.53 23.68
-1 -6 -3 746.08 22.98
-1 -6 -4 963.32 26.85
-1 -6 -4 892.38 27.19
-1 -6 -4 882.34 26.34
-1 -6 -4 913.79 27.52
-1 -6 -4 916.62 26.43
-1 -6 -4 887.93 26.9
-1 -6 -4 912.09 27
-1 -6 -4 867.03 26.13
-1 -6 -5 51.82 4
-1 -6 -5 56.22 3.87
-1 -6 -5 52.92 4.13
-1 -6 -5 52.46 3.85
-1 -6 -5 63.14 4.94
-1 -6 -5 53.68 4.23
-1 -6 -5 56.14 4.43
-1 -6 -6 10.97 1.7
-1 -6 -6 10.74 2.13
-1 -6 -6 5.86 1.37
-1 -6 -6 7.36 1.58
-1 -6 -6 10.58 1.92
-1 -6 -6 6.79 1.4
-1 -6 -6 9.71 1.86
-1 -6 -7 43.06 3.45
-1 -6 -7 40.92 3.97
-1 -6 -7 40.37 3.51
-1 -6 -7 40.42 3.59
-1 -6 -7 39.79 3.39
-1 -6 -7 45.31 3.37
-1 -6 -7 40.3 3.76
-1 -6 -8 1.46 1.08
-1 -6 -8 1.64 0.69
-1 -6 -8 1.29 0.73
1 6 8 1.87 0.81
-1 -6 -8 0.47 0.7
-1 -6 -8 0.78 0.71
-1 -6 -8 1.19 0.84
-1 -6 -9 63.41 4.16
-1 -6 -9 62.22 4.86
1 6 9 58.42 3.89
-1 -6 -9 57.25 4.15
-1 -6 -9 59.35 4.17
-1 -6 -9 54.78 3.98
-1 -6 -9 58.93 4.55
-1 -6 -10 172.35 7.63
-1 -6 -10 197.19 9.11
-1 -6 -10 182.22 8.68
-1 -6 -10 191.18 7.96
1 6 10 172.84 7.51
-1 -6 -10 178.21 7.83
-1 -6 -10 184.48 8.02
1 6 11 30.03 2.65
-1 -6 -11 34.16 2.79
-1 -6 -11 33.98 2.86
-1 -6 -11 27.3 2.6
-1 -6 -11 32.49 3.21
-1 -6 -11 33.63 3.32
-1 -6 -12 185.93 8.08
1 6 12 166.1 7.05
-1 -6 -12 170.19 7.16
1 6 13 38.69 2.76
-1 -6 -13 42.83 3.23
1 6 13 36.98 2.66
-1 -6 -13 37.3 2.6
-1 -6 -13 39.69 3.17
1 6 14 12.23 1.32
1 6 14 13.14 1.4
-1 -6 -14 13.37 1.63
-1 -6 -14 16.23 1.81
-1 -6 -14 12.88 1.26
1 6 15 50.99 2.66
-1 -6 -15 56.33 2.9
1 7 -10 125.5 4.79
-1 -7 10 132.18 4.91
-1 -7 9 -0.19 0.51
-1 -7 8 9.39 1.34
-1 -7 8 7.87 1.13
-1 -7 7 231.75 8.73
-1 -7 7 223.58 8.36
-1 -7 6 111.4 5.63
-1 -7 6 110.52 5.44
-1 -7 5 40.54 3.15
-1 -7 5 34.96 3.01
-1 -7 4 344.11 12.37
-1 -7 4 338.94 12.26
-1 -7 4 358.71 12.33
-1 -7 3 61.86 4.19
-1 -7 3 55.4 3.99
-1 -7 3 60.03 4.11
-1 -7 3 64.67 4.16
-1 -7 2 29.77 2.84
-1 -7 2 31.38 2.98
-1 -7 2 30.43 2.85
-1 -7 2 30.43 2.93
-1 -7 1 49.33 3.78
-1 -7 1 55.23 3.84
-1 -7 1 46.31 3.68
-1 -7 1 44.58 3.47
-1 -7 1 47.05 3.74
-1 -7 0 325.38 11.9
-1 -7 0 297.13 11.56
-1 -7 0 318.78 11.88
-1 -7 0 307.68 11.26
-1 -7 0 310.52 11.93
-1 -7 -1 18.11 2.33
-1 -7 -1 15.04 2.12
-1 -7 -1 18.92 2.43
-1 -7 -1 16.37 2.14
-1 -7 -1 18.73 2.34
-1 -7 -2 94.59 5.56
-1 -7 -2 93.48 5.5
-1 -7 -2 86.87 5.18
-1 -7 -2 85.84 5.25
-1 -7 -2 84.13 5.1
-1 -7 -2 85.06 5.38
-1 -7 -3 44.02 3.46
-1 -7 -3 48.99 3.79
-1 -7 -3 46.98 3.79
-1 -7 -3 44.43 3.7
-1 -7 -3 49.28 3.95
-1 -7 -3 46.82 3.58
-1 -7 -4 25.79 2.71
-1 -7 -4 25.88 2.81
-1 -7 -4 22.91 2.36
-1 -7 -4 26.13 2.75
-1 -7 -4 28.65 2.95
-1 -7 -4 22.93 2.42
-1 -7 -5 6.56 1.37
-1 -7 -5 6.33 1.36
-1 -7 -5 6.96 1.46
-1 -7 -5 6.06 1.38
-1 -7 -5 4.54 1.24
-1 -7 -6 1.53 0.99
-1 -7 -6 1.65 0.87
-1 -7 -6 1.74 0.88
-1 -7 -6 0.87 0.68
-1 -7 -6 2.49 1.12
-1 -7 -7 3.62 1.23
-1 -7 -7 3.17 1
-1 -7 -7 4.33 1.12
-1 -7 -7 4.64 1.22
-1 -7 -8 25.04 2.45
-1 -7 -8 22.52 2.38
-1 -7 -8 22.85 2.34
-1 -7 -8 28.42 2.73
-1 -7 -9 149.41 6.6
-1 -7 -9 168.14 7.3
-1 -7 -9 146.52 6.6
-1 -7 -9 154.78 6.59
-1 -7 -10 27.63 2.35
1 7 10 26.63 1.99
-1 -7 -10 28.34 2.24
-1 -7 -10 28.17 2.23
-1 -7 -10 29.38 2.6
1 7 11 62.46 3.43
-1 -7 -11 59.86 3.01
1 7 11 52.55 2.84
-1 -7 -11 59.74 3.35
1 7 12 13.24 1.17
-1 -7 -12 13.86 1.34
1 7 12 15.1 1.41
-1 -7 -12 14.74 1.54
1 7 13 -0.1 0.26
-1 -7 -13 0.45 0.39
-1 -8 7 0.99 0.35
-1 -8 6 264.09 8.26
1 8 -5 52.68 2.68
-1 -8 5 59.03 3.06
-1 -8 5 59.22 3.03
-1 -8 4 18.12 1.71
-1 -8 4 16.31 1.57
-1 -8 3 71.49 3.82
-1 -8 3 72.34 3.65
-1 -8 2 70.31 3.75
-1 -8 2 77.51 4.07
-1 -8 2 72.64 3.69
-1 -8 1 34.11 2.59
-1 -8 1 35.38 2.67
-1 -8 0 2.8 0.82
-1 -8 0 3.98 0.83
-1 -8 0 3.68 0.81
-1 -8 0 3.83 0.89
-1 -8 -1 290.85 9.55
-1 -8 -1 270.85 9.79
-1 -8 -1 285.48 10.02
-1 -8 -1 290.24 9.6
-1 -8 -2 7.49 1.17
-1 -8 -2 7.03 1.15
-1 -8 -2 5.52 1.03
-1 -8 -2 8.09 1.32
-1 -8 -3 46.78 3.03
-1 -8 -3 49.76 3.18
-1 -8 -3 47.84 2.96
-1 -8 -3 49.81 3.31
-1 -8 -4 106.64 5.04
-1 -8 -4 104.25 4.87
-1 -8 -4 105.03 5.12
1 8 5 319.18 10.15
-1 -8 -5 318.91 10.58
-1 -8 -5 325.38 10.77
-1 -8 -5 331.14 10.94
-1 -8 -6 7.84 1.18
-1 -8 -6 5.69 1
1 8 6 6.41 0.97
-1 -8 -6 6.91 1.12
1 8 7 105.65 4.52
-1 -8 -7 114.32 4.83
-1 -8 -7 118.68 4.94
-1 -8 -7 107.83 4.75
-1 -8 -8 114.43 4.56
1 8 8 104.43 4.31
-1 -8 -8 110.58 4.52
-1 -8 -8 100.64 4.26
-1 -8 -9 4.16 0.69
-1 -8 -9 3.85 0.68
1 8 9 3.23 0.62
-2 7 7 171.66 5.66
2 -7 -7 179.08 5.81
2 -7 -7 184.74 5.96
2 -7 -6 96.68 3.82
-2 7 6 100.83 3.91
2 -7 -6 105.21 4.1
2 -7 -6 105.62 4.24
-2 7 6 94.69 3.79
-2 7 5 25.88 1.75
2 -7 -5 24.8 1.85
2 -7 -5 26.17 1.83
2 -7 -5 24.88 1.7
-2 7 5 27.05 1.91
2 -7 -5 25.5 1.95
2 -7 -4 0.08 0.34
2 -7 -4 0.53 0.53
2 -7 -4 0.43 0.4
2 -7 -4 0.18 0.35
-2 7 4 0.02 0.36
-2 7 4 -0.26 0.41
2 -7 -4 0.51 0.48
-2 7 4 0.65 0.38
-2 7 3 148.76 5.59
2 -7 -3 143.88 5.72
2 -7 -3 160.57 6.05
-2 7 3 155.34 5.42
2 -7 -3 145.25 5.73
-2 7 3 171.73 6.37
2 -7 -3 163.75 6.06
2 -7 -3 161.65 6.15
2 -7 -2 14.3 1.54
2 -7 -2 13.03 1.43
-2 7 2 12.95 1.33
2 -7 -2 14.02 1.45
2 -7 -2 13.86 1.51
2 -7 -2 13.35 1.42
-2 7 2 16.03 1.63
2 -7 -1 55.98 3.26
2 -7 -1 51.04 2.99
2 -7 -1 49.46 3.19
2 -7 -1 53.69 3.03
-2 7 1 56.53 3.25
-2 7 1 51.66 2.82
2 -7 0 138.65 5.79
-2 7 0 145.22 5.81
2 -7 0 146.23 6.13
2 -7 0 141.18 5.66
-2 7 0 134.15 5.23
2 -7 0 133.25 5.29
2 -7 1 207.69 7.69
2 -7 1 195.19 7.32
-2 7 -1 210.23 7.34
2 -7 1 196.98 7.06
2 -7 2 157.49 6.15
-2 7 -2 164.86 6.33
-2 7 -2 170.85 6.36
2 -7 2 185.94 6.96
2 -7 2 181.95 6.72
2 -7 3 0.55 0.38
-2 7 -3 0.36 0.34
-2 7 -3 0.41 0.35
2 -7 3 0.63 0.51
2 -7 4 0.24 0.35
2 -7 4 0.52 0.42
-2 7 -4 0.81 0.34
-2 7 -4 0.3 0.36
2 -7 5 41.86 2.43
-2 7 -5 39.7 2.39
2 -7 5 41.12 2.45
2 -7 6 57.17 2.72
-2 7 -6 65.09 2.99
2 -7 6 62.79 2.98
-2 7 -7 2.51 0.52
2 -7 7 1.46 0.45
2 -6 -11 6.33 0.78
2 -6 -11 6.41 0.79
-2 6 11 6.4 0.73
2 -6 -11 6.63 0.77
2 -6 -10 143.64 5.07
-2 6 10 139.68 5.05
2 -6 -10 140.94 5.12
2 -6 -10 129.33 5
-2 6 9 4.26 0.87
2 -6 -9 3.27 0.75
2 -6 -9 2.67 0.6
2 -6 -9 3.43 0.79
2 -6 -9 2.43 0.64
2 -6 -8 105.8 4.6
2 -6 -8 111.63 4.83
-2 6 8 129.56 5.55
2 -6 -8 117.84 5.23
2 -6 -8 116.3 4.87
2 -6 -8 124.91 5.43
-2 6 8 115.44 4.74
2 -6 -8 120.58 5.56
-2 6 7 10.05 1.51
2 -6 -7 8.63 1.41
2 -6 -7 10.37 1.55
2 -6 -7 9.22 1.32
2 -6 -7 10.88 1.51
2 -6 -7 10.02 1.38
-2 6 7 8.23 1.27
2 -6 -6 100.12 5.22
2 -6 -6 93.47 4.91
2 -6 -6 98.05 5.12
2 -6 -6 95.52 5.05
2 -6 -6 105.53 5.54
-2 6 6 96.03 4.99
-2 6 6 104.24 5.47
2 -6 -5 43.78 3.2
2 -6 -5 46.77 3.44
2 -6 -5 45.64 3.59
2 -6 -5 43.99 3.32
2 -6 -5 46.96 3.48
2 -6 -5 41.17 3.2
-2 6 5 46.87 3.47
-2 6 5 50.97 3.7
-2 6 4 327.32 11.81
2 -6 -4 332.74 11.85
2 -6 -4 303.46 11.62
2 -6 -4 323.14 12.06
2 -6 -4 346.13 11.96
2 -6 -4 325.02 11.73
-2 6 4 338.74 12.15
2 -6 -4 338.86 11.91
2 -6 -3 111.7 6.11
-2 6 3 113.41 5.81
2 -6 -3 116.79 6.02
2 -6 -3 120.76 6.25
2 -6 -3 115.29 5.94
-2 6 3 113.86 6.11
2 -6 -3 122.08 6.08
2 -6 -2 94.34 5.41
2 -6 -2 94.72 5.35
-2 6 2 100.16 5.69
2 -6 -2 100.91 5.52
2 -6 -2 100.52 5.57
-2 6 2 102.85 5.33
2 -6 -2 101.43 5.83
-2 6 1 36.92 2.91
2 -6 -1 37.07 3.43
2 -6 -1 37.6 3.26
2 -6 -1 37.45 3.15
-2 6 1 33.89 3.16
2 -6 -1 38.46 3.26
2 -6 -1 36.68 3.2
2 -6 0 32.97 3.06
2 -6 0 32.71 3.01
2 -6 0 31.5 2.72
2 -6 0 32.11 3.19
2 -6 0 33.16 2.93
-2 6 0 32.01 3.04
2 -6 0 31.54 2.88
2 -6 1 0.11 0.79
-2 6 -1 1.7 0.8
2 -6 1 3.29 1.03
2 -6 1 0.57 0.69
2 -6 1 1.19 0.83
2 -6 1 0.48 0.56
-2 6 -1 2.85 1.06
2 -6 1 1.57 0.79
2 -6 2 764.03 22.65
2 -6 2 734.39 22.93
-2 6 -2 732.79 22.19
2 -6 2 757.6 22.06
2 -6 2 702.61 21.68
2 -6 2 722.5 21.71
-2 6 -2 726.56 22.01
-2 6 -3 5.43 1.21
2 -6 3 4.93 1.35
2 -6 3 6.2 1.28
2 -6 3 7.09 1.35
-2 6 -3 5.84 1.25
2 -6 3 6.73 1.51
-2 6 -4 69.25 4.16
2 -6 4 60.04 3.89
2 -6 4 69.67 4.67
2 -6 4 64.32 4.23
-2 6 -4 65.98 4.14
2 -6 4 71.43 4.57
2 -6 5 216.18 8.82
-2 6 -5 198.73 8.21
2 -6 5 218.48 9.11
2 -6 5 207.12 8.55
2 -6 5 225.99 9.16
-2 6 -5 222.69 8.29
-2 6 -5 217.7 8.67
2 -6 6 213.21 8.52
2 -6 6 209.26 8.26
2 -6 6 191.38 7.84
-2 6 -6 192.76 7.63
-2 6 -6 185.8 7.86
-2 6 -7 17.61 1.89
2 -6 7 14.45 1.81
2 -6 7 14.43 1.68
2 -6 7 13.15 1.59
-2 6 -7 15.63 1.65
2 -6 8 3.03 0.9
-2 6 -8 2.92 0.84
2 -6 8 2.17 0.65
2 -6 9 41.55 2.7
-2 6 -9 38.66 2.47
-2 6 -9 40.16 2.63
2 -6 10 24.02 1.81
-2 6 -10 25.13 1.78
-2 6 -10 27.01 1.88
-2 6 -11 1.31 0.42
2 -5 -13 4.32 0.71
2 -5 -13 4.19 0.71
-2 5 13 3.21 0.62
2 -5 -13 4.4 0.71
-2 5 12 115.47 4.83
2 -5 -12 119.96 4.96
2 -5 -12 117.69 4.89
-2 5 12 112.54 4.59
2 -5 -12 116.27 4.84
2 -5 -11 156.61 6.34
-2 5 11 149.33 6.15
2 -5 -11 152.91 6.34
-2 5 11 145.48 6.09
2 -5 -11 144.21 6.3
2 -5 -10 1.25 0.7
-2 5 10 0.3 0.46
2 -5 -10 2.28 0.78
2 -5 -10 0.85 0.55
2 -5 -10 1.63 0.79
2 -5 -10 2.14 0.85
-2 5 10 1.26 0.7
2 -5 -9 211.7 8.47
2 -5 -9 183.8 7.8
-2 5 9 206.72 8.5
2 -5 -9 199.45 8.38
-2 5 9 190.54 7.95
2 -5 -9 196.25 8.66
2 -5 -9 199.31 7.95
-2 5 8 4.09 1.07
2 -5 -8 5.45 1.3
2 -5 -8 5.07 1.23
2 -5 -8 3.2 1
2 -5 -8 3.65 1.01
-2 5 8 2.56 0.89
2 -5 -8 4.79 1.29
2 -5 -8 6.67 1.5
2 -5 -7 169.45 7.71
2 -5 -7 187.11 8.22
2 -5 -7 175.59 8.1
-2 5 7 164.42 7.39
2 -5 -7 161.9 7.5
2 -5 -7 165.31 7.61
-2 5 7 174.38 8.05
2 -5 -7 168.19 8.28
-2 5 6 21.66 2.59
2 -5 -6 22.42 2.62
2 -5 -6 23.04 2.7
2 -5 -6 20.69 2.43
2 -5 -6 18.56 2.33
2 -5 -6 23.07 2.82
2 -5 -5 -0.51 0.83
2 -5 -5 0.93 0.74
2 -5 -5 1.61 0.61
2 -5 -5 0.4 0.76
2 -5 -5 -0.02 0.75
2 -5 -5 1.68 0.91
-2 5 5 0.73 1.04
-2 5 4 47.77 3.94
2 -5 -4 50.15 3.98
2 -5 -4 52.93 4.23
2 -5 -4 52.3 4.04
2 -5 -4 44.47 3.78
2 -5 -4 51.56 4.23
2 -5 -4 55.53 4.14
-2 5 3 0.2 0.66
2 -5 -3 1.48 0.79
2 -5 -3 2.15 1.14
2 -5 -3 2.77 1
2 -5 -3 2.32 1.08
2 -5 -3 1.57 0.86
2 -5 -3 0.48 0.76
-2 5 2 256.04 10.57
2 -5 -2 260.84 11.21
2 -5 -2 258.04 10.72
2 -5 -2 272.91 10.74
2 -5 -2 263.98 10.32
2 -5 -2 285.18 11.37
2 -5 -2 280.19 10.95
2 -5 -2 256.05 10.82
-2 5 1 81.96 5.18
2 -5 -1 84.35 5.33
2 -5 -1 96.07 6.01
2 -5 -1 92.45 5.47
2 -5 -1 78.46 5.42
2 -5 -1 86.61 5.25
2 -5 -1 73.91 5.04
2 -5 -1 78.96 4.94
2 -5 0 104.99 6.08
2 -5 0 95.33 6.09
2 -5 0 99.89 5.82
2 -5 0 111.38 6.42
-2 5 0 100.91 5.64
2 -5 0 109.68 5.95
2 -5 0 104.34 5.79
2 -5 1 51.48 4.04
2 -5 1 45.54 3.98
2 -5 1 46.3 3.76
2 -5 1 52.78 4.17
2 -5 1 43.75 3.59
2 -5 1 46.14 3.73
2 -5 2 7.09 1.51
2 -5 2 6.21 1.42
2 -5 2 10.48 1.8
2 -5 2 7.26 1.56
2 -5 2 9.51 1.73
-2 5 -2 8.63 1.72
2 -5 3 479.59 17.06
-2 5 -3 507.13 16.96
2 -5 3 510.12 16.9
2 -5 3 489.71 16.78
2 -5 3 490.69 16.35
-2 5 -3 508.03 17.05
2 -5 3 498.68 17.11
2 -5 4 104.6 6.07
2 -5 4 100.21 6.08
2 -5 4 104.44 5.82
2 -5 4 106.76 6.24
-2 5 -4 110.56 6.06
-2 5 -4 113.69 6.23
2 -5 5 155.38 7.71
2 -5 5 162.53 7.94
2 -5 5 155.28 7.71
-2 5 -5 163.7 7.44
2 -5 5 147.55 7.16
-2 5 -5 147.83 7.45
2 -5 6 0.76 0.92
2 -5 6 0.97 0.67
-2 5 -6 0.4 0.62
2 -5 6 0.99 0.81
2 -5 6 1.23 0.92
-2 5 -6 -0.65 0.66
2 -5 7 443.67 15.64
2 -5 7 451.62 15.04
-2 5 -7 452.8 15.67
2 -5 7 483.77 15.98
-2 5 -7 439.32 15.39
2 -5 7 447.45 14.78
2 -5 7 478.8 16.3
2 -5 8 3.53 1.02
2 -5 8 1.26 0.64
-2 5 -8 4.21 1.29
2 -5 8 4.44 1.25
-2 5 -8 4.51 1.25
2 -5 8 4.1 1.09
2 -5 8 2.52 1.01
2 -5 9 17.57 2.19
-2 5 -9 19.94 2.3
2 -5 9 16.45 1.9
2 -5 9 17.62 2.09
2 -5 9 15.76 2.05
-2 5 -9 14.37 1.88
2 -5 10 83.34 4.76
2 -5 10 97.04 4.91
-2 5 -10 90.7 4.9
-2 5 -10 90.45 4.86
2 -5 10 89.66 4.62
-2 5 -10 84.51 4.54
2 -5 11 1.77 0.59
2 -5 11 1.48 0.59
-2 5 -11 3.01 0.85
-2 5 -11 2.91 0.89
2 -5 11 2.48 0.81
-2 5 -11 2.64 0.7
-2 5 -12 34.44 2.47
2 -5 12 33.74 2.3
2 -5 12 31.94 2.27
-2 5 -12 33.73 2.17
-2 5 -12 36.94 2.4
2 -5 12 32.63 2.2
-2 5 -13 5.3 0.81
2 -5 13 3.7 0.67
2 -5 13 3.86 0.7
-2 5 -13 5.76 0.91
-2 5 -14 17.46 1.27
2 -4 -15 94.19 3.73
2 -4 -15 91.52 3.62
-2 4 15 94.33 3.62
-2 4 15 101.26 3.8
2 -4 -14 143.08 5.37
2 -4 -14 156.08 5.95
2 -4 -14 160.01 5.93
-2 4 14 148.21 5.81
-2 4 13 22.6 2.1
2 -4 -13 27.02 2.3
2 -4 -13 23.97 2.02
2 -4 -13 23.92 2.21
-2 4 13 24.47 2.25
2 -4 -13 26.27 2.19
2 -4 -12 2.74 0.83
2 -4 -12 3.7 0.94
2 -4 -12 3.88 1.07
2 -4 -12 2.54 0.85
-2 4 12 3.86 1.07
-2 4 12 3.35 0.9
2 -4 -12 2.08 0.8
-2 4 12 4.17 1.03
2 -4 -11 39.86 3.3
2 -4 -11 43.17 3.44
2 -4 -11 35.19 2.87
-2 4 11 34.63 2.99
-2 4 11 36.34 3.2
2 -4 -11 36.22 2.99
-2 4 11 37.03 3.18
2 -4 -11 41.61 3.55
2 -4 -10 82.68 5.37
2 -4 -10 72.82 4.64
2 -4 -10 81.27 5.1
2 -4 -10 81.28 4.83
-2 4 10 74.83 4.89
-2 4 10 85.94 5.13
-2 4 10 84.4 5.33
2 -4 -10 79.51 5.12
-2 4 9 9.05 1.7
2 -4 -9 8.01 1.52
-2 4 9 9.68 1.73
2 -4 -9 7.85 1.64
2 -4 -9 10.2 1.81
-2 4 9 7.31 1.62
2 -4 -9 6.62 1.44
2 -4 -9 7.05 1.5
2 -4 -8 143.9 7.32
-2 4 8 141.47 7.25
2 -4 -8 120.9 6.55
-2 4 8 129.77 6.79
-2 4 8 131.1 6.74
2 -4 -8 142.83 7.3
2 -4 -8 136.64 7.5
2 -4 -8 139.31 6.96
2 -4 -7 167.36 8.04
-2 4 7 146.46 7.25
2 -4 -7 156.9 7.42
2 -4 -7 168.82 8.03
2 -4 -7 152.06 7.45
2 -4 -7 155.01 7.63
2 -4 -7 161.68 8.27
-2 4 7 152.58 7.36
-2 4 7 163.43 7.93
-2 4 6 147.42 7.92
2 -4 -6 137.38 7.07
2 -4 -6 156.35 7.58
2 -4 -6 143.76 7.31
2 -4 -6 141.79 7.16
-2 4 6 145.33 7.34
2 -4 -6 146.41 8.06
-2 4 6 125.22 6.53
2 -4 -6 139.11 6.98
-2 4 6 143.61 7.06
2 -4 -6 136.45 7.49
-2 4 5 3.2 1.17
-2 4 5 6.03 1.36
2 -4 -5 2.39 0.87
2 -4 -5 2.29 1.12
-2 4 5 2.7 0.98
2 -4 -5 3.97 1.34
2 -4 -5 2.71 0.93
2 -4 -5 3.54 1.22
2 -4 -5 3.27 1.15
2 -4 -5 3.55 1.09
-2 4 5 2.96 1.09
2 -4 -5 4.03 1.21
-2 4 4 128.35 7.15
-2 4 4 125.91 6.5
2 -4 -4 120.33 6.35
2 -4 -4 120.41 6.37
2 -4 -4 112.77 6.82
2 -4 -4 115.96 6.24
2 -4 -4 113.82 6.3
2 -4 -4 119.56 6.63
-2 4 4 114.7 6.21
2 -4 -4 116.94 6.28
2 -4 -4 120.71 6.59
-2 4 3 131.35 7.16
2 -4 -3 115.58 6.36
-2 4 3 120 6.36
2 -4 -3 126.21 6.81
2 -4 -3 132.29 6.66
2 -4 -3 116.54 6.23
2 -4 -3 121.39 6.53
2 -4 -3 118.26 6.24
-2 4 3 117.78 6.28
2 -4 -3 123.11 6.98
-2 4 2 1065.75 30.56
-2 4 2 1013.73 29.5
2 -4 -2 980.91 30.04
-2 4 1 63.62 4.65
2 -4 -1 56.8 4.32
-2 4 1 54.65 4.08
-2 4 0 19.08 2.44
2 -4 0 16.2 2.25
2 -4 0 19.88 2.37
-2 4 0 20.04 2.42
-2 4 -1 1384.69 38.16
2 -4 1 1334.09 37.73
2 -4 1 1304.88 36.98
-2 4 -1 1364.44 37.72
-2 4 -2 209.21 9.31
2 -4 2 206.72 9.22
-2 4 -2 218.62 9.17
2 -4 3 37.54 3.45
2 -4 3 45.36 3.67
2 -4 3 43.71 3.74
-2 4 -3 44.03 3.59
2 -4 3 46.14 3.74
2 -4 3 44.36 3.49
2 -4 4 0.83 0.88
2 -4 4 1.35 0.79
2 -4 4 1.78 0.94
-2 4 -4 1.23 0.78
2 -4 4 0.37 0.45
-2 4 -4 0.58 0.71
-2 4 -4 1.15 0.95
2 -4 4 0.47 0.61
-2 4 -4 1.03 0.79
2 -4 4 1.85 0.99
-2 4 -5 1.16 0.94
2 -4 5 -0.01 0.74
2 -4 5 0.46 0.8
2 -4 5 2 0.91
2 -4 5 1.51 0.8
2 -4 5 0.53 0.9
2 -4 5 0.63 0.7
-2 4 -5 -0.23 0.78
-2 4 -5 -0.1 0.69
2 -4 5 0.17 0.61
2 -4 6 1.18 0.69
2 -4 6 0.9 0.74
-2 4 -6 0.91 0.82
2 -4 6 1.37 0.93
2 -4 6 0.27 0.63
2 -4 6 0.15 0.56
2 -4 6 0.72 0.5
2 -4 6 0.24 0.78
2 -4 6 0.97 0.85
-2 4 -6 1.3 0.74
-2 4 -6 1.85 0.87
2 -4 7 113.39 6.25
2 -4 7 115.19 6.61
2 -4 7 118.31 6.29
2 -4 7 114.79 6.12
-2 4 -7 112.79 6.44
2 -4 7 121.53 6.59
2 -4 8 305.7 12.11
2 -4 8 344.92 13.22
2 -4 8 315.97 12.07
-2 4 -8 324.36 12.52
-2 4 -8 329.3 12.58
-2 4 -9 334.11 12.81
-2 4 -9 349.55 13.11
2 -4 9 343.28 12.74
2 -4 9 331.73 12.68
2 -4 9 351.23 13.35
-2 4 -10 12.23 2.03
2 -4 10 10.93 1.84
2 -4 10 13.21 2.01
2 -4 10 13.11 2.03
2 -4 10 12.6 1.97
-2 4 -10 11.79 1.86
2 -4 11 19.41 2.24
-2 4 -11 20.38 2.43
-2 4 -11 19.9 2.44
2 -4 11 22.38 2.54
2 -4 11 20.96 2.4
-2 4 -11 20.82 2.39
2 -4 12 170.07 7.07
-2 4 -12 173.93 7.62
-2 4 -12 170.18 7.74
2 -4 12 185.53 7.8
2 -4 12 178.83 7.83
-2 4 -12 162.65 7.27
2 -4 13 29.09 2.59
-2 4 -13 25.96 2.31
2 -4 13 29.47 2.56
-2 4 -13 31.69 2.74
-2 4 -13 28.71 2.42
-2 4 -14 3.95 0.82
2 -4 14 4.37 0.94
2 -4 14 4.89 1.01
-2 4 -14 4.57 0.99
-2 4 -14 5.69 1.07
2 -4 14 3.43 0.8
-2 4 -15 0.81 0.42
-2 4 -15 0.2 0.37
-2 4 -15 0.05 0.39
2 -4 15 0.07 0.35
-2 3 16 0.74 0.4
2 -3 -16 1.01 0.48
2 -3 -16 0.64 0.46
-2 3 16 0.66 0.46
-2 3 15 353.61 11.04
2 -3 -15 333.85 10.7
-2 3 15 353.76 10.72
2 -3 -15 323.13 10.55
2 -3 -14 42.64 3.12
2 -3 -14 43.12 3.1
2 -3 -14 38.33 2.78
-2 3 14 38.96 2.99
-2 3 14 41.9 3.17
2 -3 -13 401.92 13.2
2 -3 -13 371.46 13.2
2 -3 -13 419.6 14.05
2 -3 -13 425.02 14.07
-2 3 13 435.94 14.22
-2 3 13 402.63 14.04
2 -3 -13 414.45 13.91
2 -3 -12 13.38 1.89
-2 3 12 13.19 1.99
2 -3 -12 13.86 1.85
2 -3 -12 12.46 2
-2 3 12 13.44 2.02
2 -3 -12 13.95 2.06
2 -3 -12 13.58 2.08
2 -3 -11 236.12 9.64
-2 3 11 240.65 9.41
2 -3 -11 239.58 10.13
-2 3 11 240.57 10.08
2 -3 -11 224.67 9.8
-2 3 11 230.92 9.79
2 -3 -11 219.81 9.34
2 -3 -10 11.18 1.76
2 -3 -10 12.65 2
-2 3 10 10.99 1.79
2 -3 -10 9.33 1.82
-2 3 10 12.58 2.02
2 -3 -10 14.28 2.15
-2 3 10 10.69 1.82
2 -3 -9 379.1 13.81
-2 3 9 393.5 13.87
2 -3 -9 378.78 13.94
2 -3 -9 340.14 13.02
-2 3 9 381.1 13.84
2 -3 -9 404.31 14.36
-2 3 9 386.35 13.78
2 -3 -8 146.86 7.29
-2 3 8 144.04 7.55
-2 3 8 135.99 6.9
2 -3 -8 128.45 6.66
2 -3 -8 135.19 7.29
2 -3 -8 149.6 7.36
-2 3 8 145.1 7.11
2 -3 -8 149.87 7.06
2 -3 -8 146.78 7.43
2 -3 -8 139.95 7.58
-2 3 8 145.17 7.22
-2 3 7 205.08 8.83
-2 3 7 209.82 9.32
2 -3 -7 198.19 8.78
2 -3 -7 189.51 8.71
2 -3 -7 192.94 8.67
2 -3 -7 197.75 8.5
2 -3 -7 207.76 9.01
-2 3 7 199.88 8.52
2 -3 -7 193.66 9.18
-2 3 7 189.02 8.36
-2 3 6 57.62 4.34
2 -3 -6 56.57 4.04
2 -3 -6 52.91 4.29
-2 3 6 61.37 3.83
-2 3 5 19.04 2.36
2 -3 -5 16.12 1.98
2 -3 -5 22.22 2.62
-2 3 5 16.03 1.89
-2 3 4 2.1 0.93
2 -3 -4 0.96 0.82
2 -3 -4 1.91 0.66
-2 3 4 2.73 0.79
-2 3 3 137.63 6.74
2 -3 -3 128.22 6.63
-2 3 3 133.78 6.06
2 -3 -3 125.61 5.82
-2 3 2 136.68 6.58
2 -3 -2 126.72 6.37
2 -3 -2 127.31 5.75
-2 3 2 126.3 5.93
-2 3 1 251.89 9.59
2 -3 -1 228.46 8.33
2 -3 -1 228.28 9.21
-2 3 1 238.57 8.95
-2 3 0 8.23 1.49
-2 3 0 8.91 1.41
2 -3 0 6.49 1.26
2 -3 1 376.81 12.78
-2 3 -1 404.93 13.06
-2 3 -2 369.93 11.38
2 -3 2 351.09 11.75
-2 3 -2 348.17 12.06
2 -3 2 364.48 12.4
2 -3 3 872.56 24.5
-2 3 -3 911.82 24.62
2 -3 3 883.77 25.37
-2 3 -3 873.72 25.19
-2 3 -4 202.35 7.73
2 -3 4 201.36 8.06
-2 3 -4 194.83 7.99
2 -3 5 6.01 1.19
2 -3 5 5.71 1.2
-2 3 -5 7.09 1.22
-2 3 -5 6.39 1.21
-2 3 -5 5.83 1.17
-2 3 -6 490.91 15.76
2 -3 6 532.57 16.1
-2 3 -6 487.34 15.95
2 -3 6 484.19 16.3
-2 3 -6 509.66 16.13
-2 3 -7 10.3 1.63
-2 3 -7 8.68 1.46
2 -3 7 10.49 1.69
2 -3 7 10.57 1.52
2 -3 8 349.83 13.13
2 -3 8 338.64 12.63
2 -3 8 354.23 12.89
2 -3 8 368.33 13.27
2 -3 8 324.34 12.39
-2 3 -8 342.42 12.4
-2 3 -8 348.58 13.08
2 -3 8 333.82 12.49
-2 3 -8 361.6 13.25
2 -3 9 581.6 18.99
2 -3 9 615.19 19.76
-2 3 -9 626.58 19.75
2 -3 9 559.46 18.69
2 -3 9 524.64 18.24
-2 3 -9 602.64 19.39
-2 3 -9 548.96 18.44
2 -3 9 603.14 19.49
2 -3 10 124.49 6.74
2 -3 10 123.84 6.76
-2 3 -10 140.63 7.4
-2 3 -10 128.63 6.9
2 -3 10 120.74 6.79
2 -3 11 5.53 1.34
-2 3 -11 8.95 1.78
2 -3 11 3.46 1.07
2 -3 11 6.82 1.45
-2 3 -11 3.76 1.16
-2 3 -11 7.18 1.61
2 -3 12 177.3 7.52
-2 3 -12 182 8.59
2 -3 12 184.16 8.56
-2 3 -12 191.97 8.98
-2 3 -12 165.53 8.04
2 -3 12 177.16 8.34
-2 3 -13 165.72 8.01
2 -3 13 155.67 6.71
2 -3 13 154.14 7.56
-2 3 -13 144.87 7.19
2 -3 13 159.61 7.47
-2 3 -13 142.73 7.08
-2 3 -14 85.66 5.23
2 -3 14 84.06 4.36
2 -3 14 83.48 4.82
-2 3 -14 74.97 4.35
-2 3 -14 84.07 5.03
2 -3 14 81.65 4.88
-2 3 -14 70.62 4.45
2 -3 15 102.79 4.69
2 -3 15 105.23 5.29
2 -3 15 107.22 5.18
-2 3 -15 111.54 5.48
-2 3 -15 95.16 4.88
-2 3 -15 118.33 5.82
2 -3 16 8.73 1.17
2 -3 16 9.4 1.06
-2 3 -16 8.79 1.25
-2 3 -16 9.33 1.33
2 -3 16 7.46 1.21
-2 3 -16 7.84 1.08
-2 3 -17 8.99 1.08
2 -3 17 9.52 1.01
2 -3 17 8.43 1.01
-2 3 -17 10.32 1.05
2 -2 -17 103.12 4.05
-2 2 17 106.02 3.99
2 -2 -17 92.92 3.7
2 -2 -16 0.88 0.58
2 -2 -16 0.66 0.47
-2 2 16 1.17 0.48
-2 2 16 0.49 0.43
2 -2 -16 1.5 0.64
2 -2 -15 94.51 4.99
-2 2 15 103.86 4.9
2 -2 -15 97.56 5.04
2 -2 -15 91.83 4.56
-2 2 15 98.73 5.16
2 -2 -14 9.71 1.47
2 -2 -14 10.69 1.54
2 -2 -14 7.89 1.4
-2 2 14 9.84 1.58
2 -2 -14 8.54 1.49
-2 2 14 8.03 1.48
-2 2 13 240.5 9.76
2 -2 -13 235.46 9.72
2 -2 -13 225.25 9.31
2 -2 -13 221.8 9.14
2 -2 -13 236.66 9.91
-2 2 13 244.66 10.03
2 -2 -12 4.85 1.31
2 -2 -12 5.93 1.36
2 -2 -12 3.89 1.2
-2 2 12 5.33 1.36
2 -2 -12 7.62 1.57
-2 2 12 5.07 1.34
2 -2 -12 6.15 1.51
2 -2 -11 16.35 2.27
2 -2 -11 18.53 2.38
2 -2 -11 16.5 2.27
-2 2 11 17.56 2.4
2 -2 -11 15.94 2.35
2 -2 -11 15.61 2.07
-2 2 11 17.19 2.32
-2 2 10 470.72 16.14
2 -2 -10 446.77 15.94
2 -2 -10 411.93 14.83
2 -2 -10 457.7 15.83
-2 2 10 476.85 15.88
2 -2 -10 426.36 15.39
2 -2 -10 468.52 15.68
-2 2 10 471.58 15.69
2 -2 -10 446.62 16.48
-2 2 9 176.55 8.22
2 -2 -9 182.08 8.32
2 -2 -9 194.39 8.27
2 -2 -9 183.73 8.49
2 -2 -9 168.66 8.45
2 -2 -9 174.16 7.99
-2 2 9 182.13 8.2
2 -2 -9 168.47 7.58
-2 2 9 183.16 8.06
2 -2 -9 165.11 7.84
-2 2 8 168.38 7.64
2 -2 -8 163.61 7.8
2 -2 -8 151.65 7.38
-2 2 7 10.68 1.7
2 -2 -7 11.76 1.82
2 -2 -7 8.93 1.59
-2 2 6 312.25 11.36
2 -2 -6 305.44 11.33
2 -2 -6 327.74 11.76
-2 2 6 332.26 10.42
-2 2 5 11.13 1.6
2 -2 -5 12.94 1.68
-2 2 5 11.66 1.35
2 -2 -5 12.12 1.76
-2 2 4 223.2 8.48
2 -2 -4 217.74 8.37
2 -2 -4 225.4 8.74
-2 2 4 220.28 7.77
-2 2 3 518.52 15.51
2 -2 -3 484.36 15.16
2 -2 -3 499.5 15.58
-2 2 3 490.27 14.65
2 -2 -2 517.62 16.05
-2 2 2 548.68 15.89
-2 2 1 71.15 3.92
2 -2 -1 64.53 3.5
-2 2 1 66.57 3.48
2 -2 0 4.08 0.94
2 -2 0 2.83 0.69
-2 2 0 3.03 0.74
2 -2 1 23.68 2.1
-2 2 -1 21.13 1.86
-2 2 -1 21.47 1.69
-2 2 -2 1342.3 36.55
-2 2 -2 1379.84 36.13
2 -2 3 719.33 20.02
-2 2 -3 671.8 19.66
-2 2 -3 695.15 19.37
2 -2 4 1859.8 46.73
-2 2 -4 1768.58 46.52
-2 2 -4 1750.75 46.12
-2 2 -5 8.41 1.24
2 -2 5 8.69 1.3
-2 2 -5 8.52 1.31
-2 2 -5 7 1.2
-2 2 -6 560.44 16.71
2 -2 6 560.61 16.7
-2 2 -6 515.7 16.48
-2 2 -6 548.66 16.43
2 -2 7 208.93 8.3
2 -2 7 237.36 8.78
-2 2 -7 230.38 8.66
-2 2 -7 225.81 8.69
-2 2 -7 227.93 8.6
2 -2 8 780.74 22.77
-2 2 -8 754.86 22.89
2 -2 8 838.42 23.33
-2 2 -8 810.09 23.04
-2 2 -8 793.88 23.27
2 -2 9 84.84 4.63
2 -2 9 94.07 5.05
-2 2 -9 84.81 4.69
-2 2 -9 88.59 5.13
2 -2 10 69.32 4.48
-2 2 -10 74.83 5.21
2 -2 10 74.53 4.83
2 -2 10 72.77 4.81
2 -2 10 69.15 4.61
2 -2 10 69.82 4.77
-2 2 -10 82.81 5.05
-2 2 -10 78.09 5.03
-2 2 -11 90.28 5.56
2 -2 11 79.59 4.92
2 -2 11 86.77 5.37
2 -2 11 80.53 5.1
-2 2 -11 84.43 5.33
2 -2 11 72.17 4.82
-2 2 -11 70.84 5.27
-2 2 -11 86.82 5.87
2 -2 11 82.41 5.3
2 -2 12 8.49 1.54
-2 2 -12 11.34 2.11
2 -2 12 9.44 1.8
2 -2 12 10.61 1.81
-2 2 -12 9.72 1.79
2 -2 13 36.65 3.22
2 -2 13 35.95 3.34
2 -2 13 34.56 3.39
-2 2 -13 42.84 3.97
-2 2 -13 39.64 3.53
-2 2 -13 39.05 3.92
-2 2 -13 35.91 3.42
2 -2 14 357.9 12.91
2 -2 14 353.3 13.3
2 -2 14 352.61 13.02
-2 2 -14 349.5 13.23
-2 2 -14 388.07 14.35
2 -2 15 19.63 2.19
-2 2 -15 16.99 2.34
-2 2 -15 19.18 2.57
2 -2 15 15.84 2.06
2 -2 15 15.68 1.97
-2 2 -15 14.24 1.98
-2 2 -16 39.63 3.29
2 -2 16 35.94 2.8
-2 2 -16 32.12 2.7
-2 2 -16 42.12 3.5
2 -2 16 37.35 2.78
2 -2 16 37.19 2.96
2 -2 17 82.53 4.04
-2 2 -17 85.34 4.22
2 -2 17 71.98 3.68
-2 2 -17 83.67 4.54
-2 2 -17 87.21 4.48
-2 2 -17 80.25 4.06
-2 2 -18 0.47 0.37
-2 2 -18 0.94 0.41
-2 2 -18 1.37 0.51
2 -2 18 1.11 0.43
2 -2 18 1.5 0.51
2 -1 -17 66.72 3.34
-2 1 17 67.76 3.17
2 -1 -17 68.26 3.41
2 -1 -16 81.28 4.35
-2 1 16 76.53 4.1
2 -1 -16 74.8 4.15
2 -1 -16 71.06 3.66
-2 1 15 130.08 6.27
2 -1 -15 136.82 6.39
2 -1 -15 138.13 6.61
2 -1 -15 133.74 6.08
2 -1 -15 117.08 5.68
-2 1 15 134.9 5.84
2 -1 -14 8.9 1.59
2 -1 -14 9.13 1.54
-2 1 14 9.74 1.55
2 -1 -14 11.11 1.85
2 -1 -14 8.21 1.55
-2 1 14 9 1.62
2 -1 -14 10.18 1.68
2 -1 -13 12.11 1.94
2 -1 -13 14.1 2.05
2 -1 -13 12.54 1.85
2 -1 -13 13.77 1.94
2 -1 -13 13.27 2.12
-2 1 13 13.29 1.92
-2 1 13 14.38 2.08
-2 1 12 40.2 3.52
2 -1 -12 39.49 3.33
2 -1 -12 41.67 3.83
2 -1 -12 43 3.68
-2 1 12 41.94 3.61
2 -1 -12 44.84 3.57
-2 1 11 1415.29 38.77
2 -1 -11 1335.61 38.39
2 -1 -11 1315.3 37.87
2 -1 -11 1396.58 39.21
-2 1 11 1363.04 38.6
-2 1 11 1484.91 38.98
2 -1 -11 1373.84 38.01
-2 1 10 498.07 16.17
2 -1 -10 445.62 15.36
2 -1 -10 454.19 15.79
2 -1 -10 502.89 16.96
-2 1 10 477.27 16.12
2 -1 -10 486.47 16.56
2 -1 -10 469.88 15.48
-2 1 10 507.28 16.17
-2 1 9 411.94 14.03
2 -1 -9 419.37 14.68
-2 1 8 240.09 9.17
2 -1 -8 241.96 8.9
2 -1 -8 241.31 9.61
-2 1 7 577.67 17.54
2 -1 -7 593.71 18.18
2 -1 -7 596.87 17.68
-2 1 6 161.15 6.49
2 -1 -6 159.42 6.83
2 -1 -6 166.18 5.98
2 -1 -6 174.27 6.87
2 -1 -5 512.5 15.6
2 -1 -5 505.34 15.41
2 -1 -5 510.58 13.96
-2 1 5 530.73 14.3
-2 1 5 484.25 14.94
-2 1 4 58.04 3.18
2 -1 -4 69.78 3.78
2 -1 -4 64.21 2.78
-2 1 4 66.54 3.01
-2 1 3 64.25 3.2
2 -1 -3 66.39 3.52
-2 1 3 62.46 2.96
2 -1 -2 106.68 4.7
-2 1 2 118.3 4.58
-2 1 2 110.52 4.34
2 -1 -1 213.19 7.73
-2 1 1 227.81 7.41
2 -1 -1 225.14 7.76
2 -1 0 1912.07 47.28
-2 1 0 1792.85 46.69
2 -1 1 12.52 1.38
-2 1 -1 12.72 1.29
-2 1 -1 11.77 1.16
2 -1 2 972.67 25.11
-2 1 -2 993.61 26.24
2 -1 2 1010.6 26.46
-2 1 -2 989.78 25.9
2 -1 3 8.04 1.08
-2 1 -3 9.29 1.18
-2 1 -3 8.26 1
2 -1 3 7.95 0.78
2 -1 4 8.43 1.15
-2 1 -4 10.64 1.29
2 -1 4 8.73 0.86
-2 1 -4 8.38 1.2
-2 1 -4 9.49 1.12
2 -1 5 861.1 24.68
-2 1 -5 912.26 24.85
2 -1 5 914.32 23.65
-2 1 -5 929.8 24.85
-2 1 -5 923.97 24.58
2 -1 6 199.43 7.48
-2 1 -6 196.16 7.41
2 -1 6 208.7 6.67
-2 1 -6 203.26 7.47
-2 1 -6 202 7.35
-2 1 -7 2.44 0.71
2 -1 7 3.97 0.75
-2 1 -7 3.32 0.8
-2 1 -7 3.15 0.81
2 -1 8 1219.01 33.11
2 -1 8 1189.87 32.07
2 -1 8 1219.15 32.13
-2 1 -8 1225.01 33.05
-2 1 -8 1274.03 33.31
2 -1 9 584.03 18.01
2 -1 9 596.04 17.25
-2 1 -9 579.42 17.82
-2 1 -9 621.55 18.34
2 -1 10 101.65 5.36
-2 1 -10 95.72 4.97
-2 1 -10 103.78 5.55
2 -1 11 96.75 5.4
2 -1 11 82.74 4.94
2 -1 11 88 5.09
-2 1 -11 83.42 5.47
-2 1 -11 94.35 5.47
2 -1 11 86.6 5.14
2 -1 11 79.64 4.94
-2 1 -11 89.89 5.96
-2 1 -11 96.09 5.52
2 -1 12 34.14 3.21
2 -1 12 35.69 3.18
2 -1 12 29.24 2.86
-2 1 -12 31.8 3.21
-2 1 -12 40.41 4.02
-2 1 -12 36.27 3.31
-2 1 -12 36.78 3.75
2 -1 12 31.82 3.05
-2 1 -12 38.32 3.5
2 -1 13 137.11 7.09
-2 1 -13 147.59 7.33
2 -1 13 137.29 6.87
-2 1 -13 136.04 7.89
2 -1 13 140.81 7.12
-2 1 -13 158.39 8.59
-2 1 -13 138.96 7.28
2 -1 14 21.84 2.53
-2 1 -14 24.29 3.1
2 -1 14 21.98 2.53
-2 1 -14 19.81 2.96
2 -1 14 19.28 2.28
-2 1 -14 22.59 2.68
2 -1 15 204.29 8.54
-2 1 -15 215.42 9.25
2 -1 15 211.43 9.01
-2 1 -15 246.25 10.86
2 -1 15 201.78 8.78
-2 1 -15 237.63 10.52
2 -1 16 22.81 2.4
-2 1 -16 22.96 2.85
2 -1 16 19.14 1.99
-2 1 -16 20.78 2.59
-2 1 -16 22.35 2.39
-2 1 -16 22.85 2.83
2 -1 16 17.56 2.07
2 -1 17 32.27 2.66
-2 1 -17 36.46 3.19
2 -1 17 27.61 2.13
-2 1 -17 30.43 2.72
-2 1 -17 31.69 2.69
-2 1 -17 32.46 3.08
-2 1 -18 20.69 2.05
2 -1 18 19.52 1.81
-2 1 -18 17.42 1.91
-2 1 -18 15.78 1.67
-2 1 -18 16.24 1.66
2 -1 19 160.93 5.44
-2 1 -19 152.72 5.44
-2 1 -19 151.71 5.31
-2 0 17 11.08 1.08
2 0 -17 13.7 1.48
2 0 -17 13.5 1.49
-2 0 17 9.91 1.16
2 0 -16 1.45 0.63
-2 0 16 0.21 0.34
2 0 -16 1.29 0.51
2 0 -16 1.89 0.72
2 0 -16 1.75 0.78
-2 0 16 0.81 0.52
-2 0 15 132.03 5.88
2 0 -15 136.77 6.79
2 0 -15 123.93 5.84
2 0 -15 126.21 6.24
-2 0 15 125.17 6.03
2 0 -15 134.29 5.98
2 0 -14 177.98 8.11
2 0 -14 171.43 7.66
2 0 -14 186.29 8.68
2 0 -14 191.86 7.88
-2 0 14 180.08 8.05
-2 0 14 189.31 7.77
-2 0 13 76.84 4.62
2 0 -13 75.11 4.95
2 0 -13 83.02 5.48
2 0 -13 74.02 4.7
-2 0 13 77.23 4.95
2 0 -13 88.53 4.96
-2 0 12 177.51 7.73
2 0 -12 174.75 8.22
2 0 -12 193.04 8.94
2 0 -12 189.61 8
-2 0 12 180.01 8.17
2 0 -12 169.59 7.84
-2 0 12 188.54 8.28
-2 0 11 163.83 7.55
-2 0 11 174.88 7.38
-2 0 11 165.2 7.64
2 0 -11 154.32 7.51
2 0 -11 178.53 8.42
2 0 -11 156.77 7.34
2 0 -11 175.4 7.45
-2 0 11 168.84 7.79
-2 0 10 291.48 10.7
2 0 -10 284.57 10.81
2 0 -10 293.62 11.38
-2 0 9 5.59 1.11
2 0 -9 7.96 1.45
2 0 -9 5.39 1.1
-2 0 8 929.81 26.48
2 0 -8 992.98 26.85
2 0 -8 971.41 27.34
-2 0 7 4.99 0.92
2 0 -7 4.79 1.03
2 0 -7 5.57 0.89
2 0 -7 5.69 0.99
-2 0 6 1371.79 37.4
2 0 -6 1470.73 38.33
2 0 -6 1471.91 37.56
2 0 -6 1437.22 37.69
-2 0 6 1486.5 36.79
2 0 -5 214.06 7.54
-2 0 5 198.94 6.76
-2 0 5 206.15 6.41
-2 0 4 805.67 21.87
2 0 -4 817.75 22.86
-2 0 4 876.44 21.33
-2 0 4 819.08 21.68
-2 0 3 372.17 11.04
2 0 -3 434.01 12.14
-2 0 3 394.51 11.13
2 0 -3 404.7 11.3
-2 0 3 422.13 10.99
2 0 -2 860.12 21.91
-2 0 2 770.84 20.78
2 0 -2 790.99 21.36
2 0 -2 816.96 21.18
-2 0 2 849.25 21.08
-2 0 1 812.84 21.11
2 0 -1 802.61 21.89
2 0 -1 836.45 21.63
-2 0 1 862.88 21.63
2 0 -1 841.83 22.23
-2 0 0 812.29 20.58
2 0 0 773.44 21.04
-2 0 0 812.18 21.08
2 0 0 823.34 21.46
2 0 1 4.43 0.76
-2 0 -1 5.58 0.76
-2 0 -2 152.31 4.91
2 0 2 160.62 5.45
-2 0 -2 161.52 5.48
-2 0 -2 167.22 5.56
-2 0 -3 48.36 1.91
2 0 3 47.97 2.32
2 0 3 51.68 2.54
-2 0 -3 49.19 2.53
-2 0 -3 45.81 2.47
-2 0 -3 50.4 2.56
2 0 4 26.33 1.78
-2 0 -4 24.68 1.04
-2 0 -4 24.55 1.77
2 0 4 25.35 1.66
-2 0 -4 27.19 1.86
-2 0 -4 25.93 1.81
2 0 5 424.17 11.77
2 0 5 379.72 11.32
-2 0 -5 370.33 11.47
-2 0 -5 396.97 11.79
-2 0 -5 402.82 11.7
2 0 6 7.89 1.09
2 0 6 9.58 1.1
-2 0 -6 8.27 1.15
-2 0 -6 8.39 1.12
2 0 7 734.17 20.16
2 0 7 707.52 19.94
-2 0 -7 756.48 20.56
-2 0 -7 699.09 20.13
2 0 8 146.24 5.79
2 0 8 134.73 5.66
-2 0 -8 145.16 6.04
-2 0 -8 137.44 5.84
2 0 9 74.98 3.93
2 0 9 69.18 3.86
-2 0 -9 65.66 3.84
-2 0 -9 67.64 3.93
2 0 10 878.36 24.77
2 0 10 871.92 24.88
-2 0 -10 852.93 24.76
-2 0 -10 906.4 25.25
2 0 11 279.21 10.17
2 0 11 274.5 10.26
-2 0 -11 265.01 9.97
-2 0 -11 287.77 10.63
2 0 12 0.18 0.55
-2 0 -12 -0.39 0.83
-2 0 -12 -0.05 0.64
-2 0 -12 0.18 0.94
2 0 12 -0.4 0.58
2 0 12 -0.52 0.81
-2 0 -12 -0.12 0.97
-2 0 -12 0.01 0.55
2 0 12 0 0.55
2 0 12 0.35 0.52
-2 0 -12 -0.01 0.66
-2 0 -13 763.47 23.11
-2 0 -13 795.51 25.35
-2 0 -13 772.57 24.91
2 0 13 815.53 23.69
2 0 13 711.91 22.53
2 0 13 742.74 22.47
2 0 13 756.94 23.22
-2 0 -13 768.01 23.76
-2 0 -13 785.99 23.81
2 0 14 380.22 13.61
2 0 14 343.12 12.59
-2 0 -14 399.57 15.24
-2 0 -14 372.68 14.99
-2 0 -14 369.36 13.65
2 0 14 373.18 12.99
2 0 15 2.5 0.96
2 0 15 3.07 0.97
-2 0 -15 2.76 1.39
-2 0 -15 2.65 1.29
-2 0 -15 3.96 1.26
2 0 15 2.65 0.92
-2 0 -15 0.99 0.89
2 0 16 16.82 2.15
-2 0 -16 18.56 2.35
2 0 16 19.41 2.04
-2 0 -16 15.97 2.18
-2 0 -16 17.33 2.59
-2 0 -16 16.1 2.52
-2 0 -17 0.16 0.84
-2 0 -17 -0.13 0.68
2 0 17 0.81 0.68
-2 0 -17 0.52 0.71
-2 0 -17 1.42 0.88
-2 0 -18 3.75 1.06
-2 0 -18 4.19 0.97
2 0 18 4.76 1.03
-2 0 -18 5.67 1.11
-2 0 -18 5.86 1.28
-2 0 -19 29.14 2.19
2 0 19 31.19 2.13
-2 0 -19 31.65 2.38
-2 0 -19 32.66 2.25
-2 -1 17 11.47 1.26
2 1 -17 9.25 1.12
2 1 -17 11.13 1.38
2 1 -17 13.79 1.4
-2 -1 16 23.1 2.08
2 1 -16 29.85 2.69
2 1 -16 25.06 2.28
2 1 -16 24.29 2.03
2 1 -15 130.22 6.03
-2 -1 15 130.89 6.15
2 1 -15 139.53 6.49
2 1 -15 150.97 7.21
-2 -1 14 187.79 7.97
2 1 -14 177.41 7.75
2 1 -14 184.05 8.16
2 1 -14 195.59 8.94
2 1 -13 9.86 1.67
2 1 -13 6.79 1.48
-2 -1 13 6.8 1.39
-2 -1 12 26.06 2.68
2 1 -12 28.04 2.89
2 1 -12 26.68 2.71
-2 -1 11 5.53 1.22
2 1 -11 5.18 1.28
2 1 -11 5.35 1.35
2 1 -11 7.33 1.39
-2 -1 11 6.5 1.28
2 1 -11 6.8 1.52
-2 -1 10 850.64 24.18
2 1 -10 817.7 24.51
2 1 -10 808.98 24.61
2 1 -10 816.91 24.17
-2 -1 9 185.6 7.45
2 1 -9 190.37 7.98
2 1 -9 202.74 8.21
2 1 -8 63.34 3.81
-2 -1 8 64.39 3.28
-2 -1 8 59.29 3.52
2 1 -8 62.59 3.84
-2 -1 7 9.29 1.17
-2 -1 7 10.97 1.4
-2 -1 7 9.64 1.13
2 1 -7 10.71 1.39
2 1 -7 10.32 1.38
2 1 -6 8.81 1.2
-2 -1 6 11.26 1.35
-2 -1 6 8.45 1.03
2 1 -6 9.8 1.28
-2 -1 6 8.89 1.06
-2 -1 5 15.84 1.26
2 1 -5 15.43 1.47
-2 -1 5 18.69 1.68
-2 -1 5 16.36 1.37
2 1 -5 16.11 1.53
-2 -1 4 5.51 0.68
-2 -1 4 5.73 0.92
-2 -1 4 5.4 0.8
2 1 -4 4.7 0.8
-2 -1 4 5.99 0.81
-2 -1 3 1183.49 30.94
2 1 -3 1268.47 31.98
-2 -1 3 1216.38 32.07
-2 -1 3 1288.58 31.81
-2 -1 3 1285.14 31.74
-2 -1 2 331.56 9.3
2 1 -2 316.67 9.35
-2 -1 2 316.45 8.36
2 1 -2 306.79 8.48
-2 -1 2 317.84 9.53
-2 -1 2 332.77 9.3
-2 -1 1 9032.26 222.37
-2 -1 1 9284.42 222.05
2 1 -1 9149.2 222.29
2 1 -1 9063.7 221.8
-2 -1 0 2851.92 14.62
-2 -1 0 2865.23 12.2
-2 -1 -1 9999 239.33
-2 -1 -1 9864.87 239.25
2 1 1 9796.91 239.05
2 1 1 9713.14 239.46
-2 -1 -1 9861.57 239.04
-2 -1 -2 3892.66 94.36
-2 -1 -2 3818.96 94.21
2 1 2 3855.66 94.66
-2 -1 -2 3842.93 94.29
2 1 2 3824.83 94.26
-2 -1 -3 1.39 0.5
-2 -1 -3 2.21 0.41
-2 -1 -3 1.66 0.47
2 1 3 1.45 0.4
-2 -1 -3 1.04 0.4
-2 -1 -4 818.09 22.84
2 1 4 975.19 23.91
-2 -1 -4 923.65 23.6
2 1 4 982.52 23.27
2 1 4 882.18 23.79
-2 -1 -4 912.03 23.78
-2 -1 -4 894.77 23.91
-2 -1 -5 84.37 3.5
-2 -1 -5 85.9 3.76
2 1 5 95.47 3.97
2 1 5 88.42 3.44
2 1 5 80.06 3.66
-2 -1 -5 85.78 3.76
2 1 6 126.58 4.73
2 1 6 125.29 5.07
-2 -1 -6 124.46 4.69
2 1 6 145.8 5.34
-2 -1 -6 135.02 5.22
-2 -1 -6 130.54 5.13
2 1 7 233.25 7.65
-2 -1 -7 224.47 7.37
2 1 7 240.87 7.99
2 1 7 233.9 8.05
-2 -1 -7 228.25 7.99
-2 -1 -7 235.39 8.01
2 1 8 120.04 4.98
-2 -1 -8 130.16 5.42
-2 -1 -8 106.78 4.46
2 1 8 121.58 5.11
2 1 8 124.87 5.36
-2 -1 -8 126.61 5.35
2 1 9 7.76 1.17
2 1 9 8.49 1.22
-2 -1 -9 6.88 0.94
2 1 9 7.9 1.27
-2 -1 -9 7.44 1.2
-2 -1 -9 9.04 1.33
2 1 10 2.81 0.82
2 1 10 1.66 0.66
-2 -1 -10 1.96 0.72
-2 -1 -10 3.93 0.98
2 1 11 120.7 6.01
2 1 11 114.22 5.57
-2 -1 -11 109.44 5.65
-2 -1 -11 130.63 6.22
-2 -1 -12 1.85 0.86
-2 -1 -12 3.96 1.1
-2 -1 -12 1.31 0.67
-2 -1 -12 1 0.81
2 1 12 3.08 1.06
2 1 12 2.08 0.85
2 1 12 0.64 0.7
2 1 13 210.76 8.93
-2 -1 -13 213.56 9.48
-2 -1 -13 205.92 10.06
-2 -1 -13 224.71 10.31
-2 -1 -13 206.49 9
2 1 13 223.06 9.46
-2 -1 -13 208.64 8.94
2 1 13 197.4 8.59
2 1 14 47.99 3.73
-2 -1 -14 49.3 4.46
-2 -1 -14 44.56 3.75
-2 -1 -14 44.53 4.33
-2 -1 -14 46.1 4.05
2 1 15 529.91 17.52
-2 -1 -15 574.48 19.49
-2 -1 -15 544.89 18.08
-2 -1 -15 550.36 19.66
-2 -1 -15 563.13 18.77
2 1 15 528.53 17.49
2 1 16 51.46 3.75
-2 -1 -16 56.79 4.15
-2 -1 -16 59.18 4.66
-2 -1 -16 56.44 4.78
-2 -1 -16 54.21 4.24
2 1 16 49.74 3.64
2 1 17 0.22 0.53
-2 -1 -17 -0.05 0.89
-2 -1 -17 0.9 0.83
-2 -1 -17 0.39 0.66
-2 -1 -17 1.19 0.75
2 1 17 0.31 0.43
-2 -1 -18 75.86 4.77
-2 -1 -18 70.48 4.29
-2 -1 -18 75.12 4.23
2 1 18 66.72 3.72
2 1 18 66.49 3.66
-2 -1 -19 32.14 2.36
2 1 19 27.99 1.93
-2 -1 -19 27.52 2.37
-2 -1 -19 27.32 2.16
-2 -2 17 0.67 0.44
-2 -2 17 -0.49 0.41
2 2 -17 0.64 0.34
2 2 -17 0.22 0.45
2 2 -16 47.78 3.02
-2 -2 16 47.06 3.02
2 2 -16 44.37 2.67
2 2 -16 52.29 3.51
-2 -2 15 4.64 1.08
2 2 -15 4.21 1
2 2 -15 5.58 1.31
2 2 -15 5.22 1.09
-2 -2 14 46.29 3.49
2 2 -14 44.56 3.32
-2 -2 14 44.51 3.08
2 2 -14 45.37 3.47
-2 -2 13 6.1 1.4
-2 -2 13 7.16 1.32
2 2 -13 7.18 1.44
-2 -2 13 6.42 1.3
2 2 -13 9.23 1.69
-2 -2 12 375.82 13.18
-2 -2 12 368.06 12.71
2 2 -12 361.87 12.8
-2 -2 12 344.82 12.42
-2 -2 11 21.03 2.4
-2 -2 11 22.51 2.35
-2 -2 11 21.03 2.29
2 2 -11 22.41 2.4
-2 -2 10 187.95 8
2 2 -10 176.41 7.69
-2 -2 10 182.84 7.77
2 2 -10 179.41 7.84
-2 -2 10 183.05 7.71
2 2 -10 185.57 8.43
-2 -2 9 519.79 16.06
2 2 -9 527.74 16.55
2 2 -9 561.97 17.43
-2 -2 8 295.21 9.86
-2 -2 8 293.96 9.85
2 2 -8 289.48 10.12
-2 -2 8 286.1 9.85
2 2 -8 306.91 10.81
2 2 -7 12.53 1.43
-2 -2 7 9.67 1.26
-2 -2 7 10.46 1.3
-2 -2 7 11.03 1.3
2 2 -7 10.1 1.45
-2 -2 6 391.78 11.78
2 2 -6 369.8 11.48
-2 -2 6 373.03 11.57
-2 -2 6 368.94 11.58
2 2 -6 397.18 12.22
-2 -2 5 632.52 17.21
-2 -2 5 642.72 17.42
2 2 -5 644.55 17.67
-2 -2 5 619.3 17.17
2 2 -4 20.36 1.49
-2 -2 4 23.07 1.8
-2 -2 4 23.57 1.74
-2 -2 4 17.57 1.53
2 2 -4 21.8 1.79
2 2 -3 47.87 2.3
-2 -2 3 52.75 2.7
-2 -2 3 48.79 2.55
-2 -2 3 46.81 2.47
2 2 -3 44.44 1.76
2 2 -2 115.28 4.02
-2 -2 2 117.44 4.42
-2 -2 2 113.02 4.36
-2 -2 2 115.22 4.46
2 2 -1 210.02 6.04
-2 -2 1 217.92 6.66
-2 -2 1 204.85 6.14
-2 -2 1 216.98 6.57
2 2 -1 193.11 5.37
-2 -2 1 221.31 6.63
-2 -2 1 190.93 5.15
2 2 0 3.61 0.29
-2 -2 0 4.7 0.63
-2 -2 0 4.51 0.68
-2 -2 0 4.5 0.43
-2 -2 0 3.87 0.66
2 2 0 3.99 0.43
2 2 1 664.66 16.34
-2 -2 -1 638.34 17.58
-2 -2 -1 652.19 17.36
-2 -2 -1 691.67 17.52
-2 -2 -1 638.97 17.46
2 2 1 661.69 16.93
-2 -2 -1 637.13 16.9
2 2 2 952.3 23.08
-2 -2 -2 874.61 24
-2 -2 -2 912.54 24.1
-2 -2 -2 911.44 23.95
-2 -2 -2 933.8 23.77
2 2 2 934.28 23.74
2 2 2 899.35 24
-2 -2 -2 938.65 23.75
2 2 3 127.32 3.97
-2 -2 -3 116.67 4.42
-2 -2 -3 123.31 4.11
2 2 3 127.94 4.48
-2 -2 -3 129.75 4.56
2 2 3 126.43 4.58
2 2 3 127.92 4.73
-2 -2 -3 132.12 4.51
-2 -2 -4 36.79 2.05
2 2 4 40.19 1.9
-2 -2 -4 41.85 2.23
2 2 4 42.12 2.38
-2 -2 -4 40 2.22
2 2 5 87.7 3.43
-2 -2 -5 84.58 3.64
2 2 5 83.78 3.81
-2 -2 -5 84.65 3.71
2 2 6 743.17 19.87
-2 -2 -6 698.05 19.92
-2 -2 -6 731.75 20.25
-2 -2 -6 730.35 19.95
2 2 7 1347.41 34.85
2 2 7 1319.78 35.11
-2 -2 -7 1290.84 34.77
2 2 7 1381.76 35.51
-2 -2 -7 1348.48 35.29
-2 -2 -7 1363.24 34.95
-2 -2 -8 5.12 0.9
2 2 8 4.01 0.83
2 2 8 3.08 0.77
-2 -2 -8 2.81 0.74
-2 -2 -8 4.36 0.86
2 2 8 3.19 0.8
2 2 9 1045.21 29.21
-2 -2 -9 1100.88 29.34
2 2 9 1077.27 29.67
2 2 9 1106.58 30.02
-2 -2 -9 1088.67 29.86
-2 -2 -10 8.51 1.23
2 2 10 7.31 1.23
2 2 10 7.39 1.28
2 2 10 7.39 1.34
-2 -2 -10 9.17 1.5
2 2 11 1.78 0.78
2 2 11 0.77 0.68
-2 -2 -11 1.33 0.77
2 2 11 0.14 0.44
2 2 12 75.1 4.58
2 2 12 72.74 4.41
-2 -2 -12 78.29 5.45
-2 -2 -12 74.68 5.19
-2 -2 -12 70.85 4.35
2 2 12 72.37 4.53
2 2 12 86.83 5.19
-2 -2 -12 74.98 4.59
-2 -2 -12 73 4.71
2 2 13 348.54 12.43
-2 -2 -13 369.06 14.44
-2 -2 -13 357.22 13.86
-2 -2 -13 347.38 12.82
-2 -2 -13 351.99 12.98
2 2 13 380.2 13.61
2 2 14 73.48 4.53
-2 -2 -14 70.62 5.53
-2 -2 -14 83.85 5.61
-2 -2 -14 73.43 4.8
2 2 14 75.56 4.8
-2 -2 -15 196.88 8.66
2 2 15 186.87 7.92
-2 -2 -15 206.99 10.07
-2 -2 -15 201.5 9.33
2 2 15 187.3 8.33
2 2 16 83.85 4.59
-2 -2 -16 99.69 6.4
-2 -2 -16 91.27 5.67
-2 -2 -16 93.66 5.39
2 2 16 88.08 5.03
-2 -2 -17 -0.37 0.85
2 2 17 1 0.5
-2 -2 -17 0.95 0.83
-2 -2 -17 1.86 0.91
2 2 17 1.64 0.75
2 2 18 96.25 4.28
-2 -2 -18 115.83 5.99
2 2 18 108.36 5.01
-2 -2 -18 103.02 5.18
-2 -2 -18 122.26 5.51
-2 -2 -19 1.18 0.7
-2 -2 -19 0.99 0.6
-2 -2 -19 -0.16 0.41
2 2 19 0.58 0.43
-2 -3 16 4.9 0.89
-2 -3 16 5.87 1
2 3 -16 5.58 1.03
2 3 -16 5.95 0.93
-2 -3 16 4.59 0.72
-2 -3 15 13.43 1.65
2 3 -15 10.56 1.32
2 3 -15 10.83 1.43
-2 -3 15 11.17 1.34
-2 -3 14 147.78 6.64
2 3 -14 131.97 6.01
2 3 -14 137.75 6.28
-2 -3 14 137.09 6.1
-2 -3 13 18.82 2.32
2 3 -13 15.15 1.97
-2 -3 13 16.66 2.02
2 3 -13 17.4 2.12
-2 -3 13 18.67 2.14
2 3 -12 1.75 0.89
-2 -3 12 2.24 0.88
-2 -3 12 1 0.76
-2 -3 12 0.89 0.68
-2 -3 11 76.51 4.92
2 3 -11 71.92 4.59
-2 -3 11 76.24 4.69
-2 -3 11 78.64 4.88
-2 -3 10 0.32 0.53
-2 -3 10 1.47 0.75
-2 -3 10 0.11 0.59
-2 -3 10 0.9 0.83
-2 -3 9 58.96 4.1
-2 -3 9 65.18 4.16
-2 -3 9 58.58 3.79
-2 -3 9 63.36 4.23
-2 -3 9 57.28 3.86
2 3 -9 70.85 4.64
-2 -3 9 61 3.97
-2 -3 8 274.32 9.98
-2 -3 8 269.88 10.08
-2 -3 7 866.81 24.91
-2 -3 7 848.48 24.64
-2 -3 7 900.21 24.35
2 3 -7 925.43 25.64
-2 -3 6 47.57 2.87
-2 -3 6 39.59 2.83
-2 -3 6 41.21 2.8
2 3 -6 47.87 3.24
-2 -3 5 35.69 2.44
-2 -3 5 38.49 2.57
-2 -3 5 34.64 2.52
2 3 -5 36.91 2.68
-2 -3 4 1237.52 32.11
-2 -3 4 1172.7 31.96
-2 -3 4 1242.13 32.22
2 3 -4 1210.23 32.27
-2 -3 3 714.47 20
-2 -3 3 761.9 20.25
-2 -3 3 742.57 20.17
2 3 -3 709.42 18.94
2 3 -3 732.86 20.14
-2 -3 2 10.03 1.19
-2 -3 2 11.95 1.26
-2 -3 2 11.18 1.23
-2 -3 2 9.58 0.92
2 3 -2 7.7 0.83
2 3 -2 9.86 1.14
-2 -3 1 991.84 25.63
-2 -3 1 1015.52 26.47
-2 -3 1 988.7 26.15
-2 -3 1 1007.36 26.26
2 3 -1 967.97 25.62
2 3 0 159.3 5.1
-2 -3 0 158.02 5.88
2 3 0 171.13 4.81
-2 -3 0 160.08 5.7
-2 -3 0 154.47 5.43
-2 -3 0 153.4 5.57
2 3 1 990.05 24.46
-2 -3 -1 972.11 25.07
-2 -3 -1 978.34 25.52
-2 -3 -1 931.55 24.98
-2 -3 -1 936.1 25.11
2 3 1 957.31 25.15
-2 -3 -1 930.54 24.28
2 3 2 35.25 1.82
-2 -3 -2 35.03 2.12
-2 -3 -2 35.18 1.87
-2 -3 -2 33.37 1.98
-2 -3 -2 32.44 2.03
2 3 2 35.16 2.09
-2 -3 -2 33.99 2.2
2 3 3 457.98 12.44
-2 -3 -3 462.31 13.04
-2 -3 -3 436.23 13.03
-2 -3 -3 453.17 12.52
-2 -3 -3 428 12.76
2 3 3 445.32 12.72
2 3 3 448.79 12.91
-2 -3 -3 446.36 12.62
2 3 4 528.71 14.56
-2 -3 -4 539.42 15.13
-2 -3 -4 523.51 14.16
2 3 4 514.25 14.96
2 3 4 530.5 14.67
-2 -3 -4 518.66 14.84
-2 -3 -5 440.98 12.96
2 3 5 428.09 12.43
2 3 5 417.97 12.83
-2 -3 -5 434.33 12.84
-2 -3 -6 80.6 4.02
2 3 6 84.3 3.84
2 3 6 82.28 4.08
-2 -3 -6 88.6 4.18
2 3 7 204.03 7.52
-2 -3 -7 218.78 7.9
2 3 7 217.58 8
-2 -3 -7 221.94 8.04
2 3 8 55.16 3.31
-2 -3 -8 55.87 3.45
2 3 8 51.68 3.41
-2 -3 -8 59.47 3.61
2 3 9 44.49 3.1
-2 -3 -9 45.56 3.22
2 3 9 40.86 3.17
-2 -3 -9 47.08 3.32
2 3 10 109.3 5.46
2 3 10 114.79 5.79
2 3 10 102.97 5.58
-2 -3 -10 113.11 5.73
-2 -3 -10 103.66 5.31
2 3 11 786.73 22.91
-2 -3 -11 748.9 22.64
-2 -3 -11 735.01 22.52
-2 -3 -11 730.5 24.09
2 3 11 806.13 23.34
-2 -3 -11 759.94 23.68
-2 -3 -11 746.96 22.7
-2 -3 -11 762.2 22.37
2 3 11 816.85 23.52
-2 -3 -11 807.19 23.35
-2 -3 -12 1613.39 47.02
2 3 12 1661.94 45.37
-2 -3 -12 1674.6 44.94
-2 -3 -12 1646.84 46.26
-2 -3 -12 1626 44.92
-2 -3 -12 1641.24 45.25
2 3 12 1701.07 45.75
2 3 12 1780.93 46.16
-2 -3 -12 1764.86 45.93
-2 -3 -13 206.14 10.1
-2 -3 -13 198.23 9.27
-2 -3 -13 210.19 8.87
-2 -3 -13 211.53 8.55
-2 -3 -13 199.46 8.3
2 3 13 208.72 8.81
-2 -3 -14 8.06 1.96
-2 -3 -14 6.09 1.23
-2 -3 -14 4.77 1.11
-2 -3 -14 5.3 1.42
2 3 14 7.54 1.46
-2 -3 -15 18.79 2.8
-2 -3 -15 13.42 2.08
2 3 15 20.78 2.35
-2 -3 -15 16.57 2.15
2 3 15 19.02 2.23
-2 -3 -16 16.14 2.48
-2 -3 -16 14.84 2.06
-2 -3 -16 14.78 1.97
2 3 16 16.03 1.96
2 3 16 12.79 1.76
-2 -3 -17 82.38 4.6
-2 -3 -17 80.47 4.58
-2 -3 -17 78.98 5.14
2 3 17 74.26 4.11
2 3 17 78.84 4.3
-2 -3 -18 175.5 7.54
-2 -3 -18 164.42 6.64
-2 -3 -18 185.13 7.12
2 3 18 175.95 6.7
-2 -3 -19 4.95 0.94
2 3 19 5.21 0.83
-2 -4 15 0.43 0.47
2 4 -15 0.7 0.48
-2 -4 15 0.87 0.49
-2 -4 15 1.05 0.5
2 4 -15 1.35 0.56
-2 -4 14 94.11 4.73
2 4 -14 88.56 4.32
-2 -4 14 88.55 4.47
2 4 -14 87.55 4.18
-2 -4 14 86.42 4.55
-2 -4 13 110.9 5.63
-2 -4 13 106.09 5.27
-2 -4 13 107.16 5.44
2 4 -13 96.16 4.94
-2 -4 12 52.48 3.88
-2 -4 12 51.4 3.65
2 4 -12 44.48 3.35
-2 -4 12 55.45 3.94
-2 -4 11 79.73 5.11
-2 -4 11 91.65 5.18
-2 -4 11 87.24 5.3
-2 -4 11 86.51 4.86
-2 -4 10 34.5 3.24
-2 -4 10 34.54 3.09
-2 -4 10 33.45 3.23
-2 -4 10 33.23 2.95
-2 -4 9 234.32 9.8
-2 -4 9 232.34 9.52
-2 -4 9 247.8 10.08
-2 -4 9 229.4 9.38
-2 -4 8 208.81 8.92
-2 -4 8 208.97 8.61
-2 -4 8 184.23 8.17
-2 -4 8 201.94 9.84
-2 -4 8 211.18 8.41
-2 -4 8 208.59 9.04
-2 -4 8 192.58 8.44
2 4 -8 213.9 9.1
-2 -4 8 205.55 8.57
-2 -4 7 90.67 5.27
-2 -4 7 91.47 5.06
-2 -4 7 87.41 5.88
-2 -4 7 80.02 4.74
-2 -4 7 94.52 5.06
-2 -4 7 98.68 5.25
-2 -4 7 107.28 5.73
-2 -4 7 93.57 5.15
2 4 -7 94.1 5.32
-2 -4 6 0.33 0.38
-2 -4 6 1.22 0.63
2 4 -6 0.11 0.61
-2 -4 5 35.49 2.58
-2 -4 5 34.86 2.77
-2 -4 5 41.37 3.04
2 4 -5 39.41 2.98
-2 -4 4 17.59 1.84
-2 -4 4 15.78 1.67
-2 -4 4 16.19 1.83
2 4 -4 18 1.9
-2 -4 3 1635.69 42.61
-2 -4 3 1594.06 42.67
2 4 -3 1674.6 42.71
-2 -4 3 1616.64 42.71
-2 -4 2 1855.43 47.05
-2 -4 2 1793 46.86
2 4 -2 1802.11 46.15
-2 -4 2 1789.46 46.86
2 4 -2 1824.65 46.67
2 4 -1 104.84 4.37
-2 -4 1 101.74 4.69
-2 -4 1 95.62 4
-2 -4 1 95.91 4.49
-2 -4 1 92.36 4.39
2 4 -1 96.23 4.2
2 4 -1 101.88 4.28
2 4 0 73.7 3.38
-2 -4 0 67.18 3.69
-2 -4 0 70.46 3.33
-2 -4 0 64.62 3.44
-2 -4 0 68.47 3.5
2 4 0 62.16 3.27
2 4 0 65.63 3.05
2 4 0 69.21 3.17
2 4 1 179.57 6.22
-2 -4 -1 179.36 6.43
-2 -4 -1 178.93 6.89
-2 -4 -1 162.62 6.28
-2 -4 -1 176.55 6.46
2 4 1 170.9 6.43
2 4 1 179.84 6.05
2 4 1 174.68 5.86
2 4 2 436.26 12.32
-2 -4 -2 406.55 12.57
2 4 2 401.53 12.61
2 4 2 428.75 12.13
-2 -4 -2 403.98 12.42
-2 -4 -2 403.36 12.25
2 4 3 120.93 4.85
-2 -4 -3 122.14 5.24
-2 -4 -3 118.15 4.71
2 4 3 118.53 5.15
2 4 3 120.36 4.81
-2 -4 -3 126.61 5.14
-2 -4 -4 799.27 21.84
2 4 4 781.9 21.24
-2 -4 -4 767.85 20.63
2 4 4 747.74 21.55
2 4 4 765.5 21.13
-2 -4 -4 759.94 21.15
2 4 5 0.43 0.35
-2 -4 -5 0.14 0.41
-2 -4 -5 0.44 0.37
2 4 5 0.55 0.4
2 4 5 1.22 0.56
-2 -4 -6 90.55 4.68
2 4 6 87.59 4.31
2 4 6 85.63 4.47
2 4 6 83.58 4.25
-2 -4 -6 83.77 4.26
-2 -4 -7 49.59 3.44
2 4 7 46.62 3.15
2 4 7 45.39 3.16
2 4 7 48.62 3.2
-2 -4 -7 45.68 3.11
2 4 8 64.76 3.93
-2 -4 -8 67.49 4.2
2 4 8 60.8 3.78
2 4 8 64.81 3.95
-2 -4 -8 63.16 3.9
2 4 9 3.63 0.93
2 4 9 5.71 1.1
-2 -4 -9 5.58 1.19
2 4 9 3.82 1.03
-2 -4 -9 2.66 0.79
2 4 10 16.37 2.08
-2 -4 -10 18.06 2.19
-2 -4 -10 18.05 2.4
-2 -4 -10 16.31 2.39
-2 -4 -10 19.59 2.19
2 4 10 19.93 2.12
2 4 10 14.5 1.95
-2 -4 -10 19.42 2.26
-2 -4 -10 17.76 2.18
-2 -4 -11 152.46 7.08
2 4 11 167.72 7.56
-2 -4 -11 154.67 8.35
-2 -4 -11 160.45 7.86
-2 -4 -11 158.34 7.21
-2 -4 -11 147.34 7.11
-2 -4 -11 161.34 7.41
2 4 11 148.12 6.94
2 4 11 152.76 7.32
-2 -4 -11 166.48 7.63
-2 -4 -12 0.17 0.73
-2 -4 -12 1.44 0.85
-2 -4 -12 0.43 0.98
-2 -4 -12 0.81 0.92
2 4 12 1.35 0.77
-2 -4 -12 1.77 1.12
-2 -4 -13 0.46 0.88
-2 -4 -13 0.85 0.61
-2 -4 -13 0.65 0.53
2 4 13 0.21 0.54
-2 -4 -13 0.41 0.76
-2 -4 -14 247.26 10.9
-2 -4 -14 226.45 9.6
-2 -4 -14 219.08 8.58
-2 -4 -14 223.42 9.29
2 4 14 206.69 8.66
-2 -4 -15 32.38 3.49
-2 -4 -15 33.94 3.06
2 4 15 39.12 3.13
-2 -4 -15 32.94 2.98
2 4 15 33.66 2.75
-2 -4 -15 31.81 2.49
-2 -4 -16 68.14 4.73
-2 -4 -16 54.97 3.72
2 4 16 59.05 3.77
2 4 16 53.76 3.42
-2 -4 -16 61.4 3.93
-2 -4 -17 40.59 2.86
2 4 17 43.5 2.91
2 4 17 43.72 2.8
-2 -4 -18 0.27 0.64
-2 -4 -18 -1.04 0.5
2 4 18 -0.45 0.42
-2 -5 14 205.38 7.11
-2 -5 13 25.85 1.95
2 5 -13 23.92 1.9
-2 -5 13 26.14 2.27
2 5 -13 25.97 1.96
-2 -5 12 1.27 0.53
2 5 -12 0.69 0.43
-2 -5 12 -0.27 0.58
-2 -5 12 0.76 0.58
-2 -5 12 0.64 0.59
-2 -5 11 27.97 2.55
-2 -5 11 27.51 2.6
-2 -5 11 32.99 3.02
-2 -5 11 30.09 2.58
-2 -5 10 21.99 2.39
-2 -5 10 15.23 2
-2 -5 10 20.38 2.49
-2 -5 10 18.38 2.15
-2 -5 9 80.39 4.91
-2 -5 9 84.65 5.38
-2 -5 9 76.66 4.78
-2 -5 8 173.71 7.85
-2 -5 8 177.16 8.95
-2 -5 8 173.59 7.64
-2 -5 8 182.36 8.59
-2 -5 8 178.32 7.99
-2 -5 7 313.65 11.6
-2 -5 7 314.12 13.02
-2 -5 7 308.74 11.46
-2 -5 7 327.29 12.61
-2 -5 7 311.86 11.74
-2 -5 6 69.16 4.47
-2 -5 6 70.15 4.43
-2 -5 6 65.78 4.3
-2 -5 6 71.66 5.31
-2 -5 6 71.01 4.98
-2 -5 6 69.34 4.59
2 5 -6 74 4.67
-2 -5 6 72.5 4.61
-2 -5 5 103.42 5.84
-2 -5 5 102.39 5.59
-2 -5 5 106.81 5.54
-2 -5 5 110.91 6.6
-2 -5 5 105.26 5.72
-2 -5 5 112.34 5.96
-2 -5 5 112 6.3
-2 -5 5 108.56 5.63
2 5 -5 101.77 5.52
-2 -5 5 106.56 5.75
-2 -5 4 141.61 6.8
-2 -5 4 141.73 6.91
-2 -5 4 144.89 7.28
-2 -5 4 150.07 7.68
-2 -5 4 153.47 6.88
-2 -5 4 138.64 6.63
-2 -5 4 152.21 7.49
-2 -5 4 141.22 6.77
-2 -5 4 151.36 7.01
2 5 -4 144.11 6.5
-2 -5 3 88.77 4.91
-2 -5 3 90.71 4.99
-2 -5 2 254.12 9.41
-2 -5 2 241.46 9.27
-2 -5 1 214.26 8.47
-2 -5 1 224.11 8.57
2 5 -1 236.74 8.46
-2 -5 0 165.08 6.34
-2 -5 0 153.27 6.59
2 5 0 156.86 6.54
-2 -5 0 162.2 6.72
-2 -5 -1 25.49 2.18
-2 -5 -1 20.25 1.98
2 5 1 24.61 2.23
-2 -5 -1 25.87 2.27
-2 -5 -2 837.75 23.17
-2 -5 -2 788.42 22.64
2 5 2 808.65 23.19
-2 -5 -3 56.61 3.61
2 5 3 53.28 3.53
-2 -5 -4 7.95 1.36
2 5 4 6.41 1.19
2 5 5 0.68 0.56
2 5 5 0.74 0.37
-2 -5 -5 0.86 0.57
2 5 6 0.01 0.54
-2 -5 -6 1.3 0.57
-2 -5 -6 2.38 0.91
-2 -5 -6 2 0.73
2 5 6 1.05 0.6
-2 -5 -6 0.63 0.75
2 5 7 -0.22 0.59
-2 -5 -7 0.08 0.51
-2 -5 -7 0.41 0.96
-2 -5 -7 0.33 0.64
-2 -5 -7 1.75 1.02
-2 -5 -7 0.22 0.56
-2 -5 -7 0.51 0.56
2 5 7 0.37 0.61
2 5 8 132.04 6.45
-2 -5 -8 146.69 7.12
-2 -5 -8 147.59 7.86
-2 -5 -8 145.57 7.49
-2 -5 -8 133.03 6.29
-2 -5 -8 129.46 6.49
2 5 8 132.2 6.51
-2 -5 -9 220.33 8.71
-2 -5 -9 240.49 10.25
-2 -5 -9 220.67 9.06
-2 -5 -9 236.45 10.67
2 5 9 200.69 8.72
-2 -5 -10 17.51 2.67
-2 -5 -10 18.89 2.55
-2 -5 -10 17.91 2.21
-2 -5 -11 17.85 2.72
-2 -5 -11 15.03 2.31
-2 -5 -11 15.24 2.01
2 5 11 14.99 1.81
-2 -5 -12 10.81 1.91
-2 -5 -12 8.77 1.52
2 5 12 9.36 1.48
-2 -5 -12 10.62 2
-2 -5 -13 92.92 5.48
-2 -5 -13 84.12 5.1
-2 -5 -13 93.97 6.13
-2 -5 -13 82.78 4.71
2 5 13 79.38 4.41
-2 -5 -14 266.59 10.94
2 5 14 224.43 8.61
-2 -5 -14 232.04 9.26
-2 -5 -14 251.91 9.81
2 5 14 257.64 9.46
-2 -5 -14 250.31 9.02
-2 -5 -15 7.16 1.46
-2 -5 -15 7.44 1.21
-2 -5 -15 8.02 1.32
2 5 15 7.94 1.34
2 5 15 6.62 1.06
-2 -5 -15 9.87 1.24
2 5 16 251.41 8.53
-2 -5 -16 221.28 7.63
-2 -5 -16 241.7 8.43
2 5 16 221.87 7.79
2 5 17 1.64 0.59
2 5 17 1.91 0.51
-2 -5 -17 1.08 0.63
-2 -6 12 177.96 6.3
-2 -6 12 153.94 5.58
2 6 -11 28.84 2.12
-2 -6 11 29.56 2.42
-2 -6 11 30.3 2.29
2 6 -10 16.14 1.77
-2 -6 10 14.12 1.86
-2 -6 10 14.65 1.76
-2 -6 9 37.44 2.98
-2 -6 9 42.86 3.43
-2 -6 9 37.12 3.03
-2 -6 8 21.87 2.28
-2 -6 8 24.31 2.45
-2 -6 8 25.11 2.78
-2 -6 8 23.56 2.45
-2 -6 7 99.71 5.43
-2 -6 7 103.47 5.53
-2 -6 7 107.11 6.18
-2 -6 7 105.21 6.2
-2 -6 7 104.88 5.71
-2 -6 6 7.28 1.68
-2 -6 6 5.18 1.3
-2 -6 6 6.03 1.34
-2 -6 6 9.63 1.55
-2 -6 6 6.63 1.5
-2 -6 5 21.04 2.41
-2 -6 5 28.68 3.1
-2 -6 5 24.15 2.99
-2 -6 5 27.01 2.78
-2 -6 4 159.71 8.26
-2 -6 4 166.78 8.29
-2 -6 4 160.28 7.64
-2 -6 4 157.24 7.4
-2 -6 4 151.06 7.35
-2 -6 3 80.64 5.1
-2 -6 3 80.56 4.92
-2 -6 3 83.98 5.61
-2 -6 3 78.13 5.43
-2 -6 3 75.07 4.9
-2 -6 3 75.81 5.24
-2 -6 3 70.79 4.66
-2 -6 2 70.38 4.7
-2 -6 2 75.9 5.08
-2 -6 2 72.72 4.57
-2 -6 2 68.89 4.53
-2 -6 2 69.84 5.05
-2 -6 2 74.34 4.81
-2 -6 2 70.55 4.51
-2 -6 1 9.37 1.59
-2 -6 1 9.3 1.76
-2 -6 1 7.5 1.58
-2 -6 1 5.67 1.3
-2 -6 1 5.88 1.19
-2 -6 1 8.68 1.64
-2 -6 1 9.53 1.69
-2 -6 1 9.1 1.62
-2 -6 0 785.47 23.37
-2 -6 0 815.96 23.89
-2 -6 0 791.63 23.25
-2 -6 0 807.03 24.31
-2 -6 0 747.07 23.01
-2 -6 0 801.23 23.62
2 6 0 772.89 23.07
-2 -6 0 764.8 22.83
-2 -6 -1 14.28 1.99
-2 -6 -1 15.85 2.16
-2 -6 -1 18.07 2.21
-2 -6 -1 15.97 2.29
-2 -6 -1 14.09 1.92
-2 -6 -1 13.85 1.88
-2 -6 -1 13.12 1.82
-2 -6 -1 15.58 2.16
2 6 1 13.38 1.91
-2 -6 -1 14.91 2.07
-2 -6 -2 8.97 1.58
-2 -6 -2 9.51 1.64
-2 -6 -2 8.03 1.55
-2 -6 -2 10.3 1.87
-2 -6 -2 5.83 1.28
-2 -6 -2 7.4 1.43
-2 -6 -2 10.15 1.69
2 6 2 6.19 1.3
-2 -6 -2 7.04 1.43
-2 -6 -3 653.7 20.37
-2 -6 -3 636.27 20.34
-2 -6 -3 669.34 20.73
-2 -6 -3 657.01 20.46
-2 -6 -3 695.89 21.72
-2 -6 -3 682.31 21
-2 -6 -3 737.43 21.4
2 6 3 648.74 20.51
-2 -6 -3 636.47 20.04
-2 -6 -3 678.59 20.83
-2 -6 -4 772.16 22.97
-2 -6 -4 724.75 23.09
-2 -6 -4 768.6 23.24
-2 -6 -4 809.61 24.38
-2 -6 -4 742.67 22.95
-2 -6 -4 767.32 23.3
-2 -6 -4 782.77 23.53
2 6 4 731.89 23.01
-2 -6 -5 2.33 0.9
-2 -6 -5 0.82 0.88
-2 -6 -5 2.97 1.11
-2 -6 -5 0.41 0.52
-2 -6 -5 1.35 0.97
-2 -6 -5 1.35 0.81
-2 -6 -5 0 0.59
-2 -6 -5 0.13 0.86
-2 -6 -6 56.07 3.87
-2 -6 -6 56.23 3.94
-2 -6 -6 54.86 3.92
-2 -6 -6 55.82 4.45
-2 -6 -6 56.41 4.07
-2 -6 -6 62.21 4.91
-2 -6 -6 58.98 4.18
-2 -6 -7 316.37 11.59
-2 -6 -7 356.99 13.74
-2 -6 -7 315.13 12.74
-2 -6 -7 314.2 11.63
-2 -6 -7 323.98 12.06
-2 -6 -7 325.63 12.01
-2 -6 -7 345.19 13.38
-2 -6 -8 1.18 0.66
-2 -6 -8 -0.04 0.84
-2 -6 -8 0.83 0.95
-2 -6 -8 0.29 0.89
-2 -6 -8 0.29 0.54
-2 -6 -8 0.21 0.59
-2 -6 -9 39.1 3.03
-2 -6 -9 40.32 3.92
-2 -6 -9 36.54 3.49
-2 -6 -9 36.54 3.18
-2 -6 -9 41.36 3.85
-2 -6 -10 10.14 1.96
-2 -6 -10 7.31 1.59
-2 -6 -10 6.9 1.57
-2 -6 -10 6.2 1.31
-2 -6 -11 106.75 6.21
-2 -6 -11 110.97 5.71
-2 -6 -11 117.01 6.82
-2 -6 -11 120.9 6.55
-2 -6 -12 2.98 1.04
-2 -6 -12 3.68 1.07
-2 -6 -12 3.47 1.02
2 6 12 2.83 0.79
-2 -6 -12 3.45 0.95
-2 -6 -13 1.34 0.74
-2 -6 -13 2.82 0.97
-2 -6 -13 3.53 1.01
2 6 13 3.55 0.95
-2 -6 -13 2.29 0.72
-2 -6 -14 22.71 2.34
-2 -6 -14 15.91 1.78
2 6 14 18.71 1.78
-2 -6 -14 18.01 1.69
2 6 15 6.15 0.87
-2 -6 -15 10.28 1.44
-2 -6 -15 7.59 0.92
-2 -6 -15 7.13 1.04
2 6 15 7.01 1.01
2 6 16 36.13 1.99
-2 -7 10 28.13 1.89
-2 -7 10 26.35 1.63
2 7 -9 72.89 3.45
-2 -7 9 67.29 3.37
-2 -7 9 78.73 3.82
-2 -7 8 0.76 0.52
-2 -7 8 0.68 0.45
-2 -7 7 92.65 4.75
-2 -7 7 101.21 5.07
-2 -7 6 63.16 3.93
-2 -7 6 61.38 3.92
-2 -7 6 57.57 3.75
-2 -7 6 68.43 4.14
-2 -7 5 11.84 1.74
-2 -7 5 10.26 1.62
-2 -7 5 11.24 1.67
-2 -7 5 11.72 1.68
-2 -7 4 51.46 3.96
-2 -7 4 49.69 3.65
-2 -7 4 54.45 3.82
-2 -7 3 5.05 1.19
-2 -7 3 3.57 1.08
-2 -7 3 3.4 1.09
-2 -7 3 3.39 1.08
-2 -7 2 507.44 16.7
-2 -7 2 499.33 16.83
-2 -7 2 533.57 17.5
-2 -7 2 499.6 16.48
-2 -7 1 7.07 1.55
-2 -7 1 7.56 1.67
-2 -7 1 7.33 1.48
-2 -7 1 6.4 1.52
-2 -7 1 6.1 1.28
-2 -7 0 4.98 1.11
-2 -7 0 6.36 1.4
-2 -7 0 4.52 1.17
-2 -7 0 6.02 1.53
-2 -7 0 6.14 1.48
-2 -7 0 5.75 1.42
-2 -7 -1 15.28 2.13
-2 -7 -1 14.02 1.98
-2 -7 -1 18.43 2.45
-2 -7 -1 13.36 1.89
-2 -7 -1 14.53 2.1
-2 -7 -1 14.64 2.1
-2 -7 -2 1.65 0.76
-2 -7 -2 2.86 0.93
-2 -7 -2 2.05 1.02
-2 -7 -2 2.09 0.83
-2 -7 -2 2.28 0.96
-2 -7 -2 2.94 0.92
-2 -7 -3 369.13 13.1
-2 -7 -3 378.84 13.49
-2 -7 -3 395.71 14.24
-2 -7 -3 363.93 12.85
-2 -7 -3 361.39 13.06
-2 -7 -3 385.94 13.69
-2 -7 -3 378.85 13.61
-2 -7 -4 42.98 3.46
-2 -7 -4 40.07 3.27
-2 -7 -4 43.43 3.84
-2 -7 -4 45.23 3.29
-2 -7 -4 40.25 3.3
-2 -7 -4 43.65 3.62
-2 -7 -4 36.69 3.33
-2 -7 -5 46.94 3.54
-2 -7 -5 49.22 3.56
-2 -7 -5 53.01 4.23
-2 -7 -5 43.66 3.59
-2 -7 -5 46.23 3.5
-2 -7 -5 46.47 3.74
-2 -7 -6 7.85 1.4
-2 -7 -6 7.5 1.37
-2 -7 -6 7.33 1.55
-2 -7 -6 7.3 1.5
-2 -7 -6 8.4 1.42
-2 -7 -6 6.61 1.39
-2 -7 -7 1.76 0.7
-2 -7 -7 1.89 1.06
-2 -7 -7 0 0.52
-2 -7 -7 0.86 0.64
-2 -7 -7 1.76 0.78
-2 -7 -8 221.42 9.29
-2 -7 -8 208.47 7.97
-2 -7 -8 198.06 8.41
-2 -7 -8 193.58 8.08
-2 -7 -8 197.78 7.87
-2 -7 -9 210.96 8.83
-2 -7 -9 202.45 8.2
-2 -7 -9 204.88 7.7
2 7 9 183.27 7.17
-2 -7 -10 22.35 2.21
2 7 10 17.85 1.73
-2 -7 -11 48.97 3.43
2 7 11 38.63 2.5
-2 -7 -11 44.44 2.99
-2 -7 -12 132.22 5.52
-2 -7 -12 116.5 4.95
2 7 13 46.51 2.53
-2 -7 -13 49.2 2.78
2 7 13 40.96 2.26
-2 -7 -13 44.73 2.5
-2 -8 7 38.24 2.1
-2 -8 6 29.09 2
-2 -8 5 1.78 0.56
-2 -8 4 73.09 3.53
-2 -8 4 81.01 4.08
-2 -8 4 82.85 4
-2 -8 3 25.62 2.11
-2 -8 3 25.29 2.21
-2 -8 3 23.86 2.05
-2 -8 2 -0.44 0.57
-2 -8 2 0.32 0.45
-2 -8 2 1.11 0.55
-2 -8 1 293.67 10.33
-2 -8 1 295.22 10.37
-2 -8 1 297.91 10.43
-2 -8 0 5.09 1.1
-2 -8 0 5.67 1.19
-2 -8 0 4.62 1.05
-2 -8 -1 3.07 0.94
-2 -8 -1 4.19 1.01
-2 -8 -1 3.31 0.87
-2 -8 -2 8.85 1.46
-2 -8 -2 10.01 1.4
-2 -8 -2 9.24 1.41
-2 -8 -2 8.33 1.46
-2 -8 -3 250.04 9.38
-2 -8 -3 236.5 8.65
-2 -8 -3 246.5 8.98
-2 -8 -3 245.96 9.25
-2 -8 -4 59.05 3.78
-2 -8 -4 58.5 3.66
-2 -8 -4 55.53 3.63
-2 -8 -5 105.7 5.24
-2 -8 -5 100.74 5.06
-2 -8 -5 100.65 5.04
-2 -8 -6 15.54 1.77
-2 -8 -6 13.79 1.72
-2 -8 -6 11.29 1.49
-2 -8 -7 23.04 2.17
-2 -8 -7 23.72 2.12
-2 -8 -7 23.23 1.99
-2 -8 -8 0.58 0.5
-2 -8 -8 0.33 0.4
-2 -8 -8 1.79 0.55
2 8 9 166.38 6.16
-2 -8 -9 173.87 6.47
-2 -8 -10 81.84 3.57
2 8 10 75.54 3.35
-2 -8 -10 80.09 3.64
3 -7 -2 72.44 2.9
-3 7 2 74.86 2.96
3 -7 -1 20.41 1.41
3 -7 -1 20.57 1.34
-3 7 1 22.87 1.47
3 -7 0 31.42 1.82
3 -7 0 28.55 1.73
-3 7 0 31.07 1.76
3 -7 1 47.19 2.32
-3 7 -1 42.6 2.13
3 -7 2 311.93 8.81
-3 7 -2 284.26 8.42
3 -7 3 0.44 0.26
3 -6 -8 10.14 1.04
3 -6 -8 9.26 0.95
-3 6 8 9.9 1
3 -6 -7 183.99 6.42
-3 6 7 206.92 6.74
3 -6 -7 183.96 6.32
3 -6 -7 210.96 6.89
3 -6 -6 5.75 0.93
3 -6 -6 6.82 0.99
3 -6 -6 6.51 0.86
-3 6 6 6.08 0.87
-3 6 6 8.18 1.15
3 -6 -6 7.28 1.08
-3 6 5 123.57 5.16
3 -6 -5 115.45 4.97
3 -6 -5 111.44 4.78
-3 6 5 108.93 4.68
3 -6 -5 118.56 5.13
3 -6 -5 107.82 4.6
-3 6 4 40.78 2.73
3 -6 -4 39.38 2.64
3 -6 -4 36.64 2.54
3 -6 -4 37.45 2.58
3 -6 -4 44.91 2.92
-3 6 4 40.49 2.7
3 -6 -4 39.66 2.79
-3 6 3 226.09 8.16
3 -6 -3 245.53 8.78
3 -6 -3 237.08 8.6
3 -6 -3 231.13 8.54
3 -6 -3 226.23 8.29
3 -6 -3 231.4 8.27
-3 6 3 237.47 8.57
3 -6 -2 46.58 3.06
3 -6 -2 50.68 3.39
-3 6 2 42.86 2.78
3 -6 -2 46.54 2.95
-3 6 2 45.34 3.13
3 -6 -2 45.26 3.05
3 -6 -2 48.38 3.28
3 -6 -1 0.85 0.61
-3 6 1 0.83 0.45
3 -6 -1 0.36 0.64
3 -6 -1 1.57 0.61
3 -6 -1 0.98 0.44
3 -6 -1 0.46 0.42
-3 6 1 0.74 0.61
3 -6 -1 -0.05 0.48
3 -6 0 440.61 13.84
3 -6 0 439.97 13.38
3 -6 0 422.05 13.45
3 -6 0 460.62 14.62
3 -6 0 417.1 13.11
3 -6 0 466.52 14.32
-3 6 0 452.59 14.06
-3 6 0 440.95 13.91
-3 6 0 405.9 13.04
-3 6 -1 1.52 0.69
3 -6 1 1.45 0.69
-3 6 -1 0.57 0.42
3 -6 1 2.04 0.85
3 -6 1 1.5 0.49
3 -6 1 1.37 0.68
-3 6 -1 1.19 0.58
-3 6 -2 9.67 1.32
3 -6 2 12.07 1.63
3 -6 2 12.39 1.57
3 -6 2 12.57 1.57
3 -6 2 14.27 1.86
-3 6 -2 11.91 1.57
-3 6 -2 11.05 1.5
-3 6 -3 3.04 0.84
3 -6 3 2.07 0.71
3 -6 3 2.64 0.85
3 -6 3 1.76 0.58
-3 6 -3 2.02 0.57
-3 6 -3 2.16 0.71
3 -6 4 2.65 0.82
3 -6 4 1.91 0.7
-3 6 -4 2.98 0.78
-3 6 -4 2.89 0.8
3 -6 4 2.48 0.85
-3 6 -4 2.47 0.71
3 -6 5 5.64 1.12
3 -6 5 4.36 0.93
-3 6 -5 3.88 0.83
-3 6 -5 3.61 0.76
-3 6 -5 4.34 0.95
3 -6 5 5.05 1.03
3 -6 5 4.91 0.98
3 -6 6 47.75 3.07
-3 6 -6 49.52 2.9
3 -6 6 43.87 2.79
3 -6 6 43.78 2.79
-3 6 -6 46.71 2.58
-3 6 -6 46.82 2.77
3 -6 7 300.51 9.41
-3 6 -7 289.22 9.04
3 -6 7 267.61 8.87
3 -6 7 273.45 8.63
-3 6 -7 265.66 8.63
3 -6 8 61.27 3.09
-3 6 -8 67.57 3.12
-3 6 -8 59.32 2.7
3 -6 9 58.78 2.67
-3 6 -9 54.82 2.6
-3 5 11 27.02 1.54
3 -5 -11 29.67 1.79
-3 5 11 26.38 1.57
3 -5 -11 28.48 1.74
3 -5 -11 24.61 1.66
-3 5 10 204.94 6.78
3 -5 -10 194.12 6.69
3 -5 -10 200.75 6.84
-3 5 10 192.74 6.42
3 -5 -10 198.38 6.96
3 -5 -10 177.5 6.29
-3 5 9 65.33 3.54
3 -5 -9 66.37 3.49
3 -5 -9 62.5 3.36
-3 5 9 68.46 3.39
3 -5 -9 70 3.63
3 -5 -9 64.42 3.7
3 -5 -8 127.49 5.66
-3 5 8 132.95 5.86
-3 5 8 143.94 5.65
3 -5 -8 130.71 5.75
3 -5 -8 125.98 6
3 -5 -8 124.26 5.59
3 -5 -7 19.7 2.06
-3 5 7 23.67 2.31
3 -5 -7 19.05 2.03
3 -5 -7 23.24 2.4
3 -5 -7 21.06 2.15
3 -5 -6 19.78 2.2
3 -5 -6 20.02 2.16
3 -5 -6 18.58 1.93
3 -5 -6 20.69 2.22
-3 5 6 19.03 1.98
-3 5 6 21.36 2.33
3 -5 -6 17.2 2.21
3 -5 -5 87.63 5.04
3 -5 -5 84.34 4.56
3 -5 -5 87.93 4.97
3 -5 -5 78.58 4.66
3 -5 -5 82.83 4.61
-3 5 5 80.87 4.87
-3 5 5 82.86 4.66
3 -5 -5 86.43 4.9
3 -5 -5 82.07 5.05
-3 5 4 114.47 5.94
3 -5 -4 118.45 6.17
3 -5 -4 104.68 5.69
3 -5 -4 109.11 5.96
3 -5 -4 115.92 5.73
3 -5 -4 109.34 5.65
3 -5 -4 99.84 5.54
-3 5 4 109.4 5.75
3 -5 -4 115.91 6.22
-3 5 3 4.07 1.08
-3 5 3 4.87 1.2
3 -5 -3 4.35 1.24
3 -5 -3 4.73 1.2
3 -5 -3 4.5 1.07
3 -5 -3 2.99 1.06
3 -5 -3 3.52 1.01
3 -5 -3 4.76 1.23
3 -5 -3 6.83 1.49
-3 5 2 26.21 2.62
3 -5 -2 22.28 2.46
3 -5 -2 22.65 2.68
3 -5 -2 26.72 2.81
3 -5 -2 22.47 2.46
3 -5 -2 24.62 2.51
-3 5 2 26.62 2.75
3 -5 -2 26.57 2.76
3 -5 -2 24.51 2.54
-3 5 1 11.88 1.83
3 -5 -1 9.95 1.84
3 -5 -1 12.18 1.95
3 -5 -1 8.08 1.5
3 -5 -1 12.76 1.75
3 -5 -1 12.16 1.93
-3 5 1 13.95 2.02
3 -5 -1 11 1.74
-3 5 0 1.7 0.75
3 -5 0 1.71 0.85
3 -5 0 1.49 0.81
3 -5 0 1.12 0.92
3 -5 0 2.65 1.09
3 -5 0 1.38 0.84
-3 5 0 0.48 0.7
3 -5 0 1.57 0.81
3 -5 1 135.8 6.99
3 -5 1 125.01 6.62
3 -5 1 134.93 7.18
3 -5 1 155.56 7.46
3 -5 1 130.08 6.24
-3 5 -1 138.9 7.02
3 -5 2 116.72 6.37
3 -5 2 108.43 6.08
3 -5 2 120.73 6.44
-3 5 -2 122.84 6.48
3 -5 2 109.45 6.34
-3 5 -2 124.26 6.49
3 -5 3 193.82 8.62
3 -5 3 178.31 8.28
3 -5 3 175.77 8.44
-3 5 -3 192.53 8.43
-3 5 -3 195.11 8.62
3 -5 3 190.38 8.36
-3 5 -4 0.79 0.66
3 -5 4 2.54 0.99
-3 5 -4 2.92 0.98
3 -5 4 0.39 0.69
3 -5 4 1.07 0.53
3 -5 4 1.72 0.84
-3 5 -4 2.13 0.81
3 -5 5 766.65 22.38
3 -5 5 677.38 20.98
-3 5 -5 718.89 21.82
3 -5 5 712.91 22.16
3 -5 5 699.88 22.01
-3 5 -5 723.48 21.61
-3 5 -5 742.56 22.2
3 -5 6 0.42 0.58
3 -5 6 1 0.95
-3 5 -6 1.19 0.76
-3 5 -6 1.86 0.85
3 -5 6 1.4 0.85
3 -5 6 1.57 0.84
-3 5 -6 1.17 0.77
-3 5 -7 1.89 0.81
3 -5 7 1.21 0.66
3 -5 7 0.54 0.5
3 -5 7 1.47 0.94
-3 5 -7 1.59 0.76
-3 5 -7 0.78 0.59
3 -5 8 119.11 5.63
-3 5 -8 127.37 6
3 -5 8 142.24 6.57
3 -5 8 134.71 5.89
-3 5 -8 124.76 5.49
-3 5 -8 128.33 6.06
3 -5 9 3.88 0.98
3 -5 9 1.74 0.59
-3 5 -9 3.75 0.89
3 -5 9 3.68 0.79
-3 5 -9 1.67 0.52
3 -5 9 3.63 0.97
-3 5 -9 3.62 0.88
3 -5 10 0.83 0.46
3 -5 10 0.44 0.35
-3 5 -10 0.32 0.38
-3 5 -10 0.3 0.34
-3 5 -10 0.72 0.47
3 -5 10 1.28 0.53
3 -5 11 254.4 8.26
3 -5 11 262.54 8.03
-3 5 -11 237.34 7.94
3 -5 11 261.24 8.32
-3 5 -11 253.43 8.26
-3 5 -11 278.32 8.67
-3 5 -12 421.96 11.28
3 -5 12 404.7 11
3 -5 12 387.59 10.75
-3 5 -12 360.92 10.7
-3 5 -12 375.4 10.83
3 -4 -13 4.44 0.72
-3 4 13 6.07 0.83
3 -4 -13 4.91 0.75
-3 4 13 4.96 0.69
3 -4 -12 47.09 2.54
3 -4 -12 51.83 2.92
3 -4 -12 48.37 2.84
-3 4 12 53.62 2.97
-3 4 12 52.24 2.83
3 -4 -12 50.88 2.9
-3 4 11 345.79 10.85
3 -4 -11 336.32 11.18
-3 4 11 363.77 11.39
3 -4 -11 345.84 11.29
3 -4 -11 324.92 10.82
-3 4 11 351.16 11.18
3 -4 -11 340.34 11.42
3 -4 -10 0.15 0.6
3 -4 -10 1.37 0.55
-3 4 10 -0.05 0.5
-3 4 10 0.73 0.57
-3 4 10 1.32 0.68
3 -4 -10 0 0.6
3 -4 -10 0.8 0.68
3 -4 -9 143.61 6.56
-3 4 9 151.02 6.7
3 -4 -9 124.9 6.24
3 -4 -9 141.34 6.63
-3 4 9 133.47 6.35
-3 4 9 150.98 6.77
3 -4 -9 138.93 6.89
-3 4 8 52.61 3.84
-3 4 8 56.4 3.84
3 -4 -8 46.34 3.57
-3 4 8 48.07 3.56
3 -4 -8 51.69 3.79
3 -4 -8 46.67 3.33
3 -4 -8 54.1 4.11
3 -4 -8 50.98 3.74
3 -4 -7 178.97 8.14
3 -4 -7 181.5 7.69
-3 4 7 195.55 8.39
3 -4 -7 177.06 7.98
3 -4 -7 179.17 8.09
-3 4 7 178.3 7.71
-3 4 7 158.55 7.46
3 -4 -7 188.58 8.64
-3 4 6 0.31 0.51
3 -4 -6 1.3 0.78
3 -4 -6 1.95 0.81
-3 4 6 0.45 0.71
3 -4 -6 0.65 0.56
3 -4 -6 0.68 0.79
-3 4 6 1.85 0.85
-3 4 6 1.64 0.73
3 -4 -6 2.17 1.19
3 -4 -5 118.4 6.48
3 -4 -5 112.72 6.24
3 -4 -5 114.45 6.43
3 -4 -5 114.76 6.08
-3 4 5 111.41 5.74
3 -4 -5 125.5 6.29
3 -4 -5 115.01 6.22
-3 4 5 113.5 6.01
-3 4 5 118.69 6.48
3 -4 -5 110.08 6.53
-3 4 4 77.38 5.08
3 -4 -4 84.35 5.28
3 -4 -4 79.99 5.04
3 -4 -4 81.7 5.38
3 -4 -4 77.67 4.89
3 -4 -4 75.09 4.86
3 -4 -4 76.55 4.86
-3 4 4 79.77 4.97
3 -4 -4 78.13 5.29
3 -4 -3 1765.41 45.94
-3 4 3 1684.87 45.62
3 -4 -3 1656.37 45.28
3 -4 -3 1663.11 46.26
3 -4 -3 1620.71 45.15
3 -4 -3 1654.34 45.46
3 -4 -3 1651.5 45.06
-3 4 3 1649.28 45.48
3 -4 -3 1641.82 45.77
-3 4 2 62.75 4.47
3 -4 -2 63.63 4.56
3 -4 -2 59.97 4.2
3 -4 -2 70.6 4.59
3 -4 -2 64.53 4.49
3 -4 -2 65.48 4.61
-3 4 2 69.17 4.67
3 -4 -2 63.83 4.54
3 -4 -1 1018 30.45
-3 4 1 1035.4 29.64
3 -4 -1 980.83 29.41
3 -4 -1 1027.03 29.34
3 -4 -1 1089.97 30.2
3 -4 -1 1023.79 29.07
-3 4 1 1031.19 29.83
3 -4 -1 1028.96 29.81
3 -4 -1 939.9 30.23
-3 4 1 986.12 29.75
3 -4 -1 977.48 29.37
-3 4 0 3.07 1.15
-3 4 0 4.49 1.19
3 -4 0 3.44 1.02
3 -4 0 5.34 1.37
3 -4 0 3.08 1.33
3 -4 0 4.07 1.16
3 -4 0 3.26 1.24
3 -4 0 2.18 0.93
-3 4 0 3 1.01
-3 4 0 3.54 1.17
3 -4 0 2.12 0.7
3 -4 0 3.17 1.08
-3 4 -1 21.22 2.66
-3 4 -1 18.6 2.19
3 -4 1 20.23 2.47
3 -4 1 19.43 2.49
3 -4 1 18 2.4
3 -4 1 19.67 2.52
3 -4 1 19.96 2.56
-3 4 -1 17.53 2.35
-3 4 -1 21.65 2.62
-3 4 -2 68.36 4.87
3 -4 2 67.55 4.66
3 -4 2 61 4.3
3 -4 2 63.45 4.62
-3 4 -2 71.67 4.92
3 -4 2 64.16 4.77
3 -4 2 72.26 4.87
3 -4 2 63.8 4.83
-3 4 -2 61.27 4.58
3 -4 3 120.09 6.73
3 -4 3 126.41 6.96
3 -4 3 132.13 6.85
-3 4 -3 133.04 6.89
3 -4 3 121.23 6.43
3 -4 3 129.41 6.86
3 -4 4 71.91 4.89
3 -4 4 66.3 4.59
3 -4 4 71.81 4.99
3 -4 4 68.54 4.69
-3 4 -4 74.69 4.88
-3 4 -4 78.62 5.2
3 -4 4 71.75 4.99
3 -4 5 289.21 11.37
3 -4 5 276.81 11.06
-3 4 -5 283.69 11.16
3 -4 5 272.76 11.4
3 -4 5 287.19 11.16
3 -4 5 278.9 11.31
-3 4 -5 280.24 10.99
-3 4 -5 288.15 11.54
3 -4 6 99.47 5.81
3 -4 6 90.13 5.53
-3 4 -6 95.21 5.64
3 -4 6 89.4 5.16
3 -4 6 96.51 5.92
3 -4 6 93.11 5.59
-3 4 -6 94.69 5.45
-3 4 -6 96.29 5.86
3 -4 7 171.07 7.99
3 -4 7 166.32 8.02
3 -4 7 164.74 7.58
-3 4 -7 172.95 8.04
3 -4 7 177.7 8.51
3 -4 7 167.88 7.81
-3 4 -7 172.66 7.73
-3 4 -7 172.12 8.3
3 -4 8 260.09 10.27
3 -4 8 251.68 10.44
-3 4 -8 262.48 10.5
3 -4 8 250.65 10.04
3 -4 8 268.94 11.12
-3 4 -8 267.95 10.03
-3 4 -8 251.89 10.62
-3 4 -9 4.41 1.32
3 -4 9 1.6 0.74
3 -4 9 3.86 1.1
3 -4 9 2.53 0.99
-3 4 -9 3.15 1.01
-3 4 -9 4.12 1.21
3 -4 10 77.08 4.61
3 -4 10 67.35 4.46
3 -4 10 72.14 4.73
-3 4 -10 65.66 4.13
-3 4 -10 72.41 4.62
-3 4 -10 73.65 4.61
3 -4 11 1.18 0.63
-3 4 -11 1.58 0.75
3 -4 11 2.06 0.84
3 -4 11 2.11 0.83
-3 4 -11 3.58 0.92
3 -4 11 2.02 0.8
-3 4 -11 1.9 0.85
3 -4 12 18.99 1.76
3 -4 12 17 1.87
3 -4 12 18.74 2.03
-3 4 -12 17.11 1.79
-3 4 -12 16.61 1.85
-3 4 -12 14.78 1.75
3 -4 13 285.81 9.24
-3 4 -13 244.73 8.13
-3 4 -13 272.52 8.85
3 -4 13 286.35 9.07
-3 4 -13 247.2 8.71
3 -4 13 231.79 7.99
-3 4 -13 261.73 8.72
-3 4 -14 -0.16 0.41
3 -4 14 -0.07 0.31
3 -4 14 0.5 0.33
-3 4 -14 -0.05 0.34
3 -4 14 0.32 0.31
-3 4 -14 0.12 0.36
3 -4 15 0.65 0.25
3 -3 -15 9.61 0.9
-3 3 15 11.05 0.94
3 -3 -14 54.53 2.85
-3 3 14 57.36 2.9
3 -3 -14 54.02 2.85
-3 3 14 58.08 2.99
3 -3 -13 135.07 5.48
-3 3 13 157.4 6.18
3 -3 -13 143.57 5.93
3 -3 -13 142.07 5.91
-3 3 13 150.16 6.16
3 -3 -13 145.76 5.89
3 -3 -12 43.76 3.21
-3 3 12 51.87 3.51
3 -3 -12 48.11 3.35
-3 3 12 52.45 3.54
3 -3 -12 49.7 3.44
3 -3 -12 49.34 3.18
3 -3 -11 213.71 8.81
3 -3 -11 216.92 8.8
-3 3 11 234.13 9.09
3 -3 -11 205.59 8.02
3 -3 -11 210.01 8.52
-3 3 11 220.48 8.14
-3 3 11 223.56 8.97
3 -3 -10 27.54 2.71
3 -3 -10 26.47 2.76
-3 3 10 27.01 2.54
3 -3 -10 27.38 2.75
-3 3 10 27.37 2.8
3 -3 -10 28.66 2.58
-3 3 10 25.72 2.72
-3 3 9 150.32 6.99
3 -3 -9 128.45 6.76
3 -3 -9 147.42 7.2
-3 3 9 132.98 6.94
3 -3 -9 148.91 6.9
-3 3 9 142.14 7.2
3 -3 -9 144.67 7.22
-3 3 8 84.31 5.22
3 -3 -8 88.98 5.33
3 -3 -8 94.51 5.58
-3 3 8 84.83 5.3
3 -3 -8 85.4 5.12
3 -3 -8 84.55 5.33
-3 3 8 83.24 5.27
3 -3 -7 63.24 4.57
-3 3 7 72.68 4.82
3 -3 -7 62.07 4.46
-3 3 7 62.61 4.45
3 -3 -7 67.91 4.54
3 -3 -7 66.5 4.6
-3 3 7 61.57 4.43
-3 3 6 360.32 13.2
-3 3 6 337.81 12.76
3 -3 -6 360.83 13.03
3 -3 -6 327.11 12.54
-3 3 6 328.6 12.36
3 -3 -6 354.75 12.69
3 -3 -6 342.21 12.7
-3 3 6 318.64 12.39
3 -3 -6 329.46 13.73
-3 3 5 88.29 5.45
3 -3 -5 80.9 5.16
-3 3 5 85.16 5.25
3 -3 -5 80.31 5.04
-3 3 5 70.46 4.63
3 -3 -5 80.78 5.05
3 -3 -5 74.67 4.84
3 -3 -5 79.15 5.71
-3 3 5 80.1 5.08
-3 3 4 66.28 4.6
-3 3 4 63.6 4.49
3 -3 -4 67.8 4.47
-3 3 4 60.5 4.13
3 -3 -4 61.96 4.3
3 -3 -4 62.67 4.26
3 -3 -4 63.38 4.94
-3 3 4 58.84 4.1
-3 3 4 66.42 4.37
-3 3 4 67.9 4.33
3 -3 -4 69.34 4.6
-3 3 3 18.81 2.36
-3 3 3 17.91 2.27
3 -3 -3 17.09 2.52
3 -3 -3 17.24 2.15
3 -3 -3 17.57 2.24
-3 3 3 16.39 2.05
-3 3 2 122 6.33
3 -3 -2 106.33 6.33
-3 3 2 107.81 5.8
-3 3 1 586.81 18.3
3 -3 -1 541.49 18.47
-3 3 1 547.77 17.8
-3 3 0 225.29 9.26
3 -3 0 209.72 9.28
-3 3 0 219.25 9.09
-3 3 -1 79.01 4.86
3 -3 1 69.39 4.59
-3 3 -1 70.45 4.55
-3 3 -2 236.6 9.57
3 -3 2 236.77 9.65
3 -3 2 213.16 9.14
-3 3 -2 232.28 9.45
3 -3 3 40.34 3.39
3 -3 3 38.33 3.13
-3 3 -3 36.82 3.2
-3 3 -4 354.66 12.7
3 -3 4 364.01 13
-3 3 -4 349.24 12.85
-3 3 -4 363.08 12.46
3 -3 5 118.42 6.25
3 -3 5 113.07 6.02
3 -3 5 114.51 6.32
3 -3 5 115.69 6.45
3 -3 5 114.21 6.31
-3 3 -5 124.69 6.31
-3 3 -5 118.07 6.47
3 -3 5 120.55 6.26
-3 3 -5 113.32 6.03
-3 3 -5 115.6 6.24
-3 3 -5 115.17 5.97
3 -3 6 13.74 1.93
3 -3 6 18.93 2.46
3 -3 6 17.67 2.42
-3 3 -6 17.07 2.26
-3 3 -6 19.26 2.3
3 -3 6 20.17 2.54
3 -3 6 18.38 2.3
3 -3 6 18 2.28
-3 3 -6 15.64 2.26
-3 3 -6 17.02 2.19
-3 3 -6 15.69 2.18
3 -3 6 16.18 2.19
-3 3 -6 18.08 2.22
3 -3 7 603.17 19.84
3 -3 7 587.22 19.28
-3 3 -7 637.88 19.72
3 -3 7 596.81 19.24
3 -3 7 610.29 19.99
3 -3 7 589.14 19.76
-3 3 -7 619.74 20.12
3 -3 7 639.41 19.48
-3 3 -7 617.89 19.39
-3 3 -7 579.17 19.08
-3 3 -7 603.18 19.31
-3 3 -7 566.89 19.37
3 -3 8 17.22 2.43
3 -3 8 14.52 2.14
3 -3 8 19.87 2.59
-3 3 -8 17.37 2.37
-3 3 -8 14.6 2.1
-3 3 -8 13.93 2.17
3 -3 8 15.2 2.12
-3 3 -9 1.32 0.83
3 -3 9 0.77 0.94
3 -3 9 1.13 0.7
3 -3 9 0.73 0.82
-3 3 -9 1.46 0.87
3 -3 10 46.72 3.94
-3 3 -10 47.88 3.95
3 -3 10 40.57 3.56
3 -3 10 44.43 4
-3 3 -10 39.17 3.73
-3 3 -10 42.21 3.49
3 -3 11 134.12 7.12
3 -3 11 146.67 7.43
-3 3 -11 157.09 7.57
-3 3 -11 138.73 6.89
-3 3 -11 140.09 7.32
3 -3 11 147.16 7.3
3 -3 12 161.04 7.51
-3 3 -12 172.96 7.82
-3 3 -12 159.11 7.24
3 -3 12 158.86 7.62
-3 3 -12 138.89 7.18
3 -3 12 143.17 7.07
3 -3 13 2.87 0.99
3 -3 13 2.37 0.75
-3 3 -13 2.59 0.86
-3 3 -13 2.12 0.87
-3 3 -13 1.13 0.55
-3 3 -13 2.58 0.98
-3 3 -14 172.19 7.03
3 -3 14 178.87 7.44
-3 3 -14 175.96 7.15
3 -3 14 181.82 7.35
-3 3 -14 167.08 7.18
-3 3 -14 166.37 6.61
-3 3 -15 6.46 0.95
-3 3 -15 7.52 0.99
3 -3 15 7.84 1.17
-3 3 -15 8.7 1.23
3 -3 15 6.97 1.12
-3 3 -15 6.16 1.06
-3 3 -16 38.54 2.26
3 -3 16 38.32 2.31
3 -3 16 38.37 2.23
-3 3 -16 34.72 2.13
3 -3 16 36.48 2.16
3 -2 -15 57.99 2.75
3 -2 -15 61.58 3.17
-3 2 15 68.61 3.11
3 -2 -15 69.87 3.36
-3 2 15 75.89 3.49
3 -2 -14 1.49 0.56
3 -2 -14 1.04 0.58
-3 2 14 1.73 0.6
3 -2 -14 3.08 0.81
3 -2 -14 2.83 0.63
-3 2 14 2.78 0.82
3 -2 -13 8.77 1.34
3 -2 -13 11.29 1.65
-3 2 13 14.41 1.76
3 -2 -13 12.18 1.52
3 -2 -13 10.71 1.59
-3 2 13 10.06 1.65
3 -2 -12 115.99 6.08
3 -2 -12 122.84 6.1
3 -2 -12 123.18 6.28
-3 2 12 124.4 6.43
-3 2 12 130.57 6.36
3 -2 -11 29.19 2.93
-3 2 11 34.88 3.21
3 -2 -11 24.07 2.72
3 -2 -11 31.07 2.99
-3 2 11 32.43 3.16
3 -2 -10 28.35 2.94
-3 2 10 29.55 3.05
3 -2 -10 28.41 3.07
-3 2 10 32.73 3.2
3 -2 -10 32.55 3.13
-3 2 9 297.71 10.74
3 -2 -9 288.52 11.33
3 -2 -9 260.98 10.75
-3 2 9 273.9 11.17
-3 2 9 272.03 11.1
3 -2 -9 263.77 10.99
-3 2 8 75.38 4.9
-3 2 8 81.58 4.88
3 -2 -8 70.48 4.68
3 -2 -8 73.46 5.34
-3 2 8 76.25 4.99
3 -2 -8 77.14 5.61
3 -2 -8 74.78 4.97
-3 2 8 70.33 4.83
3 -2 -8 78.06 5.07
-3 2 7 318.19 11.54
-3 2 7 314.81 11.46
3 -2 -7 286.47 11.16
-3 2 7 298.79 11.51
3 -2 -7 297.57 11.51
3 -2 -7 267.2 11.93
3 -2 -7 319.51 11.91
-3 2 7 289.65 11.41
3 -2 -7 291.17 12.22
-3 2 6 735.84 21.54
3 -2 -6 729.58 21.9
3 -2 -6 668.47 22.2
-3 2 6 683.17 21.46
3 -2 -6 715.34 22.77
-3 2 6 661.98 21.37
-3 2 5 277.88 10.33
3 -2 -5 283.76 11.41
3 -2 -5 248.45 10.74
-3 2 4 325.37 11.39
3 -2 -4 315.45 12.12
3 -2 -4 318.54 12.29
-3 2 4 307.95 10.7
-3 2 3 445.56 14.24
3 -2 -3 437.63 14.84
3 -2 -3 433 14.99
-3 2 3 408.86 13.52
-3 2 2 296.09 10.46
3 -2 -2 299.63 10.84
-3 2 2 275.74 10.01
-3 2 1 3.63 0.97
-3 2 1 4.39 0.95
3 -2 -1 4.48 1.05
-3 2 0 5.33 1.09
3 -2 0 3.84 0.97
-3 2 0 4.25 0.98
3 -2 0 3.89 1.08
-3 2 -1 1.61 0.79
3 -2 1 1.04 0.7
-3 2 -1 0.22 0.47
3 -2 1 1.46 0.74
3 -2 2 568.71 17.34
-3 2 -2 549.37 16.99
3 -2 3 94.09 4.94
-3 2 -3 86.27 4.67
-3 2 -3 90.26 4.61
3 -2 4 398.29 13.3
-3 2 -4 387.98 13.07
-3 2 -4 402.35 13.54
-3 2 -4 399.91 13.07
3 -2 5 93.85 5.08
-3 2 -5 93.55 5.01
-3 2 -5 89.25 5.17
-3 2 -5 86.46 4.87
3 -2 6 139.29 6.6
-3 2 -6 134.99 6.45
-3 2 -6 123.31 6.53
-3 2 -6 132.61 6.4
3 -2 7 72.91 4.51
-3 2 -7 85.03 4.79
-3 2 -7 42.8 3.74
-3 2 -7 49.86 3.82
3 -2 8 169.12 7.74
3 -2 8 169.1 8.09
3 -2 8 158.08 7.65
3 -2 8 155.04 7.73
3 -2 8 159.65 7.51
-3 2 -8 164.33 8.18
-3 2 -8 169.37 7.74
-3 2 -8 152.75 7.68
-3 2 -8 190.29 8.33
-3 2 -8 169.35 7.8
3 -2 9 1388.82 39.12
3 -2 9 1377.22 38.74
3 -2 9 1353.75 38.91
-3 2 -9 1288.37 38.03
-3 2 -9 1461.06 39.42
-3 2 -9 1374.67 39.46
-3 2 -9 1443.5 38.97
-3 2 -9 1276.28 38.43
3 -2 9 1493.05 38.82
3 -2 10 1073.95 30.98
-3 2 -10 1169.98 32.81
3 -2 10 1109.45 32.43
3 -2 10 1094.57 32
3 -2 10 1098.62 32.47
-3 2 -10 1062.18 31.57
-3 2 -10 1088.09 32.59
-3 2 -10 1113.96 32.15
3 -2 11 677.58 20.81
3 -2 11 696.95 21.72
3 -2 11 623.48 21.2
-3 2 -11 653.16 21.3
3 -2 11 682.46 21.85
-3 2 -11 680.21 22.02
-3 2 -11 722.5 22.45
3 -2 12 250.05 9.73
-3 2 -12 261.42 10.91
3 -2 12 251.43 10.53
3 -2 12 251.53 10.36
3 -2 12 212.54 9.56
-3 2 -12 238.48 10.22
-3 2 -12 241.27 10.52
3 -2 13 3.63 1.05
-3 2 -13 3.92 1.11
-3 2 -13 4.67 1.3
3 -2 13 3.95 1.25
-3 2 -13 2.18 0.94
3 -2 13 3.95 1.16
-3 2 -13 3.97 1.21
3 -2 14 1.97 0.8
3 -2 14 3.42 1.12
-3 2 -14 2.31 0.9
-3 2 -14 1.57 0.85
3 -2 14 1.98 0.9
-3 2 -14 3.13 1.06
-3 2 -14 3.22 1.11
3 -2 15 20.76 2.03
3 -2 15 16.29 2.01
3 -2 15 18.1 2.05
-3 2 -15 17.64 1.88
-3 2 -15 14.72 1.87
-3 2 -15 16.09 1.99
-3 2 -15 18.82 2.21
3 -2 16 13.78 1.48
-3 2 -16 15.04 1.55
3 -2 16 14.35 1.67
3 -2 16 14.85 1.64
-3 2 -16 15.95 1.79
-3 2 -16 14.85 1.71
3 -2 17 43.44 2.3
-3 2 -17 34.85 2
3 -2 17 33.61 2.13
-3 2 -17 41.54 2.58
-3 2 -17 41.21 2.5
3 -1 -16 178.05 6.14
3 -1 -16 193.65 6.39
-3 1 16 180.65 5.96
3 -1 -15 105.38 4.86
3 -1 -15 104.24 4.65
3 -1 -15 113.1 5.08
-3 1 15 120.53 5.04
-3 1 15 115.04 4.51
3 -1 -14 35.29 2.74
3 -1 -14 35.49 2.8
3 -1 -14 33.16 2.76
-3 1 14 33.62 2.78
-3 1 14 34.17 2.57
3 -1 -13 19.93 2.27
-3 1 13 22.45 2.28
3 -1 -13 21.62 2.37
3 -1 -13 20.45 2.33
-3 1 13 18.9 2.29
3 -1 -12 -0.23 0.76
3 -1 -12 0.13 0.63
-3 1 12 -0.32 0.5
3 -1 -12 0.54 0.7
-3 1 12 0.29 0.56
3 -1 -11 106.51 6.2
3 -1 -11 105.14 5.96
-3 1 11 111.11 6.12
-3 1 11 110.58 6.35
3 -1 -11 111.83 6.25
3 -1 -10 138.61 7.04
3 -1 -10 148.36 7.47
-3 1 10 152.55 7.39
3 -1 -10 145.91 7.43
-3 1 10 132.33 7.18
3 -1 -9 77.64 5.59
-3 1 9 78.69 5.02
3 -1 -9 76.06 5.05
-3 1 9 66.76 4.77
3 -1 -9 70.26 4.62
3 -1 -8 19.02 2.28
-3 1 8 20.82 2.47
3 -1 -8 20.31 2.51
-3 1 8 21.21 2.51
3 -1 -8 23.16 2.87
-3 1 7 37.31 2.93
3 -1 -7 40.08 3.69
3 -1 -7 36.39 3.37
-3 1 6 6.94 1.2
3 -1 -6 5.52 1.26
-3 1 5 226.84 8.26
3 -1 -5 223.55 9.48
3 -1 -5 215.61 9.14
-3 1 4 2610.45 67.17
3 -1 -4 2589.32 68.95
-3 1 4 2719.18 66.8
-3 1 3 164.85 6.33
3 -1 -3 152.57 7.08
-3 1 3 168.18 6.24
-3 1 2 183.01 6.7
3 -1 -2 177.54 7.42
-3 1 2 177.1 6.63
-3 1 1 571.87 16.49
-3 1 1 568.88 16.6
3 -1 -1 578.07 17.29
3 -1 -1 587.16 17.41
-3 1 0 912.6 24.6
3 -1 0 916.83 25.3
-3 1 0 879.15 24.73
3 -1 0 928.36 25.37
3 -1 1 22.59 2.09
-3 1 -1 24.01 2.04
3 -1 2 311.94 10.44
-3 1 -2 307.55 10.24
-3 1 -3 313.98 10.39
3 -1 3 306.26 9.34
3 -1 3 316.01 10.51
-3 1 -3 297.48 10.16
3 -1 4 73.54 4.15
-3 1 -4 79.61 4.2
3 -1 4 77.66 3.43
-3 1 -4 83.63 4.47
-3 1 -4 68.91 3.93
3 -1 5 41.57 3.09
-3 1 -5 42.94 3.08
3 -1 5 44.49 2.48
-3 1 -5 41.83 3.2
-3 1 -5 43.74 3.04
3 -1 6 24.85 2.42
-3 1 -6 28.13 2.56
-3 1 -6 23.79 2.48
-3 1 -6 26.87 2.44
3 -1 7 95.24 5.29
-3 1 -7 97.15 5.25
-3 1 -7 93.98 5.39
-3 1 -7 107.71 5.4
3 -1 8 20.07 2.3
-3 1 -8 19.94 2.39
-3 1 -8 20.57 2.32
3 -1 9 44.39 3.58
-3 1 -9 48.21 3.81
-3 1 -9 47.01 3.67
3 -1 10 20.85 2.4
3 -1 10 25.49 2.81
3 -1 10 23.94 2.65
-3 1 -10 25.38 2.79
3 -1 10 22.57 2.61
-3 1 -10 24.43 2.85
-3 1 -10 26.53 3.02
-3 1 -10 23.19 2.62
-3 1 -10 27.36 2.88
-3 1 -10 26.22 2.8
3 -1 11 3.94 1.1
-3 1 -11 2.88 1.05
3 -1 11 3.47 1.09
3 -1 11 1.92 1.02
3 -1 11 2.41 1.01
-3 1 -11 2.17 1.11
-3 1 -11 2.86 1.06
-3 1 -11 4.3 1.32
3 -1 11 2.78 0.92
-3 1 -11 1.91 0.84
3 -1 12 255.59 10.45
3 -1 12 246.46 10.47
-3 1 -12 260.19 10.57
3 -1 12 248.84 10.45
-3 1 -12 271.57 11.21
-3 1 -12 254.74 11.17
-3 1 -12 250.98 10.91
3 -1 13 97.35 5.73
3 -1 13 89.28 5.61
-3 1 -13 101.99 5.86
-3 1 -13 92.89 6.01
3 -1 13 95.14 5.67
-3 1 -13 93.97 5.95
-3 1 -13 89.67 5.9
3 -1 14 177.64 8.09
-3 1 -14 185.91 8.82
3 -1 14 165.98 8.01
-3 1 -14 185.21 8.3
3 -1 14 168.96 7.93
-3 1 -14 165.65 8.21
-3 1 -14 174.26 8.52
3 -1 15 244.47 9.49
-3 1 -15 241.38 9.55
-3 1 -15 253.27 10.37
3 -1 15 221.84 9.12
3 -1 15 213.1 9.15
-3 1 -15 244.7 9.9
-3 1 -15 209.72 9.16
3 -1 16 19.09 2.05
-3 1 -16 20.11 2.14
3 -1 16 17.05 1.96
3 -1 16 16.49 1.86
-3 1 -16 19.86 2.36
-3 1 -16 19.43 1.98
-3 1 -16 17.39 2.14
3 -1 17 175.13 6.73
-3 1 -17 168.35 6.51
-3 1 -17 190.62 7.47
3 -1 17 149.06 5.98
-3 1 -17 168.33 6.95
3 -1 18 10.39 1.18
-3 1 -18 7.86 0.9
-3 1 -18 10.71 1.34
-3 1 -18 8.98 1.2
3 0 -16 26.56 1.83
3 0 -16 27.34 1.93
3 0 -16 27.12 2.04
-3 0 16 23.39 1.57
3 0 -15 24.31 2.14
3 0 -15 23.18 2.11
3 0 -15 24.91 2.29
-3 0 15 26.34 2.04
-3 0 15 25.26 2.04
-3 0 14 50.72 3.17
3 0 -14 55.59 3.73
3 0 -14 48.75 3.47
3 0 -14 55.55 3.85
-3 0 14 52.21 3.5
-3 0 14 50.78 3.37
3 0 -13 8.33 1.54
-3 0 13 8.45 1.35
3 0 -13 9.59 1.72
-3 0 13 7.09 1.45
-3 0 13 8.66 1.37
-3 0 12 8.95 1.45
3 0 -12 7.69 1.51
3 0 -12 7.08 1.53
-3 0 12 9.3 1.59
-3 0 12 8.61 1.61
-3 0 11 414.85 14.08
3 0 -11 419.79 14.71
-3 0 11 458.83 15.1
3 0 -11 440.15 15.46
-3 0 11 423.22 15.08
-3 0 10 260.46 10
-3 0 10 293.57 11.27
3 0 -10 254.88 10.38
-3 0 10 287.93 11.01
3 0 -10 270.43 11.01
-3 0 10 282.18 11.12
-3 0 9 84.18 4.71
3 0 -9 91.55 5.79
-3 0 9 90.24 5.4
3 0 -9 83.98 5.04
-3 0 9 95.73 5.48
-3 0 9 84.32 5.27
3 0 -8 28.85 3
3 0 -8 27.16 2.71
3 0 -7 5.39 1.3
3 0 -7 5.65 1.15
3 0 -6 820.47 24.2
3 0 -6 811.41 23.63
3 0 -6 828 22.41
3 0 -6 787.89 23.25
-3 0 5 127.95 5.04
3 0 -5 133.4 6.36
3 0 -5 125.37 5.16
-3 0 4 147.82 5.33
3 0 -4 155.89 6.77
3 0 -4 145.09 5.65
-3 0 3 2.32 0.47
3 0 -3 1.58 0.63
-3 0 3 1.97 0.52
3 0 -3 0.94 0.41
3 0 -2 259.76 9.14
-3 0 2 255.45 7.62
3 0 -2 242.15 8.47
3 0 -2 247.23 8.28
-3 0 2 261.53 8.13
-3 0 1 2.89 0.5
3 0 -1 3.87 0.79
3 0 -1 4.23 0.93
3 0 -1 3.94 0.81
-3 0 1 3.3 0.7
-3 0 0 155.51 5.09
3 0 0 156 6.02
-3 0 0 158.31 5.86
-3 0 -1 1316.28 33.02
-3 0 -1 1291.69 34.03
3 0 1 1274.55 34.12
3 0 2 7.67 1.14
-3 0 -2 8.69 1.07
-3 0 -2 9.15 1.23
-3 0 -3 227.84 7.55
3 0 3 237.55 8.4
-3 0 -3 261.33 8.66
3 0 3 254.96 8.24
-3 0 -3 236.84 8.53
-3 0 -3 263.34 8.59
-3 0 -4 117.18 4.22
3 0 4 119.77 5.28
-3 0 -4 125.85 5.44
3 0 4 119.93 4.97
-3 0 -4 115.52 5.31
-3 0 -4 133.79 5.4
3 0 5 127.61 5.55
-3 0 -5 128.41 5.61
3 0 5 120.95 5.12
-3 0 -5 118.33 5.51
-3 0 -5 124.32 5.42
3 0 6 697.73 19.92
3 0 6 682.75 19.29
-3 0 -6 660.52 19.88
-3 0 -6 665.81 19.58
-3 0 -7 114.04 5.7
3 0 7 128.48 5.87
3 0 7 113.82 5.23
-3 0 -7 115.49 5.5
3 0 8 689.6 20.04
3 0 8 639.79 19.31
-3 0 -8 660.3 20.19
-3 0 -8 656.02 19.78
3 0 9 132.01 6.35
3 0 9 136.89 6.21
-3 0 -9 134.32 6.64
-3 0 -9 131.79 6.39
-3 0 -10 1.52 0.79
3 0 10 2.4 0.95
3 0 10 1.71 0.79
-3 0 -10 3.96 1.1
-3 0 -11 3.49 1.1
3 0 11 2.29 0.97
3 0 11 4.16 1.13
3 0 11 5.29 1.36
-3 0 -11 2.19 0.79
-3 0 -11 1.92 0.92
-3 0 -11 0.93 0.66
3 0 11 3.69 1.17
3 0 11 4.42 1.15
-3 0 -11 2.14 0.88
-3 0 -11 5.19 1.35
-3 0 -12 28.92 3.2
3 0 12 29.55 2.86
-3 0 -12 32.59 3.19
3 0 12 27.86 2.81
3 0 12 25.52 2.8
-3 0 -12 26.59 3.15
-3 0 -12 28.52 3.1
-3 0 -12 25.64 2.72
-3 0 -12 31.61 3.12
3 0 12 30.1 3.07
3 0 13 49.22 4.03
-3 0 -13 47.28 4.07
-3 0 -13 50 4.12
3 0 13 40.68 3.43
3 0 13 44.78 3.57
-3 0 -13 56.66 4.72
-3 0 -13 50.07 4.19
3 0 14 336.35 12.75
3 0 14 306.43 11.78
-3 0 -14 352.84 13.11
-3 0 -14 318.19 12.59
3 0 14 317.34 11.84
-3 0 -14 367.09 14.05
-3 0 -14 335.03 12.99
3 0 15 35.02 3.25
3 0 15 33.67 2.91
-3 0 -15 37.01 3.42
-3 0 -15 37.32 3.78
3 0 15 31.68 2.8
-3 0 -15 31.01 3.18
-3 0 -15 32.5 3.09
3 0 16 31.05 2.63
3 0 16 34.19 3.03
-3 0 -16 38.92 3.3
-3 0 -16 32.07 2.76
-3 0 -16 37.63 3.32
3 0 16 34.19 2.66
-3 0 -17 260.7 9.89
3 0 17 278.23 10.02
-3 0 -17 298.46 11.04
-3 0 -17 274.02 10.34
3 0 18 41.64 2.77
-3 0 -18 40.11 2.6
-3 0 -18 47.63 3.27
-3 0 -18 42.71 2.97
3 0 19 211.93 6.99
-3 0 -19 217.81 7.33
-3 0 -19 218.52 7.26
-3 -1 16 2.64 0.62
-3 -1 16 4.09 0.73
3 1 -16 3.01 0.67
3 1 -16 4.12 0.78
-3 -1 15 3.15 0.84
-3 -1 15 3.26 0.78
3 1 -15 4.78 0.96
3 1 -15 5.78 1.21
-3 -1 14 39.33 2.97
3 1 -14 40.19 3.09
3 1 -14 42.74 3.42
3 1 -13 6.26 1.35
3 1 -13 5.48 1.36
-3 -1 13 5.68 1.26
-3 -1 12 64.51 4.32
3 1 -12 64.5 4.37
-3 -1 12 77.71 4.7
-3 -1 11 -0.49 0.61
3 1 -11 -0.19 0.69
-3 -1 11 0.18 0.58
-3 -1 10 6.46 1.27
3 1 -10 6.54 1.59
3 1 -10 5.43 1.24
-3 -1 10 6.71 1.57
3 1 -10 4.78 1.35
-3 -1 9 2.59 0.92
3 1 -9 2.94 0.94
-3 -1 9 1.37 0.65
3 1 -9 1.53 0.78
-3 -1 9 1.69 0.78
-3 -1 9 2.36 0.99
3 1 -9 3.05 1.11
3 1 -8 373.9 13.46
-3 -1 8 390.72 13.33
3 1 -8 384.06 13.55
-3 -1 7 20.82 2.24
3 1 -7 19.08 2.21
-3 -1 7 20.95 1.97
3 1 -7 17.46 2.07
-3 -1 6 2.84 0.85
3 1 -6 0.99 0.65
-3 -1 6 1.12 0.48
3 1 -6 1.17 0.65
3 1 -5 846.55 24.46
-3 -1 5 887.54 24.6
-3 -1 5 855.92 23.56
3 1 -4 408.36 12.94
-3 -1 4 419.04 12.99
-3 -1 4 380.4 11.95
-3 -1 3 3.3 0.87
3 1 -3 4.87 0.97
3 1 -3 2.14 0.62
-3 -1 3 4.24 0.81
3 1 -2 481.5 14.74
-3 -1 2 485.9 14.31
3 1 -2 515.99 14.55
3 1 -2 482.72 13.76
3 1 -1 41.7 2.31
3 1 -1 43.44 2.54
-3 -1 1 39.35 2.63
3 1 -1 34.89 2.51
-3 -1 0 6.07 1
3 1 0 6.05 0.97
3 1 0 5.81 0.85
-3 -1 0 5.69 0.82
3 1 1 1648.61 43.38
3 1 1 1810.21 43.94
-3 -1 -1 1685.19 43.69
-3 -1 -1 1698.68 43.35
-3 -1 -2 581.5 16.29
3 1 2 569.14 16.26
3 1 2 603.9 16.74
-3 -1 -2 578.56 16.29
-3 -1 -3 482.65 13.77
3 1 3 502 14.15
-3 -1 -3 477.09 14.11
-3 -1 -4 226.56 7.25
3 1 4 239.9 7.97
3 1 4 223.63 8.08
-3 -1 -4 229.73 7.94
3 1 5 285.77 9.01
3 1 5 258.6 8.97
-3 -1 -5 266.23 8.95
-3 -1 -5 266.05 9.03
3 1 6 1186.9 33.05
-3 -1 -6 1220.34 33.13
-3 -1 -6 1204.2 33.06
3 1 7 209.33 7.84
3 1 7 187.86 7.58
-3 -1 -7 190.33 7.65
-3 -1 -7 192.27 7.62
3 1 8 174.52 7.11
3 1 8 159.68 7.03
-3 -1 -8 165.51 7.1
-3 -1 -8 164.42 7.04
3 1 9 382.93 12.63
3 1 9 370.92 12.92
-3 -1 -9 373.36 12.89
-3 -1 -9 371.96 12.78
-3 -1 -10 8.59 1.53
3 1 10 7.69 1.35
3 1 10 7.09 1.41
-3 -1 -10 8.48 1.52
3 1 11 504.86 16.56
3 1 11 512.46 17.11
-3 -1 -11 518 18
-3 -1 -11 482.26 17.07
3 1 11 531.8 17.31
-3 -1 -11 501.66 17.07
-3 -1 -11 531.37 17.2
-3 -1 -11 542.77 17.29
-3 -1 -12 1.35 1.07
-3 -1 -12 1.58 0.8
-3 -1 -12 0.56 0.94
-3 -1 -12 2.32 1.04
3 1 12 0.93 0.55
-3 -1 -12 1.21 0.93
3 1 12 0.91 0.59
-3 -1 -12 0.65 0.77
-3 -1 -12 1.64 0.99
3 1 12 1.15 0.77
3 1 13 202.61 9.04
-3 -1 -13 209.89 9.53
-3 -1 -13 178.47 8.71
-3 -1 -13 194.9 9.83
-3 -1 -13 204.51 9.14
-3 -1 -14 6.87 1.53
3 1 14 6.46 1.48
-3 -1 -14 5.06 1.42
-3 -1 -14 3.15 1.38
-3 -1 -14 6.21 1.48
-3 -1 -15 11.08 2.01
3 1 15 12.37 1.99
-3 -1 -15 13.01 1.93
-3 -1 -15 12.28 2.26
-3 -1 -15 11.99 1.95
3 1 16 0.26 0.61
-3 -1 -16 1.24 0.89
-3 -1 -16 -0.07 0.66
-3 -1 -16 -0.15 0.79
-3 -1 -16 1.02 0.78
3 1 16 0.66 0.49
3 1 17 248.22 9.49
-3 -1 -17 275.36 10.86
-3 -1 -17 257.74 9.96
-3 -1 -17 275.04 10.18
3 1 17 238.06 9.14
3 1 18 21.97 2.02
-3 -1 -18 23.6 2.14
-3 -1 -18 29.2 2.69
-3 -1 -18 28.38 2.46
3 1 18 25.04 1.97
-3 -1 -19 278.62 9.1
-3 -1 -19 282.43 8.99
-3 -2 16 20.69 1.62
3 2 -16 19.01 1.61
3 2 -16 18.74 1.38
3 2 -16 23.43 1.86
-3 -2 16 19.98 1.66
-3 -2 15 359.05 11.54
3 2 -15 383.5 12.21
3 2 -15 350.57 11.2
-3 -2 15 360.13 11.74
-3 -2 14 14.82 1.83
3 2 -14 13.78 1.68
3 2 -14 13.62 1.91
-3 -2 13 39.25 3.2
3 2 -13 38.45 3.07
3 2 -12 0.04 0.53
-3 -2 12 0.94 0.75
-3 -2 11 -0.48 0.8
3 2 -11 0.78 0.74
-3 -2 10 73.16 4.7
3 2 -10 68.62 4.35
-3 -2 9 107.06 5.73
3 2 -9 98.01 5.55
-3 -2 9 102.43 5.44
3 2 -9 99.65 5.22
-3 -2 9 98.47 5.17
3 2 -9 98.42 5.94
-3 -2 8 2.62 0.87
-3 -2 8 3.57 0.96
-3 -2 8 2.99 0.99
3 2 -8 2.76 0.89
-3 -2 8 2.52 0.75
3 2 -8 2.04 0.95
-3 -2 7 644.95 18.86
3 2 -7 640 19.39
3 2 -7 690.38 20.21
-3 -2 7 618.01 19.35
3 2 -6 245.65 9
-3 -2 6 243.19 9.18
-3 -2 6 242.27 8.7
3 2 -6 260.05 9.58
-3 -2 5 14.75 1.77
3 2 -5 15.45 1.68
-3 -2 5 13.89 1.51
3 2 -5 15.58 1.81
3 2 -4 1023.14 27.24
-3 -2 4 993.96 27.63
-3 -2 4 991.34 27
3 2 -3 581.15 16.66
-3 -2 3 575.72 17.11
-3 -2 3 578.39 16.58
3 2 -2 11.99 1.31
-3 -2 2 11.05 1.4
-3 -2 2 12.17 1.36
-3 -2 1 19.31 1.79
-3 -2 1 19.41 1.7
3 2 -1 18.82 1.61
-3 -2 0 757.02 20.83
-3 -2 0 741.79 21.03
3 2 0 745.37 20.03
3 2 0 773.57 20.96
-3 -2 0 783.44 19.77
3 2 0 759.3 20.84
-3 -2 -1 1770.1 45.51
-3 -2 -1 1798.54 45.18
3 2 1 1760.51 44.63
3 2 1 1719.07 45.33
-3 -2 -1 1805.3 44.53
3 2 2 54.47 2.62
-3 -2 -2 48.47 2.81
-3 -2 -2 51.81 2.77
3 2 2 56.17 3.03
-3 -2 -2 51.14 2.59
-3 -2 -3 125.78 5.09
-3 -2 -3 131.33 5.06
3 2 3 134.61 5.37
3 2 3 131.53 5.64
-3 -2 -3 131.32 4.97
3 2 3 131.32 4.91
-3 -2 -4 156.76 5.83
-3 -2 -4 160.26 5.94
3 2 4 168.87 6.58
3 2 4 170.03 5.99
-3 -2 -4 155.53 5.92
-3 -2 -5 173.22 6.35
3 2 5 201.2 7.46
3 2 5 189.81 6.73
-3 -2 -5 186.31 6.82
-3 -2 -5 191.21 6.78
-3 -2 -6 548.86 15.93
3 2 6 556.6 16.09
3 2 6 562.65 16.71
-3 -2 -6 526.93 16.03
-3 -2 -7 202.42 7.5
3 2 7 206.74 7.65
3 2 7 218.28 8.29
-3 -2 -7 204.67 7.79
3 2 8 116.14 5.35
3 2 8 126.4 6.01
-3 -2 -8 120.68 5.3
-3 -2 -8 111.52 5.43
-3 -2 -9 37.06 2.71
3 2 9 39.7 3.25
3 2 9 35.72 2.79
-3 -2 -9 35.49 2.9
-3 -2 -9 34.63 2.89
-3 -2 -10 364.68 11.99
3 2 10 368.5 13.16
3 2 10 335.56 12.14
-3 -2 -10 345.28 12.49
-3 -2 -10 386.41 12.91
3 2 11 2.89 1.07
-3 -2 -11 1.95 0.74
-3 -2 -11 5.92 1.51
3 2 11 3.17 0.95
3 2 11 3.91 1.07
-3 -2 -11 3.61 1.01
-3 -2 -11 3.22 0.88
-3 -2 -12 8.21 1.55
-3 -2 -12 6.72 1.81
-3 -2 -12 3.47 1.2
3 2 12 6.22 1.37
-3 -2 -12 4.52 1.23
3 2 12 5.58 1.28
3 2 12 9.3 1.82
-3 -2 -12 6.38 1.5
-3 -2 -12 4.25 1.07
-3 -2 -13 28.5 2.92
3 2 13 28.74 2.94
-3 -2 -13 34.57 3.58
-3 -2 -13 31.44 3.57
-3 -2 -13 32.44 3.07
3 2 14 3.37 1.08
-3 -2 -14 1.81 0.77
-3 -2 -14 4.8 1.35
-3 -2 -14 4.54 1.51
-3 -2 -14 3.94 1.09
3 2 15 7.92 1.51
-3 -2 -15 9.84 1.65
-3 -2 -15 8.5 2
-3 -2 -15 10.57 1.66
-3 -2 -15 11.65 1.91
-3 -2 -15 11.77 2.12
3 2 16 123.65 6.11
-3 -2 -16 129.3 5.99
-3 -2 -16 132.08 7.06
-3 -2 -16 129.92 7.31
-3 -2 -16 143.97 6.92
3 2 16 133.89 6.49
3 2 17 7.07 1.23
-3 -2 -17 9.27 1.64
-3 -2 -17 8.16 1.58
-3 -2 -17 8.93 1.53
3 2 17 7.57 1.35
3 2 18 91.29 4.27
-3 -2 -18 101.38 4.92
-3 -2 -18 112.15 5.55
-3 -2 -18 109.23 5.2
3 2 18 96.56 4.63
-3 -2 -19 49.02 2.96
-3 -2 -19 51.75 2.91
3 2 19 43.36 2.46
-3 -3 16 2 0.52
-3 -3 15 318.02 9.92
3 3 -15 289.06 9.04
3 3 -15 313.24 10.22
-3 -3 15 302.32 9.93
-3 -3 14 91.39 4.62
3 3 -14 85.33 4.1
-3 -3 14 80.35 3.82
-3 -3 14 90.01 4.71
3 3 -13 0.99 0.62
-3 -3 13 0.81 0.67
-3 -3 13 0.62 0.51
-3 -3 12 165.68 7.6
3 3 -12 162.84 7.08
-3 -3 12 170.28 7.2
-3 -3 11 20.05 2.41
3 3 -11 21.4 2.27
-3 -3 11 19.8 2.24
-3 -3 10 35.31 3.23
-3 -3 10 38.55 3.29
-3 -3 10 37.53 3.2
-3 -3 10 40.11 3.23
-3 -3 9 112.91 6.11
-3 -3 9 112.19 5.95
-3 -3 9 108.6 5.83
-3 -3 9 113.79 5.91
-3 -3 8 37.81 3.3
-3 -3 8 40.07 3.24
-3 -3 8 36.03 3.11
-3 -3 8 37.31 3.07
3 3 -8 37.67 3.49
-3 -3 7 3.19 0.93
-3 -3 7 4.26 0.99
-3 -3 7 3.95 1.14
-3 -3 7 4 0.99
-3 -3 7 3.6 1.01
-3 -3 7 3.52 0.91
3 3 -7 2.09 0.86
-3 -3 6 36.16 2.88
-3 -3 6 36.79 2.85
-3 -3 6 37.63 2.91
3 3 -6 42.27 3.32
-3 -3 5 248.93 9.31
-3 -3 5 257.87 9.19
-3 -3 5 247.85 9.16
3 3 -5 269.15 9.78
-3 -3 4 340.81 11.49
-3 -3 4 336.56 11.13
-3 -3 4 337.24 11.21
3 3 -4 353.93 11.73
-3 -3 3 523.18 15.77
-3 -3 3 511.22 15.33
-3 -3 3 504.94 15.42
3 3 -3 521.34 15.78
-3 -3 2 26.54 2.25
-3 -3 2 25.94 2.09
-3 -3 2 27.22 2.19
3 3 -1 19.52 1.44
-3 -3 1 16.62 1.73
-3 -3 1 17.37 1.65
-3 -3 1 18.32 1.75
-3 -3 0 5.14 0.96
-3 -3 0 4.38 0.82
-3 -3 0 5.83 0.89
-3 -3 0 6.36 1.01
3 3 0 6.25 0.81
-3 -3 -1 1086.25 29.43
-3 -3 -1 1080.79 28.91
-3 -3 -1 1116.49 29.1
-3 -3 -1 1116.07 29.37
3 3 1 1109.35 29.28
-3 -3 -1 1070.5 27.8
3 3 1 1121.38 28.54
-3 -3 -2 255.94 8.47
-3 -3 -2 270.5 8.58
-3 -3 -2 254.36 8.78
-3 -3 -2 253.41 8.69
3 3 2 252.94 8.66
3 3 2 252.53 9.05
-3 -3 -2 245.58 7.74
3 3 2 275.11 7.96
-3 -3 -3 118.32 5.14
-3 -3 -3 125.28 4.98
3 3 3 116.16 5.04
3 3 3 126.77 4.7
3 3 3 124.82 5.45
-3 -3 -3 113.7 4.49
-3 -3 -4 39.92 2.68
-3 -3 -4 42.87 2.66
3 3 4 42.92 2.78
3 3 4 46.86 2.64
3 3 4 43.13 2.95
-3 -3 -4 42.11 2.5
-3 -3 -5 8.73 1.2
3 3 5 8.5 1.15
-3 -3 -5 9.81 1.24
3 3 5 10.84 1.5
-3 -3 -5 8.61 1.14
-3 -3 -6 27.54 2.18
3 3 6 28.86 2.27
3 3 6 27.44 2.42
-3 -3 -6 26.42 2.17
3 3 7 29.2 2.38
3 3 7 32.61 2.73
-3 -3 -7 29.16 2.34
-3 -3 -7 25.88 2.28
3 3 8 598.13 17.3
-3 -3 -8 611.49 18.08
3 3 8 593.92 18.19
3 3 8 651.71 19.2
-3 -3 -8 620.23 18.52
3 3 9 6.3 1.09
3 3 9 6.37 1.2
-3 -3 -9 6.5 1.2
3 3 9 5.14 1.23
-3 -3 -9 6.78 1.3
3 3 10 22.78 2.16
-3 -3 -10 28.77 2.6
3 3 10 26.13 2.56
3 3 10 26.63 2.81
-3 -3 -10 23.04 2.52
-3 -3 -11 238.14 10.19
3 3 11 207.61 8.75
-3 -3 -11 226.76 10.14
-3 -3 -11 237.59 9.11
-3 -3 -11 206.58 8.88
3 3 11 238.9 9.46
3 3 11 241.46 10.06
-3 -3 -11 217.84 9.06
-3 -3 -11 245.89 9.84
-3 -3 -11 210.51 9.12
-3 -3 -12 14.01 1.91
-3 -3 -12 18.56 2.7
-3 -3 -12 13.63 1.99
-3 -3 -12 16.75 2.59
-3 -3 -12 17.02 2.17
-3 -3 -12 13.87 2.01
3 3 12 14.16 1.92
-3 -3 -13 356.37 13.79
-3 -3 -13 337.22 12.32
3 3 13 324.76 11.75
-3 -3 -13 330.35 13.43
-3 -3 -13 324.5 12.18
-3 -3 -13 341.8 12.42
-3 -3 -14 1.77 1.13
3 3 14 3.76 1.04
-3 -3 -14 3.76 1.07
-3 -3 -14 3.43 1.16
-3 -3 -14 3.88 1.12
-3 -3 -14 2.71 0.95
3 3 15 114.16 5.55
-3 -3 -15 137.7 7.37
-3 -3 -15 124.74 6.07
-3 -3 -15 131.01 7.31
-3 -3 -15 125.1 6.03
-3 -3 -15 128.9 6.51
3 3 15 121.47 6.25
3 3 16 26.9 2.2
-3 -3 -16 35.83 3.37
-3 -3 -16 29.18 3.1
3 3 16 28.24 2.51
-3 -3 -16 26.91 2.29
-3 -3 -16 30.38 2.5
-3 -3 -16 33.37 3
3 3 16 29.33 2.65
-3 -3 -17 28.71 2.84
-3 -3 -17 27.51 2.69
-3 -3 -17 29.97 2.62
3 3 17 27.54 2.4
-3 -3 -18 145.77 6.32
-3 -3 -18 142.73 5.91
-3 -3 -18 143.04 5.96
3 3 18 137.08 5.68
3 3 19 2.49 0.6
-3 -3 -19 1.76 0.66
3 4 -15 26.19 1.84
-3 -4 14 33.96 2.41
-3 -4 14 28.13 1.97
-3 -4 14 33.64 2.38
-3 -4 13 246.44 9.07
-3 -4 13 229.72 8.45
-3 -4 13 249.25 9.16
-3 -4 12 7.8 1.48
3 4 -12 8.82 1.25
-3 -4 12 8.86 1.4
-3 -4 12 9 1.49
-3 -4 11 1.14 0.87
-3 -4 11 0.64 0.6
-3 -4 11 1.19 0.75
-3 -4 11 0.5 0.63
-3 -4 10 273.4 10.67
-3 -4 10 281.4 11.05
-3 -4 10 277.76 10.76
-3 -4 10 276.54 10.49
-3 -4 9 8.94 1.58
-3 -4 9 9.4 1.81
-3 -4 9 9.07 1.58
-3 -4 9 9.01 1.67
-3 -4 8 9.45 1.57
-3 -4 8 11.58 1.75
-3 -4 8 8.5 1.67
-3 -4 8 8.3 1.62
-3 -4 7 1.62 0.82
-3 -4 7 2.78 1.03
-3 -4 7 1.32 0.83
-3 -4 7 -0.46 1.2
-3 -4 7 1.45 0.78
-3 -4 7 2.93 0.85
-3 -4 7 3.38 0.87
3 4 -7 0.45 0.82
-3 -4 6 29.33 2.91
-3 -4 6 24.45 2.41
-3 -4 6 25.83 2.56
-3 -4 6 33.77 3.36
-3 -4 6 25.08 2.52
-3 -4 6 27.91 2.77
-3 -4 6 26.63 2.62
3 4 -6 23.98 2.66
-3 -4 6 25.76 2.6
-3 -4 6 29.12 3
-3 -4 5 65.14 4.07
-3 -4 5 69.26 4.22
-3 -4 5 74.84 4.45
3 4 -5 70.88 4.49
-3 -4 4 119.08 5.69
-3 -4 4 115.05 5.66
-3 -4 4 126.36 5.94
3 4 -4 114.82 5.79
-3 -4 3 132.94 6.09
-3 -4 3 140.73 6.08
-3 -4 3 125.97 5.94
3 4 -3 130.06 5.98
-3 -4 2 0.4 0.49
-3 -4 2 0.47 0.4
-3 -4 2 0.36 0.38
3 4 -2 0.23 0.37
-3 -4 1 178.85 7.22
-3 -4 1 178.77 6.54
-3 -4 1 171.77 6.86
-3 -4 1 174.02 7.04
3 4 -1 180.23 6.52
3 4 -1 169.6 6.74
-3 -4 0 192.12 6.86
-3 -4 0 181.37 7.05
-3 -4 0 193.42 7.51
-3 -4 0 188.73 7.28
3 4 0 181.28 6.81
3 4 0 186.3 6.93
-3 -4 -1 13.53 1.65
-3 -4 -1 14.54 1.51
-3 -4 -1 13.7 1.51
-3 -4 -1 15.49 1.72
3 4 1 13.52 1.55
-3 -4 -2 1138.08 31.15
-3 -4 -2 1142.43 30.57
-3 -4 -2 1186.69 30.62
-3 -4 -2 1126.37 30.9
3 4 2 1155.19 30.77
3 4 2 1098.95 30.68
-3 -4 -3 70.01 4.06
-3 -4 -3 77.48 3.76
-3 -4 -3 76.85 3.96
3 4 3 77.38 4.05
3 4 3 70.92 3.93
-3 -4 -3 73.31 3.41
-3 -4 -4 287.71 9.92
-3 -4 -4 294.81 9.36
3 4 4 300.41 9.64
3 4 4 288.48 10.06
-3 -4 -4 288.06 9.42
-3 -4 -5 163.44 6.74
3 4 5 168.81 6.58
3 4 5 165.18 6.86
-3 -4 -5 158.53 6.34
-3 -4 -6 1991.45 50.36
3 4 6 1979.59 50.17
3 4 6 1897.54 50.38
-3 -4 -6 1836.98 49.74
-3 -4 -7 24.27 2.33
3 4 7 24.44 2.33
3 4 7 23.33 2.39
-3 -4 -7 27.47 2.41
-3 -4 -8 42.6 3.24
3 4 8 42.27 3.24
3 4 8 39.79 3.28
-3 -4 -8 41.74 3.19
-3 -4 -9 12.71 1.83
-3 -4 -9 14.34 1.99
-3 -4 -9 14.46 2.16
-3 -4 -9 11.54 1.71
-3 -4 -9 16.35 2.04
3 4 9 15.28 1.98
3 4 9 14.74 2.03
-3 -4 -9 12.73 1.83
-3 -4 -10 69.13 4.54
-3 -4 -10 68.48 4.47
-3 -4 -10 70.62 4.65
-3 -4 -10 74.4 5.21
-3 -4 -10 74.43 5.16
-3 -4 -10 69.03 4.52
3 4 10 73.39 4.69
3 4 10 76.98 4.94
-3 -4 -10 69.01 4.52
-3 -4 -11 10.36 1.71
-3 -4 -11 12.19 2.17
-3 -4 -11 11.52 2.09
-3 -4 -11 8.97 1.57
3 4 11 9.42 1.59
-3 -4 -11 8.19 1.52
-3 -4 -12 20.71 2.27
-3 -4 -12 25.08 3.06
-3 -4 -12 25.68 2.7
-3 -4 -12 24.27 3
-3 -4 -12 23.45 2.57
-3 -4 -13 6.38 1.55
-3 -4 -13 8.18 1.46
-3 -4 -13 8.37 1.8
-3 -4 -13 5.37 1.27
-3 -4 -14 10.74 2.06
-3 -4 -14 10.62 2
-3 -4 -14 10.22 1.58
-3 -4 -14 11.53 1.79
3 4 14 10.47 1.63
-3 -4 -14 11.25 1.66
-3 -4 -15 65.46 4.84
-3 -4 -15 68.92 3.98
-3 -4 -15 78.35 5.13
-3 -4 -15 62.77 3.91
-3 -4 -15 77.96 4.59
3 4 15 65.42 4.04
-3 -4 -16 2.48 0.94
-3 -4 -16 2.8 0.95
3 4 16 3.55 0.89
-3 -4 -16 2.2 0.67
-3 -4 -16 2.1 0.77
3 4 16 2.04 0.69
-3 -4 -17 4.62 1.09
-3 -4 -17 5.15 1.12
3 4 17 2.53 0.68
-3 -4 -17 4.66 1.08
3 4 17 3 0.81
-3 -4 -18 223.55 7.83
3 4 18 212.49 7.26
-3 -5 13 6.46 1.02
-3 -5 12 4.52 0.89
-3 -5 12 7.12 1.05
-3 -5 12 4.11 0.94
-3 -5 11 48.82 3.39
-3 -5 11 50.29 3.51
-3 -5 11 45.58 3.1
-3 -5 11 49.39 3.3
-3 -5 10 3.35 1.01
-3 -5 10 3.75 1.02
-3 -5 10 2.09 0.74
-3 -5 10 3.39 1.2
-3 -5 9 710.75 22.09
-3 -5 9 740.34 22.39
-3 -5 9 684.22 21.53
-3 -5 9 743.82 22.28
-3 -5 8 710.48 22.07
-3 -5 8 683.79 21.55
-3 -5 8 724.01 22.29
-3 -5 8 705.58 21.65
-3 -5 7 612.12 19.47
-3 -5 7 572.23 18.62
-3 -5 7 578.13 20.16
-3 -5 7 596.83 19.4
-3 -5 7 582.52 18.78
-3 -5 6 14.36 2.04
-3 -5 6 13.98 1.94
-3 -5 6 13.77 2.38
-3 -5 6 16.69 2.11
-3 -5 6 16.03 2.29
-3 -5 5 33.56 3.06
-3 -5 5 27.99 2.75
-3 -5 5 35.31 3.11
-3 -5 5 33.74 3.5
-3 -5 5 29.95 3.09
-3 -5 5 34.07 3.1
3 5 -5 28.57 2.88
-3 -5 5 30.31 2.91
-3 -5 4 11.54 1.78
-3 -5 4 9.87 1.63
-3 -5 4 12.11 1.7
-3 -5 4 12.7 2.15
-3 -5 4 11.21 1.73
-3 -5 4 9.14 1.56
-3 -5 4 11.41 1.82
-3 -5 4 9.82 1.74
-3 -5 4 8.91 1.57
3 5 -4 12.4 1.78
-3 -5 3 155.56 7.34
-3 -5 3 150.86 7.06
-3 -5 3 164.68 7.18
-3 -5 3 174.98 8.19
-3 -5 3 163.18 7.34
-3 -5 3 176.31 7.56
-3 -5 3 162.06 7.83
-3 -5 3 166.34 7.47
-3 -5 3 163.84 7.51
3 5 -3 160.12 7.13
-3 -5 3 170.18 7.49
-3 -5 2 11.16 1.7
-3 -5 2 11.74 1.74
-3 -5 2 10.31 1.62
-3 -5 2 10.8 1.81
-3 -5 2 9.68 1.52
-3 -5 2 8.32 1.44
-3 -5 2 10.53 1.82
-3 -5 2 8.97 1.51
-3 -5 2 9.11 1.48
-3 -5 1 15.88 1.93
-3 -5 1 19.16 2.15
-3 -5 1 18.13 2.1
-3 -5 0 557.4 17.33
-3 -5 0 528.96 16.74
-3 -5 0 535.92 16.98
3 5 0 563.15 16.65
-3 -5 -1 52.37 3.27
-3 -5 -1 50.55 3.32
-3 -5 -1 53.12 3.58
3 5 1 47.5 3.27
-3 -5 -2 57.17 3.58
-3 -5 -2 59.64 3.6
-3 -5 -2 64.88 4.01
3 5 2 59.34 3.74
-3 -5 -3 81.36 4.48
3 5 3 82.99 4.61
-3 -5 -4 294.5 10.52
3 5 4 281.62 10.41
-3 -5 -5 175.04 7.47
3 5 5 168.86 7.38
-3 -5 -6 2.39 1.01
-3 -5 -6 1.11 0.59
-3 -5 -6 1.22 0.53
-3 -5 -6 0.88 0.65
-3 -5 -6 1.08 0.65
3 5 6 1.03 0.57
-3 -5 -6 3.47 1.31
3 5 6 0.66 0.59
-3 -5 -6 0.5 0.58
-3 -5 -7 571.7 18.14
-3 -5 -7 577.02 18.49
-3 -5 -7 609.24 18.43
-3 -5 -7 605.76 18.96
-3 -5 -7 576.5 18.49
-3 -5 -7 577.22 19.49
-3 -5 -7 578.45 18.39
3 5 7 595.44 18.29
3 5 7 574.6 18.37
-3 -5 -7 589.16 18.61
-3 -5 -8 238.98 9.59
-3 -5 -8 216.89 8.74
-3 -5 -8 227.06 10.07
-3 -5 -8 217.99 9.11
-3 -5 -8 210.61 9.77
-3 -5 -8 207.44 8.94
-3 -5 -8 223.74 9.13
3 5 8 220.34 9.05
3 5 8 205.26 8.82
3 5 8 227.91 9.03
-3 -5 -8 225.82 9.29
-3 -5 -9 10.53 1.72
-3 -5 -9 7.33 1.45
-3 -5 -9 12.14 1.89
-3 -5 -9 9.39 1.9
-3 -5 -9 9.39 1.65
-3 -5 -9 11.26 2.09
-3 -5 -10 156.98 7.44
-3 -5 -10 142.81 6.89
-3 -5 -10 147.73 7.1
-3 -5 -10 162.91 8.28
-3 -5 -10 151.5 7.23
-3 -5 -10 162.57 8.34
-3 -5 -11 325.18 12.64
-3 -5 -11 282.03 10.45
-3 -5 -11 278.56 10.64
-3 -5 -11 288.02 10.92
3 5 11 256.72 9.93
-3 -5 -11 302.21 12.23
-3 -5 -12 16.75 2.6
-3 -5 -12 14.2 1.82
-3 -5 -12 12.03 1.7
-3 -5 -12 15.61 2.44
-3 -5 -12 14.74 1.97
3 5 12 14.39 1.79
-3 -5 -13 73.31 5.21
-3 -5 -13 62.74 3.87
-3 -5 -13 70.14 4.98
-3 -5 -13 67.12 4.16
3 5 13 57.83 3.65
-3 -5 -14 10.48 1.95
-3 -5 -14 10.95 1.9
-3 -5 -14 10.19 1.46
3 5 14 9.97 1.35
-3 -5 -15 0.65 0.75
-3 -5 -15 -0.04 0.55
-3 -5 -15 1.06 0.49
3 5 15 0.69 0.42
-3 -5 -16 0.01 0.61
-3 -5 -16 -0.67 0.65
3 5 16 0.51 0.5
-3 -5 -16 0.76 0.37
3 5 16 1.42 0.52
3 5 17 51.21 2.83
3 5 17 53.96 2.68
-3 -6 12 34.36 2.12
-3 -6 11 1.75 0.57
-3 -6 11 2.05 0.66
-3 -6 10 119.88 5.62
-3 -6 10 114.67 5.22
-3 -6 9 22.57 2.41
-3 -6 9 21.21 2.16
-3 -6 8 17.17 2.18
-3 -6 8 15.87 1.96
-3 -6 7 32.68 3.5
-3 -6 7 33.96 3.25
-3 -6 7 35.54 3.09
-3 -6 6 5.44 1.26
-3 -6 6 5.77 1.48
-3 -6 5 81.97 5.67
-3 -6 5 81.18 4.98
-3 -6 5 84.06 5.57
-3 -6 5 89.59 5.23
-3 -6 4 31.82 3.09
-3 -6 4 30.06 2.69
-3 -6 4 29.37 3.28
-3 -6 4 29.32 2.87
-3 -6 4 26.53 3.05
-3 -6 4 28.42 2.81
-3 -6 3 115.61 6.28
-3 -6 3 116.58 6.53
-3 -6 3 116.86 6.77
-3 -6 3 108.32 5.71
-3 -6 3 111.2 6.01
-3 -6 3 113.64 6.22
-3 -6 3 104.51 6.48
-3 -6 3 105.64 5.85
-3 -6 2 347.05 12.97
-3 -6 2 355.94 13.33
-3 -6 2 369.06 13.86
-3 -6 2 369.96 12.95
-3 -6 2 348.43 12.55
-3 -6 2 336.79 13.69
-3 -6 2 367.77 13.15
-3 -6 2 352.32 12.71
-3 -6 1 1.36 0.74
-3 -6 1 2.15 0.74
-3 -6 1 0.7 0.78
-3 -6 1 1.68 0.88
-3 -6 1 1.86 1.07
-3 -6 1 1.73 0.74
-3 -6 1 2.35 1.22
-3 -6 1 1.34 0.82
-3 -6 0 5.31 1.28
-3 -6 0 6.29 1.39
-3 -6 0 4.76 1.28
-3 -6 0 5.38 1.25
-3 -6 0 4.85 1.34
-3 -6 0 5.57 1.25
-3 -6 0 3.45 0.88
-3 -6 0 6.31 1.63
-3 -6 0 5.45 1.26
-3 -6 -1 33.63 3.08
-3 -6 -1 33.69 3.2
-3 -6 -1 32.71 3.04
-3 -6 -1 35.92 3.43
-3 -6 -1 33.78 2.92
-3 -6 -1 34.49 3.03
-3 -6 -1 42.43 4.01
-3 -6 -1 33.15 3.07
3 6 1 40.71 3.25
-3 -6 -2 223.97 9.38
-3 -6 -2 240.17 9.77
-3 -6 -2 237.93 9.57
-3 -6 -2 230.47 9.86
-3 -6 -2 219.63 9.01
-3 -6 -2 232.09 9.37
3 6 2 214.06 9.08
-3 -6 -3 138 6.87
-3 -6 -3 139.94 6.68
-3 -6 -3 150.89 7.13
-3 -6 -3 145.2 7.33
-3 -6 -3 143.34 6.61
-3 -6 -3 151.2 7.26
-3 -6 -3 141.54 6.77
-3 -6 -3 148.05 6.94
3 6 3 130.4 6.68
-3 -6 -4 198.28 8.59
-3 -6 -4 207.88 8.87
-3 -6 -4 205.07 9.14
-3 -6 -4 194.91 8.47
-3 -6 -4 203.89 8.53
-3 -6 -4 213.78 9.05
-3 -6 -5 20.66 2.46
-3 -6 -5 17.29 2.16
-3 -6 -5 19.12 2.32
-3 -6 -5 17.03 2.38
-3 -6 -5 15.38 2.03
-3 -6 -5 19.26 2.19
-3 -6 -6 0.62 0.58
-3 -6 -6 1.71 0.79
-3 -6 -6 2.04 0.85
-3 -6 -6 0.11 0.63
-3 -6 -6 2.12 1.11
-3 -6 -6 2.33 0.92
-3 -6 -6 2.77 0.91
-3 -6 -7 95.29 5.31
-3 -6 -7 94.37 5.48
-3 -6 -7 108.92 6.38
-3 -6 -7 102.51 5.58
-3 -6 -7 101.13 5.97
-3 -6 -7 101.27 6.44
-3 -6 -7 92.26 5.46
-3 -6 -7 101.22 5.2
-3 -6 -8 217.76 8.68
-3 -6 -8 199.99 8.78
-3 -6 -8 241.33 10.32
-3 -6 -8 233.71 9.07
-3 -6 -8 215.16 9.48
-3 -6 -8 226.67 10.35
-3 -6 -8 208.41 9.01
-3 -6 -9 80.52 5.16
-3 -6 -9 76.48 4.7
-3 -6 -9 80.97 4.94
-3 -6 -9 80 5.66
-3 -6 -10 9.75 1.79
-3 -6 -10 7.55 1.42
-3 -6 -10 9.88 1.69
-3 -6 -10 9.64 2.01
-3 -6 -10 7.9 1.52
-3 -6 -11 6.36 1.17
-3 -6 -11 6.2 1.29
-3 -6 -11 6.26 1.56
-3 -6 -11 4.17 1.11
-3 -6 -11 5.5 1.41
-3 -6 -12 64.08 4.56
-3 -6 -12 62.72 3.99
-3 -6 -12 64.64 4.65
-3 -6 -12 59.05 3.85
-3 -6 -13 46.45 3.57
-3 -6 -13 37.16 2.8
-3 -6 -13 45.06 3.61
-3 -6 -13 41.68 2.97
-3 -6 -14 10.76 1.58
-3 -6 -14 12.07 1.78
-3 -6 -14 10.39 1.23
3 6 14 12.32 1.47
-3 -6 -14 10.49 1.34
-3 -6 -15 112.38 4.84
-3 -6 -15 122.9 5.38
3 6 15 115.65 4.8
-3 -6 -15 111.29 4.64
3 6 16 148.35 5.24
-3 -7 9 66.19 3.33
-3 -7 9 69.77 3.42
-3 -7 8 0.95 0.5
-3 -7 8 0.97 0.45
-3 -7 7 0.63 0.65
-3 -7 7 -0.1 0.47
-3 -7 6 170.41 7.61
-3 -7 6 177.38 7.59
-3 -7 6 177.06 7.38
-3 -7 5 27.76 2.83
-3 -7 5 27.97 2.77
-3 -7 5 26.42 2.53
-3 -7 4 11.62 1.94
-3 -7 4 13.61 1.84
-3 -7 4 14.9 2.09
-3 -7 4 15.51 1.97
-3 -7 3 170.98 7.55
-3 -7 3 158.53 7.99
-3 -7 3 169.59 7.94
-3 -7 3 163.84 7.35
-3 -7 2 17.55 2.28
-3 -7 2 18.76 2.46
-3 -7 2 21.2 2.66
-3 -7 2 17.27 2.15
-3 -7 2 21.26 2.54
-3 -7 2 17.91 2.26
-3 -7 2 18.02 2.15
-3 -7 1 17.89 2.23
-3 -7 1 14.41 2.13
-3 -7 1 16.74 2.07
-3 -7 1 17.69 2.45
-3 -7 1 17.62 2.19
-3 -7 1 17.34 2.23
-3 -7 1 19.49 2.23
-3 -7 0 1.6 0.81
-3 -7 0 1.82 0.83
-3 -7 0 3 1.04
-3 -7 0 2.04 0.98
-3 -7 0 2.23 0.81
-3 -7 0 2.04 0.83
-3 -7 0 1.85 0.69
-3 -7 -1 50.6 3.81
-3 -7 -1 52.7 4.04
-3 -7 -1 52.68 3.83
-3 -7 -1 45.5 3.92
-3 -7 -1 44.79 3.47
-3 -7 -1 49.51 3.78
-3 -7 -2 0.51 0.69
-3 -7 -2 1.21 0.76
-3 -7 -2 0.37 0.75
-3 -7 -2 0.87 0.45
-3 -7 -3 1528.63 42.47
-3 -7 -3 1627.19 42.86
-3 -7 -3 1573.02 43.49
-3 -7 -3 1523.54 41.91
-3 -7 -3 1555.06 42.54
-3 -7 -3 1597.21 43.06
-3 -7 -3 1546.79 42.53
-3 -7 -4 11.05 1.85
-3 -7 -4 12.07 1.84
-3 -7 -4 10.97 1.92
-3 -7 -4 10.04 1.52
-3 -7 -4 11.61 1.84
-3 -7 -4 11.4 1.86
-3 -7 -4 8.94 1.61
-3 -7 -5 238.82 9.56
-3 -7 -5 251.36 9.99
-3 -7 -5 259.75 10.04
-3 -7 -5 244.56 9.87
-3 -7 -5 246.4 10.37
-3 -7 -5 247.16 9.66
-3 -7 -6 11.19 1.7
-3 -7 -6 10.91 1.89
-3 -7 -6 8.57 1.57
-3 -7 -6 10.39 1.6
-3 -7 -6 8.6 1.46
-3 -7 -7 170.22 7.16
-3 -7 -7 171.58 7.52
-3 -7 -7 175.62 8.15
-3 -7 -7 177.17 7.8
-3 -7 -7 168.26 7.12
-3 -7 -8 4.92 1.08
-3 -7 -8 4.86 1.24
-3 -7 -8 5.34 1.23
-3 -7 -8 4.99 0.99
-3 -7 -9 289.48 10.37
-3 -7 -9 308.23 11.3
-3 -7 -9 309.11 10.98
-3 -7 -10 0.83 0.47
-3 -7 -10 2.88 0.94
-3 -7 -10 2.35 0.81
-3 -7 -11 0.89 0.63
3 7 11 0.18 0.33
-3 -7 -11 0.84 0.61
-3 -7 -12 0.78 0.48
3 7 12 0.79 0.41
-3 -7 -12 2.09 0.71
-3 -7 -13 161.6 5.88
3 7 13 162.67 5.82
3 7 14 13.78 1.14
-3 -7 -14 17.88 1.39
-3 -8 6 105.74 4.27
-3 -8 5 37.08 2.39
-3 -8 4 14.84 1.63
-3 -8 4 14.88 1.53
-3 -8 3 83.23 4.36
-3 -8 3 81.53 4.08
-3 -8 2 18.47 2.01
-3 -8 2 19.28 1.84
-3 -8 1 206.63 8.03
-3 -8 1 208.4 8.38
-3 -8 1 214.95 7.71
-3 -8 0 44.9 3.36
-3 -8 0 42.37 3.06
-3 -8 -1 6.44 1.26
-3 -8 -1 4.05 0.96
-3 -8 -1 4.63 1.08
-3 -8 -2 3.71 1.03
-3 -8 -2 3.36 1.02
-3 -8 -2 2.76 0.75
-3 -8 -2 2.91 0.84
-3 -8 -3 -0.23 0.48
-3 -8 -3 0.47 0.64
-3 -8 -3 0.67 0.57
-3 -8 -4 29.68 2.59
-3 -8 -4 32.42 2.53
-3 -8 -4 31.84 2.81
-3 -8 -4 25.43 2.35
-3 -8 -5 0.46 0.54
-3 -8 -5 0.71 0.55
-3 -8 -5 -0.23 0.42
-3 -8 -5 0.02 0.48
-3 -8 -6 11.45 1.51
-3 -8 -6 10.59 1.54
-3 -8 -6 7.24 1.21
-3 -8 -6 8.87 1.24
-3 -8 -7 46.98 2.97
-3 -8 -7 51.96 3.38
-3 -8 -7 40.79 2.95
-3 -8 -7 45.87 2.76
-3 -8 -8 175.19 6.54
-3 -8 -8 175.88 6.93
-3 -8 -8 190.33 7.24
-3 -8 -9 18.72 1.51
-3 -8 -9 19.05 1.81
-3 -8 -9 18.64 1.76
-3 -8 -10 1.4 0.55
-3 -8 -10 2.68 0.72
-3 -8 -11 26.27 1.69
-3 -8 -11 25.94 1.76
-3 -9 -1 3.3 0.61
-3 -9 -2 37.15 2.07
-3 -9 -3 1.89 0.52
-3 -9 -4 61.69 2.84
-3 -9 -5 168.05 5.59
4 -6 -4 92.74 3.46
-4 6 4 89.65 3.42
4 -6 -3 33.86 1.96
-4 6 3 31.35 1.73
-4 6 3 33.18 1.9
4 -6 -2 33.53 2.05
4 -6 -2 32.88 1.98
-4 6 2 32.86 1.95
-4 6 2 30.21 1.91
4 -6 -1 135.67 5.04
4 -6 -1 131.29 5
-4 6 1 125.6 4.81
-4 6 1 123.7 4.77
4 -6 0 85.57 3.75
4 -6 0 70.55 3.14
4 -6 0 87.15 3.85
-4 6 0 79.14 3.51
-4 6 0 75.45 3.44
4 -6 1 10.87 1.06
4 -6 1 14.19 1.38
4 -6 1 15.24 1.33
4 -6 1 13.6 1.4
-4 6 -1 12.78 1.25
-4 6 -1 11.39 1.17
4 -6 2 20.05 1.56
4 -6 2 20.32 1.64
4 -6 2 22.71 1.67
4 -6 2 25.41 1.96
-4 6 -2 23.48 1.7
-4 6 -2 22.23 1.64
4 -6 3 1.28 0.48
4 -6 3 1.07 0.41
4 -6 3 0.15 0.34
4 -6 3 0.18 0.33
-4 6 -3 0.73 0.37
-4 6 -3 0.6 0.33
4 -6 4 39.73 2.24
4 -6 4 40.46 2.16
4 -6 4 42.91 2.34
-4 6 -4 34.75 1.98
-4 6 -4 35.22 2.03
4 -6 5 38.25 2.1
4 -6 5 37 1.94
4 -6 5 37.46 1.96
-4 6 -5 34.42 1.78
-4 6 -5 36.76 1.91
4 -6 6 12.49 1.05
-4 5 8 71.18 3.02
4 -5 -8 67.82 2.92
4 -5 -8 72.58 3.12
4 -5 -7 279.91 8.68
4 -5 -7 279.16 8.8
-4 5 7 289.57 8.73
-4 5 6 10.16 1.22
4 -5 -6 11.86 1.34
4 -5 -6 10.62 1.14
4 -5 -6 12.5 1.43
-4 5 5 5.6 0.98
4 -5 -5 4.63 0.99
4 -5 -5 4.29 0.79
4 -5 -5 3.56 0.74
4 -5 -5 5.08 0.89
4 -5 -5 5.62 1.02
-4 5 5 4.67 0.81
-4 5 4 97.54 4.62
4 -5 -4 104.45 4.91
-4 5 4 97.07 4.42
4 -5 -4 91.37 4.36
4 -5 -4 91.51 4.48
4 -5 -4 86.4 4.1
4 -5 -4 96.76 4.67
-4 5 3 29.17 2.4
4 -5 -3 35.9 2.78
4 -5 -3 30.86 2.33
4 -5 -3 31.96 2.5
4 -5 -3 35.16 2.73
4 -5 -3 33.5 2.32
-4 5 3 28.22 2.32
4 -5 -3 31.38 2.52
-4 5 2 17.14 1.85
4 -5 -2 21.55 2.22
4 -5 -2 17.6 1.9
4 -5 -2 20.54 2.18
4 -5 -2 17.71 1.82
-4 5 2 20.61 2.04
4 -5 -2 17.07 1.86
-4 5 1 216.29 8.16
4 -5 -1 233.94 8.83
4 -5 -1 227.23 8.65
4 -5 -1 231.62 9
4 -5 -1 210.09 8.2
-4 5 1 220.42 8.46
4 -5 -1 217.32 8.08
-4 5 0 57.59 3.45
4 -5 0 59.99 3.9
4 -5 0 58.94 3.83
4 -5 0 62.09 4.12
-4 5 0 61.05 3.82
4 -5 1 259.46 9.84
4 -5 1 280.21 10.41
-4 5 -1 267.43 9.79
4 -5 1 257.53 9.8
-4 5 -1 260.15 9.81
4 -5 2 41.24 3.13
-4 5 -2 37.19 2.6
4 -5 2 44.18 3.27
4 -5 2 43.34 3.38
-4 5 -2 40.26 3.09
-4 5 -2 41.93 3.18
4 -5 3 95.15 4.94
-4 5 -3 77.93 4.14
4 -5 3 88.45 4.87
4 -5 3 93.65 5.06
-4 5 -3 88.96 4.8
-4 5 -3 91.58 4.85
-4 5 -4 3.08 0.84
4 -5 4 2.17 0.75
4 -5 4 2.54 0.84
-4 5 -4 4.52 1.08
-4 5 -4 3.24 0.81
4 -5 5 28.34 2.39
4 -5 5 29.35 2.22
-4 5 -5 26.74 2.24
4 -5 5 29.19 2.59
4 -5 5 26.5 2.42
-4 5 -5 29.55 2.41
-4 5 -5 31.29 2.57
4 -5 6 191.74 7.17
-4 5 -6 184.66 7.15
4 -5 6 180.67 6.84
4 -5 6 207.1 7.96
4 -5 6 198.99 7.55
-4 5 -6 180.91 7.05
-4 5 -6 194.56 7.49
-4 5 -7 1.03 0.54
4 -5 7 0.94 0.5
4 -5 7 1.21 0.5
4 -5 7 0.93 0.52
-4 5 -7 1.01 0.47
-4 5 -7 0.7 0.56
4 -5 8 44.97 2.91
4 -5 8 43.89 2.51
-4 5 -8 44.69 2.7
4 -5 8 46.91 2.91
-4 5 -8 41.87 2.31
-4 5 -8 42.75 2.69
4 -5 9 116.2 4.67
4 -5 9 111.26 4.27
-4 5 -9 114.5 4.55
4 -5 9 115.43 4.67
-4 5 -9 106.06 4.45
-4 5 -10 0.46 0.3
-4 5 -10 0.61 0.36
4 -5 10 0.26 0.25
4 -4 -11 0.59 0.3
-4 4 11 0.65 0.28
4 -4 -11 0.56 0.3
4 -4 -11 1.25 0.4
-4 4 10 26.42 1.73
4 -4 -10 27.41 1.78
-4 4 10 26.48 1.79
4 -4 -10 25.82 1.78
-4 4 10 27.82 1.72
4 -4 -10 28.02 2
4 -4 -10 28.18 1.88
4 -4 -9 36.45 2.44
-4 4 9 37.41 2.39
4 -4 -9 31.96 2.19
4 -4 -9 33.32 2.05
-4 4 9 33.27 2.22
4 -4 -9 33.69 2.3
-4 4 9 37.83 2.33
4 -4 -9 36.39 2.56
-4 4 8 80.58 4.12
4 -4 -8 79.19 4.17
4 -4 -8 76.3 3.89
4 -4 -8 76.2 3.79
4 -4 -8 73.33 3.87
-4 4 8 82.76 3.97
-4 4 8 80.19 3.96
4 -4 -8 83.71 4.43
-4 4 7 408.84 12.9
4 -4 -7 409.91 13.05
4 -4 -7 367.37 12.31
4 -4 -7 372.1 12.38
-4 4 7 406.27 12.49
4 -4 -7 367.52 12.34
-4 4 7 409.08 12.41
4 -4 -7 404.68 13.3
-4 4 6 148.8 6.58
4 -4 -6 136.79 6.12
4 -4 -6 152.85 6.75
4 -4 -6 132.44 6.06
4 -4 -6 144.59 6.35
-4 4 6 143.87 6.04
4 -4 -6 135.87 6.11
-4 4 6 144.67 5.96
4 -4 -6 145.29 6.79
-4 4 5 68.02 4.27
4 -4 -5 66.64 4.32
4 -4 -5 63.53 3.97
4 -4 -5 61.81 4.09
4 -4 -5 60.41 3.97
4 -4 -5 60.76 3.83
-4 4 5 69.93 3.91
4 -4 -5 70.62 4.51
-4 4 4 11.14 1.74
4 -4 -4 10.54 1.76
4 -4 -4 8.18 1.42
4 -4 -4 7.98 1.58
4 -4 -4 9.78 1.62
4 -4 -4 9.28 1.45
4 -4 -4 9.47 1.49
-4 4 4 8.56 1.39
4 -4 -4 8.21 1.59
-4 4 3 3.39 1.06
4 -4 -3 2.53 1.01
4 -4 -3 1.95 0.78
4 -4 -3 0.63 0.57
4 -4 -3 2.72 0.99
4 -4 -3 2.65 0.98
4 -4 -3 2.17 0.94
-4 4 3 2.43 0.9
4 -4 -3 0.71 0.69
-4 4 2 129.4 6.37
4 -4 -2 125.84 6.52
4 -4 -2 116.45 5.96
4 -4 -2 125.73 6.74
4 -4 -2 122.43 6.41
4 -4 -2 120.33 6.07
-4 4 2 122.52 6.22
4 -4 -2 113.58 6.11
-4 4 1 304.54 11.23
4 -4 -1 301.8 11.59
4 -4 -1 312.18 12.17
4 -4 -1 287.15 11.39
4 -4 -1 291.32 11.1
-4 4 1 304.87 11.37
4 -4 -1 295.31 11.1
-4 4 0 4.72 1.17
4 -4 0 2.78 0.83
4 -4 0 4.49 1.25
4 -4 0 6.18 1.43
4 -4 0 3.41 1.21
4 -4 0 5.46 1.34
-4 4 0 6.7 1.39
-4 4 -1 15.95 1.99
4 -4 1 12.71 1.97
4 -4 1 14.28 1.87
4 -4 1 13.09 2.15
4 -4 1 16.26 2.24
4 -4 1 14.48 2.11
-4 4 -1 14.69 2.04
-4 4 -2 74.28 4.36
4 -4 2 69.38 4.53
-4 4 -2 67.62 4.2
4 -4 2 72.92 4.92
4 -4 2 79.33 5.26
4 -4 2 80.49 5.12
-4 4 -2 80.81 5.06
4 -4 2 75.22 4.88
4 -4 3 59.29 4.23
4 -4 3 64.22 4.44
-4 4 -3 61.92 4.06
4 -4 3 66.44 4.67
4 -4 3 67.43 4.78
-4 4 -3 78.94 4.96
-4 4 -3 73.95 4.83
4 -4 4 386.94 13.64
4 -4 4 364.13 13.48
-4 4 -4 366.29 13.22
4 -4 4 423.71 14.46
4 -4 4 386.97 14.04
-4 4 -4 396.89 13.89
-4 4 -4 410.4 14.15
4 -4 5 62 4.21
4 -4 5 55.45 4.07
-4 4 -5 60.12 4.13
4 -4 5 69.46 4.7
4 -4 5 61.29 4.33
-4 4 -5 58.7 4.13
-4 4 -5 64.15 4.45
-4 4 -6 7.38 1.43
4 -4 6 5.07 1.09
4 -4 6 3.61 1.1
4 -4 6 6.28 1.43
4 -4 6 6.87 1.4
-4 4 -6 8.58 1.5
-4 4 -6 6.56 1.49
4 -4 7 6.49 1.21
-4 4 -7 4.71 1.16
4 -4 7 5.56 1.31
4 -4 7 7.43 1.29
4 -4 7 6.53 1.34
4 -4 7 7.74 1.59
-4 4 -7 5.51 1.17
-4 4 -7 6.18 1.39
4 -4 8 28.13 2.69
-4 4 -8 28.89 2.65
4 -4 8 25.43 2.34
4 -4 8 27.02 2.79
-4 4 -8 30.19 2.55
-4 4 -8 28.23 2.73
4 -4 9 99.52 5.17
-4 4 -9 92.61 4.92
4 -4 9 91.38 4.73
4 -4 9 103.46 5.5
-4 4 -9 94.96 4.57
-4 4 -9 96.61 5.14
4 -4 10 17.01 1.9
-4 4 -10 18.89 1.95
4 -4 10 18.5 1.85
4 -4 10 19.58 2.07
-4 4 -10 17.51 1.9
4 -4 11 272.28 9.17
4 -4 11 304.65 9.9
-4 4 -11 290.89 9.63
4 -4 11 300.43 9.54
4 -4 11 267.84 9.41
-4 4 -11 279.36 9.56
4 -4 12 19.14 1.71
4 -4 12 19.69 1.62
-4 4 -12 19.66 1.68
-4 4 -12 19.73 1.65
-4 4 -13 2.45 0.53
4 -4 13 2.57 0.6
4 -4 13 1.15 0.41
-4 4 -13 2.69 0.58
-4 3 13 2.33 0.48
4 -3 -13 2 0.45
-4 3 13 1.99 0.42
4 -3 -12 29.25 1.89
4 -3 -12 31.06 1.86
-4 3 12 35.69 2.17
4 -3 -12 35.45 2.13
-4 3 12 31.63 2.03
4 -3 -12 29.39 1.98
4 -3 -11 38.08 2.51
4 -3 -11 37.13 2.37
4 -3 -11 33.8 2.15
4 -3 -11 36.75 2.48
-4 3 11 37.43 2.49
-4 3 11 42.63 2.67
4 -3 -11 38.49 2.61
4 -3 -10 4.35 0.94
4 -3 -10 3.11 0.78
-4 3 10 4.07 0.93
4 -3 -10 4.22 0.85
4 -3 -10 3.39 0.91
-4 3 10 4.63 0.95
4 -3 -10 3.11 0.93
-4 3 10 4.11 0.79
-4 3 9 206.66 7.78
4 -3 -9 190.28 7.65
-4 3 9 205.7 8.02
4 -3 -9 195.2 7.72
4 -3 -9 185.72 7.75
-4 3 9 207.6 8.08
4 -3 -9 202.96 8.09
-4 3 8 10.45 1.59
4 -3 -8 10.34 1.64
4 -3 -8 10.97 1.58
-4 3 8 10.7 1.63
4 -3 -8 11.77 1.7
4 -3 -8 11.75 1.69
-4 3 8 11.85 1.69
-4 3 7 5.18 1.13
4 -3 -7 5.62 1.36
4 -3 -7 5.45 1.2
-4 3 7 5.98 1.28
4 -3 -7 4.43 1.07
4 -3 -7 3.83 1.05
-4 3 7 3.5 1.09
4 -3 -6 25.92 2.8
-4 3 6 30.32 2.87
4 -3 -6 26.52 2.59
-4 3 6 26.94 2.66
4 -3 -6 26.78 2.71
4 -3 -6 29.22 2.75
-4 3 6 28.21 2.74
-4 3 5 189.79 8.25
4 -3 -5 182.7 8.29
4 -3 -5 173.22 7.77
-4 3 5 168.69 7.58
4 -3 -5 177.67 8.07
4 -3 -5 169.47 7.65
-4 3 5 178.12 7.95
-4 3 4 0.62 0.58
4 -3 -4 0.09 0.83
4 -3 -4 2.1 1.04
-4 3 4 0.83 0.58
4 -3 -4 0.64 0.51
4 -3 -4 0.93 0.76
-4 3 4 0.32 0.64
-4 3 4 0.65 0.59
-4 3 3 149.81 7.21
4 -3 -3 134.89 6.62
4 -3 -3 138.52 7
4 -3 -3 131.68 6.4
4 -3 -3 134.34 6.98
-4 3 3 137.44 6.6
-4 3 3 145.41 6.8
-4 3 2 1185.5 32.94
4 -3 -2 1180.06 33
4 -3 -2 1110.92 32.08
4 -3 -2 1157.99 32.42
-4 3 2 1115.41 31.82
-4 3 2 1146.95 32.6
4 -3 -2 1166.74 33
-4 3 1 516.8 16.63
4 -3 -1 488.69 16.47
4 -3 -1 480.91 16.25
4 -3 -1 479.22 15.83
4 -3 -1 484.43 16.6
4 -3 -1 486.66 16.21
-4 3 1 509.98 16.59
-4 3 0 263.05 10.39
4 -3 0 255.07 10.36
4 -3 0 251.34 10.29
4 -3 0 254.06 9.86
4 -3 0 271.15 10.78
4 -3 0 251.84 10.26
-4 3 0 271.35 10.59
-4 3 0 270.55 10.67
-4 3 -1 60.03 4.29
-4 3 -1 51.18 3.81
4 -3 1 50.42 3.9
4 -3 1 50.14 3.93
4 -3 1 46.69 3.91
4 -3 1 60.38 4.23
4 -3 1 50.87 4.19
-4 3 -1 51.55 3.99
-4 3 -1 52.32 4.05
4 -3 2 413.61 14.48
-4 3 -2 444.36 14.96
-4 3 -2 391.79 13.85
-4 3 -2 401.5 13.79
4 -3 2 427.85 15.08
4 -3 2 414.25 14.72
4 -3 2 407.78 14.57
4 -3 2 410.91 14.9
-4 3 -2 439.17 14.94
-4 3 -2 410.04 14.77
-4 3 -3 1.92 0.89
4 -3 3 1.09 0.61
-4 3 -3 2.09 0.91
4 -3 3 1.18 1.02
4 -3 3 2.82 1.12
4 -3 3 0.29 0.68
-4 3 -3 1.61 0.81
-4 3 -3 2.48 0.97
4 -3 4 58.41 4.44
-4 3 -4 53.83 3.95
4 -3 4 62.73 4.65
4 -3 4 56.95 3.97
4 -3 4 60.25 4.25
-4 3 -4 61.77 4.4
-4 3 -4 61.16 4.47
4 -3 5 2.52 1.01
-4 3 -5 1.15 0.61
4 -3 5 0.83 0.79
4 -3 5 0.21 0.57
4 -3 5 0.53 0.94
4 -3 5 0.36 0.78
-4 3 -5 1.13 0.79
-4 3 -5 0.43 0.54
4 -3 6 179.19 7.98
-4 3 -6 186.91 8.29
4 -3 6 179.78 8.63
4 -3 6 176.89 8.27
4 -3 6 169.75 7.92
-4 3 -6 178.75 8.22
-4 3 -6 194.12 8.78
4 -3 6 177.51 8.58
4 -3 7 71.88 5.03
-4 3 -7 66.07 4.55
4 -3 7 68.23 4.56
4 -3 7 68.92 4.92
4 -3 7 74.85 4.74
-4 3 -7 71.72 4.71
-4 3 -7 71.76 4.98
4 -3 8 36.69 3.5
-4 3 -8 35.74 3.24
4 -3 8 34.23 3.16
4 -3 8 35.5 3.4
-4 3 -8 38.26 3.3
-4 3 -8 36.35 3.47
4 -3 9 49.82 4.07
-4 3 -9 50.25 3.84
4 -3 9 48.4 3.77
4 -3 9 53.2 4.22
-4 3 -9 49.35 3.67
-4 3 -9 51.06 4.08
-4 3 -10 13.09 1.87
4 -3 10 17.89 2.22
4 -3 10 15.14 2.17
4 -3 10 18.89 2.37
-4 3 -10 18.27 1.94
-4 3 -10 15.29 2.13
4 -3 11 16.85 2.16
-4 3 -11 20.99 2.29
4 -3 11 16.12 2.05
4 -3 11 15.36 2.04
-4 3 -11 17.03 1.82
-4 3 -11 17.62 2.15
4 -3 12 14.96 1.86
4 -3 12 12.7 1.74
4 -3 12 12.09 1.58
-4 3 -12 11.94 1.43
-4 3 -12 11.65 1.68
-4 3 -12 13.45 1.71
-4 3 -13 38.49 2.75
4 -3 13 40.63 2.94
-4 3 -13 33.01 2.29
4 -3 13 43.53 2.99
-4 3 -13 35.32 2.7
4 -3 14 179.43 6.64
-4 3 -14 165.73 6.24
4 -3 14 182.5 6.55
-4 3 -14 156.16 5.76
-4 3 -14 185.96 6.62
-4 3 -15 4.38 0.66
4 -3 15 4.13 0.72
4 -3 15 4.13 0.71
-4 3 -15 4.44 0.74
-4 2 14 20.12 1.33
4 -2 -14 21.23 1.43
-4 2 14 22.68 1.46
4 -2 -13 5.95 0.9
4 -2 -13 4.13 0.73
-4 2 13 5.48 0.86
4 -2 -13 5.5 0.91
4 -2 -13 5.17 0.75
-4 2 13 5.73 0.93
4 -2 -13 5.41 0.89
4 -2 -12 243.53 8.6
4 -2 -12 233.28 8.27
-4 2 12 265.5 8.82
4 -2 -12 231.74 8.26
4 -2 -12 238.28 8.61
-4 2 12 273.16 8.99
4 -2 -11 174.93 7.17
4 -2 -11 158.41 6.71
-4 2 11 184.71 7.33
4 -2 -11 174.32 7.05
4 -2 -11 164.08 7.02
-4 2 11 182.57 7.39
4 -2 -10 8.03 1.4
-4 2 10 9.68 1.61
4 -2 -10 9.28 1.56
4 -2 -10 8.43 1.42
4 -2 -10 9.16 1.59
-4 2 10 9.9 1.58
-4 2 9 46.18 3.24
4 -2 -9 41.78 3.52
4 -2 -9 38.72 3.15
4 -2 -9 46.88 3.58
-4 2 9 48.38 3.69
4 -2 -9 45.77 3.56
-4 2 9 49.04 3.75
-4 2 8 35.35 2.95
4 -2 -8 28.22 2.74
-4 2 8 36.21 3.22
4 -2 -8 32.66 3.05
4 -2 -8 29.68 2.87
-4 2 8 30.96 2.99
4 -2 -8 31.85 3.1
-4 2 7 370.59 12.97
4 -2 -7 372.28 13.54
4 -2 -7 343.66 12.63
-4 2 7 386.83 13.49
4 -2 -7 370.29 13.33
4 -2 -7 351.8 12.93
-4 2 7 377.17 13.41
4 -2 -6 9.07 1.76
-4 2 6 9.57 1.65
4 -2 -6 8.25 1.57
-4 2 6 8.01 1.61
4 -2 -6 9.38 1.59
4 -2 -6 7.55 1.49
-4 2 6 7.98 1.56
4 -2 -5 62.77 4.84
-4 2 5 56.74 4.09
4 -2 -5 58.63 4.05
4 -2 -5 61.11 4.38
-4 2 5 57.6 4.11
4 -2 -5 52.5 4.08
4 -2 -5 50.52 3.79
-4 2 5 60.2 4.29
4 -2 -4 39.23 3.78
-4 2 4 33.42 3.1
-4 2 4 34.09 3.07
4 -2 -4 34 3.17
4 -2 -4 29.5 2.81
4 -2 -4 39.71 3.75
4 -2 -4 35.22 3.26
-4 2 4 35.9 3.26
-4 2 3 0.87 0.8
4 -2 -3 0.1 0.73
4 -2 -3 1.21 0.9
-4 2 3 1.57 0.77
4 -2 -3 0.95 0.66
4 -2 -3 1 0.87
-4 2 3 0.89 0.74
-4 2 3 0.49 0.57
-4 2 2 6.32 1.36
4 -2 -2 6.36 1.39
4 -2 -2 5.19 1.4
4 -2 -2 8.1 1.68
-4 2 2 5.99 1.27
4 -2 -2 8.31 1.54
-4 2 2 5.88 1.35
-4 2 2 4.59 1.12
4 -2 -1 77.26 4.91
-4 2 1 71.14 4.57
4 -2 -1 74.93 4.77
-4 2 1 74.62 4.5
4 -2 0 726.49 21.75
-4 2 0 683.88 21.18
-4 2 -1 7.27 1.27
4 -2 1 4.51 1.21
4 -2 1 5.38 1.22
-4 2 -1 5.78 1.21
-4 2 -2 5.89 1.18
4 -2 2 6.12 1.3
-4 2 -2 4.96 1.14
-4 2 -3 482.78 15.62
4 -2 3 465.85 15.99
-4 2 -3 473.33 15.83
-4 2 -3 492.07 16.18
4 -2 3 476.58 15.69
4 -2 4 123.93 6.63
4 -2 4 115.77 6.39
4 -2 4 126.37 6.55
-4 2 -4 125.62 6.44
-4 2 -4 121.92 6.33
-4 2 -4 125.89 6.58
-4 2 -5 0.75 0.51
4 -2 5 0.65 0.57
4 -2 5 -0.26 0.6
4 -2 5 0.97 0.81
-4 2 -5 0.43 0.64
4 -2 5 -0.11 0.7
-4 2 -5 1.12 0.82
-4 2 -5 0.11 0.72
-4 2 -5 1.28 0.76
4 -2 6 56.96 4.44
-4 2 -6 54.48 4.04
4 -2 6 61.4 4.44
4 -2 6 51.12 4.14
-4 2 -6 61.3 4.34
4 -2 6 58.42 4.22
-4 2 -6 59.18 4.48
-4 2 -6 50.03 3.97
-4 2 -6 58.12 4.48
-4 2 -7 46.25 3.76
4 -2 7 49.1 3.93
4 -2 7 46.52 3.94
-4 2 -7 51.04 3.98
-4 2 -7 51.99 4.24
-4 2 -7 46.6 3.83
4 -2 7 50.41 4.06
-4 2 -7 51.83 4.27
4 -2 7 48.61 4.14
-4 2 -7 49.17 3.97
4 -2 8 155.87 7.96
-4 2 -8 147.56 7.41
4 -2 8 148.5 7.53
4 -2 8 141.31 7.49
-4 2 -8 151.16 7.49
-4 2 -8 161.13 8.11
4 -2 9 392.89 14.74
-4 2 -9 406.3 14.41
4 -2 9 380.37 14.23
4 -2 9 371.66 14.21
-4 2 -9 398.72 14.14
-4 2 -9 401.92 14.9
4 -2 10 13.04 2.1
4 -2 10 11.41 2.1
-4 2 -10 12.65 1.77
4 -2 10 9.87 1.91
-4 2 -10 11.18 1.84
-4 2 -10 13.86 2.22
-4 2 -10 11.5 1.89
4 -2 11 22.08 2.7
-4 2 -11 25.59 2.79
4 -2 11 20.18 2.58
4 -2 11 20.44 2.57
-4 2 -11 21.85 2.32
-4 2 -11 25.08 2.89
4 -2 12 4.96 1.32
4 -2 12 4.28 0.92
-4 2 -12 5.23 1.34
4 -2 12 4.27 1.19
-4 2 -12 3.53 0.99
4 -2 12 3.91 1.09
-4 2 -12 3.24 1.17
4 -2 13 24.31 2.17
4 -2 13 22.88 2.52
-4 2 -13 25.46 2.6
4 -2 13 27.31 2.69
-4 2 -13 24.5 2.31
-4 2 -13 25.93 2.68
4 -2 14 5.98 0.97
-4 2 -14 4.3 1.02
4 -2 14 4.58 1.07
4 -2 14 7.82 1.36
-4 2 -14 4.21 0.9
-4 2 -14 5.51 1.22
4 -2 15 68.35 3.22
-4 2 -15 62.79 3.54
4 -2 15 64.27 3.69
4 -2 15 66.26 3.69
-4 2 -15 64.8 3.42
-4 2 -15 73.39 3.92
-4 2 -16 241.15 7.88
4 -2 16 265.06 8.25
-4 2 -16 248.47 7.95
4 -2 16 252.2 8.18
-4 2 -16 275.32 8.52
4 -1 -15 11.12 0.96
4 -1 -14 2.17 0.56
4 -1 -14 1.66 0.52
-4 1 14 1.37 0.41
4 -1 -14 1.62 0.54
4 -1 -14 2.19 0.53
-4 1 14 1.84 0.49
4 -1 -13 0.29 0.41
-4 1 13 0.11 0.36
4 -1 -13 -0.53 0.62
4 -1 -13 1.12 0.59
4 -1 -13 -0.34 0.5
-4 1 13 0.97 0.47
4 -1 -12 123.15 5.87
4 -1 -12 119.84 5.49
-4 1 12 125.49 5.69
4 -1 -12 122.05 5.86
-4 1 12 138.93 6.14
4 -1 -11 9.47 1.68
4 -1 -11 7.24 1.33
-4 1 11 6.5 1.3
4 -1 -11 6.72 1.4
-4 1 11 7.71 1.52
4 -1 -10 4.71 1.16
4 -1 -10 4.32 1.18
-4 1 10 4.86 1.21
4 -1 -10 3.46 1.06
-4 1 10 5.54 1.33
4 -1 -9 78.28 5.08
4 -1 -9 72.26 4.46
-4 1 9 73.78 4.78
4 -1 -9 75.86 4.88
-4 1 9 76.27 5.02
-4 1 8 23.91 2.37
4 -1 -8 18.11 2.4
4 -1 -8 16.34 2.07
-4 1 8 20.58 2.48
4 -1 -8 21.04 2.51
-4 1 8 23.92 2.78
-4 1 7 21.95 2.39
-4 1 7 26.64 2.82
4 -1 -7 20.21 2.39
-4 1 7 26.08 2.88
4 -1 -7 23.73 2.74
-4 1 6 418.5 13.93
4 -1 -6 418.4 15.6
-4 1 6 429.21 14.47
4 -1 -6 414.8 15.16
4 -1 -6 388.54 14.15
-4 1 6 431.18 14.71
4 -1 -5 88.75 5.88
-4 1 5 81.27 4.79
4 -1 -5 82.25 5.05
-4 1 5 83.44 5
4 -1 -5 88.42 5.58
4 -1 -5 71.12 4.51
-4 1 5 83.29 5.17
4 -1 -4 36 3.61
4 -1 -3 59.99 4.47
-4 1 3 61.02 3.62
4 -1 -2 719.37 22.03
-4 1 2 703.64 20.58
4 -1 -1 23.29 2.45
4 -1 -1 20.08 2.28
-4 1 1 21.77 2.11
-4 1 0 599.86 18.34
4 -1 0 610.59 18.86
4 -1 0 629.06 18.98
4 -1 1 1.74 0.72
4 -1 1 0.61 0.56
-4 1 -1 1.23 0.64
4 -1 2 820.49 24.05
-4 1 -2 831.38 23.97
4 -1 3 427.33 14.32
-4 1 -3 422 14.18
-4 1 -3 444.09 14.51
4 -1 4 1058.34 30.18
-4 1 -4 1033.57 29.92
-4 1 -4 1097.59 30.46
-4 1 -5 865.83 25.98
-4 1 -5 889.76 26.5
4 -1 5 922.7 26.34
-4 1 -6 5.28 1.25
4 -1 6 7.9 1.6
-4 1 -6 5.63 1.26
-4 1 -6 6.46 1.47
4 -1 7 22 2.61
-4 1 -7 15.03 2.27
-4 1 -7 16.48 2.19
4 -1 8 40.43 3.73
-4 1 -8 45.95 3.75
4 -1 8 45.11 3.76
4 -1 8 35.09 3.36
-4 1 -8 43.96 3.77
-4 1 -8 48.1 4.02
4 -1 8 45.48 3.87
-4 1 -8 43.97 4
-4 1 -8 45.52 3.77
-4 1 -9 1.96 1.04
-4 1 -9 2.1 1.03
4 -1 9 -0.08 0.59
4 -1 9 2.08 1
4 -1 9 0.41 0.77
-4 1 -9 7.75 1.63
4 -1 9 8.96 1.75
-4 1 -9 1.08 0.93
-4 1 -9 0.32 0.7
-4 1 -9 1.7 0.84
4 -1 9 0.63 0.68
4 -1 10 186.64 8.98
-4 1 -10 216.97 9.44
4 -1 10 201.17 9.1
-4 1 -10 186.76 8.15
-4 1 -10 192.01 8.77
-4 1 -10 183.19 9.06
-4 1 -10 178.92 8.23
4 -1 10 179.34 8.28
4 -1 11 11.46 1.84
-4 1 -11 13.22 2.16
4 -1 11 10.09 1.87
4 -1 11 12.69 2.11
-4 1 -11 10.54 1.68
-4 1 -11 9.29 1.73
4 -1 12 209.59 8.87
4 -1 12 194.42 9.09
-4 1 -12 214.64 9.53
4 -1 12 209.18 9.26
-4 1 -12 194.14 8.51
-4 1 -12 184.28 9.08
4 -1 13 201.66 8.53
4 -1 13 192.34 8.72
-4 1 -13 199.51 9.05
-4 1 -13 190.76 8.31
-4 1 -13 183.57 8.84
4 -1 13 197.3 8.74
4 -1 14 0.36 0.49
4 -1 14 0.24 0.68
4 -1 14 1.31 0.84
-4 1 -14 1.15 0.58
-4 1 -14 1.07 0.7
-4 1 -14 0.87 0.68
4 -1 15 4.79 1.07
4 -1 15 5.38 1.15
4 -1 15 3.95 1.04
-4 1 -15 4 1.05
-4 1 -15 4.21 1.08
-4 1 -15 3.82 1.01
4 -1 16 60.18 3.36
4 -1 16 51.6 3.16
-4 1 -16 57.74 3.42
4 -1 16 55.99 3.27
-4 1 -16 64.73 3.56
-4 1 -16 62.41 3.7
4 -1 17 6.83 0.94
4 -1 17 6.3 0.84
-4 1 -17 6.2 0.94
-4 1 -17 6.22 0.85
-4 1 -17 7.17 1.06
4 0 -15 41.44 2.22
4 0 -15 45.5 2.27
4 0 -15 45.06 2.38
4 0 -14 0.76 0.5
4 0 -14 0.27 0.39
4 0 -14 0.35 0.47
-4 0 14 0.52 0.44
-4 0 13 7.48 1.11
4 0 -13 7 1.12
4 0 -13 7.5 1.29
-4 0 13 7.35 1.05
4 0 -13 7.65 1.27
-4 0 13 6.64 1.09
4 0 -12 175.1 7.66
4 0 -12 173.58 7.05
-4 0 12 168.46 6.95
4 0 -12 168.34 7.5
-4 0 12 178.22 7.35
-4 0 12 162.67 6.8
4 0 -11 325.08 11.97
4 0 -11 276.04 10.59
-4 0 11 327.66 11.32
4 0 -11 304.67 11.62
-4 0 11 331.61 11.64
-4 0 11 292.02 10.68
4 0 -10 663.93 20.68
-4 0 10 739.88 21.67
4 0 -10 708.83 21.94
-4 0 10 757.7 22.18
-4 0 10 661.52 20.75
-4 0 9 204.92 8.59
4 0 -9 166.4 8.17
-4 0 9 199.61 8.76
-4 0 9 177.81 7.81
-4 0 8 74.99 4.78
4 0 -8 71.36 4.73
-4 0 8 74.83 4.96
-4 0 8 72.03 4.4
4 0 -7 139.79 7.75
-4 0 7 149.79 7.51
-4 0 7 147.43 7.08
4 0 -7 135.31 6.86
-4 0 7 152.68 7.39
-4 0 7 136.62 6.5
4 0 -6 1.15 0.61
4 0 -6 -0.42 0.91
-4 0 6 1.23 0.78
4 0 -6 2.17 1
-4 0 6 -0.05 0.46
4 0 -6 1.72 0.82
4 0 -5 221.05 9.94
4 0 -4 221.78 9.68
4 0 -3 64.49 4.41
4 0 -2 238.62 9.45
-4 0 2 227.86 8.17
-4 0 1 1256.17 33.99
4 0 -1 1241.93 34.32
4 0 -1 1348.86 35.36
-4 0 0 164.98 6.81
4 0 0 171.3 6.89
-4 0 0 167.89 6.79
4 0 0 169.44 7.23
4 0 1 13.27 1.63
-4 0 -1 13.21 1.56
-4 0 -1 15.66 1.8
4 0 2 38.04 2.9
-4 0 -2 40.59 2.72
-4 0 -2 42.43 3.09
-4 0 -2 41.99 3.04
-4 0 -3 726.56 20.75
-4 0 -3 761.29 22.03
4 0 3 759.22 21.93
4 0 3 744.93 21.31
-4 0 -3 761.35 22.05
4 0 4 68.47 4.27
-4 0 -4 69.84 4.3
4 0 4 71.06 3.93
-4 0 -4 68.5 4.34
4 0 5 1110.11 30.76
4 0 5 1059.89 29.56
-4 0 -5 1075.02 30.75
4 0 6 451.5 14.93
4 0 6 423.22 13.82
-4 0 -6 410.06 14.79
-4 0 -6 441.12 14.46
4 0 7 206.47 8.88
4 0 7 196.05 7.91
-4 0 -7 181.34 8.61
-4 0 -7 199.11 8.44
4 0 8 53.1 4.2
4 0 8 52.03 3.64
-4 0 -8 55.59 4.36
-4 0 -8 52.53 3.95
-4 0 -9 348.9 13.09
4 0 9 347.22 12.8
4 0 9 344.06 12.96
-4 0 -9 305.33 12.45
-4 0 -9 317.25 12.23
-4 0 -9 323.36 13.08
-4 0 -9 356.01 12.79
4 0 10 112.84 6.36
-4 0 -10 121.55 6.89
4 0 10 115.96 6.5
4 0 10 119.98 6.53
-4 0 -10 120.15 6.23
4 0 10 117.63 6.62
-4 0 -10 101.03 6.13
-4 0 -10 107.43 6.36
-4 0 -10 104.71 6.12
-4 0 -10 111.9 6.76
-4 0 -10 126.23 6.71
-4 0 -11 40.12 3.8
4 0 11 38.51 3.57
4 0 11 40.99 3.67
4 0 11 34.29 3.33
-4 0 -11 40.68 3.52
-4 0 -11 34.73 3.31
-4 0 -11 33 3.35
-4 0 -11 35 3.38
4 0 12 -0.26 0.87
-4 0 -12 1.42 1.08
4 0 12 1.39 0.95
4 0 12 0.44 0.71
-4 0 -12 0.14 0.67
-4 0 -12 0.21 0.56
-4 0 -12 0.28 0.6
4 0 13 18.45 2.31
-4 0 -13 22.95 2.91
4 0 13 19.5 2.37
-4 0 -13 23.44 2.62
4 0 13 24.57 2.77
-4 0 -13 18.79 2.55
4 0 14 11 1.82
-4 0 -14 9.84 1.86
4 0 14 10.53 1.71
4 0 14 9.69 1.67
-4 0 -14 11.19 1.82
-4 0 -14 9.09 1.78
-4 0 -15 58.95 4.25
4 0 15 58.91 4.05
4 0 15 52.43 3.58
4 0 15 54.96 3.72
-4 0 -15 65.22 4.28
-4 0 -15 54.01 4.06
4 0 16 20.7 2.15
4 0 16 14.57 1.62
-4 0 -16 18.67 2.11
-4 0 -16 18.04 2.15
-4 0 -16 18.75 2.06
4 0 17 143.86 5.75
-4 0 -17 141.03 5.83
-4 0 -17 132.32 5.87
4 0 18 0.56 0.39
-4 0 -18 0.45 0.39
-4 0 -18 0.59 0.45
4 1 -15 12.99 1.24
4 1 -15 12.53 1.26
-4 -1 15 10.29 0.99
4 1 -14 15.78 1.68
4 1 -14 14.8 1.65
-4 -1 14 14.11 1.47
4 1 -13 69.06 4.1
4 1 -13 56.44 3.75
-4 -1 13 60.48 3.68
-4 -1 12 145.45 6.52
4 1 -12 148.95 7.06
-4 -1 12 157.68 6.46
-4 -1 12 148.13 6.77
-4 -1 11 198.43 8.44
-4 -1 11 223.6 8.5
4 1 -11 214.99 9.21
-4 -1 11 217.21 8.6
-4 -1 11 205.57 8.78
-4 -1 10 116.51 6.1
-4 -1 10 133.9 6.38
4 1 -10 122.56 6.65
-4 -1 10 132.63 6.45
-4 -1 10 119.16 6.35
-4 -1 9 112.25 5.99
-4 -1 9 123.47 6.28
-4 -1 9 123.8 6.34
-4 -1 9 119.74 6.32
-4 -1 8 1.31 0.62
-4 -1 8 2.67 0.94
4 1 -8 1.75 1.08
-4 -1 8 2.6 1.02
-4 -1 8 1.31 0.62
-4 -1 8 2.28 0.88
4 1 -8 2.48 0.89
-4 -1 7 2.74 0.99
-4 -1 7 5.74 1.46
-4 -1 7 4.21 1.19
4 1 -7 3.25 0.99
-4 -1 7 6.44 1.37
-4 -1 7 4.5 1.14
-4 -1 7 6.02 1.25
4 1 -7 4.79 1.29
-4 -1 6 3.71 1.12
4 1 -6 1.5 0.75
4 1 -6 3.53 1
4 1 -6 2.92 1.11
4 1 -5 621.27 20.26
-4 -1 5 677.42 20.25
4 1 -5 614.06 18.88
4 1 -4 287.77 11.14
4 1 -4 267.91 9.93
4 1 -3 45.78 3.52
-4 -1 3 48.52 3.53
4 1 -3 44.38 3.1
4 1 -2 199.03 8.19
-4 -1 2 200.44 8.15
4 1 -2 195.31 7.71
-4 -1 1 414.86 13.5
4 1 -1 403.64 12.43
4 1 -1 398.12 12.97
-4 -1 1 423.5 12.57
4 1 -1 395.38 13.37
4 1 0 579.11 16.97
-4 -1 0 591.59 17.73
4 1 0 578.94 17.41
-4 -1 0 583.49 17.07
4 1 0 614.89 17.98
-4 -1 -1 9.45 1.37
-4 -1 -1 9.91 1.34
4 1 1 10.06 1.34
-4 -1 -2 91.02 4.49
4 1 2 85.01 4.33
-4 -1 -2 82.26 4.37
-4 -1 -3 168.34 6.75
4 1 3 179.97 7.13
-4 -1 -3 176.24 7.2
-4 -1 -4 118.92 5.22
4 1 4 124.1 5.79
4 1 4 133.27 6.02
-4 -1 -4 120.86 5.84
4 1 5 90.16 4.9
4 1 5 85.02 4.77
-4 -1 -5 85.28 4.85
4 1 6 53.64 3.73
4 1 6 46.78 3.48
-4 -1 -6 43.96 3.49
4 1 7 185.96 8.03
4 1 7 164.83 7.59
-4 -1 -7 168.1 7.87
4 1 8 159.01 7.63
-4 -1 -8 165.67 8
4 1 9 135.03 6.89
4 1 9 121.18 6.54
-4 -1 -9 122.58 6.74
-4 -1 -9 124.55 6.53
4 1 10 412.27 14.2
-4 -1 -10 383.2 14.37
4 1 10 366.73 13.58
-4 -1 -10 387.24 13.88
-4 -1 -10 360.98 13.79
-4 -1 -10 362.95 13.57
4 1 10 399.11 14.19
-4 -1 -10 380.4 14
-4 -1 -10 384.18 14.26
-4 -1 -10 381.51 13.91
4 1 11 74.96 5.04
4 1 11 88.44 5.58
4 1 11 75.98 4.97
-4 -1 -11 79.22 5.53
-4 -1 -11 82.23 5.38
-4 -1 -11 80.12 5.17
-4 -1 -11 72.16 4.96
4 1 11 83.88 5.45
-4 -1 -11 71.3 5.04
-4 -1 -11 78.24 5.37
-4 -1 -11 83.06 5.35
-4 -1 -12 1.95 1.12
4 1 12 -0.54 0.85
-4 -1 -12 1.09 0.92
-4 -1 -12 0.82 0.9
4 1 12 0.19 0.68
-4 -1 -12 2.19 1.01
4 1 13 32.96 3.35
4 1 13 30.66 2.91
-4 -1 -13 35.01 3.49
-4 -1 -13 28.42 3.25
-4 -1 -13 31.93 3.24
-4 -1 -13 29.25 3.2
4 1 14 434.48 15.06
-4 -1 -14 432.07 15.19
-4 -1 -14 385.8 14.49
-4 -1 -14 383.8 14.72
4 1 15 0.3 0.61
-4 -1 -15 0.18 0.82
-4 -1 -15 0.54 0.75
-4 -1 -15 0.77 0.68
4 1 16 43.63 3.35
-4 -1 -16 35.75 3.09
-4 -1 -16 40.3 3.06
-4 -1 -16 45.88 3.57
-4 -1 -16 39.37 3.27
4 1 17 42.47 2.98
-4 -1 -17 35.67 2.66
-4 -1 -17 43.57 3.17
-4 -1 -17 41.3 3.06
4 1 17 37.65 2.62
4 1 18 5.06 0.89
-4 -1 -18 3.08 0.79
-4 -1 -18 3.98 0.84
4 1 18 2.66 0.61
4 2 -15 60.9 2.87
4 2 -15 57.54 2.84
-4 -2 15 54.84 2.67
4 2 -14 49.46 3.03
-4 -2 14 43.73 2.76
-4 -2 13 168.32 6.85
4 2 -13 169.83 7.16
-4 -2 13 165.5 6.93
-4 -2 12 11.88 1.75
4 2 -12 8.08 1.51
-4 -2 12 11.47 1.67
-4 -2 11 410.42 14.25
-4 -2 11 426.5 14.54
-4 -2 10 1.59 0.68
-4 -2 10 3.73 1.2
-4 -2 9 31.63 3.06
-4 -2 9 31.07 2.87
-4 -2 9 27.83 2.93
-4 -2 8 1.43 0.86
-4 -2 8 1.25 0.6
-4 -2 8 1.08 0.84
4 2 -8 1 0.83
-4 -2 8 1.8 0.76
-4 -2 8 1.04 0.59
4 2 -8 0.86 0.72
-4 -2 7 13.01 1.92
-4 -2 7 13.76 1.93
-4 -2 7 13.44 1.95
-4 -2 7 12.57 1.96
4 2 -7 11.15 1.83
-4 -2 7 16.07 2.02
4 2 -7 12.36 1.74
4 2 -7 14.8 2.22
-4 -2 6 0.45 0.57
-4 -2 6 2.51 1.03
-4 -2 6 0.96 0.81
-4 -2 6 2.77 1.02
4 2 -6 1.36 0.8
4 2 -6 1.54 0.72
-4 -2 6 1.12 0.65
4 2 -6 1.69 0.85
-4 -2 5 6.89 1.42
4 2 -5 6.74 1.41
4 2 -5 6.31 1.21
-4 -2 5 7.5 1.27
4 2 -5 7.27 1.46
4 2 -4 106.73 5.59
-4 -2 4 105.62 5.69
-4 -2 4 94.76 4.94
4 2 -4 101.75 5.18
4 2 -3 25.28 2.45
-4 -2 3 29.41 2.77
4 2 -3 29 2.51
4 2 -2 38.46 2.96
4 2 -2 44.35 3.21
-4 -2 2 40.61 3.22
4 2 -1 163.83 6.92
-4 -2 1 174.1 7.38
4 2 -1 170.34 7.04
-4 -2 0 1215.66 33.84
4 2 0 1273.88 33.56
4 2 0 1220.8 33.46
-4 -2 -1 6160.02 158.96
4 2 1 6783.35 157.97
4 2 1 6575.05 158.86
-4 -2 -1 6171.8 157.54
-4 -2 -2 217.21 8.27
4 2 2 210.75 7.66
4 2 2 223.24 8.23
-4 -2 -2 207.42 7.48
-4 -2 -3 420.51 13.87
4 2 3 458.55 13.77
4 2 3 462.43 14.86
-4 -2 -3 437.26 13.59
-4 -2 -4 179.61 7.24
4 2 4 200.37 7.46
4 2 4 184.73 7.99
-4 -2 -4 182.79 7.25
-4 -2 -5 1255.19 34.37
4 2 5 1282.62 35.76
-4 -2 -5 1240.19 34.77
4 2 6 68.47 4.03
4 2 6 61.95 4.28
-4 -2 -6 60.95 3.92
4 2 7 214.31 8.48
4 2 7 216.96 9.21
-4 -2 -7 202.79 8.48
4 2 8 23.56 2.43
4 2 8 24.05 2.72
-4 -2 -8 22.46 2.46
4 2 9 13.87 2.15
4 2 9 11.99 1.8
-4 -2 -9 11.86 1.87
-4 -2 -10 0.35 0.77
-4 -2 -10 -0.16 1.06
-4 -2 -10 1.52 0.84
4 2 10 0.92 0.74
4 2 10 1.19 0.85
-4 -2 -10 1.03 0.81
-4 -2 -10 -0.2 0.74
4 2 11 24.51 2.71
-4 -2 -11 23.24 2.78
-4 -2 -11 27.77 3.14
-4 -2 -11 29.61 3.07
4 2 11 27.39 3.16
-4 -2 -11 24.72 2.89
-4 -2 -11 26.53 2.94
4 2 12 301.5 12.27
-4 -2 -12 305.6 12.37
-4 -2 -12 317.26 12.77
-4 -2 -12 321.78 12.03
-4 -2 -12 290.44 11.5
-4 -2 -12 318.51 12.5
4 2 13 1.22 0.81
-4 -2 -13 3.06 1.27
-4 -2 -13 1.49 0.61
-4 -2 -13 1.03 1.06
-4 -2 -13 0.59 0.89
-4 -2 -14 50.81 4.3
-4 -2 -14 43.84 3.88
-4 -2 -14 48.59 3.86
4 2 14 51.41 4.09
4 2 15 14.74 2.1
-4 -2 -15 10.66 1.71
-4 -2 -15 11.38 1.9
-4 -2 -15 16.28 2.34
-4 -2 -15 13.52 1.95
4 2 16 13.11 1.83
-4 -2 -16 13.4 1.82
-4 -2 -16 12.98 1.97
-4 -2 -16 10.97 1.54
-4 -2 -16 10.24 1.61
4 2 17 96.58 4.84
-4 -2 -17 103.67 4.91
-4 -2 -17 112.77 5.62
-4 -2 -17 103.76 5.11
4 2 17 95.66 4.9
4 2 18 0.59 0.37
-4 -2 -18 1.61 0.62
-4 -2 -18 1.26 0.59
4 2 18 0.87 0.47
-4 -2 -19 87.92 3.69
4 3 -14 28.68 2.14
-4 -3 14 32.17 2.2
-4 -3 13 35.83 2.64
4 3 -13 34.29 2.65
-4 -3 13 32.39 2.59
-4 -3 12 219.75 8.67
-4 -3 12 224.53 8.84
-4 -3 11 200.33 8.3
-4 -3 11 183.24 7.37
-4 -3 11 191.88 8.34
-4 -3 10 131.98 6.73
-4 -3 10 127.09 6.05
-4 -3 10 132 6.32
-4 -3 10 136.78 6.9
-4 -3 9 287.16 11.39
-4 -3 9 292.33 10.81
-4 -3 9 293.83 11.14
-4 -3 9 305.36 11.74
-4 -3 8 275.3 10.99
-4 -3 8 266.83 10.36
-4 -3 8 282.2 10.84
-4 -3 8 282.68 11.26
-4 -3 7 19.52 2.42
-4 -3 7 17.34 2.28
-4 -3 7 18.64 2.19
-4 -3 7 19.81 2.26
-4 -3 7 23.16 2.53
-4 -3 7 24.03 2.76
-4 -3 6 278.18 10.89
-4 -3 6 265 10.84
-4 -3 6 269.65 10.43
-4 -3 6 275.15 10.52
-4 -3 6 298.89 10.95
4 3 -6 296.76 11.63
-4 -3 6 290.76 11.18
-4 -3 5 19.28 2.32
-4 -3 5 19.41 2.34
-4 -3 5 21.56 2.5
-4 -3 5 20.13 2.21
-4 -3 5 20.41 2.26
-4 -3 5 20.78 2.3
4 3 -5 21.51 2.55
-4 -3 5 19.02 2.27
-4 -3 4 49.78 3.77
-4 -3 4 45.69 3.35
4 3 -4 46.74 3.72
-4 -3 3 134.69 6.74
-4 -3 3 138.38 6.37
4 3 -3 156.26 6.89
-4 -3 2 79.62 4.84
-4 -3 2 85.9 4.7
4 3 -2 95.21 5.07
4 3 -1 83.26 4.26
-4 -3 1 86.03 4.93
-4 -3 1 88.59 4.77
4 3 -1 95.9 5
4 3 0 104.82 4.81
-4 -3 0 102.92 5.42
4 3 0 110.54 5.39
-4 -3 -1 1.63 0.81
4 3 1 0.81 0.59
4 3 1 1.34 0.66
-4 -3 -2 62.46 3.94
4 3 2 63.27 3.85
-4 -3 -3 176.03 7.5
4 3 3 201.25 7.01
-4 -3 -3 195.09 7.38
4 3 3 177.82 7.42
4 3 3 174.78 7.95
-4 -3 -3 173.29 6.47
4 3 4 185.28 6.87
-4 -3 -4 175.69 7.3
-4 -3 -4 168.41 6.91
4 3 4 174.8 7.88
-4 -3 -4 159.05 6.4
4 3 5 12.32 1.55
-4 -3 -5 11.15 1.6
-4 -3 -5 12.6 1.61
4 3 5 13.4 1.93
-4 -3 -5 12.31 1.52
-4 -3 -6 1477.68 41.1
-4 -3 -6 1556.86 41.12
4 3 6 1639.69 42.87
-4 -3 -6 1452.63 40.81
4 3 6 1640.04 41.2
-4 -3 -7 112.13 5.45
4 3 7 115.99 6.38
-4 -3 -7 101.67 5.35
4 3 7 118.02 5.61
-4 -3 -8 22.34 2.25
4 3 8 24.56 2.83
-4 -3 -8 17.93 2.13
4 3 8 21.52 2.27
-4 -3 -9 15.49 2.11
-4 -3 -9 18.08 2.31
-4 -3 -9 16.23 2.02
-4 -3 -9 21.4 2.46
4 3 9 23.14 2.82
-4 -3 -9 18.37 2.35
-4 -3 -9 20.4 2.34
4 3 9 18.73 2.2
-4 -3 -10 648.76 21.4
-4 -3 -10 643.81 21.3
-4 -3 -10 699.26 21.06
-4 -3 -10 691.74 21.91
-4 -3 -10 686.98 21.36
-4 -3 -10 657.86 20.93
4 3 10 755.61 22.99
-4 -3 -10 668.24 21.48
-4 -3 -10 675.98 21.38
4 3 10 683.6 21.03
-4 -3 -11 15.85 2.11
-4 -3 -11 13.7 2.12
-4 -3 -11 14.73 2.34
-4 -3 -11 13.43 2.12
-4 -3 -11 15.93 2.26
-4 -3 -11 13.92 2.05
4 3 11 12.84 2.27
-4 -3 -11 15.78 2.3
-4 -3 -11 14.97 2.22
-4 -3 -12 425.11 15.39
-4 -3 -12 425.84 15.55
-4 -3 -12 468.49 16.57
-4 -3 -12 447.59 15.42
4 3 12 438.22 15.38
-4 -3 -12 437.58 15.57
-4 -3 -13 13 2.07
-4 -3 -13 15.53 2.3
-4 -3 -13 17.05 2.57
4 3 13 13.7 2.05
-4 -3 -13 12.92 2.05
4 3 14 7.85 1.47
-4 -3 -14 9.17 1.63
-4 -3 -14 5.77 1.49
-4 -3 -14 5.53 1.53
4 3 15 3.24 0.94
-4 -3 -15 1.54 0.69
-4 -3 -15 1.81 0.89
-4 -3 -15 2.15 1.07
-4 -3 -15 2.02 0.93
-4 -3 -15 1.79 0.85
4 3 16 42.65 3.01
-4 -3 -16 48.8 3.43
-4 -3 -16 56.54 4.13
-4 -3 -16 42.82 3.13
-4 -3 -16 50.08 3.42
4 3 16 50.97 3.54
4 3 17 26.62 2.02
-4 -3 -17 32.46 2.84
-4 -3 -17 27.31 2.09
-4 -3 -17 31.63 2.37
4 3 17 27.96 2.35
-4 -3 -17 28.8 2.21
-4 -3 -18 6.07 1.06
4 3 18 5.06 0.88
4 4 -14 35.19 2.03
-4 -4 13 49.35 2.89
-4 -4 12 41.76 2.63
-4 -4 12 49.65 3.25
-4 -4 11 63.07 4
-4 -4 11 54.42 3.45
-4 -4 11 58.45 3.52
-4 -4 11 62.53 4.07
-4 -4 10 38.76 3.27
-4 -4 10 35.07 2.94
-4 -4 10 36.07 2.96
-4 -4 10 42.37 3.47
-4 -4 9 149.54 7.28
-4 -4 9 135.69 6.71
-4 -4 9 144.76 6.89
-4 -4 9 156.17 7.51
-4 -4 8 5.44 1.33
-4 -4 8 6.93 1.46
-4 -4 8 6.27 1.42
-4 -4 8 6.63 1.43
-4 -4 7 100.26 5.87
-4 -4 7 96.32 5.61
-4 -4 7 95.92 5.62
-4 -4 7 108.55 6.21
-4 -4 6 309.72 12.04
-4 -4 6 323.77 12.61
-4 -4 6 321.1 12
-4 -4 6 321.37 11.96
-4 -4 6 316.97 12.38
-4 -4 5 121.48 6.53
-4 -4 5 116.84 6.59
-4 -4 5 119.06 6.4
-4 -4 5 120.05 6.33
-4 -4 5 124.13 6.42
-4 -4 5 133.97 6.61
4 4 -5 123.31 6.77
-4 -4 5 125.87 6.76
-4 -4 4 92.9 5.51
-4 -4 4 96.52 5.61
-4 -4 4 88.38 5.51
-4 -4 4 97.63 5.45
-4 -4 4 95.01 5.47
-4 -4 4 106.97 5.68
4 4 -4 96.39 5.68
-4 -4 4 100.44 5.83
-4 -4 3 398.59 14.17
-4 -4 3 413.26 14.27
-4 -4 3 424.17 14.04
-4 -4 3 396.98 14.01
-4 -4 3 410.6 13.91
4 4 -3 392.27 14.04
-4 -4 2 96.8 5.47
-4 -4 2 96.85 5.26
4 4 -2 89.63 5.19
-4 -4 1 19.77 2.32
-4 -4 1 23.75 2.41
4 4 -1 24.02 2.48
-4 -4 0 22.2 2.43
-4 -4 0 21.7 2.28
4 4 0 22.06 2.33
-4 -4 -1 47.74 3.58
4 4 1 49.06 3.47
4 4 1 44.2 3.52
-4 -4 -2 435.58 14.73
-4 -4 -2 452.03 14.21
4 4 2 446.17 14.46
4 4 2 428.62 14.81
-4 -4 -3 22.65 2.42
-4 -4 -3 24.49 2.28
4 4 3 24.23 2.39
4 4 3 24.44 2.58
-4 -4 -4 30.62 2.83
-4 -4 -4 35.29 2.77
4 4 4 28.39 2.86
-4 -4 -5 23.16 2.5
-4 -4 -5 26.32 2.45
4 4 5 28.46 2.85
-4 -4 -5 29.17 2.36
4 4 5 30.17 2.44
-4 -4 -6 57.66 3.83
4 4 6 61.81 4.38
-4 -4 -6 60.31 3.75
4 4 6 62.15 3.78
-4 -4 -7 317.76 12.21
-4 -4 -7 345.2 12
-4 -4 -7 345.56 12.61
-4 -4 -7 348.58 12.55
4 4 7 350.81 13.01
-4 -4 -7 317.57 11.71
4 4 7 354.39 11.97
-4 -4 -8 160.74 7.49
-4 -4 -8 159.03 7.64
-4 -4 -8 147.88 7.46
-4 -4 -8 160.66 7.25
-4 -4 -8 153.51 7.66
-4 -4 -8 158.05 7.6
4 4 8 167.64 8.12
-4 -4 -8 156.24 7.38
4 4 8 166.95 7.35
-4 -4 -8 156.56 7.27
-4 -4 -9 34.95 3.15
-4 -4 -9 35.09 3.29
-4 -4 -9 38.8 3.23
-4 -4 -9 35.46 3.32
-4 -4 -9 35.32 3.45
4 4 9 39.13 3.67
-4 -4 -9 32.58 3.1
4 4 9 35.5 3.12
-4 -4 -9 33.1 3.1
-4 -4 -10 4.04 1.05
-4 -4 -10 4.32 1.26
-4 -4 -10 1.47 0.76
-4 -4 -10 1.14 0.98
-4 -4 -10 0.4 0.76
-4 -4 -11 1063.08 31.43
-4 -4 -11 1113.18 32.3
-4 -4 -11 1057.72 31.26
-4 -4 -11 1072.5 31.09
-4 -4 -11 1066.38 30.78
-4 -4 -12 152.9 7.51
-4 -4 -12 153.53 7.69
-4 -4 -12 171.55 8.57
-4 -4 -12 156.26 7.56
-4 -4 -12 148.37 7.2
-4 -4 -13 555.22 18.21
-4 -4 -13 573.22 18.78
-4 -4 -13 558.94 18.44
-4 -4 -14 49.94 3.78
-4 -4 -14 50.12 4.23
-4 -4 -14 41.85 3.38
-4 -4 -14 44.49 3.33
-4 -4 -15 7.91 1.44
-4 -4 -15 6 1.42
-4 -4 -15 5.7 1.19
4 4 15 9.24 1.46
-4 -4 -16 17.01 1.82
-4 -4 -16 21.25 2.43
-4 -4 -16 17.58 1.79
4 4 16 15.67 1.74
4 4 17 77.9 3.61
-4 -4 -17 83.81 3.8
4 4 17 86.38 4.06
-4 -4 -18 2.38 0.73
4 4 18 -0.14 0.32
-4 -5 12 235.39 7.56
-4 -5 12 231.15 7.39
-4 -5 11 30.93 2.32
-4 -5 11 30.72 2.23
-4 -5 11 30.03 2.28
-4 -5 10 177.6 7.27
-4 -5 10 171.56 7.01
-4 -5 10 184.35 7.4
-4 -5 9 -0.24 0.59
-4 -5 9 0.26 0.47
-4 -5 9 0.18 0.66
-4 -5 8 2.45 0.83
-4 -5 8 1 0.77
-4 -5 8 1.88 0.81
-4 -5 7 39.58 3.51
-4 -5 7 44.07 3.59
-4 -5 7 51.18 4.01
-4 -5 6 166.76 8.43
-4 -5 6 165.56 8.01
-4 -5 6 174.65 8.01
-4 -5 6 190.02 8.65
-4 -5 5 15.67 2.3
-4 -5 5 13.12 1.95
-4 -5 5 11.13 1.97
-4 -5 5 12.38 1.96
-4 -5 4 571.15 19.7
-4 -5 4 583.69 19.5
-4 -5 4 612.61 19.41
-4 -5 3 45.64 3.52
-4 -5 3 40.92 3.45
-4 -5 3 31.72 2.88
-4 -5 3 36.9 3.47
-4 -5 3 33.78 3.19
-4 -5 3 28.56 3.03
-4 -5 3 35.63 3.48
-4 -5 3 34.25 3.14
4 5 -3 32.21 3.13
-4 -5 2 407.91 14.35
-4 -5 2 415.81 14.75
-4 -5 2 422.73 14.36
-4 -5 2 433.74 15
-4 -5 2 421.52 14.42
-4 -5 2 418.83 14.63
-4 -5 2 417.36 14.94
4 5 -2 453.51 15.16
-4 -5 2 440.13 14.67
4 5 -2 405.93 14.31
-4 -5 1 93.03 5.36
-4 -5 1 93.07 5.53
-4 -5 1 91.22 5.24
-4 -5 1 87.38 5.15
-4 -5 1 98.49 5.6
-4 -5 1 90.9 5.18
-4 -5 1 92.64 5.38
-4 -5 1 90.32 5.61
4 5 -1 94.53 5.45
-4 -5 1 99.07 5.39
4 5 -1 91.02 5.09
-4 -5 0 175.5 7.85
-4 -5 0 175.02 8.03
-4 -5 0 163.76 7.59
-4 -5 0 181.63 7.89
-4 -5 0 175.32 7.87
-4 -5 0 160.86 7.35
-4 -5 0 184.19 7.85
-4 -5 0 161.93 7.66
-4 -5 0 185.4 8.44
4 5 0 164.24 7.63
-4 -5 0 178.29 7.68
-4 -5 -1 1.08 0.72
-4 -5 -1 1.1 0.7
-4 -5 -1 1.02 0.64
-4 -5 -1 0.36 0.65
-4 -5 -1 0.07 0.49
-4 -5 -1 1.12 0.56
-4 -5 -1 1.44 0.71
-4 -5 -1 0.36 0.63
4 5 1 -0.45 0.58
-4 -5 -1 0.75 0.49
4 5 1 0.78 0.64
-4 -5 -1 0.07 0.5
-4 -5 -2 262.09 10.25
-4 -5 -2 252.78 10.36
-4 -5 -2 254.83 10.11
-4 -5 -2 260.74 10.19
-4 -5 -2 262.46 10.07
-4 -5 -2 258.02 9.71
-4 -5 -2 289.89 11.36
-4 -5 -2 250.96 9.7
4 5 2 247.28 9.65
4 5 2 257.74 9.92
-4 -5 -3 53.71 3.96
-4 -5 -3 53.04 3.88
-4 -5 -3 55.47 3.96
-4 -5 -3 49.23 3.57
-4 -5 -3 49.37 3.62
-4 -5 -3 55.83 4.47
-4 -5 -3 51.31 3.51
4 5 3 49.86 3.6
4 5 3 50.32 3.67
-4 -5 -4 70.31 4.52
-4 -5 -4 64.99 4.41
-4 -5 -4 63.81 4.19
-4 -5 -4 66.04 4.46
-4 -5 -4 62 4.15
-4 -5 -4 76.64 5.18
-4 -5 -4 79.3 5.44
4 5 4 58.75 4.1
-4 -5 -5 3.38 1.08
-4 -5 -5 2.35 0.92
-4 -5 -5 2.53 0.92
-4 -5 -5 3.77 1.05
-4 -5 -5 3.53 0.92
-4 -5 -5 4.73 1.52
-4 -5 -5 3.08 0.96
-4 -5 -5 2.45 0.75
-4 -5 -5 3.19 1.36
4 5 5 3.75 1.27
-4 -5 -6 233.71 9.59
-4 -5 -6 242.33 9.89
-4 -5 -6 231.24 9.39
-4 -5 -6 224.1 9.29
-4 -5 -6 226.95 9.08
-4 -5 -6 256.56 10.63
-4 -5 -6 219.18 9.14
-4 -5 -6 229.51 10.68
-4 -5 -6 233.32 9.7
4 5 6 216.12 9.33
-4 -5 -7 3.03 1.06
-4 -5 -7 2.29 0.99
-4 -5 -7 2.07 0.93
-4 -5 -7 2.25 0.9
-4 -5 -7 3.28 1.21
-4 -5 -7 4.21 1.37
-4 -5 -7 3 1.07
-4 -5 -7 2.61 1.03
4 5 7 3.89 1.28
-4 -5 -8 195.22 8.47
-4 -5 -8 198.69 8.87
-4 -5 -8 185.73 8.15
-4 -5 -8 196.39 8.89
-4 -5 -8 204.7 9.44
-4 -5 -8 188.47 8.45
-4 -5 -9 11.35 1.81
-4 -5 -9 13.1 2.02
-4 -5 -9 11.63 1.96
-4 -5 -9 15.58 2.37
-4 -5 -9 10.62 1.73
-4 -5 -10 -0.56 0.66
-4 -5 -10 -0.48 0.65
-4 -5 -10 0.6 0.78
-4 -5 -10 -0.27 0.43
-4 -5 -10 1.22 0.81
-4 -5 -11 110.42 5.97
-4 -5 -11 104.51 6.04
-4 -5 -11 118.77 6.89
-4 -5 -11 104.9 5.83
-4 -5 -12 212.6 8.99
-4 -5 -12 213.65 9.82
-4 -5 -12 197.33 8.54
-4 -5 -12 198.09 8.42
-4 -5 -13 104.2 5.28
-4 -5 -13 106.48 5.66
-4 -5 -13 109.93 5.65
4 5 13 93.2 4.86
-4 -5 -14 6.04 1.1
-4 -5 -14 9.91 1.79
-4 -5 -14 8.15 1.42
4 5 14 7.13 1.16
-4 -5 -15 41.3 3.4
-4 -5 -15 37.75 2.73
4 5 16 21.54 1.89
-4 -5 -16 24.17 1.92
4 5 16 20.87 1.69
-4 -5 -17 38.96 2.57
4 5 17 25.44 1.66
-4 -6 11 86.05 3.6
-4 -6 10 95.49 4.28
-4 -6 10 81.58 3.87
-4 -6 9 59.21 3.62
-4 -6 9 62.94 3.56
-4 -6 8 143.05 6.57
-4 -6 8 143.3 6.33
-4 -6 7 399.49 13.85
-4 -6 7 403.35 13.48
-4 -6 6 12.77 1.85
-4 -6 6 12.03 2.3
-4 -6 6 11.27 1.85
-4 -6 5 57.13 4.45
-4 -6 5 58.04 4.37
-4 -6 5 63.69 4.24
-4 -6 4 54.95 3.97
-4 -6 4 55.09 4.43
-4 -6 4 56.68 3.72
-4 -6 4 52.56 4.2
-4 -6 4 56.92 4.06
-4 -6 3 16.16 2.1
-4 -6 3 16.74 2.04
-4 -6 3 16.68 2.37
-4 -6 3 14.65 2.26
-4 -6 3 15.88 2.12
-4 -6 2 197.63 8.74
-4 -6 2 211.65 9.02
-4 -6 2 202.72 8.55
-4 -6 2 209.19 9.32
-4 -6 2 196.11 9.28
-4 -6 2 199.45 8.64
-4 -6 1 117.72 6.4
-4 -6 1 123.02 6.36
-4 -6 1 131.48 6.92
-4 -6 1 127.58 6.66
-4 -6 1 127.69 7.14
-4 -6 1 129.57 6.42
-4 -6 0 6.77 1.32
-4 -6 0 6.64 1.49
-4 -6 0 6.4 1.38
-4 -6 0 6.6 1.46
-4 -6 0 4.07 1.16
-4 -6 0 4.06 1.06
-4 -6 0 3.15 1.16
-4 -6 -1 312.05 11.97
-4 -6 -1 308.89 12
-4 -6 -1 314.87 12.01
-4 -6 -1 309.99 11.71
-4 -6 -1 342.98 13.3
-4 -6 -1 320.07 11.85
-4 -6 -1 321.76 12.2
-4 -6 -1 336 11.67
-4 -6 -2 14.53 2.04
-4 -6 -2 15.14 2.05
-4 -6 -2 15.46 2.16
-4 -6 -2 15.66 2.17
-4 -6 -2 14.08 1.94
-4 -6 -2 16.32 2.41
-4 -6 -2 19.49 2.29
-4 -6 -3 57.08 4.2
-4 -6 -3 63.86 4.47
-4 -6 -3 58.48 4.28
-4 -6 -3 67.36 4.53
-4 -6 -3 62.05 4.96
-4 -6 -3 60.16 4.06
-4 -6 -4 31.26 3.03
-4 -6 -4 30.03 3.02
-4 -6 -4 29.39 2.96
-4 -6 -4 31.94 3.04
-4 -6 -4 28.66 3.31
-4 -6 -4 29.12 2.68
-4 -6 -5 54.44 4.09
-4 -6 -5 52.74 4.08
-4 -6 -5 55.21 4.09
-4 -6 -5 54.7 4.02
-4 -6 -5 52.84 3.79
-4 -6 -5 58.4 4.74
-4 -6 -5 58.44 3.74
-4 -6 -6 94.29 5.43
-4 -6 -6 90.88 5.34
-4 -6 -6 95.97 5.65
-4 -6 -6 90.42 5.29
-4 -6 -6 88.11 5.14
-4 -6 -7 99.76 5.59
-4 -6 -7 105.08 5.94
-4 -6 -7 104.1 5.68
-4 -6 -7 103.1 5.62
-4 -6 -7 117.23 6.92
-4 -6 -7 95.98 5.53
-4 -6 -8 20 2.31
-4 -6 -8 19.54 2.37
-4 -6 -8 19.18 2.22
-4 -6 -8 20.7 2.29
-4 -6 -8 22.08 2.85
-4 -6 -8 20.79 2.42
-4 -6 -9 14.57 1.86
-4 -6 -9 15.4 2.1
-4 -6 -9 15.32 1.91
-4 -6 -9 18.34 2.64
-4 -6 -9 14.24 1.98
-4 -6 -10 7.29 1.41
-4 -6 -10 7.78 1.36
-4 -6 -10 10.08 1.83
-4 -6 -10 7.69 1.48
-4 -6 -11 186.17 7.36
-4 -6 -11 207.11 9.36
-4 -6 -11 187.27 7.93
-4 -6 -11 176.57 7.62
-4 -6 -12 0.39 0.41
-4 -6 -12 2.07 1.13
-4 -6 -12 0.67 0.65
-4 -6 -13 315.56 10.6
-4 -6 -13 337.59 11.36
-4 -6 -14 5.14 1.26
-4 -6 -14 2.19 0.67
-4 -6 -15 17.12 1.85
4 6 15 14.41 1.47
-4 -6 -15 15.22 1.48
4 6 16 25.45 1.64
-4 -7 9 6.76 0.83
-4 -7 9 5.21 0.76
-4 -7 8 59.79 3.15
-4 -7 8 55.01 3
-4 -7 7 113.6 5.17
-4 -7 7 116.82 5.09
-4 -7 6 94.29 4.87
-4 -7 6 93.97 4.68
-4 -7 5 145.04 6.88
-4 -7 5 153.01 6.91
-4 -7 5 151.85 6.57
-4 -7 4 8.91 1.42
-4 -7 4 8.74 1.56
-4 -7 4 7.99 1.47
-4 -7 3 7.68 1.32
-4 -7 3 8.46 1.66
-4 -7 3 7.75 1.56
-4 -7 2 2.06 0.78
-4 -7 2 1.55 0.87
-4 -7 2 1.31 0.59
-4 -7 2 1.12 0.8
-4 -7 2 3.17 1.15
-4 -7 2 1.25 0.76
-4 -7 1 38.64 3.25
-4 -7 1 39.6 3.36
-4 -7 1 35.77 3.02
-4 -7 1 43.77 3.68
-4 -7 1 41.82 3.64
-4 -7 1 38.24 3.03
-4 -7 0 88.14 5.13
-4 -7 0 83.08 5.12
-4 -7 0 82.71 4.87
-4 -7 0 83.11 5.25
-4 -7 0 85.85 5.41
-4 -7 0 84.26 4.68
-4 -7 -1 248.71 9.81
-4 -7 -1 237.7 9.91
-4 -7 -1 230.46 9.53
-4 -7 -1 236.91 10.02
-4 -7 -1 261.8 10.51
-4 -7 -2 1.79 1.02
-4 -7 -2 2.23 0.93
-4 -7 -2 1.62 0.79
-4 -7 -2 3.41 1.05
-4 -7 -2 3.44 1.03
-4 -7 -3 93.93 5.45
-4 -7 -3 98.11 5.62
-4 -7 -3 102.27 5.61
-4 -7 -3 102.06 5.77
-4 -7 -3 96.97 5.26
-4 -7 -4 408.99 14.13
-4 -7 -4 419.87 14.44
-4 -7 -4 415.26 14.26
-4 -7 -4 425.9 14.53
-4 -7 -4 396.94 13.56
-4 -7 -5 2.16 0.81
-4 -7 -5 1.57 0.86
-4 -7 -5 0.42 0.62
-4 -7 -5 3.71 1.05
-4 -7 -5 1.71 0.84
-4 -7 -5 0.77 0.61
-4 -7 -6 1.24 0.64
-4 -7 -6 1.97 0.88
-4 -7 -6 1 0.73
-4 -7 -6 0.96 0.62
-4 -7 -6 1.44 0.64
-4 -7 -6 0.83 0.59
-4 -7 -7 33.05 2.79
-4 -7 -7 30.59 2.83
-4 -7 -7 32.48 2.79
-4 -7 -7 30.87 2.83
-4 -7 -7 30.4 2.76
-4 -7 -8 182.04 7.35
-4 -7 -8 187.19 7.79
-4 -7 -8 180 7.64
-4 -7 -8 182.07 7.73
-4 -7 -9 33.96 2.51
-4 -7 -9 39 2.96
-4 -7 -9 36.96 2.88
-4 -7 -9 37.8 2.99
-4 -7 -10 98.17 4.86
-4 -7 -10 99.59 4.82
-4 -7 -10 110.76 5.27
-4 -7 -11 29.39 2.22
-4 -7 -11 29.48 2.18
-4 -7 -11 31.34 2.5
-4 -7 -12 0.54 0.49
-4 -7 -12 0.09 0.41
4 7 13 18.55 1.49
-4 -7 -13 21.31 1.78
4 7 14 1.34 0.36
-4 -7 -14 2.41 0.58
-4 -8 5 90.94 3.79
-4 -8 4 8.68 1.09
-4 -8 4 7.05 0.91
-4 -8 3 265.42 9.29
-4 -8 3 271.93 8.83
-4 -8 2 95.88 4.73
-4 -8 2 81.07 3.92
-4 -8 1 79.83 4.44
-4 -8 0 0.88 0.61
-4 -8 -1 5.59 1.15
-4 -8 -1 4.11 0.97
-4 -8 -1 4.74 1.1
-4 -8 -2 51.37 3.38
-4 -8 -2 49.09 3.41
-4 -8 -2 52.38 3.56
-4 -8 -3 3.3 0.96
-4 -8 -3 2.4 0.73
-4 -8 -3 2.39 0.78
-4 -8 -4 34.57 2.67
-4 -8 -4 38.68 2.94
-4 -8 -4 36.62 2.91
-4 -8 -5 25.42 2.18
-4 -8 -5 26.6 2.38
-4 -8 -5 28.69 2.52
-4 -8 -6 6.95 1.1
-4 -8 -6 4.77 1.02
-4 -8 -6 7.23 1.22
-4 -8 -6 4.54 0.9
-4 -8 -7 0.64 0.47
-4 -8 -7 0.1 0.39
-4 -8 -7 -0.05 0.53
-4 -8 -7 -0.27 0.5
-4 -8 -8 2.35 0.75
-4 -8 -8 2.11 0.61
-4 -8 -9 161.52 5.85
-4 -8 -9 155.8 5.85
-4 -8 -9 152.54 5.94
-4 -8 -10 8.41 0.93
-4 -8 -10 8.65 0.97
-4 -8 -10 9.34 1.13
-4 -8 -11 6.68 0.87
-4 -9 -2 91.45 3.64
-4 -9 -3 9.09 0.99
-4 -9 -4 0.54 0.36
5 -5 -4 27.34 1.61
-5 5 4 30.42 1.71
-5 5 4 30.31 1.68
5 -5 -3 500.74 13.31
-5 5 3 511.37 13.23
5 -5 -3 432.53 12.77
5 -5 -3 452.61 12.92
-5 5 3 517.01 13.43
-5 5 2 102.19 3.86
5 -5 -2 101.73 4.05
5 -5 -2 97.93 3.86
5 -5 -2 100.35 4.03
-5 5 2 98.24 3.72
-5 5 2 109.71 4.18
5 -5 -1 54.85 2.8
5 -5 -1 53.7 2.73
5 -5 -1 50.55 2.79
-5 5 1 51.98 2.62
-5 5 1 54.79 2.8
-5 5 1 54.2 2.51
5 -5 0 13.56 1.34
5 -5 0 14.19 1.37
5 -5 0 14.48 1.45
-5 5 0 14.14 1.31
-5 5 0 15.67 1.43
-5 5 0 12.65 1.07
5 -5 1 239.74 7.79
5 -5 1 238.28 7.88
5 -5 1 247.12 8.1
-5 5 -1 222.31 7.59
-5 5 -1 229.22 7.72
5 -5 2 3.22 0.69
5 -5 2 2.99 0.72
5 -5 2 3.11 0.71
-5 5 -2 2.02 0.57
-5 5 -2 4.67 0.84
5 -5 3 25.67 1.75
5 -5 3 29.47 2.08
5 -5 3 28.22 2.06
-5 5 -3 23.79 1.79
-5 5 -3 25.64 1.86
5 -5 4 15.58 1.48
5 -5 4 14.59 1.4
-5 5 -4 13.63 1.28
-5 5 -4 13.64 1.28
5 -5 5 98.87 4.06
5 -5 5 93.31 3.78
-5 5 -5 81.35 3.53
-5 5 -5 84.77 3.61
5 -5 6 22.21 1.59
-5 5 -6 17.98 1.27
-5 5 -6 18.4 1.35
5 -5 7 2.51 0.5
5 -5 7 1.29 0.37
-5 5 -7 1.77 0.42
5 -4 -8 14.71 1.14
-5 4 8 12.4 0.99
5 -4 -8 12.89 1.05
5 -4 -7 50.1 2.57
5 -4 -7 45.17 2.24
-5 4 7 49.9 2.5
5 -4 -7 46.57 2.48
-5 4 6 4.31 0.78
5 -4 -6 3.75 0.78
5 -4 -6 2.71 0.59
5 -4 -6 2.14 0.55
-5 4 5 43.05 2.67
5 -4 -5 44.77 2.74
5 -4 -5 40.8 2.45
5 -4 -5 41.38 2.6
5 -4 -5 37.34 2.49
5 -4 -4 6.81 1.11
5 -4 -4 6.58 1.06
5 -4 -4 7.9 1.23
5 -4 -4 4.22 0.84
-5 4 4 7.2 1.15
5 -4 -3 9.88 1.42
5 -4 -3 9.83 1.43
5 -4 -3 10.3 1.41
-5 4 3 8.71 1.18
5 -4 -3 10.12 1.32
-5 4 3 10.77 1.39
-5 4 2 60.42 3.54
5 -4 -2 62.23 3.8
5 -4 -2 60.06 3.79
-5 4 2 58.93 3.45
5 -4 -2 55.53 3.29
5 -4 -2 61.88 3.74
-5 4 1 72.73 4.1
5 -4 -1 82.21 4.47
5 -4 -1 83.32 4.13
5 -4 -1 84.11 4.64
5 -4 -1 81.93 4.67
-5 4 1 77.12 4.22
-5 4 0 0.11 0.53
5 -4 0 0.49 0.5
5 -4 0 0.99 0.51
5 -4 0 1.52 0.8
5 -4 0 1.65 0.81
-5 4 0 0.86 0.53
-5 4 0 2.52 0.85
-5 4 -1 4.5 0.98
5 -4 1 3 0.85
5 -4 1 3.88 0.98
5 -4 1 1.93 0.78
5 -4 1 3.17 0.94
-5 4 -1 3.03 0.93
-5 4 -1 2.87 0.9
-5 4 -2 504.09 15.46
5 -4 2 515.51 15.98
5 -4 2 505.89 15.94
5 -4 2 550.98 16.7
5 -4 2 525.31 16.8
-5 4 -2 525.93 16.3
-5 4 -2 525.8 16.32
5 -4 3 57.07 3.53
5 -4 3 56.9 3.62
5 -4 3 59.15 3.88
5 -4 3 61.32 3.98
-5 4 -3 57.57 3.75
-5 4 -3 57.19 3.73
5 -4 4 58.41 3.75
-5 4 -4 60.25 3.33
5 -4 4 70.38 3.83
5 -4 4 74.52 4.34
5 -4 4 66.4 4.09
-5 4 -4 72.81 4.19
-5 4 -4 69.56 4.07
5 -4 5 1.51 0.62
-5 4 -5 1.37 0.53
5 -4 5 0.85 0.66
5 -4 5 0.54 0.59
5 -4 5 1.31 0.68
-5 4 -5 1.97 0.78
-5 4 -5 1.77 0.75
5 -4 6 190.98 7.39
-5 4 -6 169.88 6.69
5 -4 6 196.37 7.68
5 -4 6 182.91 7.12
-5 4 -6 183.37 7.19
-5 4 -6 184.11 7.3
5 -4 7 145.99 6.08
-5 4 -7 129.39 5.53
5 -4 7 158.82 6.49
5 -4 7 149.85 5.76
-5 4 -7 137.82 5.78
-5 4 -7 146.94 6.07
5 -4 8 77.61 3.9
-5 4 -8 73.26 3.66
5 -4 8 85.76 4.28
-5 4 -8 71.94 3.56
-5 4 -8 78.9 3.9
5 -4 9 17.45 1.59
5 -4 9 17 1.33
-5 4 -9 18.21 1.55
5 -4 9 19.9 1.73
-5 4 -9 15.43 1.32
-5 4 -9 17.01 1.56
5 -4 10 64.27 2.87
5 -4 10 73.66 3.23
-5 4 -10 60.42 2.89
5 -4 10 60.46 2.59
5 -4 10 63.55 2.95
-5 4 -10 69.09 3.11
-5 4 -11 26.45 1.57
-5 4 -11 27.7 1.63
5 -3 -10 17.88 1.34
-5 3 10 15.65 1.18
-5 3 10 17.07 1.22
5 -3 -10 18.7 1.4
-5 3 9 4.09 0.69
5 -3 -9 3.78 0.73
-5 3 9 3.52 0.68
5 -3 -9 3.75 0.66
5 -3 -9 4.53 0.7
-5 3 9 3.43 0.66
5 -3 -9 4.29 0.8
-5 3 8 82.08 3.8
5 -3 -8 84.83 4.03
5 -3 -8 82.77 3.89
-5 3 8 77.69 3.68
5 -3 -8 75.82 3.46
-5 3 8 77.07 3.76
5 -3 -8 83.09 4.11
-5 3 7 200.42 7.36
5 -3 -7 199.92 7.52
5 -3 -7 198.72 7.4
-5 3 7 190.44 7.1
5 -3 -7 183.57 6.7
-5 3 7 198.16 7.27
5 -3 -7 197.13 7.61
-5 3 6 11.9 1.58
5 -3 -6 12.16 1.56
5 -3 -6 13.11 1.45
5 -3 -6 11.07 1.45
-5 3 6 11.18 1.42
5 -3 -6 10.74 1.51
-5 3 6 11.31 1.44
5 -3 -6 10.41 1.54
5 -3 -5 0.01 0.54
-5 3 5 0.74 0.52
5 -3 -5 0 0.52
5 -3 -5 -0.44 0.61
-5 3 5 1.04 0.5
5 -3 -5 0.88 0.5
-5 3 4 218.34 8.6
5 -3 -4 219.85 8.33
5 -3 -4 214.13 8.64
5 -3 -4 215.65 8.68
-5 3 4 209.01 7.89
-5 3 4 211.85 8.21
5 -3 -4 196.93 8.42
-5 3 3 6.78 1.38
5 -3 -3 5.65 1.35
5 -3 -3 5.51 1.24
5 -3 -3 5.75 1.24
-5 3 3 5.38 1.07
-5 3 3 5.82 1.22
5 -3 -3 4.58 1.16
-5 3 2 582.31 17.99
5 -3 -2 568.56 18.04
5 -3 -2 544.1 17.67
5 -3 -2 586.95 18.38
-5 3 2 577.31 17.64
5 -3 -2 538.49 17.59
-5 3 1 875.73 25.88
5 -3 -1 896.78 26.06
5 -3 -1 931.69 26.59
5 -3 -1 884.62 26.03
-5 3 1 900.83 25.96
5 -3 -1 863.4 25.43
5 -3 0 81.81 4.91
5 -3 0 80.91 5.01
5 -3 0 88.32 5.27
-5 3 0 86.97 5.11
-5 3 0 83.84 5
-5 3 -1 -0.25 0.6
5 -3 1 0.95 0.66
5 -3 1 1.74 0.86
5 -3 1 1.33 0.84
-5 3 -1 1.73 0.7
5 -3 2 27.83 2.69
5 -3 2 29.57 2.93
-5 3 -2 27.09 2.64
5 -3 2 27.77 2.91
-5 3 -2 28.15 2.84
-5 3 -2 29.43 2.86
-5 3 -3 386.48 13.28
5 -3 3 380.07 13.35
5 -3 3 401.34 14.27
5 -3 3 404.05 14.31
-5 3 -3 418.31 14.28
-5 3 -3 409.94 14.13
-5 3 -4 313.62 11.02
5 -3 4 307.66 11.13
5 -3 4 330.45 12.21
-5 3 -4 295.15 10.82
5 -3 4 321.08 12.13
5 -3 4 312.37 12
-5 3 -4 332.88 12.14
-5 3 -4 317.81 11.82
-5 3 -5 3.64 0.99
5 -3 5 4.26 1.21
5 -3 5 6.01 1.2
5 -3 5 4.14 1.18
5 -3 5 4.33 1.23
-5 3 -5 3.93 1.08
-5 3 -5 4.73 1.21
-5 3 -6 4.13 1
5 -3 6 5.5 1.29
5 -3 6 2.73 0.85
5 -3 6 4.31 1.18
5 -3 6 3.67 1.14
-5 3 -6 2.9 1.07
-5 3 -6 2.91 0.98
5 -3 7 160.32 7.44
-5 3 -7 148.2 6.74
5 -3 7 144.14 6.61
5 -3 7 144.34 7.02
5 -3 7 143.5 6.54
-5 3 -7 148.94 6.85
-5 3 -7 149.06 6.98
-5 3 -8 9.03 1.47
5 -3 8 11.65 1.77
5 -3 8 9.58 1.5
5 -3 8 9.33 1.61
-5 3 -8 10.58 1.56
-5 3 -8 12.52 1.8
5 -3 9 32.81 2.89
-5 3 -9 29.35 2.54
5 -3 9 30.36 2.57
5 -3 9 32.02 2.82
-5 3 -9 27.78 2.4
-5 3 -9 28.95 2.6
5 -3 10 60.36 3.76
-5 3 -10 51.43 3.28
5 -3 10 53.5 3.36
5 -3 10 51.4 3.37
-5 3 -10 50.61 3.07
-5 3 -10 57.12 3.51
-5 3 -11 4.52 0.92
5 -3 11 6.02 1.11
5 -3 11 7.99 1.19
5 -3 11 4.17 0.85
-5 3 -11 5.6 1.02
5 -3 12 175.17 6.44
-5 3 -12 160.06 6.04
5 -3 12 176.39 6.3
-5 3 -12 161.43 6.12
5 -3 13 25.38 1.77
-5 3 -13 23.99 1.66
5 -3 13 25.36 1.72
-5 3 -13 25.21 1.71
5 -2 -12 27.98 1.57
-5 2 12 32.87 1.65
-5 2 12 31.44 1.64
-5 2 11 80.79 3.43
5 -2 -11 74.18 3.24
5 -2 -11 67.83 3.02
-5 2 11 80.2 3.42
5 -2 -11 75.72 3.45
5 -2 -11 76.91 3.42
5 -2 -10 16.59 1.62
-5 2 10 18.71 1.68
5 -2 -10 15.21 1.5
5 -2 -10 13.78 1.35
-5 2 10 15.24 1.51
-5 2 9 10.79 1.24
5 -2 -9 13.18 1.6
-5 2 9 11.45 1.47
5 -2 -9 10.67 1.36
5 -2 -9 9.88 1.37
-5 2 9 11.42 1.41
-5 2 8 176.85 6.97
5 -2 -8 187.62 7.59
-5 2 8 190.75 7.46
5 -2 -8 186.74 7.5
5 -2 -8 166.89 6.85
-5 2 8 187.83 7.4
-5 2 7 25.83 2.38
5 -2 -7 25.58 2.48
-5 2 7 27.44 2.54
5 -2 -7 25.59 2.51
5 -2 -7 22.75 2.14
-5 2 7 26.56 2.48
-5 2 6 3.52 1.03
5 -2 -6 4.51 1.22
-5 2 6 5.1 1.17
5 -2 -6 3.23 0.95
-5 2 6 3.91 1.01
-5 2 5 23.66 2.47
5 -2 -5 22.98 2.49
-5 2 5 26.27 2.55
5 -2 -5 24.73 2.56
-5 2 5 24.13 2.51
-5 2 4 42.27 3.41
5 -2 -4 37.55 3.28
-5 2 4 37.68 3.16
5 -2 -4 41.88 3.51
-5 2 4 39.03 3.29
-5 2 3 8.62 1.57
5 -2 -3 7.59 1.61
-5 2 3 6.91 1.39
5 -2 -3 7.59 1.55
-5 2 3 9.07 1.64
-5 2 2 627.61 19.66
5 -2 -2 588.53 19.24
-5 2 2 609.22 19
5 -2 -2 614.63 19.7
-5 2 2 620.18 19.38
-5 2 2 636.52 19.14
-5 2 1 4.43 1.25
5 -2 -1 4.05 1.2
5 -2 -1 4.69 1.35
-5 2 1 4.19 1.17
-5 2 1 3.62 1
-5 2 0 60.87 4.29
5 -2 0 56.88 4
5 -2 0 72.65 4.77
5 -2 0 58.98 4.28
-5 2 0 55.37 3.89
-5 2 0 60.32 4.22
-5 2 -1 0.77 0.52
5 -2 1 0.43 0.58
5 -2 1 -0.12 0.75
5 -2 1 0.72 0.8
-5 2 -1 0.85 0.95
-5 2 -2 240.52 9.67
5 -2 2 226.72 9.23
5 -2 2 240.03 10.15
5 -2 2 234.77 9.36
5 -2 2 238.64 10.02
-5 2 -2 240.59 9.88
-5 2 -3 20.92 2.37
5 -2 3 22.63 2.7
5 -2 3 20.28 2.34
5 -2 3 21.61 2.61
-5 2 -3 23.35 2.66
-5 2 -3 22.36 2.55
-5 2 -4 883.61 26.6
5 -2 4 956.82 28.14
5 -2 4 896.52 26.91
5 -2 4 940.44 27.68
-5 2 -4 966.27 27.73
-5 2 -4 919.86 27.27
-5 2 -5 123.73 6.14
-5 2 -5 121.65 6.08
5 -2 5 117.45 6.77
5 -2 5 118.13 6.31
5 -2 5 114.95 6.48
-5 2 -5 131.84 6.75
-5 2 -5 121.5 6.5
5 -2 6 47.46 4.02
-5 2 -6 45.84 3.52
5 -2 6 43.27 3.65
5 -2 6 53.26 4.1
-5 2 -6 50.47 3.94
-5 2 -6 45.63 3.76
5 -2 7 59.38 4.52
-5 2 -7 56.09 4.03
5 -2 7 57.2 4.22
5 -2 7 57.47 4.24
-5 2 -7 57.85 4.24
-5 2 -7 56.56 4.23
5 -2 8 399.77 14.36
-5 2 -8 379.86 13.5
5 -2 8 385.49 13.81
5 -2 8 371.61 13.64
-5 2 -8 384.47 13.71
-5 2 -8 384.9 13.86
5 -2 9 57.41 4.3
-5 2 -9 53.64 3.89
5 -2 9 49.74 3.89
5 -2 9 48.72 3.79
-5 2 -9 47.57 3.68
-5 2 -9 57.04 4.16
5 -2 10 98.42 5.66
-5 2 -10 87.15 5.04
5 -2 10 87.79 5.21
5 -2 10 93.93 5.32
-5 2 -10 92.31 5.06
-5 2 -10 92.64 5.3
-5 2 -11 3.99 0.98
5 -2 11 4.58 1.2
5 -2 11 3.91 1.04
5 -2 11 4.06 1.02
-5 2 -11 3.93 0.99
-5 2 -11 3.79 1.15
-5 2 -12 11.15 1.55
5 -2 12 15.56 1.87
5 -2 12 9.38 1.49
-5 2 -12 13.42 1.7
-5 2 -13 5.16 0.97
5 -2 13 4.9 1.05
5 -2 13 6.07 1.1
-5 2 -13 5.43 1.03
-5 2 -14 6.55 0.99
5 -2 14 7.48 1.09
5 -2 14 7.2 1.05
-5 2 -14 6.71 1.01
-5 2 -15 60.65 2.8
5 -2 15 61.27 2.77
5 -2 15 70.44 3.01
-5 2 -15 64.33 2.88
5 -1 -12 63.14 3.08
-5 1 12 63.93 2.94
5 -1 -12 60.43 2.97
5 -1 -12 58.61 2.83
-5 1 12 62.43 2.93
-5 1 11 26.54 2.03
5 -1 -11 22.89 1.98
5 -1 -11 22.74 1.88
-5 1 11 26.94 2.06
5 -1 -11 26.51 2.14
5 -1 -10 34.27 2.69
-5 1 10 35.19 2.62
5 -1 -10 29.92 2.51
5 -1 -10 26.84 2.25
-5 1 10 33.24 2.55
5 -1 -9 145.64 6.65
-5 1 9 151.94 6.59
5 -1 -9 148.46 6.73
5 -1 -9 131.55 6.08
-5 1 9 148.27 6.54
-5 1 8 10.9 1.47
5 -1 -8 10.68 1.75
-5 1 8 13.43 1.83
5 -1 -8 9.52 1.52
5 -1 -8 11.62 1.83
-5 1 8 12 1.72
-5 1 7 106.41 5.36
5 -1 -7 101.14 5.72
-5 1 7 111.46 5.79
5 -1 -7 107.21 5.9
5 -1 -7 92.6 5.12
-5 1 7 113.28 5.86
-5 1 6 276.34 10.51
5 -1 -6 279.04 10.97
-5 1 6 295.27 11.07
5 -1 -6 282.45 11.14
-5 1 6 292.86 11.05
-5 1 5 159.52 7.3
5 -1 -5 154.23 7.46
-5 1 5 162.16 7.51
5 -1 -5 161.69 7.74
-5 1 5 167.06 7.67
-5 1 4 68.09 4.46
5 -1 -4 60.09 4.32
-5 1 4 69.77 4.52
5 -1 -4 67.84 4.7
-5 1 4 67.08 4.53
-5 1 3 213.39 9.04
5 -1 -3 225.09 9.3
-5 1 3 215.91 9.04
5 -1 -3 216.49 9.45
-5 1 3 217.08 9.21
5 -1 -2 40.61 3.75
-5 1 2 38.21 3.32
5 -1 -2 40.38 3.35
-5 1 2 41.42 3.43
-5 1 2 42.66 3.38
5 -1 -2 41.35 3.52
-5 1 2 44.67 3.54
5 -1 -1 136.52 7.12
-5 1 1 131.86 6.51
5 -1 -1 118.07 6.06
-5 1 1 122.76 6.25
-5 1 1 131.24 6.3
5 -1 -1 121.94 6.44
-5 1 1 124.58 6.35
-5 1 1 122.62 6.23
-5 1 1 127.69 6.28
-5 1 0 9.59 1.64
5 -1 0 8.45 1.48
5 -1 0 8.47 1.66
-5 1 0 6.32 1.26
5 -1 0 7.28 1.41
-5 1 0 6.98 1.36
-5 1 0 10.16 1.67
-5 1 0 9.13 1.62
-5 1 0 7.4 1.47
5 -1 1 215.85 9.23
-5 1 -1 210.39 8.84
-5 1 -1 204.82 8.35
5 -1 1 210.25 8.92
-5 1 -1 207.36 8.75
-5 1 -1 217.77 9.01
-5 1 -1 206.24 8.83
-5 1 -1 213.82 8.99
5 -1 1 220.21 9.4
-5 1 -2 58.69 4.11
5 -1 2 59.57 4.21
-5 1 -2 65.36 4.42
-5 1 -2 63.06 4.35
5 -1 2 68.47 4.61
-5 1 -2 63.31 4.4
5 -1 2 67.07 4.6
-5 1 -3 38.11 3.31
5 -1 3 44.91 3.74
5 -1 3 41.8 3.47
5 -1 3 44.86 3.76
-5 1 -3 41.96 3.57
-5 1 -3 42.73 3.39
-5 1 -3 42.41 3.6
-5 1 -3 57 4.14
5 -1 3 45.98 3.81
-5 1 -4 16.01 2.08
5 -1 4 13.95 2.12
5 -1 4 19.17 2.48
5 -1 4 14.52 2.02
-5 1 -4 16.02 2.22
-5 1 -4 14.16 2.03
-5 1 -4 16.92 2.28
-5 1 -4 15.96 2.23
-5 1 -5 7.71 1.54
5 -1 5 8.91 1.76
-5 1 -5 7.91 1.47
5 -1 5 6.23 1.44
5 -1 5 8.34 1.58
-5 1 -5 6.51 1.38
-5 1 -5 6.97 1.5
-5 1 -5 6.69 1.44
-5 1 -6 84.03 5.01
5 -1 6 89.84 5.71
5 -1 6 86.07 5.38
5 -1 6 75.69 4.98
-5 1 -6 83.46 5.34
-5 1 -6 80.2 5.11
-5 1 -6 83.31 5.08
-5 1 -6 85.43 5.63
-5 1 -7 74.67 4.84
5 -1 7 79.63 5.4
5 -1 7 75.2 5.13
5 -1 7 78.41 4.96
-5 1 -7 80.8 5.25
-5 1 -7 78.96 5.12
-5 1 -8 78.58 4.98
5 -1 8 77.44 5.24
5 -1 8 73.42 4.87
-5 1 -8 78.28 5.19
5 -1 8 78.19 5.38
-5 1 -8 77.67 5.14
5 -1 8 79.04 4.7
5 -1 9 1697.82 45.74
5 -1 9 1669.2 47.06
-5 1 -9 1682.69 46.39
5 -1 9 1755.7 47.06
-5 1 -9 1696.08 46.73
-5 1 -9 1722.48 46.85
5 -1 10 401.97 14.95
-5 1 -10 416.83 14.55
5 -1 10 432.1 15.09
5 -1 10 427.59 14.12
-5 1 -10 407 14.57
-5 1 -10 394.88 14.55
5 -1 11 262.31 11.06
-5 1 -11 277.43 10.9
5 -1 11 293.58 11.32
-5 1 -11 285.4 10.88
-5 1 -11 282.04 11.04
5 -1 11 287.24 10.51
5 -1 12 46.28 3.29
-5 1 -12 44.11 3.45
5 -1 12 39.91 3.42
5 -1 12 40.7 3.42
-5 1 -12 41.87 3.21
-5 1 -12 42.67 3.4
5 -1 13 31.24 2.53
5 -1 13 26.33 2.52
-5 1 -13 27.95 2.6
5 -1 13 30.46 2.73
-5 1 -13 29.96 2.69
5 -1 14 3.41 0.82
-5 1 -14 3.56 0.88
5 -1 14 2.82 0.87
5 -1 14 2.99 0.83
-5 1 -14 2.95 0.74
-5 1 -14 3.8 0.97
5 -1 15 6.94 0.95
-5 1 -15 6.53 1.04
5 -1 15 6.15 0.98
5 -1 15 6.64 1.05
-5 1 -15 7.14 0.92
-5 1 -15 6.87 1.05
5 -1 16 1.3 0.38
-5 1 -16 2.01 0.53
5 -1 16 1.85 0.5
-5 1 -16 2.01 0.52
5 0 -13 2.22 0.55
5 0 -13 2.28 0.52
5 0 -13 2.63 0.57
-5 0 13 1.27 0.34
5 0 -12 152.25 5.81
-5 0 12 129.93 5.07
5 0 -12 152.49 5.81
5 0 -12 136.56 5.41
-5 0 12 131.62 5.09
5 0 -11 12.95 1.63
-5 0 11 12.6 1.46
5 0 -11 10.12 1.38
-5 0 11 11.15 1.38
5 0 -10 2.65 0.9
-5 0 10 2.73 0.85
5 0 -10 3.27 0.91
-5 0 10 2.89 0.86
5 0 -9 91.12 5.19
-5 0 9 91.71 4.93
5 0 -9 75.46 4.56
-5 0 9 88.03 4.88
-5 0 8 24.53 2.53
5 0 -8 22.4 2.4
5 0 -8 25.06 2.76
-5 0 8 21.6 2.4
5 0 -7 2.36 1.06
-5 0 7 3.14 1.08
5 0 -7 2.52 1.08
-5 0 7 2.25 0.9
-5 0 6 36.61 3.06
5 0 -6 33.49 3.15
-5 0 6 34.58 3.15
-5 0 6 38.38 3.32
-5 0 5 286.23 10.78
5 0 -5 270.51 10.85
-5 0 5 298.43 11.18
-5 0 5 291.66 11.14
5 0 -4 265.31 11.37
-5 0 4 242.56 9.81
5 0 -4 230.55 9.72
-5 0 4 266.29 10.57
-5 0 4 245.9 9.91
-5 0 4 251.91 10.06
5 0 -3 115.07 6.65
-5 0 3 101.42 5.63
5 0 -3 98.92 5.59
-5 0 3 98.5 5.73
-5 0 3 105.83 5.74
-5 0 3 104.56 5.73
5 0 -2 80.8 5.33
-5 0 2 83.16 4.95
5 0 -2 84.09 4.88
-5 0 2 75.95 4.82
-5 0 2 79.07 4.77
5 0 -2 77.32 4.92
-5 0 2 82.4 4.9
5 0 -1 155.19 7.5
-5 0 1 137.93 6.79
-5 0 1 143.04 6.78
-5 0 1 138.13 6.6
5 0 -1 137.13 6.79
-5 0 1 139.07 6.71
-5 0 1 142.76 6.52
-5 0 0 577.79 18.11
-5 0 0 535.69 17.4
-5 0 0 542.01 17.64
-5 0 0 573.51 17.65
5 0 0 558.67 17.67
5 0 0 590.98 18.53
-5 0 -1 16.05 1.92
5 0 1 20.32 2.29
-5 0 -1 21.21 2.28
5 0 1 22.06 2.53
5 0 2 10.32 1.79
5 0 2 7.64 1.46
5 0 2 6.03 1.19
-5 0 -2 7.37 1.4
5 0 3 231.66 9.34
5 0 3 217.98 8.67
-5 0 -3 215.97 9.21
5 0 4 383.91 13.72
-5 0 -4 371.19 13.66
5 0 5 20.65 2.48
-5 0 -5 23.08 2.66
-5 0 -5 21.99 2.63
-5 0 -5 23.54 2.72
5 0 5 28.01 2.96
-5 0 -6 18.62 2.39
-5 0 -6 15.52 2.03
5 0 6 16.66 2.31
-5 0 -6 14.41 2.26
-5 0 -6 17.69 2.51
5 0 6 13.91 2.22
-5 0 -6 15.65 2.04
-5 0 -7 65.17 4.5
5 0 7 71.23 4.96
5 0 7 65.06 4.67
-5 0 -7 74.05 5.12
-5 0 -7 64.14 4.54
5 0 7 74.02 5.23
-5 0 -7 67.85 4.44
-5 0 -7 70.09 4.78
-5 0 -7 69.43 5.18
-5 0 -8 0.16 0.69
5 0 8 -0.05 0.79
5 0 8 0.67 0.78
5 0 8 0.84 0.83
-5 0 -8 0.67 0.87
-5 0 -8 -0.42 0.79
-5 0 -8 1.14 0.86
-5 0 -8 1.92 0.95
-5 0 -9 82.55 5.23
5 0 9 67.24 5.03
5 0 9 87.25 5.54
-5 0 -9 79.65 5.39
-5 0 -9 75.24 5.02
-5 0 -9 81.93 5.1
5 0 10 26.7 2.83
5 0 10 23.56 2.79
-5 0 -10 31.14 3.14
5 0 10 30.52 3.2
-5 0 -10 25.23 2.89
-5 0 -10 25.47 2.79
-5 0 -10 26.35 2.81
5 0 11 304.97 12.35
-5 0 -11 354.4 12.93
5 0 11 342.97 12.85
5 0 11 349.05 12.67
-5 0 -11 321.06 12.59
-5 0 -11 304.62 12.14
-5 0 -11 322.09 12.31
5 0 12 1.32 0.69
-5 0 -12 -0.5 0.84
5 0 12 0.51 0.64
5 0 12 -0.51 0.71
-5 0 -12 0.66 0.71
-5 0 -12 0.96 0.9
-5 0 -12 0.27 0.59
5 0 13 4.79 1.18
-5 0 -13 4.28 1.24
5 0 13 3.85 1.12
5 0 13 4.91 1.28
-5 0 -13 4.64 1.03
-5 0 -13 3.97 1.19
5 0 14 182.4 7.46
5 0 14 159.97 6.85
-5 0 -14 167.68 7.45
5 0 14 154.74 7
-5 0 -14 158.59 6.58
-5 0 -14 168.11 7.28
5 0 15 20.66 2.07
-5 0 -15 23.65 2.26
5 0 15 19.18 1.89
-5 0 -15 20.72 1.82
-5 0 -15 23.14 2.17
5 0 16 21.04 1.8
5 0 16 19.55 1.59
-5 0 -16 17.49 1.5
-5 0 -16 22.6 1.86
-5 0 -16 22.88 1.96
5 0 17 5.14 0.79
-5 0 -17 5.05 0.77
-5 0 -17 4.47 0.69
5 1 -13 48.06 2.67
5 1 -13 47.99 2.53
-5 -1 13 42.08 2.1
-5 -1 12 17.17 1.42
5 1 -12 18.7 1.77
-5 -1 12 16.55 1.54
5 1 -11 177.8 7.21
-5 -1 11 159.76 6.22
5 1 -11 163.45 6.77
-5 -1 11 156.44 6.05
-5 -1 11 155.72 6.4
5 1 -10 168.65 7.35
-5 -1 10 157.82 6.59
5 1 -10 152.83 6.84
-5 -1 10 152.33 6.4
-5 -1 10 148.32 6.58
5 1 -9 411.71 14.02
-5 -1 9 411.09 13.44
5 1 -9 374.22 13.3
-5 -1 9 399.86 13.21
-5 -1 9 388.3 13.27
-5 -1 8 33.48 2.98
5 1 -8 33.53 3.05
-5 -1 8 35.31 2.97
-5 -1 8 34.94 3.03
-5 -1 7 537.01 16.74
5 1 -7 478.66 16.16
-5 -1 7 508.96 16.36
-5 -1 7 484.92 16.25
-5 -1 6 4.56 1.18
-5 -1 6 5.8 1.33
-5 -1 6 6.68 1.39
-5 -1 5 3.77 1.07
-5 -1 5 2.24 0.9
5 1 -5 3.06 1.07
-5 -1 5 5.35 1.37
-5 -1 5 3.57 1.09
5 1 -4 18.98 2.64
-5 -1 4 21.62 2.41
-5 -1 4 19.22 2.5
-5 -1 4 17.77 2.22
-5 -1 4 19.03 2.22
-5 -1 4 17.19 2.16
-5 -1 3 16.06 2.12
5 1 -3 20.33 2.57
-5 -1 3 19.99 2.34
-5 -1 3 20.42 2.31
-5 -1 3 17.71 2.14
-5 -1 2 2.44 0.93
5 1 -2 3.99 1.21
-5 -1 2 2.05 0.8
-5 -1 2 1.48 0.77
5 1 -1 112.08 6.13
-5 -1 1 107.24 5.84
-5 -1 0 55.56 3.95
5 1 0 61.99 4.24
-5 -1 -1 5.6 1.26
5 1 1 3.84 1.11
5 1 1 4.28 1.04
-5 -1 -1 4.6 1.06
5 1 2 0.68 0.55
-5 -1 -2 0.45 0.59
-5 -1 -2 1.71 0.74
5 1 3 248.55 9.81
-5 -1 -3 245.72 9.88
5 1 3 252.55 9.73
5 1 4 5.78 1.29
5 1 4 4.99 1.1
-5 -1 -4 4.01 1.2
5 1 5 994.47 28.57
5 1 5 963.95 28.09
-5 -1 -5 939.22 28.47
-5 -1 -6 42.6 3.8
5 1 6 39.09 3.56
5 1 6 34.47 3.2
-5 -1 -6 36.32 3.49
-5 -1 -7 22.2 2.49
5 1 7 22.39 2.74
-5 -1 -7 22.63 2.81
5 1 7 27.74 2.84
-5 -1 -7 25.5 2.72
-5 -1 -7 23.84 2.88
-5 -1 -7 20.38 2.63
-5 -1 -8 115.07 6.71
-5 -1 -8 136.11 7.08
5 1 8 136.31 7.06
5 1 8 148.32 7.8
-5 -1 -8 135.99 7.42
5 1 8 136.38 7.04
-5 -1 -8 133.39 6.97
-5 -1 -8 130.11 7.46
-5 -1 -9 534.39 18.99
-5 -1 -9 600.35 19.67
5 1 9 590.92 19.54
-5 -1 -9 591.79 19.97
5 1 9 621.65 19.77
-5 -1 -9 575.69 19.31
-5 -1 -9 574.74 20.21
-5 -1 -10 2 0.89
5 1 10 0.29 0.67
-5 -1 -10 -0.09 0.97
-5 -1 -10 0.81 0.88
-5 -1 -11 261.12 10.82
5 1 11 224.62 10.06
-5 -1 -11 232.75 10.42
-5 -1 -11 248.03 10.02
-5 -1 -11 244.71 10.44
5 1 12 5.38 1.39
-5 -1 -12 5.84 1.5
5 1 12 5.95 1.56
-5 -1 -12 5.83 1.24
-5 -1 -12 4.54 1.42
-5 -1 -12 5.01 1.32
-5 -1 -12 5.03 1.32
-5 -1 -13 17.51 2.39
5 1 13 12.93 1.96
-5 -1 -13 16.03 2.02
-5 -1 -13 16 2.11
-5 -1 -13 15.01 2.04
5 1 13 19.21 2.46
-5 -1 -13 16.05 2.21
-5 -1 -14 137.91 6.85
5 1 14 115.74 5.87
-5 -1 -14 128.79 6.02
-5 -1 -14 133.72 6.31
5 1 14 139.83 6.78
5 1 15 221.7 8.64
-5 -1 -15 212.22 8.64
-5 -1 -15 207.23 7.91
-5 -1 -15 199.65 8.01
5 1 16 103.41 4.88
-5 -1 -16 91.39 4.62
-5 -1 -16 98.54 4.88
-5 -1 -16 89.7 4.28
-5 -1 -16 99.43 4.55
5 1 17 5.76 0.96
-5 -1 -17 3.72 0.76
-5 -1 -17 3.5 0.8
-5 -1 -17 2.98 0.66
-5 -1 -17 2.51 0.59
-5 -1 -17 4.24 0.74
5 1 17 3.37 0.61
5 1 18 0.46 0.29
5 2 -13 73.65 3.43
5 2 -13 67.68 3.19
-5 -2 13 70.74 3.17
5 2 -12 32.28 2.45
5 2 -12 29.61 2.3
-5 -2 12 29.23 2.22
-5 -2 11 2.13 0.76
5 2 -11 0.87 0.68
-5 -2 10 1.2 0.71
5 2 -10 2.2 0.85
-5 -2 9 0.8 0.67
-5 -2 9 1.86 0.69
5 2 -9 1.75 0.86
-5 -2 8 153.21 6.91
5 2 -8 142.34 6.89
-5 -2 8 156.98 7.38
-5 -2 7 360.32 12.82
-5 -2 7 366.1 13.3
-5 -2 6 79.16 4.85
-5 -2 6 77.64 4.53
-5 -2 6 78.32 5.03
-5 -2 6 76.5 4.97
5 2 -5 78.09 5.28
-5 -2 5 84.54 5.52
-5 -2 5 81.43 5
-5 -2 5 78.49 4.67
5 2 -5 67.05 4.56
-5 -2 5 84.19 5.26
-5 -2 5 84.06 5.15
5 2 -4 361.36 13.86
-5 -2 4 403.38 14.41
-5 -2 4 374.05 13.44
-5 -2 4 360.71 12.81
5 2 -4 343.4 12.97
-5 -2 4 420.68 14.34
-5 -2 4 399.22 13.83
5 2 -3 28.63 2.97
-5 -2 3 21.36 2.64
-5 -2 3 22.32 2.42
-5 -2 3 21.16 2.44
-5 -2 3 19.27 2.21
5 2 -3 20.54 2.37
-5 -2 3 20.57 2.49
-5 -2 3 21.34 2.46
5 2 -2 142.02 7.23
-5 -2 2 161.98 7.8
-5 -2 2 149.08 7.13
5 2 -2 143.06 7.09
-5 -2 2 150.21 7.3
-5 -2 2 148.72 7.12
5 2 -1 150.67 7.23
-5 -2 1 147.98 7.45
5 2 -1 155.34 7.4
-5 -2 0 88.06 5.43
5 2 0 101.71 5.58
5 2 0 101.05 5.51
-5 -2 -1 67.2 4.56
5 2 1 75.66 4.63
-5 -2 -2 93.83 5.39
-5 -2 -3 33.86 3.04
5 2 3 35.7 2.94
5 2 3 40.66 3.46
-5 -2 -3 36.25 2.97
-5 -2 -4 68.56 4.37
5 2 4 69.26 4.41
5 2 4 72.8 4.85
-5 -2 -4 65.93 4.32
5 2 5 0.49 0.6
5 2 5 1.14 0.78
-5 -2 -5 0.46 0.45
5 2 6 223.42 9.45
5 2 6 233.86 9.99
-5 -2 -6 201.31 9.19
-5 -2 -7 50.05 4.18
-5 -2 -7 59.47 4.22
5 2 7 66.72 4.61
-5 -2 -7 61.55 4.63
5 2 7 59.13 4.62
-5 -2 -7 63.74 4.58
-5 -2 -7 56.34 4.37
-5 -2 -8 800.88 24.45
5 2 8 862.99 25.03
-5 -2 -8 797.66 25.06
5 2 8 837.66 25.52
-5 -2 -8 752.76 24.41
-5 -2 -8 784.99 24.68
-5 -2 -8 749.63 24.67
-5 -2 -9 90.71 5.73
5 2 9 89.56 5.71
5 2 9 78.34 5.22
-5 -2 -9 83.81 5.74
5 2 9 95.2 6.13
-5 -2 -9 91.3 5.76
-5 -2 -9 81.63 5.66
-5 -2 -10 120.66 6.91
5 2 10 119.61 6.55
-5 -2 -10 124.22 7.12
-5 -2 -10 123.18 7
-5 -2 -11 3.06 1.04
-5 -2 -11 5.7 1.33
-5 -2 -11 3.7 1.31
-5 -2 -11 6.87 1.71
-5 -2 -12 19.07 2.58
5 2 12 18.23 2.51
-5 -2 -12 15.45 2.27
-5 -2 -12 14.74 2.04
-5 -2 -12 17.81 2.45
-5 -2 -12 16.67 2.43
5 2 13 0.07 0.71
-5 -2 -13 0.1 0.75
-5 -2 -13 0.51 0.83
-5 -2 -13 1.68 0.78
-5 -2 -13 0.31 0.72
-5 -2 -13 -0.22 0.63
-5 -2 -14 165.94 7.91
5 2 14 171.38 7.97
-5 -2 -14 176.55 8.17
-5 -2 -14 170.34 7.44
-5 -2 -14 164.69 7.41
-5 -2 -14 155.26 7.23
-5 -2 -15 1.17 0.79
5 2 15 -0.22 0.59
-5 -2 -15 0.61 0.6
-5 -2 -15 -0.27 0.52
5 2 16 215.76 8.25
-5 -2 -16 203.27 8.01
-5 -2 -16 220.15 8.46
-5 -2 -16 218.09 7.94
5 2 17 4.37 0.84
-5 -2 -17 3.03 0.69
-5 -2 -17 4.03 0.88
-5 -2 -17 3.64 0.77
-5 -2 -17 4.25 0.82
5 2 17 4.27 0.86
5 2 18 0.87 0.33
5 3 -13 143.16 5.06
5 3 -13 139.17 4.88
-5 -3 13 144.89 5.01
-5 -3 12 0.2 0.44
5 3 -12 -0.41 0.51
5 3 -11 119.46 5.52
-5 -3 11 127.25 5.65
5 3 -10 67.32 4.15
-5 -3 10 75.3 4.42
-5 -3 9 9.46 1.65
-5 -3 8 63.2 4.28
-5 -3 8 62.45 4.38
-5 -3 7 3.98 1.24
-5 -3 7 5.01 1.37
-5 -3 7 6.17 1.31
-5 -3 6 10.28 1.88
-5 -3 6 12.64 1.98
-5 -3 6 11.85 1.72
-5 -3 6 11.7 1.73
-5 -3 5 703.83 21.37
-5 -3 5 697.64 21.62
-5 -3 5 749.45 22.17
-5 -3 4 15.88 2.2
-5 -3 4 14.21 2.01
-5 -3 4 14.01 2.17
-5 -3 4 13.32 2.03
-5 -3 4 16.52 1.99
5 3 -4 14.98 2.09
5 3 -4 13.84 2.25
-5 -3 3 154.64 7.86
-5 -3 3 138.14 6.68
-5 -3 3 135.43 6.96
-5 -3 3 145.76 6.91
5 3 -3 152.43 7.39
-5 -3 3 151.05 7.24
-5 -3 3 152.23 7.36
-5 -3 2 215.62 9.44
-5 -3 2 168.57 7.88
-5 -3 2 188.43 8.53
-5 -3 2 194.12 8.3
5 3 -2 207.88 8.9
-5 -3 2 188.37 8.33
-5 -3 2 197.5 8.64
-5 -3 1 25.51 2.9
-5 -3 1 25.5 2.62
-5 -3 1 24.86 2.76
-5 -3 1 27.84 2.73
5 3 -1 29.87 3.01
-5 -3 1 31.31 2.92
-5 -3 1 28.85 2.86
5 3 0 57.16 3.92
-5 -3 0 55.61 4.37
5 3 0 66.53 4.51
-5 -3 -1 275.28 11.21
5 3 1 275.55 10.88
5 3 1 283.05 10.44
-5 -3 -2 2.78 0.91
5 3 2 4.62 1.15
5 3 2 4.8 1.17
5 3 2 6.38 1.52
-5 -3 -3 7.15 1.51
5 3 3 11.05 1.87
5 3 4 51.23 4.24
-5 -3 -4 47.64 3.86
-5 -3 -5 19.1 2.41
5 3 5 18.71 2.19
5 3 5 21.81 2.82
-5 -3 -5 15.14 1.83
-5 -3 -6 60.27 4.28
-5 -3 -6 64.19 4.61
-5 -3 -6 61.19 4.36
5 3 6 67.23 4.43
-5 -3 -6 59.22 4.36
-5 -3 -6 61.5 4.45
5 3 6 66.16 5.07
-5 -3 -6 63.53 4.71
-5 -3 -6 59.65 4.03
-5 -3 -7 138.13 7.23
-5 -3 -7 132.32 7.04
-5 -3 -7 127.65 6.87
5 3 7 146.75 7.09
-5 -3 -7 136.02 6.84
-5 -3 -7 121.65 6.6
-5 -3 -7 137.11 7.23
5 3 7 147.96 8.02
-5 -3 -7 142.65 7.53
-5 -3 -7 133.68 6.71
-5 -3 -8 48.68 4.02
5 3 8 52.82 4.05
-5 -3 -8 47.55 3.88
-5 -3 -8 48.4 3.77
-5 -3 -8 52.75 4.3
5 3 8 54.44 4.71
-5 -3 -8 44.31 4.04
-5 -3 -8 46.37 3.8
5 3 9 12.12 2
-5 -3 -9 11.07 1.96
-5 -3 -9 13.87 2.23
-5 -3 -9 6.35 1.54
-5 -3 -9 11.52 1.96
5 3 9 11.56 2.26
-5 -3 -9 10.4 1.8
-5 -3 -9 12.7 2.17
-5 -3 -10 260.13 11.25
-5 -3 -10 262.33 11.13
-5 -3 -10 279.99 11.46
-5 -3 -10 272.54 11.52
-5 -3 -10 252.17 10.95
-5 -3 -11 231.26 10.23
-5 -3 -11 216.35 9.99
-5 -3 -11 213.38 9.69
-5 -3 -11 243.75 9.74
-5 -3 -11 218.68 10.01
-5 -3 -11 218.54 10.18
5 3 12 5.49 1.46
-5 -3 -12 4.26 1.25
-5 -3 -12 6.08 1.54
-5 -3 -12 6.76 1.67
-5 -3 -12 6.48 1.43
-5 -3 -12 7.01 1.65
-5 -3 -12 4.4 1.35
5 3 13 17.6 2.34
-5 -3 -13 17.99 2.3
-5 -3 -13 19.15 2.57
-5 -3 -13 19.07 2.57
-5 -3 -13 18.12 2.3
-5 -3 -13 17.05 2.37
-5 -3 -14 34.94 3.22
-5 -3 -14 34.16 3.26
-5 -3 -14 34.19 3.04
5 3 14 30.91 3.01
-5 -3 -15 74.15 4.51
5 3 15 68.28 4.27
-5 -3 -15 79.85 4.81
-5 -3 -15 81.27 4.58
-5 -3 -15 74.63 4.54
5 3 16 22.47 2.04
-5 -3 -16 23.32 2.08
-5 -3 -16 25.67 2.4
-5 -3 -16 29.81 2.39
-5 -3 -16 25.37 2.28
5 3 17 0.92 0.44
-5 -3 -17 0.31 0.39
-5 -3 -17 0.98 0.48
5 3 17 0.56 0.42
-5 -3 -17 0.07 0.45
5 3 18 48.27 2.36
5 4 -12 44.33 2.4
-5 -4 12 48.26 2.53
5 4 -11 94.82 4.4
-5 -4 11 104.04 4.65
-5 -4 10 6.58 1.17
-5 -4 10 4.85 0.88
-5 -4 9 11.91 1.53
-5 -4 9 13.46 1.73
-5 -4 9 15.32 1.93
-5 -4 8 244.26 9.44
-5 -4 8 264.77 10.11
-5 -4 8 274.79 10.36
-5 -4 7 1.14 0.84
-5 -4 7 0.45 0.55
-5 -4 7 0.12 0.59
-5 -4 6 336.69 12.54
-5 -4 6 360.4 13.11
-5 -4 6 377.35 13.38
-5 -4 5 1.33 0.89
-5 -4 5 1.39 0.86
-5 -4 5 0.73 0.65
-5 -4 4 15.4 2.14
-5 -4 4 14.7 2.09
-5 -4 3 6.14 1.44
-5 -4 3 4.85 1.25
-5 -4 3 5.43 1.31
-5 -4 3 4.83 1.24
-5 -4 3 5.75 1.27
-5 -4 3 4.78 1.25
-5 -4 2 392.69 14.47
-5 -4 2 347.94 12.89
-5 -4 2 356.72 13.16
-5 -4 2 328.72 12.77
-5 -4 2 379.43 13.55
5 4 -2 430.12 14.53
-5 -4 2 377.59 13.36
-5 -4 2 401.96 13.99
5 4 -2 376.68 14.02
-5 -4 1 4.78 1.4
-5 -4 1 5.45 1.37
-5 -4 1 5.79 1.27
-5 -4 1 3.95 1.06
-5 -4 1 6.24 1.45
-5 -4 1 9 1.58
-5 -4 1 8.2 1.55
5 4 -1 6.22 1.43
-5 -4 0 566.39 18.42
-5 -4 0 571.1 19.52
-5 -4 0 539.5 18.3
-5 -4 0 569.43 18.1
-5 -4 0 623.88 19.04
5 4 0 631.87 19.44
-5 -4 0 543.32 17.82
-5 -4 0 587.08 18.55
-5 -4 0 653.17 19.72
-5 -4 -1 0.73 0.73
-5 -4 -1 0.92 0.8
-5 -4 -1 1.8 0.89
-5 -4 -1 -0.89 0.65
-5 -4 -1 -0.64 0.5
-5 -4 -1 1.76 1
-5 -4 -1 1.25 0.88
5 4 1 0.34 0.5
5 4 1 1.21 0.83
-5 -4 -2 1.22 0.94
-5 -4 -2 0.72 0.76
-5 -4 -2 1.75 0.79
-5 -4 -2 0.98 0.62
-5 -4 -2 0.85 0.72
-5 -4 -2 2.29 0.92
-5 -4 -2 1.08 0.74
5 4 2 1.16 0.7
5 4 2 0.08 0.6
-5 -4 -3 4.58 1.18
-5 -4 -3 2.7 0.87
-5 -4 -3 2.41 1.01
-5 -4 -3 2.28 0.91
-5 -4 -3 2.48 1.08
-5 -4 -3 3.66 1.14
-5 -4 -3 2.94 1.01
5 4 3 2.15 0.95
-5 -4 -4 18.67 2.38
-5 -4 -4 15.59 2.1
-5 -4 -4 19.08 2.37
-5 -4 -4 17.13 2.41
-5 -4 -4 18.22 2.37
-5 -4 -4 15.28 2.02
5 4 4 14.69 2.35
-5 -4 -4 20.86 2.66
-5 -4 -5 5.16 1.19
-5 -4 -5 5.16 1.31
-5 -4 -5 7.17 1.42
-5 -4 -5 6.93 1.42
-5 -4 -5 7.55 1.64
-5 -4 -5 7.26 1.44
-5 -4 -5 9.08 1.77
5 4 5 7.15 1.67
-5 -4 -5 10.38 1.92
-5 -4 -6 5.69 1.39
-5 -4 -6 5.44 1.37
-5 -4 -6 4.99 1.35
-5 -4 -6 6.48 1.44
-5 -4 -6 5.73 1.44
-5 -4 -6 8.31 2.34
5 4 6 5.36 1.65
-5 -4 -6 5.47 1.5
-5 -4 -7 48.6 4.08
-5 -4 -7 51.47 4.2
-5 -4 -7 52.59 4.06
-5 -4 -7 46.09 3.73
-5 -4 -7 49.05 4.01
5 4 7 53.26 4.63
-5 -4 -7 49.34 4.27
-5 -4 -8 3.08 1.08
-5 -4 -8 1.5 0.86
-5 -4 -8 1.99 1.06
-5 -4 -8 2.15 0.85
-5 -4 -8 0.84 0.66
-5 -4 -8 4.58 1.42
-5 -4 -9 0.71 0.64
-5 -4 -9 0.37 0.77
-5 -4 -9 2.09 0.93
-5 -4 -9 1.01 0.87
-5 -4 -9 0.19 0.73
-5 -4 -9 2.19 1.05
-5 -4 -10 154.49 7.75
-5 -4 -10 158.9 8.03
-5 -4 -10 149.47 7.83
-5 -4 -10 158.61 7.65
-5 -4 -10 157.03 7.95
-5 -4 -10 154.49 7.97
-5 -4 -11 28.05 2.88
-5 -4 -11 25.28 2.94
-5 -4 -11 27.3 3.08
-5 -4 -11 28.93 3.01
-5 -4 -11 29.59 3.14
-5 -4 -12 388.79 13.65
-5 -4 -12 380.71 14.3
5 4 12 366.48 13.54
-5 -4 -12 402.63 14.61
-5 -4 -12 413.32 14.32
-5 -4 -12 389.72 14.26
5 4 13 80.9 4.78
-5 -4 -13 86.53 5.35
-5 -4 -13 100.91 5.8
-5 -4 -13 90.32 5.46
-5 -4 -13 79.84 5.14
-5 -4 -13 90.67 5.4
-5 -4 -14 86.07 5
-5 -4 -14 89.39 5.3
5 4 14 78.92 4.37
-5 -4 -14 94.53 5.3
-5 -4 -14 87.38 5.09
-5 -4 -15 127.69 5.75
-5 -4 -15 129.45 6.13
-5 -4 -15 138.64 6.19
-5 -4 -15 126.42 5.94
-5 -4 -16 133.75 5.26
-5 -4 -16 139.68 5.89
-5 -4 -16 150.31 6.02
-5 -4 -16 131.2 5.64
5 4 16 127.12 5.5
-5 -4 -17 4.16 0.8
-5 -4 -17 2.23 0.57
5 4 17 2.8 0.65
-5 -5 11 2.12 0.49
5 5 -11 3 0.6
-5 -5 10 8.54 1.12
-5 -5 10 9.63 1.13
-5 -5 9 27.04 2.19
-5 -5 9 27.23 2.25
-5 -5 9 28.22 2.32
-5 -5 8 172.26 7.18
-5 -5 8 180.14 7.45
-5 -5 8 188.41 7.58
-5 -5 7 75.84 4.54
-5 -5 7 80.79 4.76
-5 -5 7 86.42 4.91
-5 -5 6 139.7 6.87
-5 -5 6 156.68 7.23
-5 -5 6 160.03 7.4
-5 -5 5 7.86 1.58
-5 -5 5 6.96 1.47
-5 -5 5 7.34 1.55
-5 -5 4 3.77 1.25
-5 -5 4 3.93 1.2
-5 -5 4 1.89 0.93
-5 -5 4 2.08 0.94
-5 -5 3 125.1 6.27
-5 -5 3 127.01 6.73
-5 -5 3 133.25 6.83
-5 -5 3 125.19 6.58
-5 -5 3 134.45 6.97
-5 -5 2 20.84 2.37
-5 -5 2 20.73 2.39
-5 -5 2 20.16 2.44
-5 -5 2 20.49 2.52
-5 -5 2 23.57 2.62
-5 -5 2 21.73 2.6
-5 -5 1 190.34 8.5
-5 -5 1 182.51 8.44
-5 -5 1 196.7 8.64
-5 -5 1 200.13 8.93
-5 -5 1 206.99 8.77
-5 -5 1 217.53 9.41
-5 -5 0 78.6 4.99
-5 -5 0 78.15 4.97
-5 -5 0 81.85 5
-5 -5 0 83.02 5.27
-5 -5 0 81.31 4.96
-5 -5 0 83.66 5.44
-5 -5 -1 22.66 2.54
-5 -5 -1 22.68 2.5
-5 -5 -1 25.03 2.73
-5 -5 -1 27.81 2.77
-5 -5 -1 24.44 2.77
-5 -5 -1 25.49 2.62
-5 -5 -1 26.81 2.97
-5 -5 -2 16.13 2.33
-5 -5 -2 17.61 2.17
-5 -5 -2 18.38 2.34
-5 -5 -2 17.95 2.23
-5 -5 -2 16.05 2.27
-5 -5 -2 17.34 2.15
-5 -5 -2 17.19 2.4
-5 -5 -3 277.38 11.25
-5 -5 -3 279.06 11.06
-5 -5 -3 280.78 11.29
-5 -5 -3 302.18 10.8
-5 -5 -3 300.43 11.93
-5 -5 -3 294.26 11.77
-5 -5 -4 3.97 1.19
-5 -5 -4 3.52 1.13
-5 -5 -4 4.27 1.28
-5 -5 -4 3.19 1.18
-5 -5 -4 4 1.19
-5 -5 -5 672.93 21.67
-5 -5 -5 658.6 21.38
-5 -5 -5 681 21.52
-5 -5 -5 668.07 21.65
-5 -5 -6 34.09 3.34
-5 -5 -6 38.16 3.56
-5 -5 -6 39.64 3.44
-5 -5 -6 40.06 3.53
-5 -5 -6 34.08 3.01
-5 -5 -6 41.38 3.65
-5 -5 -7 143.08 7.31
-5 -5 -7 136.49 7.24
-5 -5 -7 135.39 7.01
-5 -5 -7 144.42 7.07
-5 -5 -7 130.17 6.64
-5 -5 -7 137.59 7.04
-5 -5 -8 66.91 4.75
-5 -5 -8 72.06 5
-5 -5 -8 73.19 4.7
-5 -5 -8 71.64 4.91
-5 -5 -8 85.2 5.33
-5 -5 -8 65.84 4.52
-5 -5 -8 72.88 4.82
-5 -5 -9 17.95 2.34
-5 -5 -9 17.75 2.38
-5 -5 -9 16.59 2.29
-5 -5 -9 18.47 2.43
-5 -5 -9 17.64 2.3
-5 -5 -9 16.47 2.08
-5 -5 -10 19.65 2.4
-5 -5 -10 20.06 2.53
-5 -5 -10 21.09 2.64
-5 -5 -10 25.02 2.8
-5 -5 -10 22.37 2.55
-5 -5 -10 24.36 2.51
-5 -5 -11 1.56 0.75
-5 -5 -11 0.19 0.68
-5 -5 -11 0.99 0.81
-5 -5 -11 0.51 0.76
-5 -5 -11 0.64 0.6
-5 -5 -11 0.84 0.57
-5 -5 -12 26.19 2.4
-5 -5 -12 26.35 2.7
-5 -5 -12 24.93 2.71
-5 -5 -12 29.97 3.02
-5 -5 -12 24.68 2.6
-5 -5 -13 4.44 1.09
-5 -5 -13 3.9 1.01
-5 -5 -13 6.08 1.5
-5 -5 -13 4.19 1.02
-5 -5 -14 39.64 2.85
-5 -5 -14 46.47 3.43
-5 -5 -14 40.35 3.01
5 5 14 33.36 2.48
-5 -5 -15 49.28 2.83
-5 -5 -15 56 3.47
-5 -5 -15 56.89 3.32
-5 -5 -16 -0.3 0.44
5 5 16 0.64 0.43
-5 -5 -16 -0.3 0.38
5 5 16 0.3 0.33
-5 -6 9 7.87 1
-5 -6 9 9.6 1.11
-5 -6 8 333.58 10.6
-5 -6 8 323.68 10.52
-5 -6 7 36.25 2.73
-5 -6 7 32.92 2.57
-5 -6 6 409.95 13.43
-5 -6 6 403.2 13.32
-5 -6 5 1.03 0.78
-5 -6 5 0.14 0.55
-5 -6 4 109.68 5.91
-5 -6 4 108.66 5.88
-5 -6 4 116.46 5.88
-5 -6 3 184.94 7.68
-5 -6 3 168.77 7.3
-5 -6 3 166.6 7.85
-5 -6 3 181.96 8.13
-5 -6 3 181.31 7.87
-5 -6 2 97.22 5.34
-5 -6 2 90.61 5.16
-5 -6 2 95.27 5.53
-5 -6 2 102.22 5.81
-5 -6 2 103.27 5.56
-5 -6 1 159.04 7.34
-5 -6 1 149.28 7.17
-5 -6 1 157.37 7.46
-5 -6 1 160.65 7.73
-5 -6 1 159.83 7.31
-5 -6 0 8.31 1.47
-5 -6 0 6.73 1.39
-5 -6 0 10.05 1.67
-5 -6 0 8.97 1.56
-5 -6 0 4.47 1.21
-5 -6 0 9.29 1.76
-5 -6 -1 2.19 0.67
-5 -6 -1 1.02 0.72
-5 -6 -1 2.92 0.96
-5 -6 -1 3.23 1.1
-5 -6 -1 2.69 1.1
-5 -6 -2 15.34 2.1
-5 -6 -2 15.93 2.11
-5 -6 -2 17.29 2.25
-5 -6 -2 16.31 2.09
-5 -6 -2 16.28 2.34
-5 -6 -3 0.94 0.65
-5 -6 -3 1.28 0.84
-5 -6 -3 1.11 0.8
-5 -6 -3 1.32 0.77
-5 -6 -3 1.37 0.74
-5 -6 -4 86.9 5.28
-5 -6 -4 80.38 5.09
-5 -6 -4 80.81 5.16
-5 -6 -4 81.54 4.8
-5 -6 -4 87.88 5.82
-5 -6 -5 36.06 3.33
-5 -6 -5 30.54 3
-5 -6 -5 37.59 3.34
-5 -6 -5 34.32 2.9
-5 -6 -5 38.73 3.85
-5 -6 -6 4.83 1.23
-5 -6 -6 5.74 1.3
-5 -6 -6 4.01 1.14
-5 -6 -6 5.17 1.07
-5 -6 -6 4.6 1.17
-5 -6 -7 30.34 2.95
-5 -6 -7 27.34 2.89
-5 -6 -7 26.97 2.74
-5 -6 -7 20.83 2.31
-5 -6 -8 213.94 8.91
-5 -6 -8 217.97 9.23
-5 -6 -8 217.89 8.81
-5 -6 -8 194.38 8.45
-5 -6 -9 70.08 4.44
-5 -6 -9 74.03 4.8
-5 -6 -9 79.86 4.54
-5 -6 -9 86.93 5.36
-5 -6 -9 69.67 4.48
-5 -6 -10 9.31 1.43
-5 -6 -10 11.48 1.78
-5 -6 -10 12.26 1.92
-5 -6 -10 10.74 1.65
-5 -6 -11 18.24 1.86
-5 -6 -11 18.52 2.13
-5 -6 -11 18.72 2.32
-5 -6 -11 16.48 1.99
-5 -6 -12 71.38 4.09
-5 -6 -12 78.63 4.76
-5 -6 -12 68.32 4.1
-5 -6 -13 23.81 2.05
-5 -6 -13 29.55 2.66
-5 -6 -13 28.92 2.35
-5 -6 -14 19.51 1.62
-5 -6 -14 20.03 1.82
5 6 15 37.95 2.2
-5 -6 -15 45.15 2.49
-5 -7 7 16.36 1.44
-5 -7 7 19.47 1.55
-5 -7 6 0.84 0.45
-5 -7 6 0.61 0.49
-5 -7 5 17.09 1.77
-5 -7 5 16.84 1.7
-5 -7 4 16.5 1.88
-5 -7 4 14.76 1.68
-5 -7 3 23.27 1.99
-5 -7 3 22.34 2.32
-5 -7 3 24.13 2.39
-5 -7 3 24.88 2.23
-5 -7 2 23.14 2.22
-5 -7 2 19.45 1.97
-5 -7 2 21.38 2.25
-5 -7 2 21.91 2.38
-5 -7 2 21.59 2.1
-5 -7 1 328.26 11.42
-5 -7 1 317.27 11.13
-5 -7 1 325.36 11.62
-5 -7 1 336.58 11.93
-5 -7 1 312.45 10.94
-5 -7 0 16.34 1.96
-5 -7 0 16.05 1.92
-5 -7 0 16.05 1.91
-5 -7 0 17.02 2.1
-5 -7 0 17.45 2.17
-5 -7 0 14.89 1.75
-5 -7 -1 165.2 7.39
-5 -7 -1 172.09 7.5
-5 -7 -1 176.23 7.54
-5 -7 -1 164.02 7.4
-5 -7 -1 179.24 8.02
-5 -7 -2 114.34 5.75
-5 -7 -2 104.94 5.6
-5 -7 -2 110.21 5.69
-5 -7 -2 106.3 5.59
-5 -7 -2 104.64 5.95
-5 -7 -3 1.44 0.81
-5 -7 -3 2.24 0.93
-5 -7 -3 1.45 0.8
-5 -7 -3 1.53 0.79
-5 -7 -3 1.49 0.92
-5 -7 -4 8.41 1.53
-5 -7 -4 5.26 1.18
-5 -7 -4 6.88 1.46
-5 -7 -4 6.47 1.21
-5 -7 -4 8.24 2.24
-5 -7 -5 167.63 7.42
-5 -7 -5 171.22 7.57
-5 -7 -5 177.07 7.6
-5 -7 -5 166.26 7.13
-5 -7 -6 4.77 1.15
-5 -7 -6 5.62 1.31
-5 -7 -6 5.01 1.14
-5 -7 -6 5.39 1.07
-5 -7 -7 59.98 3.83
-5 -7 -7 59.55 3.97
-5 -7 -7 61.12 3.86
-5 -7 -7 56.48 3.47
-5 -7 -7 59.82 3.63
-5 -7 -8 10.34 1.47
-5 -7 -8 9.18 1.43
-5 -7 -8 10.76 1.5
-5 -7 -8 9.57 1.27
-5 -7 -8 10.6 1.47
-5 -7 -9 2.88 0.82
-5 -7 -9 3.18 0.97
-5 -7 -9 2.76 0.83
-5 -7 -10 0.82 0.39
-5 -7 -10 1.02 0.63
-5 -7 -10 -0.22 0.41
-5 -7 -11 20.9 1.88
-5 -7 -11 21.71 1.93
-5 -7 -12 0.01 0.33
-5 -7 -12 1.04 0.53
5 7 13 23.96 1.61
-5 -7 -13 30.1 1.97
-5 -8 3 13.1 1.17
-5 -8 2 12.29 1.25
-5 -8 2 12.96 1.19
-5 -8 1 64.19 3.51
-5 -8 1 65.4 3.21
-5 -8 0 40.23 2.77
-5 -8 0 44.42 2.61
-5 -8 -1 69.48 3.75
-5 -8 -1 70.49 3.82
-5 -8 -2 192.2 7.18
-5 -8 -2 191.63 7.19
-5 -8 -2 175.51 7.03
-5 -8 -3 96.29 4.64
-5 -8 -3 102.56 4.81
-5 -8 -3 94.36 4.58
-5 -8 -4 746.44 20.75
-5 -8 -4 744.61 20.87
-5 -8 -4 702.23 20.48
-5 -8 -5 39.61 2.7
-5 -8 -5 43.71 2.92
-5 -8 -5 40.91 2.67
-5 -8 -6 13.16 1.43
-5 -8 -6 12.3 1.5
-5 -8 -6 11.18 1.29
-5 -8 -7 0.02 0.43
-5 -8 -7 0.54 0.49
-5 -8 -7 0.37 0.34
-5 -8 -8 -0.12 0.33
-5 -8 -8 0.05 0.42
-5 -8 -8 0.66 0.4
-5 -8 -9 0.52 0.38
-6 4 3 95.8 3.47
-6 4 2 56.97 2.53
6 -4 -2 59.04 2.62
6 -4 -2 56.71 2.58
-6 4 1 0.8 0.36
6 -4 -1 0.1 0.28
6 -4 -1 0.82 0.43
6 -4 -1 0.38 0.35
-6 4 1 -0.17 0.25
-6 4 0 23.31 1.51
6 -4 0 21 1.39
6 -4 0 26.64 1.81
6 -4 0 25.1 1.8
-6 4 0 24.2 1.52
-6 4 0 24.42 1.55
-6 4 -1 50.53 2.35
6 -4 1 63.48 3.04
6 -4 1 60.6 2.97
-6 4 -1 48.9 2.52
-6 4 -1 52.51 2.54
6 -4 2 43.63 2.15
6 -4 2 52.35 2.78
6 -4 2 53.15 2.73
-6 4 -2 42.79 2.36
-6 4 -2 42.47 2.29
6 -4 3 191.4 6.28
6 -4 3 211.62 6.9
-6 4 -3 192.19 6.55
-6 4 -3 195.59 6.47
6 -4 4 0.41 0.28
6 -4 4 1.49 0.51
6 -4 4 1.21 0.51
-6 4 -4 1.14 0.42
-6 4 -4 0.65 0.35
6 -4 5 14.7 1.16
6 -4 5 18.94 1.52
-6 4 -5 14.79 1.25
-6 4 -5 16.14 1.25
-6 4 -6 86.27 3.41
-6 4 -6 87.57 3.33
6 -3 -6 90.16 3.59
6 -3 -6 102.19 3.78
-6 3 6 97.32 3.66
6 -3 -6 83.57 3.39
6 -3 -5 -0.02 0.34
6 -3 -5 0 0.32
6 -3 -5 0.53 0.4
6 -3 -5 -0.19 0.32
-6 3 5 -0.15 0.33
-6 3 4 43.84 2.6
6 -3 -4 39.8 2.4
6 -3 -4 40.71 2.27
6 -3 -4 40.99 2.5
6 -3 -4 46.6 2.7
-6 3 4 39.93 2.16
6 -3 -4 38.58 2.24
-6 3 3 10.62 1.3
6 -3 -3 8.24 1.11
6 -3 -3 8.56 1.1
6 -3 -3 11.36 1.39
6 -3 -3 9.3 1.26
-6 3 3 8.82 1.05
-6 3 2 43.87 2.83
6 -3 -2 42.89 2.71
6 -3 -2 42.97 2.7
6 -3 -2 45.49 2.98
6 -3 -2 40.46 2.9
-6 3 2 40.54 2.49
6 -3 -1 51.08 3.09
6 -3 -1 50.96 3.15
6 -3 -1 56.76 3.48
6 -3 -1 55.75 3.52
-6 3 1 52.75 3
-6 3 1 51.59 2.98
-6 3 1 47.89 3.07
-6 3 0 10.06 1.34
6 -3 0 8.06 1.18
6 -3 0 7.5 1.27
6 -3 0 7.85 1.32
6 -3 0 9.83 1.47
-6 3 0 7.98 1.14
-6 3 0 6.19 1.06
6 -3 1 86.96 4.24
6 -3 1 88.93 4.64
6 -3 1 89.36 4.74
6 -3 1 98.71 4.99
-6 3 -1 91.48 4.54
-6 3 -1 88.11 4.36
-6 3 -1 86.87 4.42
6 -3 2 16.01 1.86
6 -3 2 16.56 1.89
6 -3 2 19.51 2.1
-6 3 -2 19.04 1.88
-6 3 -2 18.37 1.9
-6 3 -2 17.81 1.81
-6 3 -3 52.54 3.15
6 -3 3 57 3.6
6 -3 3 58.17 3.72
-6 3 -3 54.72 3.44
-6 3 -3 53.43 3.3
6 -3 3 58.13 3.62
-6 3 -4 13.08 1.38
6 -3 4 10.81 1.53
6 -3 4 13.42 1.67
6 -3 4 12.83 1.62
-6 3 -4 13.11 1.6
-6 3 -4 12.62 1.51
6 -3 5 25.6 2.28
6 -3 5 24.92 2.24
6 -3 5 27.3 2.26
-6 3 -5 24.11 2.2
-6 3 -5 23.33 2.05
6 -3 6 241.9 8.61
6 -3 6 226.28 7.6
6 -3 6 228.92 8.38
6 -3 6 226.57 7.95
-6 3 -6 242.76 8.47
-6 3 -6 222.93 8.04
-6 3 -7 2.07 0.56
6 -3 7 2.64 0.79
6 -3 7 1.87 0.55
6 -3 7 2.13 0.69
-6 3 -7 1.79 0.69
-6 3 -7 1.7 0.55
6 -3 8 269.38 8.67
-6 3 -8 220.41 7.5
6 -3 8 246.14 7.86
6 -3 8 268.5 8.53
-6 3 -8 246.7 8.15
-6 3 -8 244.31 8.05
-6 3 -9 5.71 0.79
6 -3 9 5.7 0.91
6 -3 9 4.44 0.71
6 -3 9 5.28 0.82
-6 3 -9 5.06 0.77
-6 3 -9 4.69 0.77
-6 3 -10 0.78 0.3
6 -3 10 0.97 0.42
6 -3 10 1.12 0.37
-6 3 -10 1.16 0.42
6 -3 11 86.34 3.28
6 -2 -9 1 0.32
6 -2 -9 0.49 0.25
6 -2 -8 2.12 0.56
-6 2 8 1.38 0.41
6 -2 -8 3.02 0.6
6 -2 -8 3.03 0.63
-6 2 7 20.67 1.59
6 -2 -7 17.14 1.54
6 -2 -7 19.42 1.53
-6 2 7 18.77 1.51
6 -2 -7 19.19 1.67
6 -2 -7 20.91 1.73
-6 2 6 26.57 2.03
6 -2 -6 24.12 1.97
6 -2 -6 25.17 1.98
-6 2 6 24.72 1.88
6 -2 -6 24.84 2.06
-6 2 5 63.41 3.57
6 -2 -5 62.2 3.48
6 -2 -5 60.32 3.49
-6 2 5 61.71 3.3
6 -2 -5 62.91 3.67
-6 2 4 46.28 3.13
6 -2 -4 40.04 2.85
6 -2 -4 48.76 3.19
-6 2 4 43.5 2.79
6 -2 -4 47.77 3.24
-6 2 3 241.03 8.89
6 -2 -3 228 8.51
6 -2 -3 228.81 8.74
-6 2 3 211.9 7.98
6 -2 -3 238.12 8.96
-6 2 2 118.51 5.67
6 -2 -2 107.29 5.33
6 -2 -2 116.21 5.71
6 -2 -2 111.65 5.71
-6 2 2 106.61 4.92
6 -2 -2 97.85 4.94
-6 2 1 289.64 10.83
6 -2 -1 295.14 10.6
6 -2 -1 318.84 11.33
6 -2 -1 311.67 11.3
-6 2 1 298.54 10.4
-6 2 1 295.35 10.24
6 -2 0 4.58 1.08
6 -2 0 2.08 0.9
6 -2 0 3.74 1.06
-6 2 0 3.7 1
-6 2 0 4.02 1.13
-6 2 -1 87.17 4.96
6 -2 1 90.93 5.21
6 -2 1 86.14 5.04
-6 2 -1 81.44 4.77
-6 2 -1 89.98 4.73
-6 2 -2 154.4 6.98
6 -2 2 149.35 7.16
6 -2 2 146.01 6.39
6 -2 2 149.86 7.07
-6 2 -2 156.16 7.06
-6 2 -2 153.96 6.67
6 -2 3 78.3 4.88
6 -2 3 76.37 4.36
6 -2 3 77.99 4.76
-6 2 -3 79.47 4.73
-6 2 -3 77.35 4.4
-6 2 -3 75.36 4.51
-6 2 -4 2.15 0.97
6 -2 4 1.05 0.72
6 -2 4 1.9 0.82
6 -2 4 1.23 0.59
-6 2 -4 1.86 0.87
-6 2 -4 1.73 0.79
-6 2 -5 27.78 2.52
6 -2 5 34 3.1
6 -2 5 33.55 2.81
6 -2 5 33.54 2.92
-6 2 -5 33.2 2.97
-6 2 -5 30.96 2.63
6 -2 6 93.63 5.06
6 -2 6 97.38 5.21
6 -2 6 101.47 5.2
6 -2 6 102.91 5.62
-6 2 -6 105.04 5.49
-6 2 -6 97.72 5.05
-6 2 -7 0.46 0.49
6 -2 7 1.09 0.61
6 -2 7 1.39 0.64
6 -2 7 -0.06 0.59
-6 2 -7 0.3 0.62
-6 2 -7 0.31 0.47
6 -2 8 25.54 2.49
-6 2 -8 24.8 2.13
6 -2 8 27.4 2.45
6 -2 8 24.68 2.28
-6 2 -8 23.28 2.26
-6 2 -8 25.95 2.27
6 -2 9 27.84 2.5
-6 2 -9 24.53 2.08
6 -2 9 24.54 2.23
6 -2 9 26.84 2.25
-6 2 -9 23.16 2.14
-6 2 -9 22.96 2.05
6 -2 10 88.8 4.43
-6 2 -10 80.26 3.97
6 -2 10 85.95 4.23
-6 2 -10 72.19 3.82
-6 2 -10 75 3.8
6 -2 11 37.51 2.55
-6 2 -11 35 2.32
6 -2 11 40.85 2.58
-6 2 -11 38.52 2.32
-6 2 -11 35.09 2.25
-6 2 -12 3.92 0.71
6 -2 12 3.58 0.7
6 -2 12 5.21 0.84
-6 2 -12 3.52 0.66
6 -2 13 183.82 5.89
-6 2 -13 174.05 5.77
6 -1 -10 174.56 5.69
-6 1 10 175.39 5.68
6 -1 -10 185.47 5.84
6 -1 -9 17.14 1.48
-6 1 9 16.83 1.45
6 -1 -9 18.1 1.54
-6 1 9 18.54 1.48
6 -1 -8 320.92 10.49
-6 1 8 348.77 10.67
6 -1 -8 336.29 10.7
-6 1 8 345.25 10.61
6 -1 -7 49.04 3.06
-6 1 7 51.2 2.92
-6 1 7 50.24 3.08
6 -1 -7 49.08 3.16
-6 1 7 46.26 2.97
6 -1 -6 2.35 0.77
-6 1 6 1.98 0.73
-6 1 6 1.28 0.64
6 -1 -6 2.53 0.88
-6 1 6 1.39 0.66
-6 1 5 4.02 1
6 -1 -5 3.68 0.98
-6 1 5 4.61 1.03
6 -1 -5 2.82 0.98
-6 1 5 3.55 0.98
-6 1 4 21.45 2.26
6 -1 -4 19.42 2.12
-6 1 4 21.9 2.22
6 -1 -4 21.44 2.32
-6 1 4 20.38 2.18
-6 1 3 0.63 0.63
6 -1 -3 -0.24 0.68
-6 1 3 0.04 0.48
6 -1 -3 0.53 0.62
-6 1 3 0.1 0.5
-6 1 2 86.38 5.08
6 -1 -2 89.66 5
-6 1 2 85.91 4.82
6 -1 -2 89.81 5.37
-6 1 2 86.03 5.03
-6 1 1 96.6 5.42
6 -1 -1 96.35 5.1
-6 1 1 86.11 4.87
6 -1 -1 93.12 5.43
-6 1 0 9.63 1.65
-6 1 0 6.81 1.24
6 -1 0 8.35 1.57
-6 1 0 8.97 1.56
-6 1 -1 59.53 4.22
6 -1 1 61.79 4.44
-6 1 -1 58.73 3.79
6 -1 1 63.96 4.35
-6 1 -1 63.49 4.22
-6 1 -2 1.43 0.67
6 -1 2 1.33 0.85
6 -1 2 1.43 0.89
-6 1 -2 1.26 0.59
6 -1 3 3.51 1.15
6 -1 3 3.34 1.01
-6 1 -3 2.05 0.83
-6 1 -3 2.04 0.95
-6 1 -4 188.21 8.41
6 -1 4 201.83 8.97
6 -1 4 190.56 8.45
6 -1 4 197.55 8.48
-6 1 -4 205.59 8.84
-6 1 -5 78.69 4.88
6 -1 5 83.57 5.31
6 -1 5 87.38 5.18
6 -1 5 81.42 4.89
-6 1 -5 83.38 5.2
-6 1 -5 85.64 4.74
6 -1 6 10.65 1.95
6 -1 6 12.42 1.89
6 -1 6 11.84 1.75
-6 1 -6 9.46 1.57
-6 1 -6 12.24 1.92
-6 1 -6 8.65 1.46
-6 1 -7 146.16 6.7
6 -1 7 148.99 7.43
-6 1 -7 147.47 6.6
6 -1 7 153.76 7.35
6 -1 7 152.43 6.84
-6 1 -7 155.46 7.36
-6 1 -7 151.7 6.8
6 -1 8 26.23 2.79
-6 1 -8 22.18 2.26
6 -1 8 23.94 2.57
-6 1 -8 23.39 2.54
-6 1 -8 23.13 2.33
6 -1 9 29.28 2.86
-6 1 -9 27.09 2.48
6 -1 9 27.76 2.73
-6 1 -9 28.86 2.71
-6 1 -9 24.7 2.32
6 -1 10 198.87 8.26
-6 1 -10 198.04 7.84
6 -1 10 207.61 8.33
-6 1 -10 188.57 7.93
-6 1 -10 189.95 7.52
6 -1 11 164.03 7.02
-6 1 -11 167.05 6.79
6 -1 11 176.26 7.23
-6 1 -11 167.76 6.84
-6 1 -11 162.7 6.51
6 -1 12 17.92 1.8
-6 1 -12 17.19 1.73
6 -1 12 21.95 2.02
-6 1 -12 18.62 1.77
-6 1 -12 18.08 1.66
6 -1 13 98.25 4.35
-6 1 -13 108.03 4.55
6 -1 13 113.13 4.72
-6 1 -13 103.28 4.23
6 -1 14 106.58 4.04
-6 1 -14 112.93 4.35
-6 1 -14 107.92 3.94
6 0 -11 1.09 0.38
6 0 -11 1.06 0.37
6 0 -10 21.2 1.66
-6 0 10 22.2 1.61
6 0 -10 23.2 1.75
-6 0 10 21.04 1.52
6 0 -9 115.87 5
-6 0 9 126.04 5.07
6 0 -9 126.57 5.23
-6 0 9 122.74 4.95
6 0 -8 103.83 4.93
-6 0 8 111.76 5.04
6 0 -8 115.16 5.2
-6 0 8 112.97 5.01
6 0 -7 37.83 2.87
-6 0 7 47.1 3.17
6 0 -7 47.58 3.26
-6 0 7 45.73 3.1
-6 0 6 9.65 1.42
6 0 -6 11.28 1.57
-6 0 6 11.37 1.66
6 0 -6 8.45 1.49
-6 0 6 7.96 1.37
-6 0 5 353.58 12.06
6 0 -5 323.15 11.69
-6 0 5 366.03 12.27
6 0 -5 339.56 12.16
-6 0 5 348.68 12.09
-6 0 4 78.79 4.72
6 0 -4 74.41 4.47
-6 0 4 82.01 4.76
-6 0 4 79.38 4.7
6 0 -4 79.69 4.86
-6 0 4 81.68 4.76
-6 0 3 416.51 14.33
6 0 -3 429.22 14.08
-6 0 3 409.71 14.1
6 0 -3 429.54 14.65
-6 0 3 401.19 14.08
-6 0 2 21.38 2.46
-6 0 2 20.37 2.31
6 0 -2 22.68 2.61
-6 0 2 20.36 2.34
-6 0 1 46.17 3.56
6 0 -1 47.04 3.74
-6 0 0 45.51 3.65
-6 0 0 36.12 3.09
6 0 0 38.85 3.32
-6 0 0 40.74 3.26
-6 0 -1 4.89 1.35
-6 0 -1 5.34 1.24
6 0 1 6.31 1.38
-6 0 -2 19.16 2.4
-6 0 -2 15.88 2
6 0 2 15.67 2.09
-6 0 -2 17.07 2.27
-6 0 -3 779.92 23.39
6 0 3 767.7 23.38
6 0 3 745.36 22.46
-6 0 -3 714.84 22.21
-6 0 -3 772.65 23.33
-6 0 -4 15.35 2.2
6 0 4 13.97 2.09
-6 0 -4 16 2.24
-6 0 -5 162.54 7.83
6 0 5 160.53 7.84
-6 0 -5 160.36 7.89
-6 0 -6 5.79 1.4
6 0 6 7.12 1.57
6 0 6 5.36 1.27
-6 0 -6 4.2 1.15
-6 0 -6 3.73 1.09
-6 0 -7 84.56 4.86
6 0 7 89.33 5.54
6 0 7 94.02 5.6
-6 0 -7 90.19 5.56
-6 0 -7 86.12 4.92
-6 0 -7 82.55 5.16
-6 0 -8 36.66 3.21
6 0 8 43.54 3.68
-6 0 -8 35.11 3.04
6 0 8 43.04 3.66
-6 0 -8 40.68 3.56
-6 0 -8 41.85 3.26
6 0 9 238.23 9.94
-6 0 -9 239.83 9.54
6 0 9 256.06 10.23
-6 0 -9 243.72 10.06
-6 0 -9 234.1 9.3
6 0 10 31.61 2.84
6 0 10 31.61 3
-6 0 -10 29.7 2.78
6 0 10 34.27 3.14
-6 0 -10 31.57 3.02
-6 0 -10 31.68 2.63
-6 0 -10 32.76 2.79
-6 0 -11 23.67 2.36
6 0 11 20.49 2.34
6 0 11 14.03 1.88
-6 0 -11 22.42 2.39
-6 0 -11 22.55 2.11
-6 0 -11 16.94 1.95
6 0 11 25.36 2.38
6 0 12 121.3 5.61
6 0 12 112.43 5.44
-6 0 -12 122.2 5.71
6 0 12 125.82 5.96
-6 0 -12 119.25 5.75
-6 0 -12 122.24 5.33
6 0 13 129.09 5.47
-6 0 -13 141.73 5.94
6 0 13 132.1 5.89
-6 0 -13 140.62 5.77
-6 0 -13 133.63 5.38
6 0 13 148.84 5.92
6 0 14 9.9 1.18
-6 0 -14 8.2 1.11
-6 0 -14 9.83 1.28
6 0 14 10.09 1.25
-6 0 -14 6.84 0.91
6 0 15 109.67 4.1
6 0 15 106.55 4.07
-6 0 -15 97.74 3.88
-6 0 -16 15.95 1.16
6 1 -11 213.42 6.88
6 1 -11 221.65 7.05
6 1 -10 275.23 8.89
-6 -1 10 259.57 8.43
6 1 -9 20.91 1.93
-6 -1 9 23.58 1.94
6 1 -9 26.53 2.24
-6 -1 9 23.44 1.82
-6 -1 9 22.33 1.75
6 1 -8 71.2 4.02
-6 -1 8 77.57 4.1
6 1 -8 79.86 4.34
-6 -1 8 76.1 3.91
-6 -1 8 69.78 3.7
-6 -1 7 0.82 0.51
6 1 -7 0.76 0.67
-6 -1 7 0.98 0.5
-6 -1 7 1.05 0.62
6 1 -6 121.6 5.92
-6 -1 6 138.45 6.32
-6 -1 6 138.12 6.17
-6 -1 6 129.27 5.91
6 1 -5 67.33 4.12
-6 -1 5 75.27 4.37
-6 -1 5 65.78 4.28
-6 -1 5 68.2 4.24
-6 -1 5 67.42 4.11
-6 -1 4 301.8 10.94
6 1 -4 263.83 10.2
-6 -1 4 302.25 10.96
6 1 -4 280.62 10.81
-6 -1 4 275.33 10.51
-6 -1 4 292.22 10.55
-6 -1 3 307.48 11.46
-6 -1 3 310.77 11.64
-6 -1 3 301.92 11.21
6 1 -3 302.2 11.41
-6 -1 3 286.72 10.94
-6 -1 3 285.61 10.9
-6 -1 2 26.09 2.81
-6 -1 2 26.76 2.87
-6 -1 2 27.57 2.73
6 1 -2 27.66 2.76
-6 -1 2 20.56 2.34
-6 -1 2 24.27 2.58
-6 -1 1 5.57 1.26
-6 -1 1 5.71 1.38
-6 -1 1 4.05 1.11
6 1 -1 4.39 1.25
-6 -1 0 332.28 12.12
-6 -1 0 311.93 11.78
-6 -1 -1 7.46 1.41
-6 -1 -1 6.83 1.47
-6 -1 -1 7.68 1.55
-6 -1 -1 9.54 1.65
6 1 1 9.17 1.68
-6 -1 -2 124.17 6.78
-6 -1 -2 112.25 6.08
-6 -1 -2 126.28 6.46
6 1 2 121.45 6.54
-6 -1 -2 114.69 5.98
-6 -1 -3 4.41 1.22
-6 -1 -3 4.54 1.29
-6 -1 -3 2.74 1.05
6 1 3 2.85 0.97
-6 -1 -3 2.86 1.02
-6 -1 -4 13.41 2.14
6 1 4 12.67 1.95
-6 -1 -4 12.73 1.95
-6 -1 -4 12.02 1.98
-6 -1 -4 14.26 2.13
-6 -1 -4 13.07 1.91
-6 -1 -5 181.78 8.64
6 1 5 182.19 8.3
-6 -1 -5 180.68 8.63
-6 -1 -5 179.84 8.06
-6 -1 -6 117.55 6.63
6 1 6 111.7 6.25
-6 -1 -6 121.92 6.77
-6 -1 -6 106.89 5.96
-6 -1 -7 35.71 3.42
-6 -1 -7 33.3 2.99
6 1 7 37.56 3.45
-6 -1 -7 37.53 3.54
-6 -1 -7 40.6 3.68
-6 -1 -7 36.41 3.24
-6 -1 -8 52.88 3.88
6 1 8 54.36 4.11
-6 -1 -8 48.03 4
-6 -1 -8 56.65 4.3
6 1 8 51.3 4.07
-6 -1 -8 52.75 4.3
-6 -1 -8 50.73 3.94
-6 -1 -9 50.27 3.93
6 1 9 53.52 4
-6 -1 -9 47.1 3.71
6 1 9 51.78 4.07
-6 -1 -9 52.69 4.27
-6 -1 -9 52.53 3.98
-6 -1 -10 61.71 4.31
6 1 10 65.69 4.53
-6 -1 -10 64.87 4.67
-6 -1 -10 62.23 4.35
6 1 11 2.37 0.85
-6 -1 -11 2.52 0.97
6 1 11 2.84 1.01
-6 -1 -11 1.61 0.9
-6 -1 -11 3.16 0.97
-6 -1 -12 53.33 3.76
6 1 12 51.95 3.76
-6 -1 -12 52.49 3.9
-6 -1 -12 58.26 3.92
6 1 12 52.94 3.79
6 1 13 89.34 4.78
-6 -1 -13 85.45 4.66
6 1 13 76.94 4.36
-6 -1 -13 81.11 4.58
-6 -1 -13 84.45 4.67
-6 -1 -14 63.63 3.65
6 1 14 73.66 3.95
-6 -1 -14 67.86 3.84
6 1 14 66.48 3.56
-6 -1 -14 66.6 3.61
6 1 15 10.06 1.26
-6 -1 -15 9.05 1.11
-6 -1 -15 7.7 1.12
-6 -1 -15 9.35 1.21
6 1 16 14.38 1.28
-6 -1 -16 13.32 1.24
-6 -1 -16 16.2 1.4
6 2 -11 29.98 1.84
6 2 -11 33.04 1.94
6 2 -10 42.81 2.62
-6 -2 10 42.77 2.5
6 2 -9 246.42 8.52
-6 -2 9 224.77 7.89
-6 -2 9 238.64 8.34
-6 -2 8 7.25 1.21
6 2 -8 5.12 1.09
-6 -2 8 8.01 1.22
6 2 -7 80.83 4.51
-6 -2 7 91.37 4.74
-6 -2 7 81.75 4.63
6 2 -6 61.33 3.84
-6 -2 6 56.31 3.81
-6 -2 6 54.34 3.47
-6 -2 6 58.82 3.93
6 2 -5 51.53 3.56
-6 -2 5 57.28 3.93
-6 -2 5 52.36 3.56
-6 -2 5 65.12 4.2
-6 -2 4 17.45 2.2
-6 -2 4 17.12 2.16
-6 -2 3 258.38 10.12
-6 -2 3 245.44 10.14
-6 -2 3 261.16 10.31
-6 -2 3 270.38 10.48
-6 -2 2 130.14 6.85
-6 -2 2 127.71 6.6
-6 -2 2 128.01 6.63
-6 -2 2 123.64 6.54
-6 -2 1 452.53 15.87
-6 -2 1 458.1 16.18
-6 -2 1 456.3 15.61
-6 -2 1 466.61 15.68
-6 -2 0 158.97 7.99
-6 -2 0 185.02 8.62
-6 -2 0 164.05 7.78
-6 -2 0 164.79 7.72
-6 -2 -1 1.84 0.7
-6 -2 -1 4.93 1.34
-6 -2 -1 4.25 1.32
-6 -2 -1 2.88 0.93
6 2 1 4.01 1.28
-6 -2 -1 4.05 1.13
-6 -2 -1 6.45 1.33
-6 -2 -2 95.94 5.97
-6 -2 -2 95.74 6.06
-6 -2 -2 84.78 5.15
-6 -2 -2 92.28 5.59
-6 -2 -2 93.76 5.5
6 2 2 97.58 5.87
-6 -2 -2 98.7 5.61
6 2 2 92.98 5.66
-6 -2 -3 22.43 2.75
-6 -2 -3 23.16 2.61
-6 -2 -3 24.28 2.96
-6 -2 -3 21.48 2.62
-6 -2 -3 20.12 2.49
6 2 3 18.11 2.41
-6 -2 -3 22.85 2.56
6 2 3 24.08 2.72
-6 -2 -4 -0.05 0.61
-6 -2 -4 0.84 0.71
-6 -2 -4 -0.33 0.85
-6 -2 -4 -0.83 0.62
6 2 4 0.05 0.75
-6 -2 -4 0.38 0.68
-6 -2 -5 0.48 0.67
-6 -2 -5 2.24 1.13
-6 -2 -5 0.35 0.78
-6 -2 -5 0.99 0.83
-6 -2 -6 25.88 3.09
-6 -2 -6 23.12 2.86
-6 -2 -6 21.07 2.75
-6 -2 -6 26.75 2.89
-6 -2 -7 4.58 1.16
-6 -2 -7 5.45 1.22
-6 -2 -7 3.88 1.14
-6 -2 -7 6.15 1.57
-6 -2 -7 5.89 1.38
-6 -2 -8 21.36 2.72
-6 -2 -8 28.75 2.87
-6 -2 -8 23.96 2.81
-6 -2 -8 27.02 3.15
-6 -2 -8 28.51 3.03
-6 -2 -9 10.16 1.76
6 2 9 9.65 1.77
-6 -2 -9 11.21 2.04
-6 -2 -9 11.36 1.98
-6 -2 -10 52.47 4.05
6 2 10 48.71 3.93
-6 -2 -10 53.2 4.36
-6 -2 -10 55.71 4.24
-6 -2 -11 132.94 6.9
-6 -2 -11 126.69 6.62
6 2 11 127.13 6.46
-6 -2 -11 120.69 6.83
-6 -2 -11 124.49 6.71
-6 -2 -12 110.84 6.03
6 2 12 120.39 6.26
-6 -2 -12 116.39 6.11
6 2 12 107.76 5.62
-6 -2 -12 104.38 5.99
-6 -2 -12 114.19 6.12
6 2 13 -0.45 0.82
-6 -2 -13 2.1 0.77
-6 -2 -13 0.18 0.61
-6 -2 -13 0.53 0.57
-6 -2 -13 1.23 0.75
-6 -2 -13 0.2 0.69
-6 -2 -14 142.67 6.26
6 2 14 156.56 6.64
-6 -2 -14 149.18 6.56
-6 -2 -14 158.5 6.68
-6 -2 -14 136.49 6.21
-6 -2 -15 249.79 8.61
-6 -2 -15 275.68 9.36
6 2 15 287.67 9.41
-6 -2 -15 276.86 9.42
6 2 16 3.33 0.68
-6 -2 -16 2.8 0.69
-6 -2 -16 2.88 0.71
-6 -2 -16 2.41 0.63
-6 -3 11 0.4 0.34
6 3 -10 27.83 1.93
-6 -3 10 27.51 1.97
6 3 -9 165.81 6.36
-6 -3 9 160.3 6.39
6 3 -8 31.54 2.49
-6 -3 8 27.93 2.45
-6 -3 7 7.1 1.4
6 3 -7 6.83 1.25
-6 -3 7 6.82 1.18
-6 -3 6 24.14 2.37
-6 -3 6 28.79 2.72
-6 -3 5 66.45 4.25
-6 -3 5 68.58 4.46
-6 -3 4 130.09 6.64
-6 -3 4 152.06 7.16
-6 -3 3 13.09 2.01
-6 -3 3 13.43 1.91
-6 -3 3 12.98 1.95
-6 -3 3 14.74 1.81
-6 -3 2 73.37 4.61
-6 -3 2 79.46 4.96
-6 -3 2 78.07 5.1
-6 -3 2 85.9 4.78
-6 -3 2 90.47 5.36
-6 -3 1 1.02 0.73
-6 -3 1 2.12 0.84
-6 -3 1 1.55 0.85
-6 -3 1 2.06 1.01
-6 -3 1 1.15 0.76
-6 -3 0 864.87 26.49
-6 -3 0 876.74 26.78
-6 -3 0 899.27 26.95
-6 -3 0 883.98 26.25
-6 -3 0 933.8 26.75
-6 -3 -1 46.37 3.61
-6 -3 -1 38.17 3.58
-6 -3 -1 44.8 3.89
-6 -3 -1 45.2 3.89
-6 -3 -1 41.12 3.42
-6 -3 -1 46.44 3.73
-6 -3 -2 2547.49 66.61
-6 -3 -2 2447.88 67.03
-6 -3 -2 2575.19 67.37
-6 -3 -2 2549.05 67.28
-6 -3 -2 2452.71 65.89
-6 -3 -2 2533.44 66.38
-6 -3 -2 2665.15 66.98
-6 -3 -3 -0.29 1.12
-6 -3 -3 1.98 0.91
-6 -3 -3 2.06 1.18
-6 -3 -3 2.59 1.17
-6 -3 -3 2.88 1.04
-6 -3 -3 0.73 1.01
-6 -3 -4 178.54 8.38
-6 -3 -4 182.94 8.85
-6 -3 -4 176.56 7.94
-6 -3 -4 182.14 8.86
-6 -3 -4 170.56 8.24
-6 -3 -4 195.49 8.71
-6 -3 -5 33.99 3.5
-6 -3 -5 33.79 3.33
-6 -3 -5 31.73 3.05
-6 -3 -5 32.36 3.4
-6 -3 -5 34.75 3.44
-6 -3 -5 38.92 3.56
-6 -3 -6 3.81 1.24
-6 -3 -6 3.86 1.25
-6 -3 -6 3.02 1.05
-6 -3 -6 3.07 1.16
-6 -3 -6 4.06 1.08
-6 -3 -6 4.15 1.21
-6 -3 -7 2.15 1.07
-6 -3 -7 1.35 0.73
-6 -3 -7 -1.88 0.86
-6 -3 -7 0.31 0.54
-6 -3 -7 1 0.76
-6 -3 -7 0.29 0.66
-6 -3 -7 -0.38 0.84
-6 -3 -8 0.68 0.67
-6 -3 -8 -0.01 0.77
-6 -3 -8 -0.18 0.7
-6 -3 -8 1.33 0.91
-6 -3 -8 -0.32 0.59
-6 -3 -8 0.84 0.65
-6 -3 -9 25.04 2.97
-6 -3 -9 23.83 2.8
-6 -3 -9 19.43 2.4
-6 -3 -9 16.81 2.23
6 3 9 25.18 2.74
-6 -3 -9 24.09 2.92
-6 -3 -9 17.36 2.45
-6 -3 -10 32.4 3.28
-6 -3 -10 31.21 3.25
-6 -3 -10 26.04 2.91
-6 -3 -10 26.57 3.08
-6 -3 -10 31.2 3.29
-6 -3 -11 31.48 3.23
-6 -3 -11 30.97 3.21
-6 -3 -11 35.23 3.34
-6 -3 -11 35.83 3.52
-6 -3 -11 33.43 3.26
6 3 12 5.01 1.36
-6 -3 -12 4.33 1.3
-6 -3 -12 4.39 1.27
-6 -3 -12 4.96 1.3
-6 -3 -12 2.49 1.1
-6 -3 -12 5.47 1.45
6 3 13 1.46 0.66
-6 -3 -13 2.02 0.89
-6 -3 -13 -0.28 0.5
-6 -3 -13 -0.2 0.78
-6 -3 -13 0.4 0.62
6 3 14 56.38 3.66
-6 -3 -14 57.58 3.53
-6 -3 -14 63.31 3.95
-6 -3 -14 62.06 3.92
6 3 15 1.31 0.6
-6 -3 -15 1.63 0.65
-6 -3 -15 1.26 0.67
-6 -3 -15 1.13 0.58
6 3 16 97.13 4
-6 -3 -16 92.59 4.04
-6 -3 -16 107.12 4.43
-6 -3 -16 92.98 4.15
-6 -4 10 15.39 1.33
6 4 -9 75.93 3.42
-6 -4 9 74.23 3.67
-6 -4 8 7.44 1.16
-6 -4 7 46.04 2.81
-6 -4 7 45.57 3.2
-6 -4 6 13.84 1.64
-6 -4 6 16.1 1.98
-6 -4 5 90.24 4.8
-6 -4 5 98.58 5.43
-6 -4 5 91.5 5.18
-6 -4 4 244.86 9.65
-6 -4 4 273.84 10.54
-6 -4 4 276.01 10.43
-6 -4 3 85.03 4.94
-6 -4 3 86.24 5
-6 -4 3 103.53 5.68
-6 -4 3 89.56 5.3
-6 -4 2 24.55 2.58
-6 -4 2 29.2 2.81
-6 -4 2 26.68 2.79
-6 -4 2 27.58 2.83
-6 -4 1 2.73 1.02
-6 -4 1 4.48 1.15
-6 -4 1 2.16 0.84
-6 -4 1 2.76 1.05
-6 -4 0 15.21 2.13
-6 -4 0 13.69 2.07
-6 -4 0 14.07 1.98
-6 -4 0 13.66 1.91
-6 -4 0 11.83 1.92
-6 -4 0 15.25 2.12
-6 -4 -1 74.75 4.76
-6 -4 -1 68.24 4.55
-6 -4 -1 63.25 4.61
-6 -4 -1 68.25 4.65
-6 -4 -1 74.12 4.88
-6 -4 -2 1.38 0.86
-6 -4 -2 1.42 0.8
-6 -4 -2 2.55 1.08
-6 -4 -2 1.54 0.8
-6 -4 -2 0.26 0.62
-6 -4 -3 108.04 6.18
-6 -4 -3 104.62 6.2
-6 -4 -3 110.19 6.38
-6 -4 -3 105.84 5.85
-6 -4 -3 112.3 6.25
-6 -4 -3 125.79 6.66
-6 -4 -4 108.96 6.28
-6 -4 -4 110.22 5.96
-6 -4 -4 104.04 6.24
-6 -4 -4 102.2 5.84
-6 -4 -4 111.85 6.27
-6 -4 -4 108.79 6.32
-6 -4 -5 25.44 2.85
-6 -4 -5 26.22 2.8
-6 -4 -5 24.76 2.88
-6 -4 -5 26.48 2.85
-6 -4 -5 26.72 3
-6 -4 -6 4.45 1.37
-6 -4 -6 2.08 1.01
-6 -4 -6 2.5 0.86
-6 -4 -6 1.08 0.98
-6 -4 -6 3.45 1.15
-6 -4 -6 2.64 1.14
-6 -4 -7 538.92 18.03
-6 -4 -7 514.69 17.53
-6 -4 -7 531.89 17.04
-6 -4 -7 460.32 17.01
-6 -4 -7 482.49 17.34
-6 -4 -7 550.5 18.31
-6 -4 -8 4.97 1.47
-6 -4 -8 6.24 1.58
-6 -4 -8 5.3 1.35
-6 -4 -8 6.57 1.54
-6 -4 -8 3.74 1.18
-6 -4 -8 4.6 1.44
-6 -4 -9 110.47 6.39
-6 -4 -9 104.14 6.18
-6 -4 -9 107.04 6.04
-6 -4 -9 95.44 5.6
-6 -4 -9 101.32 6.19
-6 -4 -9 93.71 6.08
-6 -4 -10 74.54 5.08
-6 -4 -10 78.7 5.26
-6 -4 -10 72.73 4.94
-6 -4 -10 70.56 5.07
-6 -4 -10 74.68 5.22
-6 -4 -11 0.71 0.71
-6 -4 -11 -0.23 0.65
-6 -4 -11 1.62 0.93
-6 -4 -11 0.25 0.59
-6 -4 -12 29.72 2.84
6 4 12 25.3 2.57
-6 -4 -12 37.65 3.35
-6 -4 -12 32.73 3.05
-6 -4 -12 32.73 3
-6 -4 -12 24.43 2.7
-6 -4 -13 48.16 3.37
-6 -4 -13 55.72 3.86
-6 -4 -13 60.49 3.97
-6 -4 -13 51.13 3.65
-6 -4 -13 47.07 3.58
6 4 13 45.38 3.27
-6 -4 -14 80.84 4.39
-6 -4 -14 88.59 4.61
-6 -4 -14 84.45 4.49
6 4 15 1.85 0.54
-6 -4 -15 2.68 0.72
-6 -4 -15 1.86 0.62
-6 -4 -16 8.74 0.95
-6 -4 -16 9.61 1.08
6 4 16 10.88 1.09
-6 -5 9 6.15 0.78
-6 -5 8 15.09 1.31
-6 -5 8 16.74 1.52
-6 -5 7 5.34 0.97
-6 -5 7 5.91 0.94
-6 -5 6 22.38 2.01
-6 -5 6 21.41 2.13
-6 -5 6 19.62 1.98
-6 -5 5 3.5 0.97
-6 -5 5 3.52 0.96
-6 -5 5 3.06 0.81
-6 -5 4 3.28 1.01
-6 -5 4 4.65 1.18
-6 -5 4 4.22 1.1
-6 -5 3 138.22 6.39
-6 -5 3 139.16 6.62
-6 -5 3 150.57 6.99
-6 -5 3 149.35 6.9
-6 -5 2 264.5 10.31
-6 -5 2 277.02 10.62
-6 -5 2 293.88 10.93
-6 -5 2 278.44 10.7
-6 -5 1 0.29 0.54
-6 -5 1 1.32 0.82
-6 -5 1 1.41 0.74
-6 -5 1 0.62 0.49
-6 -5 1 -0.01 0.81
-6 -5 1 0.79 0.72
-6 -5 0 77.69 4.75
-6 -5 0 76.69 4.88
-6 -5 0 76.24 4.45
-6 -5 0 85.25 5.14
-6 -5 0 81 4.95
-6 -5 0 81.17 5.06
-6 -5 -1 250.21 10.06
-6 -5 -1 229.5 9.99
-6 -5 -1 266.4 10.44
-6 -5 -1 256.09 10.1
-6 -5 -1 263.64 10.45
-6 -5 -2 2.59 0.93
-6 -5 -2 1.61 0.72
-6 -5 -2 1.73 0.73
-6 -5 -2 1.3 0.79
-6 -5 -2 1.98 1.07
-6 -5 -3 15.44 2.27
-6 -5 -3 15.03 2.14
-6 -5 -3 17.12 2.1
-6 -5 -3 13.39 2.07
-6 -5 -3 17.66 2.36
-6 -5 -4 123.91 6.61
-6 -5 -4 121.67 6.3
-6 -5 -4 116.26 6.54
-6 -5 -4 125.32 6.7
-6 -5 -4 121.93 6.72
-6 -5 -5 39.58 3.55
-6 -5 -5 43.73 3.61
-6 -5 -5 45.21 3.79
-6 -5 -5 37.31 3.54
-6 -5 -6 125.07 6.73
-6 -5 -6 117.17 6.37
-6 -5 -6 123.79 6.66
-6 -5 -6 123.23 6.79
-6 -5 -7 17.03 2.35
-6 -5 -7 17.1 2.33
-6 -5 -7 15.31 2.05
-6 -5 -7 14.26 2.12
-6 -5 -7 15.42 1.96
-6 -5 -7 15.38 2.24
-6 -5 -8 93.05 5.66
-6 -5 -8 102.63 5.86
-6 -5 -8 98.33 5.49
-6 -5 -8 83.48 5.22
-6 -5 -8 91.81 5.16
-6 -5 -8 84.37 5.45
-6 -5 -9 29.52 2.98
-6 -5 -9 31.81 3.11
-6 -5 -9 29.4 2.82
-6 -5 -9 30.64 2.95
-6 -5 -9 24.62 2.56
-6 -5 -9 25.54 2.8
-6 -5 -10 22.2 2.48
-6 -5 -10 20.4 2.44
-6 -5 -10 22.31 2.48
-6 -5 -10 21.01 2.37
-6 -5 -10 20.98 2.43
6 5 11 0.65 0.57
-6 -5 -11 -0.14 0.5
-6 -5 -11 -0.19 0.66
-6 -5 -11 -0.19 0.7
-6 -5 -11 0.15 0.51
-6 -5 -12 497.39 15.86
-6 -5 -12 559.85 16.74
-6 -5 -12 578.26 16.83
-6 -5 -12 523.15 16.24
-6 -5 -12 455.51 15.56
-6 -5 -13 175.04 6.75
-6 -5 -13 193.95 7.54
-6 -5 -13 189.06 7.56
-6 -5 -13 184.66 7.37
-6 -5 -14 131.61 5.28
-6 -5 -14 134.44 5.4
-6 -5 -15 -0.08 0.37
6 5 15 -0.06 0.28
-6 -6 7 82.4 3.46
-6 -6 6 1.18 0.44
-6 -6 6 0.35 0.4
-6 -6 6 1.97 0.57
-6 -6 5 14.45 1.56
-6 -6 5 15 1.64
-6 -6 5 11.76 1.28
-6 -6 4 1.45 0.66
-6 -6 4 2.05 0.78
-6 -6 4 2.65 0.81
-6 -6 3 84.23 4.2
-6 -6 3 85.33 4.6
-6 -6 3 90.47 4.73
-6 -6 3 83.95 4.34
-6 -6 2 82.98 4.53
-6 -6 2 92.54 4.95
-6 -6 2 95.72 4.97
-6 -6 2 89.69 4.67
-6 -6 1 279.4 9.88
-6 -6 1 269.5 10.04
-6 -6 1 259.34 9.73
-6 -6 1 286.91 10.45
-6 -6 1 274.21 10.08
-6 -6 1 273.54 9.93
-6 -6 0 -0.53 0.72
-6 -6 0 0.49 0.63
-6 -6 0 0.07 0.53
-6 -6 0 1.24 0.61
-6 -6 0 0.14 0.66
-6 -6 0 1.12 0.8
-6 -6 -1 59.29 3.94
-6 -6 -1 54.81 3.93
-6 -6 -1 51.95 3.49
-6 -6 -1 58.64 4.05
-6 -6 -1 58.88 3.77
-6 -6 -1 55.93 3.77
-6 -6 -2 106.34 5.62
-6 -6 -2 101.02 5.19
-6 -6 -2 106.41 5.76
-6 -6 -2 97.13 4.97
-6 -6 -2 100.85 5.64
-6 -6 -2 99.95 5.34
-6 -6 -3 355.84 12.79
-6 -6 -3 373.99 12.6
-6 -6 -3 350.71 12.99
-6 -6 -3 362.31 13.06
-6 -6 -4 2.04 0.94
-6 -6 -4 1.69 0.74
-6 -6 -4 1.12 0.76
-6 -6 -4 1.66 1.29
-6 -6 -5 96.42 5.5
-6 -6 -5 98.44 5.41
-6 -6 -5 95.78 5.58
-6 -6 -6 15.8 2.06
-6 -6 -6 18.28 2.26
-6 -6 -6 14.78 2.07
-6 -6 -7 19.11 2.27
-6 -6 -7 21.01 2.36
-6 -6 -7 23.39 2.47
-6 -6 -8 26.35 2.61
-6 -6 -8 33.69 2.96
-6 -6 -8 28.2 2.67
-6 -6 -8 27.18 2.36
-6 -6 -9 129.57 6.18
-6 -6 -9 139.91 6.49
-6 -6 -9 125.03 5.87
-6 -6 -9 121.28 5.67
-6 -6 -10 12.55 1.65
-6 -6 -10 8.15 1.41
-6 -6 -10 11.83 1.53
-6 -6 -11 72.9 3.93
-6 -6 -11 71.02 3.96
-6 -6 -12 8.65 1.11
-6 -6 -12 9.57 1.32
-6 -6 -12 8.53 1.18
-6 -6 -13 2.67 0.68
-6 -6 -13 3.95 0.81
-6 -6 -14 20 1.5
-6 -7 5 61.16 2.84
-6 -7 4 5.44 0.89
-6 -7 3 62.44 3.31
-6 -7 3 59.37 3.15
-6 -7 2 23.6 1.82
-6 -7 2 26.36 2.16
-6 -7 2 27 2.05
-6 -7 1 -0.07 0.43
-6 -7 1 0.12 0.35
-6 -7 1 0.42 0.36
-6 -7 1 0.02 0.5
-6 -7 0 4.9 0.91
-6 -7 0 5.3 0.96
-6 -7 0 7.05 1.12
-6 -7 0 6.03 1.19
-6 -7 -1 0.71 0.58
-6 -7 -1 0.55 0.5
-6 -7 -1 0.05 0.48
-6 -7 -1 0.49 0.55
-6 -7 -2 17.09 1.85
-6 -7 -2 21.98 1.96
-6 -7 -2 17.75 1.98
-6 -7 -2 15.99 1.66
-6 -7 -2 18.37 2.08
-6 -7 -3 237.51 8.88
-6 -7 -3 242.54 8.7
-6 -7 -3 245.59 9.06
-6 -7 -3 220.71 8.12
-6 -7 -3 252.67 9.26
-6 -7 -4 57.11 3.64
-6 -7 -4 60.36 3.63
-6 -7 -4 57.76 3.71
-6 -7 -4 56.69 3.16
-6 -7 -5 16.91 1.91
-6 -7 -5 13.61 1.67
-6 -7 -5 15.16 1.83
-6 -7 -6 3.47 0.98
-6 -7 -6 4.3 0.99
-6 -7 -6 4.37 1
-6 -7 -7 48 3.21
-6 -7 -7 53.2 3.38
-6 -7 -7 47.65 3.18
-6 -7 -8 59.11 3.49
-6 -7 -8 65.46 3.73
-6 -7 -8 56.28 3.33
-6 -7 -9 5.46 0.95
-6 -7 -9 4.38 0.93
-6 -7 -9 4.51 0.82
-6 -7 -9 4.49 0.8
-6 -7 -10 51.56 2.82
-6 -7 -10 60.24 3.25
-6 -7 -10 54.89 2.79
-6 -7 -11 1.25 0.56
-6 -7 -11 1.14 0.42
-6 -8 -2 9.45 1.11
-6 -8 -2 7.85 0.96
-6 -8 -3 1.58 0.51
-6 -8 -3 1.29 0.48
-6 -8 -3 0.61 0.39
-6 -8 -4 39.02 2.39
-6 -8 -4 39.91 2.3
-6 -8 -5 219 7.41
-6 -8 -5 225.77 7.37
-6 -8 -6 4.51 0.76
-6 -8 -6 3.31 0.71
-6 -8 -7 11.29 1.12
-6 -8 -7 13.97 1.29
-6 -8 -8 181.83 6.04
7 -3 1 46.23 2.18
7 -3 2 5.04 0.65
-7 2 4 43.23 2.1
7 -2 -4 41.98 2.09
-7 2 3 133.47 4.75
7 -2 -3 124.49 4.57
7 -2 -3 120.94 4.55
7 -2 -3 129.13 4.74
-7 2 2 304.88 9.39
7 -2 -2 313.88 9.6
7 -2 -2 303.65 9.54
-7 2 1 4.07 0.81
7 -2 -1 4.27 0.8
7 -2 -1 5.18 0.87
-7 2 0 500.04 14.65
7 -2 0 513.47 14.79
7 -2 0 498.15 14.68
-7 2 -1 20.16 1.76
7 -2 1 21.66 1.88
7 -2 1 17.84 1.72
-7 2 -1 19.49 1.56
7 -2 2 113.48 4.96
7 -2 2 111.3 4.81
7 -2 2 103.91 4.74
-7 2 -2 96.18 4.26
-7 2 -2 98.12 4.42
-7 2 -3 0.08 0.36
7 -2 3 0.88 0.52
7 -2 3 0.75 0.43
7 -2 3 0.7 0.51
-7 2 -3 0.14 0.32
7 -2 4 90.23 4.25
-7 2 -4 76.05 3.54
7 -2 4 80.48 3.84
7 -2 4 78.82 3.88
-7 2 -4 81 3.85
-7 2 -5 19.83 1.51
7 -2 5 25.73 2.06
7 -2 5 20.62 1.52
7 -2 5 23.04 1.78
7 -2 5 21.65 1.72
-7 2 -5 20.76 1.77
7 -2 6 5.42 0.94
7 -2 6 5.42 0.78
7 -2 6 5.35 0.84
-7 2 -6 5.77 0.93
-7 2 -7 0.01 0.31
7 -2 7 0.04 0.35
7 -2 7 0.9 0.39
-7 2 -7 0.48 0.36
7 -2 8 43 2.43
7 -2 8 39.29 2.09
-7 2 -8 40.86 2.28
7 -2 9 101.85 3.79
7 -2 9 89.94 3.39
-7 2 -9 92.53 3.54
7 -1 -6 37.14 1.96
7 -1 -6 34.65 1.91
-7 1 6 35.89 1.86
-7 1 5 128.44 4.62
7 -1 -5 136.65 4.87
7 -1 -5 124.7 4.68
-7 1 5 123.79 4.54
7 -1 -5 115.89 4.36
7 -1 -4 77.65 3.65
7 -1 -4 76.12 3.52
-7 1 4 71.06 3.3
7 -1 -4 70.14 3.17
-7 1 3 22.59 1.92
-7 1 3 18.76 1.64
7 -1 -3 21.61 1.88
7 -1 -3 19.2 1.71
-7 1 3 18.11 1.54
-7 1 2 30.97 2.4
-7 1 2 28.2 2.23
7 -1 -2 32.68 2.46
7 -1 -2 26.59 2.15
-7 1 2 26.81 1.98
-7 1 1 388.1 12.22
7 -1 -1 394.44 12.35
7 -1 -1 370.66 11.94
-7 1 0 7.12 1.22
7 -1 0 8.08 1.35
-7 1 0 6.74 1.02
7 -1 0 7.51 1.31
-7 1 -1 127.56 5.75
7 -1 1 132.36 6.08
7 -1 1 109.13 4.92
7 -1 1 117.88 5.52
-7 1 -1 114.41 5.07
-7 1 -2 0.9 0.65
7 -1 2 0.5 0.54
7 -1 2 -0.35 0.61
7 -1 2 0.63 0.46
-7 1 -2 0.3 0.43
-7 1 -3 74.34 4.19
7 -1 3 80.85 4.56
7 -1 3 71.47 3.96
7 -1 3 76.15 4.09
-7 1 -3 69.39 3.99
-7 1 -4 17.58 1.87
7 -1 4 19.85 2.13
7 -1 4 16.09 1.78
7 -1 4 17.56 1.79
-7 1 -4 17.92 1.91
-7 1 -5 166.38 6.82
7 -1 5 195.92 7.68
7 -1 5 175.44 7.1
7 -1 5 178.31 6.76
-7 1 -5 177.69 7.18
-7 1 -6 1.09 0.43
7 -1 6 1.7 0.7
7 -1 6 2.15 0.7
7 -1 6 2.97 0.75
-7 1 -6 1.64 0.71
7 -1 7 93.75 4.7
-7 1 -7 83.62 4.24
7 -1 7 84.56 4.35
-7 1 -7 93.45 4.58
7 -1 8 60.69 3.53
-7 1 -8 57.36 3.14
7 -1 8 65.92 3.57
-7 1 -8 62.44 3.49
7 -1 9 4.46 0.89
7 -1 9 5.95 1
-7 1 -9 4.36 0.87
-7 1 -10 0.37 0.33
7 -1 10 0.57 0.38
7 -1 10 0.35 0.37
-7 1 -10 0.05 0.3
-7 1 -11 1.37 0.36
7 -1 11 1.31 0.42
7 -1 11 1.77 0.5
-7 1 -11 1.31 0.45
-7 1 -12 30.18 1.67
7 -1 12 36.63 1.83
7 0 -8 21.25 1.32
-7 0 8 20.22 1.27
-7 0 7 65.68 2.94
7 0 -7 66.56 2.94
7 0 -6 48.73 2.37
-7 0 6 57.07 2.88
7 0 -6 50.91 2.7
-7 0 5 53.66 2.83
-7 0 5 54.73 3.02
7 0 -5 48.48 2.84
-7 0 4 52.52 3.13
7 0 -4 48.8 2.98
-7 0 3 9.09 1.33
-7 0 3 9.92 1.37
-7 0 3 7.07 1.15
7 0 -3 6.86 1.13
-7 0 2 101.69 5.08
-7 0 2 104.82 5.18
-7 0 2 88.69 4.63
7 0 -2 99.69 4.87
-7 0 1 229.92 8.83
-7 0 1 221.94 8.84
-7 0 1 205.88 8.17
7 0 -1 232.11 8.59
-7 0 0 137.48 6.38
7 0 0 140.09 6.65
7 0 0 130.05 5.99
-7 0 0 117.95 5.68
-7 0 -1 50.24 3.59
7 0 1 47.93 3.64
7 0 1 49.01 3.29
-7 0 -1 41.75 3.03
-7 0 -1 41.12 2.96
-7 0 -2 0.24 0.68
7 0 2 0.5 0.74
-7 0 -2 0.11 0.55
7 0 2 -0.15 0.51
-7 0 -2 0.53 0.47
7 0 3 24.91 2.59
-7 0 -3 22.72 2.38
-7 0 -3 21.68 2.29
-7 0 -4 3.26 0.99
7 0 4 3.27 1.03
7 0 4 5.95 1.46
-7 0 -4 2.29 0.82
-7 0 -5 7.84 1.41
7 0 5 7.95 1.52
7 0 5 6.63 1.31
-7 0 -5 8.61 1.45
7 0 6 79.46 4.67
-7 0 -6 78.44 4.57
7 0 6 73.64 4.44
-7 0 -6 77.29 4.55
-7 0 -6 69.3 4.18
-7 0 -7 8.55 1.35
-7 0 -7 6.62 1.23
7 0 7 7.08 1.3
7 0 7 4.97 1.1
-7 0 -7 7.28 1.33
-7 0 -8 140.31 6
7 0 8 146.81 5.92
7 0 8 153.42 6.57
-7 0 -8 145.43 6.3
7 0 8 159.45 6.77
-7 0 -8 158.08 6.75
7 0 9 49.12 2.89
7 0 9 50.49 3.26
-7 0 -9 47.42 2.81
-7 0 -9 49.26 2.96
7 0 9 61.15 3.64
-7 0 -9 53.74 3.44
7 0 10 589.92 16.72
7 0 10 586.81 17.17
-7 0 -10 572.17 16.75
-7 0 -10 605.41 17.61
7 0 11 68.87 3.29
-7 0 -11 70.14 3.35
7 0 11 81.11 3.87
-7 0 -11 74.51 3.7
7 0 11 71.23 3.21
7 0 12 132.96 4.66
-7 0 -12 146.55 5.36
-7 0 -12 135.71 5.02
7 0 12 150.23 5.4
-7 0 -12 144.52 5.21
-7 0 -13 51.55 2.45
-7 0 -13 46.51 2.36
-7 0 -13 53.3 2.37
7 0 13 50.48 2.4
-7 -1 8 4.46 0.65
7 1 -8 4.58 0.67
-7 -1 7 39.22 2.3
7 1 -7 37.22 2.21
-7 -1 6 64.16 3.33
7 1 -6 60.24 3.17
-7 -1 5 1.11 0.62
7 1 -5 1.18 0.58
-7 -1 4 1.43 0.51
-7 -1 4 0.93 0.54
-7 -1 4 0.21 0.4
7 1 -4 0.77 0.53
-7 -1 3 343.69 11.38
-7 -1 3 348.79 11.32
-7 -1 3 332.58 11.32
7 1 -3 336.85 11.04
-7 -1 3 305.85 10.46
-7 -1 2 24.85 2.43
-7 -1 2 27.25 2.57
-7 -1 2 23.11 2.28
7 1 -2 27.27 2.34
-7 -1 2 27.48 2.24
-7 -1 1 0.45 0.48
-7 -1 1 1.08 0.79
-7 -1 1 1.4 0.76
-7 -1 1 0.6 0.48
-7 -1 0 92.71 5.27
-7 -1 0 99.99 5.61
-7 -1 0 83.08 4.79
-7 -1 0 85.73 4.69
-7 -1 -1 455.86 15.32
-7 -1 -1 427.11 14.64
-7 -1 -1 449.71 14.59
-7 -1 -2 38.4 3.3
-7 -1 -2 45.33 3.74
7 1 2 45.55 3.52
-7 -1 -2 37.59 3.04
-7 -1 -2 40.62 3.14
-7 -1 -2 35.1 2.89
-7 -1 -3 161.16 6.96
-7 -1 -3 169.1 7.75
-7 -1 -3 188.42 8.39
7 1 3 165.23 7.49
-7 -1 -3 170.8 7.52
-7 -1 -3 162.29 7.09
-7 -1 -4 120.85 6.32
-7 -1 -4 123.91 5.94
-7 -1 -4 132.69 6.79
7 1 4 125.62 6.23
-7 -1 -4 127.26 6.34
-7 -1 -4 112.23 5.7
-7 -1 -5 29.18 2.84
-7 -1 -5 27.01 2.58
-7 -1 -5 28.8 2.96
7 1 5 26.73 2.67
-7 -1 -5 27.68 2.75
-7 -1 -5 29.35 2.58
-7 -1 -6 66.79 4.35
7 1 6 64.11 4.14
-7 -1 -6 73.78 4.68
-7 -1 -6 65.59 4.36
-7 -1 -6 63.93 3.99
-7 -1 -7 1.89 0.73
-7 -1 -7 2.08 0.81
7 1 7 3.55 0.96
7 1 7 3.32 0.98
-7 -1 -7 2.95 0.85
-7 -1 -7 1.59 0.75
-7 -1 -8 8.49 1.38
-7 -1 -8 8.2 1.4
7 1 8 11.21 1.51
7 1 8 12.87 1.77
-7 -1 -8 12.32 1.81
-7 -1 -8 12.24 1.64
-7 -1 -9 12.16 1.49
-7 -1 -9 10.1 1.41
7 1 9 14.36 1.82
-7 -1 -9 12.73 1.76
-7 -1 -9 11.94 1.55
7 1 10 17.09 1.84
-7 -1 -10 15.13 1.81
-7 -1 -10 16.11 1.67
7 1 10 14.52 1.75
-7 -1 -10 15.21 1.86
-7 -1 -10 14.18 1.62
7 1 11 0.47 0.55
-7 -1 -11 -0.03 0.42
-7 -1 -11 1.47 0.57
7 1 11 0.97 0.56
-7 -1 -11 1.5 0.65
-7 -1 -11 0.97 0.53
-7 -1 -12 49.46 2.96
7 1 12 49.92 2.88
-7 -1 -12 49.33 2.95
-7 -1 -12 46.05 2.75
7 1 12 46.75 2.82
-7 -1 -12 47.49 2.92
7 1 13 0.57 0.39
-7 -1 -13 1.13 0.46
-7 -1 -13 0.95 0.48
-7 -1 -13 0.65 0.37
7 1 13 1.24 0.51
-7 -1 -13 0.83 0.44
7 1 14 1.35 0.42
-7 -1 -14 1.56 0.41
-7 -1 -14 1.26 0.47
-7 -1 -14 1.73 0.45
-7 -2 8 5.53 0.68
-7 -2 8 6.89 0.77
-7 -2 7 1.08 0.46
-7 -2 7 1.7 0.54
7 2 -7 1.68 0.56
-7 -2 6 34.37 2.37
7 2 -6 38.85 2.38
-7 -2 6 33.72 2.26
-7 -2 5 136.59 5.76
7 2 -5 140.07 5.49
-7 -2 5 128.12 5.47
-7 -2 4 6.85 1.12
-7 -2 4 7.8 1.28
-7 -2 3 0.35 0.45
-7 -2 3 1.15 0.61
-7 -2 3 0.52 0.51
-7 -2 3 1.5 0.76
-7 -2 2 62.01 3.91
-7 -2 2 55.64 3.79
-7 -2 2 59.92 3.88
-7 -2 2 60.42 3.81
-7 -2 1 21.77 2.35
-7 -2 1 21.37 2.4
-7 -2 1 22.33 2.35
-7 -2 1 21.56 2.28
-7 -2 0 20.49 2.35
-7 -2 0 19.72 2.38
-7 -2 0 18.57 2.19
-7 -2 0 20.87 2.28
-7 -2 -1 52.76 3.99
-7 -2 -1 54.8 4.21
-7 -2 -1 51.17 3.72
-7 -2 -1 49.95 3.66
-7 -2 -2 211.36 9.14
-7 -2 -2 224.83 9.66
7 2 2 195.63 8.27
-7 -2 -2 217.18 8.52
-7 -2 -2 206.44 8.64
-7 -2 -3 8.38 1.65
-7 -2 -3 5.58 1.33
-7 -2 -3 5.24 1.46
7 2 3 5.57 1.23
-7 -2 -3 4.27 1.07
-7 -2 -3 5.44 1.29
-7 -2 -4 3.29 1.01
-7 -2 -4 1.41 0.69
-7 -2 -4 2.97 1.08
-7 -2 -4 2.69 0.95
-7 -2 -4 2.98 1.05
-7 -2 -5 95.68 5.65
-7 -2 -5 93.14 5.33
-7 -2 -5 99.64 5.98
-7 -2 -5 97.46 5.59
-7 -2 -5 95.26 5.4
-7 -2 -6 434.89 14.54
-7 -2 -6 419.64 14.65
-7 -2 -6 411.74 13.57
-7 -2 -6 440.36 15.07
-7 -2 -6 415.67 14.65
-7 -2 -6 399.61 14.16
-7 -2 -7 0.95 0.67
-7 -2 -7 0.93 0.72
-7 -2 -7 0.74 0.51
-7 -2 -7 1.62 0.93
-7 -2 -7 0.42 0.82
-7 -2 -7 0.1 0.57
-7 -2 -8 153.45 7.28
-7 -2 -8 168.56 7.48
-7 -2 -8 161.07 6.99
-7 -2 -8 150.55 7.04
7 2 8 162.93 7.3
-7 -2 -8 163.19 7.63
-7 -2 -8 154.41 7.15
-7 -2 -9 76.72 4.61
-7 -2 -9 69.08 4.17
-7 -2 -9 69.78 3.93
-7 -2 -9 62.41 3.9
7 2 9 70.17 4.28
-7 -2 -9 77.63 4.77
-7 -2 -9 71 4.34
-7 -2 -10 2.92 0.94
-7 -2 -10 2.15 0.73
7 2 10 0.97 0.6
-7 -2 -10 1.17 0.75
-7 -2 -10 1.65 0.65
7 2 11 4.09 0.98
-7 -2 -11 4.44 0.99
-7 -2 -11 4.66 1.08
-7 -2 -11 4.89 0.98
7 2 11 3.54 0.82
-7 -2 -11 3.26 0.92
-7 -2 -11 4.36 1.02
-7 -2 -12 16.71 1.78
7 2 12 16.2 1.74
-7 -2 -12 18.46 1.85
-7 -2 -12 17.74 1.74
7 2 12 16.62 1.59
-7 -2 -12 17.31 1.84
-7 -2 -12 17.24 1.8
7 2 13 1.93 0.6
-7 -2 -13 1.72 0.56
-7 -2 -13 1.52 0.6
-7 -2 -13 1.82 0.62
-7 -2 -13 3.04 0.77
-7 -2 -14 16.54 1.38
7 2 14 18.79 1.5
-7 -2 -14 18.09 1.49
-7 -2 -14 15.64 1.36
7 2 15 29.52 1.6
-7 -2 -15 29.96 1.66
-7 -2 -15 29.62 1.61
-7 -2 -15 25.62 1.55
-7 -3 8 35.71 1.95
-7 -3 7 19.77 1.59
-7 -3 6 0.54 0.38
-7 -3 5 16.76 1.7
-7 -3 5 18.3 1.81
-7 -3 4 33.32 2.62
-7 -3 4 36.21 2.73
-7 -3 3 58.32 3.54
-7 -3 3 56.29 3.66
-7 -3 3 60.01 3.76
-7 -3 2 57.31 3.57
-7 -3 2 56.59 3.76
-7 -3 2 59.91 3.9
-7 -3 2 63.16 3.97
-7 -3 1 22.82 2.32
-7 -3 1 25.12 2.53
-7 -3 1 24.7 2.5
-7 -3 1 23.09 2.43
-7 -3 0 53.87 3.87
-7 -3 0 60.44 4.16
-7 -3 0 56.04 3.9
-7 -3 -1 0.45 0.82
-7 -3 -1 1.19 0.96
-7 -3 -1 -0.48 0.84
-7 -3 -2 118.76 5.81
-7 -3 -2 117.47 6.36
-7 -3 -2 123.5 6.54
-7 -3 -2 115.06 6.02
-7 -3 -3 36.54 3.08
-7 -3 -3 34.63 3.23
-7 -3 -3 32.61 3.23
-7 -3 -3 35.35 2.96
-7 -3 -3 36.17 3.13
-7 -3 -4 0.7 0.62
-7 -3 -4 0.28 0.49
-7 -3 -4 -0.27 0.76
-7 -3 -4 0.04 0.52
-7 -3 -4 -0.26 0.62
-7 -3 -5 14.95 2.11
-7 -3 -5 11.11 1.89
-7 -3 -5 15.26 2.18
-7 -3 -5 14.47 2.03
-7 -3 -5 14.52 2.04
-7 -3 -6 102.25 5.76
-7 -3 -6 98.39 5.84
-7 -3 -6 103.05 5.27
-7 -3 -6 100.23 5.83
-7 -3 -6 94.4 5.59
-7 -3 -6 95.11 5.54
-7 -3 -7 446.06 14.83
-7 -3 -7 406.92 13.86
-7 -3 -7 425.82 14.73
-7 -3 -7 426.72 14.46
-7 -3 -8 19 2.36
-7 -3 -8 20.25 2.26
-7 -3 -8 16.08 2.07
7 3 8 19.49 2.2
-7 -3 -8 19.97 2.43
-7 -3 -8 19.15 2.26
-7 -3 -9 71.24 4.61
-7 -3 -9 65.14 4.17
-7 -3 -9 62.65 3.82
-7 -3 -9 58.11 3.83
7 3 9 61.79 3.89
-7 -3 -9 74 4.67
-7 -3 -9 68.03 4.39
-7 -3 -10 1.89 0.89
-7 -3 -10 3.88 1
-7 -3 -10 2.1 0.77
7 3 10 0.63 0.48
-7 -3 -10 1.16 0.72
-7 -3 -10 2.04 0.83
-7 -3 -11 66 4.05
-7 -3 -11 59.24 3.79
-7 -3 -11 58.94 3.57
-7 -3 -11 62.09 3.98
-7 -3 -11 59.97 3.87
7 3 12 12.48 1.56
-7 -3 -12 10.78 1.47
-7 -3 -12 10.2 1.47
-7 -3 -12 10.31 1.37
-7 -3 -12 10.35 1.5
-7 -3 -12 11.22 1.53
-7 -3 -13 19.65 1.79
7 3 13 20 1.8
-7 -3 -13 23.94 1.99
-7 -3 -13 21.63 1.82
-7 -3 -13 21.01 1.91
7 3 14 3.06 0.65
-7 -3 -14 4 0.73
-7 -3 -14 3.95 0.74
-7 -3 -14 4.09 0.77
-7 -3 -14 4.18 0.77
7 3 15 4.63 0.61
-7 -3 -15 5.12 0.67
-7 -3 -15 4.85 0.65
-7 -3 -15 4.56 0.64
-7 -4 8 30.93 1.65
-7 -4 7 -0.32 0.36
-7 -4 6 134.89 5.28
-7 -4 5 43.35 2.78
-7 -4 4 85.62 4.36
-7 -4 3 12.86 1.5
-7 -4 3 11.86 1.4
-7 -4 3 13.6 1.7
-7 -4 2 11 1.59
-7 -4 2 9.54 1.43
-7 -4 2 10.53 1.42
-7 -4 1 -0.27 0.54
-7 -4 1 0.25 0.4
-7 -4 1 0.03 0.66
-7 -4 0 7.04 1.32
-7 -4 0 7.11 1.43
-7 -4 0 9.92 1.58
-7 -4 -1 81.49 4.99
-7 -4 -1 86.13 4.84
-7 -4 -1 84.73 4.88
-7 -4 -2 367.62 12.64
-7 -4 -2 361.66 13.21
-7 -4 -2 377.1 12.95
-7 -4 -3 0.95 0.61
-7 -4 -3 1.87 1.04
-7 -4 -3 1.5 0.83
-7 -4 -4 2.04 0.91
-7 -4 -4 2.52 1.09
-7 -4 -4 2.62 0.97
-7 -4 -4 0.66 0.65
-7 -4 -5 142.58 6.92
-7 -4 -5 136.08 6.15
-7 -4 -5 139.77 7.08
-7 -4 -5 126.01 6.44
-7 -4 -5 142.39 6.85
-7 -4 -6 3.2 1.05
-7 -4 -6 2.25 0.81
-7 -4 -6 2.87 1.01
-7 -4 -6 3.89 1.15
-7 -4 -6 2.73 0.93
-7 -4 -7 105.89 5.85
-7 -4 -7 104.92 5.45
-7 -4 -7 96.61 5.61
-7 -4 -7 106.21 5.8
-7 -4 -7 104.67 5.71
-7 -4 -8 131.12 6.54
-7 -4 -8 123.25 6.04
-7 -4 -8 110.91 5.91
-7 -4 -8 116.26 5.52
-7 -4 -8 122.51 6.36
-7 -4 -8 125.1 6.28
-7 -4 -9 29.69 2.83
-7 -4 -9 30.03 2.71
-7 -4 -9 29.17 2.45
-7 -4 -9 28.29 2.57
-7 -4 -9 27.5 2.44
-7 -4 -9 30.62 2.9
-7 -4 -9 28.51 2.73
-7 -4 -10 46.11 3.48
-7 -4 -10 49.19 3.49
-7 -4 -10 47.08 3.15
-7 -4 -10 42.33 3.11
-7 -4 -10 51.04 3.58
-7 -4 -11 134.1 6.13
7 4 11 123.21 5.72
-7 -4 -11 139.47 6.17
-7 -4 -11 128.49 5.66
-7 -4 -11 126.8 5.67
-7 -4 -11 143.24 6.22
-7 -4 -12 28.04 2.29
7 4 12 28.45 2.25
-7 -4 -12 33.34 2.53
-7 -4 -12 30.77 2.32
-7 -4 -12 27.78 2.21
-7 -4 -12 32.08 2.48
-7 -4 -13 13.23 1.36
7 4 13 13.71 1.35
-7 -4 -13 14.62 1.52
-7 -4 -13 15.74 1.49
-7 -4 -13 12.77 1.35
-7 -4 -13 13.87 1.48
7 4 14 -0.48 0.26
-7 -4 -14 0.25 0.34
-7 -4 -14 0.15 0.33
-7 -4 -14 -0.22 0.3
-7 -5 6 0.39 0.34
-7 -5 5 57.13 2.7
-7 -5 5 64.73 3.11
-7 -5 4 23.81 1.79
-7 -5 4 24.61 1.96
-7 -5 3 120.75 5.12
-7 -5 3 125.64 5.32
-7 -5 2 4.82 0.99
-7 -5 2 6.75 1.08
-7 -5 1 10.4 1.47
-7 -5 1 11.68 1.57
-7 -5 1 12.12 1.55
-7 -5 0 2.27 0.74
-7 -5 0 2.1 0.81
-7 -5 0 1.48 0.75
-7 -5 -1 11.92 1.61
-7 -5 -1 12.8 1.57
-7 -5 -1 12.38 1.77
-7 -5 -1 10.61 1.63
-7 -5 -2 92.8 4.88
-7 -5 -2 88.75 5.14
-7 -5 -2 90.55 5.04
-7 -5 -2 92.04 4.95
-7 -5 -3 2.72 0.85
-7 -5 -3 2.97 1.02
-7 -5 -3 2.16 0.85
-7 -5 -4 3.39 1.1
-7 -5 -4 4.01 1.2
-7 -5 -4 3.75 0.99
-7 -5 -5 74.65 4.57
-7 -5 -5 70.7 3.98
-7 -5 -5 71.67 4.63
-7 -5 -5 65.3 4.26
-7 -5 -6 54.99 3.84
-7 -5 -6 57 3.58
-7 -5 -6 46.87 3.66
-7 -5 -6 49.53 3.62
-7 -5 -7 60.06 3.99
-7 -5 -7 53.66 3.58
-7 -5 -7 53.5 3.85
-7 -5 -7 55.3 3.81
-7 -5 -8 3.75 1.05
-7 -5 -8 3.51 0.99
-7 -5 -8 2.87 0.93
-7 -5 -8 3.92 1.01
-7 -5 -9 94.07 5.02
-7 -5 -9 94.14 4.81
-7 -5 -9 84.35 4.49
-7 -5 -9 84.73 4.12
-7 -5 -9 88.85 4.74
-7 -5 -10 2.54 0.83
-7 -5 -10 2.61 0.83
-7 -5 -10 1.88 0.6
-7 -5 -10 1.28 0.62
-7 -5 -11 10.77 1.43
7 5 11 10.41 1.23
-7 -5 -11 12.51 1.55
-7 -5 -11 13 1.39
-7 -5 -11 12.9 1.47
-7 -5 -12 123.19 4.9
-7 -5 -12 117.88 4.66
-7 -5 -12 116.29 4.69
-7 -5 -13 165.9 5.59
-7 -5 -13 139.37 5.11
-7 -6 4 11.88 1.1
-7 -6 4 10.93 0.94
-7 -6 3 5.68 0.88
-7 -6 3 5.22 0.77
-7 -6 2 3.32 0.67
-7 -6 2 1.38 0.55
-7 -6 2 2.06 0.58
-7 -6 1 14.84 1.63
-7 -6 1 11.09 1.38
-7 -6 1 11.37 1.3
-7 -6 0 20.54 1.93
-7 -6 0 19.62 1.94
-7 -6 0 19.9 1.79
-7 -6 -1 25.99 2.04
-7 -6 -1 26.24 2.31
-7 -6 -1 25.14 2.32
-7 -6 -1 23.76 2.03
-7 -6 -2 15.14 1.65
-7 -6 -2 18.13 1.96
-7 -6 -2 15.48 1.64
-7 -6 -3 39.61 2.85
-7 -6 -3 43.94 3.18
-7 -6 -3 37.46 2.68
-7 -6 -4 0.65 0.52
-7 -6 -4 0.65 0.65
-7 -6 -4 0.34 0.42
-7 -6 -5 1 0.68
-7 -6 -5 0.45 0.43
-7 -6 -5 1.73 0.71
-7 -6 -5 0.32 0.46
-7 -6 -6 70.69 4.03
-7 -6 -6 63.65 3.55
-7 -6 -6 66.26 4.02
-7 -6 -6 58.68 3.4
-7 -6 -7 399.38 12.58
-7 -6 -7 379.53 12.03
-7 -6 -7 390.37 12.51
-7 -6 -7 355.45 11.58
-7 -6 -8 44.5 3.02
-7 -6 -8 39.03 2.69
-7 -6 -8 38.16 2.71
-7 -6 -9 3.26 0.81
-7 -6 -9 4.41 0.92
-7 -6 -9 3.21 0.73
-7 -6 -10 4.2 0.84
-7 -6 -10 5.22 0.95
-7 -6 -11 0.33 0.34
-7 -6 -11 0.39 0.42
-7 -6 -12 22.08 1.53
-7 -7 0 9.01 0.98
-7 -7 -1 40.16 2.11
-7 -7 -1 43.79 2.46
-7 -7 -2 1.63 0.51
-7 -7 -2 4.28 0.8
-7 -7 -3 0.78 0.35
-7 -7 -3 0.57 0.44
-7 -7 -4 1.31 0.53
-7 -7 -4 0.26 0.31
-7 -7 -5 13.31 1.36
-7 -7 -5 12.72 1.16
-7 -7 -5 11.51 1.33
-7 -7 -6 47.07 2.72
-7 -7 -6 45.37 2.42
-7 -7 -6 44.64 2.67
-7 -7 -7 6.13 0.98
-7 -7 -7 5.56 0.82
-7 -7 -7 7.38 0.99
-7 -7 -8 68.07 3.18
-7 -7 -8 64.83 2.98
-7 -7 -9 60.42 2.76
-7 -7 -9 62.91 2.77
-8 1 -1 18.73 1.24
8 -1 1 18.12 1.25
-8 1 -1 16.51 1.17
8 -1 1 15.34 1.15
-8 1 -2 14.8 1.12
8 -1 2 17.37 1.27
-8 1 -2 17.39 1.27
8 -1 2 14.38 1.12
8 -1 3 211.93 6.41
-8 1 -3 211.84 6.39
8 -1 4 60.66 2.69
-8 1 -4 56.15 2.56
8 -1 5 76.94 3.03
-8 1 -5 65.64 2.75
8 0 -3 40.45 1.94
-8 0 2 21.55 1.4
8 0 -2 22.56 1.51
-8 0 1 0.78 0.35
-8 0 1 1.03 0.36
8 0 -1 1.18 0.47
-8 0 0 0.83 0.44
-8 0 0 1.24 0.45
8 0 0 1.18 0.38
8 0 0 0.39 0.39
-8 0 -1 33.82 2.16
-8 0 -1 35.02 2.22
8 0 1 38.13 2.32
-8 0 -2 0.48 0.37
8 0 2 -0.33 0.38
8 0 2 -0.02 0.38
-8 0 -3 1.52 0.46
-8 0 -3 2.3 0.7
8 0 3 2.8 0.75
8 0 3 2.7 0.59
-8 0 -3 2.24 0.56
-8 0 -4 126.2 4.81
8 0 4 123.05 4.95
-8 0 -4 125.96 5.02
8 0 4 111.91 4.57
-8 0 -4 113.28 4.44
8 0 5 162.68 5.84
-8 0 -5 160.66 5.85
8 0 5 158.83 5.72
-8 0 -5 155.02 5.55
-8 0 -5 144.03 5.46
-8 0 -6 1.36 0.4
-8 0 -6 1.84 0.5
8 0 6 0.78 0.42
8 0 6 1.44 0.55
-8 0 -6 1.82 0.53
-8 0 -7 13.94 1.09
8 0 7 18.19 1.38
-8 0 -7 15.98 1.27
8 0 7 16.92 1.44
-8 0 -7 15.84 1.37
8 0 8 37.12 2.07
-8 0 -8 35.09 2.02
8 0 9 1.3 0.41
-8 0 -9 1.24 0.39
8 1 -4 5.04 0.68
8 1 -3 3.07 0.6
-8 -1 2 2.66 0.59
-8 -1 2 1.65 0.44
8 1 -2 2.74 0.61
-8 -1 1 136.31 5.15
-8 -1 1 129.42 5
8 1 -1 138.34 5.28
-8 -1 0 12.83 1.37
-8 -1 0 12.53 1.38
8 1 0 10.96 1.3
-8 -1 -1 12.46 1.43
-8 -1 -1 16.02 1.61
8 1 1 14.5 1.53
-8 -1 -2 77.22 3.92
-8 -1 -2 75.92 3.99
8 1 2 82.44 4
-8 -1 -3 -0.02 0.42
-8 -1 -3 0.18 0.39
8 1 3 0.08 0.42
8 1 3 0.19 0.36
-8 -1 -3 0.57 0.44
-8 -1 -4 58.58 3.33
-8 -1 -4 61.06 3.49
8 1 4 60.86 3.27
8 1 4 63.01 3.54
-8 -1 -4 57.66 3.1
-8 -1 -5 133.64 5.61
8 1 5 141.5 5.48
-8 -1 -5 139.75 5.79
8 1 5 158.4 6.13
-8 -1 -5 141.12 5.59
-8 -1 -6 172.12 6.14
-8 -1 -6 158.69 6.25
8 1 6 173.15 6.1
-8 -1 -6 172.71 6.5
-8 -1 -6 173.56 6.47
-8 -1 -7 10.66 1.18
8 1 7 12.2 1.22
-8 -1 -7 10.96 1.22
8 1 7 15.17 1.54
-8 -1 -7 12.33 1.37
8 1 8 0.61 0.4
-8 -1 -8 0.91 0.42
-8 -1 -8 1.39 0.47
8 1 8 0.41 0.38
-8 -1 -8 1.78 0.57
-8 -1 -9 58.92 2.84
8 1 9 60.53 2.95
-8 -1 -9 58.12 2.9
-8 -1 -10 113.97 4.33
8 1 10 118.21 4.34
-8 -1 -10 120.32 4.42
-8 -1 -11 -0.01 0.24
-8 -1 -11 -0.11 0.24
8 2 -4 0.37 0.3
8 2 -3 23.17 1.6
-8 -2 3 19.61 1.32
-8 -2 2 3.15 0.64
-8 -2 2 3.68 0.65
8 2 -2 4.41 0.79
-8 -2 2 3.44 0.61
-8 -2 1 0.18 0.35
-8 -2 1 -0.28 0.37
8 2 -1 -0.36 0.37
-8 -2 1 -0.09 0.38
-8 -2 0 60.7 3.29
-8 -2 0 62.41 3.39
8 2 0 63.37 3.22
-8 -2 0 58.14 3.05
-8 -2 -1 39.24 2.66
-8 -2 -1 39.86 2.75
8 2 1 38.2 2.45
-8 -2 -1 32.81 2.29
-8 -2 -2 18.22 1.83
-8 -2 -2 18.86 1.88
8 2 2 17.86 1.64
-8 -2 -2 18.45 1.72
-8 -2 -3 0.34 0.5
-8 -2 -3 -0.17 0.46
-8 -2 -3 0.51 0.4
-8 -2 -4 231.28 8.35
-8 -2 -4 228.48 8.44
-8 -2 -4 226.22 7.82
-8 -2 -4 225.61 8.04
-8 -2 -5 0.18 0.42
-8 -2 -5 -0.12 0.42
-8 -2 -5 -0.16 0.46
8 2 5 0.78 0.61
-8 -2 -5 0.04 0.41
-8 -2 -5 -0.06 0.52
-8 -2 -6 54.34 3.11
-8 -2 -6 55.26 3.26
-8 -2 -6 55.81 3.31
8 2 6 59.31 3.44
-8 -2 -6 54.32 3.19
-8 -2 -6 52.85 3.11
-8 -2 -7 28.66 2.16
-8 -2 -7 28.17 2.15
8 2 7 28.09 2.24
-8 -2 -7 28.29 2.19
-8 -2 -7 29.19 2.17
-8 -2 -8 -0.1 0.43
-8 -2 -8 0.49 0.29
8 2 8 0.09 0.32
-8 -2 -8 -0.02 0.36
-8 -2 -8 -0.15 0.32
8 2 9 4.4 0.77
-8 -2 -9 4.11 0.79
-8 -2 -9 2.86 0.57
8 2 9 5.15 0.85
-8 -2 -9 5.01 0.88
-8 -2 -9 4.74 0.84
-8 -2 -10 135.05 4.96
8 2 10 127.63 4.74
-8 -2 -10 110.65 4.18
8 2 10 120.66 4.55
-8 -2 -10 136.15 4.97
-8 -2 -10 120.89 4.6
-8 -2 -11 75.52 3.22
8 2 11 69.45 3
-8 -2 -11 74.7 3.21
-8 -2 -12 48.56 2.17
-8 -3 4 157.81 5.16
-8 -3 3 1.55 0.45
-8 -3 2 8.23 0.93
-8 -3 2 9.37 1.09
-8 -3 1 78.44 3.71
-8 -3 1 80.48 3.74
-8 -3 0 14.18 1.52
-8 -3 0 13.21 1.43
-8 -3 -1 25.52 2.1
-8 -3 -1 25.75 2.21
-8 -3 -1 27.41 2.18
-8 -3 -2 10.51 1.39
-8 -3 -2 11.27 1.5
-8 -3 -2 11.07 1.43
-8 -3 -3 3.46 0.94
-8 -3 -3 2.75 0.79
-8 -3 -4 42.13 2.61
-8 -3 -4 44.09 3.03
-8 -3 -4 38.96 2.47
-8 -3 -4 40.98 2.83
-8 -3 -5 47.98 2.91
-8 -3 -5 43.16 3.01
-8 -3 -5 42.78 2.74
-8 -3 -5 49.45 3.07
-8 -3 -6 38.08 2.65
-8 -3 -6 40.45 2.81
8 3 6 40.55 2.74
-8 -3 -6 41.94 2.73
-8 -3 -6 41.96 2.8
-8 -3 -7 0.24 0.38
-8 -3 -7 1.3 0.57
8 3 7 0.92 0.55
-8 -3 -7 1.3 0.61
-8 -3 -7 1.57 0.6
-8 -3 -8 3.8 0.82
-8 -3 -8 3.22 0.71
8 3 8 3.66 0.75
-8 -3 -8 2.8 0.75
-8 -3 -8 3.25 0.8
-8 -3 -9 120.63 4.89
-8 -3 -9 105.8 4.15
-8 -3 -9 103.3 4.21
8 3 9 105.14 4.27
-8 -3 -9 118.45 4.88
-8 -3 -9 118.36 4.79
8 3 10 2.18 0.64
-8 -3 -10 2.85 0.68
-8 -3 -10 2.25 0.55
8 3 10 2.48 0.52
-8 -3 -10 2.03 0.47
-8 -3 -10 2.4 0.68
-8 -3 -10 1.49 0.52
-8 -3 -11 72.75 3.23
8 3 11 73.01 3.16
-8 -3 -11 65.54 2.83
-8 -3 -11 73.18 3.18
-8 -3 -12 53.3 2.38
8 3 12 54.81 2.37
-8 -4 4 0.99 0.38
-8 -4 3 1.3 0.47
-8 -4 2 2.33 0.58
-8 -4 1 3.54 0.66
-8 -4 1 3.94 0.78
-8 -4 0 27.37 2.09
-8 -4 0 30.43 2.17
-8 -4 -1 616.38 17.93
-8 -4 -1 629.07 17.81
-8 -4 -2 246.96 8.85
-8 -4 -2 251.49 8.63
-8 -4 -3 81.45 4.29
-8 -4 -3 80.4 4.07
-8 -4 -4 30.12 2.15
-8 -4 -4 28.39 2.4
-8 -4 -4 31.24 2.36
-8 -4 -5 0.77 0.48
-8 -4 -5 0.57 0.54
-8 -4 -5 0.26 0.52
-8 -4 -6 138.91 5.65
-8 -4 -6 134.32 5.76
8 4 6 127.38 5.16
-8 -4 -6 143.33 5.73
-8 -4 -7 2 0.69
-8 -4 -7 1.25 0.56
8 4 7 1.87 0.54
-8 -4 -7 1.66 0.61
-8 -4 -8 7.58 1.12
-8 -4 -8 7.43 0.88
-8 -4 -8 7.59 1.06
-8 -4 -8 7.37 1.06
-8 -4 -9 55.01 2.99
-8 -4 -9 50.38 2.48
-8 -4 -9 48.6 2.5
-8 -4 -9 50.26 2.81
-8 -4 -10 31.26 2.05
8 4 10 30.77 1.95
-8 -4 -10 29.29 1.75
-8 -4 -10 30.53 1.99
-8 -4 -11 11.91 1.11
8 4 11 12.99 1.11
-8 -4 -11 11.12 0.96
-8 -4 -11 13.78 1.19
-8 -5 2 1.16 0.4
-8 -5 1 17.11 1.24
-8 -5 1 15.81 1.33
-8 -5 0 1.92 0.52
-8 -5 0 1.28 0.43
-8 -5 -1 1.3 0.51
-8 -5 -1 0.66 0.37
-8 -5 -2 2 0.63
-8 -5 -2 2.82 0.67
-8 -5 -3 43.54 2.34
-8 -5 -3 50.13 2.99
-8 -5 -3 47.41 2.73
-8 -5 -4 4.99 0.79
-8 -5 -4 5.71 1.01
-8 -5 -4 4.65 0.83
-8 -5 -5 2.14 0.57
-8 -5 -5 2.11 0.64
-8 -5 -5 0.79 0.35
-8 -5 -6 18.42 1.63
-8 -5 -6 15.22 1.6
-8 -5 -6 15.93 1.5
-8 -5 -7 68.1 3.35
-8 -5 -7 64.53 3.28
-8 -5 -7 62.71 3.15
-8 -5 -8 19.98 1.66
-8 -5 -8 17.76 1.46
-8 -5 -8 18.82 1.52
-8 -5 -9 9.31 1.06
8 5 9 8.22 0.89
-8 -5 -9 7.81 0.78
-8 -5 -9 9.11 0.98
-8 -5 -10 0.91 0.39
-8 -5 -10 -0.18 0.25
-8 -6 -1 20.07 1.36
-8 -6 -2 20.2 1.49
-8 -6 -3 70.67 3.12
-8 -6 -3 57.25 2.53
-8 -6 -4 1.46 0.38
-8 -6 -4 1.37 0.47
-8 -6 -4 0.97 0.38
-8 -6 -5 1.97 0.47
-8 -6 -5 2.83 0.65
-8 -6 -6 12.91 1.14
-8 -6 -6 11.86 1.15
-8 -6 -7 10.29 1.01
-8 -6 -7 9.77 0.95
-8 -6 -8 3.29 0.55
loop_
_exptl_oxdiff_crystal_face_indexfrac_h
_exptl_oxdiff_crystal_face_indexfrac_k
_exptl_oxdiff_crystal_face_indexfrac_l
_exptl_oxdiff_crystal_face_x
_exptl_oxdiff_crystal_face_y
_exptl_oxdiff_crystal_face_z
-2.8792 -3.9380 2.2733 -0.0420 0.2344 0.9712
-0.6683 -0.0664 -10.1302 0.1821 -0.9793 -0.0884
2.8085 3.8775 -2.6734 0.0492 -0.2728 -0.9608
3.2198 3.7627 5.5178 -0.0981 0.5196 -0.8487
-0.0388 -0.8203 9.6774 -0.1742 0.9388 0.2972
-2.2690 2.1192 -6.4524 -0.5947 -0.7766 -0.2079
-3.8308 -0.0360 -6.3607 -0.5799 -0.7563 0.3029
-2.5565 -4.3677 -4.0367 0.2820 -0.3313 0.9004
-3.2250 -3.1410 3.6830 -0.2790 0.3246 0.9038
-2.1076 -0.5585 7.9424 -0.5828 0.6805 0.4442
2.1752 4.2217 5.3069 -0.3753 0.4403 -0.8156
3.2966 3.7354 -1.8211 0.1446 -0.1673 -0.9752
1.5991 -0.2629 -8.5699 0.6261 -0.7315 -0.2698
