#------------------------------------------------------------------------------
#$Date: 2021-12-04 03:27:19 +0200 (Sat, 04 Dec 2021) $
#$Revision: 271083 $
#$URL: file:///home/coder/svn-repositories/cod/cif/1/56/55/1565506.cif $
#------------------------------------------------------------------------------
#
# This file is available in the Crystallography Open Database (COD),
# http://www.crystallography.net/
#
# All data on this site have been placed in the public domain by the
# contributors.
#
data_1565506
loop_
_publ_author_name
'Yan, Hai-Wei'
'Zhao, Ling-Hao'
'Zhang, Xu'
'Yang, Ya-Nan'
'Yuan, Xiang'
'Zhang, Pei-Cheng'
_publ_section_title
;
 Photoinduced Irreversible Intramolecular Proton Transfer of Arnebinones
 B, D, and E: The Case of Photoenolization at the
 <i>p</i>-Benzoquinone-CH<sub>2</sub>/CH-\p System.
;
_journal_issue                   11
_journal_name_full               'Journal of natural products'
_journal_page_first              2981
_journal_page_last               2989
_journal_paper_doi               10.1021/acs.jnatprod.1c00830
_journal_volume                  84
_journal_year                    2021
_chemical_absolute_configuration ad
_chemical_formula_moiety         'C17 H16 O6'
_chemical_formula_sum            'C17 H16 O6'
_chemical_formula_weight         316.30
_space_group_crystal_system      monoclinic
_space_group_IT_number           4
_space_group_name_Hall           'P 2yb'
_space_group_name_H-M_alt        'P 1 21 1'
_atom_sites_solution_hydrogens   geom
_audit_creation_date             2021-03-08
_audit_creation_method
;
  Olex2 1.1
  (compiled 2011.02.15 svn.r1672, GUI svn.r3494)
;
_cell_angle_alpha                90
_cell_angle_beta                 97.353(2)
_cell_angle_gamma                90
_cell_formula_units_Z            2
_cell_length_a                   6.83225(18)
_cell_length_b                   7.31343(17)
_cell_length_c                   14.9372(4)
_cell_measurement_reflns_used    2901
_cell_measurement_temperature    112.0(10)
_cell_measurement_theta_max      70.9030
_cell_measurement_theta_min      5.9960
_cell_volume                     740.23(3)
_computing_cell_refinement
;
CrysAlisPro, Agilent Technologies,
Version 1.171.37.35 (release 13-08-2014 CrysAlis171 .NET)
(compiled Aug 13 2014,18:06:01)
;
_computing_data_collection
;
CrysAlisPro, Agilent Technologies,
Version 1.171.37.35 (release 13-08-2014 CrysAlis171 .NET)
(compiled Aug 13 2014,18:06:01)
;
_computing_data_reduction
;
CrysAlisPro, Agilent Technologies,
Version 1.171.37.35 (release 13-08-2014 CrysAlis171 .NET)
(compiled Aug 13 2014,18:06:01)
;
_computing_molecular_graphics
;
O. V. Dolomanov, L. J. Bourhis, R. J. Gildea, J. A. K. Howard and H. Puschmann,
OLEX2: a complete structure solution, refinement and analysis program.
J. Appl. Cryst. (2009). 42, 339-341.
;
_computing_publication_material
;
O. V. Dolomanov, L. J. Bourhis, R. J. Gildea, J. A. K. Howard and H. Puschmann,
OLEX2: a complete structure solution, refinement and analysis program.
J. Appl. Cryst. (2009). 42, 339-341.
;
_computing_structure_refinement  'SHELXL-2014/7 (Sheldrick, 2014)'
_computing_structure_solution
'A short history of SHELX (Sheldrick, 2007)/Bruker'
_diffrn_ambient_environment      N~2~
_diffrn_ambient_temperature      112.0(10)
_diffrn_detector                 'CCD plate'
_diffrn_detector_area_resol_mean 16.0971
_diffrn_detector_type            Eos
_diffrn_measured_fraction_theta_full 0.9972
_diffrn_measured_fraction_theta_max 0.9686
_diffrn_measurement_details
;
#__ type_ start__ end____ width___ exp.time_
  1 omega   -4.00   70.00   1.0000    1.0000
omega____ theta____ kappa____ phi______ frames
    -       36.7919  -99.0000  -90.0000 74

#__ type_ start__ end____ width___ exp.time_
  2 omega   -3.00   23.00   1.0000    1.0000
omega____ theta____ kappa____ phi______ frames
    -       36.7919  -99.0000 -150.0000 26

#__ type_ start__ end____ width___ exp.time_
  3 omega   38.00   90.00   1.0000    2.0000
omega____ theta____ kappa____ phi______ frames
    -      108.0000  -30.0000    0.0000 52

#__ type_ start__ end____ width___ exp.time_
  4 omega   71.00   97.00   1.0000    2.0000
omega____ theta____ kappa____ phi______ frames
    -      108.0000  -94.0000  -60.0000 26

#__ type_ start__ end____ width___ exp.time_
  5 omega   59.00   85.00   1.0000    2.0000
omega____ theta____ kappa____ phi______ frames
    -      108.0000  -94.0000 -120.0000 26

#__ type_ start__ end____ width___ exp.time_
  6 omega   44.00  115.00   1.0000    2.0000
omega____ theta____ kappa____ phi______ frames
    -      108.0000 -111.0000 -120.0000 71

#__ type_ start__ end____ width___ exp.time_
  7 omega   42.00   91.00   1.0000    2.0000
omega____ theta____ kappa____ phi______ frames
    -      108.0000  -45.0000 -120.0000 49

#__ type_ start__ end____ width___ exp.time_
  8 omega   45.00   98.00   1.0000    2.0000
omega____ theta____ kappa____ phi______ frames
    -      108.0000  -45.0000 -180.0000 53

#__ type_ start__ end____ width___ exp.time_
  9 omega   40.00   90.00   1.0000    2.0000
omega____ theta____ kappa____ phi______ frames
    -      108.0000  -45.0000  -60.0000 50

#__ type_ start__ end____ width___ exp.time_
 10 omega   55.00  104.00   1.0000    2.0000
omega____ theta____ kappa____ phi______ frames
    -      108.0000  -94.0000   30.0000 49

#__ type_ start__ end____ width___ exp.time_
 11 omega   47.00   89.00   1.0000    2.0000
omega____ theta____ kappa____ phi______ frames
    -      108.0000  -30.0000  120.0000 42

#__ type_ start__ end____ width___ exp.time_
 12 omega   64.00  174.00   1.0000    2.0000
omega____ theta____ kappa____ phi______ frames
    -      108.0000    0.0000  120.0000 110

#__ type_ start__ end____ width___ exp.time_
 13 omega   93.00  150.00   1.0000    2.0000
omega____ theta____ kappa____ phi______ frames
    -      108.0000   61.0000  150.0000 57

#__ type_ start__ end____ width___ exp.time_
 14 omega   82.00  108.00   1.0000    1.0000
omega____ theta____ kappa____ phi______ frames
    -       36.7919  178.0000  120.0000 26

#__ type_ start__ end____ width___ exp.time_
 15 omega   61.00   86.00   1.0000    2.0000
omega____ theta____ kappa____ phi______ frames
    -      108.0000  178.0000   60.0000 25

#__ type_ start__ end____ width___ exp.time_
 16 omega   61.00   86.00   1.0000    1.0000
omega____ theta____ kappa____ phi______ frames
    -       36.7919  178.0000  -30.0000 25

#__ type_ start__ end____ width___ exp.time_
 17 omega   77.00  106.00   1.0000    1.0000
omega____ theta____ kappa____ phi______ frames
    -       36.7919  178.0000 -120.0000 29

#__ type_ start__ end____ width___ exp.time_
 18 omega   42.00   71.00   1.0000    1.0000
omega____ theta____ kappa____ phi______ frames
    -       36.7919   57.0000 -120.0000 29

#__ type_ start__ end____ width___ exp.time_
 19 omega   58.00   90.00   1.0000    1.0000
omega____ theta____ kappa____ phi______ frames
    -       36.7919   57.0000 -180.0000 32

#__ type_ start__ end____ width___ exp.time_
 20 omega  119.00  176.00   1.0000    2.0000
omega____ theta____ kappa____ phi______ frames
    -      108.0000   45.0000 -180.0000 57

#__ type_ start__ end____ width___ exp.time_
 21 omega   42.00  135.00   1.0000    2.0000
omega____ theta____ kappa____ phi______ frames
    -      108.0000  -77.0000   60.0000 93

#__ type_ start__ end____ width___ exp.time_
 22 omega   43.00   73.00   1.0000    1.0000
omega____ theta____ kappa____ phi______ frames
    -       36.7919  -99.0000  150.0000 30

#__ type_ start__ end____ width___ exp.time_
 23 omega   38.00   86.00   1.0000    2.0000
omega____ theta____ kappa____ phi______ frames
    -      108.0000  -30.0000   60.0000 48

#__ type_ start__ end____ width___ exp.time_
 24 omega    1.00   33.00   1.0000    1.0000
omega____ theta____ kappa____ phi______ frames
    -       36.7919  -99.0000  150.0000 32

#__ type_ start__ end____ width___ exp.time_
 25 omega  -32.00   53.00   1.0000    1.0000
omega____ theta____ kappa____ phi______ frames
    -       36.7919  -37.0000   30.0000 85

#__ type_ start__ end____ width___ exp.time_
 26 omega  -28.00   54.00   1.0000    1.0000
omega____ theta____ kappa____ phi______ frames
    -       36.7919  -37.0000  -60.0000 82
;
_diffrn_measurement_device       'four-circle diffractometer'
_diffrn_measurement_device_type  'Xcalibur, Eos, Gemini'
_diffrn_measurement_method       '\w scans'
_diffrn_orient_matrix_UB_11      -0.0409958000
_diffrn_orient_matrix_UB_12      -0.1853891000
_diffrn_orient_matrix_UB_13      0.0428569000
_diffrn_orient_matrix_UB_21      0.0954196000
_diffrn_orient_matrix_UB_22      0.0704614000
_diffrn_orient_matrix_UB_23      0.0925990000
_diffrn_orient_matrix_UB_31      -0.2022931000
_diffrn_orient_matrix_UB_32      0.0708310000
_diffrn_orient_matrix_UB_33      0.0200784000
_diffrn_radiation_monochromator  graphite
_diffrn_radiation_probe          x-ray
_diffrn_radiation_type           'Cu K\a'
_diffrn_radiation_wavelength     1.54184
_diffrn_reflns_av_R_equivalents  0.0235
_diffrn_reflns_av_unetI/netI     0.0300
_diffrn_reflns_Laue_measured_fraction_full 0.997
_diffrn_reflns_Laue_measured_fraction_max 0.979
_diffrn_reflns_limit_h_max       4
_diffrn_reflns_limit_h_min       -8
_diffrn_reflns_limit_k_max       8
_diffrn_reflns_limit_k_min       -8
_diffrn_reflns_limit_l_max       18
_diffrn_reflns_limit_l_min       -17
_diffrn_reflns_number            4580
_diffrn_reflns_point_group_measured_fraction_full 0.996
_diffrn_reflns_point_group_measured_fraction_max 0.969
_diffrn_reflns_theta_full        67.684
_diffrn_reflns_theta_max         71.017
_diffrn_reflns_theta_min         6.533
_diffrn_source                   'Enhance (Cu) X-ray Source'
_exptl_absorpt_coefficient_mu    0.909
_exptl_absorpt_correction_T_max  1.00000
_exptl_absorpt_correction_T_min  0.93114
_exptl_absorpt_correction_type   multi-scan
_exptl_absorpt_process_details
;
CrysAlisPro, Agilent Technologies,
Version 1.171.37.35 (release 13-08-2014 CrysAlis171 .NET)
(compiled Aug 13 2014,18:06:01)
Empirical absorption correction using spherical harmonics,
 implemented in SCALE3 ABSPACK scaling algorithm.
;
_exptl_crystal_density_diffrn    1.419
_exptl_crystal_description       block
_exptl_crystal_F_000             332
_exptl_crystal_size_max          0.230
_exptl_crystal_size_mid          0.220
_exptl_crystal_size_min          0.140
_refine_diff_density_max         0.201
_refine_diff_density_min         -0.144
_refine_diff_density_rms         0.037
_refine_ls_abs_structure_details
;
 Flack x determined using 1204 quotients [(I+)-(I-)]/[(I+)+(I-)]
 (Parsons, Flack and Wagner, Acta Cryst. B69 (2013) 249-259).
;
_refine_ls_abs_structure_Flack   -0.11(14)
_refine_ls_extinction_method     none
_refine_ls_goodness_of_fit_ref   1.052
_refine_ls_hydrogen_treatment    constr
_refine_ls_matrix_type           full
_refine_ls_number_parameters     210
_refine_ls_number_reflns         2771
_refine_ls_number_restraints     1
_refine_ls_restrained_S_all      1.052
_refine_ls_R_factor_all          0.0287
_refine_ls_R_factor_gt           0.0284
_refine_ls_shift/su_max          0.001
_refine_ls_shift/su_mean         0.000
_refine_ls_structure_factor_coef Fsqd
_refine_ls_weighting_details
'w=1/[\s^2^(Fo^2^)+(0.0489P)^2^+0.0444P] where P=(Fo^2^+2Fc^2^)/3'
_refine_ls_weighting_scheme      calc
_refine_ls_wR_factor_gt          0.0762
_refine_ls_wR_factor_ref         0.0766
_reflns_Friedel_coverage         0.824
_reflns_Friedel_fraction_full    0.995
_reflns_Friedel_fraction_max     0.956
_reflns_number_gt                2730
_reflns_number_total             2771
_reflns_threshold_expression     'I > 2\s(I)'
_cod_data_source_file            np1c00830_si_003.cif
_cod_data_source_block           exp_7041
_cod_database_code               1565506
_shelx_shelxl_version_number     2014/7
_shelx_space_group_comment
;
The symmetry employed for this shelxl refinement is uniquely defined
by the following loop, which should always be used as a source of
symmetry information in preference to the above space-group names.
They are only intended as comments.
;
_shelx_estimated_absorpt_t_max   0.883
_shelx_estimated_absorpt_t_min   0.818
_reflns_odcompleteness_completeness 99.72
_reflns_odcompleteness_iscentric 1
_reflns_odcompleteness_theta     66.97
_shelx_res_file
;
    exp_7041.res created by SHELXL-2014/7

TITL exp_7041 in P21 #4
CELL 1.54184 6.83225 7.31343 14.93724 90 97.3527 90
ZERR 2 0.00018 0.00017 0.00037 0 0.0024 0
LATT -1
SYMM -X,0.5+Y,-Z

SFAC C H O
UNIT 34 32 12

L.S. 3
PLAN  5
SIZE 0.23 0.14 0.22
REM reset to P21 #4
bond $H
conf
htab
fmap 2
acta
REM <HKL>D:/baiao/exp_7041/struct/olex2_exp_7041/exp_7041.hkl</HKL>

WGHT    0.048900    0.044400
FVAR      12.59620
O5    3    0.475776    0.960592    0.179473    11.00000    0.03157    0.01711 =
         0.02068    0.00541    0.00495   -0.00015
O6    3    0.835925    0.781515    0.457346    11.00000    0.02177    0.02522 =
         0.01439   -0.00219    0.00213   -0.00849
O3    3   -0.243049    0.398771    0.280823    11.00000    0.01752    0.03398 =
         0.03132   -0.00579    0.00600   -0.00075
O2    3    0.058086    0.471066    0.347997    11.00000    0.01722    0.02387 =
         0.01703   -0.00401    0.00666   -0.00340
O1    3    0.149588    0.121842    0.291566    11.00000    0.02534    0.01619 =
         0.02493    0.00576    0.00428   -0.00381
O4    3    0.547019    0.555906    0.474516    11.00000    0.02697    0.03268 =
         0.01553    0.00793   -0.00005   -0.00967
C15   1    0.501539    0.858929    0.245195    11.00000    0.02478    0.01294 =
         0.01561    0.00030    0.00703    0.00143
C7    1    0.151369    0.426396    0.055399    11.00000    0.02118    0.01837 =
         0.01343   -0.00070    0.00393    0.00496
AFIX  43
H7    2    0.201578    0.364737    0.008878    11.00000   -1.20000
AFIX   0
C5    1   -0.040844    0.202608    0.137942    11.00000    0.02431    0.02034 =
         0.01890   -0.00447    0.00356   -0.00367
AFIX  23
H5A   2   -0.172657    0.154506    0.139546    11.00000   -1.20000
H5B   2    0.038723    0.107313    0.115447    11.00000   -1.20000
AFIX   0
C1    1    0.264816    0.424302    0.341193    11.00000    0.01572    0.01944 =
         0.01421    0.00347    0.00394   -0.00053
AFIX  13
H1    2    0.321827    0.367393    0.398002    11.00000   -1.20000
AFIX   0
C12   1    0.540349    0.633780    0.402889    11.00000    0.01810    0.01744 =
         0.01351    0.00016    0.00423   -0.00016
C14   1    0.667649    0.883663    0.314863    11.00000    0.02691    0.01588 =
         0.01764   -0.00239    0.00639   -0.00683
AFIX  43
H14   2    0.760128    0.974371    0.308276    11.00000   -1.20000
AFIX   0
C11   1    0.383353    0.593411    0.325770    11.00000    0.01513    0.01525 =
         0.01470   -0.00133    0.00379    0.00109
C13   1    0.689886    0.777094    0.388989    11.00000    0.02044    0.01816 =
         0.01430   -0.00380    0.00492   -0.00269
C10   1    0.361215    0.700190    0.251861    11.00000    0.01740    0.01332 =
         0.01527   -0.00182    0.00550    0.00272
C9    1    0.204194    0.676528    0.171681    11.00000    0.01697    0.01577 =
         0.01491    0.00116    0.00320    0.00342
AFIX  23
H9A   2    0.168383    0.796016    0.146553    11.00000   -1.20000
H9B   2    0.087568    0.623985    0.192353    11.00000   -1.20000
AFIX   0
C4    1   -0.067484    0.379428    0.286544    11.00000    0.02081    0.01937 =
         0.01496    0.00091    0.00545   -0.00279
C8    1    0.267098    0.555516    0.097307    11.00000    0.01808    0.01959 =
         0.01129    0.00368    0.00224    0.00488
C2    1    0.254477    0.282182    0.267050    11.00000    0.01912    0.01230 =
         0.01897    0.00364    0.00457    0.00013
AFIX  13
H2    2    0.358688    0.272737    0.227893    11.00000   -1.20000
AFIX   0
C16   1    0.468619    0.592071    0.071103    11.00000    0.02067    0.02701 =
         0.02168   -0.00086    0.00768    0.00189
AFIX 137
H16A  2    0.489816    0.515387    0.021076    11.00000   -1.50000
H16B  2    0.566874    0.566112    0.121378    11.00000   -1.50000
H16C  2    0.477904    0.718065    0.054116    11.00000   -1.50000
AFIX   0
C6    1   -0.050403    0.368789    0.074435    11.00000    0.02141    0.02254 =
         0.01681   -0.00318   -0.00019   -0.00033
AFIX  23
H6A   2   -0.130671    0.338534    0.018048    11.00000   -1.20000
H6B   2   -0.113000    0.469962    0.101705    11.00000   -1.20000
AFIX   0
C3    1    0.046901    0.256408    0.231042    11.00000    0.02096    0.01437 =
         0.01963    0.00147    0.00599   -0.00061
C17   1    0.999795    0.900090    0.446692    11.00000    0.02956    0.03550 =
         0.02097   -0.00270    0.00373   -0.01744
AFIX 137
H17A  2    1.052734    0.868945    0.392161    11.00000   -1.50000
H17B  2    1.100232    0.885526    0.497335    11.00000   -1.50000
H17C  2    0.955591    1.024796    0.443484    11.00000   -1.50000
AFIX   0
HKLF 4

REM  exp_7041 in P21 #4
REM R1 =  0.0284 for    2730 Fo > 4sig(Fo)  and  0.0287 for all    2771 data
REM    210 parameters refined using      1 restraints

END

WGHT      0.0489      0.0444

REM Instructions for potential hydrogen bonds
EQIV $1 -x+1, y-1/2, -z+1
HTAB C1 O6_$1
HTAB C1 O4
EQIV $2 x, y-1, z
HTAB C2 O5_$2
EQIV $3 x+1, y+1, z
HTAB C17 O1_$3

REM Highest difference peak  0.201,  deepest hole -0.144,  1-sigma level  0.037
Q1    1   0.3211  0.5001  0.3214  11.00000  0.05    0.20
Q2    1  -0.0256  0.3082  0.2576  11.00000  0.05    0.19
Q3    1   0.2704  0.3640  0.2996  11.00000  0.05    0.17
Q4    1   0.6115  0.6922  0.3881  11.00000  0.05    0.16
Q5    1   0.4529  0.7587  0.2405  11.00000  0.05    0.16
;
_shelx_res_checksum              27026
_shelx_hkl_file
;
   0  -8   0 2879.04 301.735  13
   0  -8  -1 14792.6 681.062  13
   0  -8   1 14087.3 656.232  13
   0  -8  -2 11217.9 591.470  13
   0  -8   2 12021.5 599.614  13
   0  -8  -3 14309.7 657.204  13
   0  -8   3 14090.3 630.884  13
   0  -8   4 6816.69 423.606  13
   0  -8  -4 6490.33 430.903  13
   0  -8   5 266.694 88.8943  13
   0  -8  -5 442.409 119.640  13
   0  -8  -6 11898.4 533.142  13
   0  -8   6 12301.6 494.144  13
   0  -8  -7 9289.45 438.330  13
   0  -8   7 9449.95 451.410  20
   0  -8   8 778.530 119.247  20
   0  -7   0 51.3336 83.0678  13
   0  -7   1 28910.0 1063.44  13
   0  -7   2 18872.0 852.917  13
   0  -7  -3 56398.7 1414.35  12
   0  -7   3 53623.6 1412.36  13
   0  -7  -4 35602.7 1107.37  12
   0  -7   4 32625.2 1086.48  13
   0  -7  -5 19093.9 791.684  12
   0  -7   5 20763.8 850.229  13
   0  -7   6 1743.90 238.660  13
   0  -7   7 639.992 141.040  13
   0  -7   8 12773.9 636.599  20
   0  -7   9 3210.41 301.789  20
   0  -7  10 22043.9 726.773  20
   0  -7  11 9073.41 405.600  20
   0  -6   0 50521.1 1370.13  12
   0  -6  -1 9321.47 586.662  12
   0  -6   2 1294.30 223.276  13
   0  -6  -2 885.535 182.755  12
   0  -6  -3 9123.74 580.284  12
   0  -6   3 13270.4 719.436  13
   0  -6  -4 8606.29 564.159  12
   0  -6   4 13072.9 706.143  13
   0  -6   5 48220.7 1353.02  13
   0  -6  -5 49257.2 1346.92  12
   0  -6   6 10073.7 614.547  13
   0  -6  -6 10023.7 605.129  12
   0  -6   7 4254.09 395.228  13
   0  -6  -7 4231.73 392.582  12
   0  -6   8 7527.31 510.070  13
   0  -6  -8 7584.12 515.151  12
   0  -6   9 3795.39 376.816  20
   0  -6  10 384.683 127.213  20
   0  -6  11 1813.01 238.567  20
   0  -6  12 3662.65 305.473  20
   0  -6  13 5032.79 307.412  20
   0  -5   0 166.656 108.900  19
   0  -5   1 4003.87 481.380  19
   0  -5   2 11187.3 810.803  19
   0  -5   3 75457.1 2119.08  19
   0  -5   4 2344.37 385.647  19
   0  -5   5 3247.42 332.639  13
   0  -5  -5 4923.32 415.527  12
   0  -5   6 39977.2 1185.82  13
   0  -5  -6 38397.5 1177.54  12
   0  -5  -7 9753.92 604.607  12
   0  -5   7 12717.3 674.019  13
   0  -5  -8-13.2953 34.6534  12
   0  -5  -9 19284.9 854.527  12
   0  -5   9 16370.3 819.434  20
   0  -5  10 35674.5 1196.04  20
   0  -5 -10 38587.6 1196.31  12
   0  -5 -11 38481.3 1152.58  12
   0  -5  11 36233.5 1178.77  20
   0  -5  12 11784.1 643.201  20
   0  -5 -12 11591.6 591.628  12
   0  -5  13 4261.00 357.470  20
   0  -5  14 11075.5 508.264  20
   0  -4   0 82807.7 1624.99  26
   0  -4  -1 19476.9 806.172  26
   0  -4   1 18492.1 892.044  19
   0  -4   1 19009.0 768.479  26
   0  -4   2 90226.6 1998.05  19
   0  -4  -2 93033.0 1811.26  26
   0  -4   3 86033.8 1671.14  26
   0  -4   3 87031.7 1999.59  19
   0  -4   4 27803.9 1157.06  19
   0  -4   5 97884.9 2250.82  19
   0  -4   6 39704.4 1410.01  18
   0  -4   7 29968.0 1288.37  18
   0  -4  -8 48680.1 1348.84  12
   0  -4  -9 20076.9 895.031  12
   0  -4   9 30242.5 1085.97  20
   0  -4 -10 26369.2 1042.72  12
   0  -4  10 37740.7 1226.45  20
   0  -4 -11 4413.33 422.415  12
   0  -4  11 3973.11 407.745  20
   0  -4  12 2978.40 345.883  20
   0  -4 -12 3150.60 350.315  12
   0  -4 -13 23460.3 899.963  12
   0  -4  13 20202.9 856.597  20
   0  -4 -14 11671.7 581.276  12
   0  -4  14 11905.8 612.493  20
   0  -4  15 1087.00 163.731  20
   0  -3   0 96.6742 52.7755  26
   0  -3   1 1034.61 152.481  26
   0  -3  -1 1290.45 175.961  26
   0  -3   2 133018. 1716.91  26
   0  -3   2 125452. 2002.72  19
   0  -3   3 45436.1 1050.80  26
   0  -3   3 43267.3 1210.03  19
   0  -3   4 100361. 1664.45  26
   0  -3   4 94377.2 1837.10  19
   0  -3   5 5894.66 489.294  19
   0  -3   5 6121.12 434.008  26
   0  -3   6 32535.1 1075.42  26
   0  -3   6 32284.8 1145.58  18
   0  -3   7 3025.27 373.666  18
   0  -3   8 91989.3 2177.31  18
   0  -3   9 39970.4 1600.03  25
   0  -3  10 41070.5 1243.94  20
   0  -3 -10 40616.7 1243.79  12
   0  -3 -11 3590.87 379.594  12
   0  -3  11 3469.64 369.688  20
   0  -3 -12 13993.3 751.734  12
   0  -3  12 14002.6 753.068  20
   0  -3 -13 51677.4 1413.38  12
   0  -3  13 48041.5 1374.16  20
   0  -3 -14 3933.54 379.079  12
   0  -3  14 3820.28 374.923  20
   0  -3 -15 4469.81 372.118  12
   0  -3  15 3706.76 339.724  20
   0  -3  16 557.425 121.338   3
   0  -3  16 470.114 110.780  20
   0  -3 -16 301.741 86.7968  12
   0  -2   0 116288. 1272.62  26
   0  -2   1 21771.5 555.278  26
   0  -2   2 69577.8 1023.24  26
   0  -2   3 155859. 1675.74  26
   0  -2   3 152916. 1877.48  19
   0  -2   4 111640. 1724.86  19
   0  -2   4 115205. 1561.86  26
   0  -2   5 61928.6 1256.28  26
   0  -2   5 61345.1 1319.17  18
   0  -2   6 122412. 2016.22  18
   0  -2   7 60173.7 1532.27  18
   0  -2   8 78352.4 1958.21  25
   0  -2   9 2816.58 397.951  25
   0  -2  10 31671.9 1419.16  25
   0  -2  11 23778.9 944.898  20
   0  -2 -11 24594.6 983.980  12
   0  -2  12 7279.47 538.021  20
   0  -2 -12 6822.46 529.498  12
   0  -2  13 25387.6 1010.90  20
   0  -2 -13 25454.9 1025.72  12
   0  -2 -14 6766.12 516.802  12
   0  -2  14 7304.98 532.060  20
   0  -2 -15 310.147 117.149  12
   0  -2  15 203.316 92.3953  20
   0  -2 -16 7031.69 448.778  12
   0  -2  16 6739.78 439.648  20
   0  -2  16 6810.20 453.244   3
   0  -2 -17 5977.10 350.616  12
   0  -2  17 5423.60 334.923   3
   0  -1   1 191195. 1192.77  26
   0  -1   2 79683.9 893.861  26
   0  -1   3 398568. 2301.39  26
   0  -1   4 741922. 3610.77  26
   0  -1   4 737149. 3779.41  18
   0  -1   5 14054.4 571.990  18
   0  -1   6 21099.2 807.060  25
   0  -1   7 28256.9 1026.96  25
   0  -1   8 85607.6 1943.60  25
   0  -1   9 5814.98 550.489  25
   0  -1  10 19745.3 1087.53  25
   0  -1  11 4945.52 422.208  20
   0  -1 -11 5294.09 455.675  12
   0  -1  12 6006.26 480.415  20
   0  -1 -12 5700.26 487.910  12
   0  -1 -13 81463.7 1869.52  12
   0  -1  13 82301.8 1816.11  20
   0  -1  14 47376.4 1366.25  20
   0  -1 -14 47035.1 1409.21  12
   0  -1  15 102971. 2019.09   3
   0  -1 -15 99526.4 1966.25  12
   0  -1  15 103857. 1938.02  20
   0  -1 -16 3572.73 344.464  12
   0  -1  16 3186.73 328.926   3
   0  -1  17 9056.70 478.282   3
   0  -1 -17 9013.58 470.660  12
   0   0   3 53143.0 516.282  17
   0   0  -4 29068.7 390.812   2
   0   0   5 298413. 2667.06  25
   0   0   6 12858.7 613.444  25
   0   0   7 4542.02 403.406  25
   0   0   8 34804.1 1219.35  25
   0   0   9 24893.0 1117.79  25
   0   0  10 23124.9 1158.97  25
   0   0  11 32119.3 1449.84  25
   0   0 -11 34119.7 1156.19  12
   0   0 -12 3993.43 411.178  12
   0   0  12 4181.57 397.850  20
   0   0  13 13359.8 729.392  20
   0   0 -13 12431.8 735.116  12
   0   0 -14 11524.6 707.157  12
   0   0  14 12405.7 733.268   3
   0   0  14 12368.0 702.569  20
   0   0 -15 17208.6 838.372  12
   0   0  15 16596.1 816.314   3
   0   0  16 3199.39 333.614   3
   0   0 -16 3234.98 337.873  12
   0   0 -17 13484.0 603.067  12
   0   0  17 14075.8 615.466   3
   0   1   0 2216.28 103.378  16
   0   1  -1 193552. 1060.22  24
   0   1  -2 82805.2 650.000  22
   0   1   2 71357.3 441.809  14
   0   1   3 388085. 1196.93   2
   0   1   5 13750.5 598.932  25
   0   1   6 21619.9 827.525  25
   0   1   7 28200.9 1033.49  25
   0   1   8 87477.8 1980.67  25
   0   1   9 6031.42 561.988  25
   0   1  10 19001.2 1072.37  25
   0   1  11 5459.54 442.906  20
   0   1  11 6227.81 497.343   3
   0   1 -12 5779.10 498.978  12
   0   1  12 6025.44 483.441  20
   0   1  12 5751.76 490.436   3
   0   1  13 79269.9 1857.96   3
   0   1 -13 78551.6 1880.13  12
   0   1 -14 46403.1 1434.82  12
   0   1  14 45419.8 1391.96   3
   0   1 -15 94235.6 1960.76  12
   0   1  15 96999.2 1970.85   3
   0   1  16 3349.26 340.896   3
   0   1 -16 3278.22 340.524  12
   0   1  17 8971.66 489.138   3
   0   1 -17 8689.86 483.150  12
   0   2   0 108284. 639.121   1
   0   2  -1 21309.5 540.853  24
   0   2  -1 20830.7 490.529  16
   0   2  -2 72356.7 920.691  24
   0   2   3 150519. 1936.82  25
   0   2  -3 154816. 1258.30  22
   0   2   4 126653. 1209.03   2
   0   2   4 115607. 1827.10  25
   0   2   5 61717.8 1439.90  25
   0   2   6 122571. 2179.57  25
   0   2  -7 63819.4 1472.15   2
   0   2   7 59637.0 1635.22  25
   0   2   8 77648.4 2005.50  25
   0   2   9 3257.40 439.551  25
   0   2  10 31830.6 1454.37  25
   0   2  11 23476.6 979.476   3
   0   2 -11 24687.2 953.082  11
   0   2 -12 7713.00 549.118  11
   0   2  12 6842.41 544.228   3
   0   2  13 24540.7 1037.97   3
   0   2  14 6139.23 509.531   3
   0   2 -14 6134.09 520.614  12
   0   2  15 411.197 136.800   3
   0   2 -15 111.761 85.0942  12
   0   2  16 6398.75 454.177   3
   0   2 -16 6168.91 450.456  12
   0   2  17 5663.41 374.549   3
   0   2 -17 5876.91 379.306  12
   0   3   0 37.1244 31.6397  24
   0   3   1 1155.71 179.685  24
   0   3  -1 848.254 142.555  24
   0   3  -2 134216. 1654.12  24
   0   3  -3 44435.5 1035.20  16
   0   3   4 94764.9 1950.44  25
   0   3   5 5881.64 505.144  25
   0   3   6 31923.7 1243.57  25
   0   3   7 2447.69 370.941  25
   0   3   8 90898.6 2343.73  25
   0   3  -8 98114.4 2239.46   2
   0   3   9 40934.0 1243.95   3
   0   3   9 37820.6 1590.46  25
   0   3  10 38679.0 1260.88   3
   0   3 -10 40909.6 1224.53  11
   0   3 -11 2167.01 291.327  11
   0   3  11 3469.58 386.236   3
   0   3 -12 14421.6 750.899  11
   0   3  12 12815.1 754.052   3
   0   3 -13 41916.1 1261.27  11
   0   3  13 46742.2 1422.35   3
   0   3  14 3089.95 355.423   3
   0   3 -14 3759.43 399.890  12
   0   3 -15 3513.70 356.623  12
   0   3  15 3658.24 363.346   3
   0   3 -16 350.844 99.3904  12
   0   3  16 460.412 118.473   3
   0   3 -17 10532.5 456.032  12
   0   3  17 11107.6 463.835   3
   0   4   0 80540.7 1709.28  24
   0   4   1 19307.5 874.295  24
   0   4  -1 20229.7 826.892  24
   0   4   2 91294.4 1968.15  24
   0   4   3 88114.2 2022.07  24
   0   4   4 22851.6 1077.98  24
   0   4   5 97612.0 2310.86  24
   0   4   6 37792.7 1498.22  24
   0   4  -7 30445.6 1385.69   2
   0   4   7 28968.2 1369.40  24
   0   4  -8 47582.9 1311.79  11
   0   4  -8 47156.5 1759.30   2
   0   4   8 46402.0 1380.07   3
   0   4  -9 31415.5 1095.77  11
   0   4   9 29597.1 1134.47   3
   0   4 -10 38916.9 1234.15  11
   0   4  10 35978.0 1271.09   3
   0   4 -11 4944.47 444.559  11
   0   4  11 3965.00 425.137   3
   0   4  12 2829.72 353.425   3
   0   4 -12 2997.97 336.684  11
   0   4 -13 22046.7 864.505  11
   0   4  13 21239.9 930.969   3
   0   4  14 11881.8 653.298   3
   0   4 -15 1054.41 181.762  12
   0   4  15 1097.45 183.230   3
   0   4 -16 3143.49 258.806  12
   0   5   0 0.17691 78.1762  24
   0   5   1 3888.19 452.222  24
   0   5   2 11983.3 819.594  24
   0   5   2 12348.1 847.546   2
   0   5   3 80177.6 2184.31  24
   0   5  -4 2491.11 308.784  23
   0   5   4 2261.91 391.009  24
   0   5   4 2731.03 322.776  23
   0   5  -5 2162.86 286.722  21
   0   5  -6 35235.2 1184.45  21
   0   5   7 14241.9 791.505   3
   0   5   8 9.78368 73.0816   3
   0   5  -8 120.562 91.9970  11
   0   5  -9 18562.3 859.652  11
   0   5   9 17175.5 882.446   3
   0   5  10 34521.5 1244.03   3
   0   5 -10 36588.3 1195.45  11
   0   5 -11 35708.8 1137.78  11
   0   5  11 34822.7 1222.25   3
   0   5 -12 12454.8 638.864  11
   0   5  12 11589.2 674.563   3
   0   5 -13 4149.59 333.107  11
   0   5 -14 11073.9 551.415  12
   0   5  15 3164.38 246.894  23
   0   5 -15 2872.65 237.955  12
   0   6   0 51236.3 1472.04  23
   0   6   1 15514.0 806.659  23
   0   6  -1 15464.5 809.288  23
   0   6   2 1487.33 252.967  23
   0   6  -2 1097.93 205.123  21
   0   6  -2 1228.00 226.447  23
   0   6  -3 12985.0 747.283  23
   0   6   3 12692.7 727.258  23
   0   6   4 12951.5 743.696  23
   0   6  -4 13302.6 734.510  21
   0   6   5 45362.5 1405.89  23
   0   6  -5 46021.8 1378.74  21
   0   6   6 8756.11 618.429  23
   0   6   7 3581.14 397.080  23
   0   6  -8 6743.61 514.933  11
   0   6   8 7075.18 548.321  23
   0   6  -9 3892.21 382.449  11
   0   6   9 3810.91 396.273  23
   0   6  10 307.819 117.085  23
   0   6 -10 412.568 116.570  11
   0   6  11 1886.90 255.885  23
   0   6 -11 2118.61 250.255  11
   0   6 -12 3500.85 283.482  11
   0   6  12 3482.19 314.035  23
   0   6  13 4609.70 316.812  23
   0   7   0 117.900 72.8615  23
   0   7  -1 27432.8 1092.94  23
   0   7   1 27309.4 1090.57  23
   0   7  -2 18403.6 889.447  23
   0   7   2 18154.1 887.796  23
   0   7  -3 55364.2 1437.76  21
   0   7   3 51498.9 1483.88  23
   0   7   4 30888.3 1147.67  23
   0   7   5 20463.5 913.096  23
   0   7   6 1956.99 280.454  23
   0   7  -7 711.484 150.793  11
   0   7   7 701.959 162.291  23
   0   7  -8 11930.3 608.439  11
   0   7   8 10969.3 609.119  23
   0   7   9 3087.13 305.918  23
   0   7  -9 3207.51 296.651  11
   0   7  10 21587.0 745.387  23
   0   7 -10 21971.0 694.329  11
   0   7  11 8701.82 421.841  23
   0   8   0 2974.80 321.059  23
   0   8   1 14273.9 706.150  23
   0   8   2 11032.3 615.644  23
   0   8   3 14690.7 699.361  23
   0   8   4 6562.37 460.170  23
   0   8   5 262.828 98.7026  23
   0   8  -5 316.415 97.7805  11
   0   8  -6 12302.1 547.898  11
   0   8   6 11594.0 561.081  23
   0   8   7 9257.24 467.771  23
   0   8  -7 9055.86 436.532  11
   0   8   8 967.612 139.926  23
  -1  -8   8 4348.73 282.662  20
  -1  -8   7 1894.48 202.815  20
  -1  -8   7 2071.78 201.746  13
  -1  -8   6 742.995 137.629  20
  -1  -8   6 885.087 146.087  13
  -1  -8   5 2919.15 273.795  13
  -1  -8   4 10001.4 526.294  13
  -1  -8   3 7194.70 459.507  13
   1  -8  -3 6525.78 435.129  13
  -1  -8   2 6058.74 427.473  13
   1  -8  -2 6032.66 424.106  13
   1  -8  -1 9468.90 529.248  13
  -1  -8   1 9429.44 540.543  13
   1  -8   0 10439.1 545.370  13
  -1  -8   0 10261.6 561.226  13
   1  -8   1 10696.2 540.484  13
  -1  -8  -1 9890.21 546.682  13
   1  -8   2 16001.8 644.518  13
  -1  -8  -2 15059.4 666.307  13
   1  -8   3 1900.52 214.501  13
  -1  -8  -3 2074.69 242.997  13
  -1  -8  -4 21416.8 748.366  13
  -1  -8  -5 6834.43 401.565  13
   1  -8   6 3554.48 273.486  20
  -1  -8  -6 3422.58 262.625  13
  -1  -7  11 1952.12 198.746  20
  -1  -7  10 3342.36 292.274  20
  -1  -7   9 11741.3 547.844  13
  -1  -7   9 10653.5 552.967  20
  -1  -7   8 12399.9 608.987  13
  -1  -7   8 12103.2 624.305  20
  -1  -7   7 5637.02 428.302  13
  -1  -7   6 26903.3 971.627  13
  -1  -7   5 1441.39 242.458  13
  -1  -7   4 23436.5 941.077  13
  -1  -7   3 1916.60 278.675  13
  -1  -7   2 1172.26 216.813  13
  -1  -7   1 3799.01 387.405  13
  -1  -7   0 56876.0 1511.51  13
   1  -7   1 17574.1 809.301  13
  -1  -7  -1 17030.3 820.652  13
  -1  -7  -1 17292.4 814.200  12
   1  -7   2 5535.99 446.911  13
  -1  -7  -2 5820.07 468.941  12
   1  -7   3 14917.2 713.064  13
  -1  -7  -3 14027.4 724.361  12
   1  -7   4 16152.9 724.910  13
  -1  -7  -4 15241.4 744.571  12
  -1  -7  -5 17764.3 785.169  12
  -1  -7  -6 54.7223 74.1169  12
  -1  -7  -7 3139.87 311.156  12
  -1  -7  -8 12531.1 579.853  12
   1  -7   8 11849.9 571.125  20
  -1  -7  -9 20704.3 681.553  12
   1  -7   9 20948.8 700.975  20
   1  -7  10 3304.27 244.439  20
  -1  -6  13 8316.22 423.494  20
  -1  -6  12 4302.63 344.487  20
  -1  -6  11 4513.86 384.064  20
  -1  -6  10 12212.1 624.207  13
  -1  -6  10 11124.4 630.702  20
  -1  -6   9 6869.29 513.993  20
  -1  -6   9 7552.19 522.904  13
  -1  -6   8 28862.6 1045.33  13
  -1  -6   7 2012.61 283.616  13
  -1  -6   6 11119.7 660.834  13
  -1  -6   5 18387.9 855.020  13
  -1  -6   4 148284. 2412.43  13
  -1  -6   3 7502.27 545.463  13
  -1  -6   2 6800.16 526.889  13
  -1  -6   1 817.615 181.872  12
  -1  -6   1 509.418 148.394  13
  -1  -6   0 90.4645 63.8720  12
  -1  -6  -1 48138.4 1364.64  12
   1  -6   2 2241.31 290.601  13
  -1  -6  -2 3685.92 379.164  12
  -1  -6  -3 53598.0 1445.16  12
   1  -6   3 34103.1 1120.03  13
   1  -6   4 1154.27 204.470  13
  -1  -6  -4 1088.20 203.218  12
  -1  -6  -5 10241.5 635.991  12
  -1  -6  -6 32287.6 1124.65  12
  -1  -6  -7 22907.2 941.871  12
  -1  -6  -8 14583.8 736.179  12
   1  -6   9 21843.7 860.520  20
  -1  -6  -9 20722.4 845.738  12
   1  -6  10 17593.1 730.887  20
  -1  -6 -10 16377.9 714.258  12
   1  -6  11 2622.16 259.315  20
  -1  -6 -11 2410.90 251.088  12
  -1  -6 -12 2055.27 204.220  12
   1  -6  12 2058.76 197.517  20
  -1  -5  15 5319.74 315.950  20
  -1  -5  14 2138.50 238.568  20
  -1  -5  13 3671.28 342.885  20
  -1  -5  12 12402.6 676.927  20
  -1  -5  11 25443.3 1007.62  20
  -1  -5  11 27181.4 981.217  13
  -1  -5  10 10597.9 635.317  13
  -1  -5  10 9405.07 619.466  20
  -1  -5   9 18178.2 870.808  20
  -1  -5   9 19761.2 877.819  13
  -1  -5   8 40514.8 1256.95  13
  -1  -5   7 48471.2 1361.81  13
  -1  -5   6 39869.6 1222.80  13
  -1  -5   5 18740.8 826.281  13
  -1  -5   4 41427.6 1596.17  19
  -1  -5   4 45049.2 1254.57  13
  -1  -5   3 19136.3 989.704  26
  -1  -5   3 19808.4 1078.80  19
  -1  -5   2 2993.41 385.169  26
  -1  -5   2 3077.77 421.408  19
  -1  -5   1 28598.1 1266.08  19
  -1  -5   1 29428.9 1226.13  26
  -1  -5   0 61020.4 1846.75  19
  -1  -5   0 63822.8 1835.22  26
  -1  -5  -1 4024.74 469.157  26
   1  -5   1 3614.33 467.754  19
  -1  -5  -1 3798.05 463.035  19
   1  -5   2 62294.5 1941.83  19
  -1  -5  -2 65505.0 1924.83  26
   1  -5   3 645.874 195.096  19
  -1  -5  -3 655.483 193.477  26
   1  -5   4 20331.7 1125.31  19
  -1  -5  -4 19388.6 1092.84  26
  -1  -5  -5 8628.52 567.115  12
  -1  -5  -6 17171.2 815.371  12
  -1  -5  -7 49084.5 1398.43  12
  -1  -5  -8 10632.2 653.444  12
  -1  -5  -9 48970.5 1409.18  12
   1  -5   9 49578.3 1380.64  20
   1  -5  10 27305.0 1000.26  20
  -1  -5 -10 26374.5 1010.29  12
   1  -5  11 20744.4 841.418  20
  -1  -5 -11 19163.3 831.522  12
   1  -5  12 884.101 169.674  20
  -1  -5 -12 786.379 156.145  12
   1  -5  13 3526.14 285.907  20
  -1  -5 -13 3367.70 297.130  12
  -1  -5 -14 982.429 135.606  12
  -1  -4  16 4369.93 298.421  20
  -1  -4  15 5984.78 407.977  20
  -1  -4  14 9252.33 559.705  20
  -1  -4  13 3228.96 354.422  20
  -1  -4  12 27137.3 1056.01  20
  -1  -4  11 60956.4 1606.65  20
  -1  -4  10 25566.7 993.332  13
  -1  -4  10 24722.5 1003.24  20
  -1  -4   9 46807.6 1326.48  13
  -1  -4   9 44377.5 1326.78  20
  -1  -4   8 21165.1 1108.95  26
  -1  -4   8 24761.4 940.300  13
  -1  -4   7 49853.2 1629.28  26
  -1  -4   6 33985.6 1288.02  26
  -1  -4   5 42324.4 1403.24  26
  -1  -4   4 47451.7 1427.41  26
  -1  -4   4 43287.3 1443.15  19
  -1  -4   3 36793.9 1222.81  26
  -1  -4   3 34614.9 1249.71  19
  -1  -4   2 2996.80 347.333  26
  -1  -4   2 2820.75 349.234  19
  -1  -4   1 1683.63 268.736  19
  -1  -4   1 1780.66 268.986  26
  -1  -4   0 43516.0 1331.23  26
  -1  -4   0 40800.0 1307.80  19
  -1  -4  -1 34113.9 1200.06  26
  -1  -4  -2 49816.9 1474.06  26
   1  -4   2 48496.8 1490.67  19
   1  -4   3 55264.5 1620.14  19
   1  -4   4 33617.1 1292.63  19
   1  -4   5 18681.5 984.538  19
   1  -4   6 7988.53 679.783  18
  -1  -4  -7 33710.3 1137.30  12
   1  -4   7 47842.0 1736.43  18
  -1  -4  -8 14611.1 767.590  12
  -1  -4  -9 32494.1 1167.85  12
   1  -4   9 21416.3 901.763  20
  -1  -4 -10 9153.26 623.826  12
   1  -4  10 9783.47 609.314  20
  -1  -4 -11 13494.8 755.235  12
   1  -4  11 13406.2 712.724  20
  -1  -4 -12 3280.43 363.472  12
   1  -4  12 2820.86 317.089  20
  -1  -4 -13 92.4162 74.8111  12
   1  -4  13 136.995 69.4017  20
  -1  -4 -14 7448.22 470.219  12
  -1  -4 -15 13948.9 550.213  12
  -1  -3  17 11178.0 460.505  20
  -1  -3  17 10566.1 454.189   3
  -1  -3  16 15698.3 652.649  20
  -1  -3  15 4088.44 373.981  20
  -1  -3  14 52750.2 1427.12  20
  -1  -3  13 10115.5 644.479  20
  -1  -3  12 16314.9 826.737  20
  -1  -3  12 19072.1 849.607   9
  -1  -3  11 16801.5 797.950   9
  -1  -3  11 26529.9 1044.53  20
  -1  -3  10 20482.1 861.008  13
  -1  -3  10 20904.1 898.157  20
  -1  -3  10 19866.2 843.018   9
  -1  -3   9 16698.0 1044.49  25
  -1  -3   8 6169.91 561.094  26
  -1  -3   7 99444.4 2120.66  26
  -1  -3   6 89415.6 1903.67  26
  -1  -3   5 6120.42 417.996  18
  -1  -3   5 5705.54 463.353  26
  -1  -3   4 101589. 1850.57  26
  -1  -3   4 98935.0 1893.88  19
  -1  -3   3 10111.8 559.960  26
  -1  -3   3 9797.27 571.137  19
  -1  -3   2 13554.3 646.161  26
  -1  -3   2 12814.9 632.833  19
  -1  -3   1 88531.8 1609.92  19
  -1  -3   1 87219.4 1633.96  26
   1  -3  -1 92350.7 1197.09  26
  -1  -3   0 34177.8 1011.77  26
  -1  -3  -1 169786. 2291.37  26
   1  -3   2 3518.10 340.572  19
   1  -3   3 151232. 2288.80  19
   1  -3   4 44733.6 1282.32  19
   1  -3   5 116192. 2166.25  19
   1  -3   6 14183.9 818.355  18
   1  -3   7 21139.3 1061.40  18
   1  -3   8 9806.96 759.504  18
   1  -3   9 5322.05 600.313  18
   1  -3   9 6345.75 466.847  20
   1  -3   9 5535.75 593.163  25
   1  -3  10 55043.7 1434.60  20
  -1  -3 -10 79285.9 1786.74  12
  -1  -3 -11 18066.4 867.904  12
   1  -3  11 13243.7 708.059  20
   1  -3  12 436.351 127.363  20
  -1  -3 -12 475.613 149.154  12
   1  -3  13 5075.64 419.877  20
  -1  -3 -13 5667.25 480.279  12
   1  -3  14 5157.92 393.434  20
  -1  -3 -14 5620.94 455.053  12
  -1  -3 -15 2379.64 272.446  12
  -1  -3 -16 1983.28 211.107  12
  -1  -2  17 13280.3 583.355   3
  -1  -2  16 6009.28 435.763  20
  -1  -2  15 23349.7 931.535  20
  -1  -2  14 9382.48 616.291  20
  -1  -2  13 18148.4 870.713  20
  -1  -2  12 637.147 162.301   9
  -1  -2  12 353.455 126.071  20
  -1  -2  11 4820.87 431.331  20
  -1  -2  11 5651.28 463.108   9
  -1  -2  10 4062.69 510.815  25
  -1  -2   9 27609.9 1258.97  25
  -1  -2   8 54695.4 1660.21  25
  -1  -2   7 48208.6 1373.90  26
  -1  -2   6 23080.4 888.505  26
  -1  -2   6 22856.5 784.029  18
  -1  -2   5 84377.3 1351.95  18
  -1  -2   5 79092.9 1555.95  26
  -1  -2   4 54386.2 1202.15  26
  -1  -2   3 987841. 4786.57  26
  -1  -2   3 999999. 4807.75  19
  -1  -2   2 344336. 2661.72  19
  -1  -2   2 345665. 2769.67  26
  -1  -2   1 409275. 2949.36  26
   1  -2   0 172784. 1050.68  26
  -1  -2   0 248355. 2284.61  26
  -1  -2  -1 53282.7 637.601   1
   1  -2   1 53902.0 590.214  26
   1  -2   2 118465. 1040.09  26
  -1  -2  -2 117264. 1040.65   1
  -1  -2  -3 9662.72 355.906   1
   1  -2   3 8939.33 460.480  19
  -1  -2  -4 79840.1 1210.40   1
   1  -2   4 73440.4 1389.35  19
   1  -2   5 22315.1 874.157  18
  -1  -2  -5 24845.3 781.499   1
   1  -2   6 259894. 3255.57  18
   1  -2   7 31189.1 1194.21  18
   1  -2   8 54740.8 1693.83  18
   1  -2   8 58942.2 1703.69  25
   1  -2   9 31187.6 1323.27  25
   1  -2  10 23741.6 1227.46  25
   1  -2  10 26092.1 944.392  20
  -1  -2 -10 24154.8 969.352  12
  -1  -2 -11 18775.0 881.563  12
   1  -2  11 19106.1 833.935  20
  -1  -2 -12 3144.43 365.222  12
   1  -2  12 3297.14 350.317  20
   1  -2  13 7268.73 517.826  20
  -1  -2 -13 7254.22 559.566  12
  -1  -2 -14 32028.8 1124.39  12
   1  -2  14 28604.7 975.293  20
  -1  -2 -15 9156.15 567.321  12
  -1  -2 -16 5030.29 376.525  12
  -1  -2 -17 2296.49 214.612  12
  -1  -1  18 1580.36 177.831   3
  -1  -1  17 9207.81 514.598   3
   1  -1 -16 15690.5 684.138  12
  -1  -1  16 14178.3 693.825  20
  -1  -1  16 15675.2 759.549   3
  -1  -1  15 3029.15 345.961  20
   1  -1 -15 3138.68 337.458  12
   1  -1 -14 13793.1 740.808  12
  -1  -1  14 11635.3 693.683  20
  -1  -1  13 424.165 131.202  20
   1  -1 -13 246.174 105.071  12
   1  -1 -12 2917.58 341.420  12
  -1  -1  12 3162.93 355.172  20
  -1  -1  11 5271.48 603.510  25
  -1  -1  11 5555.51 455.272  20
  -1  -1  10 7417.73 670.239  25
  -1  -1   9 73604.0 1966.11  25
  -1  -1   8 21384.8 977.564  25
  -1  -1   7 108122. 2020.20  25
  -1  -1   6 52089.8 1246.97  26
  -1  -1   6 53977.8 1312.79  25
  -1  -1   5 84467.1 1457.21  26
  -1  -1   4 281172. 2452.21  26
  -1  -1   3 353823. 1764.45  18
  -1  -1   2 16406.6 291.561  18
  -1  -1   0 162276. 1109.19  19
  -1  -1   0 161555. 1218.43   1
  -1  -1  -1 169382. 1140.11  14
  -1  -1  -1 171080. 1312.21   1
  -1  -1  -2 154524. 1434.57   1
   1  -1   2 152796. 1376.32  19
   1  -1   3 37182.9 752.077  19
   1  -1   4 164280. 2039.89  18
   1  -1   5 69108.5 1448.06  18
   1  -1   6 189864. 2577.74  18
   1  -1   6 185650. 2408.33  25
   1  -1   7 88675.0 1820.46  25
   1  -1   8 4214.59 433.583  25
   1  -1   9 22023.4 1071.38  25
   1  -1  10 29744.8 1332.05  25
  -1  -1 -11 34216.7 1183.24  12
  -1  -1 -12 146982. 2521.05  12
  -1  -1 -13 12015.9 725.958  12
   1  -1  14 16131.0 787.112   3
  -1  -1 -14 13357.8 749.667  12
  -1  -1 -15 11416.0 657.119  12
   1  -1  15 12010.2 630.371   3
  -1  -1 -16 4908.85 392.384  12
  -1  -1 -17 4376.35 319.921  12
  -1   0  18 3608.85 276.396   3
  -1   0  17 29.5806 52.4085   3
   1   0 -17 119.092 70.3933  12
   1   0 -16 34459.3 1062.51  12
  -1   0  16 32987.3 1103.58   3
   1   0 -15 3798.40 387.889  12
  -1   0  15 4411.35 433.592   3
  -1   0  14 47065.5 1397.06  20
   1   0 -14 52337.8 1475.48  12
  -1   0  13 10118.2 648.788  20
   1   0 -13 8251.79 593.201  12
   1   0 -12 6935.89 532.638  12
  -1   0  12 9849.72 623.602  20
  -1   0  11 30865.7 1051.58  20
  -1   0  11 27872.2 1364.11  25
  -1   0  10 14665.0 924.325  25
  -1   0   9 19093.9 987.167  25
  -1   0   8 20421.1 944.388  25
  -1   0   7 17819.9 806.995  25
  -1   0   6 59354.7 1338.88  25
  -1   0   5 135251. 1305.26  24
  -1   0   5 129360. 1772.93  25
  -1   0   4 35518.8 818.577  25
  -1   0   4 36087.9 613.297  24
  -1   0   3 12116.3 325.449  24
  -1   0   3 12263.8 413.333  25
  -1   0   2 129906. 1098.77  25
  -1   0   1 216824. 1008.81  25
  -1   0   1 219123. 1248.11  26
  -1   0   0 15316.1 307.537  26
  -1   0   0 15251.3 360.358  16
   1   0   1 103002. 954.993  18
   1   0   1 101096. 627.268  25
   1   0   2 82131.7 1037.17  18
   1   0   2 82533.3 838.856  25
   1   0   3 83991.6 1053.28  25
   1   0   4 139382. 1598.08  25
   1   0   5 4139.37 313.403  25
   1   0   6 68812.6 1432.79  25
   1   0   7 26028.9 970.805  25
   1   0   8 120.159 83.3429  25
   1   0   9 18812.0 971.997  25
   1   0  10 35280.4 1432.96  25
  -1   0 -11 98209.3 2014.29  12
   1   0  12 78801.3 1805.36   3
  -1   0 -12 111595. 2188.54  12
  -1   0 -13 12266.2 741.273  12
   1   0  13 13070.8 736.644   3
   1   0  14 118957. 2162.12   3
  -1   0 -14 107962. 2174.84  12
  -1   0 -15 6190.37 496.966  12
   1   0  15 6172.10 468.322   3
   1   0  16 1121.40 178.462   3
  -1   0 -16 1269.63 205.783  12
  -1   0 -17 1377.45 190.949  12
  -1   1  18 1476.34 175.802   3
  -1   1  17 9075.69 514.177   3
   1   1 -17 9743.18 499.664  12
   1   1 -16 15944.3 733.785  12
  -1   1  16 14902.2 736.679   3
  -1   1  15 2753.54 339.359   3
   1   1 -15 2888.47 337.573  12
   1   1 -14 11903.6 714.014  12
  -1   1  14 10621.4 684.081   3
   1   1 -13 239.940 112.085  12
  -1   1  13 154.314 99.1919   3
  -1   1  12 3198.81 357.485  20
  -1   1  12 3272.50 377.427   3
  -1   1  11 6137.49 474.011  20
  -1   1  11 5228.16 606.989  25
  -1   1  10 7557.79 681.785  25
  -1   1   9 73727.0 1978.34  25
  -1   1   8 21826.6 847.919  24
  -1   1   8 22401.4 1008.20  25
  -1   1   7 112337. 1773.49  17
  -1   1   7 108723. 2036.59  25
  -1   1   7 111079. 1799.01  24
  -1   1   6 54635.8 1182.59  17
  -1   1   6 54556.5 1323.65  25
  -1   1   6 54587.4 1180.14  24
  -1   1   5 88667.7 1429.31  17
  -1   1   5 89015.6 1544.12  25
  -1   1   5 88361.9 1402.07  24
  -1   1   4 284359. 2338.23  24
  -1   1   4 278418. 2475.16  25
  -1   1   4 282000. 2409.64  17
  -1   1   3 347404. 2235.25  14
  -1   1   2 16073.2 455.617  14
  -1   1   2 15541.5 460.683  25
  -1   1   0 163003. 1426.30  17
  -1   1   0 159992. 1365.12   1
   1   1   1 170676. 1364.81  25
  -1   1  -1 169771. 1516.46  22
  -1   1  -1 172148. 1353.82  17
  -1   1  -2 147963. 1588.95   2
  -1   1  -2 152440. 1150.81  17
  -1   1  -2 153056. 1501.61  22
   1   1   2 147571. 1414.85  25
  -1   1  -3 38986.5 850.742   2
   1   1   3 38373.0 816.014  25
  -1   1  -4 167775. 1833.12   2
   1   1   4 168340. 1916.35  25
  -1   1  -5 73864.4 1263.34   2
   1   1   5 71097.7 1379.35  25
   1   1   6 187452. 2468.33  25
   1   1   7 89358.8 1865.04  25
   1   1   8 4080.71 435.671  25
   1   1   9 21609.7 1075.14  25
   1   1  10 29596.1 1349.67  25
  -1   1 -11 33010.9 1179.93  12
   1   1  11 34434.1 1158.97   3
  -1   1 -12 144819. 2531.52  12
   1   1  12 155918. 2530.89   3
   1   1  13 12780.9 730.634   3
  -1   1 -13 10479.2 690.204  12
  -1   1 -14 13682.9 766.026  12
   1   1  14 14937.7 771.154   3
   1   1  15 12764.4 669.684   3
  -1   1 -15 11389.0 669.326  12
  -1   1 -16 4787.03 397.694  12
   1   1  16 5377.13 392.945   3
   1   1  17 4366.09 291.892   3
  -1   1 -17 4617.12 335.144  12
   1   2 -17 13247.1 562.479  12
  -1   2  17 13751.3 607.400   3
   1   2 -16 5909.82 436.706  12
  -1   2  16 5825.31 445.955   3
  -1   2  16 5912.26 426.515  21
  -1   2  15 22892.9 948.452   3
   1   2 -15 23249.1 952.101  12
  -1   2  14 9467.02 640.376   3
   1   2 -14 10102.0 661.394  12
  -1   2  13 18159.7 896.622   3
  -1   2  12 410.643 142.118   3
  -1   2  11 5289.34 465.873   3
  -1   2  10 4694.77 556.439  25
  -1   2   9 30514.8 1227.22  24
  -1   2   9 26946.7 1263.27  25
  -1   2   8 56516.6 1585.52  24
  -1   2   8 58467.7 1539.35  17
  -1   2   8 55073.8 1694.11  25
  -1   2   7 49412.4 1404.12  24
  -1   2   7 47635.0 1347.29  17
  -1   2   7 48467.6 1479.36  25
  -1   2   6 22698.5 943.882  25
  -1   2   6 22696.7 890.913  17
  -1   2   6 22461.4 892.820  24
  -1   2   5 78355.5 1582.21  24
  -1   2   5 78861.1 1630.78  25
  -1   2   4 53374.1 1258.73  25
  -1   2   4 52130.1 1222.64  24
  -1   2   3 974086. 4964.48  25
  -1   2   3 976217. 5057.30  24
  -1   2   2 345866. 2785.81  25
  -1   2   2 347528. 2856.79  24
  -1   2   1 407529. 2980.32  24
  -1   2   1 406437. 2974.73   2
  -1   2   1 404944. 2091.51   1
  -1   2   0 258770. 2288.90  24
  -1   2   0 255205. 2437.90   2
  -1   2   0 257516. 1819.00   1
  -1   2  -1 76221.9 1246.37  16
  -1   2  -2 171977. 2153.70   2
  -1   2  -2 174158. 2047.19  16
   1   2   2 175735. 2014.76  25
  -1   2  -3 9542.26 435.441  22
  -1   2  -3 10057.2 538.268   2
   1   2   3 9103.63 487.242  25
  -1   2  -4 74946.8 1518.93   2
   1   2   4 72227.5 1453.08  25
   1   2   5 22988.9 891.249  25
  -1   2  -5 22788.7 865.355   2
  -1   2  -6 273344. 3086.97   2
   1   2   6 269163. 3274.12  25
  -1   2  -7 32689.9 1096.09   2
   1   2   7 32682.3 1226.59  25
   1   2   8 60692.8 1785.41  25
   1   2   9 30584.5 1352.24  25
  -1   2 -10 16007.8 773.674  11
   1   2  10 16002.8 785.430   3
   1   2  11 19177.1 891.508   3
  -1   2 -11 18746.6 867.131  11
   1   2  12 3040.92 360.416   3
  -1   2 -12 3649.06 389.937  11
   1   2  13 8554.44 598.148   3
  -1   2 -13 7176.75 570.355  12
   1   2  14 33823.8 1154.04   3
  -1   2 -14 30092.0 1124.07  12
   1   2  15 9255.85 564.620   3
  -1   2 -15 8728.29 567.104  12
  -1   2 -16 4779.12 380.569  12
   1   2  16 4762.04 358.966   3
  -1   2 -17 1948.93 204.069  12
  -1   3  17 11169.0 490.960   3
   1   3 -17 10934.2 459.160  12
  -1   3  16 16277.2 699.558   3
   1   3 -16 15110.3 651.655  12
   1   3 -15 4038.78 384.568  12
  -1   3  15 3916.90 382.163   3
  -1   3  14 50958.2 1440.53   3
  -1   3  14 62608.8 1535.83  21
  -1   3  13 9650.64 649.029   3
  -1   3  13 11299.0 686.488  21
  -1   3  12 17665.6 885.865  21
  -1   3  12 16734.4 854.450   3
  -1   3  11 24623.2 1022.69   3
  -1   3  10 19406.3 886.195   3
  -1   3   9 17034.2 1027.32  24
  -1   3   9 17104.7 1071.20  25
  -1   3   8 6000.59 600.816  25
  -1   3   8 6574.83 613.265  24
  -1   3   8 6165.37 574.741  17
  -1   3   7 100060. 2329.56  25
  -1   3   7 101156. 2260.60  17
  -1   3   7 97764.0 2257.55  24
  -1   3   6 84506.4 2001.22  24
  -1   3   6 87535.6 2063.75  25
  -1   3   5 5465.72 486.733  24
  -1   3   5 5090.84 472.453  25
  -1   3   4 103883. 1658.14   2
  -1   3   4 100931. 2003.42  25
  -1   3   4 97468.5 1979.08  24
  -1   3   3 9479.40 591.404  24
  -1   3   3 10289.3 547.716   2
   1   3  -2 14863.9 518.674  24
  -1   3   2 13944.1 661.112   2
  -1   3   2 12753.2 658.320  24
  -1   3   1 87147.1 1665.09  24
  -1   3   1 88097.9 1704.73   2
  -1   3   0 33564.8 1083.59   2
  -1   3   0 33519.7 990.159  24
  -1   3  -1 165053. 2466.75   2
  -1   3  -2 2856.53 288.708  16
  -1   3  -2 3313.73 357.504   2
  -1   3  -2 3806.52 303.832   1
  -1   3  -2 3041.12 285.883  22
  -1   3  -3 160036. 2061.78  22
  -1   3  -3 146235. 2222.37  16
  -1   3  -3 156295. 2214.80   1
  -1   3  -3 150556. 2481.50   2
  -1   3  -4 45282.6 1396.44   2
  -1   3  -4 44209.1 1302.24  16
  -1   3  -4 47933.4 1135.35  22
  -1   3  -5 116275. 2301.96   2
   1   3   5 110969. 2247.93  25
   1   3   6 14840.6 859.454  25
  -1   3  -6 14555.3 837.888   2
  -1   3  -7 22558.7 1068.21   2
   1   3   7 22062.0 1103.90  25
   1   3   8 10382.3 798.502  25
  -1   3  -9 3993.63 385.293  11
   1   3   9 4461.13 420.006   3
   1   3   9 5241.67 592.647  25
   1   3  10 78274.9 1804.62   3
  -1   3 -10 78197.4 1748.04  11
   1   3  11 18280.7 893.212   3
  -1   3 -11 18401.8 869.780  11
   1   3  12 397.188 143.013   3
  -1   3 -12 348.735 120.628  11
  -1   3 -13 5568.78 469.654  11
   1   3  13 5772.22 493.909   3
  -1   3 -13 4567.92 449.172  12
   1   3  14 5868.50 472.189   3
  -1   3 -14 5376.88 459.461  12
   1   3  15 2268.21 268.742   3
  -1   3 -15 2161.23 269.517  12
  -1   3 -16 2324.75 242.861  12
   1   3  16 2543.57 237.706   3
   1   4 -16 3656.01 280.974  12
  -1   4  16 3986.77 298.636   3
  -1   4  15 6151.58 429.726   3
   1   4 -15 5869.85 421.101  12
  -1   4  14 8751.47 565.976   3
  -1   4  13 3055.45 358.037   3
  -1   4  12 27149.9 1093.97   3
  -1   4  11 57915.1 1615.69   3
  -1   4  11 68825.6 1686.46  21
  -1   4  10 24715.7 1012.91  21
  -1   4  10 24806.1 1043.78   3
  -1   4   9 43411.6 1356.02   3
  -1   4   9 47909.7 1394.90  21
  -1   4   8 23710.2 974.794   3
  -1   4   8 25071.5 990.822  21
  -1   4   7 48133.0 1796.83  25
  -1   4   7 49434.9 1786.60  17
  -1   4   7 49111.8 1780.67  24
  -1   4   6 34268.1 1437.01  24
  -1   4   5 38948.8 1476.70  24
  -1   4   4 44714.1 1526.89  24
  -1   4   3 35260.1 1308.62  24
  -1   4   3 37742.4 1270.20   2
  -1   4   2 4058.23 432.471  24
  -1   4   2 2777.16 358.703   2
  -1   4   1 1648.53 278.736   2
  -1   4   1 1680.66 272.264  24
   1   4  -1 1947.24 251.418  24
  -1   4   0 44238.3 1466.32   2
  -1   4   0 42811.8 1313.72  24
  -1   4  -1 35206.9 1335.41   2
  -1   4  -2 50283.6 1365.99  22
  -1   4  -2 47335.8 1579.73   2
  -1   4  -3 55568.2 1487.02  16
  -1   4  -3 57486.5 1783.22   2
  -1   4  -4 36005.4 1442.70   2
  -1   4  -4 35549.3 1248.51  16
  -1   4  -5 17434.8 1029.95   2
  -1   4  -5 17871.4 936.936  16
  -1   4  -6 8197.14 675.162  16
  -1   4  -6 7875.20 705.842   2
   1   4   7 48704.2 1392.33   3
  -1   4  -7 49016.7 1332.27  11
  -1   4  -7 48295.3 1364.24  21
  -1   4  -7 48934.3 1788.40   2
   1   4   8 13114.1 745.123   3
  -1   4  -8 13957.5 733.744  11
   1   4   9 31806.9 1179.03   3
  -1   4  -9 30582.8 1109.30  11
  -1   4 -10 8622.60 595.200  11
   1   4  10 8602.36 622.197   3
   1   4  11 11895.1 727.266   3
  -1   4 -11 11943.8 698.918  11
   1   4  12 2608.09 333.376   3
  -1   4 -12 2576.85 324.008  11
  -1   4 -13 61.0591 68.7739  11
   1   4  13 173.426 87.5199   3
   1   4  14 7834.46 501.573   3
  -1   4 -14 6592.05 462.455  12
  -1   4 -15 13805.0 589.173  12
   1   5 -15 4792.20 314.092  12
  -1   5  14 1916.34 226.421  23
  -1   5  13 3716.40 355.357   3
  -1   5  12 12560.5 698.709   3
  -1   5  11 23890.2 1001.21   3
  -1   5  10 9213.13 636.928   3
  -1   5   9 16779.7 863.626   3
   1   5  -9 20077.7 868.539  11
  -1   5   8 39619.9 1313.76   3
   1   5  -8 33032.5 1125.52  11
  -1   5   7 52087.0 1429.25  21
  -1   5   7 48506.7 1434.97   3
  -1   5   6 42152.3 1270.27  21
  -1   5   5 29950.2 1083.65  23
  -1   5   5 30900.0 1076.74  21
   1   5  -4 45374.3 1306.90  23
  -1   5   4 47263.4 1335.04  23
  -1   5   3 19754.6 1106.69  24
  -1   5   2 2853.87 409.506   2
  -1   5   2 3777.54 467.610  24
  -1   5   1 29011.9 1273.96  24
  -1   5   1 28118.6 1322.11   2
  -1   5   0 60592.9 1973.65   2
  -1   5  -1 3896.93 507.891   2
   1   5   1 3315.17 418.776  24
   1   5   2 69321.6 1974.52  24
  -1   5  -2 61671.7 2059.96   2
   1   5   3 591.318 205.165  24
  -1   5  -3 1621.80 338.776   2
  -1   5  -4 18475.0 1154.36   2
  -1   5  -4 20632.4 883.322  21
   1   5   4 20186.1 1142.74  24
  -1   5  -5 7891.73 560.134  21
  -1   5  -6 15029.4 787.883  21
  -1   5  -7 46407.0 1377.39  11
  -1   5  -8 9440.70 623.426  11
  -1   5  -9 46266.5 1379.42  11
  -1   5 -10 25592.3 1008.20  11
  -1   5 -11 19290.3 847.734  11
  -1   5 -12 1042.79 195.382  11
  -1   5 -13 3292.14 300.467  11
  -1   5 -13 3377.80 317.939  12
   1   5  14 1072.57 160.214  23
  -1   5 -14 919.981 146.233  12
  -1   6  13 7735.38 402.710  23
  -1   6  12 4172.74 338.650  23
  -1   6  11 4377.21 381.343  23
  -1   6  10 10541.9 627.585  23
  -1   6   9 6452.84 509.148  23
   1   6  -9 7340.17 503.270  11
  -1   6   8 25806.8 1035.57  23
   1   6  -8 28321.5 1024.16  11
  -1   6   7 1512.01 255.225  23
  -1   6   6 10278.4 664.919  23
  -1   6   5 21730.0 937.045  21
  -1   6   5 18003.9 877.282  23
  -1   6   4 143440. 2445.77  23
  -1   6   4 107511. 2121.75  21
  -1   6   3 6827.31 535.564  23
   1   6  -3 6978.15 545.677  23
  -1   6   2 6901.20 539.576  23
   1   6  -2 7573.29 566.521  23
   1   6  -1 711.534 175.475  23
  -1   6   1 582.929 145.881  23
  -1   6   1 511.622 147.817  21
   1   6   0 159.315 94.8279  23
  -1   6   0 92.6808 88.2127  23
  -1   6   0 224.035 95.5515  21
  -1   6  -1 46614.3 1367.48  21
  -1   6  -1 45584.7 1397.77  23
   1   6   1 46138.8 1392.81  23
  -1   6  -2 3140.09 360.744  21
   1   6   2 3578.31 385.921  23
  -1   6  -2 3333.31 376.830  23
  -1   6  -3 49836.8 1429.68  21
   1   6   3 52333.5 1474.46  23
  -1   6  -3 48309.8 1440.59  23
  -1   6  -4 1227.45 228.587  21
   1   6   4 850.878 196.678  23
   1   6   5 9804.51 647.956  23
  -1   6  -5 10481.9 668.090  21
   1   6   6 31951.8 1173.86  23
  -1   6  -6 30793.3 1144.59  21
  -1   6  -7 21692.7 941.445  11
   1   6   7 21526.3 961.227  23
  -1   6  -8 13543.4 730.274  11
   1   6   8 13854.1 756.081  23
  -1   6  -9 19399.6 847.777  11
   1   6   9 20184.5 886.822  23
   1   6  10 17070.7 773.832  23
  -1   6 -10 16379.0 738.731  11
  -1   6 -11 2059.47 248.889  11
   1   6  11 2077.16 252.890  23
   1   6  12 1588.62 199.412  23
  -1   6 -12 1987.74 215.302  11
  -1   7  11 1919.64 194.661  23
  -1   7  10 3046.58 278.600  23
   1   7  -9 11102.4 516.224  11
  -1   7   9 10548.0 558.501  23
  -1   7   8 11421.6 615.652  23
   1   7  -8 12441.7 597.093  11
  -1   7   7 5372.83 441.316  23
   1   7  -7 5442.46 420.672  11
  -1   7   6 26074.8 1000.94  23
  -1   7   5 941.845 194.363  23
  -1   7   4 23584.0 991.298  23
  -1   7   3 2375.70 293.027  21
  -1   7   3 1913.61 284.103  23
  -1   7   2 1428.63 247.897  23
  -1   7   2 1214.30 212.812  21
   1   7  -2 1292.38 237.634  23
  -1   7   1 3738.13 403.142  23
  -1   7   1 4238.24 401.828  21
   1   7  -1 4361.39 428.526  23
   1   7   0 58242.8 1577.65  23
  -1   7   0 61139.8 1535.03  21
  -1   7   0 57543.5 1572.08  23
  -1   7  -1 17101.7 811.914  21
   1   7   1 17429.7 861.184  23
  -1   7  -1 16001.4 827.894  23
  -1   7  -2 5365.12 460.164  21
   1   7   2 5135.23 467.858  23
   1   7   3 13758.0 759.128  23
  -1   7  -3 13135.3 719.695  21
   1   7   4 15205.6 783.169  23
  -1   7  -4 14279.7 746.219  21
   1   7   5 17460.6 826.423  23
  -1   7  -6-1.40118 88.5941  11
   1   7   6 45.7460 46.3194  23
  -1   7  -7 2757.78 306.663  11
   1   7   7 3055.25 325.440  23
  -1   7  -8 10878.1 579.033  11
   1   7   8 11354.0 596.887  23
   1   7   9 19496.2 727.669  23
  -1   7  -9 18773.1 702.305  11
   1   7  10 3285.48 272.101  23
  -1   7 -10 3164.18 264.454  11
  -1   8   8 3910.15 269.667  23
   1   8  -7 1487.94 165.607  11
  -1   8   7 2005.45 214.794  23
  -1   8   6 967.375 160.069  23
   1   8  -6 939.343 146.447  11
  -1   8   5 2883.24 288.793  23
  -1   8   4 9823.57 546.075  23
  -1   8   3 6557.16 458.094  23
  -1   8   2 5139.19 410.083  23
  -1   8   1 9598.73 563.908  23
  -1   8   0 11036.9 547.197  21
  -1   8  -1 9096.35 503.364  21
   1   8   1 9718.30 562.676  23
   1   8   2 15906.2 714.416  23
   1   8   3 2391.50 272.042  23
  -1   8  -4 21528.7 776.618  11
   1   8   4 22405.7 806.000  23
   1   8   5 7251.05 440.910  23
  -1   8  -5 7459.53 439.235  11
  -1   8  -6 3314.68 277.873  11
   1   8   6 3510.67 291.222  23
   1   8   7 268.718 79.1260  23
  -1   8  -7 362.138 87.9766  11
  -2  -8   7 12829.3 490.069  13
  -2  -8   7 11501.8 446.403  20
  -2  -8   6 16407.8 575.567  20
  -2  -8   6 17062.0 608.791  13
  -2  -8   5 696.654 132.620  13
  -2  -8   5 572.093 109.862  20
  -2  -8   4 2388.77 231.200  15
  -2  -8   4 2507.52 256.372  13
   2  -8  -4 2733.44 256.825  13
   2  -8  -3 2035.65 225.579  13
  -2  -8   3 1708.96 217.110  13
   2  -8  -2 19662.2 690.249  13
  -2  -8   2 18279.1 708.268  13
  -2  -8   1 10854.2 547.496  13
   2  -8  -1 12036.9 528.767  13
  -2  -8   0 47571.7 1139.68  13
  -2  -8  -1 10517.3 526.544  13
  -2  -8  -2 4037.42 316.403  13
  -2  -8  -3 6918.32 394.780  13
  -2  -8  -4 89.0693 53.2693  13
  -2  -8  -5 3028.84 250.430  15
  -2  -7  10 755.176 132.207  20
  -2  -7   9 5398.13 377.272  13
  -2  -7   9 4968.31 364.164  20
  -2  -7   8 1013.43 178.515  20
  -2  -7   8 1132.11 188.316  13
  -2  -7   7 452.834 129.538  20
  -2  -7   7 384.976 119.240  13
  -2  -7   6 1531.04 238.355  13
  -2  -7   5 18474.8 819.446  13
  -2  -7   4 30099.5 1063.79  13
  -2  -7   3 314.634 119.010  13
  -2  -7   2 4049.63 393.784  13
  -2  -7   1 13802.0 719.861  13
  -2  -7   0 2245.71 291.322  13
   2  -7   0 2709.94 303.242  13
  -2  -7  -1 7097.53 515.122  13
  -2  -7  -1 7634.48 541.366  12
  -2  -7  -2 4725.89 418.623  13
  -2  -7  -2 3994.32 388.047  12
  -2  -7  -3 11063.7 638.896  12
  -2  -7  -3 12251.2 655.850  13
  -2  -7  -4 2500.26 290.493  13
  -2  -7  -4 2132.07 275.655  12
  -2  -7  -5 466.357 124.071  13
  -2  -7  -5 365.343 121.841  12
  -2  -7  -6 7407.88 482.343  12
  -2  -7  -7 2213.26 251.485  12
  -2  -7  -8 15921.8 629.175  12
  -2  -7  -9 1026.90 148.536  12
  -2  -6  13 14702.7 537.813  20
  -2  -6  12 11570.1 542.379  20
  -2  -6  11 308.156 104.408  20
  -2  -6  10 5457.95 432.020  20
  -2  -6  10 5441.89 430.809  13
  -2  -6   9 961.838 196.395  13
  -2  -6   9 743.650 172.569  20
  -2  -6   8 1372.53 235.086  20
  -2  -6   8 1825.33 272.969  13
  -2  -6   7 46315.9 1365.17  13
  -2  -6   6 17368.8 839.805  13
  -2  -6   5 21446.5 934.871  13
  -2  -6   4 2047.46 293.673  13
  -2  -6   3 18445.0 862.414  13
  -2  -6   2 16601.6 813.143  13
  -2  -6   1 29985.6 1091.94  13
  -2  -6   1 28715.2 1076.14  12
  -2  -6   0 4996.07 448.186  13
  -2  -6   0 5552.86 475.647  12
  -2  -6  -1 4954.83 445.518  13
  -2  -6  -1 4844.17 443.031  12
  -2  -6  -2 1582.73 255.045  12
  -2  -6  -3 14349.9 766.410  12
  -2  -6  -4 46965.2 1382.43  12
  -2  -6  -5 5929.46 490.365  12
  -2  -6  -6 1656.07 257.907  12
  -2  -6  -7 10348.9 629.628  12
  -2  -6  -8 32684.5 1086.32  12
  -2  -6  -9 613.459 146.063  12
  -2  -6 -10 15088.1 656.542  12
  -2  -6 -11 1338.94 177.364  12
  -2  -6 -12 7645.92 364.282  12
  -2  -5  15 817.596 125.371  20
  -2  -5  14 7704.50 436.214  20
  -2  -5  13 5213.44 398.831  20
  -2  -5  12 16584.7 763.763  20
  -2  -5  11 1565.20 255.265  20
  -2  -5  11 1772.61 264.841  13
  -2  -5  10 43077.9 1314.74  20
  -2  -5  10 45742.3 1352.97  13
  -2  -5   9 399.137 121.438  20
  -2  -5   9 849.377 173.965  13
  -2  -5   8 4324.40 424.489  13
  -2  -5   7 26389.0 1027.70  13
  -2  -5   6 19277.2 872.548  13
  -2  -5   5 33337.1 1132.49  13
  -2  -5   4 1708.79 255.753  13
  -2  -5   3 711.175 164.322  13
  -2  -5   3 868.912 178.516  12
  -2  -5   3 734.554 160.315   7
  -2  -5   3 1084.99 258.304  26
  -2  -5   2 16156.6 983.106  26
  -2  -5   2 17765.4 799.376  12
  -2  -5   2 16839.2 967.539  19
  -2  -5   2 17617.3 796.669  13
  -2  -5   1 2832.27 422.513  26
  -2  -5   1 2537.45 296.404  13
  -2  -5   1 2543.26 301.526  12
  -2  -5   0 68500.7 1552.48  13
  -2  -5   0 65491.9 2021.47  26
  -2  -5   0 65655.4 1536.80  12
   2  -5   1 14759.9 957.259  19
  -2  -5  -1 13380.9 927.532  26
  -2  -5  -1 13680.6 702.983  12
  -2  -5  -2 63075.1 2038.05  26
   2  -5   2 64262.3 1999.32  19
  -2  -5  -2 67185.4 1581.04  12
  -2  -5  -3 9208.26 591.330  12
  -2  -5  -4 2985.43 342.453  12
  -2  -5  -5 20899.8 913.846  12
  -2  -5  -6 17078.3 837.155  12
  -2  -5  -7 70347.7 1710.27  12
  -2  -5  -8 62757.6 1609.82  12
  -2  -5  -9 20011.7 896.780  12
  -2  -5 -10 10391.7 628.073  12
  -2  -5 -11 2765.98 306.832  12
  -2  -5 -12 1619.43 218.235  12
  -2  -5 -13 638.928 124.597  12
  -2  -4  16 170.849 61.0937  20
  -2  -4  15 1653.98 211.737  20
  -2  -4  14 226.867 103.993  20
  -2  -4  13 6651.30 499.768  20
  -2  -4  13 7154.29 484.079   9
  -2  -4  12 3748.01 390.808  20
  -2  -4  12 4703.57 416.965   9
  -2  -4  11 6675.81 529.515  20
  -2  -4  11 7414.10 532.669   9
  -2  -4  10 3699.42 394.681  20
  -2  -4  10 2536.26 317.944   9
  -2  -4  10 3269.26 371.141  13
  -2  -4   9 10455.3 653.901  20
  -2  -4   9 9775.46 627.219  13
  -2  -4   8 14979.7 730.091   9
  -2  -4   8 14471.9 748.995  13
  -2  -4   7 56105.4 1371.35   9
  -2  -4   7 54795.5 1416.07  13
  -2  -4   7 51373.6 1761.53  26
  -2  -4   6 146587. 2916.83  26
  -2  -4   5 9413.33 721.482  26
  -2  -4   4 5485.08 533.194  26
  -2  -4   3 6245.77 559.398  26
  -2  -4   3 5642.05 512.274  19
  -2  -4   2 29407.0 1123.89  19
  -2  -4   2 30505.3 1240.60  26
  -2  -4   1 328.211 129.647  19
  -2  -4   1 434.860 150.499  26
  -2  -4   0 2563.25 318.943  19
  -2  -4   0 2776.32 377.901  26
  -2  -4  -1 6167.54 572.199  26
  -2  -4  -2 26657.7 1191.84  26
   2  -4   2 27965.0 1170.38  19
   2  -4   3 31425.4 1245.62  19
  -2  -4  -3 29752.3 1282.46  26
  -2  -4  -4 60530.8 1894.01  26
   2  -4   4 59966.9 1747.99  19
   2  -4   5 8263.63 716.728  18
   2  -4   5 9279.23 705.043  19
  -2  -4  -6 19635.7 875.770  12
  -2  -4  -7 5778.30 486.481  12
  -2  -4  -8 9023.25 623.280  12
  -2  -4  -9 12290.4 735.673  12
  -2  -4 -10 449.953 138.756  12
  -2  -4 -11 13273.3 742.658  12
  -2  -4 -12 3744.26 379.296  12
  -2  -4 -13 4399.59 381.267  12
  -2  -4 -14 2641.00 259.537  12
  -2  -4 -15 15249.4 520.642  12
  -2  -3  17 1928.18 197.708   3
  -2  -3  17 2097.23 200.866  20
  -2  -3  16 3581.89 309.814  20
  -2  -3  15 699.938 165.222  20
  -2  -3  14 3815.44 379.226  20
  -2  -3  13 3077.59 357.376  20
  -2  -3  13 3734.66 378.989   9
  -2  -3  12 9201.96 620.347  20
  -2  -3  12 10218.3 640.277   9
  -2  -3  11 10549.2 664.843  20
  -2  -3  11 11866.0 685.585   9
  -2  -3  10 2868.63 344.280  20
  -2  -3  10 3000.39 343.325   9
  -2  -3  10 2969.90 341.982  13
  -2  -3   9 79936.8 1709.68  20
  -2  -3   9 54026.5 1406.14   9
  -2  -3   9 54473.9 1431.01  13
  -2  -3   9 73105.6 2123.25  26
  -2  -3   9 75304.2 2240.43  25
  -2  -3   8 2577.31 379.181  26
  -2  -3   7 8241.65 655.757  26
  -2  -3   6 7694.58 611.106  26
  -2  -3   5 34473.5 1240.20  26
  -2  -3   4 190845. 2800.85  26
  -2  -3   3 220855. 2933.93  26
  -2  -3   2 40824.7 1113.86  19
  -2  -3   2 39846.7 1247.06  26
  -2  -3   1 259082. 2709.32  19
  -2  -3   1 258881. 3171.42  26
  -2  -3   0 75826.9 1426.26  19
  -2  -3   0 74603.3 1721.57  26
  -2  -3  -1 19881.3 721.425  19
  -2  -3  -1 18642.9 865.961  26
  -2  -3  -2 34855.7 1210.96  26
   2  -3   2 36909.9 1139.50  19
   2  -3   3 17880.2 808.872  19
   2  -3   4 4523.92 416.641  19
   2  -3   5 31564.4 1268.54  18
   2  -3   6 9441.53 729.333  18
   2  -3   7 21845.5 1163.71  18
  -2  -3  -8 3980.60 391.675  12
  -2  -3  -9 48070.6 1396.50  12
  -2  -3 -10 6168.90 510.214  12
  -2  -3 -11 3939.74 413.714  12
  -2  -3 -12 10420.3 656.851  12
  -2  -3 -13 3030.35 345.651  12
  -2  -3 -14 2838.21 311.750  12
  -2  -3 -15 1628.40 209.250  12
  -2  -2  17 7539.00 442.415   3
  -2  -2  16 16682.2 720.662  20
  -2  -2  15 93207.0 1856.03  20
  -2  -2  14 26474.6 1038.10  20
  -2  -2  13 9970.07 648.856  20
  -2  -2  13 10744.6 663.749   9
  -2  -2  12 1510.80 251.570   9
  -2  -2  12 476.726 144.593  20
  -2  -2  11 20753.5 914.171  20
  -2  -2  11 22003.4 929.592   9
  -2  -2  10 23983.9 938.352  20
  -2  -2  10 22389.5 1218.74  25
  -2  -2   9 21755.7 1134.54  25
  -2  -2   8 65325.6 1845.55  25
  -2  -2   8 63456.0 1777.89  26
  -2  -2   7 11214.3 707.763  26
  -2  -2   6 16184.1 806.195  26
  -2  -2   5 82490.8 1757.11  26
  -2  -2   4 34011.0 1056.71  26
  -2  -2   3 24425.5 863.029  26
  -2  -2   2 11466.3 589.277  26
  -2  -2   1 60682.4 1330.08  26
  -2  -2   0 95693.1 1376.36   1
  -2  -2   0 93846.4 1392.27  14
  -2  -2  -1 123478. 1326.23  19
  -2  -2  -1 119883. 1913.43  26
  -2  -2  -2 43164.1 949.892   1
   2  -2   2 41667.1 995.163  19
   2  -2   3 90664.4 1489.02  19
  -2  -2  -3 91129.1 1470.91   1
   2  -2   4 14579.7 626.384  19
   2  -2   4 13845.5 727.320  18
  -2  -2  -4 15292.9 644.480   1
  -2  -2  -5 39761.4 1136.66   1
   2  -2   5 38080.1 1273.33  18
   2  -2   6 115674. 2371.01  18
   2  -2   6 119469. 2117.47  25
   2  -2   7 9357.10 637.928  25
   2  -2   7 8516.74 680.039  18
   2  -2   8 3856.07 484.685  18
  -2  -2  -9 76920.8 1734.00  12
  -2  -2 -10 35290.2 1207.22  12
  -2  -2 -11 92851.3 2000.94  12
  -2  -2 -12 12258.0 725.029  12
  -2  -2 -13 1904.92 281.599  12
  -2  -2 -14 383.310 134.287  12
  -2  -2 -15 5944.11 428.738  12
  -2  -2 -16 103.550 56.7016  12
  -2  -1  18 1188.67 155.159   3
  -2  -1  17 1781.92 225.256   3
  -2  -1  16 3815.58 360.508  20
  -2  -1  16 3447.43 356.288   3
  -2  -1  15 6010.07 485.579  20
  -2  -1  14 22948.5 982.704  20
  -2  -1  13 1748.17 277.615  20
  -2  -1  13 1284.20 232.127   9
  -2  -1  12 38490.4 1250.70  20
  -2  -1  12 39465.2 1261.42   9
  -2  -1  11 2825.60 329.484  20
  -2  -1  11 3132.10 347.198   9
  -2  -1  10 71618.4 2116.01  25
  -2  -1   9 19983.9 1047.79  25
  -2  -1   8 25534.7 1095.04  25
  -2  -1   7 37955.1 1217.07  26
  -2  -1   7 38975.1 1249.87  25
  -2  -1   6 21228.2 845.976  25
  -2  -1   6 18572.8 795.410  26
  -2  -1   5 76527.6 1461.93  25
  -2  -1   5 74366.6 1499.76  26
  -2  -1   4 238040. 2514.34  26
  -2  -1   3 249366. 2398.01  26
  -2  -1   2 359867. 2795.79  26
  -2  -1   1 34675.2 851.616   1
  -2  -1   1 34968.1 855.262  26
  -2  -1   0 10147.4 458.036  26
  -2  -1   0 12351.4 498.054   1
  -2  -1  -1 57138.1 1103.57   1
  -2  -1  -1 56004.8 878.005  16
   2  -1   2 27866.2 587.778  19
  -2  -1  -2 27025.6 689.049  16
  -2  -1  -2 26566.8 783.740   1
  -2  -1  -3 43806.1 1080.74   1
   2  -1   3 43127.7 1088.22  18
   2  -1   4 40574.3 1148.51  18
  -2  -1  -4 40191.2 1129.93   1
   2  -1   4 43764.2 943.399  25
   2  -1   5 167066. 2480.24  18
  -2  -1  -5 169159. 2496.22   1
   2  -1   6 18539.1 895.073  18
  -2  -1  -6 17037.5 854.336   1
   2  -1   6 18051.1 754.557  25
  -2  -1  -7 8417.07 644.569   1
   2  -1   7 7457.74 535.423  25
  -2  -1  -8 20248.6 1074.41   1
  -2  -1  -9 15600.9 994.744   1
  -2  -1 -10 30252.8 1107.91  12
  -2  -1 -11 13671.1 765.622  12
  -2  -1 -12 44448.8 1399.80  12
  -2  -1 -13 7099.58 552.099  12
  -2  -1 -14 9706.95 621.523  12
  -2  -1 -15 14755.6 706.012  12
  -2  -1 -16 176.195 84.6838  12
  -2   0  18 11418.9 480.744   3
  -2   0  17 6623.07 439.665   3
  -2   0  16 6612.04 491.590   3
  -2   0  15 4419.54 429.300   3
  -2   0  14 1040.31 209.822  20
  -2   0  13 4932.24 457.800  20
  -2   0  12 1621.09 252.830  20
  -2   0  11 499.047 201.413  25
  -2   0  11 632.569 151.272  20
  -2   0  11 620.636 153.710   9
  -2   0  10 18843.4 1068.03  25
  -2   0   9 1018.91 236.475  25
  -2   0   8 7335.70 577.182  25
  -2   0   7 48436.8 1361.74  25
  -2   0   6 27443.3 934.616  25
  -2   0   5 3349.48 292.435  25
  -2   0   5 3305.42 291.578  26
  -2   0   4 1870.37 199.855  26
  -2   0   4 1684.40 183.762  25
  -2   0   3 145317. 1615.73  26
  -2   0   2 4645.16 209.957  25
  -2   0   1 7405.89 315.194  26
  -2   0   1 5900.64 148.710  25
  -2   0   0 91887.6 1386.14  14
  -2   0   0 94765.2 1108.65  26
   2   0   1 1813.02 165.113  18
  -2   0  -1 1456.38 168.579  16
  -2   0  -1 1518.88 187.611   1
  -2   0  -2 222257. 2370.29   1
   2   0   2 217819. 2067.77  18
  -2   0  -2 223013. 2253.53  16
   2   0   3 141992. 1840.32  18
   2   0   3 147647. 1338.67  25
  -2   0  -3 143105. 2057.92   1
  -2   0  -4 5616.33 442.329   1
   2   0   4 5816.74 321.632  25
  -2   0  -5 125371. 2248.19   1
   2   0   5 128955. 1756.69  25
  -2   0  -6 35370.3 1288.60   1
   2   0   6 37803.8 1062.20  25
  -2   0  -7 61983.3 1837.80   1
   2   0   7 64849.3 1534.95  25
  -2   0  -8 12574.3 876.059   1
  -2   0  -9 10225.9 845.949   1
  -2   0 -10 9442.37 576.482   8
  -2   0 -10 9412.38 612.112  12
  -2   0 -11 40013.5 1306.79  12
  -2   0 -12 19468.3 928.726  12
  -2   0 -13 9513.26 646.626  12
  -2   0 -14 6936.45 525.965  12
  -2   0 -15 45.6479 64.5318  12
  -2   0 -16 39458.5 1034.54  12
  -2   0 -17 18841.3 590.719  12
  -2   1  18 1529.41 173.165   3
  -2   1  17 1735.13 220.268   3
  -2   1  16 3418.96 348.320   3
  -2   1  15 6546.70 512.457   3
  -2   1  14 23192.4 1003.35   3
  -2   1  13 1546.75 265.109   3
  -2   1  12 39152.6 1296.85   3
  -2   1  12 36722.0 1220.92  20
  -2   1  11 2476.74 308.003  20
  -2   1  10 71490.3 2123.44  25
  -2   1   9 20244.8 1056.74  25
  -2   1   8 25651.5 1106.36  25
  -2   1   8 26830.3 1060.18  14
  -2   1   7 39284.3 1101.29  24
  -2   1   7 39928.6 1221.40  14
  -2   1   7 38331.3 1247.20  25
  -2   1   6 19565.2 807.926  14
  -2   1   6 20138.9 755.094  24
  -2   1   6 19133.2 810.458  25
  -2   1   5 74612.4 1560.32  17
  -2   1   5 74804.8 1399.18  24
  -2   1   5 77835.3 1531.14  14
  -2   1   5 75177.3 1457.42  25
  -2   1   4 234364. 2659.14  17
  -2   1   4 238077. 2352.43  25
  -2   1   3 257008. 2567.40  14
  -2   1   3 250711. 2642.45  17
  -2   1   2 364278. 2840.56  22
  -2   1   2 357469. 3025.90  17
  -2   1   2 367097. 2974.41  14
  -2   1   2 355457. 2813.34   1
  -2   1   2 373473. 2259.74  25
  -2   1   1 33486.0 881.327  17
  -2   1   1 32990.5 853.021  22
  -2   1   1 33799.7 854.013   1
  -2   1   0 9457.65 469.531  22
  -2   1   0 10387.6 487.640   1
  -2   1  -1 56624.1 1168.73  22
  -2   1  -1 54887.9 1163.19  16
  -2   1  -1 55855.6 1173.70   1
  -2   1  -1 52690.8 487.674  26
  -2   1  -2 26821.5 870.228   1
  -2   1  -2 26581.1 865.202  16
  -2   1  -3 42643.0 1177.50   1
   2   1   3 44157.0 868.874  25
   2   1   4 41203.9 965.451  25
  -2   1  -4 40949.7 1248.25   1
   2   1   5 173683. 2198.30  25
  -2   1  -5 164201. 2706.31   1
  -2   1  -6 15929.9 894.890   1
   2   1   6 17939.4 780.651  25
   2   1   7 7186.78 538.288  25
  -2   1  -7 7235.79 648.988   1
  -2   1  -8 19768.8 1138.94   1
  -2   1  -9 14159.2 1015.39   1
  -2   1 -10 29828.5 1093.59  11
  -2   1 -10 29982.3 1108.53  12
  -2   1 -11 13948.2 773.174  12
  -2   1 -11 9786.09 615.595   8
  -2   1 -12 49593.9 1372.50   8
  -2   1 -12 44410.4 1393.48  12
  -2   1 -13 6947.98 548.538  12
  -2   1 -14 10117.8 635.590  12
  -2   1 -15 13830.0 685.052  12
  -2   1 -16 68.9183 63.2667  12
  -2   2  17 7861.97 443.803   3
  -2   2  17 8566.84 450.122  21
  -2   2  16 17396.5 763.697  21
  -2   2  16 15489.5 703.867   3
   2   2 -16 17128.4 682.211  12
  -2   2  15 89617.8 1839.57   3
   2   2 -15 99871.5 1862.54  12
  -2   2  14 27811.5 1078.50   3
   2   2 -14 29726.8 1091.71  12
  -2   2  13 10614.6 677.014   3
  -2   2  12 604.181 165.326   3
  -2   2  11 20211.1 909.216   3
  -2   2  10 22265.0 1232.62  25
  -2   2  10 25246.0 971.761   3
  -2   2   9 21924.0 1154.83  25
  -2   2   8 68110.6 1776.58  24
  -2   2   8 66227.1 1890.45  25
  -2   2   8 65423.0 1829.19  17
  -2   2   7 10894.7 689.758  24
  -2   2   7 11332.2 729.583  17
  -2   2   7 11164.2 724.349  25
  -2   2   6 16067.8 833.291  17
  -2   2   6 17061.6 743.536  14
  -2   2   6 15051.2 770.022  24
  -2   2   6 15990.1 806.735  25
  -2   2   5 83304.8 1818.34  17
  -2   2   5 85498.8 1739.80  25
  -2   2   5 80796.2 1716.05  24
  -2   2   4 33536.7 1114.58  17
  -2   2   4 33517.0 1063.81  24
  -2   2   4 35189.2 1030.22  25
  -2   2   3 24694.6 880.204  24
  -2   2   3 25116.0 930.667  17
  -2   2   3 25712.7 821.873  25
  -2   2   2 10452.8 577.608  17
  -2   2   2 11156.8 506.242   1
  -2   2   1 56800.3 1295.02  17
  -2   2   1 58837.9 1167.43   1
  -2   2   0 93074.2 1507.17   1
  -2   2   0 90214.4 1569.41  17
  -2   2   0 91929.1 1624.65  22
  -2   2  -1 120695. 1884.86  22
  -2   2  -1 122662. 1761.56  17
  -2   2  -1 122251. 1828.97   1
  -2   2  -1 116581. 1918.72  16
  -2   2  -2 40652.9 1108.44  22
  -2   2  -2 40922.8 1128.18   1
  -2   2  -2 42231.5 984.283  17
  -2   2  -3 87107.1 1814.61  16
  -2   2  -3 89012.8 1790.07   1
  -2   2  -3 92605.4 1376.00  17
  -2   2  -4 13627.8 763.499  16
  -2   2  -4 14435.8 782.970   1
   2   2   4 15401.1 692.638  25
  -2   2  -5 37395.2 1349.73   1
   2   2   5 38760.3 1180.25  25
  -2   2  -6 115111. 2513.98   1
   2   2   6 124534. 2244.79  25
   2   2   7 9653.79 672.820  25
  -2   2  -7 8155.92 713.884   1
  -2   2  -8 3195.59 474.442   1
  -2   2  -9 71379.0 2345.54   1
  -2   2  -9 76694.1 1701.09  11
  -2   2 -10 36559.5 1211.50  11
  -2   2 -11 98081.9 2041.88  11
   2   2  11 102201. 2022.19   3
  -2   2 -11 95341.9 2032.29  12
   2   2  12 14247.9 752.673   3
  -2   2 -12 12837.7 748.159  12
   2   2  13 1801.97 258.090   3
  -2   2 -13 1584.06 236.652   8
  -2   2 -13 1573.15 257.981  12
  -2   2 -14 481.349 133.952  12
  -2   2 -15 6359.90 443.646  12
  -2   2 -16 71.8537 39.9990  12
  -2   3  17 2245.76 207.889   3
  -2   3  16 3287.58 291.105  21
  -2   3  16 3305.15 303.378   3
   2   3 -16 3170.42 275.632  12
  -2   3  15 560.629 145.867  21
   2   3 -15 683.117 158.593  12
  -2   3  15 645.030 151.851   3
  -2   3  14 4587.22 430.609  21
  -2   3  14 4336.65 409.810   3
  -2   3  13 3841.82 415.219  21
  -2   3  13 3486.24 383.267   3
  -2   3  12 9874.74 681.221  21
  -2   3  12 8481.01 604.827   3
  -2   3  11 10422.8 658.975   3
  -2   3  11 12669.5 764.866  21
  -2   3  10 3650.83 409.449  21
  -2   3  10 3394.24 368.581   3
  -2   3   9 81782.2 1694.60  10
  -2   3   9 76411.4 2231.91  17
  -2   3   9 83566.5 1754.73   3
  -2   3   9 75907.2 2189.23  24
  -2   3   9 76222.2 2281.87  25
  -2   3   8 2951.19 427.850  17
  -2   3   8 2467.62 397.617  25
  -2   3   8 3002.11 424.904  24
  -2   3   7 7527.70 660.999  17
  -2   3   7 7772.77 659.028  25
  -2   3   7 7912.64 666.250  24
  -2   3   6 7159.70 604.240  25
  -2   3   6 6778.56 589.805  24
  -2   3   5 36803.0 1370.87  17
  -2   3   5 37182.4 1303.91  25
  -2   3   5 34592.9 1282.03  24
  -2   3   4 188063. 2980.92  17
  -2   3   4 186206. 2866.98  24
  -2   3   3 215758. 3013.14  24
  -2   3   3 219028. 3123.72  17
  -2   3   2 43835.3 1358.38  17
  -2   3   1 247071. 3132.64  17
  -2   3   1 258105. 2473.67   1
  -2   3   0 71868.5 1728.12   2
  -2   3   0 73419.9 1387.76   1
  -2   3   0 76627.3 1687.79  17
  -2   3   0 74418.9 1667.38  22
  -2   3  -1 17715.4 876.455   2
  -2   3  -1 19365.3 844.739  22
  -2   3  -1 20764.7 855.003  17
  -2   3  -1 19827.6 767.868   1
  -2   3  -2 34938.6 1255.57   2
  -2   3  -2 37095.4 1173.92  22
  -2   3  -2 37067.6 1104.56  17
  -2   3  -2 37003.6 1130.00   1
  -2   3  -2 34729.0 1192.13  16
  -2   3  -3 17379.0 814.712  22
  -2   3  -3 15951.4 797.611   1
  -2   3  -3 15701.2 860.820   2
  -2   3  -3 14897.2 806.816  16
  -2   3  -4 5267.52 512.090   2
  -2   3  -4 4078.84 430.204   1
  -2   3  -4 3951.02 438.920  16
  -2   3  -5 30793.4 1289.47  16
  -2   3  -5 33243.9 1318.37   1
  -2   3  -6 8724.67 725.692  16
  -2   3  -6 9539.36 755.882   1
  -2   3  -7 19824.8 1141.78  16
   2   3   7 21816.8 1117.54  25
  -2   3  -7 21739.7 1200.54   1
   2   3   8 4245.68 405.687   3
  -2   3  -8 3570.27 509.246   1
  -2   3  -8 4411.73 408.760  11
   2   3   9 31461.7 1136.31   3
  -2   3  -9 46499.4 1358.35  11
  -2   3 -10 6797.46 535.011  11
   2   3  10 4355.87 432.331   3
  -2   3 -11 4692.64 443.730  11
   2   3  11 4481.70 436.031   3
  -2   3 -12 10042.2 649.430  11
   2   3  12 11519.3 677.649   3
  -2   3 -12 10326.6 660.241  12
   2   3  13 3207.91 338.713   3
  -2   3 -13 2792.70 331.050  12
   2   3  14 3705.75 324.898   3
  -2   3 -14 3033.95 315.299  12
  -2   3 -14 3061.67 287.823   8
  -2   3 -15 1221.99 178.513  12
  -2   4  15 1978.14 230.212   3
   2   4 -15 1932.92 228.386  12
  -2   4  15 2184.06 230.010  21
  -2   4  14 285.882 94.3230  21
  -2   4  14 400.722 123.123   3
  -2   4  13 7525.41 544.645  21
  -2   4  13 7338.58 527.662   3
  -2   4  12 3728.02 402.616  21
  -2   4  12 3424.35 380.742   3
  -2   4  11 6738.51 546.621  21
  -2   4  11 6948.45 545.491   3
  -2   4  10 3353.84 380.895   3
  -2   4  10 3495.79 397.958  21
  -2   4   9 10075.8 646.102   3
  -2   4   9 10744.5 690.219  21
  -2   4   8 14079.8 776.977  21
  -2   4   8 13978.8 743.605   3
  -2   4   8 14337.0 739.503  10
  -2   4   7 49752.5 1867.65  17
  -2   4   7 51563.6 1858.40  24
  -2   4   6 145753. 3128.89  17
  -2   4   6 139670. 2977.50  24
  -2   4   5 9753.94 791.999  17
  -2   4   5 9587.11 759.320  24
  -2   4   4 6867.81 642.369  17
  -2   4   4 4783.85 520.766  24
  -2   4   3 5683.05 576.089  17
  -2   4   2 28840.4 1260.07  17
  -2   4   1 1069.06 245.159   2
  -2   4   1 394.945 144.421  17
  -2   4   0 2490.88 367.284   2
  -2   4   0 2855.69 367.716  22
  -2   4   0 2168.30 325.899  17
  -2   4  -1 5019.03 531.225   2
  -2   4  -1 5694.05 524.896  17
  -2   4  -1 6176.40 539.140  22
  -2   4  -2 27780.5 1140.12  22
  -2   4  -2 28140.5 1126.86  17
  -2   4  -2 25161.3 1211.93   2
  -2   4  -3 19782.9 965.473  22
  -2   4  -3 29054.7 1328.87   2
  -2   4  -4 59232.9 1933.89   2
  -2   4  -4 60318.9 1846.75  16
  -2   4  -5 8586.45 724.624  16
  -2   4  -5 9221.20 777.975   2
  -2   4  -6 19998.6 869.742  21
  -2   4  -6 19084.8 839.328  11
   2   4   6 19335.1 877.971   3
  -2   4  -6 17605.2 1069.11  16
  -2   4  -7 5604.33 473.372  21
  -2   4  -7 5390.29 456.527  11
   2   4   7 5653.79 483.076   3
  -2   4  -8 7493.72 552.405  11
   2   4   8 8470.98 604.678   3
  -2   4  -9 12397.1 721.269  11
   2   4   9 12564.6 747.056   3
   2   4  10 282.187 118.078   3
  -2   4 -10 811.473 187.013  11
  -2   4 -11 12605.9 716.816  11
   2   4  11 14464.1 766.772   3
  -2   4 -12 3708.78 377.488  11
   2   4  12 3934.15 379.926   3
  -2   4 -12 3785.25 377.139  12
  -2   4 -13 3903.50 352.325  12
  -2   4 -14 2410.31 228.861   8
  -2   4 -14 2774.99 262.457  12
  -2   5  14 6634.75 367.672  23
  -2   5  13 4611.24 353.794  21
  -2   5  13 5490.64 388.573  23
  -2   5  12 18197.1 776.548  23
  -2   5  12 18040.7 774.398  21
  -2   5  12 16962.9 767.742   3
  -2   5  11 1614.82 251.085  23
  -2   5  11 1938.74 275.625  21
  -2   5  11 1457.64 242.736   3
  -2   5  10 43673.3 1319.83  23
  -2   5  10 43854.1 1345.86  21
  -2   5  10 43577.6 1332.66   3
  -2   5   9 435.860 140.792  21
  -2   5   9 436.956 132.182  23
  -2   5   9 379.783 130.093   3
  -2   5   8 3715.79 393.157  23
  -2   5   8 4648.40 438.274   3
  -2   5   8 4122.28 422.122  21
  -2   5   7 26772.2 1043.76  23
  -2   5   7 28770.2 1106.23  21
  -2   5   6 21642.6 929.603  23
  -2   5   6 20734.2 928.559  21
  -2   5   5 34455.0 1153.13  23
  -2   5   5 34403.8 1191.30  21
  -2   5   4 1720.73 256.825  23
  -2   5   4 1712.47 262.473  21
  -2   5   3 583.236 142.135  23
  -2   5   3 565.993 151.833  21
  -2   5   2 17987.5 841.764  21
  -2   5   2 16548.5 1074.41  17
  -2   5   1 3030.18 348.388  21
  -2   5   1 2427.08 408.166  17
  -2   5   0 61244.2 2053.93   2
  -2   5   0 62642.6 1947.44  22
  -2   5   0 60255.4 1975.10  17
  -2   5  -1 14266.9 728.328  23
  -2   5  -1 14855.5 1022.97   2
  -2   5  -1 14782.8 932.624  22
  -2   5  -1 14578.1 749.734  21
  -2   5  -1 14005.1 930.612  17
   2   5   2 65434.8 1546.90  23
  -2   5  -2 66827.1 1609.51  21
  -2   5  -2 70570.0 1620.79  23
   2   5   3 9675.57 606.222  23
  -2   5  -3 8840.36 591.422  21
   2   5   4 1892.84 275.294  23
  -2   5  -4 2649.53 325.594  21
   2   5   5 14107.0 762.305  23
  -2   5  -5 19911.4 903.289  21
  -2   5  -6 17230.6 852.268  21
  -2   5  -6 17874.1 855.124  11
  -2   5  -7 67518.9 1672.26  11
  -2   5  -7 67519.0 1701.35  21
  -2   5  -8 60278.8 1579.66  11
  -2   5  -9 18750.4 869.883  11
  -2   5 -10 10599.9 637.951  11
  -2   5 -11 3252.82 339.854  11
  -2   5 -12 1371.39 210.060  11
  -2   5 -12 1681.34 213.495  12
   2   5  13 370.387 91.4477  23
  -2   5 -13 319.662 84.1824  12
  -2   6  12 11056.9 492.101  23
  -2   6  11 298.446 96.4109  23
  -2   6  11 197.478 77.2486  21
  -2   6  10 4924.99 398.669  23
  -2   6  10 5521.45 420.536  21
  -2   6   9 979.105 191.521  23
  -2   6   9 932.242 184.472  21
  -2   6   8 1424.07 235.031  21
  -2   6   8 1531.54 242.513  23
  -2   6   7 46502.1 1353.90  23
  -2   6   7 48807.9 1416.23  21
  -2   6   6 16787.1 821.837  23
  -2   6   6 17485.4 859.330  21
  -2   6   5 22959.3 993.549  21
  -2   6   5 21841.0 948.922  23
  -2   6   4 1611.37 260.983  23
  -2   6   4 1706.38 275.472  21
  -2   6   3 19981.9 913.194  23
  -2   6   3 20161.5 937.965  21
   2   6  -3 20047.8 903.391  23
  -2   6   2 17381.3 851.752  23
  -2   6   2 17936.2 877.592  21
  -2   6   1 30286.9 1132.47  23
  -2   6   1 30385.6 1133.68  21
  -2   6   0 5820.91 495.550  21
  -2   6   0 5433.26 475.924  23
  -2   6  -1 5084.74 462.057  21
  -2   6  -1 4729.94 445.714  23
   2   6   2 1388.39 244.392  23
  -2   6  -2 1803.43 276.007  21
   2   6   3 14910.9 782.405  23
  -2   6  -3 13827.0 763.578  21
   2   6   4 48560.7 1405.86  23
  -2   6  -4 44803.3 1378.03  21
   2   6   5 6656.16 522.390  23
  -2   6  -5 5827.23 500.372  21
  -2   6  -5 6201.71 506.782  11
   2   6   6 1682.95 260.191  23
  -2   6  -6 1786.62 276.371  21
  -2   6  -6 1501.53 251.108  11
   2   6   7 10139.4 623.417  23
  -2   6  -7 9380.98 606.492  11
   2   6   8 34268.0 1116.08  23
  -2   6  -8 33296.3 1109.57  11
  -2   6  -9 442.226 138.993  11
   2   6   9 564.869 147.757  23
   2   6  10 16038.9 673.919  23
  -2   6 -10 15310.7 679.166  11
  -2   6 -11 1644.27 204.322  11
   2   6  11 1834.98 204.674  23
  -2   7  10 568.124 110.049  23
  -2   7   9 4988.56 353.539  23
  -2   7   8 867.215 158.632  23
  -2   7   8 703.572 137.026  21
  -2   7   7 324.002 111.232  23
  -2   7   7 438.678 122.256  21
  -2   7   6 1605.43 239.364  23
  -2   7   6 1584.28 231.675  21
  -2   7   5 17796.7 813.790  23
  -2   7   5 19152.6 823.497  21
  -2   7   4 29665.4 1069.68  23
  -2   7   4 32078.9 1089.68  21
  -2   7   3 153.243 70.8336  23
  -2   7   3 164.249 89.8862  21
  -2   7   2 3696.11 381.194  21
  -2   7   2 3952.03 391.564  23
  -2   7   1 15328.0 777.684  21
  -2   7   1 15141.0 780.201  23
   2   7  -1 16252.3 790.995  23
  -2   7   0 2536.08 314.025  23
  -2   7   0 2237.51 297.001  21
   2   7   0 2140.54 290.505  23
  -2   7  -1 7003.12 525.093  21
   2   7   1 7656.72 543.991  23
   2   7   2 4862.73 431.967  23
  -2   7  -2 4224.31 408.620  21
   2   7   3 12332.1 682.312  23
  -2   7  -3 12122.3 684.689  21
   2   7   4 2683.47 315.654  23
  -2   7  -4 2814.90 321.962  11
  -2   7  -4 2262.02 293.726  21
  -2   7  -5 326.504 126.414  21
   2   7   5 238.557 80.7275  23
   2   7   6 7843.98 497.937  23
  -2   7  -6 6509.28 461.500  11
   2   7   7 2508.09 267.563  23
  -2   7  -7 2373.79 272.124  11
   2   7   8 16701.0 635.876  23
  -2   7  -8 16099.3 651.549  11
   2   7   9 819.407 127.397  23
  -2   7  -9 847.833 141.342  11
  -2   8   6 16926.7 578.707  23
  -2   8   5 526.047 113.794  23
  -2   8   4 2522.16 233.823  21
  -2   8   4 2424.76 247.836  23
  -2   8   3 1723.11 203.441  21
  -2   8   3 1699.65 216.947  23
  -2   8   2 18676.3 691.091  21
  -2   8   1 11771.6 560.071  21
  -2   8   0 49008.0 1154.13  21
  -2   8  -1 11170.9 552.562  21
  -2   8  -2 4250.17 337.937  21
  -2   8  -2 4089.14 325.527  11
   2   8   2 4102.18 319.869  23
  -2   8  -3 6648.37 406.757  11
   2   8   3 6632.87 393.656  23
   2   8   4 153.026 62.2538  23
  -2   8  -4 61.4153 41.2878  11
  -2   8  -5 2918.95 250.297  11
   2   8   5 2850.84 232.093  23
  -2   8  -6 4970.21 303.160  11
  -3  -8   5 4738.58 302.529  13
  -3  -8   4 1247.44 162.458  13
  -3  -8   3 817.038 130.906  15
  -3  -8   3 846.727 137.158  13
  -3  -8   2 4045.62 305.034  15
  -3  -8   2 4272.79 302.493  13
  -3  -8   1 8949.87 467.722  15
  -3  -8   1 9225.47 436.854  13
  -3  -8   0 678.954 135.301  15
  -3  -8   0 504.911 104.258  13
  -3  -8  -1 9502.12 481.129  15
  -3  -8  -1 8719.28 390.158  13
  -3  -8  -2 8070.62 429.625  15
  -3  -8  -3 431.415 96.7716  15
  -3  -7   9 3845.74 269.531  20
  -3  -7   8 7591.63 411.333  20
  -3  -7   8 8338.58 469.108  13
  -3  -7   7 42465.4 1018.65  20
  -3  -7   7 42795.8 1120.26  13
  -3  -7   6 12536.3 578.898  20
  -3  -7   6 12415.1 624.863  13
  -3  -7   5 2951.15 288.692  20
  -3  -7   5 3066.03 316.605  13
  -3  -7   4 8552.05 534.484  15
  -3  -7   4 7455.37 499.438  13
  -3  -7   3 3161.90 342.221  15
  -3  -7   3 3422.77 340.000  13
  -3  -7   2 9165.45 561.008  13
  -3  -7   1 14658.1 700.892  13
  -3  -7   0 3917.94 357.980  13
  -3  -7  -1 5307.70 405.608  13
  -3  -7  -1 4617.47 400.719  12
  -3  -7  -2 2079.03 245.749  13
  -3  -7  -2 1985.61 262.966  12
  -3  -7  -3 1662.02 239.148  12
  -3  -7  -4 10139.5 579.046  15
  -3  -7  -4 10042.9 563.591  12
  -3  -7  -5 22118.3 796.984  15
  -3  -7  -5 21916.6 800.817  12
  -3  -7  -6 5433.06 356.900  15
  -3  -7  -6 5491.19 382.603  12
  -3  -7  -7 8969.96 455.337  12
  -3  -7  -8 6129.13 343.656  12
  -3  -6  12 907.892 133.234  20
  -3  -6  11 689.142 132.876  20
  -3  -6  10 4434.83 357.096  20
  -3  -6   9 364.219 121.697  20
  -3  -6   9 382.373 121.311  13
  -3  -6   8 10132.9 584.405  20
  -3  -6   8 10961.3 589.168   9
  -3  -6   8 9784.75 608.422  13
  -3  -6   7 1090.21 200.686  20
  -3  -6   7 1095.55 198.704   9
  -3  -6   7 1132.81 209.989  13
  -3  -6   6 3679.06 356.522   9
  -3  -6   6 3013.30 347.159  13
  -3  -6   5 14110.1 711.740   9
  -3  -6   5 12354.0 704.133  13
  -3  -6   4 2037.79 292.128  13
  -3  -6   3 14277.8 756.753  13
  -3  -6   2 7261.04 535.187  13
  -3  -6   1 4666.20 426.358  13
  -3  -6   1 5278.67 461.767  12
  -3  -6   0 36320.8 1172.57  13
  -3  -6   0 33568.7 1165.79  12
  -3  -6  -1 16438.7 776.176  13
  -3  -6  -1 16532.0 827.281  12
  -3  -6  -2 19201.3 880.125  12
  -3  -6  -3 3452.72 375.692  12
  -3  -6  -4 1410.42 236.870  12
  -3  -6  -5 18377.2 847.077  15
  -3  -6  -5 18516.1 841.718  12
  -3  -6  -6 981.291 183.727  15
  -3  -6  -6 865.587 180.738  12
  -3  -6  -7 26994.8 965.673  12
  -3  -6  -8 38851.0 1103.31  12
  -3  -6  -9 12894.1 594.312  12
  -3  -6 -10 2587.35 242.126  12
  -3  -6 -11 2377.72 202.491  12
  -3  -5  14 4457.72 293.737  20
  -3  -5  13 5523.60 375.917  20
  -3  -5  13 6409.39 369.982   9
  -3  -5  12 4718.95 380.182  20
  -3  -5  12 6093.35 412.668   9
  -3  -5  11 1292.58 207.902  20
  -3  -5  11 1177.55 203.770   9
  -3  -5  10 344.131 122.665  20
  -3  -5  10 520.239 135.107   9
  -3  -5  10 576.644 154.785  13
  -3  -5   9 6002.18 483.213  20
  -3  -5   9 7025.98 517.279   9
  -3  -5   9 6279.65 510.495  13
  -3  -5   8 33914.8 1153.60  20
  -3  -5   8 36245.8 1174.60   9
  -3  -5   8 34155.2 1193.55  13
  -3  -5   7 76200.9 1722.18  20
  -3  -5   7 78330.6 1720.09   9
  -3  -5   6 4407.61 410.807   9
  -3  -5   6 3894.45 397.364  13
  -3  -5   5 28332.6 1060.32  13
  -3  -5   4 8152.87 567.435  13
  -3  -5   4 7928.82 549.663   7
  -3  -5   3 6563.75 503.724  13
  -3  -5   3 6779.58 507.827   7
  -3  -5   2 17934.2 820.568  13
  -3  -5   2 17720.4 823.415  12
  -3  -5   2 19071.4 835.997   7
  -3  -5   1 2808.61 321.270  13
  -3  -5   1 2475.34 308.210  12
  -3  -5   1 3099.66 336.964   7
  -3  -5   0 3920.95 377.451  13
  -3  -5   0 3695.66 374.158  12
  -3  -5  -1 2601.62 318.455  12
  -3  -5  -1 3048.77 329.084   7
  -3  -5  -2 1674.25 259.381  12
  -3  -5  -2 2216.24 280.723   7
  -3  -5  -3 9751.78 627.515  12
  -3  -5  -4 10210.5 644.790  12
  -3  -5  -5 31862.2 1148.74  12
  -3  -5  -6 17557.0 831.379  15
  -3  -5  -6 16633.5 829.871  12
  -3  -5  -7 3652.07 383.258  12
  -3  -5  -8 4084.98 399.322  12
  -3  -5  -9 18330.7 817.743  12
  -3  -5 -10 934.736 182.200  12
  -3  -5 -11 13969.2 628.244  12
  -3  -5 -12 41.5279 44.8399  12
  -3  -4  15 6082.89 366.920  20
  -3  -4  14 4298.39 351.031  20
  -3  -4  13 5371.42 424.405  20
  -3  -4  13 5461.03 421.865   9
  -3  -4  12 2812.36 325.831  20
  -3  -4  12 2727.40 316.247   9
  -3  -4  11 17406.7 826.672  20
  -3  -4  11 17410.6 827.608   9
  -3  -4  10 59459.1 1554.78  20
  -3  -4  10 61223.1 1579.25   9
  -3  -4  10 59736.9 1581.83  13
  -3  -4   9 48257.6 1389.31  20
  -3  -4   9 49528.7 1412.46   9
  -3  -4   9 47398.3 1411.85  13
  -3  -4   8 23107.0 942.969  20
  -3  -4   8 22949.8 943.391   9
  -3  -4   8 22223.7 957.542  13
  -3  -4   7 2462.51 301.578  20
  -3  -4   7 1991.16 275.285   9
  -3  -4   7 2516.28 317.341  13
  -3  -4   6 11424.9 662.953  13
  -3  -4   5 590.275 194.897  26
  -3  -4   5 731.217 161.712   7
  -3  -4   4 22799.5 1178.37  26
  -3  -4   3 18992.5 1066.82  26
  -3  -4   2 35146.6 1451.56  26
  -3  -4   1 12961.5 885.864  26
  -3  -4   0 10157.9 795.230  26
   3  -4   1 38622.0 1413.66  19
  -3  -4  -1 36560.0 1516.74  26
  -3  -4  -2 11227.3 852.175  26
  -3  -4  -3 1400.71 308.494  26
  -3  -4  -3 1390.60 227.097  12
  -3  -4  -4 11769.8 665.943  12
  -3  -4  -4 11984.3 640.632   7
  -3  -4  -5 66892.7 1624.51  12
  -3  -4  -5 67883.6 1548.85   7
  -3  -4  -6 65193.0 1637.04  12
  -3  -4  -7 7357.40 558.241  12
  -3  -4  -8 43691.2 1368.68  12
  -3  -4  -9 14533.3 781.730  12
  -3  -4 -10 97.7192 58.1989  12
  -3  -4 -11 2762.34 317.141  12
  -3  -4 -12 13375.7 647.034  12
  -3  -4 -13 1243.36 175.186  12
  -3  -4 -14 3192.64 240.184  12
  -3  -3  16 3127.22 267.044  20
  -3  -3  15 1123.73 179.350  20
  -3  -3  14 8243.47 530.790  20
  -3  -3  14 8400.95 537.653   9
  -3  -3  13 43179.7 1289.99  20
  -3  -3  13 45140.6 1316.83   9
  -3  -3  12 6625.81 518.647  20
  -3  -3  12 6279.06 509.038   9
  -3  -3  11 10336.2 648.190  20
  -3  -3  11 9972.72 645.100   9
  -3  -3  10 26534.2 1028.47  20
  -3  -3  10 25476.9 1024.01   9
  -3  -3   9 17973.4 838.593  20
  -3  -3   9 17490.3 828.291   9
  -3  -3   9 16414.2 810.507  13
  -3  -3   8 32599.9 1075.59  20
  -3  -3   8 30157.3 1045.67   9
  -3  -3   8 30920.9 1090.88  13
  -3  -3   7 81098.5 2211.51  26
  -3  -3   6 115632. 2589.72  26
  -3  -3   5 108323. 2417.03  26
  -3  -3   4 12456.7 793.952  26
  -3  -3   3 3177.56 399.343  26
  -3  -3   2 2822.30 373.296  26
  -3  -3   1 6184.22 553.312  26
  -3  -3   0 19955.0 998.481  26
   3  -3   1 17675.4 814.163  19
  -3  -3  -1 16160.2 908.777  26
  -3  -3  -2 3056.35 400.288  26
  -3  -3  -3 59869.1 1805.34  26
   3  -3   4 16234.0 955.370  18
  -3  -3  -4 16835.7 995.115  26
   3  -3   5 69754.1 2055.10  18
   3  -3   6 17857.5 1089.72  18
  -3  -3  -6 19541.6 868.579  12
  -3  -3  -7 6112.42 476.445   8
  -3  -3  -7 5726.17 482.666  12
  -3  -3  -8 26329.5 1054.58  12
  -3  -3  -8 27699.2 1032.01   8
  -3  -3  -9 26234.4 1003.05   8
  -3  -3  -9 24330.2 1025.03  12
  -3  -3 -10 7854.47 538.297   8
  -3  -3 -10 7042.83 553.826  12
  -3  -3 -11 3478.66 380.038  12
  -3  -3 -12 7047.04 518.271  12
  -3  -3 -13 4266.85 373.891  12
  -3  -3 -14 7645.11 442.340  12
  -3  -3 -15 4622.34 284.720  12
  -3  -2  17 568.011 110.583   3
  -3  -2  16 17793.1 698.940  20
  -3  -2  15 266.782 106.334  20
  -3  -2  14 11836.3 673.762  20
  -3  -2  14 11244.0 656.730   9
  -3  -2  13 20460.1 910.579  20
  -3  -2  13 20332.0 915.933   9
  -3  -2  12 7654.86 562.784  20
  -3  -2  12 7833.33 572.438   9
  -3  -2  11 14451.4 761.278  20
  -3  -2  11 13914.4 760.252   9
  -3  -2  10 25594.1 985.679  20
  -3  -2  10 25397.1 1006.01   9
  -3  -2   9 29213.7 1013.12  20
  -3  -2   9 29230.8 1044.99   9
  -3  -2   9 27261.3 1301.30  25
  -3  -2   8 9753.61 744.378  26
  -3  -2   8 10684.0 764.463  25
  -3  -2   7 20510.7 1031.00  26
  -3  -2   7 23576.0 1063.28  25
  -3  -2   6 8868.72 658.300  26
  -3  -2   6 8555.95 601.039  25
  -3  -2   5 73521.4 1823.98  26
  -3  -2   4 110918. 2146.46  26
  -3  -2   3 48602.6 1387.83  26
  -3  -2   2 19714.0 861.886  14
  -3  -2   2 18393.3 846.201  26
  -3  -2   1 42354.7 1210.41  14
  -3  -2   1 41148.5 1263.94  26
  -3  -2   0 54119.4 1461.91  26
  -3  -2   0 55807.6 1333.23  14
  -3  -2   0 56470.5 1366.81   1
  -3  -2  -1 104894. 1852.43   1
  -3  -2  -1 101785. 2016.64  26
  -3  -2  -2 13270.9 746.200  26
  -3  -2  -2 14012.6 694.163   1
  -3  -2  -3 14770.9 738.948   1
   3  -2   3 14361.3 788.503  18
  -3  -2  -4 31245.3 1121.91   1
   3  -2   4 29764.0 1194.29  18
   3  -2   5 6768.21 603.205  18
   3  -2   6 5822.82 580.757  18
   3  -2   7 6497.57 647.088  18
  -3  -2  -8 73830.3 1645.36   8
  -3  -2  -8 71149.7 1667.02  12
  -3  -2  -9 40648.0 1287.21  12
  -3  -2  -9 40588.8 1238.80   8
  -3  -2 -10 25444.3 987.820   8
  -3  -2 -10 24155.9 1007.45  12
  -3  -2 -11 20574.6 866.007   8
  -3  -2 -11 21152.8 939.737  12
  -3  -2 -12 6456.63 503.717  12
  -3  -2 -13 2857.63 320.834  12
  -3  -2 -14 9403.10 536.187  12
  -3  -2 -15 1077.21 160.560  12
  -3  -1  17 12434.8 540.397   3
  -3  -1  16 11434.9 604.062   3
  -3  -1  15 28231.5 1003.97  20
  -3  -1  14 3374.73 364.890  20
  -3  -1  13 9071.72 612.858  20
  -3  -1  13 7825.11 571.278   9
  -3  -1  12 23391.7 976.626  20
  -3  -1  12 24380.2 1008.51   9
  -3  -1  11 5352.51 463.503  20
  -3  -1  11 5220.96 457.888   9
  -3  -1  10 34323.0 1120.51  20
  -3  -1  10 33561.1 1128.80   9
  -3  -1  10 30927.6 1413.89  25
  -3  -1   9 8961.53 718.239  25
  -3  -1   8 11280.9 749.089  25
  -3  -1   7 4198.34 434.336  26
  -3  -1   7 3945.59 408.326  25
  -3  -1   6 427.902 134.488  26
  -3  -1   6 625.345 155.747  25
  -3  -1   5 40478.1 1233.28  26
  -3  -1   5 42719.2 1112.82  25
  -3  -1   4 92210.8 1776.47  26
  -3  -1   3 319675. 3483.51  14
  -3  -1   3 316841. 3134.15  26
  -3  -1   2 53271.2 1336.80   1
  -3  -1   2 54736.2 1398.97  14
  -3  -1   2 53383.5 1256.77  26
  -3  -1   1 52975.0 1242.76  26
  -3  -1   1 51117.3 1310.54  14
  -3  -1   1 52621.3 1314.21   1
  -3  -1   0 33640.7 1038.43  14
  -3  -1   0 34172.3 1058.03   1
  -3  -1   0 33708.7 1005.88  26
  -3  -1  -1 26971.1 960.011   1
  -3  -1  -1 26243.9 892.378  26
   3  -1   2 67407.1 1450.90  18
  -3  -1  -2 69183.3 1353.04  16
  -3  -1  -2 66480.8 1554.29   1
  -3  -1  -2 67530.1 1475.12  26
   3  -1   3 5122.65 430.858  18
  -3  -1  -3 4765.74 431.976   1
  -3  -1  -3 5053.61 387.727  16
   3  -1   4 47890.1 1409.17  18
  -3  -1  -4 50876.1 1340.52  16
  -3  -1  -4 47315.0 1424.82   1
   3  -1   5 29781.1 1173.42  18
  -3  -1  -5 29402.4 1101.81  16
  -3  -1  -5 28671.8 1170.98   1
  -3  -1  -6 829.873 215.375   1
  -3  -1  -6 744.031 186.723  16
  -3  -1  -7 2997.90 420.183   1
  -3  -1  -8 12506.9 681.377  12
  -3  -1  -8 11790.2 874.610   1
  -3  -1  -9 13101.0 707.388   8
  -3  -1  -9 12275.6 702.741  12
  -3  -1 -10 17000.6 815.463   8
  -3  -1 -10 15925.2 813.689  12
  -3  -1 -11 14836.9 751.061   8
  -3  -1 -11 14082.2 771.475  12
  -3  -1 -12 13509.1 691.208   8
  -3  -1 -12 11435.6 686.830  12
  -3  -1 -13 1677.98 256.878  12
  -3  -1 -14 6162.27 444.544  12
  -3  -1 -15 3758.58 308.121  12
  -3   0  17 30178.5 852.217   3
  -3   0  16 136.918 79.7959   3
  -3   0  15 6055.63 477.769   3
  -3   0  14 4021.01 413.524   3
  -3   0  13 6222.86 509.099  20
  -3   0  13 7566.03 546.458  10
  -3   0  12 2263.06 308.516  20
  -3   0  12 2514.47 320.842   9
  -3   0  11 43153.3 1292.71  20
  -3   0  11 43005.5 1301.98   9
  -3   0  10 4007.24 379.986  20
  -3   0  10 4030.39 385.319   9
  -3   0  10 3535.25 496.224  14
  -3   0  10 3833.42 492.251  25
  -3   0   9 58132.4 1787.52  25
  -3   0   8 30348.4 1202.59  25
  -3   0   7 408.665 151.039  14
  -3   0   7 583.558 153.459  25
  -3   0   6 24775.0 1076.81  14
  -3   0   6 24027.4 928.551  26
  -3   0   6 24618.7 899.695  25
  -3   0   5 5148.57 366.367  22
  -3   0   5 4974.78 468.559  14
  -3   0   5 5191.85 400.789  26
  -3   0   5 5120.35 368.515  25
  -3   0   4 17467.6 684.292  22
  -3   0   4 17273.8 836.878  14
  -3   0   4 17141.6 683.747  26
  -3   0   3 449.311 133.616   1
  -3   0   3 247.477 80.3802  26
  -3   0   2 147425. 1768.16  26
  -3   0   2 142035. 2273.16  14
  -3   0   2 146844. 2249.95   1
  -3   0   1 631.290 147.574   1
  -3   0   1 483.990 125.980  14
  -3   0   0 32702.1 811.956  26
  -3   0   0 32236.4 1051.66   1
   3   0   1 56811.3 1092.05  18
  -3   0  -1 54469.5 1078.99  26
   3   0   2 275.846 88.3553  18
  -3   0  -2 491.703 135.250  16
  -3   0  -2 283.064 85.9254  26
  -3   0  -2 204.361 86.3188   1
  -3   0  -3 275186. 3171.86  16
  -3   0  -3 274617. 3355.92   1
  -3   0  -4 109617. 2231.65   1
  -3   0  -4 113025. 2172.94  16
  -3   0  -5 240.195 112.678  16
  -3   0  -5 150.809 101.758   1
  -3   0  -6 46196.4 1616.59   1
  -3   0  -6 46458.8 1568.70  16
  -3   0  -7 6904.07 662.081   1
  -3   0  -8 17434.2 1102.62   1
  -3   0  -8 18842.8 824.361   8
  -3   0  -9 51239.7 1410.92   8
  -3   0  -9 50565.5 1414.76  12
  -3   0 -10 6017.77 491.708   8
  -3   0 -10 5449.97 474.146  12
  -3   0 -11 2429.28 311.080   8
  -3   0 -11 3418.38 381.997  12
  -3   0 -12 3181.30 344.825   8
  -3   0 -12 3766.39 392.687  12
  -3   0 -13 3335.65 332.665   8
  -3   0 -13 3022.03 341.915  12
  -3   0 -14 64.3286 63.6978  12
  -3   0 -15 5750.53 385.826  12
  -3   1  17 11826.1 563.501  21
  -3   1  17 11535.6 503.382   3
  -3   1  16 11348.2 581.511   3
  -3   1  15 28337.2 1005.24   3
  -3   1  14 3779.84 388.325   3
  -3   1  13 8813.39 608.233   3
  -3   1  12 27062.4 1052.56  10
  -3   1  12 25999.9 1042.91   3
  -3   1  11 3275.01 367.692  10
  -3   1  11 5254.56 462.938   3
  -3   1  10 33292.4 1143.26  10
  -3   1  10 34951.7 1115.42   9
  -3   1  10 32998.4 1103.97  20
  -3   1   9 9608.77 745.951  14
  -3   1   9 9298.25 735.745  25
  -3   1   8 10656.3 754.818  14
  -3   1   8 11027.5 743.974  25
  -3   1   7 4075.27 452.739  14
  -3   1   7 4140.31 423.976  25
  -3   1   6 378.386 133.383  14
  -3   1   6 266.155 101.856  25
  -3   1   5 39737.9 1165.07  22
  -3   1   5 40839.9 1332.24  14
  -3   1   5 41646.0 1106.81  25
  -3   1   4 92041.8 1762.35  22
  -3   1   4 94957.4 1959.79  14
  -3   1   3 321457. 3369.06   1
  -3   1   3 318009. 3529.15  14
  -3   1   2 53032.4 1343.29  22
  -3   1   2 53518.6 1361.72   1
  -3   1   1 51834.1 1325.84  22
  -3   1   1 52064.9 1335.53   1
  -3   1   0 33201.6 1080.39  22
  -3   1   0 33771.2 1105.41   1
  -3   1  -1 25640.4 983.351   1
  -3   1  -2 65305.7 1604.53  16
  -3   1  -2 68418.2 1650.70   1
  -3   1  -3 4456.07 435.527  16
  -3   1  -3 4508.82 444.146   1
  -3   1  -4 47147.0 1514.49   1
  -3   1  -4 45499.4 1473.15  16
  -3   1  -5 28660.9 1247.51   1
  -3   1  -5 28464.0 1222.40  16
  -3   1  -6 1021.08 258.080   1
  -3   1  -6 481.888 170.639  16
  -3   1  -7 3007.52 450.240   1
  -3   1  -7 2341.39 391.122  16
  -3   1  -8 12939.9 701.238  11
  -3   1  -8 12057.1 938.962   1
  -3   1  -8 11231.9 890.674  16
  -3   1  -9 12698.2 710.598   8
  -3   1  -9 12478.1 696.967  12
  -3   1 -10 16713.0 826.722   8
  -3   1 -10 16206.0 817.624  12
  -3   1 -11 14836.8 772.179   8
  -3   1 -11 13165.5 744.290  12
  -3   1 -12 11767.1 672.394   8
  -3   1 -12 11644.1 687.709  12
  -3   1 -13 2237.76 278.118   8
  -3   1 -13 2008.57 277.097  12
  -3   1 -14 6938.56 427.391   8
  -3   1 -14 6715.47 458.273  12
  -3   1 -15 3797.94 301.121  12
  -3   2  17 507.145 109.681  21
  -3   2  16 16807.1 662.384   3
  -3   2  16 18545.7 755.502  21
  -3   2  15 183.571 110.171  21
  -3   2  15 199.001 91.8416   3
  -3   2  14 11094.7 706.746  21
  -3   2  14 11104.3 645.142   3
  -3   2  13 20208.0 901.929   3
  -3   2  12 8112.35 565.020  10
  -3   2  12 7550.14 554.326   3
  -3   2  11 10038.0 640.261  10
  -3   2  11 14007.8 744.114   3
  -3   2  10 26678.8 1042.35  10
  -3   2   9 17929.0 836.213  10
  -3   2   9 26177.3 1282.13  25
  -3   2   8 10003.4 748.639  25
  -3   2   7 22660.6 1052.00  25
  -3   2   6 9218.78 623.749  25
  -3   2   5 72590.6 1789.65  22
  -3   2   5 77314.7 1667.69  25
  -3   2   4 111142. 2167.56  22
  -3   2   4 112694. 2345.35  17
  -3   2   3 48692.4 1412.43  22
  -3   2   3 48540.0 1485.61  17
  -3   2   3 49245.2 1345.11   1
  -3   2   2 19756.3 896.105  22
  -3   2   2 18587.4 895.503  17
  -3   2   2 18303.2 815.961   1
  -3   2   1 40958.5 1278.91  22
  -3   2   1 41358.5 1292.73  17
  -3   2   1 43780.3 1260.22   1
  -3   2   0 53838.5 1479.30  22
  -3   2   0 52379.6 1426.68   1
  -3   2  -1 100119. 2018.73   1
  -3   2  -1 102010. 2058.84  22
  -3   2  -2 13069.1 775.735  16
  -3   2  -2 13239.3 757.948   1
  -3   2  -3 12957.8 796.838  16
  -3   2  -3 14216.6 824.693   1
  -3   2  -4 27702.3 1215.10  16
  -3   2  -4 29271.5 1244.03   1
  -3   2  -5 6850.25 630.889   1
  -3   2  -5 6739.67 628.294  16
  -3   2  -6 5516.17 596.725   1
  -3   2  -6 5948.20 617.632  16
  -3   2  -7 7411.62 516.354  11
  -3   2  -7 7246.73 720.402   1
  -3   2  -7 6683.98 690.187  16
  -3   2  -8 71101.3 1667.34  11
  -3   2  -9 39702.1 1281.10  11
  -3   2 -10 24864.3 1028.76  11
  -3   2 -10 25650.7 1018.94  12
  -3   2 -11 21491.0 943.121   8
  -3   2 -11 21798.2 934.416  12
  -3   2 -12 6792.17 508.015   8
  -3   2 -12 7526.40 535.888  12
  -3   2 -13 2738.59 302.471   8
  -3   2 -13 2724.89 304.763  12
  -3   2 -14 9583.10 491.295   8
  -3   2 -14 9324.70 505.708  12
  -3   2 -15 685.170 119.472  12
  -3   3  16 3002.21 242.606   3
  -3   3  16 3319.48 287.699  21
  -3   3  15 1119.08 196.645  21
  -3   3  15 1296.15 191.805   3
  -3   3  14 8575.14 580.158  21
  -3   3  14 8590.05 535.516   3
  -3   3  13 45818.9 1417.40  21
  -3   3  13 43880.4 1276.73   3
  -3   3  12 7027.73 511.924  10
  -3   3  12 6488.07 502.486   3
  -3   3  12 6650.85 560.577  21
  -3   3  11 10295.6 638.668  10
  -3   3  11 9281.46 664.049  21
  -3   3  10 26424.8 1025.72  10
  -3   3  10 25256.6 1086.65  21
  -3   3   9 16867.4 824.324  10
  -3   3   9 16795.7 862.792  21
  -3   3   8 29920.3 1134.38  21
  -3   3   8 29682.8 1070.88  10
  -3   3   7 78549.2 2321.67  17
  -3   3   6 115043. 2732.05  17
  -3   3   5 108150. 2587.09  17
  -3   3   4 13601.2 850.386  22
  -3   3   4 13960.4 903.212  17
  -3   3   3 3389.88 420.749  22
  -3   3   3 3351.71 432.246  17
  -3   3   2 2471.24 351.590  22
  -3   3   2 2484.88 363.491  17
  -3   3   2 2468.36 309.000   1
  -3   3   1 6537.53 565.586  22
  -3   3   1 6283.53 556.254  17
  -3   3   1 6709.92 510.238   1
  -3   3   0 17736.3 935.598  22
  -3   3   0 19051.0 947.306  17
  -3   3   0 19374.7 887.534   1
  -3   3  -1 17614.5 879.244   1
  -3   3  -1 17417.3 926.450  22
  -3   3  -1 17995.3 896.919  17
  -3   3  -2 3068.43 387.966  22
  -3   3  -2 3350.92 398.185   1
  -3   3  -3 58297.1 1837.19  16
  -3   3  -3 63690.7 1818.42   1
  -3   3  -4 16308.8 1002.68  16
  -3   3  -4 17618.6 1006.86   1
  -3   3  -5 67077.6 2086.34  16
  -3   3  -5 72443.1 2126.28   1
  -3   3  -6 18192.6 809.926  11
  -3   3  -6 16098.4 1058.47  16
  -3   3  -6 17526.6 1090.78   1
  -3   3  -7 5239.30 449.207  11
  -3   3  -8 25209.1 1009.20  11
  -3   3  -9 24616.2 1019.24  11
  -3   3 -10 6928.35 540.557  11
  -3   3 -11 3433.68 374.293  11
  -3   3 -12 6652.62 488.479   8
  -3   3 -12 6378.17 458.786  12
  -3   3 -13 4111.83 350.749   8
  -3   3 -13 4112.70 341.612  12
  -3   3 -14 7462.78 402.235   8
  -3   3 -14 7182.50 383.554  12
  -3   4  15 6568.42 390.696  21
  -3   4  14 4336.51 366.469  21
  -3   4  13 5309.91 443.343  21
  -3   4  12 2715.84 302.614  10
  -3   4  12 2540.01 326.868  21
  -3   4  11 17463.5 815.156  10
  -3   4  11 17708.4 897.680  21
  -3   4  10 65225.3 1610.12  10
  -3   4  10 59320.2 1662.59  21
  -3   4   9 48120.0 1402.07  10
  -3   4   9 48208.7 1495.56  21
  -3   4   8 22500.8 958.839  10
  -3   4   8 23967.7 1038.35  21
  -3   4   7 2156.32 294.697  10
  -3   4   7 2463.93 325.719  21
  -3   4   6 12461.1 699.645  10
  -3   4   6 12531.3 731.239  21
  -3   4   5 1059.00 207.819  21
  -3   4   5 972.768 190.353  10
  -3   4   5 921.553 263.465  17
  -3   4   4 22596.1 1209.60  22
  -3   4   4 22591.4 1254.57  17
  -3   4   3 19191.7 1092.39  22
  -3   4   3 19090.5 1125.90  17
  -3   4   2 34500.3 1449.84  22
  -3   4   2 35352.1 1504.15  17
  -3   4   1 13241.7 889.256  22
  -3   4   1 13091.6 893.440  17
  -3   4   0 10610.7 793.779  22
  -3   4   0 11186.7 807.460  17
  -3   4  -1 36400.5 1464.66  22
  -3   4  -2 10620.8 798.705  22
  -3   4  -3 1435.91 231.199  21
  -3   4  -4 12131.0 657.140  11
  -3   4  -4 12066.1 668.224  21
  -3   4  -5 66581.5 1586.21  11
  -3   4  -5 68248.7 1616.28  21
  -3   4  -6 64639.0 1592.94  11
  -3   4  -6 66977.3 1626.04  21
  -3   4  -7 6810.32 526.444  11
  -3   4  -8 45165.3 1357.12  11
  -3   4  -9 13322.7 742.724  11
  -3   4 -10 109.866 81.3146  11
  -3   4 -11 2931.63 329.333  11
  -3   4 -12 12864.8 630.204   8
  -3   4 -13 1327.61 177.908   8
  -3   5  14 4745.23 300.479  21
  -3   5  13 6150.32 402.977  21
  -3   5  12 5330.71 417.907  21
  -3   5  11 1136.35 210.368  21
  -3   5  10 312.704 113.276  21
  -3   5   9 6631.31 532.626  21
  -3   5   8 33333.7 1208.36  21
  -3   5   7 73397.4 1808.16  21
  -3   5   6 4149.92 425.957  21
  -3   5   5 28857.1 1120.25  21
  -3   5   4 7788.18 579.863  21
  -3   5   3 6756.21 539.410  21
  -3   5   2 18230.0 881.331  21
  -3   5   1 2633.24 335.500  21
  -3   5   0 4475.04 432.320  21
  -3   5   0 4017.31 403.130   6
  -3   5  -1 2945.72 347.097  21
  -3   5  -2 1669.33 262.777  21
  -3   5  -3 10371.3 629.439  11
  -3   5  -3 9649.70 626.491  21
  -3   5  -4 10733.2 645.977  11
  -3   5  -4 11025.3 673.018  21
  -3   5  -5 33286.7 1149.35  11
  -3   5  -5 32080.7 1151.95  21
  -3   5  -6 16312.7 811.904  11
  -3   5  -6 15705.0 809.011  21
  -3   5  -7 3924.69 395.897  11
  -3   5  -8 3842.59 386.742  11
  -3   5  -9 17239.5 795.717  11
  -3   5 -10 1263.32 206.305  11
  -3   5 -11 14136.7 641.614  11
  -3   5 -11 13955.3 623.291   6
  -3   5 -12 121.083 65.8472   6
  -3   5 -12 42.2902 39.1722   8
  -3   6  12 1195.72 154.886  21
  -3   6  11 676.908 134.904  21
  -3   6  10 4299.67 368.098  21
  -3   6   9 208.563 93.6950  21
  -3   6   8 10020.2 623.224  21
  -3   6   7 923.972 197.345  21
  -3   6   6 3262.98 370.956  21
  -3   6   5 13355.5 764.775  21
  -3   6   4 1693.68 272.841  21
  -3   6   3 14700.0 810.188  21
  -3   6   2 7888.12 587.481  21
  -3   6   1 4542.32 445.108  21
  -3   6   0 33923.0 1202.74  21
  -3   6  -1 15859.7 819.490  21
  -3   6  -1 16472.3 823.832   6
  -3   6  -2 19594.7 902.296  21
  -3   6  -3 3640.22 374.548  11
  -3   6  -3 3147.97 360.483  21
  -3   6  -4 1402.95 239.128  11
  -3   6  -4 1487.76 244.758  21
  -3   6  -5 18463.6 856.355  21
  -3   6  -5 17600.3 809.755  11
  -3   6  -6 922.118 189.186  21
  -3   6  -6 937.705 191.231  11
  -3   6  -7 25813.6 937.128  11
  -3   6  -8 37811.7 1085.68  11
  -3   6  -9 13448.6 613.088  11
  -3   6  -9 12804.3 616.355   6
  -3   6 -10 2215.37 231.726  11
  -3   6 -10 2406.19 242.547   6
  -3   6 -11 2262.02 199.474   8
  -3   7   9 4560.38 305.653  21
  -3   7   8 8210.05 452.576  21
  -3   7   7 44230.8 1125.21  21
  -3   7   6 13040.2 643.070  21
  -3   7   5 3137.77 324.936  21
  -3   7   4 7597.61 514.920  21
  -3   7   3 3200.17 339.761  21
  -3   7   2 8566.01 560.519  21
  -3   7   1 14950.5 740.200  21
  -3   7   0 3593.10 365.231  21
  -3   7  -1 5129.88 398.816  11
  -3   7  -1 4760.90 417.023  21
  -3   7  -2 1841.17 259.283  21
  -3   7  -2 2051.72 253.876  11
  -3   7  -2 1997.40 249.165   6
  -3   7  -3 1800.86 237.741  11
  -3   7  -3 1739.78 246.579  21
  -3   7  -3 2151.22 264.143   6
  -3   7  -4 10094.2 545.833  11
  -3   7  -4 9658.92 565.209  21
  -3   7  -4 10453.4 570.789   6
  -3   7  -5 20908.6 761.938  11
  -3   7  -5 21594.3 805.378   6
  -3   7  -6 5426.81 371.579  11
  -3   7  -6 5599.42 394.914   6
  -3   7  -7 8479.34 438.304  11
  -3   7  -7 9393.33 481.434   6
  -3   7  -8 6523.49 351.051  11
  -3   7  -8 6266.88 358.033   6
  -3   8   4 1325.54 161.575  21
  -3   8   3 841.994 133.567  21
  -3   8   2 3998.14 302.412  21
  -3   8   1 9062.68 459.133  21
  -3   8   0 712.337 133.246  21
  -3   8  -1 8477.42 441.809  21
  -3   8  -2 7538.17 408.721  21
  -4  -7   7 8845.49 437.415  13
  -4  -7   6 3298.04 256.108   9
  -4  -7   6 3118.92 272.362  13
  -4  -7   5 3800.10 289.240   9
  -4  -7   5 3399.69 292.436  13
  -4  -7   4 1077.72 158.742   9
  -4  -7   4 1018.84 166.327  15
  -4  -7   4 900.924 156.711  13
  -4  -7   3 412.586 105.622   9
  -4  -7   3 474.433 128.827  15
  -4  -7   3 573.301 117.646  13
  -4  -7   2 848.692 168.467  15
  -4  -7   2 827.739 147.158  13
  -4  -7   1 3474.98 337.284  15
  -4  -7   0 1781.94 243.965  15
  -4  -7  -1 4153.13 362.866  15
  -4  -7  -2 2658.12 287.131  15
  -4  -7  -3 5629.22 394.139  15
  -4  -7  -3 5411.33 367.790  12
  -4  -7  -4 2959.91 267.514  15
  -4  -7  -4 2552.14 244.429  12
  -4  -7  -5 5616.19 325.200  15
  -4  -7  -5 5825.94 346.661  12
  -4  -7  -6 3548.58 248.754  12
  -4  -6  10 1926.07 202.674   9
  -4  -6   9 4771.11 349.069   9
  -4  -6   8 419.735 119.444   9
  -4  -6   8 350.507 119.031  13
  -4  -6   7 239.532 105.075   9
  -4  -6   7 199.045 98.2553  13
  -4  -6   6 5576.81 427.814   9
  -4  -6   6 6123.77 464.099  13
  -4  -6   5 4055.77 376.358   9
  -4  -6   5 4616.92 401.937  15
  -4  -6   5 3723.50 361.252  13
  -4  -6   4 6421.68 500.171  15
  -4  -6   4 5683.28 449.411  13
  -4  -6   3 4058.48 404.298  15
  -4  -6   3 3697.76 361.186  13
  -4  -6   2 10509.0 668.951  15
  -4  -6   2 10161.8 588.360  13
  -4  -6   2 10745.1 624.297   7
  -4  -6   1 2133.24 307.447  15
  -4  -6   1 2296.59 285.575   7
  -4  -6   0 2836.02 352.494  15
  -4  -6   0 2600.43 309.816  12
  -4  -6   0 3411.47 346.310   7
  -4  -6  -1 3969.07 384.775  12
  -4  -6  -1 4511.31 385.117   7
  -4  -6  -2 3624.44 389.992  15
  -4  -6  -2 3961.33 378.429  12
  -4  -6  -2 4343.68 370.076   7
  -4  -6  -3 1677.29 258.040  15
  -4  -6  -3 1443.78 228.881  12
  -4  -6  -4 10043.1 599.570  15
  -4  -6  -4 10010.6 584.059  12
  -4  -6  -5 15478.9 700.846  15
  -4  -6  -5 14396.2 675.579  12
  -4  -6  -6 1764.43 216.207  15
  -4  -6  -6 1651.03 217.961  12
  -4  -6  -7 1879.09 221.846  12
  -4  -6  -8 6707.71 387.944  12
  -4  -6  -9 1630.38 170.245  12
  -4  -5  13 304.666 80.8781   9
  -4  -5  12 2341.03 241.063   9
  -4  -5  11 1311.50 198.003   9
  -4  -5  10 9612.66 567.507   9
  -4  -5   9 15110.1 742.520   9
  -4  -5   9 14389.9 740.137  13
  -4  -5   8 10200.3 618.998   9
  -4  -5   8 9761.32 618.153  13
  -4  -5   7 15281.0 769.854   9
  -4  -5   7 16440.7 815.145  13
  -4  -5   6 6680.79 512.244   9
  -4  -5   6 6765.05 518.573  13
  -4  -5   5 2777.21 339.532  15
  -4  -5   5 2689.43 328.645  13
  -4  -5   4 2157.23 304.776  15
  -4  -5   4 2176.80 292.551  13
  -4  -5   4 2466.47 318.514   7
  -4  -5   3 46090.8 1415.41  15
  -4  -5   3 46019.0 1318.49  13
  -4  -5   3 44608.4 1335.00   7
  -4  -5   2 404.997 141.383  15
  -4  -5   2 286.669 95.2278  12
  -4  -5   2 371.332 124.074   7
  -4  -5   1 26490.9 1101.88  15
  -4  -5   1 28218.2 1040.69  12
  -4  -5   1 28206.8 1054.72   7
  -4  -5   0 11825.5 733.598  15
  -4  -5   0 13439.1 721.986  12
  -4  -5   0 13721.9 736.182   7
  -4  -5  -1 2388.10 333.148  15
  -4  -5  -1 2269.93 298.505  12
  -4  -5  -1 2260.74 295.711   7
  -4  -5  -2 48539.4 1476.64  15
  -4  -5  -2 50566.1 1408.95  12
  -4  -5  -2 52767.7 1420.29   7
  -4  -5  -3 7469.67 572.357  15
  -4  -5  -3 7283.89 533.989  12
  -4  -5  -3 8343.35 560.026   7
  -4  -5  -4 15202.3 795.622  15
  -4  -5  -4 13791.2 737.476  12
  -4  -5  -4 15621.2 756.186   7
  -4  -5  -5 9882.47 617.677  15
  -4  -5  -5 9051.89 593.426  12
  -4  -5  -5 10759.6 613.106   7
  -4  -5  -6 9443.18 573.111  15
  -4  -5  -6 8294.82 555.249  12
  -4  -5  -6 9116.66 547.218   7
  -4  -5  -7 4008.77 378.257  12
  -4  -5  -8 1150.47 190.681  12
  -4  -5  -9 2229.33 251.048  12
  -4  -5 -10 4633.69 328.856  12
  -4  -5 -11 4360.81 278.193  12
  -4  -4  14 3678.32 290.967   9
  -4  -4  13 10602.8 508.196  20
  -4  -4  13 11829.8 582.662   9
  -4  -4  12 1085.10 197.211   9
  -4  -4  11 10052.5 615.552   9
  -4  -4  10 5118.27 454.119   9
  -4  -4   9 1251.01 228.994   9
  -4  -4   9 1042.81 221.719  13
  -4  -4   8 36708.6 1218.80   9
  -4  -4   8 36901.4 1241.53  13
  -4  -4   7 20197.0 901.514   9
  -4  -4   7 19336.2 900.432  13
  -4  -4   6 105083. 2056.37  13
  -4  -4   5 2693.86 327.616  15
  -4  -4   5 3249.20 358.244  13
  -4  -4   5 2992.03 345.454   7
  -4  -4   4 25595.5 1021.61  15
  -4  -4   4 23414.2 931.073  13
  -4  -4   4 23071.2 945.606   7
  -4  -4   3 4088.66 414.168  15
  -4  -4   3 3361.15 358.234   7
  -4  -4   2 46347.4 1390.53  15
  -4  -4   2 47052.4 1339.79   7
  -4  -4   1 47956.8 1417.06  15
  -4  -4   1 47720.5 1341.87   7
  -4  -4   0 480.708 136.547   7
  -4  -4   0 1215.28 230.879  15
  -4  -4  -1 12769.0 734.720  15
  -4  -4  -1 12979.2 686.818  12
  -4  -4  -1 13175.3 705.906   7
  -4  -4  -2 13173.8 748.758  15
  -4  -4  -2 12883.7 696.410  12
  -4  -4  -2 12731.0 697.211   7
  -4  -4  -3 15602.3 808.702  15
  -4  -4  -3 15778.9 779.095  12
  -4  -4  -3 16658.3 803.264   7
  -4  -4  -4 78052.9 1792.41  15
  -4  -4  -4 79655.7 1770.92  12
  -4  -4  -4 79054.1 1758.70   7
  -4  -4  -5 26838.4 1036.89  15
  -4  -4  -5 26413.2 1024.77  12
  -4  -4  -5 27038.1 1026.29   7
  -4  -4  -6 36518.3 1206.55  12
  -4  -4  -6 37223.9 1200.27   7
  -4  -4  -7 39104.1 1241.20  12
  -4  -4  -7 41442.5 1243.16   7
  -4  -4  -8 11003.1 644.017  12
  -4  -4  -8 11793.8 644.609   7
  -4  -4  -9 4196.48 385.101  12
  -4  -4  -9 4725.56 385.645   7
  -4  -4 -10 12143.3 614.686  12
  -4  -4 -10 13096.3 590.585   7
  -4  -4 -11 1949.13 230.647  12
  -4  -4 -12 1264.83 163.424  12
  -4  -3  15 366.468 86.9911  20
  -4  -3  15 415.687 94.2909  10
  -4  -3  14 2077.94 236.357  20
  -4  -3  14 1960.92 246.596   9
  -4  -3  13 10121.8 563.203  20
  -4  -3  13 10215.2 602.001   9
  -4  -3  12 4630.13 398.418  20
  -4  -3  12 4227.65 404.456   9
  -4  -3  11 56264.3 1527.07   9
  -4  -3  10 92255.8 1977.21   9
  -4  -3   9 41302.3 1309.97   9
  -4  -3   8 4367.70 414.858   9
  -4  -3   8 4235.89 418.686  13
  -4  -3   7 2552.98 318.522   9
  -4  -3   7 2948.34 338.054  13
  -4  -3   6 17318.7 809.064  13
  -4  -3   6 15303.5 757.776   7
  -4  -3   5 51629.5 1825.08  26
  -4  -3   5 53625.2 1903.75  14
  -4  -3   5 56357.2 1413.67  13
  -4  -3   5 57044.9 1435.39   7
  -4  -3   4 49925.9 1767.40  14
  -4  -3   4 50157.6 1330.50   7
  -4  -3   4 48426.6 1723.86  26
  -4  -3   3 17354.3 1005.65  14
  -4  -3   3 16482.2 988.888  26
  -4  -3   2 14252.0 919.589  26
  -4  -3   1 9847.69 774.748  26
  -4  -3   0 18851.1 1082.79  26
  -4  -3  -1 13468.6 917.797  26
   4  -3   2 25193.3 1230.19  18
  -4  -3  -2 25107.4 959.377   8
  -4  -3  -2 27660.2 1021.09  15
  -4  -3  -2 24737.7 1274.70  26
  -4  -3  -2 26111.6 965.521   7
   4  -3   3 9195.08 760.540  18
  -4  -3  -3 9008.65 586.084  15
  -4  -3  -3 9718.94 602.810   8
  -4  -3  -3 9477.75 796.245  26
  -4  -3  -4 1846.75 262.721  15
  -4  -3  -4 2238.86 293.714   8
  -4  -3  -5 52580.7 1452.06   8
  -4  -3  -5 53916.4 1440.06  12
  -4  -3  -6 40011.2 1277.32   8
  -4  -3  -6 38991.0 1247.59  12
  -4  -3  -7 31721.1 1141.38   8
  -4  -3  -7 30701.7 1117.66  12
  -4  -3  -8 33932.4 1165.00   8
  -4  -3  -8 33816.9 1176.46  12
  -4  -3  -9 20252.6 879.781   8
  -4  -3  -9 19483.5 880.162  12
  -4  -3 -10 128.396 81.9100  12
  -4  -3 -11 9596.51 559.398  12
  -4  -3 -12 1393.56 196.582  12
  -4  -3 -13 766.504 126.400  12
  -4  -2  16 280.895 76.1611   3
  -4  -2  15 4018.90 321.810  10
  -4  -2  14 13233.5 638.325  20
  -4  -2  14 12296.5 650.921   9
  -4  -2  13 15679.9 737.687  20
  -4  -2  13 15362.9 772.433   9
  -4  -2  12 13621.8 706.282  20
  -4  -2  12 13407.7 744.687   9
  -4  -2  11 24668.4 1020.11   9
  -4  -2  10 2616.66 334.342   9
  -4  -2   9 26237.5 1025.19   9
  -4  -2   8 2838.35 330.714   9
  -4  -2   8 3575.97 353.199   4
  -4  -2   7 32727.1 1080.72   9
  -4  -2   7 28990.1 1440.78  14
  -4  -2   7 29325.0 1336.63  26
  -4  -2   7 32405.5 1033.99   4
  -4  -2   6 1567.95 334.644  14
  -4  -2   6 1331.82 287.001  26
  -4  -2   5 80646.3 2247.29  14
  -4  -2   5 82393.3 2141.60  26
  -4  -2   4 23958.4 1183.27  14
  -4  -2   4 23678.5 1108.13  26
  -4  -2   3 7024.85 621.653  14
  -4  -2   3 7507.13 614.187  26
  -4  -2   2 109006. 2373.47  14
  -4  -2   2 105341. 2263.93  26
  -4  -2   1 25342.0 1109.68  14
  -4  -2   1 23998.4 1093.43  26
  -4  -2   0 54173.1 1624.48   1
  -4  -2   0 52817.0 1642.67  26
  -4  -2  -1 20695.6 1008.56   1
  -4  -2  -1 20850.7 1042.49  26
   4  -2   2 102595. 2235.09  18
  -4  -2  -2 100021. 2235.34   1
  -4  -2  -2 96784.2 2282.69  26
   4  -2   3 61506.1 1820.81  18
  -4  -2  -3 61317.2 1784.12   1
  -4  -2  -3 57406.5 1795.45  26
   4  -2   4 30294.8 1333.87  18
  -4  -2  -4 29316.2 1307.66  26
   4  -2   5 33436.6 1454.89  18
  -4  -2  -5 35625.5 1149.60   8
  -4  -2  -5 31832.3 1407.45  26
  -4  -2  -6 611.665 157.944   8
  -4  -2  -7 2807.31 334.503   8
  -4  -2  -7 2836.50 335.711  12
  -4  -2  -8 1341.18 238.313   8
  -4  -2  -8 1086.73 214.036  12
  -4  -2  -9 1314.19 233.838   8
  -4  -2  -9 1354.69 238.256  12
  -4  -2 -10 8695.10 578.931   8
  -4  -2 -10 8232.69 569.163  12
  -4  -2 -11 21389.1 855.747   8
  -4  -2 -11 21215.1 880.428  12
  -4  -2 -12 2126.60 242.686   8
  -4  -2 -12 1980.91 254.029  12
  -4  -2 -13 1116.16 168.053  12
  -4  -1  16 9051.81 439.623   3
  -4  -1  15 30444.7 924.908  10
  -4  -1  15 33202.6 979.696   3
  -4  -1  14 2832.38 317.570  10
  -4  -1  13 1709.31 252.067  20
  -4  -1  13 2065.98 282.975   9
  -4  -1  12 3641.52 372.124  20
  -4  -1  12 3400.87 377.118   9
  -4  -1  11 7049.23 543.417   9
  -4  -1  10 11581.4 685.572   9
  -4  -1   9 28289.6 1045.31   9
  -4  -1   9 27276.7 1009.79   4
  -4  -1   8 7668.80 527.582   9
  -4  -1   8 4286.25 387.802   4
  -4  -1   7 9624.42 809.886  14
  -4  -1   7 10523.8 750.201  26
  -4  -1   6 106917. 2599.76  14
  -4  -1   6 105425. 2285.92  26
  -4  -1   5 22838.4 1162.12  14
  -4  -1   5 22943.1 1030.39  26
  -4  -1   4 93726.3 2279.91  14
  -4  -1   4 96733.7 2054.31  26
  -4  -1   3 39247.9 1440.71  14
  -4  -1   3 40342.2 1277.26  26
  -4  -1   2 6065.96 545.490   1
  -4  -1   2 5323.51 516.681  14
  -4  -1   2 5523.04 459.034  26
  -4  -1   1 94429.7 2135.24   1
  -4  -1   1 93290.2 1890.00  26
  -4  -1   0 46922.5 1507.10   1
  -4  -1   0 47863.8 1372.90  26
  -4  -1  -1 43753.9 1466.80   1
  -4  -1  -1 45774.8 1362.65  26
  -4  -1  -2 78771.2 1838.96  26
  -4  -1  -2 77430.2 1998.11   1
  -4  -1  -3 4501.96 500.730   1
   4  -1   3 5347.42 492.113  18
  -4  -1  -4 11652.3 825.986   1
   4  -1   4 11635.6 769.465  18
  -4  -1  -5 19472.7 1107.91   1
  -4  -1  -6 2013.64 363.710   1
  -4  -1  -6 2081.13 282.682   8
  -4  -1  -7 17150.1 826.153   8
  -4  -1  -8 2952.50 347.704   8
  -4  -1  -9 7844.22 565.616   8
  -4  -1  -9 9457.74 606.496  12
  -4  -1 -10 3746.70 387.189   8
  -4  -1 -10 3094.59 345.437  12
  -4  -1 -11 10674.1 625.669   8
  -4  -1 -11 11070.9 633.352  12
  -4  -1 -12 11418.2 599.574   8
  -4  -1 -12 10173.5 575.878  12
  -4  -1 -13 2160.58 234.003   8
  -4  -1 -13 1898.34 233.795  12
  -4  -1 -14 14821.4 547.872  12
  -4   0  17 4940.82 316.545  21
  -4   0  16 12148.2 595.300  21
  -4   0  15 7779.96 469.728  10
  -4   0  15 6903.53 439.748   3
  -4   0  14 1958.14 268.587  10
  -4   0  14 1980.13 259.641   3
  -4   0  13 1715.15 265.358  10
  -4   0  12 30465.0 1147.41  10
  -4   0  12 30235.8 1094.77   9
  -4   0  11 27159.6 1040.31   9
  -4   0  10 9789.69 615.651   9
  -4   0   9 40810.4 1220.35   9
  -4   0   9 39986.3 1223.61   4
  -4   0   8 59695.1 2031.59  14
  -4   0   8 65242.3 1512.24   4
  -4   0   7 6248.54 638.059  14
  -4   0   6 11823.5 850.993  14
  -4   0   5 17996.8 1022.82  14
  -4   0   4 59946.6 1821.52  14
  -4   0   3 13212.8 837.296  14
  -4   0   2 109022. 2314.32   1
  -4   0   1 961.886 224.460   1
  -4   0   0 104839. 2267.70   1
  -4   0  -1 17911.5 957.439   1
  -4   0  -2 33205.7 1332.95   1
  -4   0  -3 23997.5 1166.00   1
  -4   0  -4 17852.0 1038.33   1
  -4   0  -4 18461.1 993.456  16
  -4   0  -5 2628.42 392.839  16
  -4   0  -5 2188.03 376.500   1
  -4   0  -6 3266.77 446.318  16
  -4   0  -6 3441.02 492.893   1
  -4   0  -6 3781.09 375.682   8
  -4   0  -7 1208.56 223.199   8
  -4   0  -8 92139.2 1942.66   8
  -4   0  -9 57097.0 1552.43   8
  -4   0 -10 10855.9 668.624   8
  -4   0 -11 12873.9 702.837   8
  -4   0 -11 12324.0 661.127  12
  -4   0 -12 656.828 158.062   8
  -4   0 -12 671.048 159.350  12
  -4   0 -13 18346.7 702.226   8
  -4   0 -13 17153.9 671.542  12
  -4   0 -14 6027.44 331.741   8
  -4   0 -14 5642.81 331.045  12
  -4   1  16 9263.15 508.305  21
  -4   1  15 34355.9 1107.96  21
  -4   1  14 2964.59 318.905  10
  -4   1  13 2736.16 334.812  10
  -4   1  12 3488.36 387.733  10
  -4   1  11 7688.49 579.520  10
  -4   1  10 12040.8 720.964  10
  -4   1   9 27011.2 1060.59  10
  -4   1   8 7556.96 546.930  10
  -4   1   8 6454.55 663.772  14
  -4   1   8 7753.21 527.007   4
  -4   1   7 11583.8 859.069  14
  -4   1   6 104934. 2543.46  14
  -4   1   5 23183.2 1043.15  22
  -4   1   4 94294.2 2102.17  22
  -4   1   3 39247.5 1407.67   1
  -4   1   2 5361.69 520.190   1
  -4   1   1 87854.3 2108.88   1
  -4   1   0 46430.7 1547.73   1
  -4   1  -1 42862.3 1508.37   1
  -4   1  -2 75523.1 2061.15   1
  -4   1  -3 4596.97 522.749   1
  -4   1  -4 12133.9 875.084   1
  -4   1  -4 11774.9 845.326  16
  -4   1  -5 19043.1 1112.34  16
  -4   1  -5 19268.3 1144.28   1
  -4   1  -6 2215.87 295.945   8
  -4   1  -7 15968.3 805.346   8
  -4   1  -8 2518.25 324.924   8
  -4   1  -9 7842.99 577.117   8
  -4   1 -10 2905.23 348.197   8
  -4   1 -11 10847.5 643.367   8
  -4   1 -12 10281.5 587.898   8
  -4   1 -13 2140.89 245.494   8
  -4   1 -14 14793.2 524.415   8
  -4   2  16 463.410 109.672  21
  -4   2  15 3441.30 332.997  21
  -4   2  14 12888.2 625.496  10
  -4   2  14 12363.4 692.129  21
  -4   2  13 16491.0 775.847  10
  -4   2  13 14214.2 792.755  21
  -4   2  12 13288.7 781.071  21
  -4   2  12 13471.4 742.789  10
  -4   2  11 25424.2 1102.36  21
  -4   2  11 25712.6 1054.29  10
  -4   2  10 2733.17 359.880  21
  -4   2  10 2626.28 339.766  10
  -4   2   9 26741.0 1106.39  21
  -4   2   9 26889.5 1070.66  10
  -4   2   8 3149.20 372.740  21
  -4   2   8 2895.96 341.344  10
  -4   2   7 33605.2 1161.12  21
  -4   2   7 33637.6 1157.83  10
  -4   2   7 32650.2 1062.20   4
  -4   2   6 1162.04 268.246  22
  -4   2   5 82774.4 2152.39  22
  -4   2   4 24208.4 1156.99  22
  -4   2   3 7778.09 654.099  22
  -4   2   3 8092.91 651.721   1
  -4   2   2 103286. 2372.79  22
  -4   2   2 108506. 2386.27   1
  -4   2   1 24433.2 1151.35  22
  -4   2   1 23472.8 1113.78   1
  -4   2   0 51612.5 1674.40   1
  -4   2  -1 19385.5 1056.29   1
  -4   2  -2 95823.5 2384.40   1
  -4   2  -3 58187.2 1916.60   1
  -4   2  -4 30049.5 1434.35   1
  -4   2  -5 34111.5 1148.35   6
  -4   2  -6 439.207 138.983  11
  -4   2  -6 496.832 143.295   6
  -4   2  -7 2807.12 332.511  11
  -4   2  -7 2234.62 296.481   6
  -4   2  -8 778.478 181.775   8
  -4   2  -9 1282.20 235.327   8
  -4   2 -10 8041.56 572.877   8
  -4   2 -11 20182.0 863.183   8
  -4   2 -12 1625.09 230.356   8
  -4   2 -13 1016.65 162.052   8
  -4   3  15 535.138 129.660  21
  -4   3  14 1890.82 217.653  10
  -4   3  14 1887.93 257.194  21
  -4   3  13 10538.5 581.925  10
  -4   3  13 10131.9 631.676  21
  -4   3  12 4487.75 406.281  10
  -4   3  12 4490.91 443.302  21
  -4   3  11 56522.5 1512.81  10
  -4   3  11 55046.9 1591.15  21
  -4   3  10 91857.5 1965.58  10
  -4   3  10 91352.3 2064.68  21
  -4   3   9 39379.1 1348.76  21
  -4   3   9 40692.3 1313.21  10
  -4   3   8 4399.17 446.722  21
  -4   3   8 4863.57 449.645  10
  -4   3   7 2826.69 350.948  21
  -4   3   7 2291.15 306.332  10
  -4   3   6 16720.5 836.596  21
  -4   3   6 16354.8 799.560  10
  -4   3   5 57714.7 1509.04  21
  -4   3   5 54413.9 1438.08  10
  -4   3   4 50026.9 1794.71  22
  -4   3   4 49379.4 1340.44  10
  -4   3   3 15667.1 998.652  22
  -4   3   2 14869.5 967.123  22
  -4   3   1 10698.1 819.349  22
  -4   3   1 12321.8 829.358   1
  -4   3   0 19771.5 1115.53  22
  -4   3   0 20137.3 1064.13   1
  -4   3  -1 12657.3 869.290   1
  -4   3  -2 25104.1 1258.56   1
  -4   3  -2 26246.3 1022.79   6
  -4   3  -3 9377.29 794.557   1
  -4   3  -3 9876.35 635.020   6
  -4   3  -4 2128.95 295.266   6
  -4   3  -5 52802.4 1503.32   6
  -4   3  -6 38830.1 1227.80  11
  -4   3  -6 38433.4 1288.03   6
  -4   3  -7 32842.9 1143.09  11
  -4   3  -7 32380.1 1176.48   6
  -4   3  -8 32299.1 1149.08  11
  -4   3  -8 34126.4 1185.78   6
  -4   3  -9 20108.0 900.395  11
  -4   3  -9 20839.1 890.276   6
  -4   3 -10 276.424 115.952   8
  -4   3 -11 9143.03 558.777   8
  -4   3 -12 1216.01 184.873   8
  -4   3 -13 1088.65 154.936   8
  -4   4  14 3413.15 293.919  21
  -4   4  13 10887.0 588.679  21
  -4   4  12 1083.85 206.841  21
  -4   4  12 949.894 178.600  10
  -4   4  11 10015.4 604.787  10
  -4   4  11 9877.64 641.046  21
  -4   4  10 5351.94 461.497  10
  -4   4  10 5717.84 501.295  21
  -4   4   9 1154.64 226.711  21
  -4   4   9 1205.70 229.586  10
  -4   4   8 36745.1 1251.02  10
  -4   4   8 36237.4 1278.07  21
  -4   4   7 18642.8 893.782  10
  -4   4   7 19647.4 937.565  21
  -4   4   6 102807. 2077.48  10
  -4   4   6 103185. 2128.03  21
  -4   4   5 2861.08 344.871  10
  -4   4   5 2633.59 338.741  21
  -4   4   4 21990.9 942.899  10
  -4   4   4 24205.0 1002.78  21
  -4   4   3 3471.96 373.363  10
  -4   4   3 3979.82 406.220  21
  -4   4   3 3688.42 377.191   6
  -4   4   2 46419.6 1338.68  10
  -4   4   2 46484.5 1370.80  21
  -4   4   2 48081.4 1362.55   6
  -4   4   1 50292.6 1424.56  21
  -4   4   1 47224.3 1374.21   6
  -4   4   0 834.159 187.372  21
  -4   4   0 676.798 171.234   6
  -4   4  -1 13526.0 718.861  21
  -4   4  -1 12595.7 732.814   6
  -4   4  -2 13752.7 723.423  21
  -4   4  -2 11662.5 711.558   6
  -4   4  -3 17116.2 803.717  21
  -4   4  -3 16956.4 865.809   6
  -4   4  -4 79400.6 1737.35  21
  -4   4  -4 76734.4 1859.60   6
  -4   4  -5 26308.2 997.043  11
  -4   4  -5 27144.0 1013.02  21
  -4   4  -5 25581.9 1079.20   6
  -4   4  -6 37297.7 1200.09  11
  -4   4  -6 34038.7 1239.15   6
  -4   4  -7 40867.1 1260.03  11
  -4   4  -7 39643.3 1305.45   6
  -4   4  -8 10893.4 643.484  11
  -4   4  -8 11449.1 678.533   6
  -4   4  -9 4873.10 417.901  11
  -4   4  -9 4818.91 417.091   6
  -4   4 -10 13200.0 631.311   6
  -4   4 -10 11759.9 624.652   8
  -4   4 -11 2328.27 255.467   8
  -4   4 -12 1330.08 174.023   8
  -4   5  13 117.530 61.3710  21
  -4   5  12 2159.90 247.343  21
  -4   5  11 1108.43 193.884  21
  -4   5  10 8516.50 559.532  21
  -4   5   9 14632.5 763.515  21
  -4   5   8 10519.6 660.545  21
  -4   5   7 15769.7 824.146  21
  -4   5   6 6547.32 534.167  21
  -4   5   5 2648.91 342.482  21
  -4   5   4 2021.98 303.131  21
  -4   5   3 44545.8 1403.82  21
  -4   5   2 282.206 103.522  21
  -4   5   1 26863.4 1068.34  21
  -4   5   1 27354.1 1053.83   6
  -4   5   0 13820.8 758.419  21
  -4   5   0 13715.6 757.478   6
  -4   5  -1 2174.95 301.889  21
  -4   5  -1 2675.75 339.516   6
  -4   5  -2 50576.2 1425.63  21
  -4   5  -2 49581.5 1475.61   6
  -4   5  -3 7807.02 557.003  21
  -4   5  -3 7176.54 565.622   6
  -4   5  -4 14421.9 752.059  21
  -4   5  -4 13586.6 777.242   6
  -4   5  -5 10205.6 603.279  11
  -4   5  -5 9796.37 608.534  21
  -4   5  -5 8645.82 621.042   6
  -4   5  -6 8660.61 552.430  11
  -4   5  -6 8575.77 595.054   6
  -4   5  -7 3901.36 364.459  11
  -4   5  -7 3994.07 395.553   6
  -4   5  -8 1397.13 213.925  11
  -4   5  -8 1494.54 231.223   6
  -4   5  -9 2110.57 245.593  11
  -4   5  -9 2276.55 259.811   6
  -4   5 -10 4566.23 326.719   6
  -4   5 -10 4539.96 339.948   8
  -4   5 -11 4143.68 280.850   8
  -4   6  11 10548.9 472.948  21
  -4   6  10 1927.42 226.964  21
  -4   6   9 4282.47 363.650  21
  -4   6   8 381.673 127.439  21
  -4   6   7 186.548 102.412  21
  -4   6   6 6250.51 496.260  21
  -4   6   5 4081.20 400.122  21
  -4   6   4 6555.15 515.313  21
  -4   6   3 3663.00 386.649  21
  -4   6   2 9870.44 627.960  21
  -4   6   1 2124.71 292.987  21
  -4   6   0 2512.57 311.045  21
  -4   6   0 3125.18 340.663   6
  -4   6  -1 3876.88 385.600  21
  -4   6  -1 4169.57 396.006   6
  -4   6  -2 3890.57 387.809  21
  -4   6  -2 4131.57 399.703   6
  -4   6  -3 1753.53 257.539  21
  -4   6  -3 1668.01 253.095   6
  -4   6  -4 10475.8 597.529  21
  -4   6  -4 10007.3 605.604   6
  -4   6  -5 15058.3 656.668  11
  -4   6  -5 14983.2 698.396  21
  -4   6  -5 14993.9 727.601   6
  -4   6  -6 1918.14 228.903  11
  -4   6  -6 1910.95 249.544   6
  -4   6  -7 1812.69 212.987  11
  -4   6  -7 1829.18 233.774   6
  -4   6  -8 6034.34 354.546  11
  -4   6  -8 6735.89 406.834   6
  -4   6  -9 1592.92 173.409   6
  -4   6  -9 1743.10 177.510   8
  -4   7   8 28791.4 742.363  21
  -4   7   7 9226.02 459.135  21
  -4   7   6 3105.57 282.362  21
  -4   7   5 3677.72 321.833  21
  -4   7   4 882.192 163.287  21
  -4   7   3 541.725 131.899  21
  -4   7   2 771.351 152.716  21
  -4   7   1 3086.16 306.658  21
  -4   7   0 2153.22 253.746  21
  -4   7  -1 4197.77 350.534  21
  -4   7  -2 2351.54 259.407  21
  -4   7  -2 2641.40 253.994   6
  -4   7  -3 5594.36 382.079  21
  -4   7  -3 5463.86 362.660   6
  -4   7  -4 2721.80 248.969   6
  -4   7  -5 5947.75 351.363   6
  -4   7  -6 3240.17 242.326   6
  -5  -7   3 8047.78 374.113   9
  -5  -7   2 14.9037 38.8513   9
  -5  -7   1 6360.80 342.899   9
  -5  -6   9 46634.9 915.945   9
  -5  -6   8 6450.77 379.105   9
  -5  -6   7 2032.78 226.924   9
  -5  -6   6 2636.31 267.063   9
  -5  -6   5 1110.79 177.555   9
  -5  -6   4 1274.29 203.375   9
  -5  -6   4 1656.01 228.599  15
  -5  -6   3 1562.16 225.968  15
  -5  -6   2 99.4191 58.0958  15
  -5  -6   1 11711.1 642.375  15
  -5  -6   1 12657.5 616.689   7
  -5  -6   0 918.714 187.600  15
  -5  -6   0 800.859 153.381   7
  -5  -6  -1 14543.5 698.882  15
  -5  -6  -1 15563.0 655.872   7
  -5  -6  -2 1546.44 224.695  15
  -5  -6  -2 1853.33 223.746   7
  -5  -6  -3 3705.16 329.633  15
  -5  -6  -3 3777.93 299.684  12
  -5  -6  -3 4257.71 316.991   7
  -5  -6  -4 10075.0 465.440  12
  -5  -6  -4 11405.3 477.913   7
  -5  -6  -5 14307.1 518.087  12
  -5  -5  11 5495.49 350.281   9
  -5  -5  10 11785.1 562.363   9
  -5  -5   9 12413.8 613.594   9
  -5  -5   8 1385.71 217.743   9
  -5  -5   7 7216.30 502.360   9
  -5  -5   6 1564.77 239.937   9
  -5  -5   6 1594.54 231.779  13
  -5  -5   5 10582.0 624.127  15
  -5  -5   4 14790.4 766.881  15
  -5  -5   4 13877.7 728.649   7
  -5  -5   3 2354.61 314.903  15
  -5  -5   3 1814.33 274.293   7
  -5  -5   2 30780.7 1139.35  15
  -5  -5   2 31208.3 1093.24   7
  -5  -5   1 6740.49 541.346  15
  -5  -5   1 6905.69 519.683   7
  -5  -5   0 13439.3 760.273  15
  -5  -5   0 13824.3 726.144   7
  -5  -5  -1 6834.81 535.722  15
  -5  -5  -1 6557.78 497.550   7
  -5  -5  -2 1182.47 221.163  15
  -5  -5  -2 1707.14 252.108   7
  -5  -5  -3 19866.1 869.496  15
  -5  -5  -3 20146.2 795.847  12
  -5  -5  -3 21451.2 863.867   7
  -5  -5  -4 7254.69 507.703  15
  -5  -5  -4 7420.00 473.339  12
  -5  -5  -4 7846.97 508.107   7
  -5  -5  -5 12370.7 590.328  12
  -5  -5  -5 13396.5 634.537   7
  -5  -5  -6 6629.59 412.516  12
  -5  -5  -6 7282.53 438.859   7
  -5  -5  -7 362.223 96.3964   7
  -5  -5  -7 317.591 85.7106  12
  -5  -5  -8 3543.51 252.590  12
  -5  -4  13 12442.5 510.949   9
  -5  -4  12 3387.61 302.254   9
  -5  -4  11 1253.78 198.151   9
  -5  -4  10 14062.3 704.136   9
  -5  -4   9 5912.07 478.864   9
  -5  -4   8 10048.2 624.235   9
  -5  -4   7 28111.5 1054.48   9
  -5  -4   6 9713.01 623.608   9
  -5  -4   5 32335.2 1146.45  15
  -5  -4   5 27339.3 1064.91   7
  -5  -4   4 17995.0 878.796  15
  -5  -4   4 16636.6 828.448   7
  -5  -4   3 6334.65 526.604  15
  -5  -4   3 5611.45 482.464   7
  -5  -4   2 18053.8 899.360  15
  -5  -4   2 16829.5 836.518   7
  -5  -4   1 44258.3 1406.77  15
  -5  -4   1 45097.5 1362.74   7
  -5  -4   0 1860.31 289.281  15
  -5  -4   0 2129.48 297.783   7
  -5  -4  -1 38948.0 1314.12  15
  -5  -4  -1 39986.0 1275.02   7
  -5  -4  -2 12860.6 750.318  15
  -5  -4  -2 12773.0 720.756   7
  -5  -4  -3 3910.97 409.551  15
  -5  -4  -3 3277.19 362.090   7
  -5  -4  -4 1725.56 263.488  15
  -5  -4  -4 1434.85 239.189   7
  -5  -4  -5 43018.5 1267.51   7
  -5  -4  -6 13740.8 697.926   7
  -5  -4  -7 12377.5 598.210  12
  -5  -4  -7 12831.1 645.569   7
  -5  -4  -8 15631.4 634.157  12
  -5  -4  -8 16345.5 679.401   7
  -5  -4  -9 2968.05 251.982  12
  -5  -4  -9 3373.08 282.769   7
  -5  -4 -10 5579.66 310.369   7
  -5  -3  14 7797.69 416.823  10
  -5  -3  14 7686.06 413.724   9
  -5  -3  13 11840.7 575.884   9
  -5  -3  12 2177.77 267.999   9
  -5  -3  11 2036.75 281.375   9
  -5  -3  10 163.136 106.141   9
  -5  -3   9 44753.5 1358.44   9
  -5  -3   8 3952.25 403.828   9
  -5  -3   7 9771.09 625.870   9
  -5  -3   6 45817.4 1357.73   9
  -5  -3   6 46677.3 1375.07   7
  -5  -3   5 4337.72 420.000   7
  -5  -3   4 19551.6 908.005  15
  -5  -3   4 17666.0 840.876   7
  -5  -3   3 6348.80 521.312  15
  -5  -3   3 7074.28 532.804   7
  -5  -3   2 4588.55 444.000  15
  -5  -3   2 4268.92 412.275   7
  -5  -3   1 40709.0 1326.01  15
  -5  -3   1 41331.8 1280.37   7
  -5  -3   0 28022.3 1096.92  15
  -5  -3   0 26542.5 1028.23   7
  -5  -3  -1 52435.5 1497.03  15
  -5  -3  -1 53717.8 1465.92   7
  -5  -3  -2 91082.9 1969.41  15
  -5  -3  -2 86544.9 1877.67   7
  -5  -3  -3 35741.9 1225.46  15
  -5  -3  -3 36211.5 1219.12   7
  -5  -3  -4 29119.8 1106.51   8
  -5  -3  -4 29323.5 1101.22   7
  -5  -3  -5 23825.7 994.157   8
  -5  -3  -5 22959.1 972.447   7
  -5  -3  -6 42346.3 1311.50   8
  -5  -3  -6 40909.6 1285.31   7
  -5  -3  -7 2227.17 292.520   8
  -5  -3  -8 4369.26 396.741   7
  -5  -3  -9 16680.3 728.571   7
  -5  -3 -10 12635.1 580.024   7
  -5  -3 -11 5005.87 321.100   7
  -5  -2  15 5179.63 318.762  10
  -5  -2  14 1525.69 211.598  10
  -5  -2  13 24955.9 888.890   9
  -5  -2  12 16567.1 776.021   9
  -5  -2  11 35045.0 1170.56   9
  -5  -2  10 25827.4 1024.43   9
  -5  -2   9 15710.8 807.460   9
  -5  -2   8 3691.88 387.881   9
  -5  -2   8 3663.69 372.756   4
  -5  -2   7 8440.52 572.517   9
  -5  -2   7 8973.50 582.309   4
  -5  -2   6 26320.3 1001.65   9
  -5  -2   6 27318.5 1016.40   7
  -5  -2   6 27572.6 1019.70   4
  -5  -2   5 71228.8 1624.24   7
  -5  -2   4 16987.8 825.449   6
  -5  -2   4 17483.8 805.902   7
  -5  -2   3 27490.9 1031.03   6
  -5  -2   3 25435.3 964.839   7
  -5  -2   2 11250.9 649.357   6
  -5  -2   2 10550.1 622.443   7
  -5  -2   1 10710.6 624.432   6
  -5  -2   1 10046.7 609.124   7
  -5  -2   0 17358.2 797.969   8
  -5  -2   0 17180.7 804.779   7
  -5  -2  -1 18726.6 840.461   8
  -5  -2  -1 18355.0 839.799   7
  -5  -2  -2 141600. 2350.81   8
  -5  -2  -2 136983. 2320.22   7
  -5  -2  -3 2358.65 307.911   8
  -5  -2  -4 17625.6 852.701   8
  -5  -2  -5 55047.6 1517.37   8
  -5  -2  -6 16658.9 834.857   8
  -5  -2  -7 6212.03 505.323   8
  -5  -2  -8 2228.24 297.879   8
  -5  -2  -9 3393.82 352.509   8
  -5  -2 -10 6084.85 439.709   8
  -5  -2 -11 486.213 118.307   8
  -5  -1  15 988.264 151.682  10
  -5  -1  14 15117.4 678.353  10
  -5  -1  13 34742.7 1123.80  10
  -5  -1  13 33457.5 1051.47   9
  -5  -1  12 60836.4 1490.09   9
  -5  -1  11 18895.6 859.620   9
  -5  -1  10 8698.67 587.670   9
  -5  -1   9 39501.9 1251.79   9
  -5  -1   9 36616.7 1210.72   4
  -5  -1   8 22327.0 934.074   9
  -5  -1   8 22470.2 940.847   4
  -5  -1   7 14850.2 745.053   9
  -5  -1   7 14194.5 740.736   4
  -5  -1   6 12278.7 681.913   4
  -5  -1   6 11536.2 690.237   6
  -5  -1   6 12997.2 672.128   9
  -5  -1   5 22624.3 958.658   6
  -5  -1   4 15467.7 781.630   6
  -5  -1   3 36827.0 1196.39   6
  -5  -1   2 13738.6 715.606   6
  -5  -1   2 14992.2 736.644   5
  -5  -1   1 4093.71 520.953   1
  -5  -1   1 4693.83 412.992   5
  -5  -1   0 22785.4 1226.84   1
  -5  -1   0 25117.0 930.090   7
  -5  -1  -1 10313.8 602.712   8
  -5  -1  -1 9545.46 587.903   5
  -5  -1  -1 10002.4 821.716   1
  -5  -1  -2 3658.93 367.300   8
  -5  -1  -2 3616.86 360.873   5
  -5  -1  -3 1747.75 249.344   5
  -5  -1  -3 1444.93 235.816   8
  -5  -1  -4 29894.3 1089.14   8
  -5  -1  -5 20647.7 916.490   8
  -5  -1  -6 6307.78 512.281   8
  -5  -1  -7 30895.4 1130.06   8
  -5  -1  -8 33089.4 1160.34   8
  -5  -1  -9 14324.3 740.639   8
  -5  -1 -10 1835.39 250.512   8
  -5  -1 -11 768.291 153.328   8
  -5  -1 -12 2711.52 249.654   8
  -5   0  15 3178.01 275.425  21
  -5   0  15 3857.88 296.307  10
  -5   0  14 6411.44 439.967  21
  -5   0  14 7386.24 478.355  10
  -5   0  13 10315.2 605.087  21
  -5   0  13 10936.5 635.800  10
  -5   0  12 11170.0 664.863  21
  -5   0  12 11945.9 702.615  10
  -5   0  12 12388.4 655.036   9
  -5   0  11 13147.6 759.245  10
  -5   0  11 13504.5 700.656   9
  -5   0   9 13252.6 735.917   4
  -5   0   8 109253. 2138.70   6
  -5   0   8 110917. 2110.11   4
  -5   0   7 32882.3 1162.09   6
  -5   0   7 29917.4 1078.30   4
  -5   0   6 59062.2 1560.56   6
  -5   0   6 58133.7 1485.01   4
  -5   0   5 41665.9 1298.58   6
  -5   0   4 1618.81 252.199   6
  -5   0   3 730.904 161.559   6
  -5   0   3 1149.69 208.901   5
  -5   0   2 1802.43 353.575   1
  -5   0   1 1755.23 346.209   1
  -5   0   0 6857.93 502.590   5
  -5   0   0 6463.07 660.207   1
  -5   0  -1 38.9123 69.9224   1
  -5   0  -1 216.671 78.9271   6
  -5   0  -1 34.0596 51.8900   5
  -5   0  -2 2767.24 316.023   6
  -5   0  -2 3088.63 329.619   8
  -5   0  -2 2749.15 321.848   5
  -5   0  -3 21314.5 897.794   8
  -5   0  -3 22086.8 913.720   5
  -5   0  -4 14193.4 751.837   8
  -5   0  -5 15785.0 805.089   8
  -5   0  -6 6283.51 514.688   8
  -5   0  -7 2361.48 313.458   8
  -5   0  -8 22850.9 967.518   8
  -5   0  -9 928.728 197.849   8
  -5   0 -10 22510.8 892.980   8
  -5   0 -11 9508.82 536.937   8
  -5   0 -12 20986.9 713.513   8
  -5   1  15 1060.07 149.967  10
  -5   1  15 848.725 140.666  21
  -5   1  14 13608.7 645.466  21
  -5   1  14 15224.7 659.803  10
  -5   1  13 32477.8 1078.68  21
  -5   1  13 34626.8 1103.44  10
  -5   1  12 61649.5 1562.87  21
  -5   1  12 60348.4 1564.92  10
  -5   1  11 19287.0 900.991  21
  -5   1  11 18258.4 895.972  10
  -5   1  10 8188.89 595.784  21
  -5   1  10 7698.57 589.302  10
  -5   1   9 38942.4 1281.36  21
  -5   1   9 35862.2 1274.97  10
  -5   1   8 22391.4 954.373   6
  -5   1   8 22397.2 994.972  10
  -5   1   8 21492.1 930.576   4
  -5   1   7 15174.3 793.173   6
  -5   1   7 14029.7 775.885  10
  -5   1   7 13529.0 727.402   4
  -5   1   6 12109.3 702.761   6
  -5   1   6 12393.9 716.263  10
  -5   1   6 12501.2 689.727   4
  -5   1   5 21603.9 888.511   4
  -5   1   5 23048.3 957.444   6
  -5   1   5 23137.2 958.280  10
  -5   1   4 15118.2 766.537   6
  -5   1   4 15947.4 770.710  10
  -5   1   4 15460.0 755.207   5
  -5   1   3 55304.3 1455.98   6
  -5   1   3 54062.7 1417.63   5
  -5   1   2 14268.6 741.732   6
  -5   1   2 12663.9 925.575   1
  -5   1   2 14462.5 729.314   5
  -5   1   1 4573.89 422.234   6
  -5   1   1 4185.48 537.218   1
  -5   1   1 5183.09 440.405   5
  -5   1   0 22385.1 931.938   6
  -5   1   0 22632.9 1249.74   1
  -5   1   0 24182.8 953.378   5
  -5   1  -1 8079.54 560.799   6
  -5   1  -2 4298.27 410.520   6
  -5   1  -3 1588.20 245.962   6
  -5   1  -3 1528.44 240.717   8
  -5   1  -4 20264.6 892.352   6
  -5   1  -4 30618.8 1100.02   8
  -5   1  -5 19476.2 895.729   8
  -5   1  -6 6338.95 517.244   8
  -5   1  -7 31159.6 1145.44   8
  -5   1  -8 33663.8 1179.01   8
  -5   1  -9 13870.4 734.314   8
  -5   1 -10 2012.72 272.338   8
  -5   1 -11 552.575 130.780   8
  -5   1 -12 2421.53 240.850   8
  -5   2  15 4652.41 312.749  21
  -5   2  14 1574.41 202.343  10
  -5   2  14 1375.21 197.347  21
  -5   2  13 24802.1 886.852  10
  -5   2  13 25770.3 938.379  21
  -5   2  12 17171.2 814.412  21
  -5   2  12 17141.6 794.133  10
  -5   2  11 35003.7 1207.85  21
  -5   2  11 35630.7 1204.76  10
  -5   2  10 26534.0 1069.66  21
  -5   2  10 24005.3 1020.05  10
  -5   2   9 16972.5 857.769  21
  -5   2   9 15793.5 839.575  10
  -5   2   8 3643.74 399.230  21
  -5   2   8 3067.28 368.472  10
  -5   2   7 8381.44 586.769   6
  -5   2   7 8375.57 588.735  21
  -5   2   7 8127.50 594.294  10
  -5   2   7 7915.06 554.526   4
  -5   2   6 27483.4 1057.24   6
  -5   2   6 26238.2 1053.76  10
  -5   2   6 26873.6 1006.15   4
  -5   2   5 72123.4 1697.20   6
  -5   2   5 69772.6 1681.17  10
  -5   2   5 73481.5 1635.85   4
  -5   2   4 16555.2 812.717   6
  -5   2   4 18198.1 842.880  10
  -5   2   4 17053.3 793.914   5
  -5   2   4 17037.6 775.440   4
  -5   2   3 26305.1 954.374   4
  -5   2   3 27477.5 998.476  10
  -5   2   3 26757.0 1039.43   6
  -5   2   3 26863.1 1001.22   5
  -5   2   2 10431.6 654.883   6
  -5   2   2 9930.28 613.212   5
  -5   2   1 10184.2 649.611   6
  -5   2   1 9652.23 608.923   5
  -5   2   0 16409.2 824.680   6
  -5   2  -1 18730.6 880.878   6
  -5   2  -2 145296. 2442.30   6
  -5   2  -3 2606.42 331.963   6
  -5   2  -3 2540.24 311.301   8
  -5   2  -4 19104.1 890.577   6
  -5   2  -4 18988.1 873.640   8
  -5   2  -5 59727.1 1566.61   6
  -5   2  -5 55739.8 1513.52   8
  -5   2  -6 18673.4 862.589   6
  -5   2  -6 16656.3 833.332   8
  -5   2  -7 5260.24 445.776   6
  -5   2  -7 6863.27 533.604   8
  -5   2  -8 2268.27 301.438   8
  -5   2  -9 3732.36 373.609   8
  -5   2 -10 5726.60 438.341   8
  -5   2 -11 433.843 118.565   8
  -5   2 -12 11563.0 496.259   8
  -5   3  14 7669.12 383.078  10
  -5   3  14 7861.13 426.037  21
  -5   3  13 11705.0 557.448  10
  -5   3  13 11227.5 571.501  21
  -5   3  12 2098.43 263.791  10
  -5   3  12 2175.20 277.130  21
  -5   3  11 2150.45 284.610  10
  -5   3  11 1895.32 265.235  21
  -5   3  10 222.625 102.220  21
  -5   3  10 59.3880 100.724  10
  -5   3   9 43852.0 1365.46  21
  -5   3   9 42129.6 1326.79  10
  -5   3   8 4290.26 431.783  21
  -5   3   8 3855.41 407.970  10
  -5   3   7 11333.1 696.391  21
  -5   3   7 10561.5 673.148  10
  -5   3   6 50015.0 1401.11   6
  -5   3   6 48316.2 1413.25  21
  -5   3   6 45617.2 1382.65  10
  -5   3   5 4661.70 434.513  21
  -5   3   5 4040.74 410.849  10
  -5   3   5 4240.49 412.708   6
  -5   3   4 20020.9 884.843  21
  -5   3   4 17899.0 846.114  10
  -5   3   4 19556.8 897.120   6
  -5   3   3 7420.39 539.397  10
  -5   3   3 7429.89 563.225   6
  -5   3   2 4858.57 461.183   6
  -5   3   2 5701.91 470.149   5
  -5   3   1 41041.6 1328.00   6
  -5   3   1 42498.8 1291.25   5
  -5   3   0 28390.5 1106.84   6
  -5   3  -1 54182.8 1533.74   6
  -5   3  -2 90057.6 1980.01   6
  -5   3  -3 35965.6 1255.60   6
  -5   3  -4 31086.3 1160.66   6
  -5   3  -4 32390.9 1130.83   8
  -5   3  -5 23951.2 1008.06   6
  -5   3  -5 25103.3 1003.90   8
  -5   3  -6 42428.4 1311.90   6
  -5   3  -6 40803.4 1278.25   8
  -5   3  -7 2926.55 332.378   6
  -5   3  -7 2491.42 312.854   8
  -5   3  -8 4535.99 389.321   6
  -5   3  -8 4378.42 401.307   8
  -5   3  -9 16451.6 742.271   8
  -5   3 -10 12079.3 588.650   8
  -5   3 -11 5229.07 348.924   8
  -5   4  13 12431.8 521.543  21
  -5   4  12 3170.50 287.716  10
  -5   4  12 2812.65 279.494  21
  -5   4  11 1189.10 198.052  10
  -5   4  11 992.589 182.837  21
  -5   4  10 13035.0 679.111  10
  -5   4  10 13041.5 682.861  21
  -5   4   9 5654.46 469.021  10
  -5   4   9 5785.27 475.183  21
  -5   4   8 10017.2 636.927  10
  -5   4   8 10992.9 663.862  21
  -5   4   7 29212.2 1096.24  10
  -5   4   7 29540.8 1101.22  21
  -5   4   6 9439.90 626.522  10
  -5   4   6 10251.6 655.810  21
  -5   4   5 27200.8 1063.29  10
  -5   4   5 29272.4 1106.64  21
  -5   4   4 17073.4 834.941  10
  -5   4   4 17543.6 855.163  21
  -5   4   4 17943.9 845.975   6
  -5   4   3 6136.56 494.786  10
  -5   4   3 6404.74 516.704  21
  -5   4   3 6351.01 518.010   6
  -5   4   2 19085.1 881.187  21
  -5   4   2 18461.9 891.146   6
  -5   4   1 48563.7 1371.98  21
  -5   4   1 46489.6 1422.02   6
  -5   4   0 2116.99 312.009   6
  -5   4  -1 39600.4 1316.47   6
  -5   4  -2 12331.7 734.283   6
  -5   4  -3 3252.11 376.357   6
  -5   4  -4 1361.96 244.079   6
  -5   4  -5 43905.1 1337.65   6
  -5   4  -5 42020.8 1239.30   8
  -5   4  -6 13829.9 726.884   6
  -5   4  -6 14041.5 705.472   8
  -5   4  -7 11515.9 632.109   6
  -5   4  -7 11941.0 633.101   8
  -5   4  -8 15846.8 688.128   6
  -5   4  -8 14625.0 670.410   8
  -5   4  -9 3560.97 293.194   6
  -5   4  -9 3428.97 303.288   8
  -5   4 -10 5665.04 349.685   8
  -5   5  11 5617.20 365.896  21
  -5   5  10 11727.6 573.018  21
  -5   5   9 11443.7 601.005  21
  -5   5   8 1583.51 240.274  21
  -5   5   7 7297.74 519.018  21
  -5   5   6 1405.13 239.141  21
  -5   5   5 10085.2 631.962  21
  -5   5   4 14435.6 759.969  21
  -5   5   3 1685.55 258.728  21
  -5   5   3 2048.63 270.936   6
  -5   5   2 32264.0 1113.11  21
  -5   5   2 32987.4 1125.38   6
  -5   5   1 7014.18 512.959  21
  -5   5   1 7677.27 553.616   6
  -5   5   0 14529.8 727.363  21
  -5   5   0 14556.7 765.476   6
  -5   5  -1 6619.42 481.975  21
  -5   5  -1 6301.76 504.929   6
  -5   5  -2 1483.48 226.259  21
  -5   5  -2 1412.11 241.333   6
  -5   5  -3 20762.7 896.762   6
  -5   5  -4 7205.15 520.311   6
  -5   5  -5 12994.9 674.781   6
  -5   5  -6 6715.82 462.855   6
  -5   5  -6 6752.22 423.097   8
  -5   5  -7 399.187 113.455   6
  -5   5  -7 405.635 100.129   8
  -5   5  -8 3467.31 280.725   6
  -5   5  -8 3517.99 270.263   8
  -5   6   9 45806.2 958.770  21
  -5   6   8 5830.66 375.083  21
  -5   6   7 1901.90 230.018  21
  -5   6   6 2895.58 290.143  21
  -5   6   5 1181.35 194.297  21
  -5   6   4 1299.85 200.333  21
  -5   6   3 1611.69 225.607  21
  -5   6   2 12.4386 42.2073  21
  -5   6   1 11280.1 588.268  21
  -5   6   1 11506.0 575.535   6
  -5   6   0 940.736 173.048  21
  -5   6   0 1063.93 181.783   6
  -5   6  -1 13211.7 614.497  21
  -5   6  -1 14398.9 664.194   6
  -5   6  -2 1842.53 224.311  21
  -5   6  -2 1741.75 231.116   6
  -5   6  -3 3734.79 305.489  21
  -5   6  -3 4226.99 352.142   6
  -5   6  -4 9825.87 515.189   6
  -5   6  -5 15280.1 613.805   6
  -5   6  -5 13913.2 506.826   5
  -5   6  -6 854.377 135.280   6
  -5   7   4 8191.24 389.611  21
  -5   7   3 8315.88 400.934  21
  -5   7   2 43.2394 33.9313  21
  -5   7   1 6299.30 348.723  21
  -5   7   0 6752.94 353.295  21
  -6  -6   5 8388.51 389.693   9
  -6  -6   4 3681.06 266.824   9
  -6  -6   3 5152.99 322.344   9
  -6  -6   2 4770.55 312.272   9
  -6  -5   9 1308.70 161.265   9
  -6  -5   8 3891.03 297.515   9
  -6  -5   7 3381.29 294.262   9
  -6  -5   6 5402.21 381.878   9
  -6  -5   5 1396.98 202.659   9
  -6  -5   4 12905.3 614.286   9
  -6  -5   3 2777.20 298.357   7
  -6  -5   2 21296.0 806.730   7
  -6  -5   1 4061.45 352.929   7
  -6  -5   0 22797.6 823.617   7
  -6  -5  -1 31002.8 941.920   7
  -6  -5  -2 5313.62 380.688   7
  -6  -5  -3 15391.2 621.531   7
  -6  -5  -4 4777.25 326.876   7
  -6  -5  -5 5782.88 328.522   7
  -6  -4  11 5697.18 338.205   9
  -6  -4  10 894.647 151.777   9
  -6  -4   9 4543.23 358.693   9
  -6  -4   8 4806.19 384.948   9
  -6  -4   7 5049.45 407.689   9
  -6  -4   6 1109.40 196.279   9
  -6  -4   5 10372.1 601.511   9
  -6  -4   4 7829.20 537.221   7
  -6  -4   3 7027.46 509.173   7
  -6  -4   2 2948.14 334.239   7
  -6  -4   1 9574.79 603.266   7
  -6  -4   0 1692.42 257.453   7
  -6  -4  -1 12133.5 667.349   7
  -6  -4  -2 1944.72 266.360   7
  -6  -4  -3 645.958 153.973   7
  -6  -4  -4 11214.9 592.697   7
  -6  -4  -5 4974.07 378.657   7
  -6  -4  -6 3902.99 315.055   7
  -6  -4  -7 8173.79 415.251   7
  -6  -3  12 4169.16 317.835  10
  -6  -3  12 3927.91 291.589   9
  -6  -3  11 2069.52 234.180   9
  -6  -3  10 137.851 86.7432   9
  -6  -3   9 3885.04 362.238   9
  -6  -3   8 11974.9 653.198   9
  -6  -3   7 10975.5 631.235   9
  -6  -3   6 10752.5 630.537   9
  -6  -3   6 11975.2 629.476   4
  -6  -3   5 15572.0 765.350   9
  -6  -3   5 15604.3 773.993   7
  -6  -3   5 17120.6 767.417   4
  -6  -3   4 5880.16 462.487   4
  -6  -3   4 5828.42 477.170   7
  -6  -3   3 21448.2 925.450   7
  -6  -3   2 9439.93 615.120   7
  -6  -3   1 21867.8 935.926   7
  -6  -3   0 2312.29 308.380   7
  -6  -3  -1 2277.01 302.653   7
  -6  -3  -2 3941.05 394.697   7
  -6  -3  -3 224.064 105.061   7
  -6  -3  -4 12610.5 682.807   7
  -6  -3  -5 12769.4 670.184   7
  -6  -3  -6 3868.06 353.746   7
  -6  -3  -7 6494.05 431.625   7
  -6  -3  -8 1964.92 221.071   7
  -6  -3  -9 122.960 60.4490   7
  -6  -2  13 7050.03 407.840  10
  -6  -2  12 2584.36 280.036  10
  -6  -2  12 2639.90 258.380   9
  -6  -2  11 1617.43 213.361   9
  -6  -2  10 4156.01 367.633   9
  -6  -2   9 20083.2 841.672   9
  -6  -2   8 10279.9 616.625   9
  -6  -2   8 9837.25 600.957   4
  -6  -2   7 22955.8 924.769   9
  -6  -2   7 23771.2 945.887   4
  -6  -2   6 10845.1 629.923   9
  -6  -2   6 10367.7 617.679   7
  -6  -2   6 10543.8 637.311   4
  -6  -2   5 6385.16 504.472   4
  -6  -2   5 5940.73 464.545   9
  -6  -2   5 6286.20 488.273   7
  -6  -2   4 9999.80 604.264   9
  -6  -2   4 9893.37 622.534   7
  -6  -2   3 9272.76 603.430   7
  -6  -2   2 30024.5 1085.94   7
  -6  -2   1 9548.39 609.919   6
  -6  -2   1 7741.00 557.408   7
  -6  -2   0 7630.86 552.997   7
  -6  -2  -1 31008.1 1113.53   7
  -6  -2  -2 4775.04 437.815   8
  -6  -2  -2 5006.05 449.179   7
  -6  -2  -3 10742.3 656.258   8
  -6  -2  -3 9501.54 616.285   7
  -6  -2  -4 2354.06 305.704   8
  -6  -2  -4 2265.15 297.982   7
  -6  -2  -5 16057.5 783.918   8
  -6  -2  -5 15726.6 770.227   7
  -6  -2  -6 3405.76 354.482   8
  -6  -2  -6 3978.96 377.615   7
  -6  -2  -7 798.512 166.616   7
  -6  -2  -7 437.363 126.222   8
  -6  -2  -8 147.742 75.1650   7
  -6  -2  -8 147.566 87.0718   8
  -6  -2  -9 18385.8 670.956   7
  -6  -2 -10 5651.02 326.817   7
  -6  -1  14 7493.38 385.066  10
  -6  -1  13 233.961 71.7866  10
  -6  -1  12 15449.4 709.654  10
  -6  -1  12 15366.4 616.323   9
  -6  -1  11 1488.00 239.692  10
  -6  -1  11 1981.94 238.838   9
  -6  -1  10 7368.09 544.632  10
  -6  -1   8 433.917 150.345   4
  -6  -1   7 16305.7 810.440   4
  -6  -1   6 7410.88 555.966   4
  -6  -1   5 24292.4 1001.03   4
  -6  -1   5 23097.2 1009.81   6
  -6  -1   4 4939.05 466.082   6
  -6  -1   3 15962.5 832.153   6
  -6  -1   2 30648.4 1142.48   6
  -6  -1   1 62667.4 1625.58   6
  -6  -1   1 59853.5 1492.94   7
  -6  -1   0 45276.9 1362.92   5
  -6  -1   0 47521.1 1347.32   7
  -6  -1  -1 129491. 2287.96   5
  -6  -1  -1 125796. 2209.71   7
  -6  -1  -2 17223.9 817.974   8
  -6  -1  -2 16941.5 819.026   5
  -6  -1  -2 15896.9 789.111   7
  -6  -1  -3 248.965 102.662   7
  -6  -1  -3 272.315 85.8260   8
  -6  -1  -3 175.066 86.8108   5
  -6  -1  -4 6876.61 523.885   8
  -6  -1  -4 7816.70 530.947   5
  -6  -1  -4 7021.72 528.943   7
  -6  -1  -5 8003.39 563.306   8
  -6  -1  -6 58852.0 1499.21   8
  -6  -1  -7 4343.54 395.906   8
  -6  -1  -8 2630.38 294.145   8
  -6  -1  -9 2482.81 266.798   8
  -6  -1 -10 2788.19 250.164   8
  -6  -1 -10 2656.69 240.221   7
  -6   0  14 17904.6 603.268  10
  -6   0  13 120968. 1813.61  10
  -6   0  12 10860.3 599.633  10
  -6   0  11 3676.35 371.950  10
  -6   0  10 614.900 163.698  10
  -6   0   9 15720.9 814.481  10
  -6   0   8 27659.8 1092.28  10
  -6   0   8 27310.5 1046.93   4
  -6   0   7 130.247 99.9946   4
  -6   0   7-44.6584 70.2735  10
  -6   0   7 26.5873 58.1261   6
  -6   0   6 1639.62 275.394   6
  -6   0   6 2167.71 304.084  10
  -6   0   6 2409.50 320.733   4
  -6   0   5 5572.83 480.488   4
  -6   0   5 6103.05 528.933   6
  -6   0   5 6422.72 507.653  10
  -6   0   4 12462.6 751.557   6
  -6   0   3 20112.1 943.911   6
  -6   0   2 8902.33 631.577   6
  -6   0   2 8055.32 580.898   5
  -6   0   1 40.7995 66.4421   6
  -6   0   1 177.922 103.372   5
  -6   0   0 3577.91 389.023   6
  -6   0   0 3341.49 376.550   5
  -6   0  -1 2593.48 323.389   6
  -6   0  -1 2829.74 344.717   5
  -6   0  -2 75396.6 1727.00   6
  -6   0  -2 69727.0 1702.70   5
  -6   0  -3 4017.96 394.436   8
  -6   0  -3 4310.52 420.377   5
  -6   0  -3 3979.80 390.210   7
  -6   0  -4 32224.1 1124.39   8
  -6   0  -4 34252.7 1162.32   5
  -6   0  -5 15362.3 773.914   8
  -6   0  -5 16328.1 781.126   5
  -6   0  -6 6051.67 480.294   8
  -6   0  -6 6585.60 477.632   5
  -6   0  -7 567.185 151.255   8
  -6   0  -8 638.861 143.980   8
  -6   0  -9 11253.1 566.434   8
  -6   0 -10 11481.9 521.457   8
  -6   0 -11 3580.26 248.280   8
  -6   1  14 7623.50 378.677  10
  -6   1  13 276.121 92.8651  10
  -6   1  12 15517.0 698.720  10
  -6   1  11 1784.03 257.363  10
  -6   1  10 7026.81 528.084  10
  -6   1   9 32232.6 1155.38  10
  -6   1   8 380.074 157.879   4
  -6   1   8 456.490 142.995  10
  -6   1   8 252.223 113.594   6
  -6   1   7 17034.8 855.839   6
  -6   1   7 17027.5 848.346  10
  -6   1   7 17375.6 835.556   4
  -6   1   6 7661.97 584.581   6
  -6   1   6 7917.40 574.895  10
  -6   1   6 6945.29 531.465   4
  -6   1   5 23547.0 1027.70   6
  -6   1   5 24501.7 991.139  10
  -6   1   5 23489.6 975.509   4
  -6   1   4 3626.32 380.867   4
  -6   1   4 3569.91 399.474   6
  -6   1   3 14600.4 804.005   6
  -6   1   3 15040.0 791.805   5
  -6   1   2 27805.2 1105.39   6
  -6   1   2 26035.1 1048.46   5
  -6   1   1 59318.7 1604.05   6
  -6   1   1 57418.7 1557.03   5
  -6   1   0 45664.8 1400.19   6
  -6   1   0 44109.5 1369.00   5
  -6   1  -1 128182. 2338.05   6
  -6   1  -1 121948. 2286.68   5
  -6   1  -2 16939.1 841.249   6
  -6   1  -2 15871.1 819.682   5
  -6   1  -3 308.222 103.321   6
  -6   1  -3 309.335 113.620   8
  -6   1  -3 315.060 105.571   5
  -6   1  -4 7982.90 554.521   6
  -6   1  -4 6322.02 492.548   8
  -6   1  -4 6582.43 523.599   5
  -6   1  -5 8174.54 554.502   8
  -6   1  -5 8122.69 569.062   5
  -6   1  -6 57715.1 1462.17   8
  -6   1  -6 59322.1 1476.17   5
  -6   1  -7 4277.03 385.364   8
  -6   1  -7 4641.08 393.160   5
  -6   1  -8 2795.04 297.923   8
  -6   1  -8 3088.61 297.308   5
  -6   1  -9 2166.38 246.649   8
  -6   1 -10 2630.84 245.362   8
  -6   2  13 7121.74 399.494  10
  -6   2  12 2536.24 269.339  10
  -6   2  11 1465.17 220.600  10
  -6   2  10 3696.41 367.028  10
  -6   2   9 18875.1 854.064  10
  -6   2   8 10406.8 622.893   6
  -6   2   8 9574.55 618.924  10
  -6   2   7 22116.0 948.665   6
  -6   2   7 21236.2 925.939  10
  -6   2   7 22009.0 913.857   4
  -6   2   6 10433.9 669.915   6
  -6   2   6 9664.50 623.957  10
  -6   2   6 10245.7 625.603   4
  -6   2   5 5621.29 498.369   6
  -6   2   5 6104.21 487.644  10
  -6   2   5 6175.42 486.541   4
  -6   2   4 8820.04 623.183   6
  -6   2   4 10191.2 618.037  10
  -6   2   4 9855.58 610.374   4
  -6   2   3 9216.14 634.984   6
  -6   2   3 9073.50 611.897   5
  -6   2   3 9613.93 601.480   4
  -6   2   2 31459.2 1081.04   4
  -6   2   2 28936.7 1129.13   6
  -6   2   2 30837.8 1137.10   5
  -6   2   1 8189.23 602.223   6
  -6   2   1 9065.60 618.600   5
  -6   2   0 7519.76 579.202   6
  -6   2   0 8026.38 585.380   5
  -6   2  -1 32403.9 1197.81   6
  -6   2  -1 29693.2 1128.85   5
  -6   2  -2 5225.05 477.145   6
  -6   2  -2 5059.61 468.089   5
  -6   2  -3 10539.6 668.472   6
  -6   2  -3 9611.89 637.069   5
  -6   2  -4 2478.17 315.862   6
  -6   2  -4 2403.97 294.041   8
  -6   2  -4 2085.05 294.604   5
  -6   2  -5 17656.5 812.548   6
  -6   2  -5 17172.3 782.045   8
  -6   2  -5 16216.0 798.539   5
  -6   2  -6 4121.57 369.160   6
  -6   2  -6 3583.97 353.319   8
  -6   2  -6 3878.19 378.632   5
  -6   2  -7 521.039 132.200   8
  -6   2  -7 776.277 164.169   5
  -6   2  -8 239.577 98.2284   8
  -6   2  -8 139.518 66.7415   5
  -6   2  -9 18356.3 665.897   8
  -6   2  -9 19223.1 646.258   5
  -6   2 -10 6133.84 341.218   8
  -6   3  12 3619.26 286.825  10
  -6   3  12 3572.81 262.269  21
  -6   3  11 2269.41 254.603  10
  -6   3  11 1822.59 208.808  21
  -6   3  10-28.5181 62.8011  21
  -6   3  10 422.630 117.383  10
  -6   3   9 3810.24 343.018  21
  -6   3   9 3787.69 366.981  10
  -6   3   8 11425.7 645.828  10
  -6   3   7 11845.8 646.448   6
  -6   3   7 10584.5 634.359  10
  -6   3   6 11301.7 662.238   6
  -6   3   6 10729.8 638.681  10
  -6   3   5 16378.2 813.164   6
  -6   3   5 14768.1 749.713  10
  -6   3   4 6738.89 508.666  10
  -6   3   4 5496.19 478.326   6
  -6   3   3 22050.0 967.175   6
  -6   3   3 23231.1 928.152   5
  -6   3   2 9906.33 656.376   6
  -6   3   2 9371.11 604.205   5
  -6   3   1 21704.1 977.007   6
  -6   3   1 23025.8 958.677   5
  -6   3   0 2358.85 325.082   6
  -6   3   0 2358.66 314.793   5
  -6   3  -1 2813.73 350.303   6
  -6   3  -1 2707.56 332.354   5
  -6   3  -2 3827.51 402.262   6
  -6   3  -2 4045.57 404.099   5
  -6   3  -3 244.540 110.120   6
  -6   3  -3 175.072 81.7673   5
  -6   3  -4 12778.2 703.323   6
  -6   3  -4 11755.6 672.123   5
  -6   3  -5 13749.0 698.535   6
  -6   3  -5 13739.3 651.222   8
  -6   3  -6 4435.43 374.375   6
  -6   3  -6 3802.56 333.213   8
  -6   3  -7 7086.94 428.024   6
  -6   3  -7 6455.86 416.068   8
  -6   3  -7 6752.13 444.032   5
  -6   3  -8 1784.74 205.461   8
  -6   3  -8 1859.37 213.704   5
  -6   3  -9 269.505 76.7147   8
  -6   3  -9 111.431 51.6205   5
  -6   4  10 720.642 134.633  10
  -6   4  10 960.951 149.398  21
  -6   4   9 4675.16 366.892  10
  -6   4   9 4355.11 336.961  21
  -6   4   8 4972.77 394.537  10
  -6   4   8 5526.70 397.439  21
  -6   4   7 4770.48 395.889  10
  -6   4   7 5613.43 414.747  21
  -6   4   6 1179.52 198.948  21
  -6   4   6 1156.59 205.594  10
  -6   4   5 10682.9 599.669   6
  -6   4   5 10894.3 610.490  10
  -6   4   4 8240.03 543.731   6
  -6   4   3 6358.60 490.834   6
  -6   4   2 3008.29 345.783   6
  -6   4   1 9251.40 606.230   6
  -6   4   1 10774.8 600.413   5
  -6   4   0 1398.83 240.445   6
  -6   4   0 1752.92 249.788   5
  -6   4  -1 12169.1 693.828   6
  -6   4  -1 12810.8 672.443   5
  -6   4  -2 2672.33 322.826   6
  -6   4  -2 2488.28 293.811   5
  -6   4  -3 1027.66 200.906   6
  -6   4  -3 966.754 181.650   5
  -6   4  -4 11512.0 624.874   6
  -6   4  -4 11020.0 594.954   5
  -6   4  -5 4874.61 389.051   6
  -6   4  -5 4675.78 373.633   5
  -6   4  -6 3927.60 323.616   6
  -6   4  -6 4063.27 330.653   5
  -6   4  -7 8052.25 409.719   6
  -6   4  -7 7355.10 359.255   8
  -6   4  -7 7945.86 424.237   5
  -6   4  -8 2774.70 223.131   5
  -6   5   8 3843.77 277.940  21
  -6   5   7 3247.95 270.250  21
  -6   5   6 5124.85 351.626  21
  -6   5   5 1764.22 212.251  21
  -6   5   4 12470.4 563.942  21
  -6   5   3 2936.42 286.257   6
  -6   5   2 21325.5 793.487   6
  -6   5   1 3922.73 350.060   6
  -6   5   0 23095.2 845.790   6
  -6   5  -1 30463.3 972.152   6
  -6   5  -2 5111.94 395.201   6
  -6   5  -2 5248.73 353.915   5
  -6   5  -3 15421.4 662.100   6
  -6   5  -3 15270.7 595.315   5
  -6   5  -4 4502.42 340.727   6
  -6   5  -4 3946.47 293.158   5
  -6   5  -5 5898.79 362.994   6
  -6   5  -5 5800.34 336.091   5
  -7  -4   6 4021.40 282.342   9
  -7  -4   5 11372.6 490.099   9
  -7  -4   4 1605.18 189.424   9
  -7  -4   3 2256.13 222.869   9
  -7  -4   2 1106.97 157.321   9
  -7  -4   2 1185.47 175.444   7
  -7  -4   1 5808.80 348.086   9
  -7  -4   1 6179.72 395.724   7
  -7  -4   0 4997.99 313.159   9
  -7  -4   0 5308.94 360.838   7
  -7  -4  -1 2995.18 264.389   7
  -7  -4  -2 5200.38 338.220   7
  -7  -4  -3 2520.57 222.263   7
  -7  -3   8 1630.21 178.759   9
  -7  -3   7 6395.50 381.331   9
  -7  -3   6 486.827 114.141   4
  -7  -3   6 436.762 107.703   9
  -7  -3   5 9935.58 501.837   9
  -7  -3   5 9936.67 499.837   4
  -7  -3   4 171.382 68.1453   4
  -7  -3   4 273.314 78.3050   9
  -7  -3   4 283.984 99.8972   7
  -7  -3   3 8267.64 494.697   7
  -7  -3   3 9340.06 512.491   4
  -7  -3   2 3042.71 299.820   4
  -7  -3   2 3120.47 310.921   7
  -7  -3   1 9082.60 523.537   7
  -7  -3   0 3487.08 325.245   7
  -7  -3  -1 2537.49 275.915   7
  -7  -3  -2 3299.91 306.023   7
  -7  -3  -3 6567.64 413.245   7
  -7  -3  -4 1363.53 182.720   7
  -7  -3  -5 13728.7 530.333   7
  -7  -2  10 15797.3 589.643  10
  -7  -2   9 4480.22 335.018  10
  -7  -2   8 12763.3 579.359  10
  -7  -2   7 4768.34 371.942   4
  -7  -2   6 4045.79 355.951   4
  -7  -2   5 3700.03 348.068   4
  -7  -2   4 10516.6 595.909   4
  -7  -2   3 3552.19 352.535   4
  -7  -2   3 3310.47 318.387   7
  -7  -2   2 3745.51 342.433   7
  -7  -2   1 13250.2 653.217   7
  -7  -2   0 2881.82 307.361   7
  -7  -2  -1 432.313 124.724   7
  -7  -2  -2 7436.56 479.909   7
  -7  -2  -3 5397.80 399.131   7
  -7  -2  -4 2200.32 246.152   7
  -7  -2  -5 7145.28 418.234   7
  -7  -2  -6 4795.75 318.130   7
  -7  -1  11 902.912 142.640  10
  -7  -1  10 9779.57 498.104  10
  -7  -1   9 3375.83 310.965  10
  -7  -1   8 2138.15 253.880  10
  -7  -1   8 2511.96 278.740   4
  -7  -1   7 1723.55 230.312  10
  -7  -1   7 1812.19 247.477   4
  -7  -1   6 8548.87 548.226   4
  -7  -1   5 2313.81 293.552   4
  -7  -1   4 2766.21 349.445   4
  -7  -1   3 19180.7 852.995   6
  -7  -1   3 17258.3 808.336   4
  -7  -1   2 8191.49 555.963   6
  -7  -1   1 36223.2 1146.76   6
  -7  -1   0 6975.44 487.759   6
  -7  -1  -1 5769.44 423.591   7
  -7  -1  -2 3881.31 343.153   7
  -7  -1  -3 7427.49 466.383   7
  -7  -1  -4 3980.88 332.582   7
  -7  -1  -5 199.564 81.2238   7
  -7  -1  -6 610.679 121.085   7
  -7  -1  -7 118.080 58.2666   7
  -7   0  11 1947.22 210.552  10
  -7   0  10 51.0038 48.8642  10
  -7   0   9 326.746 109.458  10
  -7   0   8 141.222 78.4547  10
  -7   0   7 1918.68 248.827  10
  -7   0   7 1939.36 261.679   4
  -7   0   6 5641.11 452.128   4
  -7   0   5 193.029 97.0511   4
  -7   0   5 206.999 110.214   6
  -7   0   4 737.332 172.637   4
  -7   0   4 692.057 168.941   6
  -7   0   3 16773.3 803.384   4
  -7   0   3 17034.2 831.678   6
  -7   0   2 83736.0 1839.99   6
  -7   0   1 12085.4 688.683   6
  -7   0   0 3348.42 355.940   6
  -7   0  -1 275.984 104.181   6
  -7   0  -2 5250.73 414.629   6
  -7   0  -2 4207.62 387.687   5
  -7   0  -3 10555.9 593.106   5
  -7   0  -4 631.473 136.735   5
  -7   0  -4 366.895 106.152   8
  -7   0  -5 943.202 157.458   8
  -7   0  -6 11440.4 523.609   8
  -7   0  -7 76.5829 54.2792   8
  -7   1  11 933.980 144.881  10
  -7   1  10 9968.71 502.431  10
  -7   1   9 3383.66 309.691  10
  -7   1   8 2612.41 276.161  10
  -7   1   7 2082.85 257.485  10
  -7   1   7 2060.79 262.324   4
  -7   1   6 8591.77 565.764   6
  -7   1   6 8477.44 541.980   4
  -7   1   5 2136.47 300.572   6
  -7   1   5 2237.43 283.184   4
  -7   1   4 2568.07 325.309   6
  -7   1   4 3268.58 344.415   4
  -7   1   3 17628.6 855.659   6
  -7   1   3 17186.8 783.283   4
  -7   1   2 6937.92 504.145   4
  -7   1   2 7255.07 546.205   6
  -7   1   1 34724.6 1171.48   6
  -7   1   0 6384.54 495.294   6
  -7   1   0 6166.98 491.084   5
  -7   1  -1 6271.01 480.580   6
  -7   1  -1 5442.45 454.001   5
  -7   1  -2 3840.60 361.858   6
  -7   1  -2 3769.48 374.691   5
  -7   1  -3 8372.82 507.644   6
  -7   1  -3 7682.57 511.276   5
  -7   1  -4 4721.66 384.003   5
  -7   1  -5 139.151 61.3297   8
  -7   1  -5 162.735 67.9457   5
  -7   1  -6 539.925 114.022   8
  -7   1  -6 656.307 124.968   5
  -7   1  -7 236.100 71.5790   8
  -7   2  11 3381.43 248.441  10
  -7   2  10 15720.1 591.107  10
  -7   2   9 4418.23 333.218  10
  -7   2   8 12170.0 575.077  10
  -7   2   7 4897.84 391.907   6
  -7   2   7 4463.56 355.010  10
  -7   2   6 4339.32 388.097   6
  -7   2   6 4149.31 343.273  10
  -7   2   5 4092.61 393.480   6
  -7   2   5 4167.26 359.750   4
  -7   2   4 10467.3 635.538   6
  -7   2   4 10371.0 565.766   4
  -7   2   3 3484.06 369.630   6
  -7   2   3 3593.05 336.168   4
  -7   2   2 3645.01 379.006   6
  -7   2   2 3792.09 341.122   4
  -7   2   1 14718.0 744.552   6
  -7   2   1 14065.9 714.249   5
  -7   2   1 14578.1 657.880   4
  -7   2   0 2693.07 325.078   6
  -7   2   0 2281.53 293.750   5
  -7   2  -1 337.022 111.944   6
  -7   2  -1 316.378 104.811   5
  -7   2  -2 8076.14 519.521   6
  -7   2  -2 7301.93 501.517   5
  -7   2  -3 5266.09 400.563   6
  -7   2  -3 5340.58 415.465   5
  -7   2  -4 2581.10 263.922   6
  -7   2  -4 2257.46 259.895   5
  -7   2  -5 7992.41 412.075   6
  -7   2  -5 8137.28 462.445   5
  -7   2  -6 4953.62 329.560   5
  -7   3   9 2219.82 210.708  10
  -7   3   8 1612.09 189.912  10
  -7   3   7 6364.37 389.255  10
  -7   3   6 396.372 105.310  10
  -7   3   6 600.974 136.677   6
  -7   3   5 9625.12 546.981   6
  -7   3   4 257.459 98.4781   6
  -7   3   3 8619.90 542.092   6
  -7   3   2 2818.27 312.681   6
  -7   3   1 8925.06 553.093   6
  -7   3   1 9310.49 535.589   5
  -7   3   0 3757.11 354.018   6
  -7   3   0 3711.11 340.533   5
  -7   3  -1 2513.04 283.152   6
  -7   3  -1 2595.82 281.883   5
  -7   3  -2 4164.95 352.756   6
  -7   3  -2 4072.87 344.108   5
  -7   3  -3 6636.84 423.679   6
  -7   3  -3 6757.31 429.104   5
  -7   3  -4 1123.37 162.952   6
  -7   3  -4 1268.58 179.182   5
  -7   3  -5 13776.6 503.242   6
  -7   3  -5 13955.8 547.422   5
  -7   4   5 11547.0 485.333   6
  -7   4   4 1697.68 204.826   6
  -7   4   3 2370.60 249.559   6
  -7   4   2 1075.44 172.025   6
  -7   4   1 5859.04 397.821   6
  -7   4   0 5414.04 379.555   6
  -7   4  -1 3060.36 278.741   6
  -7   4  -1 2655.37 238.926   5
  -7   4  -2 5213.14 348.743   6
  -7   4  -2 4679.97 311.453   5
  -7   4  -3 2529.03 228.359   6
  -7   4  -3 2741.59 228.716   5
  -8  -2   4 8538.12 398.863   4
  -8  -2   3 8302.53 402.188   4
  -8  -2   2 1217.53 155.514   4
  -8  -2   1 3583.73 265.614   4
  -8  -2   0 1566.73 173.443   4
  -8  -2  -1 1726.76 176.712   4
  -8  -1   5 2654.83 245.657   4
  -8  -1   4 17714.8 639.717   4
  -8  -1   3 784.057 143.830   4
  -8  -1   2 282.122 93.4006   4
  -8  -1   1 645.128 126.636   4
  -8  -1   0 9504.11 462.392   4
  -8  -1  -1 957.142 143.871   4
  -8   0   5 3531.48 286.326   4
  -8   0   4 42134.9 1002.09   4
  -8   0   3 112.800 61.0563   4
  -8   0   2 40309.2 986.392   4
  -8   0   1 5347.44 355.313   4
  -8   0   0-0.64177 46.7696   4
  -8   0  -1 679.099 121.131   4
  -8   0  -2 862.111 127.419   4
  -8   1   4 17344.9 603.346   4
  -8   1   3 895.593 138.963   4
  -8   1   3 904.260 156.168   6
  -8   1   2 171.377 63.0526   4
  -8   1   2 545.698 121.679   6
  -8   1   1 896.574 134.166   4
  -8   1   1 833.141 143.759   6
  -8   1   0 10789.5 482.981   6
  -8   1   0 10298.9 437.305   4
  -8   1  -1 1138.22 146.814   6
  -8   2   4 8871.45 436.925   6
  -8   2   3 8875.36 444.128   6
  -8   2   2 1142.54 160.491   6
  -8   2   1 3488.41 276.074   6
  -8   2   0 1350.19 166.435   6
   0   0   0    0.00    0.00   0
TITL exp_7041 in P2(1)
REM P2(1) (#4 in standard setting)
CELL 1.54184   6.832250   7.313427  14.937243  90.0000  97.3527  90.0000
ZERR    3.00   0.000176   0.000172   0.000371   0.0000   0.0024   0.0000
LATT -1
SYMM -x, y+1/2,-z
SFAC C H N O
UNIT 33.00 30.00 3.00 3.00
TREF
HKLF 4
END
;
_shelx_hkl_checksum              11162
loop_
_space_group_symop_operation_xyz
'x, y, z'
'-x, y+1/2, -z'
loop_
_atom_site_label
_atom_site_type_symbol
_atom_site_fract_x
_atom_site_fract_y
_atom_site_fract_z
_atom_site_U_iso_or_equiv
_atom_site_adp_type
_atom_site_occupancy
_atom_site_site_symmetry_order
_atom_site_calc_flag
_atom_site_refinement_flags_posn
_atom_site_refinement_flags_adp
_atom_site_refinement_flags_occupancy
_atom_site_disorder_assembly
_atom_site_disorder_group
O18 O 0.4758(2) 0.9606(2) 0.17947(10) 0.0230(3) Uani 1 1 d . . . . .
O23 O 0.8359(2) 0.7815(2) 0.45735(9) 0.0205(3) Uani 1 1 d . . . . .
O22 O -0.2430(2) 0.3988(2) 0.28082(11) 0.0274(4) Uani 1 1 d . . . . .
O20 O 0.0581(2) 0.4711(2) 0.34800(9) 0.0190(3) Uani 1 1 d . . . . .
O21 O 0.1496(2) 0.1218(2) 0.29157(10) 0.0221(3) Uani 1 1 d . . . . .
O19 O 0.5470(2) 0.5559(2) 0.47452(10) 0.0253(3) Uani 1 1 d . . . . .
C1 C 0.5015(3) 0.8589(3) 0.24520(13) 0.0174(4) Uani 1 1 d . . . . .
C11 C 0.1514(3) 0.4264(3) 0.05540(13) 0.0175(4) Uani 1 1 d . . . . .
H7 H 0.2016 0.3647 0.0089 0.021 Uiso 1 1 calc R U . . .
C9 C -0.0408(3) 0.2026(3) 0.13794(14) 0.0211(4) Uani 1 1 d . . . . .
H5A H -0.1727 0.1545 0.1395 0.025 Uiso 1 1 calc R U . . .
H5B H 0.0387 0.1073 0.1154 0.025 Uiso 1 1 calc R U . . .
C6 C 0.2648(3) 0.4243(3) 0.34119(13) 0.0163(4) Uani 1 1 d . . . . .
H1 H 0.3218 0.3674 0.3980 0.020 Uiso 1 1 calc R U . . .
C4 C 0.5403(3) 0.6338(3) 0.40289(13) 0.0162(4) Uani 1 1 d . . . . .
C2 C 0.6676(3) 0.8837(3) 0.31486(14) 0.0198(4) Uani 1 1 d . . . . .
H14 H 0.7601 0.9744 0.3083 0.024 Uiso 1 1 calc R U . . .
C5 C 0.3834(3) 0.5934(3) 0.32577(12) 0.0149(4) Uani 1 1 d . . . . .
C3 C 0.6899(3) 0.7771(3) 0.38899(13) 0.0174(4) Uani 1 1 d . . . . .
C14 C 0.3612(3) 0.7002(3) 0.25186(13) 0.0150(4) Uani 1 1 d . . . . .
C13 C 0.2042(3) 0.6765(3) 0.17168(13) 0.0158(4) Uani 1 1 d . . . . .
H9A H 0.1684 0.7960 0.1466 0.019 Uiso 1 1 calc R U . . .
H9B H 0.0876 0.6240 0.1924 0.019 Uiso 1 1 calc R U . . .
C15 C -0.0675(3) 0.3794(3) 0.28654(12) 0.0181(4) Uani 1 1 d . . . . .
C12 C 0.2671(3) 0.5555(3) 0.09731(12) 0.0163(4) Uani 1 1 d . . . . .
C7 C 0.2545(3) 0.2822(3) 0.26705(13) 0.0166(4) Uani 1 1 d . . . . .
H2 H 0.3587 0.2727 0.2279 0.020 Uiso 1 1 calc R U . . .
C16 C 0.4686(3) 0.5921(3) 0.07110(14) 0.0227(4) Uani 1 1 d . . . . .
H16A H 0.4898 0.5154 0.0211 0.034 Uiso 1 1 calc R U . . .
H16B H 0.5669 0.5661 0.1214 0.034 Uiso 1 1 calc R U . . .
H16C H 0.4779 0.7181 0.0541 0.034 Uiso 1 1 calc R U . . .
C10 C -0.0504(3) 0.3688(3) 0.07444(13) 0.0205(4) Uani 1 1 d . . . . .
H6A H -0.1307 0.3385 0.0180 0.025 Uiso 1 1 calc R U . . .
H6B H -0.1130 0.4700 0.1017 0.025 Uiso 1 1 calc R U . . .
C8 C 0.0469(3) 0.2564(3) 0.23104(13) 0.0180(4) Uani 1 1 d . . . . .
C17 C 0.9998(3) 0.9001(3) 0.44669(15) 0.0286(5) Uani 1 1 d . . . . .
H17A H 1.0527 0.8689 0.3922 0.043 Uiso 1 1 calc R U . . .
H17B H 1.1002 0.8855 0.4973 0.043 Uiso 1 1 calc R U . . .
H17C H 0.9556 1.0248 0.4435 0.043 Uiso 1 1 calc R U . . .
loop_
_atom_site_aniso_label
_atom_site_aniso_U_11
_atom_site_aniso_U_22
_atom_site_aniso_U_33
_atom_site_aniso_U_23
_atom_site_aniso_U_13
_atom_site_aniso_U_12
O18 0.0316(8) 0.0171(7) 0.0207(7) 0.0054(6) 0.0049(6) -0.0002(6)
O23 0.0218(7) 0.0252(7) 0.0144(6) -0.0022(6) 0.0021(5) -0.0085(6)
O22 0.0175(7) 0.0340(9) 0.0313(8) -0.0058(7) 0.0060(6) -0.0008(6)
O20 0.0172(7) 0.0239(8) 0.0170(6) -0.0040(6) 0.0067(5) -0.0034(6)
O21 0.0253(7) 0.0162(7) 0.0249(7) 0.0058(6) 0.0043(6) -0.0038(6)
O19 0.0270(8) 0.0327(8) 0.0155(7) 0.0079(6) 0.0000(5) -0.0097(7)
C1 0.0248(10) 0.0129(9) 0.0156(9) 0.0003(7) 0.0070(8) 0.0014(8)
C11 0.0212(9) 0.0184(10) 0.0134(8) -0.0007(7) 0.0039(7) 0.0050(7)
C9 0.0243(10) 0.0203(9) 0.0189(10) -0.0045(8) 0.0036(8) -0.0037(8)
C6 0.0157(8) 0.0194(10) 0.0142(8) 0.0035(7) 0.0039(7) -0.0005(7)
C4 0.0181(9) 0.0174(9) 0.0135(9) 0.0002(7) 0.0042(7) -0.0002(8)
C2 0.0269(10) 0.0159(9) 0.0176(9) -0.0024(7) 0.0064(8) -0.0068(8)
C5 0.0151(8) 0.0152(9) 0.0147(8) -0.0013(7) 0.0038(7) 0.0011(7)
C3 0.0204(9) 0.0182(9) 0.0143(8) -0.0038(8) 0.0049(7) -0.0027(8)
C14 0.0174(9) 0.0133(8) 0.0153(9) -0.0018(7) 0.0055(7) 0.0027(7)
C13 0.0170(9) 0.0158(9) 0.0149(9) 0.0012(7) 0.0032(7) 0.0034(7)
C15 0.0208(10) 0.0194(9) 0.0150(9) 0.0009(8) 0.0055(7) -0.0028(8)
C12 0.0181(9) 0.0196(9) 0.0113(8) 0.0037(7) 0.0022(7) 0.0049(8)
C7 0.0191(9) 0.0123(9) 0.0190(9) 0.0036(8) 0.0046(7) 0.0001(7)
C16 0.0207(10) 0.0270(11) 0.0217(9) -0.0009(8) 0.0077(8) 0.0019(8)
C10 0.0214(9) 0.0225(10) 0.0168(9) -0.0032(8) -0.0002(7) -0.0003(8)
C8 0.0210(9) 0.0144(9) 0.0196(9) 0.0015(8) 0.0060(8) -0.0006(8)
C17 0.0296(11) 0.0355(13) 0.0210(10) -0.0027(9) 0.0037(8) -0.0174(10)
loop_
_atom_type_symbol
_atom_type_description
_atom_type_scat_dispersion_real
_atom_type_scat_dispersion_imag
_atom_type_scat_source
C C 0.0181 0.0091 'International Tables Vol C Tables 4.2.6.8 and 6.1.1.4'
H H 0.0000 0.0000 'International Tables Vol C Tables 4.2.6.8 and 6.1.1.4'
O O 0.0492 0.0322 'International Tables Vol C Tables 4.2.6.8 and 6.1.1.4'
loop_
_geom_angle_atom_site_label_1
_geom_angle_atom_site_label_2
_geom_angle_atom_site_label_3
_geom_angle
_geom_angle_site_symmetry_1
_geom_angle_site_symmetry_3
_geom_angle_publ_flag
C3 O23 C17 116.47(16) . . ?
C15 O20 C6 111.71(15) . . ?
C7 O21 C8 60.60(12) . . ?
O18 C1 C2 121.20(18) . . ?
O18 C1 C14 119.30(18) . . ?
C2 C1 C14 119.45(17) . . ?
C12 C11 H7 116.1 . . ?
C12 C11 C10 127.74(18) . . ?
C10 C11 H7 116.1 . . ?
H5A C9 H5B 108.1 . . ?
C10 C9 H5A 109.6 . . ?
C10 C9 H5B 109.6 . . ?
C8 C9 H5A 109.6 . . ?
C8 C9 H5B 109.6 . . ?
C8 C9 C10 110.25(17) . . ?
O20 C6 H1 108.5 . . ?
O20 C6 C5 111.01(15) . . ?
O20 C6 C7 104.78(15) . . ?
C5 C6 H1 108.5 . . ?
C5 C6 C7 115.21(15) . . ?
C7 C6 H1 108.5 . . ?
O19 C4 C5 122.00(18) . . ?
O19 C4 C3 120.27(17) . . ?
C3 C4 C5 117.73(16) . . ?
C1 C2 H14 119.5 . . ?
C3 C2 C1 120.90(19) . . ?
C3 C2 H14 119.5 . . ?
C4 C5 C6 112.86(16) . . ?
C14 C5 C6 126.43(17) . . ?
C14 C5 C4 120.70(17) . . ?
O23 C3 C4 111.59(16) . . ?
O23 C3 C2 127.60(19) . . ?
C2 C3 C4 120.81(18) . . ?
C5 C14 C1 119.51(17) . . ?
C5 C14 C13 125.28(18) . . ?
C13 C14 C1 115.21(16) . . ?
C14 C13 H9A 108.8 . . ?
C14 C13 H9B 108.8 . . ?
C14 C13 C12 113.95(15) . . ?
H9A C13 H9B 107.7 . . ?
C12 C13 H9A 108.8 . . ?
C12 C13 H9B 108.8 . . ?
O22 C15 O20 122.13(18) . . ?
O22 C15 C8 127.95(19) . . ?
O20 C15 C8 109.92(16) . . ?
C11 C12 C13 123.16(18) . . ?
C11 C12 C16 120.74(18) . . ?
C16 C12 C13 116.08(17) . . ?
O21 C7 C6 110.48(15) . . ?
O21 C7 H2 121.0 . . ?
O21 C7 C8 60.00(12) . . ?
C6 C7 H2 121.0 . . ?
C8 C7 C6 108.04(16) . . ?
C8 C7 H2 121.0 . . ?
C12 C16 H16A 109.5 . . ?
C12 C16 H16B 109.5 . . ?
C12 C16 H16C 109.5 . . ?
H16A C16 H16B 109.5 . . ?
H16A C16 H16C 109.5 . . ?
H16B C16 H16C 109.5 . . ?
C11 C10 C9 111.75(17) . . ?
C11 C10 H6A 109.3 . . ?
C11 C10 H6B 109.3 . . ?
C9 C10 H6A 109.3 . . ?
C9 C10 H6B 109.3 . . ?
H6A C10 H6B 107.9 . . ?
O21 C8 C9 120.28(18) . . ?
O21 C8 C15 107.74(16) . . ?
O21 C8 C7 59.40(12) . . ?
C9 C8 C15 119.62(18) . . ?
C7 C8 C9 129.07(18) . . ?
C7 C8 C15 105.50(16) . . ?
O23 C17 H17A 109.5 . . ?
O23 C17 H17B 109.5 . . ?
O23 C17 H17C 109.5 . . ?
H17A C17 H17B 109.5 . . ?
H17A C17 H17C 109.5 . . ?
H17B C17 H17C 109.5 . . ?
loop_
_geom_bond_atom_site_label_1
_geom_bond_atom_site_label_2
_geom_bond_distance
_geom_bond_site_symmetry_2
_geom_bond_publ_flag
O18 C1 1.226(2) . ?
O23 C3 1.334(2) . ?
O23 C17 1.441(2) . ?
O22 C15 1.200(3) . ?
O20 C6 1.469(2) . ?
O20 C15 1.351(2) . ?
O21 C7 1.446(2) . ?
O21 C8 1.455(2) . ?
O19 C4 1.208(2) . ?
C1 C2 1.450(3) . ?
C1 C14 1.517(3) . ?
C11 H7 0.9300 . ?
C11 C12 1.335(3) . ?
C11 C10 1.503(3) . ?
C9 H5A 0.9700 . ?
C9 H5B 0.9700 . ?
C9 C10 1.538(3) . ?
C9 C8 1.495(3) . ?
C6 H1 0.9800 . ?
C6 C5 1.512(3) . ?
C6 C7 1.514(3) . ?
C4 C5 1.499(3) . ?
C4 C3 1.497(3) . ?
C2 H14 0.9300 . ?
C2 C3 1.347(3) . ?
C5 C14 1.345(3) . ?
C14 C13 1.512(3) . ?
C13 H9A 0.9700 . ?
C13 H9B 0.9700 . ?
C13 C12 1.525(3) . ?
C15 C8 1.508(3) . ?
C12 C16 1.503(3) . ?
C7 H2 0.9800 . ?
C7 C8 1.463(3) . ?
C16 H16A 0.9600 . ?
C16 H16B 0.9600 . ?
C16 H16C 0.9600 . ?
C10 H6A 0.9700 . ?
C10 H6B 0.9700 . ?
C17 H17A 0.9600 . ?
C17 H17B 0.9600 . ?
C17 H17C 0.9600 . ?
loop_
_geom_torsion_atom_site_label_1
_geom_torsion_atom_site_label_2
_geom_torsion_atom_site_label_3
_geom_torsion_atom_site_label_4
_geom_torsion
_geom_torsion_site_symmetry_1
_geom_torsion_site_symmetry_2
_geom_torsion_site_symmetry_3
_geom_torsion_site_symmetry_4
_geom_torsion_publ_flag
O18 C1 C2 C3 176.78(19) . . . . ?
O18 C1 C14 C5 -176.93(18) . . . . ?
O18 C1 C14 C13 3.1(2) . . . . ?
O22 C15 C8 O21 -116.5(2) . . . . ?
O22 C15 C8 C9 25.8(3) . . . . ?
O22 C15 C8 C7 -178.7(2) . . . . ?
O20 C6 C5 C4 114.83(16) . . . . ?
O20 C6 C5 C14 -66.5(2) . . . . ?
O20 C6 C7 O21 -61.66(18) . . . . ?
O20 C6 C7 C8 2.26(19) . . . . ?
O20 C15 C8 O21 63.2(2) . . . . ?
O20 C15 C8 C9 -154.58(18) . . . . ?
O20 C15 C8 C7 0.9(2) . . . . ?
O21 C7 C8 C9 -105.9(2) . . . . ?
O21 C7 C8 C15 101.73(17) . . . . ?
O19 C4 C5 C6 -11.3(3) . . . . ?
O19 C4 C5 C14 169.9(2) . . . . ?
O19 C4 C3 O23 9.5(3) . . . . ?
O19 C4 C3 C2 -170.0(2) . . . . ?
C1 C2 C3 O23 178.64(18) . . . . ?
C1 C2 C3 C4 -1.9(3) . . . . ?
C1 C14 C13 C12 88.9(2) . . . . ?
C6 O20 C15 O22 -179.79(19) . . . . ?
C6 O20 C15 C8 0.5(2) . . . . ?
C6 C5 C14 C1 -176.32(16) . . . . ?
C6 C5 C14 C13 3.6(3) . . . . ?
C6 C7 C8 O21 -103.70(16) . . . . ?
C6 C7 C8 C9 150.4(2) . . . . ?
C6 C7 C8 C15 -2.0(2) . . . . ?
C4 C5 C14 C1 2.2(3) . . . . ?
C4 C5 C14 C13 -177.79(17) . . . . ?
C2 C1 C14 C5 5.3(3) . . . . ?
C2 C1 C14 C13 -174.63(17) . . . . ?
C5 C6 C7 O21 176.07(15) . . . . ?
C5 C6 C7 C8 -120.01(18) . . . . ?
C5 C4 C3 O23 -171.18(16) . . . . ?
C5 C4 C3 C2 9.3(3) . . . . ?
C5 C14 C13 C12 -91.1(2) . . . . ?
C3 C4 C5 C6 169.39(16) . . . . ?
C3 C4 C5 C14 -9.4(3) . . . . ?
C14 C1 C2 C3 -5.5(3) . . . . ?
C14 C13 C12 C11 135.74(19) . . . . ?
C14 C13 C12 C16 -45.7(2) . . . . ?
C15 O20 C6 C5 123.24(17) . . . . ?
C15 O20 C6 C7 -1.7(2) . . . . ?
C12 C11 C10 C9 -95.2(2) . . . . ?
C7 O21 C8 C9 120.2(2) . . . . ?
C7 O21 C8 C15 -97.86(17) . . . . ?
C7 C6 C5 C4 -126.30(17) . . . . ?
C7 C6 C5 C14 52.4(3) . . . . ?
C10 C11 C12 C13 -3.2(3) . . . . ?
C10 C11 C12 C16 178.26(18) . . . . ?
C10 C9 C8 O21 -153.10(17) . . . . ?
C10 C9 C8 C15 69.4(2) . . . . ?
C10 C9 C8 C7 -79.7(3) . . . . ?
C8 O21 C7 C6 99.56(18) . . . . ?
C8 C9 C10 C11 70.3(2) . . . . ?
C17 O23 C3 C4 173.28(17) . . . . ?
C17 O23 C3 C2 -7.2(3) . . . . ?
