#------------------------------------------------------------------------------
#$Date: 2021-11-29 11:28:55 +0200 (Mon, 29 Nov 2021) $
#$Revision: 270906 $
#$URL: file:///home/coder/svn-repositories/cod/cif/1/56/54/1565415.cif $
#------------------------------------------------------------------------------
#
# This file is available in the Crystallography Open Database (COD),
# http://www.crystallography.net/
#
# All data on this site have been placed in the public domain by the
# contributors.
#
data_1565415
loop_
_publ_author_name
'\/Duri\'c, Sonja \<Z.'
'Mojicevic, Marija'
'Vojnovic, Sandra'
'Wadepohl, Hubert'
'Andrejevi\'c, Tina P.'
'Stevanovi\'c, Nevena Lj.'
'Nikodinovic-Runic, Jasmina'
'Djuran, Milo\<s I.'
'Gli\<si\'c, Biljana \/D.'
_publ_section_title
;
 Silver(I) complexes with 1,10-phenanthroline-based ligands: The influence
 of epoxide function on the complex structure and biological activity
;
_journal_name_full               'Inorganica Chimica Acta'
_journal_page_first              119357
_journal_paper_doi               10.1016/j.ica.2019.119357
_journal_volume                  502
_journal_year                    2020
_chemical_absolute_configuration .
_chemical_formula_moiety         'C28 H16 Ag2 F6 N4 O6'
_chemical_formula_sum            'C28 H16 Ag2 F6 N4 O6'
_chemical_formula_weight         834.19
_space_group_crystal_system      triclinic
_space_group_IT_number           2
_space_group_name_Hall           '-P 1'
_space_group_name_H-M_alt        'P -1'
_atom_sites_solution_hydrogens   mixed
_atom_sites_solution_primary     iterative
_atom_sites_solution_secondary   difmap
_cell_angle_alpha                93.987(9)
_cell_angle_beta                 105.094(8)
_cell_angle_gamma                113.695(14)
_cell_formula_units_Z            1
_cell_length_a                   7.850(4)
_cell_length_b                   9.393(5)
_cell_length_c                   10.296(5)
_cell_measurement_reflns_used    8151
_cell_measurement_temperature    100(2)
_cell_measurement_theta_max      31.78
_cell_measurement_theta_min      2.42
_cell_volume                     658.0(6)
_computing_cell_refinement
;
SAINT (see _computing_data_reduction).
Standard uncertainties of the cell constants include systematic error
contributions from Monte Carlo simulations.
;
_computing_data_collection       'SMART-5.631 (Bruker AXS, 2003)'
_computing_structure_solution    'SUPERFLIP (Palatinus, 2007-2009)'
_diffrn_ambient_environment      'perfluoro polyether oil / N~2~'
_diffrn_ambient_temperature      100(1)
_diffrn_detector                 'CCD plate'
_diffrn_detector_area_resol_mean 8.19
_diffrn_detector_type            CCD-PXL-KAF2
_diffrn_measured_fraction_theta_full 1.000
_diffrn_measured_fraction_theta_max 0.933
_diffrn_measurement_device       'three-circle diffractometer'
_diffrn_measurement_device_type  'Bruker AXS Smart 1000'
_diffrn_measurement_method       '\f- and \w-scans'
_diffrn_measurement_specimen_support 'polyimid foil'
_diffrn_radiation_collimation    'monocapillary collimator'
_diffrn_radiation_monochromator  graphite
_diffrn_radiation_probe          x-ray
_diffrn_radiation_type           'Mo K\a'
_diffrn_radiation_wavelength     0.71073
_diffrn_radiation_xray_symbol    K-L~2,3~
_diffrn_reflns_av_R_equivalents  0.0259
_diffrn_reflns_av_unetI/netI     0.0234
_diffrn_reflns_Laue_measured_fraction_full 1.000
_diffrn_reflns_Laue_measured_fraction_max 0.933
_diffrn_reflns_limit_h_max       11
_diffrn_reflns_limit_h_min       -11
_diffrn_reflns_limit_k_max       13
_diffrn_reflns_limit_k_min       -14
_diffrn_reflns_limit_l_max       15
_diffrn_reflns_limit_l_min       -15
_diffrn_reflns_number            16880
_diffrn_reflns_point_group_measured_fraction_full 1.000
_diffrn_reflns_point_group_measured_fraction_max 0.933
_diffrn_reflns_theta_full        25.242
_diffrn_reflns_theta_max         32.379
_diffrn_reflns_theta_min         2.090
_diffrn_source                   'sealed X-Ray tube (Mo)'
_diffrn_source_type              'fine focus tube'
_diffrn_standards_number         0
_exptl_absorpt_coefficient_mu    1.586
_exptl_absorpt_correction_T_max  0.7464
_exptl_absorpt_correction_T_min  0.6778
_exptl_absorpt_correction_type   multi-scan
_exptl_absorpt_process_details
;
multi-scan from symmetry-related measurements (Blessing 1995)
SADABS (see _computing_data_reduction)
;
_exptl_crystal_colour            colourless
_exptl_crystal_density_diffrn    2.105
_exptl_crystal_description       plate
_exptl_crystal_F_000             408
_exptl_crystal_size_max          0.220
_exptl_crystal_size_mid          0.210
_exptl_crystal_size_min          0.100
_refine_diff_density_max         1.157
_refine_diff_density_min         -0.355
_refine_diff_density_rms         0.099
_refine_ls_extinction_coef       .
_refine_ls_extinction_method     none
_refine_ls_goodness_of_fit_ref   1.071
_refine_ls_hydrogen_treatment    mixed
_refine_ls_matrix_type           full
_refine_ls_number_parameters     263
_refine_ls_number_reflns         4403
_refine_ls_number_restraints     132
_refine_ls_restrained_S_all      1.070
_refine_ls_R_factor_all          0.0263
_refine_ls_R_factor_gt           0.0224
_refine_ls_shift/su_max          0.000
_refine_ls_shift/su_mean         0.000
_refine_ls_structure_factor_coef Fsqd
_refine_ls_weighting_scheme      calc
_refine_ls_wR_factor_gt          0.0547
_refine_ls_wR_factor_ref         0.0567
_reflns_Friedel_coverage         0.000
_reflns_Friedel_fraction_full    .
_reflns_Friedel_fraction_max     .
_reflns_number_gt                4048
_reflns_number_total             4403
_reflns_threshold_expression     'I > 2\s(I)'
_iucr_refine_instructions_details
;
TITL ex_bg14 - #2994 - in P-1 - superflip - smart
CELL 0.71073 7.8498 9.3934 10.296 93.9874 105.0937 113.6955
ZERR 1 0.0038 0.0045 0.005 0.0085 0.0083 0.0135
LATT 1
SFAC C H Ag F N O
UNIT 28 16 2 6 4 6
SIMU 0.01 0.01 1 $F $c $O
RIGU $F C13A C13B C14A C14B O2 O3A O3B
EADP C13A C13B

L.S. 10
PLAN  5
SIZE 0.1 0.21 0.22
TEMP -173
CONF
BOND $H
HTAB
MORE -1
fmap 2
acta

WGHT    0.029800    0.330100
FVAR       0.18148   0.53781
AG    3    0.200788    0.079013    1.099292    11.00000    0.02178    0.01752 =
         0.01144    0.00172    0.00846    0.00889
O1    6    0.523609    0.012420    0.664216    11.00000    0.01898    0.03041 =
         0.01951    0.00141    0.00991    0.00907
O2    6    0.212749    0.233247    1.281580    11.00000    0.02736    0.01519 =
         0.01552    0.00215    0.00897    0.01003
N1    5    0.249561   -0.106303    0.977434    11.00000    0.01463    0.01439 =
         0.01363    0.00261    0.00531    0.00517
N2    5    0.162798    0.122368    0.867468    11.00000    0.01707    0.01548 =
         0.01243    0.00273    0.00762    0.00655
C1    1    0.278271   -0.225340    1.027644    11.00000    0.01710    0.01609 =
         0.01965    0.00512    0.00492    0.00536
AFIX  43
H1    2    0.265054   -0.240326    1.115440    11.00000   -1.20000
AFIX   0
C2    1    0.326468   -0.328181    0.957775    11.00000    0.02294    0.01527 =
         0.03052    0.00414    0.00723    0.00809
AFIX  43
H2    2    0.342411   -0.413114    0.995669    11.00000   -1.20000
AFIX   0
C3    1    0.350578   -0.303417    0.831500    11.00000    0.02254    0.01471 =
         0.03091   -0.00205    0.00977    0.00748
AFIX  43
H3    2    0.384672   -0.371064    0.781579    11.00000   -1.20000
AFIX   0
C4    1    0.324733   -0.179534    0.778374    11.00000    0.01637    0.01632 =
         0.01773   -0.00400    0.00580    0.00494
C5    1    0.363449   -0.142385    0.648828    11.00000    0.02156    0.02428 =
         0.01720   -0.00428    0.00847    0.00898
H5    2    0.365369   -0.215955    0.592172    11.00000   -1.20000
C6    1    0.324018   -0.015273    0.592170    11.00000    0.01856    0.03108 =
         0.01190   -0.00004    0.00776    0.00909
H6    2    0.298618   -0.013038    0.496318    11.00000   -1.20000
C7    1    0.243489    0.069179    0.665887    11.00000    0.01582    0.02104 =
         0.01070    0.00138    0.00669    0.00565
C8    1    0.187033    0.179940    0.610117    11.00000    0.02092    0.02358 =
         0.01345    0.00574    0.00736    0.00597
AFIX  43
H8    2    0.193151    0.198362    0.521517    11.00000   -1.20000
AFIX   0
C9    1    0.121878    0.262964    0.685115    11.00000    0.02414    0.02015 =
         0.01805    0.00769    0.00856    0.00919
AFIX  43
H9    2    0.082569    0.339346    0.649153    11.00000   -1.20000
AFIX   0
C10   1    0.115041    0.232405    0.814288    11.00000    0.02112    0.01724 =
         0.01687    0.00472    0.00921    0.00977
AFIX  43
H10   2    0.074707    0.292231    0.867150    11.00000   -1.20000
AFIX   0
C11   1    0.269285   -0.084407    0.853320    11.00000    0.01284    0.01329 =
         0.01290   -0.00008    0.00451    0.00391
C12   1    0.225538    0.040888    0.794586    11.00000    0.01255    0.01502 =
         0.01167    0.00124    0.00606    0.00431
PART 1
C13A  1    0.243096    0.359807    1.246408    21.00000    0.01902    0.01763 =
         0.01406    0.00188    0.00432    0.01036
C14A  1    0.226341    0.490098    1.334949    21.00000    0.01666    0.02036 =
         0.02056    0.00431    0.00778    0.00809
F1A   4    0.155373    0.443366    1.436098    21.00000    0.10124    0.03188 =
         0.04015    0.01958    0.05224    0.03899
F2A   4    0.108897    0.544639    1.259854    21.00000    0.05990    0.05338 =
         0.04559    0.01771    0.02036    0.04906
F3A   4    0.395692    0.616752    1.387574    21.00000    0.02986    0.03750 =
         0.07122   -0.03082    0.01914   -0.00466
O3A   6    0.243389    0.395197    1.132828    21.00000    0.06613    0.02739 =
         0.01668    0.00746    0.01280    0.01729
SAME 0.02 0.04 C13A > O3A
PART 0
PART 2
C13B  1    0.235142    0.365469    1.243153   -21.00000    0.01902    0.01763 =
         0.01406    0.00188    0.00432    0.01036
C14B  1    0.242690    0.487366    1.356086   -21.00000    0.02529    0.01668 =
         0.01956    0.00040    0.00726    0.01505
F1B   4    0.103546    0.425163    1.413966   -21.00000    0.04511    0.03139 =
         0.03053   -0.00095    0.02624    0.01394
F2B   4    0.220831    0.607290    1.308320   -21.00000    0.10658    0.03572 =
         0.04950    0.02804    0.05386    0.05148
F3B   4    0.407845    0.545491    1.457778   -21.00000    0.03507    0.06558 =
         0.04975   -0.04419   -0.01674    0.02575
O3B   6    0.302883    0.411336    1.150117   -21.00000    0.05451    0.02602 =
         0.02180    0.01043    0.02346    0.02125
HKLF 4




REM  ex_bg14 - #2994 - in P-1 - superflip - smart
REM wR2 = 0.056703, GooF = S = 1.07126, Restrained GooF = 1.07039 for all data
REM R1 = 0.022382 for 4048 Fo > 4sig(Fo) and 0.026300 for all 4403 data
REM 263 parameters refined using 132 restraints

END

WGHT      0.0298      0.3301

REM Instructions for potential hydrogen bonds
EQIV $2 -x+1, -y, -z+2
HTAB C1 O1_$2
EQIV $3 x, y-1, z
HTAB C1 F2B_$3
HTAB C2 O3A_$3
HTAB C2 O3B_$3
EQIV $4 -x+1, -y, -z+1
HTAB C6 O1_$4
EQIV $5 x, y, z-1
HTAB C9 F1A_$5
EQIV $6 -x, -y+1, -z+2
HTAB C9 F2A_$6
HTAB C9 F1B_$5
HTAB C10 O3A

REM Highest difference peak  1.157,  deepest hole -0.355,  1-sigma level  0.099
Q1    1   0.1623  0.1352  1.0999  11.00000  0.05    1.16
Q2    1   0.0837  0.0387  1.0545  11.00000  0.05    0.87
Q3    1   0.2358  0.0084  1.0965  11.00000  0.05    0.71
Q4    1   0.1636 -0.2274  0.5494  11.00000  0.05    0.60
Q5    1   0.2761  0.0208  0.6369  11.00000  0.05    0.60
;
_cod_data_source_file            ICA-2020-502-119357.cif
_cod_data_source_block           ex_bg14
_cod_database_code               1565415
_shelx_space_group_comment
;
The symmetry employed for this shelxl refinement is uniquely defined
by the following loop, which should always be used as a source of
symmetry information in preference to the above space-group names.
They are only intended as comments.
;
_shelx_estimated_absorpt_t_max   0.858
_shelx_estimated_absorpt_t_min   0.722
_olex2_refinement_description
;
1. Fixed Uiso
 At 1.2 times of:
  All C(H) groups
2. Uiso/Uaniso restraints and constraints
F1A \\sim F2A \\sim F3A \\sim F1B \\sim F2B \\sim F3B \\sim C1 \\sim C2 \\sim
C3 \\sim C4 \\sim C5 \\sim C6 \\sim C7 \\sim C8 \\sim C9 \\sim C10 \\sim C11
\\sim C12 \\sim C13A \\sim C14A \\sim C13B \\sim C14B \\sim O1 \\sim O2 \\sim
O3A \\sim O3B: within 1A with sigma of 0.01 and sigma for terminal atoms of
0.01 within 1A
Uanis(C13A) = Uanis(C13B)
3. Rigid body (RIGU) restrains
 F1A, F2A, F3A, F1B, F2B, F3B, C13A, C13B, C14A, C14B, O2, O3A, O3B
 with sigma for 1-2 distances of 0.004 and sigma for 1-3 distances of 0.004
4. Same fragment restrains
{C13A, C14A, F1A, F2A, F3A, O3A} sigma for 1-2: 0.02, 1-3: 0.04
as in
{C13B, C14B, F1B, F2B, F3B, O3B}
5. Others
 Sof(C13B)=Sof(C14B)=Sof(F1B)=Sof(F2B)=Sof(F3B)=Sof(O3B)=1-FVAR(1)
 Sof(C13A)=Sof(C14A)=Sof(F1A)=Sof(F2A)=Sof(F3A)=Sof(O3A)=FVAR(1)
6.a Aromatic/amide H refined with riding coordinates:
 C1(H1), C2(H2), C3(H3), C8(H8), C9(H9), C10(H10)
;
loop_
_symmetry_equiv_pos_as_xyz
'x, y, z'
'-x, -y, -z'
loop_
_atom_site_label
_atom_site_type_symbol
_atom_site_fract_x
_atom_site_fract_y
_atom_site_fract_z
_atom_site_U_iso_or_equiv
_atom_site_adp_type
_atom_site_occupancy
_atom_site_site_symmetry_order
_atom_site_calc_flag
_atom_site_refinement_flags_posn
_atom_site_refinement_flags_adp
_atom_site_refinement_flags_occupancy
_atom_site_disorder_assembly
_atom_site_disorder_group
Ag Ag 0.20079(2) 0.07901(2) 1.09929(2) 0.01619(4) Uani 1 1 d . . . . .
O1 O 0.52361(18) 0.01242(16) 0.66422(13) 0.0229(3) Uani 1 1 d . . . . .
O2 O 0.21275(19) 0.23325(14) 1.28158(12) 0.0187(2) Uani 1 1 d . . . . .
N1 N 0.24956(19) -0.10630(16) 0.97743(14) 0.0144(2) Uani 1 1 d . . . . .
N2 N 0.1628(2) 0.12237(16) 0.86747(14) 0.0146(2) Uani 1 1 d . . . . .
C1 C 0.2783(2) -0.2253(2) 1.02764(18) 0.0184(3) Uani 1 1 d . . . . .
H1 H 0.265054 -0.240326 1.115440 0.022 Uiso 1 1 calc R U . . .
C2 C 0.3265(3) -0.3282(2) 0.9578(2) 0.0233(3) Uani 1 1 d . . . . .
H2 H 0.342411 -0.413114 0.995669 0.028 Uiso 1 1 calc R U . . .
C3 C 0.3506(3) -0.3034(2) 0.8315(2) 0.0230(3) Uani 1 1 d . . . . .
H3 H 0.384672 -0.371064 0.781579 0.028 Uiso 1 1 calc R U . . .
C4 C 0.3247(2) -0.17953(19) 0.77837(17) 0.0179(3) Uani 1 1 d . . . . .
C5 C 0.3634(3) -0.1424(2) 0.64883(18) 0.0213(3) Uani 1 1 d . . . . .
H5 H 0.365(3) -0.216(3) 0.592(3) 0.026 Uiso 1 1 d . U . . .
C6 C 0.3240(2) -0.0153(2) 0.59217(17) 0.0207(3) Uani 1 1 d . . . . .
H6 H 0.299(3) -0.013(3) 0.496(3) 0.025 Uiso 1 1 d . U . . .
C7 C 0.2435(2) 0.0692(2) 0.66589(16) 0.0162(3) Uani 1 1 d . . . . .
C8 C 0.1870(2) 0.1799(2) 0.61012(17) 0.0201(3) Uani 1 1 d . . . . .
H8 H 0.193151 0.198362 0.521517 0.024 Uiso 1 1 calc R U . . .
C9 C 0.1219(3) 0.2630(2) 0.68512(18) 0.0203(3) Uani 1 1 d . . . . .
H9 H 0.082569 0.339346 0.649153 0.024 Uiso 1 1 calc R U . . .
C10 C 0.1150(2) 0.23240(19) 0.81429(17) 0.0172(3) Uani 1 1 d . . . . .
H10 H 0.074707 0.292231 0.867150 0.021 Uiso 1 1 calc R U . . .
C11 C 0.2693(2) -0.08441(18) 0.85332(16) 0.0137(3) Uani 1 1 d . . . . .
C12 C 0.2255(2) 0.04089(18) 0.79459(15) 0.0133(3) Uani 1 1 d . . . . .
C13A C 0.243(4) 0.3598(17) 1.2464(16) 0.0163(8) Uani 0.538(8) 1 d D U P A 1
C14A C 0.2263(12) 0.4901(11) 1.3349(9) 0.0188(13) Uani 0.538(8) 1 d D U P A 1
F1A F 0.1554(13) 0.4434(10) 1.4361(9) 0.0473(18) Uani 0.538(8) 1 d D U P A 1
F2A F 0.1089(7) 0.5446(6) 1.2599(4) 0.0434(10) Uani 0.538(8) 1 d D U P A 1
F3A F 0.3957(5) 0.6168(5) 1.3876(6) 0.0544(16) Uani 0.538(8) 1 d D . P A 1
O3A O 0.2434(13) 0.3952(16) 1.1328(10) 0.0377(19) Uani 0.538(8) 1 d D U P A 1
C13B C 0.235(5) 0.365(2) 1.2432(19) 0.0163(8) Uani 0.462(8) 1 d D U P A 2
C14B C 0.2427(15) 0.4874(12) 1.3561(10) 0.0186(15) Uani 0.462(8) 1 d D U P A 2
F1B F 0.1035(12) 0.4252(13) 1.4140(10) 0.0340(14) Uani 0.462(8) 1 d D U P A 2
F2B F 0.2208(11) 0.6073(5) 1.3083(6) 0.0497(16) Uani 0.462(8) 1 d D U P A 2
F3B F 0.4078(6) 0.5455(8) 1.4578(6) 0.0582(19) Uani 0.462(8) 1 d D . P A 2
O3B O 0.3029(14) 0.4113(17) 1.1501(11) 0.0301(17) Uani 0.462(8) 1 d D U P A 2
loop_
_atom_site_aniso_label
_atom_site_aniso_U_11
_atom_site_aniso_U_22
_atom_site_aniso_U_33
_atom_site_aniso_U_23
_atom_site_aniso_U_13
_atom_site_aniso_U_12
Ag 0.02178(7) 0.01752(6) 0.01144(6) 0.00172(4) 0.00846(4) 0.00889(5)
O1 0.0190(6) 0.0304(7) 0.0195(6) 0.0014(5) 0.0099(5) 0.0091(5)
O2 0.0274(6) 0.0152(5) 0.0155(5) 0.0022(4) 0.0090(5) 0.0100(5)
N1 0.0146(6) 0.0144(6) 0.0136(6) 0.0026(5) 0.0053(5) 0.0052(5)
N2 0.0171(6) 0.0155(6) 0.0124(6) 0.0027(5) 0.0076(5) 0.0066(5)
C1 0.0171(7) 0.0161(7) 0.0197(8) 0.0051(6) 0.0049(6) 0.0054(6)
C2 0.0229(8) 0.0153(7) 0.0305(9) 0.0041(6) 0.0072(7) 0.0081(6)
C3 0.0225(8) 0.0147(7) 0.0309(9) -0.0020(6) 0.0098(7) 0.0075(6)
C4 0.0164(7) 0.0163(7) 0.0177(7) -0.0040(6) 0.0058(6) 0.0049(6)
C5 0.0216(8) 0.0243(8) 0.0172(7) -0.0043(6) 0.0085(6) 0.0090(7)
C6 0.0186(7) 0.0311(9) 0.0119(7) 0.0000(6) 0.0078(6) 0.0091(7)
C7 0.0158(7) 0.0210(7) 0.0107(6) 0.0014(5) 0.0067(5) 0.0057(6)
C8 0.0209(7) 0.0236(8) 0.0134(7) 0.0057(6) 0.0074(6) 0.0060(6)
C9 0.0241(8) 0.0202(7) 0.0180(7) 0.0077(6) 0.0086(6) 0.0092(6)
C10 0.0211(7) 0.0172(7) 0.0169(7) 0.0047(6) 0.0092(6) 0.0098(6)
C11 0.0128(6) 0.0133(6) 0.0129(6) -0.0001(5) 0.0045(5) 0.0039(5)
C12 0.0125(6) 0.0150(6) 0.0117(6) 0.0012(5) 0.0061(5) 0.0043(5)
C13A 0.0190(17) 0.0176(10) 0.0141(9) 0.0019(7) 0.0043(10) 0.0104(8)
C14A 0.017(2) 0.020(2) 0.021(3) 0.0043(17) 0.0078(18) 0.0081(17)
F1A 0.101(5) 0.032(3) 0.040(3) 0.020(3) 0.052(4) 0.039(3)
F2A 0.060(2) 0.053(2) 0.0456(19) 0.0177(17) 0.0204(17) 0.049(2)
F3A 0.0299(15) 0.0375(18) 0.071(3) -0.0308(19) 0.0191(17) -0.0047(13)
O3A 0.066(5) 0.027(2) 0.0167(19) 0.0075(16) 0.013(3) 0.017(4)
C13B 0.0190(17) 0.0176(10) 0.0141(9) 0.0019(7) 0.0043(10) 0.0104(8)
C14B 0.025(3) 0.017(2) 0.020(3) 0.0004(19) 0.007(2) 0.015(2)
F1B 0.045(2) 0.031(2) 0.031(3) -0.0009(17) 0.026(2) 0.0139(18)
F2B 0.107(5) 0.036(2) 0.049(3) 0.0280(18) 0.054(3) 0.051(3)
F3B 0.0351(17) 0.066(3) 0.050(3) -0.044(2) -0.0167(16) 0.0257(19)
O3B 0.055(5) 0.026(3) 0.022(3) 0.010(3) 0.023(3) 0.021(4)
loop_
_atom_type_symbol
_atom_type_description
_atom_type_scat_dispersion_real
_atom_type_scat_dispersion_imag
_atom_type_scat_source
C C 0.0033 0.0016 'International Tables Vol C Tables 4.2.6.8 and 6.1.1.4'
H H 0.0000 0.0000 'International Tables Vol C Tables 4.2.6.8 and 6.1.1.4'
Ag Ag -0.8971 1.1015 'International Tables Vol C Tables 4.2.6.8 and 6.1.1.4'
F F 0.0171 0.0103 'International Tables Vol C Tables 4.2.6.8 and 6.1.1.4'
N N 0.0061 0.0033 'International Tables Vol C Tables 4.2.6.8 and 6.1.1.4'
O O 0.0106 0.0060 'International Tables Vol C Tables 4.2.6.8 and 6.1.1.4'
loop_
_geom_angle_atom_site_label_1
_geom_angle_atom_site_label_2
_geom_angle_atom_site_label_3
_geom_angle
_geom_angle_site_symmetry_1
_geom_angle_site_symmetry_3
O2 Ag Ag 111.14(4) . 2_557
O2 Ag N1 159.04(5) . .
O2 Ag N2 128.43(5) . .
N1 Ag Ag 83.54(5) . 2_557
N1 Ag N2 71.09(5) . .
N2 Ag Ag 62.97(4) . 2_557
C6 O1 C5 60.74(12) . .
C13A O2 Ag 103.9(5) . .
C13B O2 Ag 104.5(5) . .
C1 N1 Ag 123.76(11) . .
C1 N1 C11 118.41(14) . .
C11 N1 Ag 117.50(11) . .
C10 N2 Ag 126.86(10) . .
C10 N2 C12 118.66(14) . .
C12 N2 Ag 113.69(10) . .
N1 C1 H1 118.4 . .
N1 C1 C2 123.29(16) . .
C2 C1 H1 118.4 . .
C1 C2 H2 120.9 . .
C3 C2 C1 118.17(16) . .
C3 C2 H2 120.9 . .
C2 C3 H3 120.2 . .
C2 C3 C4 119.61(16) . .
C4 C3 H3 120.2 . .
C3 C4 C5 121.04(15) . .
C3 C4 C11 118.66(16) . .
C11 C4 C5 120.24(16) . .
O1 C5 C4 114.15(14) . .
O1 C5 H5 112.1(16) . .
O1 C5 C6 59.60(12) . .
C4 C5 H5 118.7(16) . .
C6 C5 C4 119.26(14) . .
C6 C5 H5 118.0(16) . .
O1 C6 C5 59.65(11) . .
O1 C6 H6 114.3(14) . .
O1 C6 C7 114.73(14) . .
C5 C6 H6 121.4(15) . .
C5 C6 C7 118.56(15) . .
C7 C6 H6 115.5(15) . .
C8 C7 C6 120.68(15) . .
C8 C7 C12 118.82(14) . .
C12 C7 C6 120.50(15) . .
C7 C8 H8 120.4 . .
C9 C8 C7 119.17(15) . .
C9 C8 H8 120.4 . .
C8 C9 H9 120.7 . .
C8 C9 C10 118.61(16) . .
C10 C9 H9 120.7 . .
N2 C10 C9 122.88(15) . .
N2 C10 H10 118.6 . .
C9 C10 H10 118.6 . .
N1 C11 C4 121.79(15) . .
N1 C11 C12 118.19(13) . .
C4 C11 C12 120.00(15) . .
N2 C12 C7 121.78(15) . .
N2 C12 C11 117.42(14) . .
C7 C12 C11 120.76(14) . .
O2 C13A C14A 119.6(9) . .
O2 C13A O3A 129.8(11) . .
O3A C13A C14A 108.5(11) . .
F1A C14A C13A 114.3(9) . .
F1A C14A F2A 106.0(7) . .
F2A C14A C13A 111.4(10) . .
F3A C14A C13A 112.1(11) . .
F3A C14A F1A 108.3(7) . .
F3A C14A F2A 104.0(7) . .
O2 C13B C14B 112.0(10) . .
O3B C13B O2 124.7(13) . .
O3B C13B C14B 119.8(13) . .
F1B C14B C13B 112.8(12) . .
F2B C14B C13B 112.2(10) . .
F2B C14B F1B 106.3(9) . .
F3B C14B C13B 112.4(13) . .
F3B C14B F1B 105.0(8) . .
F3B C14B F2B 107.6(8) . .
loop_
_geom_bond_atom_site_label_1
_geom_bond_atom_site_label_2
_geom_bond_distance
_geom_bond_site_symmetry_2
Ag Ag 2.9633(12) 2_557
Ag O2 2.2475(14) .
Ag N1 2.2876(15) .
Ag N2 2.4112(17) .
O1 C5 1.454(2) .
O1 C6 1.454(2) .
O2 C13A 1.216(14) .
O2 C13B 1.288(16) .
N1 C1 1.338(2) .
N1 C11 1.347(2) .
N2 C10 1.339(2) .
N2 C12 1.3442(19) .
C1 H1 0.9500 .
C1 C2 1.390(3) .
C2 H2 0.9500 .
C2 C3 1.384(3) .
C3 H3 0.9500 .
C3 C4 1.384(3) .
C4 C5 1.478(2) .
C4 C11 1.405(2) .
C5 H5 0.88(2) .
C5 C6 1.470(3) .
C6 H6 0.96(3) .
C6 C7 1.475(2) .
C7 C8 1.389(2) .
C7 C12 1.401(2) .
C8 H8 0.9500 .
C8 C9 1.382(2) .
C9 H9 0.9500 .
C9 C10 1.390(2) .
C10 H10 0.9500 .
C11 C12 1.478(2) .
C13A C14A 1.544(9) .
C13A O3A 1.238(11) .
C14A F1A 1.325(8) .
C14A F2A 1.332(9) .
C14A F3A 1.319(9) .
C13B C14B 1.546(10) .
C13B O3B 1.235(12) .
C14B F1B 1.328(10) .
C14B F2B 1.315(10) .
C14B F3B 1.311(10) .
loop_
_geom_torsion_atom_site_label_1
_geom_torsion_atom_site_label_2
_geom_torsion_atom_site_label_3
_geom_torsion_atom_site_label_4
_geom_torsion
_geom_torsion_site_symmetry_1
_geom_torsion_site_symmetry_2
_geom_torsion_site_symmetry_3
_geom_torsion_site_symmetry_4
Ag O2 C13A C14A 169.7(16) . . . .
Ag O2 C13A O3A 8(3) . . . .
Ag O2 C13B C14B 178.9(15) . . . .
Ag O2 C13B O3B -22(3) . . . .
Ag N1 C1 C2 -173.59(13) . . . .
Ag N1 C11 C4 171.63(11) . . . .
Ag N1 C11 C12 -10.04(18) . . . .
Ag N2 C10 C9 171.11(13) . . . .
Ag N2 C12 C7 -169.99(12) . . . .
Ag N2 C12 C11 11.96(17) . . . .
O1 C5 C6 C7 -103.49(17) . . . .
O1 C6 C7 C8 118.42(18) . . . .
O1 C6 C7 C12 -60.5(2) . . . .
O2 C13A C14A F1A -8(3) . . . .
O2 C13A C14A F2A -128.0(19) . . . .
O2 C13A C14A F3A 116(2) . . . .
O2 C13B C14B F1B -46(3) . . . .
O2 C13B C14B F2B -165.6(17) . . . .
O2 C13B C14B F3B 73(2) . . . .
N1 C1 C2 C3 1.6(3) . . . .
N1 C11 C12 N2 -2.0(2) . . . .
N1 C11 C12 C7 179.98(14) . . . .
C1 N1 C11 C4 -2.0(2) . . . .
C1 N1 C11 C12 176.30(14) . . . .
C1 C2 C3 C4 -0.6(3) . . . .
C2 C3 C4 C5 175.46(16) . . . .
C2 C3 C4 C11 -1.7(3) . . . .
C3 C4 C5 O1 -115.86(18) . . . .
C3 C4 C5 C6 176.74(16) . . . .
C3 C4 C11 N1 3.0(2) . . . .
C3 C4 C11 C12 -175.26(15) . . . .
C4 C5 C6 O1 102.43(17) . . . .
C4 C5 C6 C7 -1.1(2) . . . .
C4 C11 C12 N2 176.41(14) . . . .
C4 C11 C12 C7 -1.7(2) . . . .
C5 O1 C6 C7 109.89(17) . . . .
C5 C4 C11 N1 -174.10(15) . . . .
C5 C4 C11 C12 7.6(2) . . . .
C5 C6 C7 C8 -174.07(16) . . . .
C5 C6 C7 C12 7.0(2) . . . .
C6 O1 C5 C4 -110.97(16) . . . .
C6 C7 C8 C9 -176.61(16) . . . .
C6 C7 C12 N2 176.28(15) . . . .
C6 C7 C12 C11 -5.7(2) . . . .
C7 C8 C9 C10 0.0(3) . . . .
C8 C7 C12 N2 -2.7(2) . . . .
C8 C7 C12 C11 175.28(14) . . . .
C8 C9 C10 N2 -2.2(3) . . . .
C10 N2 C12 C7 0.5(2) . . . .
C10 N2 C12 C11 -177.51(14) . . . .
C11 N1 C1 C2 -0.4(2) . . . .
C11 C4 C5 O1 61.2(2) . . . .
C11 C4 C5 C6 -6.2(2) . . . .
C12 N2 C10 C9 2.0(2) . . . .
C12 C7 C8 C9 2.4(2) . . . .
O3A C13A C14A F1A 157.1(14) . . . .
O3A C13A C14A F2A 37(2) . . . .
O3A C13A C14A F3A -79.2(19) . . . .
O3B C13B C14B F1B 155(2) . . . .
O3B C13B C14B F2B 35(3) . . . .
O3B C13B C14B F3B -87(2) . . . .
loop_
_refln_index_h
_refln_index_k
_refln_index_l
_refln_F_squared_meas
_refln_F_squared_sigma
_refln_observed_status
1 0 0 367.97 4.13 o
2 0 0 29852.46 286.62 o
3 0 0 4058.10 40.57 o
4 0 0 570.95 12.10 o
5 0 0 1588.22 19.88 o
6 0 0 26.94 3.02 o
7 0 0 930.25 16.10 o
8 0 0 100.73 7.03 o
9 0 0 137.98 10.22 o
10 0 0 131.20 14.92 o
-10 1 0 184.86 14.75 o
-9 1 0 24.99 5.01 o
-8 1 0 632.64 14.61 o
-7 1 0 356.45 12.39 o
-6 1 0 1357.81 19.68 o
-5 1 0 1654.68 20.26 o
-4 1 0 175.14 4.44 o
-3 1 0 5849.44 57.29 o
-2 1 0 1461.90 14.93 o
-1 1 0 2590.27 54.11 o
0 1 0 8703.75 89.57 o
1 1 0 1525.52 15.51 o
2 1 0 25989.94 320.70 o
3 1 0 763.27 9.42 o
4 1 0 6323.99 63.18 o
5 1 0 801.61 12.01 o
6 1 0 4.52 2.34 o
7 1 0 648.80 13.15 o
8 1 0 28.36 5.84 o
9 1 0 173.05 11.60 o
-10 2 0 71.57 11.66 o
-9 2 0 319.59 10.66 o
-8 2 0 448.06 11.61 o
-7 2 0 18.74 3.16 o
-6 2 0 1465.81 20.54 o
-5 2 0 143.97 3.39 o
-4 2 0 1572.72 15.77 o
-3 2 0 3047.78 30.39 o
-2 2 0 478.86 6.46 o
-1 2 0 3224.83 48.50 o
0 2 0 3340.43 39.32 o
1 2 0 3379.16 50.61 o
2 2 0 3809.94 38.24 o
3 2 0 298.59 5.50 o
4 2 0 5653.57 57.21 o
5 2 0 875.45 13.24 o
6 2 0 1043.56 17.42 o
7 2 0 857.32 18.27 o
8 2 0 1.49 5.84 o
9 2 0 329.57 19.41 o
-11 3 0 32.18 13.06 o
-10 3 0 5.52 4.61 o
-9 3 0 213.32 9.29 o
-8 3 0 262.50 8.36 o
-7 3 0 317.26 8.26 o
-6 3 0 1813.11 21.78 o
-5 3 0 20.50 1.47 o
-4 3 0 1044.84 13.02 o
-3 3 0 2440.53 26.80 o
-2 3 0 2578.28 52.86 o
-1 3 0 2074.72 20.86 o
0 3 0 11.62 0.84 o
1 3 0 6975.62 68.18 o
2 3 0 803.37 9.90 o
3 3 0 2079.57 22.78 o
4 3 0 1721.87 20.09 o
5 3 0 9.84 4.03 o
6 3 0 688.42 13.79 o
7 3 0 402.15 26.01 o
8 3 0 104.24 12.06 o
-11 4 0 6.38 12.15 o
-10 4 0 11.02 5.48 o
-9 4 0 203.39 15.66 o
-8 4 0 41.02 3.59 o
-7 4 0 339.87 14.73 o
-6 4 0 1271.97 28.97 o
-5 4 0 602.43 8.88 o
-4 4 0 3383.03 37.15 o
-3 4 0 508.92 20.84 o
-2 4 0 5183.24 78.47 o
-1 4 0 1731.54 20.07 o
0 4 0 578.25 9.46 o
1 4 0 2021.56 24.14 o
2 4 0 13.21 1.48 o
3 4 0 744.23 11.10 o
4 4 0 836.99 12.85 o
5 4 0 525.48 11.25 o
6 4 0 602.79 17.43 o
7 4 0 2.52 6.30 o
-11 5 0 23.68 11.84 o
-10 5 0 13.80 5.60 o
-9 5 0 234.10 11.30 o
-8 5 0 135.19 8.10 o
-7 5 0 727.01 18.08 o
-6 5 0 731.54 12.17 o
-5 5 0 2027.80 26.42 o
-4 5 0 1546.80 20.19 o
-3 5 0 35.82 4.30 o
-2 5 0 4440.06 67.49 o
-1 5 0 1028.95 12.73 o
0 5 0 814.73 10.48 o
1 5 0 4008.07 40.74 o
2 5 0 186.81 5.12 o
3 5 0 1088.52 16.68 o
4 5 0 55.66 4.70 o
5 5 0 411.37 13.63 o
6 5 0 317.78 16.92 o
7 5 0 94.38 12.53 o
-10 6 0 230.76 13.17 o
-9 6 0 16.43 4.71 o
-8 6 0 0.30 2.95 o
-7 6 0 51.09 6.82 o
-6 6 0 621.32 12.44 o
-5 6 0 1097.73 14.19 o
-4 6 0 735.25 15.43 o
-3 6 0 1644.15 31.07 o
-2 6 0 3687.22 37.43 o
-1 6 0 236.51 4.91 o
0 6 0 3406.14 41.42 o
1 6 0 1664.69 22.25 o
2 6 0 1180.95 19.76 o
3 6 0 1769.91 28.26 o
4 6 0 44.17 4.73 o
5 6 0 672.03 23.48 o
6 6 0 23.55 8.52 o
7 6 0 112.95 18.22 o
-10 7 0 526.62 16.97 o
-9 7 0 -3.06 3.80 o
-8 7 0 741.49 17.64 o
-7 7 0 122.73 5.88 o
-6 7 0 47.60 3.00 o
-5 7 0 871.04 16.01 o
-4 7 0 1105.26 18.78 o
-3 7 0 766.53 10.77 o
-2 7 0 2206.45 28.60 o
-1 7 0 1172.91 18.56 o
0 7 0 1606.29 21.09 o
1 7 0 1.77 2.00 o
2 7 0 1770.45 28.02 o
3 7 0 574.58 15.40 o
4 7 0 434.93 14.31 o
5 7 0 896.28 28.82 o
6 7 0 25.24 10.20 o
-10 8 0 269.44 12.76 o
-9 8 0 41.50 6.03 o
-8 8 0 1561.24 30.24 o
-7 8 0 -0.63 2.19 o
-6 8 0 1856.33 21.12 o
-5 8 0 258.54 10.43 o
-4 8 0 1155.69 17.79 o
-3 8 0 666.08 9.72 o
-2 8 0 12.87 2.31 o
-1 8 0 981.98 30.28 o
0 8 0 287.57 9.28 o
1 8 0 182.46 7.57 o
2 8 0 636.75 15.89 o
3 8 0 3.28 4.35 o
4 8 0 411.52 14.90 o
5 8 0 185.06 47.97 o
-10 9 0 -2.62 4.66 o
-9 9 0 372.34 12.53 o
-8 9 0 307.96 13.87 o
-7 9 0 54.30 5.08 o
-6 9 0 580.01 11.97 o
-5 9 0 234.18 7.21 o
-4 9 0 489.45 7.38 o
-3 9 0 226.33 7.43 o
-2 9 0 44.70 4.74 o
-1 9 0 505.22 19.13 o
0 9 0 1.73 3.86 o
1 9 0 231.60 11.18 o
2 9 0 214.79 9.64 o
3 9 0 12.90 6.55 o
4 9 0 292.54 18.37 o
-10 10 0 1.75 6.39 o
-9 10 0 137.98 13.28 o
-8 10 0 75.47 5.66 o
-7 10 0 396.55 13.67 o
-6 10 0 475.06 10.09 o
-5 10 0 2.79 2.24 o
-4 10 0 1222.59 23.41 o
-3 10 0 466.16 12.20 o
-2 10 0 396.84 14.15 o
-1 10 0 876.13 27.48 o
0 10 0 72.93 8.35 o
1 10 0 417.31 17.64 o
2 10 0 3.62 4.51 o
3 10 0 177.12 10.74 o
-10 11 0 57.29 16.40 o
-9 11 0 166.13 8.53 o
-8 11 0 6.86 5.96 o
-7 11 0 232.22 14.09 o
-6 11 0 150.48 11.38 o
-5 11 0 126.85 10.72 o
-4 11 0 650.92 18.06 o
-3 11 0 26.95 5.10 o
-2 11 0 474.80 20.65 o
-1 11 0 228.60 29.30 o
0 11 0 143.58 11.91 o
1 11 0 417.03 19.10 o
2 11 0 -9.11 9.11 o
-9 12 0 143.01 20.65 o
-8 12 0 67.71 16.09 o
-6 12 0 -0.61 3.04 o
-5 12 0 70.57 7.59 o
-4 12 0 282.84 30.36 o
-3 12 0 27.83 5.74 o
-2 12 0 521.70 18.81 o
-1 12 0 10.28 6.21 o
0 12 0 395.16 18.63 o
-5 13 0 289.42 11.89 o
-4 13 0 -0.61 11.99 o
-3 13 0 115.71 10.47 o
-2 13 0 140.09 12.35 o
2 -13 1 612.89 21.79 o
3 -13 1 -1.07 5.19 o
4 -13 1 392.27 14.92 o
5 -13 1 149.08 10.02 o
6 -13 1 73.17 6.68 o
0 -12 1 40.65 12.75 o
1 -12 1 169.15 12.18 o
2 -12 1 628.74 21.41 o
3 -12 1 23.61 5.68 o
4 -12 1 889.20 38.11 o
5 -12 1 79.25 6.68 o
6 -12 1 446.47 13.63 o
7 -12 1 232.29 16.32 o
8 -12 1 7.35 3.57 o
9 -12 1 239.15 12.33 o
-2 -11 1 43.30 9.52 o
-1 -11 1 276.44 24.59 o
0 -11 1 10.04 7.29 o
1 -11 1 262.88 12.91 o
2 -11 1 231.99 11.94 o
3 -11 1 132.97 8.40 o
4 -11 1 781.85 17.43 o
5 -11 1 13.75 3.41 o
6 -11 1 972.28 43.27 o
7 -11 1 106.23 10.51 o
8 -11 1 404.80 12.03 o
9 -11 1 208.37 9.91 o
10 -11 1 -15.18 15.18 o
-3 -10 1 -5.08 5.08 o
-2 -10 1 181.14 9.10 o
-1 -10 1 327.97 15.68 o
0 -10 1 39.39 5.97 o
1 -10 1 702.81 21.00 o
2 -10 1 69.11 5.61 o
3 -10 1 773.83 17.07 o
4 -10 1 274.15 11.16 o
5 -10 1 139.19 10.52 o
6 -10 1 788.82 23.94 o
7 -10 1 10.65 3.28 o
8 -10 1 467.33 11.98 o
9 -10 1 197.20 9.72 o
10 -10 1 85.58 13.68 o
-4 -9 1 163.29 39.17 o
-3 -9 1 -0.12 5.25 o
-2 -9 1 336.40 11.60 o
-1 -9 1 50.13 5.16 o
0 -9 1 459.50 12.89 o
1 -9 1 488.72 18.06 o
2 -9 1 26.49 3.49 o
3 -9 1 1303.05 24.33 o
4 -9 1 600.70 10.88 o
5 -9 1 335.97 11.10 o
6 -9 1 922.28 16.69 o
7 -9 1 15.70 4.68 o
8 -9 1 788.58 16.58 o
9 -9 1 52.17 15.30 o
10 -9 1 380.42 14.45 o
-5 -8 1 290.64 17.63 o
-4 -8 1 392.05 16.37 o
-3 -8 1 196.42 9.80 o
-2 -8 1 776.02 15.55 o
-1 -8 1 2.14 2.63 o
0 -8 1 1541.01 28.83 o
1 -8 1 74.11 5.20 o
2 -8 1 1103.78 31.04 o
3 -8 1 1499.27 18.32 o
4 -8 1 107.39 3.95 o
5 -8 1 2161.82 34.10 o
6 -8 1 606.30 12.27 o
7 -8 1 683.17 14.12 o
8 -8 1 799.90 16.82 o
9 -8 1 52.89 12.11 o
10 -8 1 397.09 14.72 o
-6 -7 1 76.19 11.28 o
-5 -7 1 485.47 20.42 o
-4 -7 1 114.43 8.46 o
-3 -7 1 1222.99 30.68 o
-2 -7 1 642.45 14.15 o
-1 -7 1 465.85 10.08 o
0 -7 1 2206.48 41.81 o
1 -7 1 0.98 1.54 o
2 -7 1 1544.84 34.49 o
3 -7 1 629.92 11.09 o
4 -7 1 1334.86 16.31 o
5 -7 1 726.33 10.17 o
6 -7 1 243.47 7.07 o
7 -7 1 526.53 11.97 o
8 -7 1 135.66 10.32 o
9 -7 1 64.87 6.79 o
10 -7 1 330.94 13.94 o
-7 -6 1 7.25 9.60 o
-6 -6 1 353.89 18.74 o
-5 -6 1 138.09 9.65 o
-4 -6 1 2.44 4.34 o
-3 -6 1 973.83 17.88 o
-2 -6 1 366.59 8.85 o
-1 -6 1 1625.99 24.70 o
0 -6 1 2275.49 23.86 o
1 -6 1 2585.31 31.77 o
2 -6 1 2698.94 37.44 o
3 -6 1 5.89 0.89 o
4 -6 1 2669.51 29.97 o
5 -6 1 1550.17 18.94 o
6 -6 1 818.92 20.26 o
7 -6 1 1773.90 28.67 o
8 -6 1 96.18 7.28 o
9 -6 1 476.00 15.09 o
10 -6 1 30.39 6.16 o
-7 -5 1 60.08 10.29 o
-6 -5 1 625.81 18.19 o
-5 -5 1 1.21 4.12 o
-4 -5 1 656.36 14.02 o
-3 -5 1 703.10 12.11 o
-2 -5 1 68.04 3.08 o
-1 -5 1 553.77 8.51 o
0 -5 1 2658.20 29.47 o
1 -5 1 628.30 11.50 o
2 -5 1 1670.02 21.25 o
3 -5 1 69.39 1.81 o
4 -5 1 1212.54 17.69 o
5 -5 1 76.68 2.94 o
6 -5 1 1124.42 20.57 o
7 -5 1 1265.61 37.12 o
8 -5 1 425.92 13.34 o
9 -5 1 1404.32 30.16 o
10 -5 1 53.66 7.40 o
-8 -4 1 48.58 15.18 o
-7 -4 1 113.49 9.52 o
-6 -4 1 443.36 12.47 o
-5 -4 1 82.56 5.68 o
-4 -4 1 585.22 11.13 o
-3 -4 1 454.98 7.81 o
-2 -4 1 1624.61 18.04 o
-1 -4 1 2059.41 21.59 o
0 -4 1 290.10 4.09 o
1 -4 1 4219.02 50.39 o
2 -4 1 5720.45 85.61 o
3 -4 1 1005.84 13.14 o
4 -4 1 4020.86 57.61 o
5 -4 1 37.71 2.21 o
6 -4 1 993.97 23.78 o
7 -4 1 187.91 8.34 o
8 -4 1 433.01 10.44 o
9 -4 1 767.51 21.87 o
10 -4 1 144.03 7.61 o
-9 -3 1 338.69 20.80 o
-8 -3 1 -6.90 7.08 o
-7 -3 1 509.15 21.03 o
-6 -3 1 448.41 10.50 o
-5 -3 1 364.61 8.49 o
-4 -3 1 881.15 11.80 o
-3 -3 1 22.71 1.94 o
-2 -3 1 2874.92 30.05 o
-1 -3 1 1091.89 11.20 o
0 -3 1 2757.56 29.65 o
1 -3 1 8516.06 97.19 o
2 -3 1 396.76 5.20 o
3 -3 1 2584.59 34.40 o
4 -3 1 1480.09 15.98 o
5 -3 1 383.46 5.87 o
6 -3 1 1425.85 27.54 o
7 -3 1 5.22 2.53 o
8 -3 1 523.98 12.41 o
9 -3 1 192.47 8.74 o
10 -3 1 247.45 11.66 o
-9 -2 1 89.48 12.30 o
-8 -2 1 97.08 8.76 o
-7 -2 1 827.77 17.70 o
-6 -2 1 114.95 5.73 o
-5 -2 1 2185.39 24.76 o
-4 -2 1 591.99 8.56 o
-3 -2 1 188.42 3.89 o
-2 -2 1 2826.88 28.78 o
-1 -2 1 518.60 6.66 o
0 -2 1 529.28 8.59 o
1 -2 1 836.57 20.06 o
2 -2 1 593.91 7.14 o
3 -2 1 5221.51 50.24 o
4 -2 1 105.22 2.40 o
5 -2 1 1852.16 20.36 o
6 -2 1 975.16 15.00 o
7 -2 1 101.58 5.91 o
8 -2 1 640.12 14.49 o
9 -2 1 18.34 5.06 o
10 -2 1 356.35 12.81 o
-9 -1 1 8.00 6.32 o
-8 -1 1 307.18 12.34 o
-7 -1 1 243.19 7.99 o
-6 -1 1 3.42 2.19 o
-5 -1 1 2675.45 29.04 o
-4 -1 1 615.77 8.50 o
-3 -1 1 1557.42 16.98 o
-2 -1 1 9151.75 88.69 o
-1 -1 1 580.59 6.45 o
0 -1 1 14179.24 173.21 o
1 -1 1 3395.35 41.44 o
2 -1 1 7749.41 70.11 o
3 -1 1 1598.74 14.99 o
4 -1 1 592.21 10.14 o
5 -1 1 2970.84 33.98 o
6 -1 1 15.17 2.56 o
7 -1 1 1401.28 23.98 o
8 -1 1 213.36 9.33 o
9 -1 1 80.98 7.21 o
10 -1 1 205.79 17.70 o
-10 0 1 60.88 8.66 o
-9 0 1 86.73 8.44 o
-8 0 1 549.35 13.66 o
-7 0 1 43.07 3.98 o
-6 0 1 954.87 15.35 o
-5 0 1 2377.52 25.78 o
-4 0 1 327.70 6.33 o
-3 0 1 3146.16 31.77 o
-2 0 1 2111.57 21.33 o
-1 0 1 3234.87 31.48 o
0 0 1 4185.74 47.08 o
1 0 1 11.97 0.94 o
2 0 1 12066.78 125.67 o
3 0 1 13.66 1.33 o
4 0 1 5007.79 50.51 o
5 0 1 25.96 2.40 o
6 0 1 210.82 6.56 o
7 0 1 423.57 11.38 o
8 0 1 12.91 4.27 o
9 0 1 175.71 11.52 o
-10 1 1 25.35 6.96 o
-9 1 1 439.19 12.83 o
-8 1 1 249.69 9.07 o
-7 1 1 693.80 12.68 o
-6 1 1 444.71 8.90 o
-5 1 1 327.10 6.77 o
-4 1 1 4326.24 43.39 o
-3 1 1 4006.81 38.30 o
-2 1 1 248.67 3.94 o
-1 1 1 604.19 6.67 o
0 1 1 1806.01 18.12 o
1 1 1 7977.52 77.12 o
2 1 1 1255.82 18.53 o
3 1 1 3086.70 31.85 o
4 1 1 1889.20 21.08 o
5 1 1 761.27 11.72 o
6 1 1 1166.83 18.61 o
7 1 1 334.63 12.46 o
8 1 1 50.88 6.96 o
9 1 1 157.42 13.49 o
-10 2 1 -1.66 4.78 o
-9 2 1 351.13 12.01 o
-8 2 1 495.09 12.70 o
-7 2 1 725.53 12.74 o
-6 2 1 600.17 11.49 o
-5 2 1 448.06 6.46 o
-4 2 1 944.63 11.57 o
-3 2 1 5.78 1.10 o
-2 2 1 2595.73 27.81 o
-1 2 1 11696.06 121.35 o
0 2 1 696.12 7.29 o
1 2 1 2099.95 21.52 o
2 2 1 3166.03 34.93 o
3 2 1 599.05 8.27 o
4 2 1 1503.99 17.73 o
5 2 1 790.80 12.46 o
6 2 1 489.39 11.02 o
7 2 1 487.41 15.52 o
8 2 1 370.76 15.13 o
9 2 1 148.17 20.04 o
-11 3 1 123.58 13.51 o
-10 3 1 205.25 9.38 o
-9 3 1 454.37 11.85 o
-8 3 1 24.21 4.73 o
-7 3 1 889.39 19.36 o
-6 3 1 1064.02 13.88 o
-5 3 1 23.67 1.38 o
-4 3 1 5580.36 65.37 o
-3 3 1 57.61 1.63 o
-2 3 1 883.53 15.52 o
-1 3 1 3163.58 37.02 o
0 3 1 808.18 8.03 o
1 3 1 6056.39 59.57 o
2 3 1 23.12 1.68 o
3 3 1 1152.86 14.05 o
4 3 1 880.92 13.11 o
5 3 1 24.53 3.36 o
6 3 1 423.58 10.73 o
7 3 1 289.42 12.95 o
8 3 1 73.17 14.27 o
-11 4 1 14.82 10.17 o
-10 4 1 465.58 17.00 o
-9 4 1 348.96 10.72 o
-8 4 1 113.49 5.02 o
-7 4 1 1927.20 29.97 o
-6 4 1 62.99 3.97 o
-5 4 1 1416.74 20.19 o
-4 4 1 3690.63 40.24 o
-3 4 1 749.30 12.53 o
-2 4 1 9015.59 165.60 o
-1 4 1 183.59 4.80 o
0 4 1 4381.72 52.06 o
1 4 1 1536.97 16.92 o
2 4 1 138.88 3.57 o
3 4 1 2130.47 25.84 o
4 4 1 181.94 5.62 o
5 4 1 544.30 13.19 o
6 4 1 480.70 36.13 o
7 4 1 -2.73 9.41 o
-11 5 1 53.19 8.65 o
-10 5 1 458.02 16.10 o
-9 5 1 0.81 3.94 o
-8 5 1 945.41 20.88 o
-7 5 1 1052.78 18.52 o
-6 5 1 500.28 10.30 o
-5 5 1 2783.98 31.55 o
-4 5 1 542.45 10.42 o
-3 5 1 2633.69 42.58 o
-2 5 1 1743.60 18.57 o
-1 5 1 6.28 1.14 o
0 5 1 3687.22 37.27 o
1 5 1 553.16 7.72 o
2 5 1 1784.30 24.11 o
3 5 1 1033.67 16.28 o
4 5 1 40.73 3.81 o
5 5 1 923.95 30.21 o
6 5 1 132.73 12.69 o
7 5 1 94.73 16.09 o
-11 6 1 137.95 11.14 o
-10 6 1 278.61 12.67 o
-9 6 1 325.30 12.01 o
-8 6 1 671.06 16.68 o
-7 6 1 8.16 2.53 o
-6 6 1 1209.76 15.77 o
-5 6 1 403.34 6.22 o
-4 6 1 24.15 2.54 o
-3 6 1 2885.75 40.59 o
-2 6 1 1752.07 24.78 o
-1 6 1 1620.40 24.30 o
0 6 1 2003.73 32.05 o
1 6 1 15.45 2.12 o
2 6 1 1386.15 20.08 o
3 6 1 305.03 11.00 o
4 6 1 554.28 15.80 o
5 6 1 651.36 23.16 o
6 6 1 56.88 11.08 o
-11 7 1 159.00 11.74 o
-10 7 1 238.02 12.23 o
-9 7 1 216.60 10.63 o
-8 7 1 879.68 19.68 o
-7 7 1 217.68 6.81 o
-6 7 1 3534.53 40.04 o
-5 7 1 13.76 2.68 o
-4 7 1 2360.25 34.78 o
-3 7 1 1406.97 16.04 o
-2 7 1 9.32 1.57 o
-1 7 1 2335.56 33.64 o
0 7 1 931.13 16.03 o
1 7 1 914.84 25.47 o
2 7 1 625.47 15.45 o
3 7 1 34.80 5.11 o
4 7 1 205.90 11.28 o
5 7 1 133.36 12.76 o
6 7 1 113.56 23.68 o
-10 8 1 8.49 5.33 o
-9 8 1 458.40 13.94 o
-8 8 1 167.76 7.82 o
-7 8 1 132.51 5.45 o
-6 8 1 1085.12 19.80 o
-5 8 1 781.13 13.56 o
-4 8 1 2453.58 32.93 o
-3 8 1 526.06 8.78 o
-2 8 1 1778.19 29.14 o
-1 8 1 19.34 4.15 o
0 8 1 1.07 2.68 o
1 8 1 258.71 13.36 o
2 8 1 518.25 15.95 o
3 8 1 49.52 6.25 o
4 8 1 162.91 20.19 o
5 8 1 26.72 16.40 o
-10 9 1 24.59 5.39 o
-9 9 1 533.81 15.68 o
-8 9 1 26.96 3.92 o
-7 9 1 217.93 6.06 o
-6 9 1 568.58 10.82 o
-5 9 1 6.27 2.35 o
-4 9 1 966.16 13.33 o
-3 9 1 180.30 6.86 o
-2 9 1 1144.86 36.89 o
-1 9 1 202.98 10.54 o
0 9 1 522.37 18.02 o
1 9 1 286.05 9.73 o
2 9 1 8.43 4.37 o
3 9 1 188.99 10.81 o
4 9 1 184.00 27.63 o
-10 10 1 61.92 6.77 o
-9 10 1 311.79 14.89 o
-8 10 1 5.61 2.72 o
-7 10 1 439.84 12.46 o
-6 10 1 158.14 6.97 o
-5 10 1 439.68 8.22 o
-4 10 1 508.43 15.14 o
-3 10 1 51.84 5.78 o
-2 10 1 765.80 21.61 o
-1 10 1 87.31 8.52 o
0 10 1 578.64 20.34 o
1 10 1 273.77 15.81 o
2 10 1 143.90 8.96 o
3 10 1 291.18 24.29 o
-10 11 1 251.75 11.25 o
-9 11 1 114.26 7.25 o
-8 11 1 241.42 16.74 o
-7 11 1 621.49 37.95 o
-6 11 1 -3.45 5.47 o
-5 11 1 657.56 17.46 o
-4 11 1 257.02 25.20 o
-3 11 1 146.94 9.05 o
-2 11 1 325.70 26.57 o
-1 11 1 0.26 5.47 o
0 11 1 275.74 15.28 o
1 11 1 57.80 9.55 o
-6 12 1 389.86 27.02 o
-5 12 1 577.51 16.64 o
-4 12 1 6.05 4.53 o
-3 12 1 447.73 16.55 o
-2 12 1 203.04 12.73 o
-1 12 1 63.50 8.87 o
0 12 1 337.94 23.08 o
-6 13 1 263.93 44.94 o
-5 13 1 195.44 25.35 o
-4 13 1 274.24 13.16 o
-3 13 1 465.77 18.25 o
-5 14 1 1.21 15.18 o
1 -13 2 156.67 22.47 o
2 -13 2 319.92 31.12 o
3 -13 2 8.05 5.40 o
4 -13 2 343.71 16.70 o
5 -13 2 66.19 7.59 o
6 -13 2 106.88 9.41 o
7 -13 2 113.60 6.97 o
0 -12 2 9.23 6.57 o
1 -12 2 301.51 14.77 o
2 -12 2 193.15 32.34 o
3 -12 2 123.60 17.91 o
4 -12 2 554.52 14.94 o
5 -12 2 14.99 9.87 o
6 -12 2 623.55 47.52 o
7 -12 2 162.52 13.58 o
8 -12 2 133.81 13.94 o
-2 -11 2 596.60 23.91 o
-1 -11 2 300.01 15.89 o
0 -11 2 124.11 10.73 o
1 -11 2 680.91 21.42 o
2 -11 2 53.64 5.63 o
3 -11 2 367.76 11.44 o
4 -11 2 414.02 11.71 o
5 -11 2 3.60 3.33 o
6 -11 2 674.91 56.47 o
7 -11 2 76.67 5.88 o
8 -11 2 396.87 19.19 o
9 -11 2 171.90 9.15 o
-3 -10 2 -2.31 11.14 o
-2 -10 2 550.38 14.95 o
-1 -10 2 82.57 13.66 o
0 -10 2 818.88 19.94 o
1 -10 2 840.80 19.46 o
2 -10 2 198.58 8.50 o
3 -10 2 1343.49 25.99 o
4 -10 2 75.92 5.14 o
5 -10 2 504.63 26.11 o
6 -10 2 481.25 26.72 o
7 -10 2 -3.04 3.04 o
8 -10 2 571.25 17.92 o
9 -10 2 296.94 12.31 o
10 -10 2 346.44 31.27 o
-4 -9 2 11.61 7.03 o
-3 -9 2 208.17 24.66 o
-2 -9 2 401.22 12.48 o
-1 -9 2 20.80 3.42 o
0 -9 2 1152.03 23.96 o
1 -9 2 256.61 12.68 o
2 -9 2 1165.73 22.89 o
3 -9 2 1356.77 25.41 o
4 -9 2 70.39 4.55 o
5 -9 2 1534.36 27.86 o
6 -9 2 368.90 10.48 o
7 -9 2 689.78 20.42 o
8 -9 2 445.38 12.16 o
9 -9 2 16.53 5.45 o
10 -9 2 471.92 16.89 o
-5 -8 2 506.00 21.55 o
-4 -8 2 83.34 8.07 o
-3 -8 2 1039.73 20.09 o
-2 -8 2 113.98 6.25 o
-1 -8 2 1128.69 20.61 o
0 -8 2 1050.18 24.85 o
1 -8 2 185.85 7.27 o
2 -8 2 1742.45 30.72 o
3 -8 2 71.48 3.72 o
4 -8 2 1300.77 27.22 o
5 -8 2 500.81 11.85 o
6 -8 2 95.88 5.61 o
7 -8 2 807.04 16.37 o
8 -8 2 88.03 6.41 o
9 -8 2 132.71 9.24 o
10 -8 2 297.14 13.89 o
-6 -7 2 128.17 13.69 o
-5 -7 2 115.02 9.36 o
-4 -7 2 242.49 9.23 o
-3 -7 2 405.23 10.80 o
-2 -7 2 59.10 4.48 o
-1 -7 2 1358.80 21.91 o
0 -7 2 388.72 8.18 o
1 -7 2 1437.01 39.49 o
2 -7 2 3058.31 37.58 o
3 -7 2 5.50 1.34 o
4 -7 2 2134.05 27.80 o
5 -7 2 269.12 8.01 o
6 -7 2 231.26 7.34 o
7 -7 2 510.94 12.16 o
8 -7 2 12.31 3.77 o
9 -7 2 181.51 10.50 o
10 -7 2 144.47 10.65 o
-7 -6 2 76.60 12.18 o
-6 -6 2 210.72 12.86 o
-5 -6 2 -4.32 4.32 o
-4 -6 2 433.19 11.48 o
-3 -6 2 246.57 8.03 o
-2 -6 2 135.69 6.22 o
-1 -6 2 724.38 13.72 o
0 -6 2 14.13 2.32 o
1 -6 2 1438.75 18.74 o
2 -6 2 168.09 4.45 o
3 -6 2 1420.78 20.23 o
4 -6 2 2193.34 36.96 o
5 -6 2 33.88 6.05 o
6 -6 2 969.67 17.60 o
7 -6 2 637.58 13.93 o
8 -6 2 187.56 9.70 o
9 -6 2 372.61 13.76 o
10 -6 2 -6.16 6.16 o
-8 -5 2 62.85 20.04 o
-7 -5 2 118.74 10.02 o
-6 -5 2 270.11 12.45 o
-5 -5 2 32.32 9.55 o
-4 -5 2 939.12 17.78 o
-3 -5 2 1.60 2.21 o
-2 -5 2 973.23 13.04 o
-1 -5 2 307.23 5.54 o
0 -5 2 4.20 1.04 o
1 -5 2 552.85 9.36 o
2 -5 2 1680.88 23.82 o
3 -5 2 249.12 4.71 o
4 -5 2 2672.90 39.72 o
5 -5 2 187.10 7.14 o
6 -5 2 956.58 17.46 o
7 -5 2 142.08 7.87 o
8 -5 2 413.38 13.53 o
9 -5 2 442.61 15.30 o
10 -5 2 10.32 6.77 o
-8 -4 2 7.35 9.27 o
-7 -4 2 312.31 11.90 o
-6 -4 2 278.12 11.79 o
-5 -4 2 91.54 7.06 o
-4 -4 2 1588.22 20.50 o
-3 -4 2 10.54 1.56 o
-2 -4 2 2561.83 26.96 o
-1 -4 2 191.72 3.99 o
0 -4 2 2760.66 32.24 o
1 -4 2 753.26 10.78 o
2 -4 2 1090.26 14.28 o
3 -4 2 1318.59 16.99 o
4 -4 2 817.32 10.44 o
5 -4 2 1382.47 16.90 o
6 -4 2 1266.39 16.34 o
7 -4 2 26.97 3.29 o
8 -4 2 550.67 12.49 o
9 -4 2 78.80 7.36 o
10 -4 2 12.11 8.33 o
-9 -3 2 88.73 16.55 o
-8 -3 2 156.13 18.69 o
-7 -3 2 550.18 16.92 o
-6 -3 2 -0.51 2.78 o
-5 -3 2 1336.95 18.26 o
-4 -3 2 949.46 12.37 o
-3 -3 2 1028.15 12.47 o
-2 -3 2 5142.98 51.22 o
-1 -3 2 108.38 2.81 o
0 -3 2 6893.70 68.11 o
1 -3 2 997.45 10.98 o
2 -3 2 2707.10 30.14 o
3 -3 2 163.07 2.65 o
4 -3 2 80.09 2.47 o
5 -3 2 640.76 8.59 o
6 -3 2 108.51 5.06 o
7 -3 2 165.13 6.79 o
8 -3 2 705.71 15.27 o
9 -3 2 -3.36 3.97 o
10 -3 2 131.95 13.23 o
-9 -2 2 18.82 8.17 o
-8 -2 2 451.16 27.42 o
-7 -2 2 372.31 11.18 o
-6 -2 2 239.68 7.70 o
-5 -2 2 1053.20 13.74 o
-4 -2 2 127.17 3.55 o
-3 -2 2 4964.33 49.81 o
-2 -2 2 1249.91 13.75 o
-1 -2 2 3895.52 97.92 o
0 -2 2 3841.55 58.02 o
1 -2 2 819.48 10.68 o
2 -2 2 5315.24 73.18 o
3 -2 2 1571.86 15.83 o
4 -2 2 367.79 5.58 o
5 -2 2 1887.45 24.78 o
6 -2 2 13.82 2.75 o
7 -2 2 537.13 15.17 o
8 -2 2 164.42 8.16 o
9 -2 2 182.56 9.33 o
10 -2 2 142.19 15.78 o
-9 -1 2 61.37 7.75 o
-8 -1 2 687.29 16.25 o
-7 -1 2 282.99 10.66 o
-6 -1 2 1047.60 15.21 o
-5 -1 2 1161.11 14.38 o
-4 -1 2 164.86 3.84 o
-3 -1 2 3367.35 39.28 o
-2 -1 2 1204.17 13.04 o
-1 -1 2 16277.39 156.97 o
0 -1 2 6097.03 63.71 o
1 -1 2 7616.29 90.95 o
2 -1 2 9350.30 90.46 o
3 -1 2 42.39 1.98 o
4 -1 2 2863.31 29.92 o
5 -1 2 579.83 10.34 o
6 -1 2 624.80 13.17 o
7 -1 2 262.77 9.08 o
8 -1 2 1.45 4.12 o
9 -1 2 284.65 13.52 o
-10 0 2 53.98 8.31 o
-9 0 2 716.16 19.62 o
-8 0 2 611.50 15.24 o
-7 0 2 439.83 9.91 o
-6 0 2 1846.63 25.63 o
-5 0 2 98.59 3.40 o
-4 0 2 1427.00 16.02 o
-3 0 2 2431.75 31.14 o
-2 0 2 614.57 7.17 o
-1 0 2 2020.99 19.66 o
0 0 2 237.22 3.48 o
1 0 2 2866.48 28.41 o
2 0 2 1385.08 13.95 o
3 0 2 2078.73 23.93 o
4 0 2 1216.34 14.46 o
5 0 2 180.10 6.50 o
6 0 2 714.58 15.51 o
7 0 2 187.20 9.51 o
8 0 2 11.38 5.70 o
9 0 2 156.02 11.32 o
-10 1 2 2.64 5.93 o
-9 1 2 772.39 19.41 o
-8 1 2 173.27 7.09 o
-7 1 2 834.19 14.98 o
-6 1 2 1999.01 26.92 o
-5 1 2 982.10 12.04 o
-4 1 2 2761.08 28.49 o
-3 1 2 75.19 2.20 o
-2 1 2 1207.23 12.44 o
-1 1 2 7409.91 88.37 o
0 1 2 1501.84 19.66 o
1 1 2 1017.72 10.47 o
2 1 2 144.38 3.13 o
3 1 2 201.59 4.70 o
4 1 2 1032.25 13.02 o
5 1 2 15.20 2.40 o
6 1 2 1532.47 25.94 o
7 1 2 159.66 10.14 o
8 1 2 319.75 17.60 o
9 1 2 222.25 16.03 o
-11 2 2 17.91 15.79 o
-10 2 2 15.46 6.00 o
-9 2 2 540.34 13.42 o
-8 2 2 10.45 3.09 o
-7 2 2 1755.82 24.73 o
-6 2 2 1409.80 19.82 o
-5 2 2 1279.84 16.72 o
-4 2 2 4960.71 49.18 o
-3 2 2 361.00 4.93 o
-2 2 2 681.10 7.01 o
-1 2 2 308.36 4.10 o
0 2 2 133.27 2.17 o
1 2 2 3632.28 34.13 o
2 2 2 633.83 8.27 o
3 2 2 2845.66 30.19 o
4 2 2 205.64 4.99 o
5 2 2 25.81 3.25 o
6 2 2 347.04 10.49 o
7 2 2 19.72 5.87 o
8 2 2 317.93 24.75 o
-11 3 2 5.84 8.50 o
-10 3 2 157.42 8.33 o
-9 3 2 252.76 13.50 o
-8 3 2 48.13 3.74 o
-7 3 2 853.54 13.82 o
-6 3 2 254.93 6.38 o
-5 3 2 4165.18 41.87 o
-4 3 2 6364.13 74.39 o
-3 3 2 2024.60 24.75 o
-2 3 2 19183.98 223.81 o
-1 3 2 1243.69 13.83 o
0 3 2 7506.69 76.43 o
1 3 2 1127.70 12.86 o
2 3 2 115.08 3.15 o
3 3 2 2161.07 24.02 o
4 3 2 432.40 8.40 o
5 3 2 806.19 14.63 o
6 3 2 35.30 4.86 o
7 3 2 91.08 11.54 o
-11 4 2 30.86 7.79 o
-10 4 2 507.27 16.71 o
-9 4 2 314.94 8.15 o
-8 4 2 818.00 24.33 o
-7 4 2 1316.92 22.21 o
-6 4 2 181.05 5.78 o
-5 4 2 2158.58 32.28 o
-4 4 2 117.50 3.86 o
-3 4 2 6261.72 61.48 o
-2 4 2 1491.41 16.95 o
-1 4 2 2666.70 27.30 o
0 4 2 7218.13 62.56 o
1 4 2 38.95 1.90 o
2 4 2 2016.99 25.71 o
3 4 2 810.81 12.28 o
4 4 2 199.48 6.07 o
5 4 2 351.65 12.79 o
6 4 2 10.84 6.86 o
7 4 2 300.89 26.42 o
-11 5 2 377.13 16.40 o
-10 5 2 342.98 13.78 o
-9 5 2 60.71 6.40 o
-8 5 2 975.18 18.54 o
-7 5 2 402.83 10.91 o
-6 5 2 1348.58 21.57 o
-5 5 2 2277.67 32.38 o
-4 5 2 239.53 4.76 o
-3 5 2 2170.09 22.67 o
-2 5 2 417.82 6.66 o
-1 5 2 883.83 10.41 o
0 5 2 1991.66 18.95 o
1 5 2 267.68 6.68 o
2 5 2 1566.55 26.07 o
3 5 2 436.78 10.72 o
4 5 2 912.16 27.11 o
5 5 2 291.40 15.60 o
6 5 2 41.60 11.54 o
7 5 2 181.87 20.95 o
-11 6 2 439.20 16.89 o
-10 6 2 116.56 9.11 o
-9 6 2 421.86 17.86 o
-8 6 2 1155.83 20.87 o
-7 6 2 -0.15 2.20 o
-6 6 2 1402.86 19.36 o
-5 6 2 1023.57 18.59 o
-4 6 2 641.37 14.68 o
-3 6 2 3792.26 46.06 o
-2 6 2 73.77 2.58 o
-1 6 2 2589.41 29.94 o
0 6 2 833.48 12.49 o
1 6 2 1526.61 24.12 o
2 6 2 861.27 16.32 o
3 6 2 65.66 6.01 o
4 6 2 692.93 18.30 o
5 6 2 56.58 18.52 o
6 6 2 161.83 18.82 o
-11 7 2 413.01 15.89 o
-10 7 2 1.04 10.42 o
-9 7 2 916.58 21.34 o
-8 7 2 435.15 12.71 o
-7 7 2 750.19 14.45 o
-6 7 2 3164.70 39.45 o
-5 7 2 21.87 1.66 o
-4 7 2 3864.80 43.25 o
-3 7 2 399.04 6.59 o
-2 7 2 1548.85 21.45 o
-1 7 2 480.56 10.85 o
0 7 2 19.94 2.52 o
1 7 2 635.55 12.95 o
2 7 2 112.61 7.55 o
3 7 2 195.88 10.36 o
4 7 2 311.98 18.98 o
5 7 2 6.06 8.13 o
-11 8 2 160.89 23.53 o
-10 8 2 45.45 6.59 o
-9 8 2 541.22 16.78 o
-8 8 2 -2.87 2.87 o
-7 8 2 767.21 14.69 o
-6 8 2 694.71 13.23 o
-5 8 2 80.39 4.59 o
-4 8 2 2600.22 28.02 o
-3 8 2 418.50 8.40 o
-2 8 2 2024.17 31.50 o
-1 8 2 388.23 18.42 o
0 8 2 74.19 10.93 o
1 8 2 317.92 10.23 o
2 8 2 48.78 5.84 o
3 8 2 108.71 8.68 o
4 8 2 315.78 17.56 o
-11 9 2 45.85 16.09 o
-10 9 2 31.12 5.66 o
-9 9 2 313.42 12.33 o
-8 9 2 17.49 3.33 o
-7 9 2 873.23 17.43 o
-6 9 2 31.88 3.66 o
-5 9 2 1033.09 15.10 o
-4 9 2 1563.20 25.59 o
-3 9 2 -0.17 3.41 o
-2 9 2 4393.03 87.62 o
-1 9 2 633.03 38.41 o
0 9 2 2012.62 46.94 o
1 9 2 779.58 24.88 o
2 9 2 312.35 16.56 o
3 9 2 186.28 13.85 o
-10 10 2 349.96 12.75 o
-9 10 2 104.62 6.94 o
-8 10 2 43.39 3.96 o
-7 10 2 522.09 12.45 o
-6 10 2 9.76 3.76 o
-5 10 2 971.85 18.76 o
-4 10 2 40.60 9.50 o
-3 10 2 596.03 18.08 o
-2 10 2 916.14 25.44 o
-1 10 2 23.51 8.20 o
0 10 2 1561.42 39.79 o
1 10 2 468.88 29.45 o
2 10 2 771.00 27.65 o
3 10 2 398.05 28.24 o
-10 11 2 479.63 25.67 o
-9 11 2 5.89 5.91 o
-8 11 2 946.03 30.38 o
-7 11 2 140.23 9.05 o
-6 11 2 404.89 19.32 o
-5 11 2 793.52 28.23 o
-4 11 2 5.47 4.35 o
-3 11 2 808.90 26.26 o
-2 11 2 126.05 10.21 o
-1 11 2 490.95 27.02 o
0 11 2 434.92 19.30 o
1 11 2 3.27 16.40 o
-9 12 2 106.88 18.82 o
-7 12 2 -3.64 10.02 o
-6 12 2 508.08 27.58 o
-5 12 2 105.26 7.60 o
-4 12 2 279.70 12.54 o
-3 12 2 228.00 12.65 o
-2 12 2 -4.29 5.47 o
-1 12 2 427.78 19.10 o
-6 13 2 396.65 13.41 o
-5 13 2 77.23 16.40 o
-4 13 2 342.28 15.19 o
-3 13 2 218.61 26.72 o
1 -13 3 279.94 30.06 o
2 -13 3 123.14 11.08 o
3 -13 3 180.34 14.27 o
4 -13 3 490.36 21.25 o
5 -13 3 -7.21 10.02 o
6 -13 3 238.78 11.56 o
7 -13 3 82.91 7.32 o
-1 -12 3 120.84 16.09 o
0 -12 3 55.44 8.50 o
1 -12 3 277.36 14.44 o
2 -12 3 0.22 4.83 o
3 -12 3 305.46 11.49 o
4 -12 3 215.80 10.94 o
5 -12 3 244.01 21.56 o
6 -12 3 327.02 12.81 o
7 -12 3 3.51 4.97 o
8 -12 3 348.68 13.14 o
-2 -11 3 372.85 23.68 o
-1 -11 3 48.95 19.13 o
0 -11 3 382.25 16.67 o
1 -11 3 304.25 14.67 o
2 -11 3 139.68 8.30 o
3 -11 3 480.76 13.62 o
4 -11 3 58.95 9.26 o
5 -11 3 475.17 26.11 o
6 -11 3 264.16 22.16 o
7 -11 3 21.42 4.67 o
8 -11 3 308.80 12.29 o
-3 -10 3 121.10 8.66 o
-2 -10 3 241.66 13.45 o
-1 -10 3 0.00 4.41 o
0 -10 3 478.61 20.02 o
1 -10 3 370.55 12.05 o
2 -10 3 565.93 14.73 o
3 -10 3 521.41 13.59 o
4 -10 3 119.81 6.66 o
5 -10 3 772.45 20.60 o
6 -10 3 -1.63 3.50 o
7 -10 3 382.40 11.01 o
8 -10 3 242.42 13.84 o
9 -10 3 33.39 6.12 o
-4 -9 3 41.36 7.03 o
-3 -9 3 892.63 22.94 o
-2 -9 3 70.81 5.50 o
-1 -9 3 763.13 14.99 o
0 -9 3 693.82 17.15 o
1 -9 3 0.15 2.89 o
2 -9 3 1182.03 23.52 o
3 -9 3 285.51 9.06 o
4 -9 3 388.40 10.62 o
5 -9 3 847.54 18.21 o
6 -9 3 133.89 7.19 o
7 -9 3 451.95 11.79 o
8 -9 3 5.67 3.78 o
9 -9 3 250.47 10.95 o
-5 -8 3 22.68 17.15 o
-4 -8 3 216.25 9.75 o
-3 -8 3 600.25 14.19 o
-2 -8 3 123.47 7.00 o
-1 -8 3 1652.69 30.81 o
0 -8 3 17.26 2.04 o
1 -8 3 531.22 15.68 o
2 -8 3 919.38 18.67 o
3 -8 3 2.32 2.11 o
4 -8 3 502.79 10.33 o
5 -8 3 313.37 13.26 o
6 -8 3 171.08 7.78 o
7 -8 3 307.15 9.65 o
8 -8 3 -3.43 3.70 o
9 -8 3 227.73 11.78 o
10 -8 3 6.38 14.88 o
-6 -7 3 294.87 19.96 o
-5 -7 3 -2.80 5.00 o
-4 -7 3 349.05 10.83 o
-3 -7 3 296.02 9.31 o
-2 -7 3 32.80 4.14 o
-1 -7 3 1897.09 28.99 o
0 -7 3 1.40 1.26 o
1 -7 3 2071.15 35.54 o
2 -7 3 900.66 21.78 o
3 -7 3 874.43 14.70 o
4 -7 3 1635.57 24.78 o
5 -7 3 79.91 5.30 o
6 -7 3 1003.68 18.59 o
7 -7 3 200.71 10.45 o
8 -7 3 40.20 7.14 o
9 -7 3 254.11 12.75 o
10 -7 3 4.49 6.30 o
-7 -6 3 307.23 16.00 o
-6 -6 3 126.59 10.24 o
-5 -6 3 177.05 10.78 o
-4 -6 3 810.87 16.78 o
-3 -6 3 3.47 2.85 o
-2 -6 3 1045.70 21.32 o
-1 -6 3 1626.55 26.12 o
0 -6 3 239.59 7.08 o
1 -6 3 1980.82 27.66 o
2 -6 3 607.38 10.73 o
3 -6 3 1225.10 16.71 o
4 -6 3 707.48 17.09 o
5 -6 3 38.53 4.01 o
6 -6 3 1474.27 25.82 o
7 -6 3 63.10 5.25 o
8 -6 3 500.66 15.33 o
9 -6 3 261.48 17.98 o
10 -6 3 59.76 8.47 o
-8 -5 3 21.32 11.27 o
-7 -5 3 337.97 15.25 o
-6 -5 3 66.62 7.65 o
-5 -5 3 569.49 16.21 o
-4 -5 3 796.24 15.90 o
-3 -5 3 277.03 7.93 o
-2 -5 3 1773.41 26.39 o
-1 -5 3 231.24 5.33 o
0 -5 3 4392.36 44.06 o
1 -5 3 2751.44 27.88 o
2 -5 3 127.68 3.40 o
3 -5 3 5542.92 70.58 o
4 -5 3 1078.93 14.98 o
5 -5 3 782.93 16.68 o
6 -5 3 1915.66 35.93 o
7 -5 3 88.98 6.17 o
8 -5 3 662.01 18.13 o
9 -5 3 52.75 7.46 o
10 -5 3 214.95 13.67 o
-8 -4 3 400.05 21.57 o
-7 -4 3 249.27 11.10 o
-6 -4 3 134.19 7.98 o
-5 -4 3 1154.23 18.67 o
-4 -4 3 457.69 9.53 o
-3 -4 3 1841.68 20.68 o
-2 -4 3 2682.78 49.15 o
-1 -4 3 15.79 1.36 o
0 -4 3 6722.62 87.28 o
1 -4 3 198.70 3.25 o
2 -4 3 4615.82 58.49 o
3 -4 3 1957.83 22.11 o
4 -4 3 1576.99 18.66 o
5 -4 3 1205.75 15.57 o
6 -4 3 328.32 7.59 o
7 -4 3 423.23 10.35 o
8 -4 3 642.91 14.25 o
9 -4 3 4.34 4.17 o
10 -4 3 226.11 10.81 o
-9 -3 3 -2.44 7.35 o
-8 -3 3 566.84 18.30 o
-7 -3 3 119.04 9.21 o
-6 -3 3 1155.94 21.87 o
-5 -3 3 335.92 7.36 o
-4 -3 3 332.22 6.11 o
-3 -3 3 3439.54 35.65 o
-2 -3 3 318.67 4.99 o
-1 -3 3 4382.21 43.54 o
0 -3 3 9446.52 91.49 o
1 -3 3 348.22 4.72 o
2 -3 3 7539.72 73.36 o
3 -3 3 1850.74 19.69 o
4 -3 3 3484.19 35.97 o
5 -3 3 981.26 15.12 o
6 -3 3 77.35 4.86 o
7 -3 3 721.21 15.01 o
8 -3 3 116.45 12.97 o
9 -3 3 121.83 8.35 o
10 -3 3 319.53 19.62 o
-9 -2 3 10.62 6.82 o
-8 -2 3 270.20 17.31 o
-7 -2 3 106.48 6.90 o
-6 -2 3 1168.57 16.91 o
-5 -2 3 720.98 10.46 o
-4 -2 3 1286.20 15.32 o
-3 -2 3 1913.37 20.73 o
-2 -2 3 930.03 12.93 o
-1 -2 3 1841.88 20.20 o
0 -2 3 1195.72 12.83 o
1 -2 3 4822.17 52.57 o
2 -2 3 2945.99 32.34 o
3 -2 3 25.78 1.80 o
4 -2 3 5857.72 63.59 o
5 -2 3 666.91 16.26 o
6 -2 3 1485.46 24.47 o
7 -2 3 873.99 17.53 o
8 -2 3 104.78 7.10 o
9 -2 3 263.97 11.49 o
-10 -1 3 2.05 8.52 o
-9 -1 3 183.07 11.57 o
-8 -1 3 167.68 8.94 o
-7 -1 3 64.47 5.42 o
-6 -1 3 1162.04 16.39 o
-5 -1 3 2.05 1.45 o
-4 -1 3 1763.09 19.61 o
-3 -1 3 2472.31 25.84 o
-2 -1 3 3116.36 31.42 o
-1 -1 3 2819.01 28.33 o
0 -1 3 200.95 3.22 o
1 -1 3 5866.67 57.39 o
2 -1 3 884.97 12.09 o
3 -1 3 1310.79 13.79 o
4 -1 3 1534.70 32.96 o
5 -1 3 71.15 4.63 o
6 -1 3 717.58 14.82 o
7 -1 3 276.10 10.21 o
8 -1 3 264.74 10.58 o
9 -1 3 194.27 12.82 o
-10 0 3 -1.23 6.45 o
-9 0 3 430.22 18.31 o
-8 0 3 0.88 3.18 o
-7 0 3 137.04 6.13 o
-6 0 3 451.22 9.32 o
-5 0 3 115.57 3.44 o
-4 0 3 1241.41 14.32 o
-3 0 3 131.96 2.95 o
-2 0 3 2301.83 23.55 o
-1 0 3 1397.11 14.67 o
0 0 3 17.26 1.18 o
1 0 3 4573.46 56.01 o
2 0 3 226.51 5.79 o
3 0 3 437.80 6.51 o
4 0 3 2057.96 22.83 o
5 0 3 163.98 5.75 o
6 0 3 868.02 17.24 o
7 0 3 45.10 5.20 o
8 0 3 333.38 14.00 o
9 0 3 161.06 18.37 o
-10 1 3 75.63 6.95 o
-9 1 3 580.86 13.81 o
-8 1 3 35.88 4.17 o
-7 1 3 910.01 15.34 o
-6 1 3 761.50 12.73 o
-5 1 3 469.52 6.97 o
-4 1 3 1368.90 15.33 o
-3 1 3 2.87 0.94 o
-2 1 3 6783.96 61.85 o
-1 1 3 705.23 9.48 o
0 1 3 863.93 9.72 o
1 1 3 3420.74 30.35 o
2 1 3 7.97 1.24 o
3 1 3 2484.12 26.68 o
4 1 3 658.70 9.62 o
5 1 3 482.82 9.23 o
6 1 3 681.76 17.69 o
7 1 3 4.70 4.63 o
8 1 3 499.88 21.53 o
-11 2 3 -8.95 8.95 o
-10 2 3 324.02 15.91 o
-9 2 3 256.84 8.65 o
-8 2 3 158.09 7.95 o
-7 2 3 869.77 14.44 o
-6 2 3 682.29 11.50 o
-5 2 3 2771.27 27.12 o
-4 2 3 3341.50 33.89 o
-3 2 3 4.39 0.92 o
-2 2 3 7425.06 67.55 o
-1 2 3 643.80 6.95 o
0 2 3 2997.92 33.00 o
1 2 3 1651.39 22.52 o
2 2 3 1468.52 16.61 o
3 2 3 2068.90 23.07 o
4 2 3 7.58 1.95 o
5 2 3 1970.18 28.03 o
6 2 3 76.09 8.12 o
7 2 3 121.07 11.88 o
8 2 3 178.89 31.58 o
-11 3 3 56.49 6.19 o
-10 3 3 671.21 34.18 o
-9 3 3 74.81 5.07 o
-8 3 3 1008.34 16.45 o
-7 3 3 738.75 12.56 o
-6 3 3 106.08 3.33 o
-5 3 3 2066.94 21.95 o
-4 3 3 1010.76 18.13 o
-3 3 3 4057.14 44.05 o
-2 3 3 11546.72 111.30 o
-1 3 3 6195.29 76.65 o
0 3 3 6839.41 79.94 o
1 3 3 1.09 0.90 o
2 3 3 4017.40 41.43 o
3 3 3 439.09 9.44 o
4 3 3 541.24 9.88 o
5 3 3 1391.31 24.72 o
6 3 3 12.58 5.17 o
7 3 3 778.99 40.23 o
-11 4 3 239.16 14.24 o
-10 4 3 487.39 16.52 o
-9 4 3 252.29 11.17 o
-8 4 3 1678.34 30.50 o
-7 4 3 15.74 3.04 o
-6 4 3 1875.03 28.56 o
-5 4 3 2783.88 37.26 o
-4 4 3 859.40 11.32 o
-3 4 3 405.53 6.99 o
-2 4 3 1166.95 15.35 o
-1 4 3 438.97 6.80 o
0 4 3 1792.56 19.51 o
1 4 3 358.13 6.23 o
2 4 3 1992.68 24.26 o
3 4 3 4.47 2.65 o
4 4 3 653.49 14.52 o
5 4 3 626.06 17.72 o
6 4 3 138.94 12.61 o
-11 5 3 204.61 13.13 o
-10 5 3 50.58 7.07 o
-9 5 3 167.35 9.50 o
-8 5 3 592.86 13.42 o
-7 5 3 368.48 9.42 o
-6 5 3 1055.71 18.01 o
-5 5 3 80.71 3.30 o
-4 5 3 2506.12 28.60 o
-3 5 3 2784.49 34.03 o
-2 5 3 35.54 1.74 o
-1 5 3 2794.63 27.05 o
0 5 3 814.64 10.96 o
1 5 3 44.80 3.62 o
2 5 3 2030.29 31.39 o
3 5 3 75.23 5.46 o
4 5 3 839.14 28.32 o
5 5 3 43.26 8.30 o
6 5 3 409.59 27.63 o
-11 6 3 329.56 15.02 o
-10 6 3 -4.48 4.48 o
-9 6 3 654.39 19.98 o
-8 6 3 500.53 12.00 o
-7 6 3 434.31 13.18 o
-6 6 3 801.74 14.48 o
-5 6 3 5.13 1.28 o
-4 6 3 1635.65 19.75 o
-3 6 3 126.81 3.14 o
-2 6 3 867.23 11.24 o
-1 6 3 2901.83 33.07 o
0 6 3 369.03 9.33 o
1 6 3 1587.60 25.42 o
2 6 3 157.01 8.24 o
3 6 3 192.88 8.60 o
4 6 3 278.06 15.17 o
5 6 3 0.02 7.81 o
6 6 3 187.34 21.86 o
-11 7 3 120.29 10.18 o
-10 7 3 187.05 10.53 o
-9 7 3 526.20 15.01 o
-8 7 3 31.87 4.07 o
-7 7 3 1232.62 21.10 o
-6 7 3 283.84 5.77 o
-5 7 3 375.15 7.82 o
-4 7 3 1202.17 15.12 o
-3 7 3 40.81 3.48 o
-2 7 3 616.02 12.70 o
-1 7 3 174.69 6.67 o
0 7 3 226.64 6.86 o
1 7 3 448.97 10.84 o
2 7 3 44.97 5.65 o
3 7 3 481.79 14.97 o
4 7 3 173.58 13.50 o
5 7 3 24.09 9.66 o
-11 8 3 2.43 5.91 o
-10 8 3 247.01 11.71 o
-9 8 3 267.96 17.92 o
-8 8 3 13.27 3.13 o
-7 8 3 1243.58 19.34 o
-6 8 3 191.23 5.44 o
-5 8 3 484.42 15.53 o
-4 8 3 1029.75 20.52 o
-3 8 3 16.25 3.07 o
-2 8 3 1041.91 19.27 o
-1 8 3 430.92 12.59 o
0 8 3 1157.11 30.38 o
1 8 3 373.92 11.52 o
2 8 3 150.94 9.13 o
3 8 3 465.08 15.61 o
4 8 3 3.01 8.13 o
-11 9 3 90.48 17.61 o
-10 9 3 325.06 12.64 o
-9 9 3 -1.71 4.89 o
-8 9 3 201.44 6.81 o
-7 9 3 651.99 12.82 o
-6 9 3 18.66 2.73 o
-5 9 3 1161.48 36.47 o
-4 9 3 360.87 9.56 o
-3 9 3 480.14 11.71 o
-2 9 3 459.59 13.89 o
-1 9 3 36.80 5.78 o
0 9 3 905.62 27.06 o
1 9 3 193.57 13.31 o
2 9 3 724.18 18.93 o
3 9 3 186.75 11.49 o
-10 10 3 324.08 11.32 o
-9 10 3 152.98 10.12 o
-8 10 3 583.47 13.37 o
-7 10 3 87.36 8.34 o
-6 10 3 437.25 10.63 o
-5 10 3 1072.42 20.00 o
-4 10 3 17.58 3.50 o
-3 10 3 1367.57 28.77 o
-2 10 3 136.79 10.17 o
-1 10 3 107.36 10.33 o
0 10 3 196.58 24.44 o
1 10 3 56.05 9.92 o
2 10 3 195.39 12.20 o
-10 11 3 157.31 9.37 o
-9 11 3 292.48 19.09 o
-8 11 3 400.13 16.61 o
-7 11 3 227.00 13.53 o
-6 11 3 1022.92 22.04 o
-5 11 3 13.53 3.64 o
-4 11 3 500.47 19.99 o
-3 11 3 472.31 20.34 o
-2 11 3 10.22 5.16 o
-1 11 3 381.01 26.11 o
0 11 3 119.71 12.02 o
-9 12 3 257.78 27.33 o
-7 12 3 2.73 8.16 o
-6 12 3 345.88 16.26 o
-5 12 3 -1.43 7.64 o
-4 12 3 290.67 13.87 o
-3 12 3 107.56 10.07 o
-2 12 3 166.41 12.91 o
-7 13 3 205.82 19.13 o
-6 13 3 390.68 21.71 o
-5 13 3 42.68 6.42 o
-4 13 3 442.91 18.48 o
1 -13 4 430.85 33.40 o
2 -13 4 5.26 6.36 o
3 -13 4 228.33 16.09 o
4 -13 4 13.69 6.29 o
5 -13 4 102.06 9.41 o
6 -13 4 157.68 34.77 o
-1 -12 4 11.23 14.27 o
0 -12 4 547.68 21.35 o
1 -12 4 167.69 11.18 o
2 -12 4 156.42 11.75 o
3 -12 4 436.78 32.03 o
4 -12 4 7.35 5.00 o
5 -12 4 156.51 15.18 o
6 -12 4 84.33 7.82 o
7 -12 4 77.86 8.16 o
-3 -11 4 153.03 20.65 o
-2 -11 4 56.32 10.02 o
-1 -11 4 59.55 9.09 o
0 -11 4 440.05 14.80 o
1 -11 4 8.38 7.13 o
2 -11 4 609.62 16.52 o
3 -11 4 285.78 10.68 o
4 -11 4 237.13 11.56 o
5 -11 4 519.37 24.29 o
6 -11 4 45.11 6.21 o
7 -11 4 270.07 14.35 o
8 -11 4 188.26 11.33 o
-3 -10 4 437.03 14.54 o
-2 -10 4 11.59 4.06 o
-1 -10 4 193.88 10.67 o
0 -10 4 430.53 14.02 o
1 -10 4 49.92 5.97 o
2 -10 4 794.61 23.18 o
3 -10 4 58.89 8.73 o
4 -10 4 847.94 22.68 o
5 -10 4 226.74 10.89 o
6 -10 4 146.41 9.45 o
7 -10 4 418.31 13.56 o
8 -10 4 -1.79 4.28 o
9 -10 4 222.56 26.11 o
-4 -9 4 343.10 15.07 o
-3 -9 4 642.92 15.44 o
-2 -9 4 160.57 9.22 o
-1 -9 4 1076.10 19.41 o
0 -9 4 1.61 3.50 o
1 -9 4 1051.34 26.79 o
2 -9 4 78.60 5.89 o
3 -9 4 150.23 6.96 o
4 -9 4 661.72 18.74 o
5 -9 4 16.53 4.18 o
6 -9 4 363.87 11.57 o
7 -9 4 303.88 21.11 o
8 -9 4 32.12 8.89 o
9 -9 4 233.27 11.36 o
-5 -8 4 73.81 8.55 o
-4 -8 4 782.76 17.73 o
-3 -8 4 99.65 6.83 o
-2 -8 4 328.36 11.17 o
-1 -8 4 580.23 16.22 o
0 -8 4 39.77 2.98 o
1 -8 4 1050.78 21.50 o
2 -8 4 64.87 4.82 o
3 -8 4 266.41 8.46 o
4 -8 4 254.30 8.32 o
5 -8 4 24.82 3.71 o
6 -8 4 321.99 10.88 o
7 -8 4 92.47 6.46 o
8 -8 4 160.21 8.85 o
9 -8 4 321.18 20.98 o
-7 -7 4 28.84 17.61 o
-6 -7 4 193.40 15.39 o
-5 -7 4 133.86 10.22 o
-4 -7 4 840.69 17.81 o
-3 -7 4 8.29 3.41 o
-2 -7 4 1610.52 26.24 o
-1 -7 4 717.19 14.77 o
0 -7 4 133.35 4.14 o
1 -7 4 2716.31 50.26 o
2 -7 4 63.95 4.67 o
3 -7 4 1643.81 25.00 o
4 -7 4 379.15 10.21 o
5 -7 4 504.30 12.94 o
6 -7 4 298.72 10.36 o
7 -7 4 4.44 3.43 o
8 -7 4 272.16 10.79 o
9 -7 4 63.93 7.90 o
-7 -6 4 207.50 13.17 o
-6 -6 4 51.94 7.64 o
-5 -6 4 333.53 26.94 o
-4 -6 4 390.50 11.00 o
-3 -6 4 143.15 6.83 o
-2 -6 4 2005.66 31.92 o
-1 -6 4 4.12 2.07 o
0 -6 4 1394.51 18.97 o
1 -6 4 2319.35 27.50 o
2 -6 4 106.58 4.15 o
3 -6 4 2120.00 34.75 o
4 -6 4 451.92 14.99 o
5 -6 4 860.11 31.47 o
6 -6 4 487.80 11.89 o
7 -6 4 197.95 8.80 o
8 -6 4 359.99 15.07 o
9 -6 4 3.05 5.14 o
-8 -5 4 219.36 18.44 o
-7 -5 4 533.09 18.25 o
-6 -5 4 -4.89 4.89 o
-5 -5 4 1639.58 42.08 o
-4 -5 4 316.04 9.69 o
-3 -5 4 1100.05 19.25 o
-2 -5 4 2108.89 28.00 o
-1 -5 4 843.32 17.09 o
0 -5 4 1850.68 41.97 o
1 -5 4 85.74 2.32 o
2 -5 4 2260.22 30.99 o
3 -5 4 1610.81 17.29 o
4 -5 4 240.51 5.70 o
5 -5 4 1755.02 26.37 o
6 -5 4 67.88 6.84 o
7 -5 4 332.07 10.48 o
8 -5 4 176.92 14.93 o
9 -5 4 31.46 5.57 o
-8 -4 4 824.56 24.08 o
-7 -4 4 92.61 7.37 o
-6 -4 4 724.41 16.32 o
-5 -4 4 1333.07 23.47 o
-4 -4 4 254.74 7.05 o
-3 -4 4 2415.95 31.63 o
-2 -4 4 1506.38 19.35 o
-1 -4 4 3123.87 32.35 o
0 -4 4 4341.33 67.97 o
1 -4 4 7.03 0.95 o
2 -4 4 3414.17 34.51 o
3 -4 4 293.63 9.41 o
4 -4 4 654.74 10.37 o
5 -4 4 680.80 11.75 o
6 -4 4 49.62 4.69 o
7 -4 4 399.86 13.33 o
8 -4 4 35.69 4.58 o
9 -4 4 39.56 5.44 o
10 -4 4 102.32 17.91 o
-9 -3 4 62.29 9.43 o
-8 -3 4 557.31 18.36 o
-7 -3 4 -1.61 5.75 o
-6 -3 4 1146.79 21.28 o
-5 -3 4 1038.93 15.16 o
-4 -3 4 1516.35 17.96 o
-3 -3 4 1985.48 23.36 o
-2 -3 4 51.76 2.16 o
-1 -3 4 5366.00 53.26 o
0 -3 4 260.70 4.22 o
1 -3 4 3029.21 47.00 o
2 -3 4 3965.15 39.77 o
3 -3 4 1.66 1.11 o
4 -3 4 2428.35 34.97 o
5 -3 4 908.32 16.59 o
6 -3 4 552.13 12.30 o
7 -3 4 564.87 18.10 o
8 -3 4 44.70 8.40 o
9 -3 4 133.01 8.55 o
-9 -2 4 202.29 13.02 o
-8 -2 4 206.67 12.12 o
-7 -2 4 186.46 9.02 o
-6 -2 4 1187.01 17.08 o
-5 -2 4 277.81 5.90 o
-4 -2 4 5494.40 63.18 o
-3 -2 4 3277.95 31.65 o
-2 -2 4 1709.27 18.51 o
-1 -2 4 7647.37 74.80 o
0 -2 4 9.60 1.16 o
1 -2 4 1224.94 14.43 o
2 -2 4 1202.89 31.05 o
3 -2 4 500.07 7.25 o
4 -2 4 1219.44 16.15 o
5 -2 4 49.31 3.65 o
6 -2 4 821.52 16.33 o
7 -2 4 499.49 12.83 o
8 -2 4 237.25 14.68 o
9 -2 4 152.29 16.43 o
-10 -1 4 8.29 8.36 o
-9 -1 4 444.10 23.45 o
-8 -1 4 20.09 4.54 o
-7 -1 4 1093.25 18.22 o
-6 -1 4 20.02 2.70 o
-5 -1 4 146.77 4.50 o
-4 -1 4 1861.22 20.65 o
-3 -1 4 23.50 1.57 o
-2 -1 4 4487.57 48.46 o
-1 -1 4 8215.55 152.22 o
0 -1 4 2394.87 24.65 o
1 -1 4 7861.01 76.89 o
2 -1 4 453.19 5.77 o
3 -1 4 1401.78 16.50 o
4 -1 4 1041.24 14.47 o
5 -1 4 3.22 2.57 o
6 -1 4 566.63 13.16 o
7 -1 4 252.09 9.84 o
8 -1 4 194.43 18.58 o
9 -1 4 280.04 20.31 o
-10 0 4 170.38 13.34 o
-9 0 4 185.81 16.52 o
-8 0 4 4.66 3.22 o
-7 0 4 1636.66 27.29 o
-6 0 4 67.91 4.17 o
-5 0 4 1100.08 13.73 o
-4 0 4 1776.45 21.25 o
-3 0 4 26.81 1.58 o
-2 0 4 4129.47 41.31 o
-1 0 4 2568.24 26.27 o
0 0 4 6210.28 103.38 o
1 0 4 4005.05 49.99 o
2 0 4 132.33 2.74 o
3 0 4 4083.51 39.22 o
4 0 4 420.05 8.98 o
5 0 4 889.73 16.98 o
6 0 4 788.41 16.55 o
7 0 4 6.44 5.02 o
8 0 4 490.38 34.92 o
-10 1 4 333.85 12.04 o
-9 1 4 107.33 10.16 o
-8 1 4 290.17 8.61 o
-7 1 4 1321.99 20.25 o
-6 1 4 176.80 7.66 o
-5 1 4 3449.83 38.91 o
-4 1 4 775.50 9.83 o
-3 1 4 6289.02 58.11 o
-2 1 4 1573.25 16.83 o
-1 1 4 28.33 1.52 o
0 1 4 5687.44 56.24 o
1 1 4 845.38 9.48 o
2 1 4 2048.87 22.31 o
3 1 4 1653.65 19.07 o
4 1 4 1.58 1.88 o
5 1 4 1252.67 19.74 o
6 1 4 213.01 10.48 o
7 1 4 257.49 15.60 o
8 1 4 352.14 19.93 o
-11 2 4 5.59 8.46 o
-10 2 4 311.98 11.08 o
-9 2 4 3.88 3.47 o
-8 2 4 321.54 9.81 o
-7 2 4 859.90 17.34 o
-6 2 4 1134.55 16.93 o
-5 2 4 1716.71 19.08 o
-4 2 4 16.73 1.31 o
-3 2 4 6919.81 70.01 o
-2 2 4 2848.21 29.04 o
-1 2 4 4196.32 39.11 o
0 2 4 8392.49 82.12 o
1 2 4 128.67 3.24 o
2 2 4 4326.11 44.36 o
3 2 4 560.79 8.65 o
4 2 4 1146.52 17.97 o
5 2 4 678.14 17.64 o
6 2 4 32.54 19.74 o
7 2 4 348.14 18.67 o
8 2 4 83.80 23.53 o
-11 3 4 114.63 11.83 o
-10 3 4 433.50 12.01 o
-9 3 4 257.57 10.61 o
-8 3 4 964.99 16.08 o
-7 3 4 18.54 2.56 o
-6 3 4 1553.63 19.18 o
-5 3 4 591.76 7.77 o
-4 3 4 1220.02 12.87 o
-3 3 4 2478.81 24.01 o
-2 3 4 1539.07 17.87 o
-1 3 4 2628.72 33.66 o
0 3 4 1059.77 16.74 o
1 3 4 2725.57 34.75 o
2 3 4 2451.87 28.99 o
3 3 4 152.44 6.71 o
4 3 4 794.29 16.38 o
5 3 4 184.74 10.20 o
6 3 4 136.76 13.41 o
7 3 4 210.11 26.11 o
-11 4 4 77.78 11.30 o
-10 4 4 10.61 5.94 o
-9 4 4 214.79 9.28 o
-8 4 4 288.55 9.34 o
-7 4 4 131.02 6.28 o
-6 4 4 2617.36 38.27 o
-5 4 4 55.49 2.80 o
-4 4 4 1730.16 23.08 o
-3 4 4 1094.61 17.07 o
-2 4 4 782.80 11.35 o
-1 4 4 579.18 7.72 o
0 4 4 2.21 1.23 o
1 4 4 132.28 4.36 o
2 4 4 1045.26 18.66 o
3 4 4 102.49 6.20 o
4 4 4 1323.55 27.98 o
5 4 4 0.95 5.61 o
6 4 4 284.23 17.59 o
-11 5 4 91.54 9.45 o
-10 5 4 -2.00 4.79 o
-9 5 4 332.01 10.70 o
-8 5 4 119.75 9.07 o
-7 5 4 38.95 3.83 o
-6 5 4 871.50 15.73 o
-5 5 4 19.25 1.92 o
-4 5 4 1282.40 16.23 o
-3 5 4 30.47 2.15 o
-2 5 4 1974.67 27.47 o
-1 5 4 612.03 9.84 o
0 5 4 323.43 13.20 o
1 5 4 1140.65 19.73 o
2 5 4 5.78 2.78 o
3 5 4 237.95 10.87 o
4 5 4 351.33 13.33 o
5 5 4 21.25 9.11 o
6 5 4 404.43 28.24 o
-11 6 4 196.15 12.44 o
-10 6 4 259.52 17.98 o
-9 6 4 557.85 13.88 o
-8 6 4 79.64 7.23 o
-7 6 4 916.80 17.09 o
-6 6 4 835.08 13.86 o
-5 6 4 704.64 11.88 o
-4 6 4 1604.77 21.37 o
-3 6 4 203.63 4.78 o
-2 6 4 1647.45 29.88 o
-1 6 4 226.80 5.76 o
0 6 4 746.41 13.10 o
1 6 4 248.03 7.87 o
2 6 4 88.77 6.71 o
3 6 4 336.57 10.92 o
4 6 4 -6.16 6.16 o
5 6 4 34.01 10.93 o
-11 7 4 42.54 7.47 o
-10 7 4 272.68 12.23 o
-9 7 4 525.29 13.30 o
-8 7 4 229.13 8.01 o
-7 7 4 431.73 9.53 o
-6 7 4 10.86 2.25 o
-5 7 4 1505.36 21.55 o
-4 7 4 562.29 13.28 o
-3 7 4 887.22 18.79 o
-2 7 4 1427.86 24.22 o
-1 7 4 57.78 3.45 o
0 7 4 611.62 12.77 o
1 7 4 522.84 12.32 o
2 7 4 101.75 7.40 o
3 7 4 396.97 16.57 o
4 7 4 -5.10 6.94 o
-11 8 4 40.40 8.87 o
-10 8 4 567.47 19.47 o
-9 8 4 174.73 7.58 o
-8 8 4 693.44 18.46 o
-7 8 4 744.37 13.54 o
-6 8 4 55.79 4.03 o
-5 8 4 1234.92 26.71 o
-4 8 4 53.52 4.79 o
-3 8 4 1033.36 19.33 o
-2 8 4 808.19 16.74 o
-1 8 4 569.68 13.91 o
0 8 4 1096.05 19.63 o
1 8 4 9.04 3.82 o
2 8 4 538.30 16.01 o
3 8 4 247.37 15.16 o
4 8 4 65.28 20.04 o
-11 9 4 429.02 30.36 o
-10 9 4 395.61 12.47 o
-9 9 4 57.52 4.81 o
-8 9 4 969.11 19.19 o
-7 9 4 35.12 4.01 o
-6 9 4 320.05 13.73 o
-5 9 4 789.03 22.95 o
-4 9 4 30.75 6.44 o
-3 9 4 1144.68 21.60 o
-2 9 4 69.54 5.77 o
-1 9 4 767.97 23.78 o
0 9 4 349.49 16.41 o
1 9 4 155.12 8.61 o
2 9 4 397.06 14.31 o
3 9 4 5.47 17.00 o
-10 10 4 112.50 8.45 o
-9 10 4 540.70 26.57 o
-8 10 4 1167.20 28.57 o
-7 10 4 221.12 15.04 o
-6 10 4 1422.06 28.24 o
-5 10 4 38.92 4.58 o
-4 10 4 678.64 15.52 o
-3 10 4 392.57 13.44 o
-2 10 4 128.51 19.28 o
-1 10 4 677.40 23.20 o
0 10 4 6.67 6.34 o
1 10 4 336.18 18.59 o
2 10 4 11.84 12.75 o
-10 11 4 5.18 9.87 o
-9 11 4 397.06 13.11 o
-8 11 4 181.83 26.13 o
-7 11 4 416.78 15.98 o
-6 11 4 615.37 14.57 o
-5 11 4 83.53 7.18 o
-4 11 4 460.25 14.88 o
-3 11 4 2.49 4.94 o
-2 11 4 57.68 8.48 o
-1 11 4 122.56 12.13 o
0 11 4 8.38 10.32 o
-8 12 4 -3.01 4.22 o
-7 12 4 348.72 12.04 o
-6 12 4 440.68 14.17 o
-5 12 4 41.51 6.82 o
-4 12 4 1112.97 31.27 o
-3 12 4 18.82 6.71 o
-2 12 4 509.27 22.46 o
-7 13 4 387.57 22.58 o
-6 13 4 -8.14 8.46 o
2 -13 5 544.71 34.61 o
3 -13 5 652.43 23.13 o
4 -13 5 347.14 16.18 o
5 -13 5 735.38 40.69 o
-1 -12 5 215.58 29.76 o
0 -12 5 129.46 16.43 o
1 -12 5 5.05 5.26 o
2 -12 5 225.00 15.03 o
3 -12 5 122.84 10.33 o
4 -12 5 236.84 13.24 o
5 -12 5 472.78 20.95 o
6 -12 5 58.18 13.97 o
7 -12 5 493.85 20.16 o
-2 -11 5 7.21 6.47 o
-1 -11 5 262.89 19.91 o
0 -11 5 291.27 12.63 o
1 -11 5 32.07 5.68 o
2 -11 5 425.47 13.91 o
3 -11 5 11.64 4.64 o
4 -11 5 375.59 15.11 o
5 -11 5 114.22 9.09 o
6 -11 5 315.77 24.90 o
7 -11 5 383.55 16.29 o
-3 -10 5 136.93 8.36 o
-2 -10 5 113.71 9.82 o
-1 -10 5 718.25 19.70 o
0 -10 5 10.52 5.84 o
1 -10 5 736.15 18.63 o
2 -10 5 652.11 16.79 o
3 -10 5 61.77 7.14 o
4 -10 5 799.04 22.69 o
5 -10 5 18.89 8.50 o
6 -10 5 301.84 21.71 o
7 -10 5 48.96 11.04 o
8 -10 5 193.85 11.90 o
9 -10 5 50.10 17.91 o
-5 -9 5 25.20 14.27 o
-4 -9 5 298.16 12.22 o
-3 -9 5 96.30 6.92 o
-2 -9 5 204.26 8.82 o
-1 -9 5 298.35 9.02 o
0 -9 5 216.51 9.46 o
1 -9 5 641.75 16.40 o
2 -9 5 1.30 4.27 o
3 -9 5 478.74 15.74 o
4 -9 5 306.49 21.25 o
5 -9 5 5.42 10.63 o
6 -9 5 432.55 13.58 o
7 -9 5 135.78 8.34 o
8 -9 5 181.08 12.60 o
9 -9 5 107.48 20.34 o
-6 -8 5 214.66 24.90 o
-5 -8 5 1.90 6.29 o
-4 -8 5 868.77 19.00 o
-3 -8 5 104.69 7.76 o
-2 -8 5 482.68 12.04 o
-1 -8 5 593.93 15.79 o
0 -8 5 105.28 7.31 o
1 -8 5 1344.19 43.16 o
2 -8 5 52.64 4.86 o
3 -8 5 1402.59 35.22 o
4 -8 5 404.75 11.50 o
5 -8 5 558.43 15.26 o
6 -8 5 430.56 13.16 o
7 -8 5 -0.75 3.81 o
8 -8 5 339.92 12.17 o
9 -8 5 63.90 8.68 o
-6 -7 5 -1.32 6.97 o
-5 -7 5 25.67 6.55 o
-4 -7 5 743.98 16.72 o
-3 -7 5 29.75 4.11 o
-2 -7 5 1623.68 34.14 o
-1 -7 5 318.53 8.54 o
0 -7 5 1239.91 23.14 o
1 -7 5 784.42 12.19 o
2 -7 5 388.94 14.46 o
3 -7 5 1542.10 28.04 o
4 -7 5 9.52 2.84 o
5 -7 5 1784.04 33.16 o
6 -7 5 397.26 12.65 o
7 -7 5 450.36 12.84 o
8 -7 5 540.75 15.10 o
9 -7 5 10.36 6.70 o
-7 -6 5 368.17 16.45 o
-6 -6 5 280.48 13.47 o
-5 -6 5 754.30 24.38 o
-4 -6 5 54.03 5.17 o
-3 -6 5 497.93 11.98 o
-2 -6 5 1891.16 34.19 o
-1 -6 5 11.15 2.67 o
0 -6 5 3430.97 47.95 o
1 -6 5 263.43 4.92 o
2 -6 5 1363.15 16.46 o
3 -6 5 815.36 16.89 o
4 -6 5 116.98 9.82 o
5 -6 5 1596.38 30.33 o
6 -6 5 2.45 3.08 o
7 -6 5 995.56 22.26 o
8 -6 5 310.00 13.19 o
9 -6 5 317.10 16.15 o
-8 -5 5 226.04 26.42 o
-7 -5 5 91.31 9.71 o
-6 -5 5 628.12 20.23 o
-5 -5 5 757.03 19.66 o
-4 -5 5 591.59 13.49 o
-3 -5 5 2773.75 52.68 o
-2 -5 5 2.99 3.07 o
-1 -5 5 1507.88 22.08 o
0 -5 5 1775.21 22.21 o
1 -5 5 30.31 2.61 o
2 -5 5 2093.82 24.16 o
3 -5 5 13.33 1.64 o
4 -5 5 497.25 10.02 o
5 -5 5 397.02 9.14 o
6 -5 5 84.57 4.55 o
7 -5 5 470.74 10.50 o
8 -5 5 22.64 4.16 o
9 -5 5 336.16 10.34 o
-8 -4 5 227.00 14.41 o
-7 -4 5 1.81 4.60 o
-6 -4 5 561.74 14.32 o
-5 -4 5 24.00 3.97 o
-4 -4 5 334.92 8.23 o
-3 -4 5 748.60 12.69 o
-2 -4 5 155.40 3.65 o
-1 -4 5 3610.09 37.07 o
0 -4 5 786.34 10.29 o
1 -4 5 2371.78 25.65 o
2 -4 5 3500.34 35.78 o
3 -4 5 74.17 3.46 o
4 -4 5 1183.33 19.94 o
5 -4 5 222.62 7.54 o
6 -4 5 377.59 9.08 o
7 -4 5 235.63 8.76 o
8 -4 5 4.12 4.18 o
9 -4 5 368.35 16.34 o
-9 -3 5 191.07 12.93 o
-8 -3 5 83.68 9.16 o
-7 -3 5 47.44 6.60 o
-6 -3 5 1067.75 22.57 o
-5 -3 5 126.13 7.93 o
-4 -3 5 1423.54 15.91 o
-3 -3 5 1256.52 15.00 o
-2 -3 5 605.64 8.27 o
-1 -3 5 1394.88 20.00 o
0 -3 5 58.35 2.43 o
1 -3 5 1969.10 28.87 o
2 -3 5 676.75 16.21 o
3 -3 5 1759.83 23.57 o
4 -3 5 1251.74 31.42 o
5 -3 5 14.80 3.66 o
6 -3 5 868.99 15.45 o
7 -3 5 68.64 5.90 o
8 -3 5 137.53 8.17 o
9 -3 5 115.68 10.88 o
-10 -2 5 39.17 19.43 o
-9 -2 5 238.97 13.81 o
-8 -2 5 3.65 5.29 o
-7 -2 5 553.10 16.31 o
-6 -2 5 363.63 8.20 o
-5 -2 5 315.73 6.95 o
-4 -2 5 1374.58 16.44 o
-3 -2 5 284.36 5.20 o
-2 -2 5 3033.74 31.48 o
-1 -2 5 2835.15 29.38 o
0 -2 5 673.30 11.86 o
1 -2 5 2318.39 27.51 o
2 -2 5 315.88 5.06 o
3 -2 5 1129.01 16.50 o
4 -2 5 427.92 8.83 o
5 -2 5 131.75 5.79 o
6 -2 5 567.89 13.37 o
7 -2 5 -3.35 3.72 o
8 -2 5 112.15 14.59 o
9 -2 5 173.37 22.47 o
-10 -1 5 198.04 14.12 o
-9 -1 5 35.68 6.66 o
-8 -1 5 122.31 7.85 o
-7 -1 5 595.57 12.33 o
-6 -1 5 189.95 5.79 o
-5 -1 5 1183.76 16.16 o
-4 -1 5 525.66 7.36 o
-3 -1 5 150.47 4.43 o
-2 -1 5 295.06 4.96 o
-1 -1 5 3520.83 35.84 o
0 -1 5 990.83 13.32 o
1 -1 5 3399.10 34.86 o
2 -1 5 192.93 3.54 o
3 -1 5 3272.64 32.14 o
4 -1 5 38.37 3.58 o
5 -1 5 651.71 13.94 o
6 -1 5 402.17 11.44 o
7 -1 5 59.58 7.16 o
8 -1 5 142.83 12.98 o
-10 0 5 492.85 17.73 o
-9 0 5 1.88 5.46 o
-8 0 5 635.40 13.33 o
-7 0 5 288.94 8.10 o
-6 0 5 63.32 6.63 o
-5 0 5 3810.76 43.19 o
-4 0 5 1371.99 14.96 o
-3 0 5 6386.87 86.20 o
-2 0 5 5114.19 51.11 o
-1 0 5 11.11 2.94 o
0 0 5 2270.41 33.58 o
1 0 5 1959.14 21.26 o
2 0 5 370.52 5.25 o
3 0 5 1960.02 20.58 o
4 0 5 129.13 5.45 o
5 0 5 1000.64 18.96 o
6 0 5 69.16 6.96 o
7 0 5 493.30 20.75 o
8 0 5 79.59 15.94 o
-10 1 5 444.21 12.72 o
-9 1 5 -2.79 3.52 o
-8 1 5 1064.77 18.11 o
-7 1 5 147.30 6.98 o
-6 1 5 740.37 12.75 o
-5 1 5 1842.26 26.66 o
-4 1 5 319.17 5.09 o
-3 1 5 5109.15 51.17 o
-2 1 5 687.11 8.72 o
-1 1 5 4267.77 43.02 o
0 1 5 4049.84 41.10 o
1 1 5 55.72 2.68 o
2 1 5 1206.69 13.35 o
3 1 5 1366.90 16.68 o
4 1 5 418.15 9.38 o
5 1 5 610.73 14.31 o
6 1 5 -0.33 6.20 o
7 1 5 411.04 19.80 o
8 1 5 11.54 12.45 o
-11 2 5 346.12 34.92 o
-10 2 5 126.50 8.47 o
-9 2 5 162.93 7.56 o
-8 2 5 1431.93 22.09 o
-7 2 5 21.45 2.92 o
-6 2 5 1910.93 26.13 o
-5 2 5 1124.08 13.73 o
-4 2 5 1003.77 11.40 o
-3 2 5 6382.26 63.22 o
-2 2 5 129.38 3.26 o
-1 2 5 5138.98 51.39 o
0 2 5 1409.42 16.81 o
1 2 5 2279.25 23.17 o
2 2 5 1975.08 22.32 o
3 2 5 24.51 3.33 o
4 2 5 947.07 21.45 o
5 2 5 83.66 7.51 o
6 2 5 73.86 9.94 o
7 2 5 200.80 16.34 o
-11 3 5 431.99 12.39 o
-10 3 5 54.17 5.22 o
-9 3 5 785.95 14.74 o
-8 3 5 158.19 6.23 o
-7 3 5 694.38 14.15 o
-6 3 5 1577.25 19.68 o
-5 3 5 31.19 2.50 o
-4 3 5 2126.89 21.39 o
-3 3 5 1414.83 14.68 o
-2 3 5 382.13 6.05 o
-1 3 5 3451.14 38.64 o
0 3 5 10.94 1.99 o
1 3 5 1644.81 21.04 o
2 3 5 425.50 9.18 o
3 3 5 14.50 2.93 o
4 3 5 1210.02 26.00 o
5 3 5 14.18 6.76 o
6 3 5 228.93 24.59 o
7 3 5 132.38 22.47 o
-11 4 5 71.87 9.50 o
-10 4 5 163.45 9.50 o
-9 4 5 338.19 11.26 o
-8 4 5 26.63 4.13 o
-7 4 5 871.27 16.84 o
-6 4 5 416.68 9.34 o
-5 4 5 445.66 8.76 o
-4 4 5 2722.82 34.22 o
-3 4 5 32.82 1.68 o
-2 4 5 3587.17 43.93 o
-1 4 5 1189.95 15.42 o
0 4 5 54.04 3.58 o
1 4 5 2578.93 34.42 o
2 4 5 122.05 6.66 o
3 4 5 470.87 12.25 o
4 4 5 715.07 23.56 o
5 4 5 11.03 6.86 o
6 4 5 512.27 22.59 o
-11 5 5 132.45 10.85 o
-10 5 5 676.03 16.99 o
-9 5 5 462.58 12.71 o
-8 5 5 207.49 7.93 o
-7 5 5 1213.73 19.28 o
-6 5 5 304.37 7.45 o
-5 5 5 874.13 14.02 o
-4 5 5 932.95 15.72 o
-3 5 5 1.61 1.93 o
-2 5 5 2180.09 35.92 o
-1 5 5 424.26 11.92 o
0 5 5 2066.45 28.55 o
1 5 5 1208.73 21.29 o
2 5 5 365.05 10.40 o
3 5 5 599.17 14.59 o
4 5 5 76.00 9.56 o
5 5 5 151.37 16.40 o
-11 6 5 -3.32 6.18 o
-10 6 5 389.72 12.73 o
-9 6 5 221.96 12.44 o
-8 6 5 981.85 17.26 o
-7 6 5 820.95 14.55 o
-6 6 5 496.39 12.26 o
-5 6 5 1836.66 28.12 o
-4 6 5 569.88 13.74 o
-3 6 5 1283.70 24.93 o
-2 6 5 2189.98 38.94 o
-1 6 5 31.91 4.56 o
0 6 5 1180.30 18.77 o
1 6 5 671.35 14.47 o
2 6 5 955.33 19.20 o
3 6 5 606.67 15.59 o
4 6 5 37.95 10.02 o
5 6 5 330.65 27.93 o
-11 7 5 60.21 7.94 o
-10 7 5 344.84 11.90 o
-9 7 5 53.73 5.00 o
-8 7 5 461.51 10.72 o
-7 7 5 954.91 16.29 o
-6 7 5 536.93 10.67 o
-5 7 5 1425.11 27.33 o
-4 7 5 261.57 7.30 o
-3 7 5 1096.95 22.77 o
-2 7 5 382.22 10.62 o
-1 7 5 940.27 17.12 o
0 7 5 1082.24 19.85 o
1 7 5 3.17 3.26 o
2 7 5 901.91 31.17 o
3 7 5 316.34 16.25 o
4 7 5 260.21 21.86 o
-11 8 5 150.60 19.74 o
-10 8 5 135.80 8.64 o
-9 8 5 155.61 7.38 o
-8 8 5 629.71 15.86 o
-7 8 5 1.06 2.87 o
-6 8 5 1026.31 21.87 o
-5 8 5 791.50 18.12 o
-4 8 5 373.69 11.41 o
-3 8 5 1205.71 25.46 o
-2 8 5 8.82 3.38 o
-1 8 5 814.00 21.21 o
0 8 5 233.14 8.17 o
1 8 5 243.95 10.46 o
2 8 5 649.66 18.28 o
3 8 5 17.19 8.59 o
-10 9 5 78.50 7.73 o
-9 9 5 212.70 9.65 o
-8 9 5 250.78 12.73 o
-7 9 5 28.29 4.40 o
-6 9 5 572.75 15.04 o
-5 9 5 39.34 5.01 o
-4 9 5 950.71 19.31 o
-3 9 5 498.10 16.79 o
-2 9 5 114.48 7.43 o
-1 9 5 1157.52 32.39 o
0 9 5 19.64 7.44 o
1 9 5 378.06 23.34 o
2 9 5 150.73 10.01 o
-10 10 5 8.14 5.39 o
-9 10 5 503.17 24.96 o
-8 10 5 95.58 7.35 o
-7 10 5 315.49 13.46 o
-6 10 5 353.78 11.86 o
-5 10 5 112.49 7.67 o
-4 10 5 591.29 14.92 o
-3 10 5 40.63 9.17 o
-2 10 5 306.96 15.39 o
-1 10 5 101.61 10.73 o
0 10 5 17.23 7.81 o
1 10 5 223.60 34.31 o
-9 11 5 254.12 11.50 o
-8 11 5 23.34 4.92 o
-7 11 5 195.78 9.02 o
-6 11 5 302.74 16.52 o
-5 11 5 15.23 4.87 o
-4 11 5 567.96 23.44 o
-3 11 5 8.62 6.29 o
-2 11 5 317.76 16.73 o
-1 11 5 90.88 11.34 o
-8 12 5 48.25 5.83 o
-7 12 5 472.32 15.09 o
-6 12 5 53.74 6.98 o
-5 12 5 245.11 12.33 o
-4 12 5 506.36 19.95 o
1 -13 6 9.41 15.18 o
2 -13 6 290.27 27.93 o
3 -13 6 253.53 27.02 o
4 -13 6 129.95 20.95 o
-1 -12 6 170.03 22.16 o
0 -12 6 7.92 6.00 o
1 -12 6 183.36 11.75 o
2 -12 6 61.05 8.36 o
3 -12 6 -2.96 5.55 o
4 -12 6 80.03 9.32 o
5 -12 6 590.43 20.66 o
6 -12 6 15.32 8.50 o
-2 -11 6 46.84 8.39 o
-1 -11 6 214.26 12.95 o
0 -11 6 32.50 6.00 o
1 -11 6 302.76 12.66 o
2 -11 6 330.65 26.26 o
3 -11 6 226.48 18.98 o
4 -11 6 300.77 14.21 o
5 -11 6 13.28 6.98 o
6 -11 6 214.19 13.21 o
7 -11 6 319.63 23.08 o
-4 -10 6 313.95 30.36 o
-3 -10 6 23.52 7.27 o
-2 -10 6 403.26 11.82 o
-1 -10 6 337.43 13.69 o
0 -10 6 158.69 16.08 o
1 -10 6 420.86 13.81 o
2 -10 6 6.98 4.60 o
3 -10 6 568.54 50.71 o
4 -10 6 193.41 11.17 o
5 -10 6 75.37 16.55 o
6 -10 6 448.76 17.76 o
7 -10 6 31.52 7.07 o
-5 -9 6 204.34 24.90 o
-4 -9 6 182.26 11.81 o
-3 -9 6 90.79 6.89 o
-2 -9 6 632.80 14.88 o
-1 -9 6 190.66 7.96 o
0 -9 6 409.72 9.60 o
1 -9 6 597.90 16.08 o
2 -9 6 0.27 3.67 o
3 -9 6 445.85 17.31 o
4 -9 6 34.06 5.66 o
5 -9 6 118.12 13.51 o
6 -9 6 288.28 13.81 o
7 -9 6 15.67 5.70 o
8 -9 6 356.60 23.15 o
-6 -8 6 10.63 17.00 o
-5 -8 6 57.32 8.12 o
-4 -8 6 3.70 5.13 o
-3 -8 6 218.16 9.32 o
-2 -8 6 348.02 10.33 o
-1 -8 6 81.83 5.44 o
0 -8 6 1566.84 25.40 o
1 -8 6 425.25 13.57 o
2 -8 6 487.92 13.28 o
3 -8 6 2053.00 45.48 o
4 -8 6 1.27 3.48 o
5 -8 6 827.21 19.44 o
6 -8 6 195.00 10.01 o
7 -8 6 242.00 10.38 o
8 -8 6 163.79 10.03 o
-6 -7 6 225.50 13.84 o
-5 -7 6 135.36 10.28 o
-4 -7 6 42.84 5.54 o
-3 -7 6 56.68 5.61 o
-2 -7 6 49.49 7.54 o
-1 -7 6 11.74 2.80 o
0 -7 6 1193.65 34.02 o
1 -7 6 23.46 3.24 o
2 -7 6 1442.88 19.23 o
3 -7 6 430.09 13.56 o
4 -7 6 513.70 13.64 o
5 -7 6 1006.04 22.29 o
6 -7 6 25.07 4.78 o
7 -7 6 742.27 17.52 o
8 -7 6 104.89 8.17 o
-7 -6 6 84.56 9.51 o
-6 -6 6 640.84 27.88 o
-5 -6 6 785.23 20.91 o
-4 -6 6 699.31 15.77 o
-3 -6 6 1368.56 23.93 o
-2 -6 6 576.55 12.74 o
-1 -6 6 723.93 21.52 o
0 -6 6 29.28 3.11 o
1 -6 6 477.85 9.92 o
2 -6 6 967.85 15.02 o
3 -6 6 2.27 1.45 o
4 -6 6 1415.50 22.79 o
5 -6 6 108.36 5.57 o
6 -6 6 53.69 5.46 o
7 -6 6 415.75 15.60 o
8 -6 6 20.98 5.56 o
9 -6 6 166.39 19.74 o
-8 -5 6 161.51 17.03 o
-7 -5 6 114.64 11.99 o
-6 -5 6 567.88 26.60 o
-5 -5 6 82.38 7.65 o
-4 -5 6 673.74 14.86 o
-3 -5 6 835.07 19.55 o
-2 -5 6 815.00 19.52 o
-1 -5 6 440.66 14.22 o
0 -5 6 243.18 5.62 o
1 -5 6 335.34 6.88 o
2 -5 6 11.14 1.82 o
3 -5 6 9.76 2.14 o
4 -5 6 747.21 14.14 o
5 -5 6 5.29 3.02 o
6 -5 6 355.06 8.95 o
7 -5 6 250.78 8.03 o
8 -5 6 3.83 4.09 o
9 -5 6 150.37 9.12 o
-8 -4 6 47.82 8.56 o
-7 -4 6 251.75 11.29 o
-6 -4 6 425.01 12.48 o
-5 -4 6 34.26 4.33 o
-4 -4 6 705.79 13.00 o
-3 -4 6 1184.18 20.41 o
-2 -4 6 523.82 8.62 o
-1 -4 6 2289.15 26.86 o
0 -4 6 1.74 1.31 o
1 -4 6 2227.22 26.08 o
2 -4 6 8.21 1.97 o
3 -4 6 486.94 13.85 o
4 -4 6 482.36 12.23 o
5 -4 6 160.64 6.25 o
6 -4 6 425.34 10.12 o
7 -4 6 33.96 4.94 o
8 -4 6 264.90 10.70 o
9 -4 6 90.00 12.34 o
-9 -3 6 278.40 15.67 o
-8 -3 6 11.90 6.58 o
-7 -3 6 334.89 23.47 o
-6 -3 6 392.35 16.87 o
-5 -3 6 624.38 13.87 o
-4 -3 6 1749.47 29.04 o
-3 -3 6 6.78 1.52 o
-2 -3 6 4356.58 44.69 o
-1 -3 6 1128.21 16.87 o
0 -3 6 490.94 9.96 o
1 -3 6 2374.44 30.00 o
2 -3 6 6.93 1.38 o
3 -3 6 343.64 8.46 o
4 -3 6 328.90 8.78 o
5 -3 6 321.06 9.42 o
6 -3 6 295.42 8.82 o
7 -3 6 36.17 5.15 o
8 -3 6 231.24 10.95 o
9 -3 6 5.16 16.70 o
-9 -2 6 387.36 32.08 o
-8 -2 6 187.54 12.14 o
-7 -2 6 809.63 20.61 o
-6 -2 6 31.92 2.90 o
-5 -2 6 808.66 11.57 o
-4 -2 6 149.18 3.93 o
-3 -2 6 426.17 6.90 o
-2 -2 6 1632.33 18.45 o
-1 -2 6 120.75 3.27 o
0 -2 6 2233.90 24.06 o
1 -2 6 2225.44 24.20 o
2 -2 6 584.20 10.30 o
3 -2 6 1348.49 19.60 o
4 -2 6 245.42 6.91 o
5 -2 6 433.81 10.79 o
6 -2 6 276.56 9.72 o
7 -2 6 49.90 5.85 o
8 -2 6 355.82 18.44 o
-10 -1 6 1049.84 33.76 o
-9 -1 6 20.59 7.21 o
-8 -1 6 1283.97 32.72 o
-7 -1 6 820.92 15.25 o
-6 -1 6 191.17 5.82 o
-5 -1 6 2754.25 30.24 o
-4 -1 6 371.76 6.06 o
-3 -1 6 1055.41 13.01 o
-2 -1 6 2782.27 29.39 o
-1 -1 6 250.67 4.70 o
0 -1 6 1656.51 18.57 o
1 -1 6 497.20 7.36 o
2 -1 6 2811.66 30.02 o
3 -1 6 946.98 13.69 o
4 -1 6 248.43 7.05 o
5 -1 6 1206.39 21.94 o
6 -1 6 22.73 5.22 o
7 -1 6 257.77 16.18 o
8 -1 6 169.37 14.76 o
-10 0 6 864.06 23.74 o
-9 0 6 33.33 5.11 o
-8 0 6 2687.12 37.47 o
-7 0 6 64.52 4.62 o
-6 0 6 1980.81 25.21 o
-5 0 6 1847.88 21.39 o
-4 0 6 965.56 11.51 o
-3 0 6 5160.82 56.33 o
-2 0 6 230.55 5.27 o
-1 0 6 8173.65 80.70 o
0 0 6 709.65 9.45 o
1 0 6 867.82 11.17 o
2 0 6 1318.27 14.70 o
3 0 6 41.50 3.05 o
4 0 6 464.30 10.11 o
5 0 6 697.06 17.84 o
6 0 6 93.43 10.61 o
7 0 6 429.09 20.42 o
-10 1 6 58.87 6.19 o
-9 1 6 60.80 5.43 o
-8 1 6 2068.66 30.03 o
-7 1 6 2.37 2.62 o
-6 1 6 5035.57 56.68 o
-5 1 6 888.07 18.50 o
-4 1 6 2729.66 31.60 o
-3 1 6 1717.90 19.18 o
-2 1 6 8.70 1.33 o
-1 1 6 3605.66 37.19 o
0 1 6 37.69 2.15 o
1 1 6 2080.98 23.07 o
2 1 6 905.39 10.46 o
3 1 6 885.91 14.76 o
4 1 6 426.72 14.70 o
5 1 6 25.62 6.83 o
6 1 6 215.15 15.94 o
7 1 6 158.17 15.02 o
-11 2 6 423.05 21.70 o
-10 2 6 19.32 4.66 o
-9 2 6 565.43 12.60 o
-8 2 6 79.86 5.23 o
-7 2 6 589.14 10.62 o
-6 2 6 1797.58 23.04 o
-5 2 6 15.20 2.03 o
-4 2 6 7023.24 69.92 o
-3 2 6 399.51 6.21 o
-2 2 6 992.42 12.08 o
-1 2 6 3596.19 37.13 o
0 2 6 2.35 1.13 o
1 2 6 1378.10 15.44 o
2 2 6 209.75 5.83 o
3 2 6 677.65 20.96 o
4 2 6 139.92 9.00 o
5 2 6 76.30 7.88 o
6 2 6 174.25 14.64 o
7 2 6 -1.88 9.90 o
-11 3 6 151.71 8.18 o
-10 3 6 132.78 6.96 o
-9 3 6 473.47 10.93 o
-8 3 6 7.72 3.08 o
-7 3 6 832.50 13.13 o
-6 3 6 173.06 5.07 o
-5 3 6 90.39 3.33 o
-4 3 6 2136.37 26.52 o
-3 3 6 52.15 2.34 o
-2 3 6 2202.56 23.74 o
-1 3 6 1613.96 22.91 o
0 3 6 338.28 7.56 o
1 3 6 1437.17 19.36 o
2 3 6 370.13 13.73 o
3 3 6 946.51 30.61 o
4 3 6 247.33 13.91 o
5 3 6 74.37 10.46 o
6 3 6 192.50 23.99 o
-11 4 6 79.76 9.30 o
-10 4 6 356.11 23.70 o
-9 4 6 696.48 18.27 o
-8 4 6 13.13 4.15 o
-7 4 6 1624.51 21.19 o
-6 4 6 357.99 5.83 o
-5 4 6 1455.85 16.85 o
-4 4 6 1998.22 24.31 o
-3 4 6 900.70 11.95 o
-2 4 6 1041.05 26.68 o
-1 4 6 300.71 7.91 o
0 4 6 1309.83 19.84 o
1 4 6 738.11 13.56 o
2 4 6 52.80 4.85 o
3 4 6 873.06 21.33 o
4 4 6 44.32 9.87 o
5 4 6 267.59 17.07 o
-11 5 6 2.84 6.77 o
-10 5 6 837.59 17.50 o
-9 5 6 252.34 8.89 o
-8 5 6 822.76 15.53 o
-7 5 6 1844.62 26.96 o
-6 5 6 328.25 8.05 o
-5 5 6 1691.01 26.54 o
-4 5 6 1172.88 23.38 o
-3 5 6 1466.09 19.81 o
-2 5 6 2242.66 33.43 o
-1 5 6 62.45 5.08 o
0 5 6 1398.47 21.37 o
1 5 6 160.89 6.79 o
2 5 6 303.49 9.97 o
3 5 6 623.64 17.98 o
4 5 6 68.09 9.66 o
5 5 6 169.10 15.03 o
-11 6 6 134.35 9.51 o
-10 6 6 628.63 14.74 o
-9 6 6 -0.86 3.33 o
-8 6 6 758.35 14.80 o
-7 6 6 900.16 15.90 o
-6 6 6 870.67 14.99 o
-5 6 6 2081.08 37.54 o
-4 6 6 151.92 7.41 o
-3 6 6 2711.69 47.11 o
-2 6 6 274.47 7.26 o
-1 6 6 581.88 11.85 o
0 6 6 1802.16 26.60 o
1 6 6 29.52 4.36 o
2 6 6 567.80 14.37 o
3 6 6 272.96 13.16 o
4 6 6 171.85 17.31 o
-11 7 6 377.74 16.17 o
-10 7 6 264.18 10.84 o
-9 7 6 445.35 11.48 o
-8 7 6 998.90 17.74 o
-7 7 6 77.09 5.60 o
-6 7 6 1861.99 35.00 o
-5 7 6 1352.05 27.24 o
-4 7 6 350.43 11.33 o
-3 7 6 2714.29 47.94 o
-2 7 6 104.13 6.85 o
-1 7 6 1070.29 21.33 o
0 7 6 180.68 7.20 o
1 7 6 235.37 9.31 o
2 7 6 455.30 13.50 o
3 7 6 -1.82 8.20 o
-10 8 6 66.07 6.88 o
-9 8 6 600.57 15.53 o
-8 8 6 96.91 6.61 o
-7 8 6 373.60 12.33 o
-6 8 6 784.54 18.91 o
-5 8 6 -2.17 2.73 o
-4 8 6 1025.70 22.91 o
-3 8 6 1303.61 24.33 o
-2 8 6 256.90 11.65 o
-1 8 6 1524.53 28.34 o
0 8 6 33.04 4.35 o
1 8 6 719.26 18.75 o
2 8 6 92.77 8.46 o
-10 9 6 41.71 8.41 o
-9 9 6 662.74 16.49 o
-8 9 6 61.56 6.63 o
-7 9 6 573.97 15.95 o
-6 9 6 493.32 14.39 o
-5 9 6 260.14 10.63 o
-4 9 6 608.26 15.08 o
-3 9 6 87.06 6.94 o
-2 9 6 921.13 20.36 o
-1 9 6 381.61 17.55 o
0 9 6 101.14 14.73 o
1 9 6 541.69 24.33 o
-9 10 6 244.17 11.91 o
-8 10 6 151.75 11.22 o
-7 10 6 507.28 22.43 o
-6 10 6 45.49 6.11 o
-5 10 6 563.64 14.81 o
-4 10 6 284.76 11.12 o
-3 10 6 11.88 4.61 o
-2 10 6 415.55 15.96 o
-1 10 6 64.26 9.69 o
0 10 6 120.63 12.98 o
-9 11 6 241.41 11.96 o
-8 11 6 78.60 5.71 o
-7 11 6 429.48 16.42 o
-6 11 6 -1.10 4.62 o
-5 11 6 614.29 16.49 o
-4 11 6 150.49 11.03 o
-3 11 6 209.96 12.65 o
-2 11 6 722.97 26.11 o
-7 12 6 136.49 12.56 o
-6 12 6 111.91 9.35 o
-5 12 6 445.45 23.68 o
0 -12 7 15.51 9.98 o
1 -12 7 360.18 17.65 o
2 -12 7 57.10 12.45 o
3 -12 7 87.75 17.91 o
4 -12 7 91.14 15.79 o
5 -12 7 6.38 13.36 o
-2 -11 7 395.26 16.88 o
-1 -11 7 80.62 8.87 o
0 -11 7 124.87 10.47 o
1 -11 7 532.11 20.28 o
2 -11 7 19.36 5.89 o
3 -11 7 513.26 19.54 o
4 -11 7 248.52 18.07 o
5 -11 7 194.62 13.51 o
6 -11 7 43.71 22.32 o
-3 -10 7 2.85 4.96 o
-2 -10 7 679.38 16.12 o
-1 -10 7 58.83 9.16 o
0 -10 7 585.60 17.68 o
1 -10 7 305.52 14.74 o
2 -10 7 279.57 14.60 o
3 -10 7 420.81 18.67 o
4 -10 7 48.66 16.85 o
5 -10 7 395.01 17.61 o
6 -10 7 245.21 14.60 o
7 -10 7 43.86 8.38 o
-4 -9 7 138.02 10.73 o
-3 -9 7 318.53 11.34 o
-2 -9 7 687.55 15.91 o
-1 -9 7 29.51 12.08 o
0 -9 7 756.03 15.00 o
1 -9 7 290.55 11.08 o
2 -9 7 561.80 21.56 o
3 -9 7 552.97 18.89 o
4 -9 7 19.35 4.72 o
5 -9 7 642.26 45.54 o
6 -9 7 81.51 16.55 o
7 -9 7 222.87 12.41 o
-5 -8 7 336.40 15.32 o
-4 -8 7 7.88 5.64 o
-3 -8 7 592.11 14.97 o
-2 -8 7 520.35 13.17 o
-1 -8 7 319.57 9.55 o
0 -8 7 832.91 19.11 o
1 -8 7 4.71 2.29 o
2 -8 7 1089.08 39.93 o
3 -8 7 213.96 11.67 o
4 -8 7 448.55 16.41 o
5 -8 7 784.21 23.60 o
6 -8 7 35.45 7.50 o
7 -8 7 573.36 32.12 o
8 -8 7 48.20 12.23 o
-6 -7 7 521.67 18.83 o
-5 -7 7 231.15 30.36 o
-4 -7 7 774.06 17.73 o
-3 -7 7 1252.67 23.28 o
-2 -7 7 6.19 3.89 o
-1 -7 7 2374.57 36.43 o
0 -7 7 1144.53 20.02 o
1 -7 7 285.15 11.60 o
2 -7 7 1826.33 40.43 o
3 -7 7 -1.86 1.86 o
4 -7 7 645.17 16.34 o
5 -7 7 99.06 13.36 o
6 -7 7 233.69 17.34 o
7 -7 7 319.64 12.07 o
8 -7 7 9.30 5.77 o
-7 -6 7 49.09 8.33 o
-6 -6 7 523.08 17.80 o
-5 -6 7 53.74 11.02 o
-4 -6 7 1670.79 28.92 o
-3 -6 7 386.54 10.87 o
-2 -6 7 2296.44 35.55 o
-1 -6 7 2383.32 36.10 o
0 -6 7 976.69 45.46 o
1 -6 7 1907.55 29.93 o
2 -6 7 280.25 8.15 o
3 -6 7 189.30 6.24 o
4 -6 7 667.98 13.33 o
5 -6 7 81.94 6.06 o
6 -6 7 225.62 7.26 o
7 -6 7 64.61 8.39 o
8 -6 7 21.07 6.66 o
-7 -5 7 277.49 14.53 o
-6 -5 7 262.74 14.98 o
-5 -5 7 16.61 5.16 o
-4 -5 7 457.66 12.02 o
-3 -5 7 236.81 8.07 o
-2 -5 7 314.18 8.85 o
-1 -5 7 2638.40 38.76 o
0 -5 7 690.90 13.10 o
1 -5 7 3081.75 38.92 o
2 -5 7 3.83 2.10 o
3 -5 7 1474.20 23.85 o
4 -5 7 490.40 11.19 o
5 -5 7 14.90 3.30 o
6 -5 7 602.52 13.89 o
7 -5 7 108.83 6.38 o
8 -5 7 176.55 11.79 o
-8 -4 7 -5.09 6.93 o
-7 -4 7 377.42 12.86 o
-6 -4 7 328.19 11.23 o
-5 -4 7 227.32 9.83 o
-4 -4 7 1380.94 21.24 o
-3 -4 7 55.92 4.12 o
-2 -4 7 1030.40 16.10 o
-1 -4 7 1312.89 18.60 o
0 -4 7 1554.91 21.57 o
1 -4 7 4245.36 51.94 o
2 -4 7 647.61 12.74 o
3 -4 7 4647.02 64.26 o
4 -4 7 -1.07 2.47 o
5 -4 7 1122.57 18.52 o
6 -4 7 390.24 10.31 o
7 -4 7 26.76 5.17 o
8 -4 7 277.99 17.22 o
-9 -3 7 39.68 10.50 o
-8 -3 7 113.62 11.29 o
-7 -3 7 622.57 18.74 o
-6 -3 7 2.10 3.60 o
-5 -3 7 790.38 21.12 o
-4 -3 7 1175.81 18.33 o
-3 -3 7 1026.76 13.37 o
-2 -3 7 1815.33 20.84 o
-1 -3 7 39.87 2.48 o
0 -3 7 1965.68 25.89 o
1 -3 7 312.11 6.22 o
2 -3 7 572.13 11.81 o
3 -3 7 2235.18 33.81 o
4 -3 7 135.72 6.62 o
5 -3 7 1878.73 32.22 o
6 -3 7 87.44 6.53 o
7 -3 7 387.59 17.79 o
-9 -2 7 12.64 6.92 o
-8 -2 7 246.35 13.56 o
-7 -2 7 460.95 19.88 o
-6 -2 7 572.72 13.64 o
-5 -2 7 1319.13 18.27 o
-4 -2 7 44.08 2.87 o
-3 -2 7 1821.82 20.98 o
-2 -2 7 878.76 15.73 o
-1 -2 7 38.52 2.43 o
0 -2 7 2412.57 34.11 o
1 -2 7 35.29 2.23 o
2 -2 7 1527.62 21.76 o
3 -2 7 565.75 12.27 o
4 -2 7 593.00 11.83 o
5 -2 7 948.74 16.83 o
6 -2 7 9.88 4.36 o
7 -2 7 623.73 23.19 o
-10 -1 7 401.70 33.40 o
-9 -1 7 -2.15 7.45 o
-8 -1 7 378.00 15.96 o
-7 -1 7 123.18 5.97 o
-6 -1 7 972.45 15.59 o
-5 -1 7 490.33 8.45 o
-4 -1 7 522.00 9.20 o
-3 -1 7 4964.96 50.91 o
-2 -1 7 64.59 3.00 o
-1 -1 7 3530.59 36.98 o
0 -1 7 2937.03 31.32 o
1 -1 7 408.26 6.87 o
2 -1 7 1691.56 25.18 o
3 -1 7 73.94 3.97 o
4 -1 7 1034.02 17.22 o
5 -1 7 220.21 9.05 o
6 -1 7 367.75 17.51 o
7 -1 7 265.29 24.90 o
-10 0 7 163.65 11.70 o
-9 0 7 20.07 6.12 o
-8 0 7 685.64 14.66 o
-7 0 7 362.34 8.55 o
-6 0 7 1530.03 20.84 o
-5 0 7 360.20 6.99 o
-4 0 7 821.19 13.08 o
-3 0 7 1146.93 14.15 o
-2 0 7 1336.89 15.88 o
-1 0 7 2821.84 30.18 o
0 0 7 15.56 1.74 o
1 0 7 3192.87 34.09 o
2 0 7 987.70 14.25 o
3 0 7 215.72 6.02 o
4 0 7 765.77 23.99 o
5 0 7 41.84 7.51 o
6 0 7 287.06 35.98 o
7 0 7 103.93 22.01 o
-10 1 7 0.63 4.72 o
-9 1 7 357.09 9.60 o
-8 1 7 185.16 7.21 o
-7 1 7 3.83 2.39 o
-6 1 7 2518.94 31.06 o
-5 1 7 279.89 7.11 o
-4 1 7 3372.02 38.69 o
-3 1 7 1555.07 18.18 o
-2 1 7 1730.04 19.67 o
-1 1 7 916.51 11.80 o
0 1 7 4.89 1.42 o
1 1 7 1912.66 21.92 o
2 1 7 171.00 5.40 o
3 1 7 1062.98 23.27 o
4 1 7 529.24 15.84 o
5 1 7 71.98 9.72 o
6 1 7 190.42 15.30 o
7 1 7 17.61 13.06 o
-11 2 7 86.79 10.30 o
-10 2 7 281.72 11.57 o
-9 2 7 753.91 13.96 o
-8 2 7 171.57 6.79 o
-7 2 7 184.31 6.08 o
-6 2 7 141.84 5.16 o
-5 2 7 48.16 4.82 o
-4 2 7 443.91 8.72 o
-3 2 7 1407.64 18.01 o
-2 2 7 2254.74 26.81 o
-1 2 7 1095.74 14.74 o
0 2 7 491.26 11.32 o
1 2 7 1219.86 17.17 o
2 2 7 77.09 4.43 o
3 2 7 1029.04 23.37 o
4 2 7 524.28 25.35 o
5 2 7 290.47 17.38 o
6 2 7 437.83 21.74 o
-11 3 7 -0.65 4.30 o
-10 3 7 107.88 5.88 o
-9 3 7 640.30 12.38 o
-8 3 7 265.97 7.26 o
-7 3 7 1607.51 21.74 o
-6 3 7 276.65 6.62 o
-5 3 7 1134.73 17.08 o
-4 3 7 1827.60 24.81 o
-3 3 7 200.43 5.28 o
-2 3 7 2318.94 34.42 o
-1 3 7 888.11 16.31 o
0 3 7 1136.27 20.07 o
1 3 7 1117.69 18.13 o
2 3 7 377.29 10.70 o
3 3 7 941.50 27.80 o
4 3 7 40.10 8.00 o
5 3 7 692.53 27.93 o
6 3 7 323.97 36.13 o
-11 4 7 26.16 5.85 o
-10 4 7 447.29 13.90 o
-9 4 7 151.02 10.46 o
-8 4 7 668.44 11.48 o
-7 4 7 1097.79 15.99 o
-6 4 7 293.00 6.52 o
-5 4 7 3877.57 43.60 o
-4 4 7 23.40 2.41 o
-3 4 7 1472.34 23.61 o
-2 4 7 2137.99 32.60 o
-1 4 7 84.47 5.27 o
0 4 7 1176.01 18.88 o
1 4 7 217.58 7.38 o
2 4 7 343.08 10.74 o
3 4 7 423.68 18.09 o
4 4 7 87.54 10.93 o
5 4 7 278.00 26.11 o
-11 5 7 157.88 12.05 o
-10 5 7 518.31 13.68 o
-9 5 7 3.03 3.54 o
-8 5 7 1249.25 21.07 o
-7 5 7 67.53 4.87 o
-6 5 7 466.20 11.23 o
-5 5 7 1520.06 29.70 o
-4 5 7 184.84 4.38 o
-3 5 7 2265.31 33.96 o
-2 5 7 391.26 9.63 o
-1 5 7 1012.95 18.77 o
0 5 7 1681.87 25.28 o
1 5 7 62.13 4.89 o
2 5 7 905.54 19.20 o
3 5 7 34.88 7.78 o
4 5 7 155.93 19.58 o
-11 6 7 478.07 16.99 o
-10 6 7 93.63 7.01 o
-9 6 7 165.42 8.14 o
-8 6 7 965.49 21.77 o
-7 6 7 13.33 3.62 o
-6 6 7 1026.44 22.73 o
-5 6 7 612.92 15.93 o
-4 6 7 631.73 16.17 o
-3 6 7 1167.82 19.53 o
-2 6 7 20.14 2.97 o
-1 6 7 1625.61 24.68 o
0 6 7 143.90 7.02 o
1 6 7 403.65 13.58 o
2 6 7 608.91 15.75 o
3 6 7 8.51 6.94 o
-10 7 7 0.32 5.17 o
-9 7 7 445.21 13.32 o
-8 7 7 333.84 13.50 o
-7 7 7 593.76 16.36 o
-6 7 7 615.42 16.42 o
-5 7 7 43.20 5.30 o
-4 7 7 1012.14 22.86 o
-3 7 7 465.60 14.24 o
-2 7 7 247.09 7.52 o
-1 7 7 774.63 15.37 o
0 7 7 -3.19 3.19 o
1 7 7 604.63 15.23 o
2 7 7 83.54 12.32 o
-10 8 7 216.53 10.95 o
-9 8 7 148.14 12.88 o
-8 8 7 175.73 10.27 o
-7 8 7 507.64 15.21 o
-6 8 7 368.85 21.34 o
-5 8 7 146.82 8.84 o
-4 8 7 288.89 11.36 o
-3 8 7 74.40 6.67 o
-2 8 7 220.56 10.43 o
-1 8 7 645.46 15.97 o
0 8 7 80.61 8.50 o
1 8 7 486.47 16.09 o
2 8 7 19.74 16.40 o
-10 9 7 924.79 22.43 o
-9 9 7 58.24 14.66 o
-8 9 7 268.28 11.97 o
-7 9 7 628.93 17.60 o
-6 9 7 125.01 9.07 o
-5 9 7 473.25 18.66 o
-4 9 7 730.33 17.69 o
-3 9 7 104.29 7.93 o
-2 9 7 139.77 9.77 o
-1 9 7 65.24 7.80 o
0 9 7 21.55 5.01 o
1 9 7 274.64 19.84 o
-10 10 7 270.84 30.97 o
-9 10 7 77.53 12.12 o
-8 10 7 187.77 11.34 o
-7 10 7 365.43 13.79 o
-6 10 7 70.21 7.60 o
-5 10 7 603.13 16.57 o
-4 10 7 237.84 11.24 o
-3 10 7 273.47 12.19 o
-2 10 7 644.66 20.90 o
-1 10 7 -3.89 6.96 o
-8 11 7 511.45 28.73 o
-7 11 7 375.16 23.01 o
-6 11 7 243.97 11.85 o
-5 11 7 766.30 19.36 o
-4 11 7 0.45 6.13 o
2 -12 8 8.20 14.27 o
-2 -11 8 447.48 14.90 o
-1 -11 8 224.90 16.77 o
0 -11 8 419.50 19.09 o
1 -11 8 540.34 21.01 o
2 -11 8 42.67 7.95 o
3 -11 8 543.92 21.00 o
4 -11 8 31.82 7.59 o
5 -11 8 349.38 20.80 o
-3 -10 8 220.31 14.20 o
-2 -10 8 316.08 11.56 o
-1 -10 8 7.84 3.59 o
0 -10 8 944.48 23.99 o
1 -10 8 197.34 18.22 o
2 -10 8 617.44 21.81 o
3 -10 8 451.60 18.12 o
4 -10 8 44.67 9.72 o
5 -10 8 372.31 17.22 o
6 -10 8 30.41 10.17 o
-4 -9 8 27.36 15.66 o
-3 -9 8 472.04 21.52 o
-2 -9 8 22.28 4.59 o
-1 -9 8 303.03 12.88 o
0 -9 8 345.48 9.64 o
1 -9 8 7.31 6.53 o
2 -9 8 870.60 25.93 o
3 -9 8 380.44 15.98 o
4 -9 8 403.68 28.09 o
5 -9 8 574.04 20.71 o
6 -9 8 5.35 12.30 o
-5 -8 8 38.70 7.85 o
-4 -8 8 137.48 16.45 o
-3 -8 8 340.19 12.76 o
-2 -8 8 1.50 3.40 o
-1 -8 8 428.02 11.62 o
0 -8 8 339.33 12.45 o
1 -8 8 226.87 8.35 o
2 -8 8 678.27 14.80 o
3 -8 8 -4.08 4.08 o
4 -8 8 803.00 24.30 o
5 -8 8 257.71 14.88 o
6 -8 8 283.76 20.80 o
7 -8 8 331.19 13.10 o
-6 -7 8 558.82 19.77 o
-5 -7 8 8.26 6.43 o
-4 -7 8 813.44 21.64 o
-3 -7 8 333.49 10.97 o
-2 -7 8 544.39 29.32 o
-1 -7 8 783.38 16.15 o
0 -7 8 10.39 2.88 o
1 -7 8 959.71 20.28 o
2 -7 8 231.65 8.09 o
3 -7 8 333.65 9.71 o
4 -7 8 398.20 9.57 o
5 -7 8 -4.83 4.83 o
6 -7 8 332.70 31.54 o
7 -7 8 56.63 7.18 o
-7 -6 8 93.82 15.48 o
-6 -6 8 228.69 13.50 o
-5 -6 8 83.98 8.65 o
-4 -6 8 824.28 21.08 o
-3 -6 8 120.33 7.09 o
-2 -6 8 625.70 14.01 o
-1 -6 8 391.08 10.19 o
0 -6 8 54.83 4.27 o
1 -6 8 215.53 13.23 o
2 -6 8 15.86 2.96 o
3 -6 8 158.98 10.52 o
4 -6 8 179.78 7.16 o
5 -6 8 13.12 3.45 o
6 -6 8 438.55 10.69 o
7 -6 8 22.00 4.04 o
-7 -5 8 44.51 11.35 o
-6 -5 8 43.06 7.93 o
-5 -5 8 235.86 11.87 o
-4 -5 8 500.41 15.29 o
-3 -5 8 5.26 2.97 o
-2 -5 8 1606.96 26.58 o
-1 -5 8 1475.71 24.39 o
0 -5 8 398.66 9.84 o
1 -5 8 3848.92 54.02 o
2 -5 8 52.46 4.28 o
3 -5 8 1822.70 28.99 o
4 -5 8 78.43 5.36 o
5 -5 8 307.82 9.71 o
6 -5 8 214.78 8.68 o
7 -5 8 54.37 6.14 o
8 -5 8 178.81 15.30 o
-8 -4 8 238.13 18.66 o
-7 -4 8 186.97 12.30 o
-6 -4 8 6.75 5.00 o
-5 -4 8 467.89 12.63 o
-4 -4 8 243.40 8.73 o
-3 -4 8 450.31 11.41 o
-2 -4 8 1386.75 20.67 o
-1 -4 8 85.56 4.49 o
0 -4 8 1686.25 23.62 o
1 -4 8 849.48 15.72 o
2 -4 8 191.16 6.87 o
3 -4 8 2965.85 43.75 o
4 -4 8 34.92 4.08 o
5 -4 8 1279.86 20.99 o
6 -4 8 68.50 5.65 o
7 -4 8 258.04 11.34 o
-9 -3 8 -9.41 11.84 o
-8 -3 8 773.61 22.42 o
-7 -3 8 178.16 11.25 o
-6 -3 8 465.31 12.97 o
-5 -3 8 1003.22 19.56 o
-4 -3 8 3.48 2.95 o
-3 -3 8 1541.50 20.39 o
-2 -3 8 691.11 11.21 o
-1 -3 8 1135.68 15.71 o
0 -3 8 1566.83 20.16 o
1 -3 8 39.94 3.68 o
2 -3 8 661.15 22.96 o
3 -3 8 923.26 17.57 o
4 -3 8 4.96 5.43 o
5 -3 8 1392.89 25.23 o
6 -3 8 217.91 9.00 o
7 -3 8 695.73 24.55 o
-9 -2 8 213.64 13.64 o
-8 -2 8 788.10 22.01 o
-7 -2 8 9.90 5.32 o
-6 -2 8 1296.18 32.70 o
-5 -2 8 505.50 9.90 o
-4 -2 8 1029.85 15.13 o
-3 -2 8 1179.37 15.12 o
-2 -2 8 2.90 1.59 o
-1 -2 8 1445.89 17.49 o
0 -2 8 1001.29 14.24 o
1 -2 8 750.24 11.66 o
2 -2 8 1331.28 27.61 o
3 -2 8 18.93 3.41 o
4 -2 8 707.24 13.76 o
5 -2 8 538.97 13.31 o
6 -2 8 -2.50 9.26 o
7 -2 8 594.74 23.32 o
-9 -1 8 455.59 16.83 o
-8 -1 8 258.94 18.59 o
-7 -1 8 548.73 14.08 o
-6 -1 8 839.20 15.20 o
-5 -1 8 46.76 3.58 o
-4 -1 8 1475.46 19.72 o
-3 -1 8 1226.44 15.44 o
-2 -1 8 715.66 12.13 o
-1 -1 8 2345.93 26.14 o
0 -1 8 10.51 2.27 o
1 -1 8 1780.96 22.60 o
2 -1 8 533.70 10.69 o
3 -1 8 287.12 7.85 o
4 -1 8 917.58 27.31 o
5 -1 8 16.75 6.68 o
6 -1 8 242.52 16.19 o
-10 0 8 16.94 7.08 o
-9 0 8 122.70 9.78 o
-8 0 8 44.32 5.00 o
-7 0 8 836.89 14.26 o
-6 0 8 772.05 14.18 o
-5 0 8 249.32 7.13 o
-4 0 8 2854.66 33.97 o
-3 0 8 438.05 8.16 o
-2 0 8 1733.88 20.25 o
-1 0 8 1434.16 17.34 o
0 0 8 186.59 5.89 o
1 0 8 1498.14 18.27 o
2 0 8 6.05 2.71 o
3 0 8 581.88 16.10 o
4 0 8 351.66 16.46 o
5 0 8 105.29 11.38 o
6 0 8 277.23 18.31 o
-10 1 8 277.09 14.17 o
-9 1 8 174.93 7.85 o
-8 1 8 141.89 7.42 o
-7 1 8 430.94 9.48 o
-6 1 8 142.31 6.97 o
-5 1 8 1031.74 16.63 o
-4 1 8 386.84 8.53 o
-3 1 8 407.61 7.79 o
-2 1 8 2477.69 29.70 o
-1 1 8 440.58 8.15 o
0 1 8 665.34 12.16 o
1 1 8 1297.81 19.91 o
2 1 8 4.52 3.59 o
3 1 8 518.89 15.51 o
4 1 8 206.23 14.80 o
5 1 8 218.72 16.48 o
6 1 8 164.15 15.32 o
-11 2 8 9.94 9.76 o
-10 2 8 428.06 11.49 o
-9 2 8 202.17 7.82 o
-8 2 8 177.27 6.99 o
-7 2 8 724.51 13.86 o
-6 2 8 128.21 5.82 o
-5 2 8 94.03 4.90 o
-4 2 8 4.88 2.08 o
-3 2 8 6.64 2.05 o
-2 2 8 562.83 10.34 o
-1 2 8 151.41 5.52 o
0 2 8 1859.04 26.41 o
1 2 8 1312.94 18.70 o
2 2 8 679.21 17.73 o
3 2 8 900.92 22.30 o
4 2 8 76.05 11.08 o
5 2 8 482.46 34.31 o
-11 3 8 53.18 5.70 o
-10 3 8 722.38 14.12 o
-9 3 8 12.49 3.55 o
-8 3 8 475.45 10.16 o
-7 3 8 1374.41 19.66 o
-6 3 8 468.42 9.97 o
-5 3 8 3778.20 47.93 o
-4 3 8 297.57 7.27 o
-3 3 8 2256.86 39.05 o
-2 3 8 9.58 2.76 o
-1 3 8 370.01 9.81 o
0 3 8 464.67 14.73 o
1 3 8 55.76 4.61 o
2 3 8 1013.63 33.55 o
3 3 8 339.59 43.27 o
4 3 8 193.19 20.19 o
5 3 8 368.44 20.61 o
-11 4 8 239.79 11.63 o
-10 4 8 655.16 15.81 o
-9 4 8 145.21 8.17 o
-8 4 8 1261.01 18.53 o
-7 4 8 88.17 4.75 o
-6 4 8 673.98 12.17 o
-5 4 8 925.77 16.99 o
-4 4 8 276.80 7.94 o
-3 4 8 1949.87 30.53 o
-2 4 8 265.08 9.16 o
-1 4 8 1307.24 22.90 o
0 4 8 2.74 2.75 o
1 4 8 106.13 6.26 o
2 4 8 385.52 17.36 o
3 4 8 -1.93 6.11 o
4 4 8 165.97 14.86 o
-11 5 8 275.06 25.96 o
-10 5 8 67.60 6.48 o
-9 5 8 547.70 19.53 o
-8 5 8 664.40 14.35 o
-7 5 8 86.28 7.46 o
-6 5 8 1818.97 42.57 o
-5 5 8 261.20 6.82 o
-4 5 8 595.58 17.53 o
-3 5 8 949.84 22.29 o
-2 5 8 1.14 2.51 o
-1 5 8 1302.04 23.47 o
0 5 8 2.07 2.88 o
1 5 8 557.14 14.49 o
2 5 8 106.58 11.06 o
3 5 8 141.32 20.34 o
4 5 8 204.04 27.02 o
-11 6 8 312.43 31.88 o
-10 6 8 7.61 4.77 o
-9 6 8 481.31 14.44 o
-8 6 8 71.32 7.24 o
-7 6 8 428.35 14.16 o
-6 6 8 739.34 26.55 o
-5 6 8 18.35 4.26 o
-4 6 8 1658.14 33.01 o
-3 6 8 372.00 9.46 o
-2 6 8 570.05 12.94 o
-1 6 8 604.41 12.88 o
0 6 8 2.68 3.15 o
1 6 8 263.08 15.73 o
2 6 8 74.09 9.42 o
3 6 8 215.88 26.42 o
-11 7 8 230.76 29.15 o
-10 7 8 125.06 9.10 o
-9 7 8 523.87 16.93 o
-8 7 8 1.53 6.08 o
-7 7 8 451.92 14.74 o
-6 7 8 253.34 10.79 o
-5 7 8 451.81 14.49 o
-4 7 8 522.24 16.67 o
-3 7 8 12.24 6.25 o
-2 7 8 486.86 10.87 o
-1 7 8 491.83 11.72 o
0 7 8 285.32 9.97 o
1 7 8 287.21 16.48 o
2 7 8 11.84 14.27 o
-10 8 8 1123.20 28.28 o
-9 8 8 640.45 21.42 o
-8 8 8 305.62 12.74 o
-7 8 8 727.11 19.63 o
-6 8 8 43.73 10.02 o
-5 8 8 368.02 13.40 o
-4 8 8 532.30 18.17 o
-3 8 8 337.34 12.17 o
-2 8 8 393.44 13.25 o
-1 8 8 -1.86 3.27 o
0 8 8 204.06 9.43 o
1 8 8 192.25 21.71 o
-10 9 8 1055.10 53.13 o
-9 9 8 129.64 9.92 o
-8 9 8 1194.84 28.13 o
-7 9 8 397.30 14.51 o
-6 9 8 221.53 19.58 o
-5 9 8 544.25 24.30 o
-4 9 8 113.83 8.68 o
-3 9 8 367.77 13.23 o
-2 9 8 397.41 14.31 o
-1 9 8 79.89 9.33 o
0 9 8 320.81 30.21 o
-9 10 8 143.62 25.81 o
-8 10 8 1428.36 57.59 o
-7 10 8 727.94 20.91 o
-6 10 8 873.69 23.23 o
-5 10 8 735.70 19.08 o
-4 10 8 42.71 7.01 o
-3 10 8 689.79 19.18 o
-2 10 8 42.55 8.39 o
-7 11 8 -13.06 13.06 o
-6 11 8 1066.34 51.31 o
-5 11 8 353.42 31.88 o
-1 -11 9 28.24 11.54 o
0 -11 9 403.43 19.55 o
1 -11 9 9.94 12.90 o
2 -11 9 375.65 18.31 o
3 -11 9 274.37 18.82 o
-2 -10 9 4.41 6.41 o
-1 -10 9 146.76 7.77 o
0 -10 9 105.44 11.15 o
1 -10 9 39.73 7.89 o
2 -10 9 182.96 20.80 o
3 -10 9 19.65 6.74 o
4 -10 9 247.60 15.44 o
5 -10 9 125.34 18.67 o
-3 -9 9 329.52 12.40 o
-2 -9 9 39.50 5.63 o
-1 -9 9 393.00 13.02 o
0 -9 9 25.23 4.50 o
1 -9 9 151.38 6.81 o
2 -9 9 91.60 10.20 o
3 -9 9 17.12 5.97 o
4 -9 9 230.41 15.79 o
5 -9 9 73.77 12.90 o
6 -9 9 122.71 12.25 o
-4 -8 9 324.38 27.65 o
-3 -8 9 217.87 10.24 o
-2 -8 9 202.62 9.15 o
-1 -8 9 674.98 18.70 o
0 -8 9 -1.64 4.68 o
1 -8 9 867.73 19.32 o
2 -8 9 87.91 5.68 o
3 -8 9 134.26 10.85 o
4 -8 9 178.80 13.06 o
5 -8 9 6.14 7.59 o
6 -8 9 106.56 11.66 o
-6 -7 9 225.29 21.86 o
-5 -7 9 93.27 9.30 o
-4 -7 9 617.09 18.98 o
-3 -7 9 22.78 4.60 o
-2 -7 9 822.78 17.62 o
-1 -7 9 136.64 9.39 o
0 -7 9 374.45 11.83 o
1 -7 9 558.83 14.57 o
2 -7 9 22.17 6.30 o
3 -7 9 324.18 10.25 o
4 -7 9 141.21 7.26 o
5 -7 9 36.53 6.57 o
6 -7 9 74.35 7.37 o
7 -7 9 40.76 8.98 o
-7 -6 9 388.04 26.42 o
-6 -6 9 12.59 7.09 o
-5 -6 9 387.98 25.75 o
-4 -6 9 476.93 15.93 o
-3 -6 9 1.90 3.40 o
-2 -6 9 1245.17 26.95 o
-1 -6 9 232.96 8.29 o
0 -6 9 528.42 12.44 o
1 -6 9 676.32 20.00 o
2 -6 9 112.39 10.75 o
3 -6 9 500.07 12.02 o
4 -6 9 63.48 6.09 o
5 -6 9 327.05 11.53 o
6 -6 9 208.84 8.53 o
7 -6 9 12.42 4.58 o
-7 -5 9 389.40 26.30 o
-6 -5 9 47.80 7.47 o
-5 -5 9 821.85 21.76 o
-4 -5 9 86.88 8.09 o
-3 -5 9 386.79 10.97 o
-2 -5 9 960.34 18.54 o
-1 -5 9 32.52 3.91 o
0 -5 9 1605.72 40.54 o
1 -5 9 409.99 10.27 o
2 -5 9 1356.03 27.92 o
3 -5 9 766.01 15.90 o
4 -5 9 160.02 7.87 o
5 -5 9 848.06 20.12 o
6 -5 9 6.47 4.53 o
7 -5 9 187.75 12.84 o
-8 -4 9 678.61 36.13 o
-7 -4 9 89.00 9.77 o
-6 -4 9 866.67 19.55 o
-5 -4 9 1042.68 21.07 o
-4 -4 9 87.34 8.98 o
-3 -4 9 1385.81 24.19 o
-2 -4 9 645.69 13.97 o
-1 -4 9 720.91 12.95 o
0 -4 9 775.27 13.56 o
1 -4 9 29.09 4.91 o
2 -4 9 780.25 15.78 o
3 -4 9 15.69 6.14 o
4 -4 9 210.33 8.50 o
5 -4 9 500.79 12.56 o
6 -4 9 42.54 5.26 o
-8 -3 9 479.78 27.92 o
-7 -3 9 -1.10 5.68 o
-6 -3 9 1511.03 54.04 o
-5 -3 9 299.62 10.13 o
-4 -3 9 2543.70 39.30 o
-3 -3 9 1357.34 20.93 o
-2 -3 9 350.99 7.69 o
-1 -3 9 2244.18 27.84 o
0 -3 9 274.75 8.19 o
1 -3 9 518.43 14.46 o
2 -3 9 761.41 15.59 o
3 -3 9 98.92 6.36 o
4 -3 9 70.85 5.79 o
5 -3 9 20.57 7.27 o
6 -3 9 5.20 15.03 o
-9 -2 9 292.18 16.12 o
-8 -2 9 257.54 13.55 o
-7 -2 9 182.55 11.31 o
-6 -2 9 735.86 19.51 o
-5 -2 9 17.19 3.76 o
-4 -2 9 1451.79 22.08 o
-3 -2 9 298.05 7.79 o
-2 -2 9 804.99 12.70 o
-1 -2 9 1363.92 20.41 o
0 -2 9 48.45 4.12 o
1 -2 9 791.71 14.16 o
2 -2 9 798.06 16.20 o
3 -2 9 452.15 11.84 o
4 -2 9 381.45 17.14 o
5 -2 9 53.71 8.96 o
6 -2 9 66.70 10.61 o
-9 -1 9 323.08 14.94 o
-8 -1 9 76.19 8.26 o
-7 -1 9 475.18 15.33 o
-6 -1 9 716.30 14.04 o
-5 -1 9 27.24 3.39 o
-4 -1 9 1870.30 24.29 o
-3 -1 9 208.96 7.40 o
-2 -1 9 1335.42 18.36 o
-1 -1 9 1799.00 21.44 o
0 -1 9 843.50 13.07 o
1 -1 9 1409.56 21.29 o
2 -1 9 11.16 4.47 o
3 -1 9 774.26 24.38 o
4 -1 9 285.68 15.68 o
5 -1 9 85.13 10.72 o
6 -1 9 214.43 16.76 o
-9 0 9 339.45 14.69 o
-8 0 9 19.67 4.31 o
-7 0 9 1150.37 19.71 o
-6 0 9 419.79 15.35 o
-5 0 9 1031.34 17.27 o
-4 0 9 2325.38 31.86 o
-3 0 9 382.81 8.57 o
-2 0 9 1988.83 25.21 o
-1 0 9 216.15 5.82 o
0 0 9 1311.70 18.13 o
1 0 9 578.13 16.10 o
2 0 9 69.51 6.54 o
3 0 9 954.52 30.36 o
4 0 9 22.03 7.73 o
5 0 9 177.15 14.80 o
6 0 9 178.23 20.65 o
-10 1 9 540.67 18.25 o
-9 1 9 49.03 5.05 o
-8 1 9 618.81 12.51 o
-7 1 9 784.16 15.11 o
-6 1 9 47.51 4.36 o
-5 1 9 968.95 16.35 o
-4 1 9 659.93 15.74 o
-3 1 9 481.26 11.27 o
-2 1 9 1011.90 14.83 o
-1 1 9 83.48 4.93 o
0 1 9 1322.57 20.58 o
1 1 9 413.38 13.15 o
2 1 9 250.72 10.84 o
3 1 9 864.19 22.01 o
4 1 9 8.81 7.21 o
5 1 9 449.56 22.32 o
-10 2 9 518.39 18.53 o
-9 2 9 1.37 3.59 o
-8 2 9 997.70 18.02 o
-7 2 9 571.14 12.24 o
-6 2 9 929.96 16.20 o
-5 2 9 3132.20 41.25 o
-4 2 9 136.79 5.69 o
-3 2 9 3796.54 54.55 o
-2 2 9 1509.39 25.48 o
-1 2 9 291.92 9.01 o
0 2 9 2260.73 35.61 o
1 2 9 17.63 5.45 o
2 2 9 935.38 28.26 o
3 2 9 368.03 19.43 o
4 2 9 380.89 19.31 o
-10 3 9 653.45 13.76 o
-9 3 9 64.52 5.20 o
-8 3 9 1023.31 18.12 o
-7 3 9 22.86 3.41 o
-6 3 9 1840.03 26.68 o
-5 3 9 614.04 13.49 o
-4 3 9 1525.14 25.63 o
-3 3 9 5501.61 76.33 o
-2 3 9 383.62 10.38 o
-1 3 9 3697.81 54.05 o
0 3 9 281.51 9.48 o
1 3 9 400.30 32.94 o
2 3 9 358.57 17.29 o
3 3 9 50.68 9.29 o
4 3 9 294.16 36.59 o
-10 4 9 164.05 9.21 o
-9 4 9 448.09 12.52 o
-8 4 9 1033.25 17.64 o
-7 4 9 87.23 6.00 o
-6 4 9 1650.55 27.35 o
-5 4 9 19.41 3.26 o
-4 4 9 689.62 14.44 o
-3 4 9 1224.53 21.92 o
-2 4 9 452.60 11.63 o
-1 4 9 3128.39 47.16 o
0 4 9 -1.32 3.14 o
1 4 9 2457.75 56.28 o
2 4 9 64.80 9.60 o
3 4 9 103.16 11.74 o
4 4 9 198.27 20.95 o
-10 5 9 56.69 7.95 o
-9 5 9 429.14 15.89 o
-8 5 9 58.18 6.95 o
-7 5 9 355.67 13.24 o
-6 5 9 930.77 22.46 o
-5 5 9 235.78 7.53 o
-4 5 9 940.20 17.88 o
-3 5 9 222.54 9.25 o
-2 5 9 754.88 16.10 o
-1 5 9 959.83 19.37 o
0 5 9 30.91 4.67 o
1 5 9 2017.37 51.77 o
2 5 9 29.79 7.68 o
3 5 9 869.45 29.76 o
-10 6 9 156.56 11.83 o
-9 6 9 510.46 20.91 o
-8 6 9 14.76 4.71 o
-7 6 9 338.03 20.59 o
-6 6 9 563.91 16.75 o
-5 6 9 227.16 12.58 o
-4 6 9 816.45 16.04 o
-3 6 9 9.65 3.12 o
-2 6 9 870.07 17.97 o
-1 6 9 91.19 6.07 o
0 6 9 317.79 10.24 o
1 6 9 750.56 24.93 o
2 6 9 19.00 12.90 o
-10 7 9 124.67 13.93 o
-9 7 9 388.10 15.35 o
-8 7 9 228.74 12.03 o
-7 7 9 1174.42 27.52 o
-6 7 9 5.61 7.12 o
-5 7 9 1029.47 28.08 o
-4 7 9 322.57 13.04 o
-3 7 9 80.07 8.20 o
-2 7 9 874.93 16.54 o
-1 7 9 11.35 3.81 o
0 7 9 309.07 11.52 o
1 7 9 148.23 13.10 o
-9 8 9 60.53 15.99 o
-8 8 9 523.27 17.38 o
-7 8 9 181.82 11.41 o
-6 8 9 186.95 11.24 o
-5 8 9 1071.11 26.16 o
-4 8 9 3.78 4.91 o
-3 8 9 587.56 16.71 o
-2 8 9 459.21 15.01 o
-1 8 9 64.05 5.37 o
0 8 9 369.17 12.64 o
-9 9 9 246.85 32.79 o
-8 9 9 386.95 15.63 o
-7 9 9 374.07 15.32 o
-6 9 9 328.78 14.29 o
-5 9 9 531.41 18.19 o
-4 9 9 146.23 10.05 o
-3 9 9 691.86 18.97 o
-2 9 9 103.53 9.14 o
-1 9 9 606.04 27.06 o
-7 10 9 148.47 22.47 o
-6 10 9 603.17 19.84 o
-5 10 9 609.42 18.05 o
-4 10 9 823.16 29.43 o
-2 -10 10 73.78 13.97 o
-1 -10 10 404.47 13.47 o
0 -10 10 6.64 7.00 o
1 -10 10 217.87 24.59 o
2 -10 10 186.42 16.55 o
3 -10 10 32.70 10.63 o
4 -10 10 188.55 18.82 o
-3 -9 10 1.53 8.89 o
-2 -9 10 271.71 13.89 o
-1 -9 10 263.53 11.33 o
0 -9 10 121.84 7.99 o
1 -9 10 527.03 14.11 o
2 -9 10 21.44 6.78 o
3 -9 10 435.21 19.03 o
4 -9 10 167.52 22.92 o
5 -9 10 23.87 8.20 o
-4 -8 10 159.81 11.85 o
-3 -8 10 18.76 8.93 o
-2 -8 10 214.11 9.91 o
-1 -8 10 147.41 9.41 o
0 -8 10 279.45 10.88 o
1 -8 10 503.03 14.18 o
2 -8 10 24.43 4.11 o
3 -8 10 744.38 17.27 o
4 -8 10 8.28 5.98 o
5 -8 10 301.14 17.64 o
-5 -7 10 344.66 16.22 o
-4 -7 10 162.36 11.70 o
-3 -7 10 248.11 12.80 o
-2 -7 10 267.73 9.91 o
-1 -7 10 -1.01 3.16 o
0 -7 10 424.18 13.66 o
1 -7 10 115.37 9.44 o
2 -7 10 87.82 6.73 o
3 -7 10 493.98 16.75 o
4 -7 10 3.10 5.38 o
5 -7 10 427.53 13.52 o
6 -7 10 92.16 11.00 o
-6 -6 10 -1.68 6.13 o
-5 -6 10 376.83 15.88 o
-4 -6 10 158.66 12.20 o
-3 -6 10 650.15 18.52 o
-2 -6 10 333.20 10.71 o
-1 -6 10 77.00 7.01 o
0 -6 10 990.86 25.01 o
1 -6 10 62.33 5.76 o
2 -6 10 576.62 15.44 o
3 -6 10 470.54 13.82 o
4 -6 10 160.72 8.23 o
5 -6 10 500.46 13.59 o
6 -6 10 1.22 4.39 o
-7 -5 10 61.03 16.40 o
-6 -5 10 307.57 14.74 o
-5 -5 10 396.22 15.14 o
-4 -5 10 2.76 4.59 o
-3 -5 10 741.66 19.30 o
-2 -5 10 85.68 6.29 o
-1 -5 10 297.26 11.13 o
0 -5 10 531.05 14.65 o
1 -5 10 90.63 6.86 o
2 -5 10 883.66 17.82 o
3 -5 10 98.94 6.68 o
4 -5 10 656.99 15.54 o
5 -5 10 287.71 10.09 o
6 -5 10 94.37 16.04 o
-7 -4 10 6.59 8.17 o
-6 -4 10 815.66 22.46 o
-5 -4 10 176.64 12.18 o
-4 -4 10 467.14 23.66 o
-3 -4 10 1585.61 31.89 o
-2 -4 10 115.92 8.72 o
-1 -4 10 1251.75 25.87 o
0 -4 10 194.08 7.82 o
1 -4 10 501.78 12.31 o
2 -4 10 307.50 9.83 o
3 -4 10 12.73 3.75 o
4 -4 10 403.16 12.08 o
5 -4 10 76.35 6.88 o
6 -4 10 154.02 13.27 o
-8 -3 10 195.16 16.94 o
-7 -3 10 135.19 10.80 o
-6 -3 10 1044.05 34.74 o
-5 -3 10 4.93 3.68 o
-4 -3 10 761.64 27.13 o
-3 -3 10 401.21 11.92 o
-2 -3 10 793.89 14.45 o
-1 -3 10 590.41 11.85 o
0 -3 10 75.52 5.34 o
1 -3 10 691.39 15.00 o
2 -3 10 95.66 6.33 o
3 -3 10 152.23 8.33 o
4 -3 10 422.63 18.09 o
5 -3 10 7.77 6.71 o
-8 -2 10 11.56 6.39 o
-7 -2 10 438.00 16.08 o
-6 -2 10 461.62 15.33 o
-5 -2 10 133.47 9.13 o
-4 -2 10 1078.94 18.20 o
-3 -2 10 761.97 14.18 o
-2 -2 10 947.79 18.75 o
-1 -2 10 1610.28 23.91 o
0 -2 10 74.08 4.71 o
1 -2 10 1353.19 24.07 o
2 -2 10 -3.57 3.57 o
3 -2 10 524.79 20.04 o
4 -2 10 218.57 14.86 o
5 -2 10 165.41 15.48 o
-9 -1 10 524.62 18.70 o
-8 -1 10 95.97 9.65 o
-7 -1 10 633.09 18.46 o
-6 -1 10 92.54 9.69 o
-5 -1 10 960.15 19.22 o
-4 -1 10 699.62 12.33 o
-3 -1 10 28.06 3.37 o
-2 -1 10 2678.18 36.26 o
-1 -1 10 491.66 10.60 o
0 -1 10 1247.44 22.11 o
1 -1 10 1642.18 32.57 o
2 -1 10 183.23 13.20 o
3 -1 10 787.58 26.01 o
4 -1 10 14.53 7.35 o
5 -1 10 207.13 16.19 o
-9 0 10 213.61 12.85 o
-8 0 10 689.15 19.73 o
-7 0 10 705.18 14.74 o
-6 0 10 37.11 4.27 o
-5 0 10 1618.72 24.73 o
-4 0 10 81.78 6.21 o
-3 0 10 833.92 14.92 o
-2 0 10 923.31 17.43 o
-1 0 10 101.73 6.28 o
0 0 10 884.86 23.85 o
1 0 10 539.38 15.61 o
2 0 10 430.90 14.33 o
3 0 10 809.94 26.85 o
4 0 10 8.37 13.51 o
5 0 10 315.14 20.91 o
-9 1 10 -5.36 5.36 o
-8 1 10 1015.11 18.81 o
-7 1 10 215.21 9.25 o
-6 1 10 461.52 10.98 o
-5 1 10 1030.85 17.61 o
-4 1 10 2.01 2.58 o
-3 1 10 654.90 14.55 o
-2 1 10 940.66 18.41 o
-1 1 10 455.70 11.88 o
0 1 10 1385.25 28.80 o
1 1 10 -1.59 3.64 o
2 1 10 1086.72 25.47 o
3 1 10 421.47 19.33 o
4 1 10 222.45 16.63 o
-10 2 10 109.25 12.23 o
-9 2 10 151.07 8.15 o
-8 2 10 1087.38 19.42 o
-7 2 10 -2.52 3.07 o
-6 2 10 1554.31 24.07 o
-5 2 10 857.70 15.47 o
-4 2 10 1159.53 21.47 o
-3 2 10 1391.08 24.58 o
-2 2 10 4.88 3.09 o
-1 2 10 1572.90 27.15 o
0 2 10 286.43 11.88 o
1 2 10 452.29 18.44 o
2 2 10 731.66 39.78 o
3 2 10 10.26 9.87 o
4 2 10 459.99 34.92 o
-10 3 10 13.96 4.77 o
-9 3 10 332.13 10.23 o
-8 3 10 530.26 12.34 o
-7 3 10 249.76 8.32 o
-6 3 10 1338.78 24.12 o
-5 3 10 148.26 7.62 o
-4 3 10 1446.14 45.49 o
-3 3 10 443.68 11.72 o
-2 3 10 205.62 8.24 o
-1 3 10 906.23 18.73 o
0 3 10 -3.34 3.58 o
1 3 10 526.65 20.18 o
2 3 10 92.00 17.76 o
3 3 10 103.26 11.96 o
-10 4 10 214.28 11.97 o
-9 4 10 145.38 7.04 o
-8 4 10 1.15 3.39 o
-7 4 10 738.30 18.36 o
-6 4 10 521.72 12.75 o
-5 4 10 193.87 7.90 o
-4 4 10 1744.15 29.28 o
-3 4 10 126.58 7.23 o
-2 4 10 249.23 9.20 o
-1 4 10 902.90 21.30 o
0 4 10 15.22 4.00 o
1 4 10 725.86 24.79 o
2 4 10 98.49 11.34 o
3 4 10 409.90 26.72 o
-10 5 10 374.29 16.62 o
-9 5 10 107.96 9.64 o
-8 5 10 53.60 7.29 o
-7 5 10 109.40 9.09 o
-6 5 10 0.12 2.83 o
-5 5 10 37.49 4.11 o
-4 5 10 875.08 18.05 o
-3 5 10 51.34 6.73 o
-2 5 10 932.41 19.28 o
-1 5 10 333.82 11.16 o
0 5 10 52.30 5.34 o
1 5 10 765.57 44.63 o
2 5 10 133.82 13.08 o
-9 6 10 201.32 16.97 o
-8 6 10 184.54 11.66 o
-7 6 10 1116.28 28.73 o
-6 6 10 21.29 5.50 o
-5 6 10 536.86 17.07 o
-4 6 10 322.76 9.38 o
-3 6 10 197.69 8.76 o
-2 6 10 914.40 19.19 o
-1 6 10 13.22 4.45 o
0 6 10 683.65 17.20 o
1 6 10 137.60 12.68 o
-9 7 10 9.14 6.19 o
-8 7 10 681.71 20.51 o
-7 7 10 351.22 14.38 o
-6 7 10 502.34 17.05 o
-5 7 10 776.83 21.67 o
-4 7 10 16.91 5.42 o
-3 7 10 752.19 15.82 o
-2 7 10 98.83 7.58 o
-1 7 10 106.44 8.25 o
0 7 10 426.85 18.97 o
-8 8 10 465.30 17.30 o
-7 8 10 33.12 10.10 o
-6 8 10 497.27 17.52 o
-5 8 10 273.66 14.10 o
-4 8 10 45.36 7.57 o
-3 8 10 657.65 18.60 o
-2 8 10 28.23 6.61 o
-1 8 10 454.14 12.61 o
-7 9 10 85.54 9.21 o
-6 9 10 911.26 30.40 o
-5 9 10 162.19 12.15 o
-4 9 10 646.27 18.91 o
-3 9 10 566.51 18.28 o
-1 -10 11 120.84 17.91 o
0 -10 11 79.11 10.32 o
1 -10 11 287.84 22.16 o
2 -10 11 35.83 11.84 o
-1 -9 11 123.47 13.26 o
0 -9 11 181.57 9.73 o
1 -9 11 266.13 10.53 o
2 -9 11 23.26 7.19 o
3 -9 11 324.73 18.31 o
4 -9 11 19.13 10.63 o
-4 -8 11 41.90 16.40 o
-3 -8 11 313.55 18.65 o
-2 -8 11 589.95 35.22 o
-1 -8 11 8.16 4.71 o
0 -8 11 642.84 17.60 o
1 -8 11 364.12 12.61 o
2 -8 11 140.11 9.27 o
3 -8 11 425.34 12.97 o
4 -8 11 4.06 7.35 o
-5 -7 11 428.79 24.14 o
-4 -7 11 14.70 6.31 o
-3 -7 11 874.92 23.23 o
-2 -7 11 351.41 18.67 o
-1 -7 11 536.06 16.13 o
0 -7 11 861.03 20.98 o
1 -7 11 -1.24 3.42 o
2 -7 11 563.05 16.06 o
3 -7 11 369.94 12.66 o
4 -7 11 46.99 5.74 o
5 -7 11 482.09 21.63 o
-6 -6 11 254.44 24.29 o
-5 -6 11 317.15 21.01 o
-4 -6 11 79.01 8.23 o
-3 -6 11 830.54 21.85 o
-2 -6 11 60.60 6.88 o
-1 -6 11 1276.85 28.65 o
0 -6 11 527.94 15.43 o
1 -6 11 468.92 14.31 o
2 -6 11 949.14 22.14 o
3 -6 11 2.73 3.94 o
4 -6 11 526.22 20.17 o
5 -6 11 161.95 13.98 o
-6 -5 11 554.76 19.32 o
-5 -5 11 3.38 6.50 o
-4 -5 11 538.33 17.19 o
-3 -5 11 271.76 11.74 o
-2 -5 11 43.82 6.09 o
-1 -5 11 985.72 32.67 o
0 -5 11 96.56 7.67 o
1 -5 11 942.73 21.79 o
2 -5 11 429.75 12.20 o
3 -5 11 162.92 8.94 o
4 -5 11 636.45 16.15 o
5 -5 11 9.21 11.21 o
-7 -4 11 208.76 18.19 o
-6 -4 11 438.92 17.00 o
-5 -4 11 54.74 7.22 o
-4 -4 11 998.82 24.30 o
-3 -4 11 5.45 3.81 o
-2 -4 11 806.69 20.07 o
-1 -4 11 418.41 16.18 o
0 -4 11 218.51 9.95 o
1 -4 11 916.17 18.73 o
2 -4 11 16.34 3.97 o
3 -4 11 349.75 11.75 o
4 -4 11 240.10 14.99 o
5 -4 11 12.27 10.93 o
-8 -3 11 -10.02 10.02 o
-7 -3 11 343.60 15.32 o
-6 -3 11 191.33 12.23 o
-5 -3 11 164.11 9.60 o
-4 -3 11 708.91 16.25 o
-3 -3 11 4.89 4.29 o
-2 -3 11 440.35 12.19 o
-1 -3 11 112.58 10.82 o
0 -3 11 202.30 13.01 o
1 -3 11 511.36 15.23 o
2 -3 11 29.62 5.30 o
3 -3 11 565.70 22.62 o
4 -3 11 72.99 9.99 o
5 -3 11 137.00 13.03 o
-8 -2 11 5.23 6.65 o
-7 -2 11 362.86 15.10 o
-6 -2 11 11.04 5.08 o
-5 -2 11 407.70 14.22 o
-4 -2 11 441.97 16.04 o
-3 -2 11 189.31 7.46 o
-2 -2 11 1101.73 24.32 o
-1 -2 11 124.43 7.41 o
0 -2 11 755.96 18.79 o
1 -2 11 725.67 23.65 o
2 -2 11 263.97 14.52 o
3 -2 11 686.09 24.46 o
4 -2 11 -1.70 7.02 o
5 -2 11 403.82 29.15 o
-8 -1 11 182.88 11.99 o
-7 -1 11 899.05 23.34 o
-6 -1 11 25.57 5.71 o
-5 -1 11 852.09 18.30 o
-4 -1 11 171.50 8.49 o
-3 -1 11 762.18 18.76 o
-2 -1 11 372.60 10.73 o
-1 -1 11 255.74 9.35 o
0 -1 11 483.45 14.87 o
1 -1 11 42.97 7.73 o
2 -1 11 476.48 20.04 o
3 -1 11 381.20 18.88 o
4 -1 11 86.41 21.56 o
-9 0 11 16.27 7.24 o
-8 0 11 284.25 15.76 o
-7 0 11 330.32 12.79 o
-6 0 11 526.62 15.29 o
-5 0 11 1251.40 20.99 o
-4 0 11 46.49 4.38 o
-3 0 11 1416.11 25.23 o
-2 0 11 178.53 11.88 o
-1 0 11 477.09 12.55 o
0 0 11 294.25 12.82 o
1 0 11 4.54 4.66 o
2 0 11 208.44 15.38 o
3 0 11 119.52 15.03 o
4 0 11 94.79 13.36 o
-9 1 11 345.67 18.21 o
-8 1 11 412.44 13.27 o
-7 1 11 4.90 3.77 o
-6 1 11 656.81 14.57 o
-5 1 11 419.64 10.77 o
-4 1 11 434.46 12.08 o
-3 1 11 1480.12 26.38 o
-2 1 11 3.36 3.42 o
-1 1 11 1397.13 29.58 o
0 1 11 284.26 15.03 o
1 1 11 401.41 18.24 o
2 1 11 436.81 19.92 o
3 1 11 27.63 14.27 o
-10 2 11 -12.75 12.75 o
-9 2 11 1022.71 19.82 o
-8 2 11 362.82 10.96 o
-7 2 11 305.94 9.76 o
-6 2 11 976.56 20.17 o
-5 2 11 8.11 3.61 o
-4 2 11 1048.68 20.78 o
-3 2 11 413.18 11.86 o
-2 2 11 605.90 14.75 o
-1 2 11 865.90 21.65 o
0 2 11 45.34 8.14 o
1 2 11 547.32 21.51 o
2 2 11 99.93 11.88 o
3 2 11 149.98 14.80 o
-10 3 11 49.96 10.65 o
-9 3 11 848.69 19.15 o
-8 3 11 24.41 4.80 o
-7 3 11 879.62 18.89 o
-6 3 11 749.40 27.08 o
-5 3 11 195.33 8.75 o
-4 3 11 1234.68 23.32 o
-3 3 11 56.68 5.41 o
-2 3 11 877.39 18.71 o
-1 3 11 350.69 13.94 o
0 3 11 291.06 27.02 o
1 3 11 380.41 18.53 o
2 3 11 6.10 7.59 o
3 3 11 220.13 22.47 o
-9 4 11 435.65 12.90 o
-8 4 11 198.86 8.73 o
-7 4 11 760.97 16.78 o
-6 4 11 8.31 3.66 o
-5 4 11 457.77 16.04 o
-4 4 11 397.61 11.64 o
-3 4 11 13.30 3.86 o
-2 4 11 680.06 17.40 o
-1 4 11 154.56 9.86 o
0 4 11 389.88 18.22 o
1 4 11 313.50 28.84 o
2 4 11 5.16 10.93 o
-9 5 11 179.68 12.43 o
-8 5 11 587.60 19.51 o
-7 5 11 927.12 24.51 o
-6 5 11 5.91 3.53 o
-5 5 11 929.61 18.92 o
-4 5 11 311.33 10.39 o
-3 5 11 171.46 8.60 o
-2 5 11 796.12 18.15 o
-1 5 11 -0.01 4.06 o
0 5 11 738.66 52.07 o
1 5 11 19.56 8.71 o
-9 6 11 -3.87 6.47 o
-8 6 11 1179.02 29.42 o
-7 6 11 356.07 25.21 o
-6 6 11 1326.60 34.44 o
-5 6 11 1611.86 27.42 o
-4 6 11 195.67 8.58 o
-3 6 11 1376.64 25.79 o
-2 6 11 74.61 6.81 o
-1 6 11 156.75 8.36 o
0 6 11 409.90 33.10 o
-8 7 11 549.78 19.32 o
-7 7 11 2.95 6.04 o
-6 7 11 688.51 21.08 o
-5 7 11 240.65 13.96 o
-4 7 11 604.01 21.85 o
-3 7 11 746.81 16.70 o
-2 7 11 46.29 5.18 o
-1 7 11 472.91 19.88 o
-7 8 11 101.13 22.47 o
-6 8 11 631.87 29.19 o
-5 8 11 55.57 9.09 o
-4 8 11 431.49 17.87 o
-3 8 11 576.24 18.47 o
-2 8 11 211.63 30.36 o
0 -9 12 323.97 24.29 o
1 -9 12 130.28 9.87 o
2 -9 12 235.20 12.75 o
-2 -8 12 118.26 11.46 o
-1 -8 12 134.82 11.79 o
0 -8 12 344.65 13.33 o
1 -8 12 -1.77 4.52 o
2 -8 12 525.45 15.69 o
3 -8 12 163.45 14.36 o
-4 -7 12 56.30 10.20 o
-3 -7 12 765.93 22.25 o
-2 -7 12 116.15 11.44 o
-1 -7 12 604.42 22.02 o
0 -7 12 229.29 11.23 o
1 -7 12 112.54 10.38 o
2 -7 12 345.93 12.99 o
3 -7 12 -4.34 4.58 o
4 -7 12 289.38 19.17 o
-5 -6 12 1.23 8.05 o
-4 -6 12 501.97 17.71 o
-3 -6 12 188.92 12.13 o
-2 -6 12 40.08 12.15 o
-1 -6 12 719.21 34.77 o
0 -6 12 156.70 12.23 o
1 -6 12 319.57 12.85 o
2 -6 12 447.64 14.86 o
3 -6 12 74.04 8.60 o
4 -6 12 199.18 23.08 o
-6 -5 12 74.11 11.59 o
-5 -5 12 18.16 16.26 o
-4 -5 12 468.30 31.32 o
-3 -5 12 8.06 4.74 o
-2 -5 12 426.90 26.42 o
-1 -5 12 400.30 25.66 o
0 -5 12 12.75 7.44 o
1 -5 12 460.26 18.22 o
2 -5 12 316.61 16.70 o
3 -5 12 247.91 12.66 o
4 -5 12 339.45 29.76 o
-6 -4 12 8.81 8.37 o
-5 -4 12 117.97 10.07 o
-4 -4 12 489.37 16.67 o
-3 -4 12 11.98 4.99 o
-2 -4 12 790.64 36.13 o
-1 -4 12 83.43 8.91 o
0 -4 12 453.40 29.00 o
1 -4 12 248.14 11.48 o
2 -4 12 23.88 7.29 o
3 -4 12 378.36 22.77 o
4 -4 12 222.50 31.73 o
-7 -3 12 385.67 25.89 o
-6 -3 12 1.86 10.94 o
-5 -3 12 443.27 15.88 o
-4 -3 12 404.28 12.46 o
-3 -3 12 200.81 11.48 o
-2 -3 12 977.33 27.90 o
-1 -3 12 47.50 7.54 o
0 -3 12 1066.66 24.60 o
1 -3 12 314.41 15.78 o
2 -3 12 137.44 18.82 o
3 -3 12 751.81 26.39 o
4 -3 12 12.85 30.36 o
-8 -2 12 409.59 26.72 o
-7 -2 12 358.07 15.48 o
-6 -2 12 215.46 12.60 o
-5 -2 12 603.36 18.17 o
-4 -2 12 34.89 5.87 o
-3 -2 12 687.26 14.39 o
-2 -2 12 559.12 12.62 o
-1 -2 12 235.41 19.13 o
0 -2 12 1526.01 39.56 o
1 -2 12 -2.31 5.16 o
2 -2 12 769.93 26.36 o
3 -2 12 364.23 19.09 o
4 -2 12 176.10 20.04 o
-8 -1 12 451.99 17.60 o
-7 -1 12 15.41 7.32 o
-6 -1 12 883.78 22.89 o
-5 -1 12 656.38 18.51 o
-4 -1 12 188.53 9.62 o
-3 -1 12 1453.52 26.57 o
-2 -1 12 36.51 4.91 o
-1 -1 12 641.33 18.04 o
0 -1 12 616.35 17.98 o
1 -1 12 248.61 15.94 o
2 -1 12 503.44 21.78 o
3 -1 12 13.16 8.90 o
4 -1 12 262.64 27.33 o
-8 0 12 111.18 9.85 o
-7 0 12 152.10 16.68 o
-6 0 12 520.39 14.44 o
-5 0 12 0.31 3.73 o
-4 0 12 750.38 25.79 o
-3 0 12 771.56 20.41 o
-2 0 12 293.25 12.20 o
-1 0 12 1124.24 32.12 o
0 0 12 139.33 14.27 o
1 0 12 753.38 21.05 o
2 0 12 338.00 27.17 o
3 0 12 90.08 12.18 o
-8 1 12 158.10 11.17 o
-7 1 12 597.27 20.90 o
-6 1 12 424.31 15.19 o
-5 1 12 160.46 10.65 o
-4 1 12 350.04 13.62 o
-3 1 12 85.19 7.82 o
-2 1 12 478.22 17.39 o
-1 1 12 518.43 22.77 o
0 1 12 28.22 7.73 o
1 1 12 1140.67 34.66 o
2 1 12 35.29 9.63 o
-9 2 12 242.60 26.72 o
-8 2 12 22.42 5.40 o
-7 2 12 645.84 16.87 o
-6 2 12 302.52 11.12 o
-5 2 12 697.86 16.73 o
-4 2 12 496.21 14.55 o
-3 2 12 1.49 3.82 o
-2 2 12 659.66 30.23 o
-1 2 12 77.65 10.48 o
0 2 12 151.01 12.84 o
1 2 12 396.19 26.26 o
2 2 12 8.89 12.30 o
-9 3 12 179.36 25.20 o
-8 3 12 8.35 4.86 o
-7 3 12 422.21 13.07 o
-6 3 12 127.16 8.33 o
-5 3 12 862.72 18.98 o
-4 3 12 210.44 9.92 o
-3 3 12 300.10 12.04 o
-2 3 12 526.50 17.05 o
-1 3 12 -1.89 6.05 o
0 3 12 260.50 25.20 o
1 3 12 247.08 24.29 o
-9 4 12 53.93 5.45 o
-8 4 12 254.34 10.01 o
-7 4 12 267.84 13.36 o
-6 4 12 2.45 4.01 o
-5 4 12 502.73 13.79 o
-4 4 12 109.08 7.25 o
-3 4 12 156.81 8.92 o
-2 4 12 480.55 14.33 o
-1 4 12 21.98 7.25 o
0 4 12 430.52 20.49 o
-8 5 12 851.59 34.44 o
-7 5 12 317.43 10.83 o
-6 5 12 299.67 14.69 o
-5 5 12 1249.95 24.12 o
-4 5 12 1.91 4.09 o
-3 5 12 934.29 20.56 o
-2 5 12 158.92 9.50 o
-1 5 12 386.09 18.47 o
-8 6 12 751.78 35.52 o
-7 6 12 -6.25 6.25 o
-6 6 12 635.51 20.73 o
-5 6 12 388.30 11.35 o
-4 6 12 507.54 13.77 o
-3 6 12 546.53 19.41 o
-2 6 12 43.21 5.73 o
-7 7 12 188.86 20.95 o
-6 7 12 499.40 19.33 o
-5 7 12 97.14 10.34 o
-4 7 12 332.41 17.30 o
-3 7 12 485.31 19.58 o
-2 7 12 39.80 11.14 o
2 -8 13 336.72 28.24 o
-2 -7 13 171.27 22.77 o
-1 -7 13 464.86 30.51 o
0 -7 13 11.51 7.74 o
1 -7 13 550.83 21.88 o
2 -7 13 77.42 17.61 o
-4 -6 13 296.09 18.45 o
-3 -6 13 -4.25 10.02 o
-2 -6 13 242.97 15.54 o
-1 -6 13 63.48 9.27 o
0 -6 13 24.33 7.13 o
1 -6 13 341.38 27.63 o
2 -6 13 4.94 6.16 o
-5 -5 13 713.67 22.40 o
-4 -5 13 313.36 15.17 o
-3 -5 13 17.65 6.93 o
-2 -5 13 714.10 84.86 o
-1 -5 13 41.55 7.78 o
0 -5 13 172.64 19.58 o
1 -5 13 142.58 12.25 o
2 -5 13 23.68 9.72 o
-6 -4 13 48.04 22.62 o
-5 -4 13 1282.63 31.01 o
-4 -4 13 11.23 6.73 o
-3 -4 13 550.88 21.42 o
-2 -4 13 837.27 51.16 o
-1 -4 13 24.01 6.83 o
0 -4 13 690.43 23.29 o
1 -4 13 168.21 18.22 o
2 -4 13 218.52 31.58 o
3 -4 13 108.09 20.34 o
-6 -3 13 84.91 9.40 o
-5 -3 13 1246.38 30.48 o
-4 -3 13 78.42 8.36 o
-3 -3 13 1245.87 28.63 o
-2 -3 13 214.95 18.22 o
-1 -3 13 515.56 27.93 o
0 -3 13 892.06 46.61 o
1 -3 13 2.09 6.68 o
2 -3 13 842.29 28.72 o
3 -3 13 75.91 19.74 o
-7 -2 13 10.17 6.88 o
-6 -2 13 450.00 16.74 o
-5 -2 13 473.55 16.59 o
-4 -2 13 273.86 12.66 o
-3 -2 13 822.85 26.99 o
-2 -2 13 -2.24 5.97 o
-1 -2 13 899.90 29.00 o
0 -2 13 217.48 26.87 o
1 -2 13 173.31 14.51 o
2 -2 13 631.36 24.85 o
-8 -1 13 244.42 29.45 o
-7 -1 13 161.40 11.77 o
-6 -1 13 634.49 19.46 o
-5 -1 13 71.65 10.28 o
-4 -1 13 1010.08 25.52 o
-3 -1 13 441.38 15.78 o
-2 -1 13 253.80 15.76 o
-1 -1 13 894.47 28.65 o
0 -1 13 5.97 6.86 o
1 -1 13 270.70 17.79 o
2 -1 13 280.99 18.44 o
-7 0 13 575.34 23.42 o
-6 0 13 544.38 22.17 o
-5 0 13 20.35 5.72 o
-4 0 13 977.25 24.63 o
-3 0 13 65.79 7.60 o
-2 0 13 462.17 38.71 o
-1 0 13 540.78 21.70 o
0 0 13 115.97 12.18 o
1 0 13 503.11 34.61 o
-7 1 13 1273.47 30.28 o
-6 1 13 161.37 11.57 o
-5 1 13 742.12 21.08 o
-4 1 13 1125.76 27.24 o
-3 1 13 16.78 5.96 o
-2 1 13 630.99 32.79 o
-1 1 13 270.96 16.28 o
0 1 13 259.56 16.95 o
1 1 13 322.38 19.71 o
-8 2 13 55.87 16.70 o
-7 2 13 520.93 17.96 o
-6 2 13 10.78 11.27 o
-5 2 13 908.22 23.90 o
-4 2 13 748.06 21.18 o
-3 2 13 955.39 24.63 o
-2 2 13 1076.72 32.22 o
-1 2 13 2.79 6.76 o
0 2 13 624.23 24.80 o
1 2 13 159.10 18.52 o
-8 3 13 579.21 48.43 o
-7 3 13 439.65 13.90 o
-6 3 13 186.63 9.84 o
-5 3 13 485.27 14.33 o
-4 3 13 127.37 9.97 o
-3 3 13 882.75 34.33 o
-2 3 13 593.10 22.90 o
-1 3 13 266.11 16.95 o
0 3 13 833.15 37.65 o
-8 4 13 616.97 33.70 o
-7 4 13 114.01 7.62 o
-6 4 13 742.23 17.93 o
-5 4 13 345.70 12.10 o
-4 4 13 19.49 5.09 o
-3 4 13 922.04 24.35 o
-2 4 13 159.68 28.09 o
-1 4 13 578.11 32.18 o
-7 5 13 23.57 5.00 o
-6 5 13 1062.03 23.33 o
-5 5 13 23.14 5.12 o
-4 5 13 691.51 19.15 o
-3 5 13 395.83 15.71 o
-6 6 13 598.75 32.18 o
-5 6 13 49.48 5.65 o
-4 6 13 435.70 15.31 o
-3 6 13 77.73 16.09 o
-2 -6 14 198.88 24.59 o
-1 -6 14 14.57 12.45 o
0 -6 14 196.75 24.29 o
-4 -5 14 206.78 30.67 o
-3 -5 14 191.26 15.51 o
-2 -5 14 333.93 18.03 o
-1 -5 14 10.71 11.99 o
0 -5 14 449.67 26.72 o
-5 -4 14 1226.07 44.94 o
-4 -4 14 232.90 30.97 o
-3 -4 14 1008.91 31.33 o
-2 -4 14 351.83 18.12 o
-1 -4 14 304.54 22.77 o
0 -4 14 453.01 27.02 o
1 -4 14 -3.34 9.41 o
-6 -3 14 465.16 35.22 o
-5 -3 14 545.38 24.43 o
-4 -3 14 9.71 8.10 o
-3 -3 14 1643.84 60.12 o
-2 -3 14 127.83 17.61 o
-1 -3 14 907.84 39.78 o
0 -3 14 228.33 22.16 o
1 -3 14 156.98 19.43 o
-6 -2 14 472.67 28.09 o
-5 -2 14 22.20 8.02 o
-4 -2 14 317.42 18.28 o
-1 -2 14 1266.23 36.84 o
0 -2 14 156.63 15.94 o
1 -2 14 470.13 30.97 o
-6 -1 14 436.81 21.37 o
-5 -1 14 179.77 25.20 o
-4 -1 14 612.94 23.43 o
-3 -1 14 15.24 9.26 o
-2 -1 14 501.16 21.61 o
-1 -1 14 580.84 35.83 o
0 -1 14 -7.89 13.66 o
1 -1 14 671.02 42.51 o
-6 0 14 192.09 15.49 o
-5 0 14 379.32 16.16 o
-4 0 14 434.66 17.72 o
-3 0 14 46.10 9.19 o
-2 0 14 572.96 23.11 o
-1 0 14 116.85 12.62 o
0 0 14 333.50 20.06 o
-6 1 14 -5.86 5.96 o
-5 1 14 599.68 19.66 o
-4 1 14 248.68 20.83 o
-3 1 14 246.77 16.28 o
-2 1 14 578.66 23.38 o
-1 1 14 -2.44 6.74 o
0 1 14 481.86 29.45 o
-7 2 14 437.83 34.31 o
-6 2 14 62.09 8.41 o
-5 2 14 819.97 23.23 o
-4 2 14 96.54 12.31 o
-3 2 14 499.25 21.35 o
-2 2 14 422.78 20.06 o
-1 2 14 220.74 21.86 o
-6 3 14 632.49 28.54 o
-5 3 14 452.13 16.76 o
-4 3 14 90.74 10.03 o
-3 3 14 586.50 23.19 o
-7 4 14 54.65 16.09 o
-5 4 14 75.60 18.82 o
-4 4 14 715.65 41.60 o
-5 5 14 -8.81 12.45 o
-1 -3 15 139.67 17.61 o
-4 -1 15 630.03 33.10 o
-3 -1 15 77.73 14.27 o
-2 -1 15 471.53 35.22 o
-1 -1 15 37.35 17.31 o
-4 0 15 91.00 24.14 o
-3 0 15 319.06 19.39 o
-2 0 15 598.84 25.08 o
-5 1 15 484.59 36.74 o
-4 1 15 20.95 16.09 o
-3 1 15 528.61 37.95 o
