#------------------------------------------------------------------------------
#$Date: 2021-12-10 11:16:28 +0200 (Fri, 10 Dec 2021) $
#$Revision: 271325 $
#$URL: file:///home/coder/svn-repositories/cod/cif/1/56/56/1565656.cif $
#------------------------------------------------------------------------------
#
# This file is available in the Crystallography Open Database (COD),
# http://www.crystallography.net/
#
# All data on this site have been placed in the public domain by the
# contributors.
#
data_1565656
loop_
_publ_author_name
'Shakirova, Olga'
'Protsenko, Alexandra'
'Protsenko, Alexander'
'Kuratieva, Natalia'
'Fowles, Samantha'
'Turnbull, Mark M.'
_publ_section_title
;
 Syntheses, structures and properties of copper(II) and cobalt(II)
 complexes with 5(3)-amino-2-chloro-3(5)-methylpyridine isomer cations
;
_journal_name_full               'Inorganica Chimica Acta'
_journal_page_first              119246
_journal_paper_doi               10.1016/j.ica.2019.119246
_journal_volume                  500
_journal_year                    2020
_chemical_formula_moiety         '2(C6 H8 Cl N2), Cl4 Cu'
_chemical_formula_sum            'C12 H16 Cl6 Cu N4'
_chemical_formula_weight         492.53
_space_group_crystal_system      monoclinic
_space_group_IT_number           14
_space_group_name_Hall           '-P 2ybc'
_space_group_name_H-M_alt        'P 1 21/c 1'
_atom_sites_solution_hydrogens   geom
_atom_sites_solution_primary     direct
_atom_sites_solution_secondary   difmap
_cell_angle_alpha                90
_cell_angle_beta                 100.146(2)
_cell_angle_gamma                90
_cell_formula_units_Z            2
_cell_length_a                   18.0407(16)
_cell_length_b                   7.3919(6)
_cell_length_c                   7.3131(5)
_cell_measurement_reflns_used    4795
_cell_measurement_temperature    296(2)
_cell_measurement_theta_max      27.46
_cell_measurement_theta_min      2.98
_cell_volume                     959.99(13)
_computing_cell_refinement       'Bruker SAINT'
_computing_data_collection       'Bruker APEX2'
_computing_data_reduction        'Bruker SAINT'
_computing_molecular_graphics    'Bruker SHELXTL'
_computing_publication_material  'Bruker SHELXTL'
_computing_structure_refinement  'Bruker SHELXTL'
_computing_structure_solution    'Bruker SHELXTL'
_diffrn_ambient_temperature      296(2)
_diffrn_detector_area_resol_mean 25
_diffrn_measured_fraction_theta_full 0.994
_diffrn_measured_fraction_theta_max 0.995
_diffrn_measurement_device_type  'Bruker Nonius X8Apex CCD area-detector'
_diffrn_measurement_method       '\f scans'
_diffrn_radiation_probe          x-ray
_diffrn_radiation_type           MoK\a
_diffrn_radiation_wavelength     0.71073
_diffrn_reflns_av_R_equivalents  0.0345
_diffrn_reflns_av_unetI/netI     0.0281
_diffrn_reflns_Laue_measured_fraction_full 0.994
_diffrn_reflns_Laue_measured_fraction_max 0.995
_diffrn_reflns_limit_h_max       22
_diffrn_reflns_limit_h_min       -22
_diffrn_reflns_limit_k_max       9
_diffrn_reflns_limit_k_min       -9
_diffrn_reflns_limit_l_max       9
_diffrn_reflns_limit_l_min       -9
_diffrn_reflns_number            7803
_diffrn_reflns_point_group_measured_fraction_full 0.994
_diffrn_reflns_point_group_measured_fraction_max 0.995
_diffrn_reflns_theta_full        25.250
_diffrn_reflns_theta_max         26.367
_diffrn_reflns_theta_min         3.586
_exptl_absorpt_coefficient_mu    1.974
_exptl_absorpt_correction_T_max  0.747
_exptl_absorpt_correction_T_min  0.642
_exptl_absorpt_correction_type   multi-scan
_exptl_absorpt_process_details   'Bruker SADABS'
_exptl_crystal_colour            yellow
_exptl_crystal_density_diffrn    1.704
_exptl_crystal_description       plate
_exptl_crystal_F_000             494
_exptl_crystal_size_max          0.330
_exptl_crystal_size_mid          0.150
_exptl_crystal_size_min          0.100
_refine_diff_density_max         0.424
_refine_diff_density_min         -0.308
_refine_diff_density_rms         0.055
_refine_ls_extinction_coef       .
_refine_ls_extinction_method     none
_refine_ls_goodness_of_fit_ref   1.096
_refine_ls_hydrogen_treatment    constr
_refine_ls_matrix_type           full
_refine_ls_number_parameters     113
_refine_ls_number_reflns         1953
_refine_ls_number_restraints     6
_refine_ls_restrained_S_all      1.189
_refine_ls_R_factor_all          0.0287
_refine_ls_R_factor_gt           0.0259
_refine_ls_shift/su_max          0.003
_refine_ls_shift/su_mean         0.000
_refine_ls_structure_factor_coef Fsqd
_refine_ls_weighting_details
'w=1/[\s^2^(Fo^2^)+(0.0160P)^2^+0.7806P] where P=(Fo^2^+2Fc^2^)/3'
_refine_ls_weighting_scheme      calc
_refine_ls_wR_factor_gt          0.0628
_refine_ls_wR_factor_ref         0.0639
_reflns_Friedel_coverage         0.000
_reflns_Friedel_fraction_full    .
_reflns_Friedel_fraction_max     .
_reflns_number_gt                1784
_reflns_number_total             1953
_reflns_threshold_expression     >2\s(I)
_cod_data_source_file            ICA-2020-500-119246.cif
_cod_data_source_block           shak101
_cod_original_sg_symbol_H-M      'P 21/c'
_cod_database_code               1565656
_shelx_space_group_comment
;
The symmetry employed for this shelxl refinement is uniquely defined
by the following loop, which should always be used as a source of
symmetry information in preference to the above space-group names.
They are only intended as comments.
;
_shelx_estimated_absorpt_t_min   0.562
_shelx_estimated_absorpt_t_max   0.827
_shelx_res_file
;

    D:\Job\SHAKIR~1\shak101\shak101.res created by SHELXL-2014/7

TITL shak101_0ma in P2(1)/c
CELL 0.71073 18.0407 7.3919 7.3131 90.000 100.146 90.000
ZERR 2.0000 0.0016 0.0006 0.0005 0.000 0.002 0.000
LATT 1
SYMM -X, 0.5+Y, 0.5-Z
SFAC C H N CL CU
UNIT 24 32 8 12 2
MERG 2
OMIT 0 180
SHEL 99999.00 0.80
FMAP 2
GRID
PLAN 5
TEMP 23
SIZE 0.33 0.15 0.1
OMIT    1 0 0
OMIT    2 0 0
OMIT    -2 0 2
OMIT    10 0 0
OMIT    0 1 2
ISOR 0.003 0.003 CL3A
EADP CL3A CL3B
BOND $H
L.S. 16
ACTA 50.5
WGHT    0.016000    0.780600
FVAR       0.19790   0.41818   0.00000
CU1   5    0.000000    0.500000    0.500000    10.50000    0.02325    0.02420 =
         0.02489   -0.00585    0.00350   -0.00086
CL1   4    0.019039    0.289233    0.279940    11.00000    0.04363    0.02835 =
         0.02936   -0.00759    0.00710    0.00297
CL2   4    0.126247    0.547377    0.572556    11.00000    0.02383    0.03795 =
         0.04680    0.00011    0.00388   -0.00337
PART 1
CL3A  4    0.441979    0.333750    0.213849    21.00000    0.03143    0.09126 =
         0.10218   -0.00717    0.00962    0.01463
PART 2
CL3B  4    0.449179    0.390844    0.188318   -21.00000    0.03143    0.09126 =
         0.10218   -0.00717    0.00962    0.01463
PART 0
N1    3    0.309838    0.334030    0.019502    11.00000    0.05013    0.07427 =
         0.05753   -0.02593    0.00272    0.02294
N2    3    0.122859    0.521828    0.048394    11.00000    0.02686    0.03682 =
         0.04770    0.00175    0.00236   -0.00119
AFIX 137
H2A   2    0.099791    0.460090    0.126567    11.00000   -1.50000
H2B   2    0.104987    0.487322   -0.067589    11.00000   -1.50000
H2C   2    0.114525    0.639574    0.060151    11.00000   -1.50000
AFIX   0
C1    1    0.236104    0.369507   -0.014841    11.00000    0.04691    0.04915 =
         0.04420   -0.01848   -0.00557    0.00838
AFIX  43
H1    2    0.205905    0.312429   -0.114369    11.00000   -1.20000
AFIX   0
C2    1    0.203874    0.486471    0.091231    11.00000    0.02604    0.02580 =
         0.03330    0.00500    0.00481   -0.00017
C3    1    0.247946    0.570667    0.239927    11.00000    0.03444    0.03450 =
         0.03448   -0.00481    0.00863   -0.00016
AFIX  43
H3    2    0.226377    0.651425    0.312805    11.00000   -1.20000
AFIX   0
C4    1    0.324022    0.535050    0.280502    11.00000    0.03379    0.04114 =
         0.03796   -0.00302    0.00146   -0.00363
C5    1    0.350795    0.416834    0.161966    11.00000    0.02988    0.05493 =
         0.05303   -0.00155    0.00702    0.00912
PART 1
C6    1    0.374099    0.619558    0.444890    11.00000    0.04915    0.09504 =
         0.07568   -0.03441   -0.01614   -0.00167
AFIX 137
H6C   2    0.410352    0.696581    0.402152    11.00000   -1.50000
H6B   2    0.399807    0.526161    0.522567    11.00000   -1.50000
H6A   2    0.344054    0.689790    0.514716    11.00000   -1.50000
AFIX   0
HKLF 4

REM  shak101_0ma in P2(1)/c
REM R1 =  0.0259 for    1784 Fo > 4sig(Fo)  and  0.0287 for all    1953 data
REM    113 parameters refined using      6 restraints

END

WGHT      0.0160      0.7806

REM Highest difference peak  0.424,  deepest hole -0.308,  1-sigma level  0.055
Q1    1   0.0012  0.5038  0.3684  11.00000  0.05    0.42
Q2    1   0.4397  0.4327  0.0874  11.00000  0.05    0.37
Q3    1   0.4576  0.3602  0.2255  11.00000  0.05    0.34
Q4    1   0.4211  0.2481  0.2249  11.00000  0.05    0.30
Q5    1   0.1285  0.5732  0.4602  11.00000  0.05    0.29
;
_shelx_hkl_file
;
   0   0  -1   -0.06    0.01
   0   0  -1   -0.09    0.02
   0   0   1   -0.04    0.03
   0   0  -1   -0.08    0.01
   0   0  -2   50.33    2.28
   0   0  -2   48.36    2.28
   0   0   2   50.10    2.15
   0   0  -3    0.03    0.04
   0   0  -3   -0.07    0.05
   0   0   3    0.03    0.10
   0   0  -4  286.90   12.93
   0   0  -4  276.98   12.94
   0   0   4  284.53   12.05
   0   0  -5    0.03    0.06
   0   0  -5    0.08    0.07
   0   0   5   -0.15    0.15
   0   0  -6    0.56    0.09
   0   0  -6    0.80    0.11
   0   0   6    0.74    0.20
   0   0  -7    0.07    0.07
   0   0   7   -0.11    0.17
   0   0  -7    0.10    0.09
   0   0  -8    2.36    0.21
   0   0  -8    2.24    0.19
   0   0   8    2.68    0.33
   0   0   9   -0.22    0.22
   0   0  -9    0.03    0.10
   0   1   0   -0.65    0.02
   0   1   0   -0.65    0.03
   0   1   0   -0.64    0.03
   0  -1   0   -0.63    0.01
   0  -1   0   -0.62    0.02
   0  -1   0   -0.67    0.03
   0   1  -1   50.27    2.26
   0   1   1   49.23    2.27
   0   1   1   49.15    2.12
   0  -1  -1   46.49    2.27
   0  -1   1   49.56    2.26
   0  -1   1   47.88    2.26
   0  -1   1   46.54    2.11
   0  -1  -1   52.99    2.13
   0   1   2    1.30    0.12
   0   1  -2    1.12    0.08
   0   1  -2    1.09    0.08
   0   1   2    0.97    0.13
   0  -1  -2    1.27    0.11
   0  -1   2    1.36    0.11
   0   1  -3  104.54    4.78
   0   1   3  107.10    4.49
   0   1  -3   97.87    4.77
   0   1   3  105.00    4.78
   0  -1   3  107.48    4.48
   0  -1  -3  106.00    4.78
   0   1   4    0.18    0.06
   0   1   4    0.13    0.15
   0   1  -4    0.16    0.05
   0   1  -4    0.19    0.05
   0  -1  -4    0.17    0.09
   0  -1  -4    0.12    0.07
   0  -1   4    0.13    0.11
   0   1  -5    7.61    0.36
   0   1   5    7.23    0.46
   0   1  -5    7.48    0.37
   0  -1   5    7.65    0.43
   0  -1  -5    6.88    0.40
   0  -1  -5    7.50    0.41
   0   1   6    6.70    0.47
   0   1  -6    6.97    0.34
   0   1  -6    7.42    0.36
   0  -1   6    6.76    0.44
   0  -1  -6    6.79    0.41
   0  -1  -6    6.63    0.39
   0   1  -7    0.31    0.07
   0   1   7    0.26    0.19
   0  -1   7    0.34    0.19
   0  -1  -7    0.29    0.10
   0  -1  -7    0.25    0.12
   0   1   8    7.56    0.56
   0  -1  -8    8.40    0.47
   0  -1   8    8.11    0.54
   0  -1  -9    3.88    0.31
   0  -1   9    4.04    0.40
   0   2   0  421.01   19.64
   0   2   0  426.75   19.64
   0   2   0  463.22   18.27
   0  -2   0  393.09   19.63
   0  -2   0  438.18   19.65
   0   2   1  142.83    6.41
   0   2  -1  146.53    6.48
   0   2  -1  138.85    6.40
   0   2   1  131.74    6.40
   0   2   1  139.53    6.02
   0  -2  -1  143.29    6.41
   0  -2   1  145.63    6.43
   0  -2  -1  133.89    6.41
   0   2   2  376.49   17.02
   0   2  -2  392.90   17.03
   0   2   2  379.20   15.90
   0   2  -2  312.53   17.02
   0  -2   2  387.02   17.00
   0  -2  -2  378.18   17.04
   0  -2   2  392.58   15.87
   0  -2  -2  356.46   17.06
   0   2  -3    2.19    0.15
   0   2   3    1.99    0.18
   0   2  -3    2.14    0.14
   0   2   3    2.14    0.21
   0  -2   3    2.35    0.16
   0  -2  -3    1.83    0.17
   0  -2  -3    2.23    0.19
   0   2   4    3.11    0.26
   0   2  -4    2.33    0.16
   0   2   4    2.79    0.20
   0   2  -4    2.60    0.17
   0  -2  -4    2.77    0.24
   0  -2  -4    2.46    0.21
   0  -2   4    3.20    0.21
   0   2  -5    0.10    0.06
   0   2   5    0.12    0.08
   0   2   5    0.09    0.18
   0   2  -5    0.14    0.06
   0  -2   5    0.16    0.13
   0  -2  -5    0.00    0.03
   0  -2  -5    0.05    0.13
   0   2  -6    3.64    0.20
   0   2   6    3.71    0.35
   0   2  -6    3.83    0.20
   0  -2   6    3.70    0.30
   0  -2  -6    3.62    0.30
   0  -2  -6    2.94    0.26
   0   2   7   -0.10    0.22
   0  -2   7    0.22    0.16
   0  -2  -7    0.10    0.14
   0   2   8    1.60    0.31
   0  -2  -8    1.49    0.22
   0  -2   8    1.36    0.24
   0  -2   9    1.21    0.25
   0  -2  -9    1.49    0.23
   0   3   0   -0.12    0.09
   0   3   0   -0.01    0.09
   0   3   0   -0.01    0.06
   0  -3   0    0.08    0.10
   0   3   1  152.77    6.26
   0   3  -1  138.40    6.70
   0   3  -1  145.67    6.71
   0   3   1  144.46    6.71
   0  -3  -1  146.92    6.72
   0  -3   1  151.25    6.71
   0   3  -2    4.10    0.27
   0   3   2    4.51    0.29
   0   3   2    4.33    0.28
   0   3  -2    4.03    0.26
   0  -3  -2    3.69    0.27
   0  -3  -2    4.62    0.29
   0  -3   2    4.43    0.26
   0   3   3   79.15    3.66
   0   3  -3   77.09    3.63
   0   3  -3   83.75    3.64
   0   3   3   80.16    3.43
   0  -3  -3   69.64    3.65
   0  -3   3   81.99    3.38
   0  -3   3   78.64    3.62
   0  -3  -3   82.23    3.67
   0   3   4   80.92    3.58
   0   3  -4   85.63    3.78
   0   3  -4   82.56    3.77
   0   3   4   83.32    3.80
   0  -3  -4   83.03    3.82
   0  -3   4   86.66    3.53
   0  -3  -4   72.94    3.80
   0   3   5   27.06    1.33
   0   3  -5   29.58    1.30
   0   3  -5   27.66    1.30
   0   3   5   28.38    1.30
   0  -3  -5   23.49    1.33
   0  -3  -5   28.52    1.36
   0  -3   5   28.67    1.24
   0   3  -6    3.94    0.24
   0   3   6    4.92    0.40
   0   3  -6    3.77    0.24
   0  -3   6    3.54    0.29
   0  -3  -6    3.79    0.35
   0   3   7   18.20    0.97
   0   3  -7   18.48    0.87
   0   3  -7   18.55    0.87
   0  -3  -7   19.18    0.98
   0  -3   7   17.59    0.89
   0   3   8    1.34    0.30
   0  -3  -8    1.31    0.24
   0  -3   8    1.36    0.22
   0   4   0  103.32    4.32
   0   4   0  100.70    4.67
   0  -4   0   99.74    4.67
   0   4   1   30.68    1.49
   0   4  -1   26.77    1.47
   0   4  -1   31.91    1.48
   0   4   1   31.86    1.37
   0  -4   1   32.45    1.48
   0  -4  -1   32.16    1.49
   0   4   2   35.21    1.63
   0   4  -2   34.53    1.61
   0   4  -2   30.27    1.60
   0   4   2   35.01    1.51
   0  -4  -2   34.48    1.63
   0  -4   2   33.78    1.60
   0   4   3  109.86    5.03
   0   4   3  105.67    4.70
   0   4  -3  110.32    5.02
   0  -4  -3  111.73    5.05
   0  -4   3  107.47    5.00
   0   4   4   23.01    1.11
   0   4  -4   21.73    1.07
   0   4   4   22.17    1.05
   0   4  -4   21.02    1.07
   0  -4  -4   22.26    1.13
   0   4  -5   11.17    0.58
   0   4  -5   11.34    0.59
   0   4   5   10.74    0.63
   0   4   5   11.03    0.62
   0  -4   5   11.66    0.54
   0  -4  -5   10.47    0.65
   0   4  -6    0.16    0.10
   0   4  -6    0.20    0.11
   0   4   6    0.10    0.22
   0  -4   6    0.10    0.12
   0  -4  -6    0.28    0.19
   0   4   7    0.49    0.23
   0   4  -7   -0.06    0.10
   0  -4  -7    0.04    0.20
   0  -4   7   -0.05    0.14
   0  -4  -8    1.72    0.29
   0   5   0    0.06    0.16
   0  -5   0    0.01    0.15
   0   5  -1   32.84    1.55
   0   5   1   31.61    1.41
   0   5   1   30.98    1.55
   0  -5  -1   32.13    1.56
   0  -5   1   31.51    1.54
   0   5   2   21.53    1.05
   0   5  -2   17.90    1.01
   0   5  -2   21.34    1.03
   0   5   2   21.23    0.96
   0  -5  -2   20.07    1.05
   0  -5   2   20.43    1.02
   0   5  -3    0.30    0.13
   0   5   3   -0.02    0.17
   0   5  -3    0.07    0.15
   0   5   3    0.24    0.17
   0  -5   3    0.05    0.12
   0  -5  -3    0.27    0.20
   0   5   4    3.95    0.34
   0   5   4    3.51    0.32
   0   5  -4    3.66    0.31
   0  -5  -4    3.50    0.34
   0  -5   4    3.22    0.25
   0   5   5   59.18    2.70
   0   5   5   57.79    2.86
   0   5  -5   60.87    2.83
   0  -5  -5   64.10    2.90
   0   5  -6    4.66    0.34
   0   5   6    4.38    0.42
   0  -5  -6    5.26    0.46
   0   5   7    0.80    0.27
   0   5  -7    0.15    0.13
   0  -5  -7    0.18    0.23
   0   6   0   26.40    1.31
   0  -6   0   25.24    1.30
   0   6   1   17.14    0.82
   0   6  -1   17.15    0.93
   0   6   1   17.99    0.94
   0  -6  -1   17.27    0.94
   0  -6   1   17.65    0.92
   0   6  -2   42.34    1.97
   0   6   2   39.94    1.81
   0   6   2   41.62    1.98
   0  -6  -2   39.74    1.98
   0  -6   2   39.09    1.95
   0   6  -3    1.49    0.24
   0   6   3    1.92    0.27
   0   6   3    1.67    0.24
   0  -6  -3    1.92    0.29
   0  -6   3    1.84    0.23
   0   6  -4   15.46    0.85
   0   6   4   15.05    0.88
   0   6   4   16.37    0.84
   0  -6  -4   16.84    0.92
   0   6   5    8.16    0.54
   0   6  -5    8.29    0.53
   0   6   5    8.22    0.56
   0  -6  -5    8.71    0.62
   0   6  -6    4.96    0.39
   0   6   6    4.41    0.43
   0  -6  -6    4.99    0.47
   0   6  -7    1.18    0.21
   0  -6  -7    0.86    0.32
   0   7   0   -0.07    0.20
   0  -7   0   -0.04    0.19
   0   7  -1    0.15    0.20
   0   7   1    0.21    0.22
   0  -7   1   -0.15    0.18
   0  -7  -1    0.12    0.20
   0   7   2    2.73    0.26
   0   7  -2    2.73    0.31
   0   7   2    1.87    0.29
   0  -7   2    2.19    0.27
   0  -7  -2    2.26    0.32
   0   7  -3   13.02    0.75
   0   7   3   11.48    0.68
   0   7   3   11.88    0.76
   0  -7  -3   13.43    0.80
   0   7   4    1.81    0.28
   0   7  -4    1.90    0.27
   0   7   4    2.30    0.30
   0  -7  -4    2.12    0.34
   0   7  -5    0.75    0.22
   0   7   5    1.13    0.26
   0  -7  -5    1.05    0.31
   0   7   6    0.34    0.29
   0   7  -6   -0.06    0.20
   0  -7  -6   -0.13    0.28
   0   8   0    0.64    0.25
   0  -8   0    0.69    0.26
   0   8  -1    5.97    0.53
   0   8   1    6.07    0.52
   0  -8   1    5.26    0.50
   0  -8  -1    6.19    0.54
   0   8   2   17.95    1.04
   0   8  -2   18.69    1.04
   0  -8  -2   17.58    1.04
   0   8  -3    9.81    0.69
   0   8   3   10.59    0.69
   0   8   3    9.32    0.59
   0  -8  -3    9.43    0.71
   0   8   4    1.74    0.32
   0   8  -4    1.84    0.31
   0   8   4    1.71    0.29
   0  -8  -4    1.67    0.36
   0   8   5    0.31    0.25
   0   8  -5    0.01    0.24
   0  -8  -5    0.46    0.33
   0   9   0    0.12    0.28
   0  -9   0   -0.46    0.24
   0   9   1    0.66    0.32
   0   9  -1    0.86    0.30
   0  -9  -1    0.52    0.28
   0   9  -2   -0.17    0.26
   0   9   2   -0.09    0.27
   0  -9  -2   -0.36    0.27
   0   9   3    0.41    0.29
   0   9  -3    0.36    0.30
   0  -9  -3    0.81    0.33
  -1   0   9   -0.12    0.23
   1   0  -9    0.01    0.08
  -1   0   8    2.87    0.33
   1   0  -8    3.21    0.22
   1   0  -8    2.97    0.21
   1   0  -7    0.00    0.08
   1   0  -7    0.07    0.08
  -1   0   7    0.16    0.19
   1   0  -6    0.12    0.08
  -1   0   6    0.03    0.17
   1   0  -6    0.08    0.07
  -1   0   5   -0.09    0.13
   1   0  -5    0.03    0.06
   1   0  -5   -0.04    0.07
  -1   0   4  217.98    9.33
   1   0  -4  224.65    9.98
   1   0  -4  213.48    9.98
   1   0  -3   -0.06    0.04
  -1   0   3   -0.11    0.09
   1   0  -3   -0.05    0.04
   1   0  -1    0.00    0.01
   1   0  -1    0.00    0.01
  -1   0   1    0.00    0.01
  -1   0   1    0.00    0.01
  -1   0   0    0.00    0.00
  -1   0   0    0.00    0.00
   1   0   0    0.00    0.00
   1   0   0    0.00    0.00
   1   0   1   -0.18    0.02
   1   0   1   -0.24    0.04
   1   0   1   -0.25    0.02
  -1   0  -1   -0.26    0.01
  -1   0  -1   -0.21    0.03
  -1   0  -1   -0.26    0.02
   1   0   2    2.40    0.19
   1   0   2    2.34    0.13
  -1   0  -2    2.19    0.17
  -1   0  -2    2.36    0.15
  -1   0  -2    2.48    0.15
   1   0   2    2.81    0.14
  -1   0  -3    0.07    0.05
   1   0   3   -0.11    0.09
  -1   0  -3   -0.06    0.09
  -1   0  -3    0.07    0.05
  -1   0  -4   15.28    0.72
  -1   0  -4   14.75    0.71
   1   0   4   14.86    0.72
  -1   0  -5    0.03    0.08
   1   0   5   -0.28    0.14
  -1   0  -5   -0.01    0.06
  -1   0  -6    1.23    0.14
  -1   0  -6    1.21    0.12
   1   0   6    0.98    0.21
   1   0   7   -0.44    0.18
  -1   0  -7    0.02    0.10
  -1   0  -7    0.04    0.08
  -1   0  -8    6.26    0.37
   1   0   8    5.81    0.48
   1   0   9   -0.07    0.23
  -1   0  -9   -0.10    0.11
  -1  -1   9    2.90    0.35
   1  -1  -9    2.54    0.24
  -1   1   8    6.97    0.47
  -1  -1   8    6.03    0.45
   1  -1  -8    5.68    0.38
  -1   1   7    5.75    0.44
   1  -1  -7    5.88    0.35
  -1  -1   7    5.69    0.40
   1  -1  -7    4.78    0.32
  -1   1   6   60.07    2.60
  -1  -1   6   61.73    2.58
   1  -1  -6   54.05    2.69
   1  -1  -6   58.00    2.71
  -1   1   5   41.16    1.85
   1  -1  -5   40.84    1.91
   1  -1  -5   42.25    1.92
  -1  -1   5   40.10    1.82
  -1   1   4    9.88    0.52
  -1   1   4   10.01    0.48
   1  -1  -4   10.38    0.51
   1  -1  -4    9.68    0.50
  -1  -1   4   10.05    0.50
  -1   1   3   69.93    3.12
  -1   1   3   75.98    3.31
  -1  -1   3   71.77    3.11
   1  -1  -3   70.91    3.32
  -1   1   2  164.30    7.62
  -1   1   2  158.19    7.60
  -1   1   2  164.07    7.09
   1   1  -2  168.12    7.60
   1   1  -2  174.27    7.60
   1  -1  -2  169.26    7.67
  -1   1   1    3.42    0.27
  -1   1   1    4.48    0.28
   1   1  -1    4.22    0.26
  -1  -1   1    4.46    0.26
   1  -1  -1    4.22    0.28
  -1  -1   1    4.27    0.26
   1   1   1  632.35   30.20
   1   1   1  696.48   28.25
   1   1   1  672.63   30.22
  -1  -1  -1  618.66   30.20
  -1  -1  -1  657.00   30.22
  -1  -1  -1  695.38   28.23
  -1   1  -2  110.53    5.08
   1   1   2  111.03    5.08
  -1   1  -2  117.05    4.74
   1   1   2  105.47    4.76
  -1   1  -2  114.44    5.12
  -1  -1  -2  113.10    4.76
  -1  -1  -2  112.11    5.08
  -1  -1  -2  103.81    5.08
   1  -1   2  108.95    5.08
   1  -1   2  114.44    4.74
   1  -1   2  113.03    5.08
   1   1   3    5.32    0.32
  -1   1  -3    5.20    0.27
   1   1   3    5.52    0.29
  -1   1  -3    5.25    0.28
   1  -1   3    5.58    0.29
  -1  -1  -3    5.65    0.31
  -1  -1  -3    5.25    0.31
   1   1   4   43.64    2.12
  -1   1  -4   46.12    2.12
  -1   1  -4   43.81    2.12
   1   1   4   47.55    2.04
  -1  -1  -4   44.57    2.13
   1  -1   4   48.03    2.02
  -1  -1  -4   49.12    2.14
  -1   1  -5   42.66    1.98
  -1   1  -5   43.62    1.98
   1   1   5   40.72    1.92
  -1  -1  -5   41.92    2.00
  -1  -1  -5   44.39    2.01
   1  -1   5   43.92    1.90
  -1   1  -6    9.50    0.46
  -1   1  -6    9.56    0.47
   1   1   6    8.93    0.54
  -1  -1  -6    8.53    0.49
   1  -1   6    9.89    0.54
  -1  -1  -6    9.24    0.51
   1   1   7    1.57    0.27
  -1   1  -7    1.57    0.14
  -1   1  -7    1.72    0.14
  -1  -1  -7    1.51    0.18
   1  -1   7    2.00    0.26
  -1  -1  -7    1.45    0.18
   1   1   8   10.48    0.66
  -1   1  -8   10.23    0.52
  -1   1  -8   11.01    0.53
  -1  -1  -8   11.24    0.60
   1  -1   8   11.26    0.64
   1  -1   9    6.45    0.52
  -1  -1  -9    7.39    0.46
   1  -2  -9   -0.13    0.15
  -1  -2   9    0.38    0.20
  -1   2   8    0.93    0.27
  -1  -2   8    0.71    0.20
   1  -2  -8    0.47    0.17
  -1   2   7    1.85    0.29
   1  -2  -7    2.03    0.23
  -1  -2   7    1.92    0.23
  -1   2   6   12.51    0.69
  -1  -2   6   13.94    0.66
   1  -2  -6   11.72    0.66
   1  -2  -6   13.07    0.68
   1   2  -5    4.66    0.23
   1   2  -5    4.35    0.23
  -1   2   5    4.29    0.35
  -1   2   5    4.14    0.26
   1  -2  -5    4.23    0.32
  -1  -2   5    4.47    0.30
   1   2  -4   49.53    2.22
  -1   2   4   48.82    2.24
   1   2  -4   49.75    2.22
  -1   2   4   44.91    2.13
   1  -2  -4   44.81    2.25
  -1  -2   4   50.43    2.11
   1  -2  -4   49.90    2.26
   1   2  -3   -0.09    0.06
  -1   2   3   -0.15    0.11
  -1   2   3    0.12    0.08
   1   2  -3   -0.06    0.05
   1  -2  -3   -0.02    0.08
   1  -2  -3    0.11    0.11
  -1  -2   3   -0.06    0.07
  -1   2   2  926.37   41.04
   1   2  -2  900.88   40.93
  -1   2   2  923.79   38.36
   1  -2  -2  909.89   41.03
   1  -2  -2  827.21   40.95
   1   2  -1  235.84   10.90
   1   2  -1  243.44   10.96
  -1   2   1  242.07   10.98
  -1   2   1  241.98   10.19
  -1   2   1  230.89   10.92
   1  -2  -1  221.55   10.86
   1  -2  -1  253.08   11.03
  -1  -2   1  237.92   10.96
  -1   2   0   99.31    4.48
  -1   2   0   97.52    4.48
   1   2   0   98.59    4.48
   1   2   0  100.04    4.48
  -1  -2   0   88.13    4.47
   1  -2   0   92.10    4.47
  -1  -2   0  101.47    4.48
  -1  -2   0  103.28    4.19
   1  -2   0   99.16    4.48
   1   2   1  164.07    7.35
   1   2   1  155.83    6.85
  -1   2  -1  158.30    7.32
  -1   2  -1  162.08    7.29
   1   2   1  153.83    7.30
  -1  -2  -1  164.08    7.30
  -1  -2  -1  167.13    6.89
   1  -2   1  159.49    7.35
  -1  -2  -1  154.71    7.30
  -1   2  -2  192.13    8.98
   1   2   2  199.93    8.96
   1   2   2  193.03    8.31
  -1  -2  -2  195.08    8.90
  -1  -2  -2  197.79    8.31
   1  -2   2  201.22    8.34
  -1  -2  -2  188.42    8.90
   1  -2   2  191.81    8.93
  -1   2  -3   12.65    0.60
   1   2   3   12.05    0.61
   1   2   3   12.40    0.62
  -1   2  -3   12.39    0.60
   1  -2   3   13.39    0.57
  -1  -2  -3   11.51    0.62
  -1  -2  -3   12.09    0.61
  -1  -2  -3   12.42    0.63
   1   2   4    4.54    0.28
  -1   2  -4    4.43    0.26
   1   2   4    4.72    0.33
  -1   2  -4    5.02    0.26
   1  -2   4    4.88    0.29
  -1  -2  -4    4.89    0.32
  -1  -2  -4    4.48    0.30
   1   2   5   17.40    0.88
  -1   2  -5   17.08    0.85
  -1   2  -5   18.71    0.86
   1  -2   5   18.75    0.86
  -1  -2  -5   18.90    0.91
  -1   2  -6    7.66    0.39
   1   2   6    7.30    0.51
  -1   2  -6    8.08    0.39
   1  -2   6    7.99    0.46
  -1  -2  -6    8.47    0.48
  -1  -2  -6    6.46    0.43
  -1   2  -7    2.71    0.18
  -1   2  -7    2.90    0.18
   1   2   7    3.01    0.36
   1  -2   7    3.09    0.29
  -1  -2  -7    2.89    0.28
   1   2   8    7.00    0.53
   1  -2   8    5.62    0.44
  -1  -2  -8    6.30    0.44
   1  -2   9    0.41    0.23
  -1  -2  -9    0.48    0.19
  -1   3   8    3.59    0.41
   1  -3  -8    3.34    0.34
  -1  -3   8    3.25    0.31
  -1   3   7   28.34    1.40
   1  -3  -7   29.22    1.43
  -1  -3   7   28.40    1.32
  -1   3   6    3.69    0.36
   1   3  -6    3.74    0.22
   1   3  -6    3.73    0.23
  -1  -3   6    3.97    0.30
   1  -3  -6    3.87    0.34
   1   3  -5    0.53    0.09
  -1   3   5    0.25    0.19
  -1   3   5    0.18    0.12
   1   3  -5    0.55    0.10
  -1  -3   5    0.47    0.13
   1  -3  -5    0.51    0.17
   1  -3  -5    0.22    0.13
  -1   3   4    3.74    0.28
   1   3  -4    4.31    0.25
   1   3  -4    4.16    0.24
  -1   3   4    4.01    0.33
  -1  -3   4    4.23    0.25
   1  -3  -4    3.07    0.28
   1  -3  -4    3.99    0.32
  -1   3   3  143.30    6.48
   1   3  -3  150.26    6.46
  -1   3   3  141.77    6.06
   1   3  -3  134.65    6.46
  -1  -3   3  147.43    6.01
  -1  -3   3  140.94    6.44
   1  -3  -3  144.26    6.49
   1  -3  -3  127.61    6.48
   1   3  -2   21.43    1.01
   1   3  -2   20.49    1.00
  -1   3   2   20.74    0.96
  -1   3   2   21.65    1.02
   1  -3  -2   21.70    1.03
   1  -3  -2   19.01    1.02
  -1  -3   2   21.68    0.90
  -1  -3   2   21.44    1.00
  -1   3   1   51.64    2.39
   1   3  -1   48.35    2.38
  -1   3   1   51.28    2.22
   1   3  -1   53.47    2.38
   1  -3  -1   51.04    2.39
  -1  -3   1   52.66    2.19
  -1  -3   1   50.80    2.38
  -1   3   0   38.84    1.95
   1   3   0   42.77    1.96
   1   3   0   39.72    1.95
  -1   3   0   44.04    1.80
  -1   3   0   40.62    1.95
   1  -3   0   42.49    1.96
  -1  -3   0   43.40    1.80
  -1  -3   0   42.34    1.96
   1   3   1   41.77    1.91
  -1   3  -1   37.84    1.90
   1   3   1   40.21    1.77
  -1   3  -1   40.62    1.90
  -1  -3  -1   41.92    1.77
   1  -3   1   41.31    1.90
  -1  -3  -1   41.28    1.91
  -1   3  -2   16.74    0.85
   1   3   2   17.66    0.87
  -1   3  -2   18.05    0.86
   1   3   2   18.54    0.82
  -1  -3  -2   18.41    0.88
  -1  -3  -2   18.22    0.82
   1  -3   2   17.38    0.85
  -1  -3  -2   16.26    0.87
  -1   3  -3   91.79    4.03
   1   3   3   88.03    3.79
  -1   3  -3   86.74    4.02
   1   3   3   91.13    4.05
   1  -3   3   87.93    4.01
  -1  -3  -3   89.62    4.05
  -1  -3  -3   77.87    4.04
   1   3   4   27.28    1.27
   1   3   4   27.49    1.31
  -1   3  -4   28.48    1.29
  -1   3  -4   27.34    1.28
  -1  -3  -4   24.82    1.31
   1  -3   4   28.75    1.20
  -1  -3  -4   25.99    1.33
  -1   3  -5    0.72    0.11
  -1   3  -5    0.60    0.12
   1   3   5    0.34    0.19
   1   3   5    0.52    0.13
   1  -3   5    0.60    0.14
  -1  -3  -5    0.43    0.13
  -1  -3  -5    0.45    0.17
  -1   3  -6   21.39    1.01
  -1   3  -6   21.12    1.02
   1   3   6   21.00    1.07
   1  -3   6   20.82    0.99
  -1  -3  -6   21.93    1.09
  -1   3  -7   17.62    0.86
   1   3   7   16.73    0.94
  -1   3  -7   18.78    0.86
  -1  -3  -7   18.27    0.96
   1  -3   7   17.68    0.88
   1   3   8    0.80    0.28
  -1  -3  -8    0.78    0.22
   1  -3   8    0.07    0.18
   1  -4  -8    2.61    0.33
  -1   4   7    3.27    0.36
   1   4  -7    2.97    0.22
   1   4  -7    3.00    0.21
   1  -4  -7    2.43    0.32
  -1  -4   7    3.44    0.27
  -1   4   6    6.31    0.47
   1   4  -6    6.33    0.37
   1   4  -6    6.43    0.37
   1  -4  -6    6.92    0.48
  -1  -4   6    6.64    0.37
   1   4  -5    1.67    0.18
   1   4  -5    2.01    0.18
  -1   4   5    1.49    0.26
  -1   4   5    1.62    0.20
   1  -4  -5    1.94    0.26
  -1  -4   5    2.05    0.17
   1   4  -4  136.79    5.98
  -1   4   4  129.52    5.62
  -1   4   4  128.84    6.00
   1   4  -4  123.83    5.97
   1  -4  -4  131.21    6.01
  -1  -4   4  130.93    5.54
  -1   4   3   53.96    2.55
   1   4  -3   55.20    2.53
  -1   4   3   53.06    2.38
   1  -4  -3   54.88    2.56
  -1  -4   3   53.65    2.51
  -1   4   2   47.04    2.15
  -1   4   2   46.13    2.00
   1   4  -2   42.47    2.13
   1   4  -2   46.55    2.13
   1  -4  -2   45.30    2.15
  -1  -4   2   45.27    2.12
  -1   4   1   39.09    1.66
   1   4  -1   33.34    1.78
   1   4  -1   39.63    1.80
  -1   4   1   38.62    1.80
   1  -4  -1   38.46    1.80
  -1  -4   1   38.19    1.79
   1   4   0  356.92   17.04
  -1   4   0  377.51   15.80
  -1   4   0  382.85   17.05
   1  -4   0  363.89   17.03
  -1  -4   0  369.86   16.88
   1   4   1    0.95    0.17
   1   4   2    4.62    0.33
  -1   4  -2    4.28    0.31
   1   4   2    4.25    0.31
  -1   4  -2    4.35    0.29
  -1  -4  -2    4.34    0.35
   1  -4   2    4.34    0.30
   1   4   3   15.29    0.78
  -1   4  -3   15.29    0.76
  -1   4  -3   13.64    0.75
   1   4   3   15.58    0.75
  -1  -4  -3   16.09    0.81
   1  -4   3   14.56    0.74
   1   4   4    4.30    0.36
  -1   4  -4    3.64    0.28
  -1   4  -4    3.95    0.30
   1   4   4    4.16    0.32
  -1  -4  -4    4.26    0.36
  -1   4  -5    2.66    0.23
  -1   4  -5    2.92    0.25
   1   4   5    2.91    0.32
   1   4   5    2.96    0.27
  -1  -4  -5    2.66    0.29
  -1   4  -6    5.52    0.34
   1   4   6    5.94    0.47
  -1   4  -6    5.09    0.33
  -1  -4  -6    5.48    0.45
  -1   4  -7    2.53    0.21
   1   4   7    1.82    0.31
  -1  -4  -7    1.69    0.28
  -1   4  -8    1.24    0.13
  -1  -4  -8    1.49    0.28
   1   5  -8    1.80    0.17
   1  -5  -8    1.67    0.32
  -1   5   7    0.06    0.22
   1   5  -7    0.02    0.12
   1  -5  -7    0.01    0.22
  -1   5   6    5.70    0.48
   1   5  -6    5.66    0.38
   1  -5  -6    6.22    0.49
   1   5  -5   22.62    1.11
  -1   5   5   21.34    1.14
  -1   5   5   21.81    1.11
   1  -5  -5   24.03    1.19
  -1   5   4    1.73    0.25
   1   5  -4    1.79    0.21
  -1   5   4    1.82    0.24
   1  -5  -4    2.12    0.29
  -1  -5   4    1.63    0.17
  -1   5   3    7.76    0.47
  -1   5   3    8.02    0.51
   1   5  -3    7.28    0.46
   1   5  -3    7.90    0.48
  -1  -5   3    7.97    0.45
   1  -5  -3    8.57    0.53
  -1   5   2    0.77    0.16
  -1   5   2    1.02    0.20
   1   5  -2    0.65    0.15
   1   5  -2    1.10    0.19
   1  -5  -2    0.71    0.19
  -1  -5   2    1.06    0.17
  -1   5   1   27.33    1.21
   1   5  -1   26.24    1.33
  -1   5   1   26.59    1.33
   1  -5  -1   27.83    1.34
  -1  -5   1   27.09    1.32
  -1   5   0   53.86    2.32
   1   5   0   55.15    2.55
  -1   5   0   52.88    2.54
  -1  -5   0   54.31    2.55
   1  -5   0   53.46    2.55
   1   5   1   34.84    1.55
  -1   5  -1   35.95    1.69
   1   5   1   34.15    1.69
  -1  -5  -1   34.84    1.70
   1  -5   1   35.04    1.68
  -1   5  -2   22.99    1.07
  -1   5  -2   18.59    1.05
   1   5   2   22.02    1.08
   1   5   2   21.46    0.99
   1  -5   2   21.93    1.06
  -1  -5  -2   20.11    1.08
   1   5   3   26.82    1.24
   1   5   3   27.66    1.32
  -1   5  -3   23.88    1.28
  -1   5  -3   26.65    1.30
   1  -5   3   26.30    1.28
  -1  -5  -3   27.32    1.34
   1   5   4   10.11    0.59
  -1   5  -4   10.79    0.57
   1   5   4    9.71    0.59
  -1  -5  -4    9.85    0.63
   1  -5   4    9.12    0.51
   1   5   5   47.79    2.32
  -1   5  -5   50.08    2.30
   1   5   5   46.72    2.20
  -1  -5  -5   49.08    2.36
   1   5   6    0.04    0.21
  -1   5  -6   -0.03    0.13
  -1  -5  -6    0.13    0.23
   1   5   7    0.47    0.27
  -1   5  -7    0.25    0.14
  -1  -5  -7    0.31    0.23
   1   6  -7    0.23    0.16
   1  -6  -7    0.05    0.26
  -1   6   6    7.85    0.58
   1   6  -6    8.02    0.52
   1  -6  -6    8.62    0.64
   1   6  -5   16.85    0.89
  -1   6   5   17.31    0.90
  -1   6   5   15.65    0.92
   1  -6  -5   17.71    0.97
  -1   6   4   19.77    1.00
  -1   6   4   20.08    1.06
   1   6  -4   20.28    1.04
   1  -6  -4   20.11    1.09
   1   6  -3    3.63    0.33
  -1   6   3    3.40    0.33
  -1   6   3    4.15    0.34
   1  -6  -3    3.91    0.39
  -1  -6   3    3.67    0.32
   1   6  -2   28.16    1.33
  -1   6   2   25.90    1.21
  -1   6   2   25.99    1.33
  -1  -6   2   25.76    1.30
   1  -6  -2   25.35    1.34
  -1   6   1   25.10    1.32
  -1   6   1   25.99    1.19
   1   6  -1   27.71    1.33
  -1  -6   1   26.28    1.32
   1  -6  -1   26.57    1.33
   1   6   0   23.18    1.20
  -1   6   0   22.77    1.20
   1  -6   0   23.81    1.20
  -1  -6   0   24.27    1.20
  -1   6  -1   61.91    2.85
   1   6   1   58.95    2.84
   1  -6   1   59.77    2.83
  -1  -6  -1   58.98    2.85
   1   6   2   22.58    1.07
   1   6   2   22.58    1.17
  -1   6  -2   22.96    1.16
   1  -6   2   21.36    1.14
  -1  -6  -2   23.87    1.19
  -1   6  -3    7.84    0.53
   1   6   3    8.29    0.54
   1   6   3    8.41    0.50
  -1  -6  -3    8.24    0.58
   1  -6   3    7.86    0.50
   1   6   4    4.37    0.38
  -1   6  -4    4.14    0.37
   1   6   4    3.78    0.36
  -1  -6  -4    4.43    0.43
   1   6   5    0.37    0.24
   1   6   5    0.32    0.20
  -1   6  -5    0.10    0.17
  -1  -6  -5    0.21    0.24
  -1   6  -6    5.88    0.43
   1   6   6    5.84    0.51
  -1  -6  -6    5.88    0.53
  -1   6  -7    5.72    0.42
  -1  -6  -7    4.93    0.50
  -1   7   6    0.40    0.27
   1   7  -6    0.77    0.24
   1  -7  -6    0.51    0.30
   1   7  -5    0.87    0.22
  -1   7   5    1.09    0.26
   1  -7  -5    0.93    0.31
  -1   7   4    1.61    0.30
  -1   7   4    1.72    0.27
   1   7  -4    1.75    0.26
   1  -7  -4    1.63    0.31
  -1   7   3    5.78    0.47
   1   7  -3    5.09    0.45
  -1   7   3    5.16    0.40
   1  -7  -3    4.57    0.45
  -1   7   2    0.21    0.15
   1   7  -2    0.36    0.20
  -1   7   2    0.11    0.22
   1  -7  -2   -0.02    0.22
  -1  -7   2    0.03    0.18
  -1   7   1    3.19    0.34
   1   7  -1    3.82    0.37
  -1   7   1    3.32    0.25
  -1  -7   1    2.60    0.31
   1  -7  -1    3.13    0.35
  -1   7   0    6.18    0.49
   1   7   0    6.04    0.49
  -1  -7   0    6.54    0.48
   1  -7   0    5.80    0.48
  -1   7  -1    1.50    0.26
   1   7   1    1.35    0.27
   1  -7   1    1.51    0.25
  -1  -7  -1    1.45    0.26
   1   7   2    2.00    0.29
  -1   7  -2    1.80    0.27
   1  -7   2    1.71    0.26
  -1  -7  -2    2.12    0.32
   1   7   3   50.62    2.48
   1   7   3   49.56    2.29
  -1   7  -3   52.40    2.47
  -1  -7  -3   51.31    2.50
  -1   7  -4    1.30    0.25
   1   7   4    1.13    0.25
   1   7   4    1.36    0.27
  -1  -7  -4    1.04    0.30
  -1   7  -5    1.80    0.28
   1   7   5    2.20    0.32
  -1  -7  -5    2.14    0.36
  -1   7  -6   -0.10    0.19
  -1  -7  -6    0.21    0.29
  -1   8   5    1.81    0.31
   1   8  -5    0.71    0.28
   1  -8  -5    0.82    0.33
  -1   8   4    0.91    0.28
   1   8  -4    0.36    0.25
  -1   8   4    0.43    0.23
   1  -8  -4    0.96    0.31
  -1   8   3    5.31    0.50
   1   8  -3    6.40    0.54
  -1   8   3    5.21    0.43
   1  -8  -3    6.71    0.56
  -1   8   2    8.05    0.60
  -1   8   2    6.15    0.45
   1   8  -2    8.67    0.60
   1  -8  -2    7.60    0.61
  -1   8   1   10.06    0.70
   1   8  -1   10.48    0.70
  -1  -8   1    9.44    0.66
   1  -8  -1   10.60    0.70
   1   8   0    0.94    0.27
  -1   8   0    0.87    0.27
   1  -8   0    1.00    0.26
  -1  -8   0    0.34    0.24
  -1   8  -1    0.16    0.23
   1   8   1    0.55    0.25
   1  -8   1    0.21    0.22
  -1  -8  -1    0.56    0.26
  -1   8  -2   18.00    1.04
   1   8   2   19.10    1.06
  -1  -8  -2   18.05    1.06
   1   8   3    4.75    0.46
  -1   8  -3    5.52    0.49
  -1  -8  -3    5.49    0.51
   1   8   4    4.99    0.45
   1   8   4    4.95    0.47
  -1   8  -4    5.68    0.51
  -1  -8  -4    5.43    0.54
   1   8   5    0.80    0.29
  -1   8  -5    0.62    0.27
  -1  -8  -5    1.01    0.33
  -1   9   3    0.26    0.27
   1   9  -3    0.63    0.30
   1  -9  -3   -0.03    0.28
   1   9  -2   -0.44    0.26
  -1   9   2   -0.45    0.24
   1  -9  -2   -0.15    0.26
   1   9  -1    1.02    0.33
  -1   9   1    0.97    0.32
   1  -9  -1    0.90    0.31
   1   9   0   -0.11    0.27
  -1   9   0    0.41    0.30
  -1  -9   0    0.24    0.27
   1  -9   0    0.07    0.25
   1   9   1    3.41    0.44
  -1   9  -1    4.66    0.50
  -1  -9  -1    3.55    0.45
   1   9   2    0.09    0.28
  -1   9  -2    0.00    0.27
  -1  -9  -2   -0.03    0.28
   1   9   3    3.34    0.46
  -1   9  -3    3.84    0.45
  -1  -9  -3    4.29    0.51
  -2   0   9    0.13    0.23
   2   0  -8    1.71    0.15
   2   0  -8    1.69    0.16
  -2   0   8    2.17    0.29
   2   0  -7    0.06    0.08
   2   0  -7    0.03    0.08
  -2   0   7    0.09    0.19
  -2   0   6   22.43    1.07
   2   0  -6   21.45    1.05
   2   0  -6   23.16    1.05
  -2   0   5   -0.12    0.14
   2   0  -5    0.14    0.06
   2   0  -5    0.05    0.07
   2   0  -4  511.42   22.50
  -2   0   4  496.38   21.08
   2   0  -4  471.90   22.50
   2   0  -3   -0.02    0.04
   2   0  -3    0.05    0.04
  -2   0   2    0.12    0.05
   2   0  -2    0.10    0.07
   2   0  -2    0.13    0.07
  -2   0   2    0.15    0.05
  -2   0   1   -0.47    0.02
  -2   0   1   -0.23    0.04
   2   0  -1   -0.48    0.02
  -2   0   0   -0.04    0.02
  -2   0   0   -0.05    0.03
   2   0   0   -0.06    0.02
   2   0   0   -0.06    0.02
  -2   0  -1   -0.02    0.03
  -2   0  -1   -0.02    0.04
  -2   0  -1    0.02    0.05
   2   0   1    0.04    0.04
   2   0   1    0.04    0.04
   2   0   2  184.28    8.28
   2   0   2  181.34    7.74
  -2   0  -2  179.68    8.34
  -2   0  -2  185.69    7.70
   2   0   2  171.85    8.28
   2   0   3   -0.06    0.05
  -2   0  -3   -0.02    0.06
  -2   0  -3   -0.02    0.07
   2   0   3   -0.02    0.10
  -2   0  -3    0.00    0.10
  -2   0  -4   15.56    0.76
  -2   0  -4   15.61    0.76
  -2   0  -4   16.31    0.77
   2   0   4   16.06    0.76
   2   0   5   -0.20    0.16
  -2   0  -5    0.00    0.09
  -2   0  -5    0.03    0.07
  -2   0  -6    5.98    0.34
   2   0   6    6.06    0.41
  -2   0  -6    6.14    0.36
   2   0   7   -0.31    0.18
  -2   0  -7   -0.03    0.09
  -2   0  -7    0.07    0.10
   2   0   8    8.04    0.56
  -2   0  -8    8.59    0.48
  -2   0  -9   -0.10    0.12
   2  -1  -9    4.07    0.30
  -2  -1   9    3.40    0.37
  -2   1   8    4.72    0.41
  -2  -1   8    3.92    0.37
   2  -1  -8    3.74    0.30
  -2   1   7   15.09    0.82
   2  -1  -7   16.19    0.78
   2  -1  -7   14.44    0.76
  -2  -1   7   15.59    0.79
  -2   1   6    6.00    0.40
   2  -1  -6    5.49    0.35
   2  -1  -6    5.30    0.33
  -2  -1   6    6.03    0.40
  -2   1   5   53.81    2.37
  -2  -1   5   54.96    2.35
   2  -1  -5   54.50    2.48
   2  -1  -5   51.16    2.47
  -2   1   4    3.03    0.26
  -2   1   4    3.17    0.17
   2  -1  -4    3.02    0.20
   2  -1  -4    3.14    0.21
  -2  -1   4    2.85    0.23
   2   1  -3  237.51   10.73
  -2   1   3  234.60   10.80
   2  -1  -3  234.26   10.85
   2   1  -2    0.32    0.05
  -2   1   2    0.31    0.07
   2   1  -2    0.35    0.05
   2  -1  -2    0.28    0.08
   2  -1  -2    0.09    0.06
  -2   1   1  712.08   32.74
   2  -1  -1  715.73   32.75
   2  -1  -1  725.08   32.75
  -2   1   0   45.26    2.04
  -2  -1   0   41.93    2.04
   2  -1   0   45.73    2.04
   2   1   1   12.05    0.58
  -2   1  -1   11.50    0.57
   2   1   1   11.90    0.55
  -2   1  -1   12.10    0.58
   2   1   1   11.55    0.58
  -2  -1  -1   12.18    0.58
  -2  -1  -1   12.19    0.55
   2  -1   1   12.17    0.57
  -2  -1  -1   11.75    0.58
   2  -1   1   12.01    0.57
  -2   1  -2    3.26    0.20
   2   1   2    2.88    0.24
  -2   1  -2    2.94    0.18
   2   1   2    3.19    0.21
  -2   1  -2    3.25    0.20
  -2  -1  -2    3.44    0.22
   2  -1   2    3.39    0.21
   2  -1   2    3.01    0.19
  -2  -1  -2    3.17    0.22
   2  -1   2    3.38    0.18
  -2  -1  -2    3.13    0.20
  -2   1  -3   73.98    3.51
  -2   1  -3   77.80    3.30
   2   1   3   77.86    3.31
  -2   1  -3   74.33    3.50
   2   1   3   78.47    3.52
  -2  -1  -3   77.74    3.52
   2  -1   3   78.21    3.29
  -2  -1  -3   74.25    3.31
   2   1   4    8.50    0.45
  -2   1  -4    7.80    0.41
  -2   1  -4    7.26    0.39
  -2   1  -4    7.91    0.40
   2   1   4    7.18    0.39
  -2  -1  -4    7.53    0.42
  -2  -1  -4    8.06    0.42
   2  -1   4    8.13    0.41
  -2  -1  -4    6.14    0.39
  -2   1  -5    9.66    0.50
  -2   1  -5   10.22    0.51
   2   1   5    9.64    0.56
  -2  -1  -5   10.47    0.54
   2  -1   5    9.79    0.53
  -2  -1  -5    9.62    0.52
   2   1   6    9.14    0.54
  -2   1  -6    9.55    0.48
  -2   1  -6    9.01    0.46
  -2  -1  -6    8.61    0.51
  -2  -1  -6    8.51    0.49
   2  -1   6    9.97    0.53
  -2   1  -7    7.86    0.42
   2   1   7    7.17    0.53
  -2   1  -7    8.27    0.44
   2  -1   7    7.94    0.50
  -2  -1  -7    8.26    0.47
   2   1   8    6.61    0.53
  -2   1  -8    7.32    0.39
  -2  -1  -8    6.92    0.44
   2  -1   8    6.95    0.50
   2  -1   9   11.82    0.72
  -2  -1  -9   11.71    0.66
   2  -2  -9    0.39    0.18
  -2  -2   9    0.51    0.22
  -2   2   8    1.14    0.28
  -2  -2   8    0.78    0.20
   2  -2  -8    0.79    0.18
  -2   2   7    0.26    0.20
   2  -2  -7    0.09    0.14
  -2  -2   7    0.30    0.17
  -2   2   6  124.95    5.29
  -2  -2   6  126.86    5.25
   2  -2  -6  110.27    5.59
   2  -2  -6  125.75    5.61
  -2   2   5   42.11    2.00
   2   2  -5   45.02    2.04
  -2   2   5   42.50    2.07
   2   2  -5   46.19    2.04
  -2  -2   5   46.02    1.97
   2  -2  -5   45.49    2.10
  -2   2   4   60.34    2.79
  -2   2   4   59.31    2.65
   2   2  -4   60.82    2.76
   2   2  -4   62.47    2.76
   2  -2  -4   54.34    2.79
  -2  -2   4   63.95    2.62
   2  -2  -4   61.22    2.80
   2   2  -3  117.68    5.13
  -2   2   3  110.26    5.15
  -2   2   3  112.90    4.83
   2   2  -3  114.21    5.13
   2  -2  -3  112.58    5.16
   2  -2  -3  106.93    5.15
  -2   2   2  874.52   38.77
   2   2  -2  857.66   38.69
  -2  -2   2  865.10   38.67
   2  -2  -2  880.02   38.84
   2  -2  -2  763.88   38.72
  -2   2   1  295.99   14.25
  -2   2   1  318.64   14.30
   2   2  -1  308.33   14.27
   2   2  -1  313.92   14.28
   2  -2  -1  319.76   14.29
   2  -2  -1  289.99   14.20
  -2  -2   1  327.15   14.26
  -2   2   0   20.37    0.99
  -2   2   0   20.11    0.99
   2   2   0   20.03    1.00
   2   2   0   21.73    1.00
   2  -2   0   19.82    0.99
  -2  -2   0   22.48    0.92
   2  -2   0   21.78    1.00
  -2  -2   0   22.46    1.00
  -2  -2   0   19.71    0.99
  -2   2  -1   81.56    3.88
  -2   2  -1   82.36    3.88
   2   2   1   89.82    3.89
   2   2   1   88.15    3.63
  -2  -2  -1   80.46    3.88
   2  -2   1   86.67    3.88
  -2  -2  -1   82.69    3.89
  -2  -2  -1   85.31    3.63
   2   2   2  109.16    4.64
  -2   2  -2  108.93    4.95
   2   2   2  112.10    4.96
  -2   2  -2  112.69    4.61
  -2  -2  -2  105.94    4.64
  -2  -2  -2   99.94    4.96
  -2  -2  -2  106.52    4.96
   2  -2   2  109.90    4.94
  -2   2  -3   18.38    0.92
  -2   2  -3   20.93    0.93
  -2   2  -3   20.69    0.87
   2   2   3   19.33    0.91
   2   2   3   19.24    0.94
  -2  -2  -3   18.34    0.94
  -2  -2  -3   19.16    0.91
  -2  -2  -3   19.59    0.95
   2  -2   3   20.43    0.87
   2  -2   3   18.66    0.90
   2   2   4    7.80    0.42
  -2   2  -4    7.79    0.40
   2   2   4    7.28    0.46
  -2   2  -4    7.47    0.40
   2  -2   4    8.15    0.41
  -2  -2  -4    7.36    0.45
  -2  -2  -4    8.12    0.45
  -2  -2  -4    7.59    0.43
  -2   2  -5    3.05    0.21
   2   2   5    2.32    0.27
  -2   2  -5    2.85    0.19
   2   2   5    2.67    0.22
  -2  -2  -5    2.63    0.25
   2  -2   5    2.98    0.24
   2   2   6   13.65    0.76
  -2   2  -6   13.97    0.71
  -2   2  -6   14.53    0.71
  -2  -2  -6   15.18    0.77
   2  -2   6   15.01    0.73
  -2   2  -7    1.82    0.16
  -2   2  -7    2.02    0.17
   2   2   7    1.84    0.29
   2  -2   7    2.08    0.25
  -2  -2  -7    1.59    0.22
   2   2   8   14.89    0.83
  -2   2  -8   15.46    0.71
  -2   2  -8   14.27    0.71
  -2  -2  -8   14.14    0.81
   2  -2   8   15.58    0.80
  -2   3   8    7.11    0.55
  -2  -3   8    6.49    0.44
   2  -3  -8    6.46    0.48
  -2   3   7   11.73    0.69
  -2  -3   7   12.05    0.62
   2  -3  -7   11.11    0.67
   2   3  -6    6.61    0.33
  -2   3   6    5.97    0.46
   2   3  -6    6.13    0.33
  -2  -3   6    6.73    0.39
   2  -3  -6    6.36    0.44
   2   3  -5    4.65    0.27
  -2   3   5    4.58    0.31
   2   3  -5    4.89    0.27
  -2   3   5    4.27    0.37
   2  -3  -5    4.38    0.36
  -2  -3   5    5.13    0.30
   2  -3  -5    3.61    0.31
   2   3  -4   21.16    0.96
  -2   3   4   19.61    0.96
   2   3  -4   20.42    0.96
  -2   3   4   19.72    0.99
   2  -3  -4   20.24    1.01
   2  -3  -4   17.80    0.99
  -2  -3   4   21.95    0.91
  -2   3   3   22.30    1.07
   2   3  -3   21.10    1.04
  -2   3   3   21.56    1.01
   2   3  -3   22.83    1.04
  -2  -3   3   22.43    1.03
   2  -3  -3   22.94    1.08
   2  -3  -3   19.77    1.06
  -2   3   2   18.92    0.87
   2   3  -2   19.11    0.91
  -2   3   2   19.05    0.93
   2   3  -2   19.38    0.92
  -2  -3   2   19.54    0.91
   2  -3  -2   16.86    0.92
   2  -3  -2   19.79    0.94
   2   3  -1   34.39    1.58
   2   3  -1   32.08    1.58
  -2   3   1   33.76    1.59
  -2  -3   1   34.86    1.44
   2  -3  -1   32.14    1.58
  -2  -3   1   33.66    1.58
  -2   3   0  110.22    4.99
  -2   3   0   97.58    4.99
   2   3   0  108.74    4.99
   2   3   0  106.23    4.99
  -2  -3   0  113.54    4.64
  -2  -3   0  110.77    5.00
   2  -3   0  114.03    5.00
   2   3   1   39.26    1.66
   2   3   1   37.41    1.78
  -2   3  -1   38.34    1.78
  -2   3  -1   34.36    1.77
   2  -3   1   37.76    1.77
  -2  -3  -1   38.55    1.65
  -2  -3  -1   38.85    1.79
   2   3   2    6.78    0.37
   2   3   2    6.78    0.40
  -2   3  -2    7.43    0.39
  -2   3  -2    6.69    0.37
   2  -3   2    6.79    0.37
  -2  -3  -2    6.23    0.40
  -2  -3  -2    6.97    0.38
   2   3   3   30.70    1.38
  -2   3  -3   32.39    1.44
   2   3   3   29.31    1.45
  -2  -3  -3   30.17    1.37
  -2  -3  -3   26.51    1.45
   2  -3   3   31.93    1.42
  -2  -3  -3   31.14    1.47
   2   3   4    2.83    0.25
   2   3   4    2.88    0.27
  -2   3  -4    2.74    0.22
  -2   3  -4    2.88    0.21
  -2  -3  -4    2.80    0.24
  -2  -3  -4    2.71    0.26
  -2   3  -5    0.69    0.11
  -2   3  -5    0.74    0.12
   2   3   5    0.61    0.13
   2   3   5    0.60    0.21
  -2  -3  -5    0.70    0.15
  -2  -3  -5    0.63    0.18
   2   3   6   20.78    1.09
  -2   3  -6   21.07    1.06
  -2   3  -6   23.01    1.06
   2  -3   6   22.11    1.03
  -2  -3  -6   23.79    1.14
  -2   3  -7   21.63    1.02
  -2   3  -7   20.19    1.02
   2   3   7   21.38    1.10
  -2  -3  -7   21.92    1.11
  -2   3  -8    0.11    0.08
  -2  -3  -8    0.07    0.19
   2  -4  -8    6.19    0.51
  -2   4   7    7.75    0.53
   2   4  -7    6.92    0.40
   2   4  -7    7.79    0.40
  -2  -4   7    7.57    0.43
   2  -4  -7    7.70    0.54
   2   4  -6   23.50    1.16
  -2   4   6   25.63    1.21
   2   4  -6   25.09    1.17
   2  -4  -6   24.64    1.26
  -2  -4   6   23.78    1.11
  -2   4   5    0.23    0.20
   2   4  -5    0.15    0.10
  -2   4   5    0.02    0.13
   2   4  -5    0.23    0.11
  -2  -4   5    0.09    0.10
   2  -4  -5    0.01    0.17
   2   4  -4   81.91    3.96
  -2   4   4   85.20    3.75
  -2   4   4   83.42    3.99
   2   4  -4   87.41    3.97
  -2  -4   4   89.11    3.67
   2  -4  -4   88.51    4.01
  -2   4   3    0.87    0.17
   2   4  -3    0.68    0.14
  -2   4   3    0.55    0.16
   2   4  -3    0.64    0.12
  -2  -4   3    0.82    0.07
  -2  -4   3    0.80    0.12
   2  -4  -3    0.54    0.18
   2   4  -2  117.55    5.65
  -2   4   2  130.08    5.29
   2   4  -2  127.99    5.66
  -2   4   2  120.96    5.67
   2  -4  -2  124.56    5.68
  -2  -4   2  117.67    5.65
  -2   4   1   71.51    3.06
   2   4  -1   65.66    3.29
   2   4  -1   70.66    3.30
  -2   4   1   71.16    3.30
  -2  -4   1   71.62    3.03
  -2  -4   1   71.93    3.29
   2  -4  -1   74.25    3.31
   2   4   0   83.41    3.80
  -2   4   0   82.00    3.51
  -2   4   0   80.68    3.80
   2  -4   0   81.83    3.80
  -2  -4   0   80.26    3.80
  -2  -4   0   83.91    3.51
  -2   4  -2    5.19    0.35
   2   4   2    5.69    0.39
  -2   4  -2    5.79    0.37
   2   4   2    6.08    0.36
   2  -4   2    5.90    0.36
  -2  -4  -2    6.41    0.41
  -2  -4  -2    5.90    0.35
   2   4   3   12.03    0.66
  -2   4  -3   13.50    0.68
  -2   4  -3   12.30    0.67
   2   4   3   13.67    0.70
   2  -4   3   12.74    0.66
  -2  -4  -3   13.70    0.72
  -2  -4  -3   13.29    0.66
   2   4   4   47.22    2.22
  -2   4  -4   48.44    2.20
   2   4   4   47.81    2.11
  -2   4  -4   43.54    2.19
  -2  -4  -4   47.06    2.24
   2   4   5   10.01    0.59
   2   4   5   10.08    0.57
  -2   4  -5   10.21    0.55
  -2   4  -5    9.29    0.53
  -2  -4  -5   10.41    0.62
  -2   4  -6   10.97    0.58
   2   4   6   11.32    0.65
  -2  -4  -6   10.57    0.67
   2   4   7    3.19    0.39
  -2   4  -7    3.62    0.27
  -2  -4  -7    3.60    0.38
  -2   4  -8    6.87    0.39
  -2  -4  -8    7.61    0.57
   2   5  -8   -0.07    0.10
   2  -5  -8    0.41    0.25
   2   5  -7    0.03    0.12
  -2   5   7    0.16    0.24
   2  -5  -7    0.29    0.23
   2   5  -6    9.58    0.53
  -2   5   6    9.60    0.61
   2  -5  -6    9.96    0.64
  -2  -5   6    8.89    0.45
   2   5  -5   26.06    1.26
  -2   5   5   26.18    1.25
  -2   5   5   23.85    1.28
   2  -5  -5   26.26    1.32
  -2   5   4    0.02    0.18
   2   5  -4    0.00    0.13
   2   5  -4   -0.02    0.04
  -2   5   4    0.13    0.15
  -2  -5   4   -0.09    0.09
   2  -5  -4   -0.09    0.19
  -2   5   3    3.43    0.31
  -2   5   3    3.34    0.29
   2   5  -3    3.46    0.28
   2   5  -3    2.90    0.27
   2  -5  -3    3.90    0.35
  -2  -5   3    2.95    0.27
   2   5  -2    7.61    0.49
  -2   5   2    8.78    0.52
  -2   5   2    8.27    0.47
   2   5  -2    8.76    0.51
   2  -5  -2    8.90    0.55
  -2  -5   2    8.86    0.50
  -2   5   1   23.99    1.24
  -2   5   1   24.77    1.12
   2   5  -1   25.59    1.24
   2  -5  -1   24.84    1.25
  -2  -5   1   25.68    1.23
  -2   5   0   12.50    0.58
   2   5   0   12.84    0.70
  -2   5   0   12.71    0.70
   2  -5   0   12.16    0.69
  -2  -5   0   13.24    0.70
   2   5   1   98.82    4.67
  -2   5  -1   97.31    4.67
   2  -5   1  104.22    4.67
  -2  -5  -1  102.69    4.68
  -2   5  -2   37.58    1.72
  -2   5  -2   30.08    1.70
   2   5   2   36.63    1.73
   2   5   2   36.93    1.61
  -2  -5  -2   36.62    1.74
   2  -5   2   36.24    1.71
  -2   5  -3    6.06    0.43
   2   5   3    7.61    0.47
  -2   5  -3    7.24    0.46
   2   5   3    7.66    0.48
   2  -5   3    7.16    0.43
  -2  -5  -3    7.74    0.50
   2   5   4   15.25    0.83
  -2   5  -4   15.30    0.81
   2   5   4   16.19    0.81
  -2  -5  -4   15.22    0.87
  -2   5  -5   31.34    1.52
   2   5   5   31.09    1.54
   2   5   5   30.15    1.48
  -2  -5  -5   32.22    1.59
  -2   5  -6    0.76    0.18
   2   5   6    0.50    0.26
  -2  -5  -6    0.88    0.26
  -2   5  -7    0.13    0.14
  -2  -5  -7    0.39    0.24
   2   6  -7    0.61    0.18
   2  -6  -7    0.64    0.29
   2   6  -6    2.28    0.26
  -2   6   6    2.47    0.34
   2  -6  -6    3.42    0.38
  -2   6   5   12.97    0.78
   2   6  -5   14.41    0.76
  -2   6   5   13.06    0.75
   2  -6  -5   14.12    0.83
  -2   6   4   13.77    0.74
  -2   6   4   13.91    0.78
   2   6  -4   13.20    0.76
   2  -6  -4   14.04    0.82
   2   6  -3   29.84    1.49
  -2   6   3   31.29    1.52
  -2   6   3   30.16    1.39
  -2  -6   3   28.15    1.46
   2  -6  -3   31.40    1.53
   2   6  -2   14.80    0.77
  -2   6   2   13.97    0.78
  -2   6   2   12.60    0.68
  -2  -6   2   13.73    0.74
   2  -6  -2   13.30    0.79
   2   6  -1    1.19    0.24
  -2   6   1    1.11    0.23
  -2   6   0   15.03    0.83
  -2   6   0   14.74    0.68
   2   6   0   15.31    0.84
   2  -6   0   14.96    0.83
  -2  -6   0   14.92    0.83
   2   6   1   47.46    2.36
  -2   6  -1   50.79    2.36
  -2  -6  -1   48.70    2.37
   2  -6   1   49.59    2.35
   2   6   2    4.35    0.39
  -2   6  -2    4.34    0.37
   2   6   2    3.41    0.30
  -2  -6  -2    4.00    0.38
   2  -6   2    4.33    0.35
   2   6   3   13.62    0.79
  -2   6  -3   14.15    0.78
   2   6   3   13.70    0.73
   2  -6   3   13.17    0.74
  -2  -6  -3   14.73    0.82
  -2   6  -4   21.97    1.12
   2   6   4   21.79    1.13
   2   6   4   20.40    1.06
  -2  -6  -4   21.97    1.17
   2   6   5    0.75    0.24
  -2   6  -5    1.12    0.22
  -2  -6  -5    0.62    0.27
   2   6   6    3.40    0.40
  -2   6  -6    3.44    0.33
  -2  -6  -6    4.06    0.44
  -2   6  -7    4.19    0.38
  -2  -6  -7    4.61    0.48
   2   7  -6    1.58    0.26
  -2   7   6    1.36    0.30
   2  -7  -6    1.91    0.37
   2   7  -5   -0.04    0.18
  -2   7   5    0.24    0.22
   2  -7  -5    0.16    0.26
  -2   7   4   -0.19    0.20
   2   7  -4   -0.06    0.19
  -2   7   4    0.10    0.20
   2  -7  -4    0.00    0.24
   2   7  -3   10.30    0.64
  -2   7   3    8.92    0.56
  -2   7   3    9.79    0.64
   2  -7  -3   10.60    0.69
  -2   7   2    5.85    0.38
   2   7  -2    6.28    0.48
  -2   7   2    5.43    0.48
   2  -7  -2    5.74    0.50
  -2  -7   2    5.55    0.44
  -2   7   1   12.36    0.66
   2   7  -1   14.10    0.81
  -2   7   1   14.44    0.81
   2  -7  -1   14.03    0.81
  -2  -7   1   13.91    0.79
   2   7   0    6.59    0.51
  -2   7   0    6.60    0.51
  -2  -7   0    6.98    0.51
   2  -7   0    6.24    0.50
  -2   7  -1   18.17    0.99
   2   7   1   17.83    0.99
   2  -7   1   17.47    0.97
  -2  -7  -1   18.01    0.99
   2   7   2   12.95    0.78
  -2   7  -2   14.01    0.78
  -2  -7  -2   13.13    0.79
   2  -7   2   11.50    0.72
   2   7   3   62.96    2.93
  -2   7  -3   68.32    3.15
   2   7   3   63.71    3.16
  -2  -7  -3   69.63    3.19
   2   7   4    0.07    0.22
   2   7   4    0.20    0.21
  -2   7  -4   -0.03    0.19
  -2  -7  -4    0.01    0.24
  -2   7  -5    0.47    0.22
   2   7   5    0.63    0.26
  -2  -7  -5    0.42    0.27
  -2   7  -6    0.65    0.23
  -2  -7  -6    0.53    0.32
   2   8  -5    0.73    0.27
  -2   8   5    1.06    0.28
   2  -8  -5    0.92    0.35
  -2   8   4    1.53    0.27
   2   8  -4    0.78    0.27
  -2   8   4    1.18    0.29
   2  -8  -4    1.41    0.35
  -2   8   3    2.68    0.36
   2   8  -3    2.31    0.36
  -2   8   3    2.45    0.28
   2  -8  -3    2.70    0.38
   2   8  -2    5.41    0.48
  -2   8   2    4.05    0.35
  -2   8   2    4.48    0.46
   2  -8  -2    5.99    0.52
  -2   8   1   16.79    0.96
   2   8  -1   17.10    0.96
   2  -8  -1   16.21    0.94
  -2  -8   1   14.39    0.91
  -2   8   0    4.30    0.42
   2   8   0    4.29    0.44
   2  -8   0    4.07    0.42
  -2  -8   0    3.12    0.38
   2   8   1    2.17    0.35
  -2   8  -1    2.75    0.35
  -2  -8  -1    2.42    0.35
   2  -8   1    1.98    0.32
  -2   8  -2   11.49    0.75
   2   8   2   11.53    0.76
  -2  -8  -2   10.89    0.75
  -2   8  -3    0.43    0.27
   2   8   3    0.45    0.24
  -2  -8  -3    0.47    0.28
  -2   8  -4    6.70    0.56
   2   8   4    6.74    0.56
  -2  -8  -4    6.92    0.62
   2   9  -3   -0.33    0.26
  -2   9   3    0.09    0.25
   2  -9  -3   -0.10    0.28
   2   9  -2    0.56    0.30
  -2   9   2    0.54    0.28
   2  -9  -2    0.61    0.30
  -2   9   1    1.97    0.37
   2   9  -1    2.56    0.40
   2  -9  -1    2.43    0.39
   2   9   0    0.33    0.31
  -2   9   0    0.43    0.31
  -2  -9   0    0.56    0.29
   2  -9   0    0.41    0.28
   2   9   1   18.21    1.08
  -2   9  -1   16.90    1.06
  -2  -9  -1   18.61    1.08
  -2   9  -2    0.02    0.27
   2   9   2   -0.22    0.26
  -2  -9  -2   -0.21    0.25
   2   9   3    4.41    0.48
  -2   9  -3    4.60    0.50
  -2  -9  -3    4.68    0.54
  -3   0   9    0.27    0.24
   3   0  -8   32.61    1.54
   3   0  -8   33.13    1.54
  -3   0   8   33.56    1.57
  -3   0   7   -0.12    0.17
   3   0  -7   -0.01    0.07
   3   0  -7    0.05    0.08
   3   0  -6   61.48    2.90
  -3   0   6   63.48    2.79
   3   0  -6   64.54    2.90
   3   0  -5    0.00    0.06
  -3   0   5   -0.01    0.14
   3   0  -5    0.04    0.06
   3   0  -4  279.79   12.60
   3   0  -4  271.02   12.59
   3   0  -3   -0.07    0.05
   3   0  -3    0.02    0.05
  -3   0   2   34.83    1.68
  -3   0   2   36.53    1.67
   3   0  -2   37.89    1.68
   3   0  -2   36.71    1.68
  -3   0   1   -0.12    0.04
  -3   0   1   -0.08    0.04
   3   0  -1   -0.06    0.04
   3   0  -1   -0.05    0.05
  -3   0  -1   -0.19    0.07
  -3   0  -1   -0.27    0.06
   3   0   1   -0.33    0.05
   3   0   1   -0.14    0.07
  -3   0  -2  115.70    4.96
   3   0   2  122.06    5.30
   3   0   2  115.09    4.96
  -3   0  -2  110.77    5.30
   3   0   3   -0.09    0.06
   3   0   3   -0.08    0.12
  -3   0  -3   -0.06    0.05
  -3   0  -3   -0.02    0.11
  -3   0  -3   -0.08    0.08
   3   0   4  142.19    6.01
  -3   0  -4  139.35    6.01
  -3   0  -4  136.24    6.40
  -3   0  -4  146.15    6.40
   3   0   4  135.76    6.37
  -3   0  -5   -0.02    0.08
  -3   0  -5   -0.06    0.14
   3   0   5    0.32    0.18
  -3   0  -5   -0.02    0.10
  -3   0  -6   22.29    1.09
   3   0   6   22.59    1.10
  -3   0  -6   23.16    1.10
  -3   0  -7   -0.05    0.11
   3   0   7    0.00    0.19
  -3   0  -7    0.02    0.10
  -3   0  -8    9.69    0.56
   3   0   8   10.56    0.64
  -3   0  -9    0.15    0.14
   3  -1  -9    7.94    0.45
  -3  -1   9    7.08    0.53
  -3   1   8    6.62    0.53
   3  -1  -8    7.77    0.44
  -3  -1   8    7.71    0.51
  -3   1   7    0.39    0.21
   3  -1  -7    0.67    0.12
  -3  -1   7    0.52    0.19
   3  -1  -7    0.55    0.13
  -3   1   6    4.73    0.38
   3  -1  -6    5.05    0.31
   3  -1  -6    5.18    0.32
  -3  -1   6    5.51    0.37
  -3   1   5  120.78    5.40
   3  -1  -5  127.15    5.73
  -3  -1   5  122.62    5.38
   3  -1  -5  129.97    5.73
  -3   1   4   32.76    1.52
   3   1  -4   33.77    1.51
   3   1  -4   33.13    1.52
   3  -1  -4   31.01    1.54
   3  -1  -4   34.42    1.54
   3   1  -3   79.65    3.77
  -3   1   3   82.72    3.78
   3   1  -3   85.10    3.76
   3  -1  -3   82.60    3.78
  -3   1   2  245.49   11.24
   3   1  -2  254.56   11.21
   3   1  -2  240.43   11.24
  -3  -1   2  235.76   11.17
   3  -1  -2  237.40   11.22
  -3  -1   2  254.69   11.18
   3  -1  -2  244.84   11.23
   3   1  -1   90.77    4.12
   3   1  -1   90.88    4.13
  -3   1   1   89.66    4.13
  -3   1   1   95.34    4.13
  -3  -1   1   92.39    4.17
   3  -1  -1   92.23    4.18
   3  -1  -1   86.13    4.13
  -3  -1   1   84.50    4.12
   3   1   0   11.15    0.59
  -3   1   0   12.06    0.59
   3   1   0   13.09    0.59
  -3   1   0   12.56    0.59
   3  -1   0   11.82    0.59
   3  -1   0   11.93    0.59
  -3  -1   0   13.00    0.59
  -3  -1   0   11.86    0.59
  -3   1  -1  118.00    5.39
   3   1   1  112.40    5.33
   3   1   1  121.94    5.39
  -3   1  -1  110.85    5.32
  -3  -1  -1  120.68    4.98
  -3  -1  -1  114.87    5.33
   3  -1   1  106.05    5.32
  -3  -1  -1  122.79    5.33
   3  -1   1  121.48    5.36
   3   1   2  223.82    9.90
  -3   1  -2  207.01    9.80
  -3   1  -2  230.38    9.24
   3   1   2  204.49    9.15
   3  -1   2  217.86    9.84
  -3  -1  -2  221.62    9.90
  -3  -1  -2  207.28    9.84
  -3  -1  -2  207.59    9.16
  -3   1  -3    5.59    0.31
   3   1   3    5.51    0.31
  -3   1  -3    5.42    0.30
   3   1   3    4.63    0.32
  -3   1  -3    5.12    0.29
   3  -1   3    5.45    0.27
  -3  -1  -3    5.90    0.32
   3  -1   3    5.46    0.31
  -3  -1  -3    5.41    0.33
  -3  -1  -3    5.19    0.31
  -3   1  -4   76.07    3.26
  -3   1  -4   71.72    3.46
   3   1   4   73.29    3.46
  -3   1  -4   75.90    3.47
   3   1   4   77.89    3.28
  -3  -1  -4   77.71    3.48
  -3  -1  -4   70.91    3.27
   3  -1   4   78.09    3.26
   3   1   5   35.69    1.71
  -3   1  -5   37.80    1.77
  -3   1  -5   39.15    1.78
  -3  -1  -5   39.67    1.79
  -3  -1  -5   36.36    1.78
   3  -1   5   39.69    1.70
  -3  -1  -5   35.97    1.71
  -3   1  -6    8.77    0.46
  -3   1  -6    8.72    0.48
   3   1   6    9.41    0.54
   3  -1   6    9.25    0.52
  -3  -1  -6    8.32    0.48
  -3  -1  -6    8.08    0.50
  -3   1  -7   19.38    0.93
  -3   1  -7   18.37    0.91
   3   1   7   19.94    0.98
  -3  -1  -7   18.06    0.96
   3  -1   7   18.89    0.95
   3   1   8    7.99    0.58
  -3   1  -8    8.39    0.46
  -3  -1  -8    7.80    0.50
   3  -1   8    8.17    0.55
   3  -1   9   15.65    0.88
  -3  -1  -9   15.77    0.85
   3  -2  -9    1.92    0.24
  -3  -2   9    2.03    0.29
  -3   2   8   11.67    0.71
  -3  -2   8   10.99    0.64
   3  -2  -8   11.53    0.64
  -3   2   7    2.15    0.30
   3  -2  -7    1.74    0.21
  -3  -2   7    1.87    0.23
  -3   2   6  111.25    4.78
   3  -2  -6  113.94    5.06
   3  -2  -6  100.90    5.05
  -3  -2   6  113.24    4.74
  -3   2   5   -0.27    0.14
   3   2  -5    0.19    0.05
   3   2  -5    0.07    0.05
  -3   2   5    0.02    0.08
   3  -2  -5    0.01    0.03
  -3  -2   5    0.12    0.12
   3  -2  -5   -0.04    0.12
  -3   2   4   48.50    2.27
   3   2  -4   51.63    2.25
   3   2  -4   49.43    2.25
  -3   2   4   48.18    2.16
   3  -2  -4   44.83    2.28
   3  -2  -4   51.01    2.29
  -3   2   3    1.88    0.17
   3   2  -3    1.83    0.14
   3   2  -3    1.74    0.14
   3  -2  -3    1.95    0.16
   3  -2  -3    1.74    0.17
  -3   2   2  124.78    5.71
   3   2  -2  126.51    5.70
   3  -2  -2  129.67    5.72
  -3  -2   2  129.98    5.70
   3  -2  -2  112.98    5.71
   3   2  -1    9.73    0.49
   3   2  -1    9.40    0.48
  -3   2   1   10.00    0.50
  -3  -2   1   10.03    0.49
   3  -2  -1    9.38    0.49
   3  -2  -1    8.95    0.49
  -3   2   0   52.27    2.43
   3   2   0   52.22    2.43
   3   2   0   53.96    2.43
  -3   2   0   50.40    2.43
  -3  -2   0   52.52    2.43
   3  -2   0   55.25    2.43
  -3  -2   0   49.74    2.42
  -3   2  -1    4.17    0.27
  -3   2  -1    4.08    0.25
   3   2   1    3.86    0.27
  -3  -2  -1    4.53    0.29
   3  -2   1    4.38    0.26
  -3  -2  -1    3.99    0.26
  -3  -2  -1    4.40    0.25
   3   2   2    0.38    0.13
   3   2   2    0.59    0.11
  -3   2  -2    0.42    0.09
  -3   2  -2    0.47    0.08
  -3   2  -2    0.32    0.10
  -3  -2  -2    0.46    0.12
  -3  -2  -2    0.44    0.12
  -3  -2  -2    0.42    0.10
   3  -2   2    0.63    0.09
   3   2   3   62.31    2.96
  -3   2  -3   66.94    2.76
   3   2   3   62.62    2.79
  -3   2  -3   68.11    2.95
  -3   2  -3   62.64    2.94
  -3  -2  -3   58.93    2.96
  -3  -2  -3   65.13    2.79
  -3  -2  -3   64.77    2.97
   3  -2   3   63.56    2.93
  -3   2  -4    4.17    0.26
   3   2   4    3.88    0.27
   3   2   4    3.46    0.30
  -3   2  -4    3.91    0.25
  -3   2  -4    4.16    0.27
  -3  -2  -4    4.04    0.28
  -3  -2  -4    3.67    0.31
  -3  -2  -4    4.05    0.31
  -3   2  -5    2.62    0.22
   3   2   5    2.60    0.23
   3   2   5    3.11    0.31
  -3   2  -5    3.06    0.21
  -3  -2  -5    2.29    0.22
  -3  -2  -5    2.67    0.25
   3  -2   5    2.72    0.24
  -3  -2  -5    2.34    0.26
  -3   2  -6   26.03    1.28
  -3   2  -6   28.05    1.28
   3   2   6   25.92    1.29
  -3  -2  -6   27.66    1.33
   3  -2   6   26.51    1.25
  -3   2  -7    2.83    0.21
  -3   2  -7    2.68    0.22
   3   2   7    2.69    0.32
   3  -2   7    2.53    0.28
  -3  -2  -7    2.43    0.27
   3   2   8   14.24    0.85
  -3   2  -8   14.99    0.73
  -3  -2  -8   15.08    0.83
   3  -3  -9    0.12    0.19
  -3   3   8    7.23    0.57
  -3  -3   8    8.25    0.48
   3  -3  -8    7.31    0.52
  -3   3   7   22.12    1.12
   3  -3  -7   22.12    1.13
  -3  -3   7   22.06    1.05
   3   3  -6    5.47    0.29
   3   3  -6    5.62    0.29
  -3   3   6    5.41    0.43
  -3  -3   6    5.64    0.35
   3  -3  -6    4.89    0.39
   3   3  -5   39.53    1.72
  -3   3   5   37.47    1.70
   3   3  -5   36.19    1.72
  -3   3   5   36.35    1.75
   3  -3  -5   38.08    1.78
   3  -3  -5   31.79    1.76
  -3  -3   5   39.40    1.64
  -3   3   4   -0.08    0.11
   3   3  -4    0.31    0.09
  -3   3   4    0.07    0.16
   3   3  -4   -0.04    0.09
   3  -3  -4    0.00    0.11
   3  -3  -4   -0.03    0.13
   3   3  -3   93.20    4.24
  -3   3   3   90.55    3.99
  -3   3   3   91.02    4.25
   3   3  -3   95.97    4.24
   3  -3  -3   90.15    4.26
  -3  -3   3   92.47    4.22
   3   3  -2  163.82    8.09
  -3   3   2  178.05    8.11
   3   3  -2  181.88    8.09
  -3  -3   2  176.99    8.09
   3  -3  -2  185.02    8.11
   3   3  -1  280.88   12.59
   3   3  -1  266.14   12.54
  -3   3   1  282.25   12.62
  -3  -3   1  283.99   12.66
   3  -3  -1  261.40   12.68
   3   3   0   12.96    0.74
  -3   3   0   14.99    0.74
  -3   3   0   14.30    0.73
   3   3   0   15.06    0.74
  -3  -3   0   15.15    0.67
   3  -3   0   15.31    0.74
  -3  -3   0   15.25    0.75
  -3   3  -1    0.28    0.10
   3   3   1    0.15    0.11
  -3  -3  -1    0.40    0.10
  -3  -3  -1    0.30    0.13
   3  -3   1    0.18    0.10
   3   3   2    0.60    0.15
  -3   3  -2    0.64    0.12
   3   3   2    0.50    0.13
  -3   3  -2    0.56    0.07
  -3   3  -2    0.60    0.11
  -3  -3  -2    0.39    0.14
   3  -3   2    0.74    0.12
  -3  -3  -2    0.68    0.13
   3   3   3   91.76    4.18
   3   3   3   91.70    3.92
  -3   3  -3   91.34    4.16
  -3   3  -3   94.61    3.87
  -3  -3  -3   79.89    4.17
  -3  -3  -3   93.78    4.19
   3  -3   3   88.81    4.14
  -3  -3  -3   90.98    3.92
  -3   3  -4   -0.07    0.08
  -3   3  -4    0.03    0.10
   3   3   4    0.00    0.11
   3   3   4   -0.01    0.16
  -3  -3  -4    0.16    0.14
  -3  -3  -4    0.06    0.12
  -3  -3  -4   -0.08    0.15
  -3   3  -5    2.25    0.19
  -3   3  -5    1.88    0.17
   3   3   5    2.10    0.20
   3   3   5    1.36    0.24
  -3  -3  -5    1.50    0.19
  -3  -3  -5    1.62    0.23
   3   3   6   21.57    1.14
  -3   3  -6   25.01    1.13
  -3   3  -6   22.79    1.12
  -3  -3  -6   23.57    1.20
  -3   3  -7   37.08    1.73
   3   3   7   36.97    1.74
  -3  -3  -7   36.42    1.81
  -3   3  -8    0.34    0.12
  -3  -3  -8    0.29    0.21
   3  -4  -8    9.12    0.63
   3   4  -7    4.45    0.27
   3   4  -7    4.58    0.27
  -3   4   7    4.16    0.41
  -3  -4   7    4.28    0.32
   3  -4  -7    4.02    0.39
  -3   4   6   13.81    0.77
   3   4  -6   14.07    0.69
   3   4  -6   13.31    0.68
  -3  -4   6   13.58    0.66
   3  -4  -6   13.62    0.78
   3   4  -5   25.35    1.21
  -3   4   5   24.78    1.24
   3   4  -5   25.67    1.21
  -3   4   5   25.43    1.22
  -3  -4   5   25.46    1.13
   3  -4  -5   24.79    1.28
  -3   4   4  117.31    5.20
  -3   4   4  120.21    5.55
   3   4  -4  122.93    5.53
   3   4  -4  112.24    5.52
  -3  -4   4  123.63    5.13
   3  -4  -4  125.47    5.57
   3   4  -3    0.17    0.11
  -3   4   3   -0.13    0.14
  -3   4   3    0.36    0.15
   3   4  -3    0.25    0.13
  -3  -4   3    0.28    0.10
   3  -4  -3    0.05    0.16
   3   4  -2    5.90    0.37
   3   4  -2    6.44    0.39
  -3   4   2    6.02    0.36
  -3   4   2    5.83    0.40
  -3  -4   2    6.27    0.37
   3  -4  -2    6.48    0.42
   3   4  -1  141.55    6.42
  -3   4   1  144.12    6.43
  -3   4   1  141.05    5.97
   3   4  -1  125.85    6.41
  -3  -4   1  138.26    6.42
   3  -4  -1  145.08    6.43
  -3  -4   1  142.71    5.95
   3   4   0   51.82    2.42
  -3   4   0   51.46    2.42
  -3  -4   0   52.68    2.23
   3  -4   0   50.65    2.42
  -3  -4   0   51.33    2.42
  -3   4  -1    8.49    0.50
   3   4   1    8.90    0.51
  -3   4  -1    8.49    0.48
  -3  -4  -1    8.77    0.44
   3  -4   1    8.97    0.49
  -3  -4  -1    8.80    0.51
   3   4   2    0.44    0.16
   3   4   2    0.18    0.14
  -3   4  -2    0.18    0.12
  -3   4  -2    0.18    0.11
  -3  -4  -2    0.22    0.13
   3  -4   2    0.21    0.12
  -3  -4  -2    0.06    0.15
   3   4   3    0.01    0.17
  -3   4  -3   -0.04    0.12
   3   4   3   -0.01    0.13
  -3   4  -3    0.16    0.11
   3  -4   3   -0.14    0.10
  -3  -4  -3   -0.04    0.17
  -3  -4  -3    0.10    0.14
  -3   4  -4   20.02    0.99
   3   4   4   19.75    0.98
   3   4   4   18.92    1.01
  -3  -4  -4   22.31    1.05
  -3  -4  -4   18.67    0.97
   3   4   5   19.28    0.96
  -3   4  -5   19.77    0.95
   3   4   5   18.36    0.97
  -3   4  -5   17.39    0.93
  -3  -4  -5   19.71    1.01
   3   4   6   15.71    0.87
  -3   4  -6   16.75    0.83
  -3  -4  -6   15.70    0.90
   3   4   7    1.58    0.30
  -3   4  -7    0.76    0.15
  -3  -4  -7    0.46    0.22
  -3   4  -8    3.77    0.28
  -3  -4  -8    3.36    0.39
   3   5  -8    0.61    0.12
   3  -5  -8    0.76    0.27
  -3   5   7    1.21    0.29
   3   5  -7    1.06    0.16
   3  -5  -7    0.88    0.25
  -3   5   6    1.57    0.28
   3   5  -6    0.94    0.16
   3  -5  -6    0.86    0.24
  -3  -5   6    1.18    0.13
  -3   5   5   20.10    1.10
  -3   5   5   20.31    1.05
   3   5  -5   21.77    1.07
  -3  -5   5   21.74    0.94
   3  -5  -5   22.80    1.15
  -3   5   4    0.43    0.17
  -3   5   4    0.79    0.21
   3   5  -4    0.54    0.17
  -3  -5   4    0.74    0.13
   3  -5  -4    0.64    0.23
   3   5  -3   21.14    1.14
  -3   5   3   23.86    1.18
   3   5  -3   23.74    1.16
  -3   5   3   22.92    1.09
   3  -5  -3   24.85    1.20
  -3  -5   3   23.30    1.14
   3   5  -2   20.13    0.99
  -3   5   2   20.21    0.91
  -3   5   2   19.32    1.00
   3   5  -2   16.84    0.97
  -3  -5   2   19.77    0.84
   3  -5  -2   20.58    1.01
  -3  -5   2   19.11    0.98
  -3   5   1   41.49    1.83
   3   5  -1   41.00    1.99
  -3   5   1   41.45    2.00
   3  -5  -1   42.95    2.01
  -3  -5   1   43.00    1.99
  -3  -5   1   40.80    1.80
  -3   5   0    4.93    0.27
   3   5   0    5.00    0.38
  -3   5   0    5.56    0.39
   3  -5   0    5.60    0.39
  -3  -5   0    4.96    0.29
  -3  -5   0    5.14    0.38
  -3   5  -1   64.09    3.02
   3   5   1   63.13    3.02
  -3  -5  -1   65.19    3.03
  -3  -5  -1   63.46    2.79
   3  -5   1   65.32    3.01
   3   5   2    0.54    0.17
  -3   5  -2    0.57    0.17
   3   5   2    0.40    0.17
  -3   5  -2    0.62    0.15
  -3  -5  -2    0.53    0.14
  -3  -5  -2    0.61    0.20
   3  -5   2    0.72    0.16
  -3   5  -3    0.56    0.17
  -3   5  -3    0.42    0.14
   3   5   3    0.53    0.18
   3   5   3    0.66    0.20
  -3  -5  -3    0.58    0.23
   3  -5   3    0.55    0.15
  -3  -5  -3    0.60    0.16
  -3   5  -4   16.42    0.86
   3   5   4   16.85    0.86
   3   5   4   15.79    0.88
  -3  -5  -4   17.05    0.93
   3   5   5   37.51    1.89
  -3   5  -5   39.59    1.87
   3   5   5   38.16    1.81
  -3  -5  -5   40.66    1.94
  -3   5  -6    4.21    0.35
   3   5   6    4.86    0.44
  -3  -5  -6    4.80    0.45
  -3   5  -7    0.34    0.16
  -3  -5  -7    0.29    0.25
   3   6  -7    0.78    0.18
   3  -6  -7    0.52    0.27
   3   6  -6    7.47    0.49
  -3   6   6    7.58    0.56
   3  -6  -6    7.73    0.60
   3   6  -5    3.82    0.34
  -3   6   5    2.88    0.32
  -3   6   5    3.72    0.38
   3  -6  -5    3.37    0.38
  -3   6   4    9.94    0.65
  -3   6   4   10.71    0.62
   3   6  -4   10.91    0.63
   3  -6  -4   10.80    0.69
  -3   6   3   46.38    2.21
   3   6  -3   45.62    2.19
  -3   6   3   45.69    2.05
   3  -6  -3   46.66    2.23
  -3  -6   3   44.13    2.17
   3   6  -2   16.69    0.87
  -3   6   2   15.61    0.78
  -3   6   2   15.26    0.87
   3  -6  -2   17.29    0.90
  -3  -6   2   15.30    0.85
  -3   6   1    1.78    0.18
  -3   6   1    1.74    0.25
   3   6  -1    1.99    0.26
  -3  -6   1    1.80    0.24
   3  -6  -1    1.49    0.25
  -3   6   0   12.93    0.75
  -3   6   0   12.94    0.60
   3   6   0   12.68    0.75
   3  -6   0   13.11    0.75
  -3  -6   0   13.99    0.76
   3   6   1   14.94    0.83
  -3   6  -1   15.00    0.83
   3  -6   1   13.90    0.80
  -3  -6  -1   15.16    0.83
   3   6   2   28.41    1.45
  -3   6  -2   30.01    1.46
   3  -6   2   28.54    1.43
  -3  -6  -2   28.77    1.46
   3   6   3    8.85    0.57
   3   6   3    8.29    0.53
  -3   6  -3    9.14    0.56
   3  -6   3    8.46    0.53
  -3  -6  -3    9.60    0.62
  -3   6  -4   22.41    1.18
   3   6   4   23.42    1.21
   3   6   4   23.18    1.15
  -3  -6  -4   23.41    1.24
   3   6   5    1.48    0.31
  -3   6  -5    1.69    0.24
  -3  -6  -5    1.93    0.34
  -3   6  -6    2.92    0.30
   3   6   6    2.31    0.36
  -3  -6  -6    2.27    0.37
   3   7  -6    0.12    0.19
  -3   7   6    0.74    0.26
   3  -7  -6    0.21    0.29
  -3   7   5    1.36    0.27
   3   7  -5    0.80    0.22
   3  -7  -5    1.04    0.31
   3   7  -4    0.42    0.20
  -3   7   4    0.29    0.21
  -3   7   4    0.07    0.20
   3  -7  -4    0.31    0.25
   3   7  -3   13.03    0.76
  -3   7   3   11.59    0.76
  -3   7   3   12.71    0.68
   3  -7  -3   13.14    0.80
  -3   7   2   10.94    0.61
   3   7  -2   13.16    0.73
  -3   7   2   10.90    0.72
  -3  -7   2   12.07    0.69
   3  -7  -2   12.12    0.75
  -3   7   1   23.57    1.09
   3   7  -1   24.98    1.25
  -3   7   1   23.14    1.24
   3  -7  -1   24.82    1.26
  -3  -7   1   22.67    1.23
   3   7   0    4.99    0.44
  -3   7   0    5.77    0.47
   3  -7   0    4.40    0.41
  -3  -7   0    4.63    0.44
  -3   7  -1   25.07    1.35
   3   7   1   26.14    1.36
  -3  -7  -1   25.89    1.36
   3  -7   1   27.80    1.35
  -3   7  -2   -0.01    0.20
   3   7   2   -0.16    0.21
  -3  -7  -2    0.08    0.21
   3  -7   2    0.09    0.19
   3   7   3   28.53    1.49
  -3   7  -3   30.48    1.49
  -3  -7  -3   28.01    1.52
   3   7   4    4.03    0.41
  -3   7  -4    5.19    0.45
  -3  -7  -4    6.24    0.53
   3   7   5    0.23    0.26
  -3   7  -5    0.45    0.22
  -3  -7  -5    0.54    0.29
  -3   7  -6    3.20    0.35
  -3  -7  -6    2.98    0.46
   3   8  -5    2.27    0.34
  -3   8   5    2.18    0.33
   3  -8  -5    2.23    0.41
  -3   8   4    0.29    0.21
  -3   8   4   -0.08    0.23
   3   8  -4    0.10    0.23
   3  -8  -4   -0.34    0.26
   3   8  -3    2.21    0.34
  -3   8   3    1.97    0.34
  -3   8   3    2.52    0.29
   3  -8  -3    2.23    0.38
  -3   8   2   11.01    0.61
  -3   8   2   11.98    0.77
   3   8  -2   12.60    0.76
   3  -8  -2   10.94    0.77
  -3   8   1   15.40    0.90
   3   8  -1   15.57    0.90
  -3  -8   1   13.38    0.86
   3  -8  -1   15.37    0.90
  -3   8   0    4.14    0.42
   3   8   0    3.97    0.42
  -3  -8   0    3.88    0.42
   3  -8   0    3.55    0.40
   3   8   1   13.57    0.82
  -3   8  -1   12.29    0.80
  -3  -8  -1   13.21    0.81
   3  -8   1   12.16    0.78
  -3   8  -2   25.93    1.38
   3   8   2   26.27    1.39
  -3  -8  -2   25.15    1.39
  -3   8  -3    0.05    0.24
   3   8   3   -0.08    0.22
  -3  -8  -3    0.11    0.27
   3   8   4    5.62    0.51
  -3   8  -4    4.74    0.46
  -3  -8  -4    4.67    0.51
  -3   9   3    1.89    0.34
   3   9  -3    1.54    0.36
   3  -9  -3    1.04    0.35
   3   9  -2    0.57    0.31
  -3   9   2    0.29    0.27
   3  -9  -2    0.16    0.28
  -3   9   1    8.85    0.69
   3   9  -1    8.46    0.68
   3  -9  -1    8.18    0.67
  -3   9   0    5.27    0.52
   3   9   0    4.75    0.49
  -3  -9   0    3.73    0.45
   3  -9   0    5.01    0.49
  -3   9  -1   29.27    1.58
   3   9   1   30.36    1.59
  -3  -9  -1   28.86    1.58
  -3   9  -2    0.28    0.29
   3   9   2    0.73    0.32
  -3  -9  -2    0.78    0.33
  -4   0   9   -0.18    0.22
   4   0  -8   79.60    3.73
  -4   0   8   81.69    3.61
   4   0  -8   82.99    3.73
   4   0  -7    0.04    0.07
  -4   0   7   -0.42    0.17
   4   0  -7    0.05    0.08
   4   0  -6    6.47    0.34
  -4   0   6    6.44    0.43
   4   0  -6    6.28    0.34
   4   0  -5    0.02    0.07
   4   0  -5   -0.03    0.06
   4   0  -4  442.73   20.51
   4   0  -4  455.78   20.54
   4   0  -3    0.01    0.05
   4   0  -3    0.03    0.07
  -4   0   3   -0.04    0.04
   4   0  -2  308.32   14.83
  -4   0   2  336.86   14.79
  -4   0   1   -0.14    0.06
   4   0  -1   -0.09    0.06
  -4   0   1   -0.07    0.06
   4   0  -1   -0.06    0.06
  -4   0   0   33.08    1.60
  -4   0   0   34.60    1.60
   4   0   0   32.81    1.60
   4   0   0   34.96    1.60
   4   0   1   -0.40    0.07
  -4   0  -1   -0.32    0.09
   4   0   1   -0.22    0.09
  -4   0  -1   -0.24    0.08
  -4   0  -2    7.11    0.40
  -4   0  -2    7.06    0.40
   4   0   2    8.94    0.41
  -4   0  -2    7.43    0.39
  -4   0  -3   -0.15    0.11
   4   0   3   -0.06    0.07
   4   0   3   -0.09    0.07
  -4   0  -3   -0.02    0.08
  -4   0  -3   -0.01    0.02
   4   0   3    0.14    0.13
  -4   0  -4   67.03    3.13
   4   0   4   64.35    3.11
   4   0   4   68.82    2.96
  -4   0  -4   66.53    2.96
  -4   0  -4   72.07    3.14
  -4   0  -5   -0.16    0.08
  -4   0  -5   -0.19    0.14
  -4   0  -5    0.17    0.11
   4   0   5   -0.18    0.16
  -4   0  -6   67.24    3.00
   4   0   6   64.57    2.85
  -4   0  -6   61.29    2.98
   4   0   7    0.04    0.21
  -4   0  -7   -0.03    0.12
  -4   0  -8    6.21    0.42
   4   0   8    5.57    0.48
  -4  -1   9    4.41    0.41
   4  -1  -9    3.87    0.30
  -4   1   8    3.26    0.36
  -4  -1   8    4.26    0.37
   4  -1  -8    3.59    0.29
  -4   1   7   31.89    1.43
   4  -1  -7   27.54    1.42
  -4  -1   7   30.21    1.40
   4  -1  -7   30.85    1.43
  -4   1   6    8.18    0.48
   4  -1  -6    7.42    0.42
   4  -1  -6    7.08    0.41
  -4  -1   6    7.59    0.45
   4   1  -5   63.04    2.73
   4   1  -5   58.23    2.73
  -4   1   5   58.99    2.63
   4  -1  -5   60.59    2.76
   4  -1  -5   56.80    2.75
  -4   1   4   10.94    0.53
   4   1  -4   11.17    0.53
   4   1  -4   11.13    0.53
   4  -1  -4   10.99    0.55
   4  -1  -4   11.10    0.56
   4   1  -3   48.83    2.37
  -4   1   3   51.66    2.37
   4   1  -3   53.73    2.37
   4  -1  -3   51.83    2.38
  -4   1   2   27.34    1.25
   4   1  -2   27.11    1.25
  -4  -1   2   27.62    1.25
   4  -1  -2   26.53    1.26
   4  -1  -2   25.27    1.25
  -4   1   1    3.15    0.22
  -4   1   1    3.72    0.22
   4   1  -1    3.07    0.21
   4  -1  -1    2.91    0.22
  -4  -1   1    3.21    0.20
   4   1   0   -0.17    0.08
   4   1   0   -0.08    0.08
  -4   1   0   -0.09    0.08
  -4   1   0   -0.08    0.08
  -4  -1   0   -0.19    0.07
   4  -1   0   -0.16    0.08
  -4  -1   0   -0.13    0.08
   4  -1   0   -0.22    0.07
  -4   1  -1    2.20    0.19
   4   1   1    2.57    0.21
  -4   1  -1    2.40    0.22
  -4  -1  -1    2.28    0.20
  -4  -1  -1    2.43    0.20
   4  -1   1    2.84    0.20
  -4  -1  -1    2.75    0.20
  -4   1  -2   -0.11    0.08
  -4   1  -2    0.04    0.09
   4   1   2    0.03    0.09
  -4   1  -2   -0.03    0.06
  -4  -1  -2    0.13    0.11
   4  -1   2   -0.02    0.07
  -4  -1  -2    0.05    0.09
  -4  -1  -2    0.04    0.08
  -4   1  -3   11.46    0.60
  -4   1  -3   11.66    0.57
   4   1   3   12.30    0.60
   4   1   3   12.01    0.60
  -4  -1  -3   10.92    0.59
  -4  -1  -3   11.89    0.61
   4  -1   3   11.73    0.57
  -4  -1  -3   11.96    0.58
  -4   1  -4   33.06    1.47
   4   1   4   32.98    1.48
   4   1   4   31.35    1.54
  -4   1  -4   33.91    1.55
  -4   1  -4   30.97    1.54
   4  -1   4   35.23    1.47
  -4  -1  -4   33.63    1.56
  -4  -1  -4   30.37    1.48
   4   1   5   64.66    3.16
  -4   1  -5   69.02    3.01
   4   1   5   68.28    3.02
  -4   1  -5   71.68    3.19
  -4   1  -5   66.34    3.18
  -4  -1  -5   68.89    3.20
   4  -1   5   74.83    3.01
  -4  -1  -5   66.49    3.02
  -4   1  -6    8.29    0.46
   4   1   6    8.88    0.53
  -4   1  -6    8.86    0.49
  -4  -1  -6    8.60    0.50
   4  -1   6    8.45    0.51
  -4  -1  -6    7.97    0.47
  -4   1  -7   32.03    1.52
   4   1   7   32.97    1.51
   4  -1   7   31.16    1.48
  -4  -1  -7   30.20    1.53
   4   1   8    2.92    0.38
  -4   1  -8    3.77    0.30
  -4  -1  -8    3.63    0.34
   4  -2  -9    0.19    0.17
  -4  -2   9    0.81    0.22
  -4   2   8   16.91    0.91
   4  -2  -8   16.59    0.86
  -4  -2   8   15.79    0.85
  -4   2   7    3.16    0.34
   4  -2  -7    3.93    0.32
  -4  -2   7    3.93    0.33
  -4   2   6   64.82    2.79
   4  -2  -6   63.24    2.92
   4  -2  -6   57.10    2.90
  -4  -2   6   65.20    2.75
   4   2  -5    1.93    0.14
  -4   2   5    1.68    0.25
   4   2  -5    2.08    0.14
  -4   2   5    1.88    0.16
   4  -2  -5    1.82    0.20
  -4   2   4    0.77    0.12
   4   2  -4    0.79    0.09
   4   2  -4    0.77    0.09
   4  -2  -4    0.61    0.13
   4  -2  -4    0.74    0.12
  -4   2   3   78.53    3.66
   4   2  -3   84.83    3.65
   4   2  -3   80.39    3.65
   4  -2  -3   82.38    3.67
  -4  -2   3   76.07    3.63
   4  -2  -3   75.41    3.67
  -4   2   2   26.21    1.20
   4   2  -2   26.44    1.19
  -4  -2   2   25.37    1.19
   4  -2  -2   23.78    1.20
   4  -2  -2   24.25    1.20
   4   2  -1    0.99    0.12
   4   2  -1    0.84    0.11
  -4   2   1    0.96    0.14
   4  -2  -1    0.93    0.12
   4  -2  -1    1.02    0.13
  -4  -2   1    0.98    0.12
   4   2   0   89.26    4.19
  -4   2   0   86.67    4.19
  -4   2   0   89.65    4.19
   4   2   0   94.98    4.19
   4  -2   0   91.38    4.19
  -4  -2   0   94.69    4.20
  -4   2  -1    0.16    0.10
  -4   2  -1    0.21    0.09
   4   2   1    0.33    0.10
  -4  -2  -1    0.08    0.10
  -4  -2  -1    0.20    0.10
   4  -2   1    0.45    0.10
  -4  -2  -1    0.29    0.10
  -4   2  -2   72.06    3.00
  -4   2  -2   69.38    3.23
  -4   2  -2   66.23    3.22
   4   2   2   72.11    3.24
   4   2   2   68.66    3.03
  -4  -2  -2   69.20    3.03
   4  -2   2   71.76    3.22
  -4  -2  -2   65.05    3.23
  -4  -2  -2   75.06    3.25
   4   2   3    0.27    0.10
  -4   2  -3    0.01    0.02
   4   2   3   -0.07    0.15
  -4   2  -3    0.15    0.10
  -4   2  -3    0.06    0.10
  -4  -2  -3    0.13    0.10
  -4  -2  -3    0.15    0.13
   4  -2   3    0.22    0.08
  -4  -2  -3    0.12    0.12
   4   2   4   35.58    1.72
  -4   2  -4   41.28    1.80
   4   2   4   39.15    1.80
  -4   2  -4   35.86    1.78
  -4   2  -4   39.22    1.69
  -4  -2  -4   37.45    1.72
  -4  -2  -4   35.84    1.80
  -4  -2  -4   40.45    1.82
  -4   2  -5    2.09    0.19
  -4   2  -5    2.34    0.23
   4   2   5    2.07    0.20
   4   2   5    1.82    0.25
  -4   2  -5    1.87    0.18
  -4  -2  -5    2.11    0.23
  -4  -2  -5    1.66    0.20
  -4  -2  -5    1.87    0.25
   4   2   6   28.55    1.39
  -4   2  -6   27.97    1.40
  -4   2  -6   30.97    1.41
  -4  -2  -6   30.06    1.45
  -4   2  -7    0.59    0.14
   4   2   7    0.62    0.25
  -4  -2  -7    0.78    0.19
   4   2   8   16.54    0.95
  -4   2  -8   17.24    0.85
  -4  -2  -8   16.90    0.93
   4  -3  -9    0.88    0.23
  -4   3   8    7.22    0.57
  -4  -3   8    7.22    0.47
   4  -3  -8    7.89    0.52
  -4   3   7   35.33    1.69
  -4  -3   7   36.21    1.62
   4  -3  -7   35.70    1.75
  -4   3   6    4.80    0.43
   4   3  -6    5.62    0.30
   4   3  -6    5.59    0.30
  -4  -3   6    6.25    0.37
   4  -3  -6    5.44    0.41
  -4   3   5   36.77    1.73
   4   3  -5   36.32    1.70
  -4   3   5   35.35    1.67
   4   3  -5   38.35    1.70
  -4  -3   5   39.42    1.63
   4  -3  -5   32.47    1.74
   4  -3  -5   36.72    1.76
   4   3  -4   12.50    0.62
   4   3  -4   12.87    0.62
  -4   3   4   12.61    0.65
  -4   3   4   12.85    0.65
   4  -3  -4   12.49    0.67
   4  -3  -4   11.25    0.65
   4   3  -3  180.16    7.81
  -4   3   3  171.82    7.82
  -4  -3   3  172.08    7.80
   4  -3  -3  152.29    7.82
   4  -3  -3  177.60    7.83
  -4   3   2    1.04    0.16
   4   3  -2    1.05    0.13
   4   3  -2    0.84    0.12
   4  -3  -2    0.64    0.14
  -4  -3   2    1.10    0.13
  -4   3   1   31.29    1.48
   4   3  -1   27.75    1.46
   4   3  -1   31.72    1.47
  -4  -3   1   33.13    1.48
   4  -3  -1   31.14    1.48
   4   3   0   41.04    1.99
  -4   3   0   41.65    2.00
  -4  -3   0   43.83    1.85
  -4  -3   0   43.88    2.00
   4  -3   0   42.08    1.99
  -4   3  -1   85.01    3.85
  -4   3  -1   77.54    3.85
   4   3   1   82.26    3.86
   4  -3   1   84.45    3.85
  -4  -3  -1   88.28    3.87
  -4  -3  -1   83.23    3.59
  -4   3  -2   70.58    3.44
  -4   3  -2   75.92    3.45
   4   3   2   71.18    3.23
   4   3   2   74.67    3.46
  -4   3  -2   77.12    3.19
  -4  -3  -2   76.99    3.47
   4  -3   2   74.64    3.44
  -4  -3  -2   75.17    3.23
  -4   3  -3   40.33    2.09
  -4   3  -3   45.09    2.11
   4   3   3   45.47    2.12
  -4   3  -3   46.59    1.95
   4   3   3   44.68    2.00
  -4  -3  -3   45.67    2.13
  -4  -3  -3   45.75    2.00
   4  -3   3   45.23    2.09
  -4   3  -4    0.01    0.09
  -4   3  -4    0.01    0.10
   4   3   4    0.01    0.12
   4   3   4    0.01    0.17
  -4   3  -4   -0.04    0.11
  -4  -3  -4   -0.02    0.12
  -4  -3  -4    0.11    0.16
  -4  -3  -4   -0.04    0.14
   4   3   5   13.83    0.74
  -4   3  -5   14.64    0.72
   4   3   5   14.12    0.74
  -4   3  -5   13.80    0.71
  -4  -3  -5   13.20    0.77
   4   3   6    9.90    0.62
  -4   3  -6   10.07    0.56
  -4   3  -6   10.85    0.57
  -4  -3  -6   11.28    0.65
  -4   3  -7   36.44    1.69
   4   3   7   35.81    1.70
  -4  -3  -7   34.17    1.76
  -4   3  -8    3.10    0.26
  -4  -3  -8    2.87    0.34
   4  -4  -8   10.47    0.67
   4   4  -7    6.25    0.34
   4   4  -7    5.91    0.34
  -4   4   7    5.89    0.49
   4  -4  -7    5.59    0.47
  -4  -4   7    5.94    0.38
  -4   4   6    9.23    0.59
   4   4  -6    8.96    0.48
   4   4  -6    9.34    0.49
   4  -4  -6    9.32    0.59
  -4  -4   6    9.00    0.48
  -4   4   5   41.41    2.00
   4   4  -5   43.26    1.98
   4   4  -5   41.01    1.97
  -4   4   5   39.91    1.91
   4  -4  -5   41.94    2.03
  -4  -4   5   44.44    1.84
  -4   4   4   18.50    0.90
  -4   4   4   18.60    0.93
   4   4  -4   16.67    0.89
   4   4  -4   18.83    0.90
   4  -4  -4   18.20    0.95
  -4   4   3   10.95    0.60
   4   4  -3   10.23    0.57
  -4   4   3   10.44    0.57
   4   4  -3   11.55    0.58
   4  -4  -3   10.40    0.61
  -4  -4   3   10.63    0.56
   4   4  -2    0.59    0.13
   4   4  -2    0.67    0.15
  -4   4   2    0.77    0.17
  -4  -4   2    0.80    0.14
   4  -4  -2    0.64    0.16
  -4   4   1   64.84    2.95
   4   4  -1   63.30    2.94
   4   4  -1   58.26    2.94
  -4  -4   1   64.16    2.71
  -4  -4   1   63.30    2.94
   4  -4  -1   64.32    2.95
  -4   4   0   28.00    1.34
   4   4   0   28.12    1.34
   4  -4   0   26.95    1.33
  -4  -4   0   27.16    1.22
  -4  -4   0   27.22    1.34
   4   4   1   85.34    3.92
  -4   4  -1   84.78    3.91
  -4  -4  -1   84.06    3.64
  -4  -4  -1   81.70    3.92
   4  -4   1   85.86    3.91
  -4   4  -2    7.93    0.49
  -4   4  -2    9.27    0.40
  -4   4  -2    8.27    0.51
   4   4   2    9.76    0.52
  -4  -4  -2    8.82    0.48
  -4  -4  -2    9.27    0.54
   4  -4   2    8.32    0.49
   4   4   3    6.83    0.46
   4   4   3    7.63    0.46
  -4   4  -3    7.41    0.45
  -4   4  -3    6.72    0.42
  -4  -4  -3    7.52    0.44
  -4  -4  -3    7.13    0.48
   4  -4   3    7.20    0.41
   4   4   4   27.76    1.35
   4   4   4   27.12    1.29
  -4   4  -4   27.49    1.33
  -4  -4  -4   25.42    1.27
   4  -4   4   26.72    1.29
  -4  -4  -4   28.93    1.38
   4   4   5    5.55    0.39
   4   4   5    5.45    0.45
  -4   4  -5    5.14    0.37
  -4  -4  -5    5.66    0.45
   4   4   6   12.42    0.76
  -4   4  -6   13.94    0.71
  -4  -4  -6   13.44    0.79
  -4   4  -7    0.14    0.14
   4   4   7    0.05    0.24
  -4  -4  -7    0.23    0.22
  -4   4  -8    1.46    0.19
  -4  -4  -8    1.54    0.31
   4   5  -8    0.62    0.12
   4  -5  -8    1.09    0.28
   4   5  -7    0.07    0.12
  -4   5   7    0.37    0.25
   4  -5  -7   -0.11    0.21
  -4   5   6    0.12    0.19
   4   5  -6   -0.07    0.12
  -4  -5   6    0.03    0.10
   4  -5  -6    0.04    0.20
   4   5  -5   30.66    1.47
  -4   5   5   28.45    1.49
  -4   5   5   29.33    1.43
   4  -5  -5   31.71    1.53
  -4  -5   5   30.97    1.32
  -4   5   4   38.79    1.78
  -4   5   4   38.71    1.89
   4   5  -4   39.51    1.87
   4  -5  -4   41.77    1.92
  -4  -5   4   36.93    1.84
  -4  -5   4   39.29    1.68
  -4   5   3   44.75    1.96
   4   5  -3   43.93    2.09
   4   5  -3   38.58    2.07
  -4   5   3   45.98    2.11
  -4  -5   3   42.76    2.07
   4  -5  -3   47.81    2.13
   4   5  -2   19.74    1.14
  -4   5   2   22.50    1.06
   4   5  -2   25.29    1.16
   4  -5  -2   23.38    1.17
  -4  -5   2   24.32    1.01
  -4  -5   2   23.32    1.15
  -4   5   1   23.00    1.16
   4   5  -1   22.70    1.16
  -4   5   1   23.14    1.05
  -4  -5   1   23.91    1.16
  -4  -5   1   23.04    1.03
   4  -5  -1   23.24    1.17
   4   5   0    0.40    0.18
  -4   5   0    0.59    0.19
  -4   5   0    0.28    0.09
   4  -5   0    0.48    0.18
  -4  -5   0    0.40    0.11
  -4  -5   0    0.53    0.18
   4   5   1  104.50    4.74
  -4   5  -1  104.31    4.34
  -4   5  -1  101.32    4.73
  -4  -5  -1  101.03    4.74
  -4  -5  -1  101.83    4.39
   4  -5   1   98.45    4.72
   4   5   2    2.32    0.26
  -4   5  -2    2.48    0.26
  -4  -5  -2    2.66    0.24
   4  -5   2    2.47    0.24
  -4  -5  -2    2.22    0.27
  -4   5  -3    2.43    0.25
   4   5   3    2.13    0.27
  -4   5  -3    2.03    0.24
   4   5   3    2.67    0.29
  -4  -5  -3    2.01    0.28
   4  -5   3    2.27    0.23
  -4  -5  -3    2.55    0.26
  -4   5  -4   35.36    1.69
   4   5   4   32.80    1.61
   4   5   4   34.03    1.70
  -4  -5  -4   36.36    1.74
   4   5   5   49.50    2.49
   4   5   5   52.23    2.37
  -4   5  -5   53.91    2.47
  -4  -5  -5   52.31    2.53
   4   5   6    0.59    0.26
  -4   5  -6    0.78    0.18
  -4  -5  -6    0.16    0.22
  -4   5  -7    0.45    0.17
  -4  -5  -7    0.30    0.25
   4   6  -7    1.41    0.21
   4  -6  -7    0.94    0.30
  -4   6   6    9.19    0.61
   4   6  -6    8.76    0.55
   4  -6  -6    9.28    0.66
   4   6  -5   -0.12    0.16
  -4   6   5   -0.19    0.17
  -4   6   5    0.03    0.20
   4  -6  -5   -0.31    0.22
  -4   6   4    5.79    0.47
   4   6  -4    6.19    0.45
  -4   6   4    6.79    0.44
   4  -6  -4    5.66    0.51
  -4   6   3   29.50    1.44
  -4   6   3   27.40    1.31
   4   6  -3   27.39    1.41
  -4  -6   3   27.23    1.39
   4  -6  -3   30.88    1.46
   4   6  -2   23.27    1.16
  -4   6   2   21.29    1.04
  -4   6   2   23.09    1.17
  -4  -6   2   21.84    1.13
   4  -6  -2   22.82    1.18
  -4   6   1    3.97    0.27
   4   6  -1    3.62    0.34
  -4   6   1    4.22    0.36
  -4  -6   1    3.73    0.23
   4  -6  -1    3.49    0.34
  -4  -6   1    3.95    0.35
  -4   6   0   19.38    0.92
  -4   6   0   22.08    1.09
   4   6   0   21.19    1.09
  -4  -6   0   20.66    1.08
   4  -6   0   21.32    1.08
  -4  -6   0   19.90    0.94
   4   6   1    1.90    0.27
  -4   6  -1    2.17    0.27
  -4  -6  -1    2.55    0.30
  -4  -6  -1    2.47    0.21
   4  -6   1    2.12    0.25
  -4   6  -2   39.50    1.83
   4   6   2   37.45    1.83
   4  -6   2   37.89    1.80
  -4  -6  -2   33.42    1.67
  -4  -6  -2   37.53    1.84
  -4   6  -3   24.97    1.26
   4   6   3   24.81    1.27
  -4  -6  -3   25.00    1.30
   4  -6   3   23.80    1.24
   4   6   4    7.32    0.53
  -4   6  -4    7.61    0.51
  -4  -6  -4    7.17    0.58
   4   6   5   -0.19    0.23
  -4   6  -5   -0.20    0.17
  -4  -6  -5   -0.23    0.24
   4   6   6    4.78    0.48
  -4   6  -6    5.10    0.42
  -4  -6  -6    4.50    0.47
   4   7  -6    0.94    0.24
  -4   7   6    1.82    0.31
   4  -7  -6    0.78    0.31
  -4   7   5    0.66    0.24
   4   7  -5    0.54    0.21
   4  -7  -5    0.68    0.29
  -4   7   4    6.27    0.46
   4   7  -4    6.52    0.49
  -4   7   4    6.06    0.51
   4  -7  -4    7.19    0.56
  -4   7   3   17.29    0.90
   4   7  -3   18.69    1.00
  -4   7   3   17.55    1.01
   4  -7  -3   18.94    1.04
   4   7  -2    6.18    0.50
  -4   7   2    5.88    0.39
  -4   7   2    6.21    0.50
  -4  -7   2    6.31    0.46
   4  -7  -2    5.50    0.51
   4   7  -1   40.71    1.99
  -4   7   1   37.56    1.78
  -4   7   1   41.63    2.00
   4  -7  -1   41.52    2.00
  -4  -7   1   41.27    1.98
  -4   7   0    0.07    0.08
   4   7   0   -0.19    0.20
  -4   7   0   -0.23    0.21
  -4  -7   0    0.26    0.21
   4  -7   0    0.06    0.19
   4   7   1    3.07    0.35
  -4   7  -1    3.66    0.37
  -4  -7  -1    3.30    0.36
   4  -7   1    3.32    0.34
   4   7   2   10.92    0.68
  -4   7  -2   10.18    0.68
   4  -7   2    9.48    0.64
  -4  -7  -2   11.27    0.70
  -4   7  -3   33.14    1.64
   4   7   3   30.46    1.63
  -4  -7  -3   33.44    1.68
  -4   7  -4    9.88    0.65
   4   7   4    9.86    0.67
  -4  -7  -4   10.75    0.72
  -4   7  -5    0.60    0.23
  -4  -7  -5   -0.05    0.27
  -4   8   5    8.29    0.59
   4   8  -5    7.59    0.60
   4  -8  -5    8.41    0.69
  -4   8   4    0.20    0.24
  -4   8   4    0.23    0.21
   4   8  -4    0.17    0.23
   4  -8  -4    0.15    0.27
  -4   8   3    0.82    0.27
  -4   8   3    0.96    0.22
   4   8  -3    0.96    0.28
   4  -8  -3    0.82    0.30
  -4   8   2   19.03    1.09
   4   8  -2   19.88    1.09
   4  -8  -2   18.99    1.10
  -4   8   1    5.15    0.47
   4   8  -1    4.22    0.44
   4  -8  -1    4.83    0.46
  -4  -8   1    5.56    0.47
   4   8   0   12.02    0.76
  -4   8   0   11.16    0.76
  -4  -8   0   11.21    0.75
   4  -8   0   11.96    0.75
  -4   8  -1    6.53    0.54
   4   8   1    5.40    0.49
   4  -8   1    5.14    0.48
  -4  -8  -1    4.62    0.47
  -4   8  -2   30.38    1.50
   4   8   2   27.87    1.49
  -4  -8  -2   26.74    1.50
   4   8   3    0.00    0.22
  -4   8  -3    0.43    0.26
  -4  -8  -3    0.33    0.28
   4   8   4    1.61    0.32
  -4   8  -4    1.23    0.30
  -4  -8  -4    1.31    0.36
   4   9  -3    4.67    0.50
  -4   9   3    4.38    0.50
   4  -9  -3    6.27    0.58
  -4   9   2   -0.20    0.26
   4   9  -2    0.04    0.27
   4  -9  -2   -0.32    0.27
  -4   9   1   10.51    0.80
   4   9  -1   11.36    0.80
   4  -9  -1   12.09    0.80
  -4   9   0    2.88    0.42
   4   9   0    1.94    0.37
   4  -9   0    1.82    0.37
  -4  -9   0    3.30    0.41
   4   9   1   17.39    1.05
  -4   9  -1   16.84    1.04
  -4  -9  -1   17.15    1.05
   4   9   2    4.58    0.49
  -4   9  -2    4.42    0.48
  -4  -9  -2    3.79    0.47
  -5   0   9    0.26    0.23
   5   0  -8   20.31    0.96
   5   0  -8   19.33    0.96
  -5   0   8   21.36    1.04
   5   0  -7    0.04    0.09
  -5   0   7    0.13    0.19
   5   0  -7    0.04    0.08
  -5   0   6    6.78    0.44
   5   0  -6    6.74    0.35
   5   0  -6    5.96    0.35
   5   0  -5   -0.04    0.07
   5   0  -5   -0.06    0.07
   5   0  -4    4.87    0.28
   5   0  -4    5.25    0.29
  -5   0   3    0.00    0.05
   5   0  -3    0.16    0.08
   5   0  -3   -0.02    0.06
  -5   0   2   63.04    2.90
   5   0  -2   61.34    2.91
   5   0  -2   64.04    2.91
  -5   0   1   -0.31    0.08
  -5   0   1   -0.28    0.09
   5   0  -1   -0.32    0.08
   5   0  -1   -0.29    0.08
   5   0   0  106.62    5.06
  -5   0   0  121.24    5.06
  -5   0   0  111.10    5.06
   5   0   0  102.50    5.05
   5   0   1    0.01    0.09
  -5   0  -1    0.01    0.09
  -5   0  -1    0.22    0.11
  -5   0  -2    3.59    0.25
  -5   0  -2    3.17    0.23
   5   0   2    3.39    0.24
  -5   0  -2    3.54    0.25
   5   0   3    0.09    0.09
   5   0   3   -0.02    0.08
  -5   0  -3    0.06    0.10
  -5   0  -3    0.08    0.08
  -5   0  -3    0.11    0.11
   5   0   4  169.66    7.86
  -5   0  -4  169.25    7.38
  -5   0  -4  177.48    7.89
   5   0   5    0.22    0.18
  -5   0  -5   -0.07    0.14
  -5   0  -5    0.02    0.12
  -5   0  -5    0.06    0.09
   5   0   6   27.35    1.27
  -5   0  -6   25.00    1.29
  -5   0  -6   27.82    1.31
  -5   0  -7    0.12    0.15
  -5   0  -8   11.21    0.65
  -5  -1   9   11.63    0.68
   5  -1  -9   10.69    0.59
  -5   1   8    6.01    0.45
  -5  -1   8    5.41    0.44
   5  -1  -8    5.62    0.37
  -5   1   7   48.25    2.15
   5  -1  -7   44.39    2.20
   5  -1  -7   47.29    2.21
  -5  -1   7   49.26    2.13
   5   1  -6    2.03    0.16
  -5   1   6    2.74    0.29
   5   1  -6    2.38    0.16
   5  -1  -6    2.01    0.19
  -5  -1   6    2.71    0.27
   5  -1  -6    2.40    0.22
   5   1  -5   43.45    1.87
   5   1  -5   38.33    1.87
   5  -1  -5   41.73    1.89
   5  -1  -5   38.08    1.89
  -5   1   4    0.66    0.09
   5   1  -4    0.52    0.09
   5   1  -4    0.60    0.09
   5  -1  -4    0.48    0.09
   5  -1  -4    0.52    0.11
   5   1  -3  123.90    5.43
  -5   1   3  118.19    5.36
   5   1  -3  111.57    5.36
  -5  -1   3  116.62    5.34
   5  -1  -3  125.22    5.37
   5  -1  -3  108.44    5.37
  -5   1   2   14.80    0.74
   5   1  -2   15.99    0.74
   5  -1  -2   15.40    0.75
  -5  -1   2   15.92    0.74
   5  -1  -2   14.07    0.74
  -5   1   1    0.83    0.13
   5   1  -1    1.08    0.13
   5   1  -1    0.72    0.12
   5  -1  -1    0.67    0.12
  -5  -1   1    1.34    0.15
   5  -1  -1    0.84    0.13
   5   1   0  242.79   11.21
  -5   1   0  236.89   11.24
  -5   1   0  251.43   11.35
   5   1   0  249.58   11.23
   5  -1   0  225.99   11.10
  -5  -1   0  252.62   11.29
  -5  -1   0  234.14   11.19
   5  -1   0  256.98   11.32
  -5   1  -1  211.07    9.16
   5   1   1  205.65    9.20
  -5   1  -1  182.06    9.11
  -5   1  -1  194.27    9.06
  -5  -1  -1  189.62    9.06
  -5  -1  -1  205.36    9.14
   5  -1   1  203.20    9.18
  -5   1  -2   12.87    0.66
  -5   1  -2   12.66    0.68
  -5   1  -2   13.32    0.63
   5   1   2   13.72    0.68
  -5  -1  -2   13.55    0.68
   5  -1   2   13.80    0.66
  -5  -1  -2   13.36    0.67
  -5  -1  -2   13.68    0.65
  -5   1  -3   65.86    3.11
   5   1   3   66.72    3.11
  -5   1  -3   67.22    2.91
  -5  -1  -3   66.57    2.92
   5  -1   3   68.32    3.09
  -5  -1  -3   71.41    3.12
  -5  -1  -3   63.37    3.10
  -5   1  -4   48.10    2.38
   5   1   4   52.08    2.27
   5   1   4   50.29    2.39
  -5   1  -4   51.86    2.25
  -5   1  -4   53.18    2.40
  -5  -1  -4   49.62    2.27
   5  -1   4   50.37    2.36
  -5  -1  -4   51.65    2.40
  -5  -1  -4   53.64    2.41
   5   1   5   91.47    4.21
  -5   1  -5   86.98    4.22
  -5   1  -5   90.19    3.97
  -5   1  -5   94.10    4.23
   5   1   5   92.46    3.99
  -5  -1  -5   94.45    4.24
  -5  -1  -5   90.18    3.99
   5   1   6   13.21    0.71
  -5   1  -6   11.85    0.65
  -5   1  -6   13.08    0.68
  -5   1  -6   12.48    0.68
  -5  -1  -6   12.98    0.69
  -5   1  -7    9.94    0.57
   5   1   7    9.35    0.63
  -5  -1  -7   10.08    0.59
  -5   1  -8    1.24    0.19
  -5  -1  -8    0.93    0.21
  -5  -2   9    0.47    0.21
   5  -2  -9   -0.09    0.16
  -5   2   8    5.37    0.45
  -5  -2   8    5.61    0.41
   5  -2  -8    5.19    0.39
  -5   2   7    7.65    0.52
   5  -2  -7    7.28    0.47
  -5  -2   7    7.74    0.48
   5   2  -6   64.45    2.80
  -5   2   6   61.82    2.72
   5   2  -6   61.73    2.80
   5  -2  -6   54.17    2.84
  -5  -2   6   63.49    2.69
   5  -2  -6   60.49    2.85
  -5   2   5    4.87    0.30
   5   2  -5    5.17    0.28
   5   2  -5    5.12    0.28
   5  -2  -5    5.42    0.35
  -5   2   4   12.56    0.64
   5   2  -4   13.41    0.62
   5   2  -4   12.83    0.62
   5  -2  -4   12.17    0.65
   5  -2  -4   12.28    0.65
  -5   2   3   31.91    1.49
   5   2  -3   33.20    1.48
   5   2  -3   31.37    1.48
   5  -2  -3   32.37    1.50
  -5  -2   3   30.50    1.47
   5  -2  -3   30.20    1.49
  -5   2   2   98.68    4.55
   5   2  -2  104.06    4.54
   5   2  -2   95.49    4.54
   5  -2  -2   91.33    4.55
   5  -2  -2  100.35    4.55
  -5  -2   2  103.71    4.54
  -5   2   1   20.00    0.95
   5   2  -1   20.88    0.95
   5   2  -1   19.09    0.95
   5  -2  -1   19.80    0.96
  -5  -2   1   20.22    0.95
   5  -2  -1   18.14    0.95
   5   2   0   15.41    0.84
   5   2   0   16.80    0.84
  -5   2   0   18.43    0.85
  -5   2   0   17.15    0.84
  -5  -2   0   16.59    0.85
   5  -2   0   18.12    0.84
   5   2   1    0.28    0.10
  -5   2  -1    0.01    0.09
  -5  -2  -1    0.31    0.11
  -5  -2  -1    0.03    0.11
  -5   2  -2  225.17   10.54
  -5   2  -2  233.60    9.70
  -5   2  -2  214.86   10.34
   5   2   2  239.39   10.36
  -5  -2  -2  239.43   10.47
  -5  -2  -2  214.81   10.36
   5  -2   2  222.76   10.34
  -5  -2  -2  224.67    9.68
  -5   2  -3   45.58    2.11
  -5   2  -3   45.23    1.96
   5   2   3   46.70    2.11
   5  -2   3   44.39    2.08
  -5  -2  -3   44.45    1.99
  -5  -2  -3   46.19    2.12
  -5  -2  -3   41.26    2.10
  -5   2  -4   60.50    2.88
   5   2   4   59.96    2.74
  -5   2  -4   65.02    2.90
  -5   2  -4   64.24    2.71
   5   2   4   63.25    2.90
  -5  -2  -4   57.84    2.90
  -5  -2  -4   62.48    2.91
  -5  -2  -4   62.44    2.74
   5  -2   4   63.24    2.86
  -5   2  -5    1.30    0.17
   5   2   5    1.22    0.17
  -5   2  -5    1.09    0.18
  -5   2  -5    1.05    0.15
   5   2   5    0.83    0.22
  -5  -2  -5    1.29    0.23
  -5  -2  -5    0.99    0.19
  -5  -2  -5    0.78    0.16
   5   2   6   25.99    1.25
  -5   2  -6   26.79    1.25
  -5   2  -6   23.58    1.23
  -5  -2  -6   25.62    1.28
  -5   2  -7    0.08    0.13
   5   2   7    0.55    0.26
  -5  -2  -7    0.06    0.18
  -5   2  -8   17.52    0.90
  -5  -2  -8   18.17    0.97
  -5  -3   9    1.59    0.26
   5  -3  -9    0.84    0.23
  -5   3   8    0.23    0.25
  -5  -3   8    0.46    0.18
   5  -3  -8    0.19    0.19
   5   3  -7   37.40    1.68
  -5   3   7   34.13    1.70
   5   3  -7   36.37    1.67
   5  -3  -7   36.57    1.77
  -5  -3   7   36.16    1.65
   5   3  -6   12.73    0.63
   5   3  -6   12.82    0.63
  -5   3   6   11.54    0.70
  -5  -3   6   14.28    0.66
   5  -3  -6   12.85    0.71
  -5   3   5   20.54    1.01
   5   3  -5   20.59    0.98
  -5   3   5   20.99    1.01
   5   3  -5   22.38    0.98
   5  -3  -5   17.02    1.01
   5  -3  -5   20.72    1.04
   5   3  -4   13.58    0.67
  -5   3   4   13.21    0.69
   5   3  -4   14.40    0.67
   5  -3  -4   13.12    0.71
   5  -3  -4   12.21    0.69
   5   3  -3    1.32    0.15
  -5   3   3    1.33    0.17
   5  -3  -3    0.85    0.16
  -5  -3   3    1.50    0.14
   5  -3  -3    1.15    0.16
  -5   3   2    1.00    0.15
   5   3  -2    0.89    0.13
   5   3  -2    0.83    0.12
   5  -3  -2    0.84    0.16
  -5  -3   2    1.08    0.14
   5   3  -1   62.48    3.09
  -5   3   1   70.42    3.10
   5   3  -1   67.06    3.09
   5  -3  -1   69.32    3.10
  -5  -3   1   64.39    3.09
  -5   3   0   14.99    0.79
   5   3   0   15.75    0.78
   5  -3   0   15.94    0.79
  -5  -3   0   15.47    0.79
  -5   3  -1    8.27    0.49
  -5   3  -1    9.09    0.51
   5   3   1    9.42    0.50
  -5  -3  -1    9.07    0.52
  -5  -3  -1    9.67    0.47
   5  -3   1    9.21    0.49
  -5   3  -2  138.89    6.16
   5   3   2  134.10    6.16
  -5   3  -2  137.39    5.72
  -5   3  -2  125.68    6.15
  -5  -3  -2  136.72    5.76
  -5  -3  -2  129.46    6.17
   5  -3   2  135.85    6.15
   5   3   3  179.56    8.24
  -5   3  -3  182.82    8.24
  -5   3  -3  167.07    8.22
  -5   3  -3  185.45    7.67
  -5  -3  -3  183.89    8.26
   5  -3   3  181.14    8.22
  -5  -3  -3  178.54    7.71
   5   3   4    0.10    0.12
   5   3   4    0.21    0.19
  -5   3  -4    0.46    0.14
  -5   3  -4    0.16    0.11
  -5  -3  -4    0.36    0.18
   5  -3   4    0.33    0.09
  -5  -3  -4    0.40    0.14
  -5  -3  -4    0.35    0.18
  -5   3  -5   12.83    0.71
   5   3   5   14.28    0.77
   5   3   5   13.89    0.75
  -5   3  -5   15.21    0.74
  -5  -3  -5   14.55    0.78
  -5   3  -6    4.63    0.34
   5   3   6    5.00    0.43
  -5  -3  -6    4.92    0.41
   5   3   7   27.72    1.44
  -5   3  -7   29.74    1.42
  -5  -3  -7   30.47    1.50
  -5   3  -8    5.62    0.38
  -5  -3  -8    5.57    0.50
   5  -4  -8   14.99    0.87
  -5   4   7    0.65    0.22
   5   4  -7    0.30    0.10
   5  -4  -7    0.44    0.21
  -5  -4   7    0.24    0.14
   5   4  -6    1.85    0.17
   5   4  -6    1.96    0.18
  -5   4   6    1.88    0.27
  -5  -4   6    1.82    0.19
   5  -4  -6    2.00    0.27
  -5   4   5   19.47    0.96
   5   4  -5   19.22    0.95
  -5   4   5   19.27    0.98
   5   4  -5   18.67    0.94
   5  -4  -5   19.55    1.01
   5   4  -4   33.34    1.61
  -5   4   4   33.61    1.55
  -5   4   4   33.37    1.63
   5   4  -4   35.17    1.61
   5  -4  -4   33.53    1.65
   5   4  -3    1.73    0.20
   5   4  -3    1.67    0.19
  -5   4   3    1.59    0.21
   5  -4  -3    1.26    0.20
  -5  -4   3    2.07    0.19
  -5   4   2   -0.03    0.14
   5   4  -2   -0.03    0.12
   5   4  -2    0.04    0.10
   5  -4  -2    0.09    0.14
  -5  -4   2    0.15    0.11
  -5   4   1    3.93    0.31
  -5  -4   1    3.03    0.28
   5  -4  -1    3.25    0.30
  -5   4   0   47.49    2.24
   5   4   0   47.49    2.24
   5  -4   0   47.86    2.24
  -5  -4   0   47.11    2.24
  -5  -4   0   47.00    2.07
  -5   4  -1   58.96    2.69
   5   4   1   57.01    2.69
   5  -4   1   57.50    2.68
  -5  -4  -1   56.51    2.70
  -5  -4  -1   56.45    2.50
  -5   4  -2   39.13    1.64
  -5   4  -2   33.96    1.80
   5   4   2   38.48    1.83
  -5   4  -2   38.85    1.82
   5  -4   2   38.33    1.80
  -5  -4  -2   37.84    1.84
  -5  -4  -2   39.32    1.70
  -5   4  -3    0.54    0.15
   5   4   3    0.41    0.16
  -5   4  -3    0.41    0.09
  -5   4  -3    0.11    0.11
  -5  -4  -3    0.32    0.18
   5  -4   3    0.29    0.13
  -5  -4  -3    0.38    0.17
  -5   4  -4   18.18    1.02
   5   4   4   22.56    1.04
   5   4   4   20.59    1.06
  -5   4  -4   21.31    1.04
  -5  -4  -4   22.08    1.09
   5  -4   4   21.05    1.00
  -5  -4  -4   19.29    1.00
  -5   4  -5    1.50    0.20
   5   4   5    0.65    0.25
   5   4   5    0.99    0.19
  -5  -4  -5    0.83    0.22
  -5   4  -6   22.33    1.09
   5   4   6   21.13    1.12
  -5  -4  -6   21.47    1.16
  -5   4  -7    0.68    0.17
   5   4   7    0.89    0.29
  -5  -4  -7    0.57    0.24
   5   5  -8    4.46    0.30
   5  -5  -8    4.65    0.45
   5   5  -7    1.45    0.18
  -5   5   7    1.13    0.27
   5  -5  -7    1.40    0.29
  -5   5   6    1.59    0.28
   5   5  -6    1.81    0.20
  -5  -5   6    1.68    0.17
   5  -5  -6    2.51    0.32
  -5   5   5   27.78    1.46
  -5   5   5   28.68    1.40
   5   5  -5   30.02    1.44
  -5  -5   5   29.77    1.30
   5  -5  -5   31.60    1.51
   5   5  -4   32.88    1.52
  -5   5   4   31.30    1.45
   5   5  -4   28.74    1.51
  -5   5   4   31.57    1.54
   5  -5  -4   32.59    1.56
  -5  -5   4   30.20    1.49
   5   5  -3   22.84    1.14
  -5   5   3   24.20    1.16
   5   5  -3   20.37    1.13
  -5   5   3   22.88    1.08
   5  -5  -3   24.29    1.17
  -5  -5   3   22.57    1.12
   5   5  -2    0.40    0.16
  -5   5   2    0.61    0.19
  -5   5   2    0.50    0.14
  -5  -5   2    0.60    0.10
   5  -5  -2    0.49    0.19
  -5  -5   2    0.46    0.15
   5   5  -1   21.42    1.07
  -5   5   1   20.43    1.07
   5  -5  -1   20.74    1.07
  -5  -5   1   20.18    0.94
  -5  -5   1   21.63    1.06
   5   5   0    4.46    0.37
  -5   5   0    4.44    0.37
  -5  -5   0    5.08    0.38
  -5  -5   0    4.58    0.29
   5  -5   0    4.36    0.37
  -5   5  -1   54.54    2.53
   5   5   1   55.67    2.53
  -5  -5  -1   51.00    2.33
   5  -5   1   53.67    2.51
  -5  -5  -1   50.70    2.52
   5   5   2   21.25    1.10
  -5   5  -2   22.58    1.10
  -5  -5  -2   21.89    1.12
   5  -5   2   21.59    1.08
  -5  -5  -2   19.96    1.01
  -5   5  -3    9.31    0.57
   5   5   3    9.50    0.59
  -5  -5  -3    9.53    0.54
   5  -5   3    9.47    0.54
  -5  -5  -3   10.13    0.63
  -5   5  -4   12.37    0.67
   5   5   4   10.90    0.68
  -5  -5  -4   12.11    0.73
   5   5   5   39.93    1.89
  -5   5  -5   40.26    1.96
  -5  -5  -5   41.94    2.03
   5   5   6    1.79    0.33
  -5   5  -6    1.18    0.22
  -5  -5  -6    1.59    0.29
  -5   5  -7    1.30    0.22
  -5  -5  -7    1.59    0.32
   5   6  -7    8.16    0.53
   5  -6  -7    9.25    0.68
   5   6  -6    1.88    0.24
  -5   6   6    2.26    0.32
   5  -6  -6    2.18    0.34
  -5   6   5    3.50    0.35
  -5   6   5    3.80    0.36
   5   6  -5    3.54    0.32
   5  -6  -5    3.42    0.39
  -5   6   4    3.54    0.35
  -5   6   4    4.21    0.36
   5   6  -4    3.63    0.33
   5  -6  -4    4.49    0.42
   5   6  -3   34.65    1.69
  -5   6   3   35.38    1.71
  -5   6   3   34.30    1.58
  -5  -6   3   34.00    1.48
  -5  -6   3   33.35    1.67
   5  -6  -3   35.77    1.73
   5   6  -2   24.30    1.22
  -5   6   2   22.63    1.10
  -5   6   2   24.02    1.23
  -5  -6   2   23.56    1.20
   5  -6  -2   25.42    1.24
  -5  -6   2   22.98    1.04
  -5   6   1   37.23    1.71
   5   6  -1   39.19    1.89
  -5   6   1   39.10    1.90
  -5  -6   1   37.61    1.69
  -5  -6   1   39.48    1.89
   5  -6  -1   39.91    1.90
  -5   6   0   20.92    0.95
  -5   6   0   22.20    1.12
   5   6   0   22.82    1.13
   5  -6   0   20.13    1.10
  -5  -6   0   20.71    0.98
  -5  -6   0   21.36    1.11
  -5   6  -1    0.05    0.19
   5   6   1    0.51    0.20
  -5  -6  -1    0.47    0.14
   5  -6   1    0.73    0.19
  -5  -6  -1    0.14    0.19
   5   6   2   11.11    0.65
  -5   6  -2   10.61    0.64
   5  -6   2    9.43    0.60
  -5  -6  -2   10.16    0.56
  -5  -6  -2   10.83    0.67
  -5   6  -3    8.56    0.55
   5   6   3    8.61    0.58
  -5  -6  -3    8.68    0.60
  -5  -6  -3    8.00    0.51
   5   6   4    6.85    0.51
  -5   6  -4    7.11    0.50
  -5  -6  -4    6.92    0.57
  -5   6  -5    0.48    0.20
  -5  -6  -5   -0.24    0.23
  -5   6  -6    1.72    0.27
  -5  -6  -6    2.29    0.37
  -5   7   6    3.51    0.38
   5   7  -6    3.02    0.33
   5  -7  -6    3.07    0.43
  -5   7   5    7.66    0.54
   5   7  -5    7.54    0.54
   5  -7  -5    7.32    0.62
  -5   7   4    3.25    0.34
  -5   7   4    3.54    0.39
   5   7  -4    3.52    0.35
   5  -7  -4    3.81    0.43
  -5   7   3   16.33    0.97
  -5   7   3   17.45    0.87
   5   7  -3   18.11    0.97
   5  -7  -3   17.34    0.98
  -5   7   2    2.71    0.33
   5   7  -2    1.96    0.30
  -5   7   2    2.26    0.23
   5  -7  -2    1.96    0.30
  -5  -7   2    1.77    0.26
   5   7  -1   38.89    1.81
  -5   7   1   37.56    1.81
  -5   7   1   33.53    1.60
   5  -7  -1   35.50    1.80
  -5  -7   1   35.72    1.79
   5   7   0    8.12    0.55
  -5   7   0    7.22    0.37
  -5   7   0    8.63    0.58
  -5  -7   0    6.98    0.40
   5  -7   0    6.95    0.53
  -5  -7   0    7.42    0.54
  -5   7  -1    2.29    0.32
   5   7   1    2.47    0.32
  -5  -7  -1    2.15    0.22
  -5  -7  -1    2.17    0.31
   5  -7   1    2.29    0.30
   5   7   2    5.10    0.46
  -5   7  -2    5.19    0.47
  -5  -7  -2    5.07    0.47
   5  -7   2    4.23    0.41
   5   7   3   26.83    1.46
  -5   7  -3   29.61    1.46
  -5  -7  -3   27.81    1.49
   5   7   4    3.51    0.39
  -5   7  -4    3.36    0.38
  -5  -7  -4    4.62    0.46
  -5   7  -5    1.90    0.30
  -5  -7  -5    1.15    0.32
   5   8  -5    8.27    0.63
  -5   8   5    7.07    0.55
   5  -8  -5    8.73    0.70
  -5   8   4    1.95    0.29
  -5   8   4    1.97    0.32
   5   8  -4    2.05    0.33
   5  -8  -4    2.14    0.37
  -5   8   3    2.74    0.30
   5   8  -3    3.04    0.37
  -5   8   3    2.25    0.37
   5  -8  -3    2.97    0.40
  -5   8   2   33.09    1.70
   5   8  -2   33.26    1.69
   5  -8  -2   32.28    1.70
  -5   8   1    2.42    0.35
   5   8  -1    2.71    0.37
   5  -8  -1    2.71    0.37
  -5  -8   1    2.32    0.33
  -5   8   0   14.36    0.87
   5   8   0   14.96    0.88
  -5  -8   0   13.39    0.85
   5  -8   0   13.53    0.85
   5   8   1    5.28    0.47
  -5   8  -1    5.09    0.48
  -5  -8  -1    4.13    0.44
   5  -8   1    4.08    0.42
   5   8   2    9.27    0.68
  -5   8  -2    9.95    0.69
  -5  -8  -2   10.16    0.71
   5   8   3    0.18    0.24
  -5   8  -3   -0.31    0.24
  -5  -8  -3   -0.51    0.25
  -5   8  -4    0.35    0.26
  -5  -8  -4    0.49    0.32
   5   9  -2   -0.08    0.28
  -5   9   2    0.14    0.30
   5  -9  -2   -0.56    0.24
   5   9  -1    9.68    0.74
  -5   9   1    8.64    0.71
   5  -9  -1    8.67    0.70
  -5   9   0    1.64    0.36
   5   9   0    0.98    0.34
  -5  -9   0    1.55    0.35
   5   9   1   10.12    0.79
  -5   9  -1   12.31    0.81
  -5  -9  -1   11.11    0.79
   5   9   2    4.06    0.47
  -5   9  -2    4.20    0.47
  -5  -9  -2    3.88    0.49
   6   0  -9   -0.03    0.08
  -6   0   9    0.39    0.23
   6   0  -8   16.34    0.82
  -6   0   8   16.23    0.90
   6   0  -8   17.72    0.82
  -6   0   7   -0.06    0.18
   6   0  -7   -0.07    0.08
   6   0  -7   -0.10    0.09
   6   0  -6    9.83    0.48
   6   0  -6    8.75    0.48
   6   0  -5    0.11    0.08
   6   0  -5   -0.04    0.08
  -6   0   4   24.57    1.21
   6   0  -4   28.49    1.24
   6   0  -4   25.38    1.23
  -6   0   3   -0.01    0.06
   6   0  -3   -0.02    0.01
   6   0  -3   -0.06    0.08
  -6   0   2   83.70    3.73
   6   0  -2   79.43    3.73
   6   0  -2   80.11    3.74
   6   0  -1   -0.01    0.08
  -6   0   1    0.07    0.10
   6   0  -1    0.00    0.10
   6   0   0  179.16    8.25
  -6   0   0  186.06    8.25
   6   0   0  169.62    8.14
  -6   0  -1   -0.09    0.08
  -6   0  -1    0.01    0.10
   6   0   1    0.01    0.09
   6   0   2  280.01   12.94
  -6   0  -2  288.05   13.05
  -6   0  -2  252.86   12.77
  -6   0  -2  300.31   11.94
   6   0   3   -0.12    0.08
  -6   0  -3    0.12    0.12
  -6   0  -3   -0.09    0.08
   6   0   3   -0.06    0.09
  -6   0  -3   -0.04    0.13
  -6   0  -4   91.56    4.01
  -6   0  -4   98.45    4.28
  -6   0  -4   88.97    4.26
   6   0   4   90.19    4.24
  -6   0  -5    0.01    0.04
  -6   0  -5    0.04    0.13
  -6   0  -5   -0.03    0.14
  -6   0  -6   80.42    3.76
  -6   0  -7   -0.06    0.15
  -6   0  -8    1.25    0.23
   6  -1  -9   21.94    1.07
  -6  -1   9   21.40    1.11
  -6   1   8    7.86    0.55
   6  -1  -8    7.59    0.45
  -6  -1   8    7.85    0.52
  -6   1   7   12.69    0.68
   6   1  -7   11.85    0.56
   6   1  -7   11.10    0.56
  -6  -1   7   12.03    0.65
   6  -1  -7   11.37    0.61
   6  -1  -7   10.50    0.60
   6   1  -6   -0.03    0.08
   6   1  -6    0.20    0.08
   6  -1  -6    0.08    0.11
   6  -1  -6    0.04    0.10
   6   1  -5   27.51    1.35
   6   1  -5   30.27    1.35
   6  -1  -5   28.01    1.36
   6  -1  -5   28.80    1.37
  -6   1   4   10.87    0.57
   6   1  -4   11.91    0.59
   6   1  -4   11.95    0.59
   6  -1  -4   12.26    0.60
  -6   1   3    3.38    0.22
   6   1  -3    2.59    0.20
   6   1  -3    3.48    0.23
   6  -1  -3    3.01    0.23
   6  -1  -3    3.07    0.22
  -6  -1   3    3.14    0.20
  -6   1   2    0.36    0.10
   6   1  -2    0.33    0.09
   6   1  -2    0.53    0.11
   6  -1  -2    0.50    0.10
   6  -1  -2    0.52    0.11
  -6  -1   2    0.42    0.10
   6   1  -1   88.25    3.73
  -6   1   1   81.49    3.72
   6   1  -1   73.63    3.72
  -6  -1   1   84.46    3.73
   6  -1  -1   83.03    3.73
   6  -1  -1   74.29    3.72
  -6   1   0    1.69    0.16
   6   1   0    2.26    0.19
  -6   1   0    2.37    0.21
   6   1   0    2.53    0.22
   6  -1   0    2.27    0.20
  -6  -1   0    2.25    0.21
  -6   1  -1  131.36    6.41
   6   1   1  148.07    6.42
  -6   1  -1  140.21    6.42
  -6  -1  -1  142.05    6.42
  -6  -1  -1  132.77    6.41
   6  -1   1  145.44    6.41
  -6   1  -2   11.45    0.60
  -6   1  -2   10.22    0.57
   6   1   2   11.83    0.60
  -6  -1  -2   10.84    0.59
   6  -1   2   11.18    0.58
  -6  -1  -2   11.34    0.57
  -6  -1  -2   11.84    0.60
   6   1   3  157.43    7.28
  -6   1  -3  164.32    7.28
  -6   1  -3  150.04    7.27
  -6   1  -3  160.59    6.80
  -6  -1  -3  164.11    7.28
  -6  -1  -3  150.22    7.27
  -6  -1  -3  158.91    6.81
   6  -1   3  163.91    7.26
   6   1   4   16.79    0.85
  -6   1  -4   17.94    0.82
  -6   1  -4   17.47    0.87
  -6  -1  -4   17.33    0.87
   6  -1   4   16.88    0.82
  -6  -1  -4   16.40    0.84
  -6  -1  -4   15.97    0.85
  -6   1  -5   69.54    3.37
  -6   1  -5   75.51    3.39
   6   1   5   72.11    3.36
  -6   1  -5   74.12    3.19
  -6  -1  -5   72.37    3.20
  -6  -1  -5   73.88    3.39
  -6  -1  -5   70.63    3.38
  -6   1  -6   10.61    0.63
  -6   1  -6   11.91    0.64
  -6  -1  -6   11.22    0.65
  -6   1  -7    0.36    0.16
  -6  -1  -7    0.35    0.16
  -6   1  -8    3.56    0.32
  -6  -1  -8    3.45    0.34
  -6  -2   9    1.50    0.27
   6  -2  -9    1.46    0.23
  -6   2   8    0.33    0.24
  -6  -2   8    0.45    0.20
   6  -2  -8    0.48    0.18
  -6   2   7    9.78    0.62
  -6  -2   7   10.61    0.57
   6  -2  -7    9.44    0.56
   6   2  -6   36.09    1.63
  -6   2   6   35.49    1.63
   6   2  -6   37.45    1.63
   6  -2  -6   36.00    1.68
   6  -2  -6   29.95    1.66
   6   2  -5   12.18    0.56
   6   2  -5   11.16    0.55
  -6   2   5   11.40    0.57
   6  -2  -5   11.35    0.60
   6  -2  -5    9.14    0.58
  -6   2   4   15.30    0.76
   6   2  -4   15.85    0.75
   6   2  -4   15.55    0.75
   6  -2  -4   15.77    0.78
   6  -2  -4   14.32    0.77
  -6   2   3   16.14    0.80
   6   2  -3   16.39    0.79
   6  -2  -3   16.47    0.81
  -6  -2   3   16.18    0.78
   6  -2  -3   15.39    0.80
   6   2  -2   86.42    3.86
  -6   2   2   86.10    3.87
   6   2  -2   78.94    3.86
  -6  -2   2   87.27    3.86
   6  -2  -2   87.56    3.87
   6  -2  -2   76.42    3.87
   6   2  -1   37.04    1.76
  -6   2   1   37.87    1.77
   6   2  -1   35.55    1.76
   6  -2  -1   37.66    1.77
  -6  -2   1   39.49    1.77
  -6   2   0   22.77    1.14
   6   2   0   23.50    1.13
   6  -2   0   23.20    1.13
  -6  -2   0   24.27    1.14
  -6   2  -1    0.21    0.10
  -6   2  -2  103.27    5.11
  -6   2  -2  116.80    5.13
   6   2   2  114.58    5.13
  -6  -2  -2  112.14    4.79
  -6  -2  -2  112.83    5.13
   6  -2   2  113.67    5.11
  -6  -2  -2  105.47    5.13
  -6   2  -3    4.60    0.29
  -6   2  -3    4.65    0.33
   6   2   3    4.67    0.32
  -6   2  -3    4.79    0.30
   6  -2   3    4.58    0.29
  -6  -2  -3    4.16    0.31
  -6  -2  -3    4.74    0.34
  -6  -2  -3    4.78    0.35
  -6   2  -4   78.78    3.51
  -6   2  -4   77.14    3.28
   6   2   4   75.95    3.51
  -6  -2  -4   74.57    3.31
  -6  -2  -4   66.68    3.50
  -6  -2  -4   75.97    3.52
   6  -2   4   78.44    3.47
  -6   2  -5    0.02    0.13
  -6   2  -5    0.13    0.11
   6   2   5    0.23    0.13
  -6   2  -5    0.31    0.15
  -6  -2  -5   -0.05    0.16
  -6   2  -6   17.53    0.86
  -6   2  -6   15.59    0.83
  -6  -2  -6   16.33    0.89
  -6   2  -7    3.32    0.31
  -6  -2  -7    2.85    0.31
  -6   2  -8   11.25    0.62
  -6  -2  -8   10.39    0.68
  -6  -3   9    2.84    0.32
  -6   3   8    0.21    0.22
  -6  -3   8    0.24    0.17
   6  -3  -8   -0.07    0.18
  -6   3   7   17.63    0.98
   6   3  -7   19.19    0.90
   6   3  -7   19.07    0.91
  -6  -3   7   19.68    0.93
   6  -3  -7   19.13    1.00
   6   3  -6   20.24    0.97
  -6   3   6   19.23    1.01
   6   3  -6   19.54    0.96
   6  -3  -6   21.42    1.04
   6   3  -5    7.66    0.42
   6   3  -5    8.15    0.42
  -6   3   5    8.35    0.45
   6  -3  -5    6.88    0.46
   6  -3  -5    7.17    0.47
   6   3  -4    0.09    0.10
  -6   3   4   -0.02    0.11
   6   3  -4    0.04    0.09
   6  -3  -4   -0.14    0.12
   6  -3  -4   -0.13    0.11
   6   3  -3    8.22    0.51
  -6   3   3   10.40    0.54
   6   3  -3   10.60    0.52
   6  -3  -3    9.64    0.54
  -6  -3   3   10.01    0.52
   6   3  -2   21.20    1.07
  -6   3   2   22.06    1.08
   6   3  -2   21.43    1.07
  -6  -3   2   22.43    1.07
   6  -3  -2   22.94    1.09
   6   3  -1   27.36    1.29
  -6   3   1   27.07    1.30
   6   3  -1   25.10    1.29
   6  -3  -1   27.08    1.30
  -6  -3   1   27.08    1.29
   6   3   0    1.80    0.19
  -6   3   0    2.04    0.21
  -6  -3   0    1.77    0.20
   6  -3   0    2.34    0.21
   6   3   1   74.11    3.30
  -6   3  -1   60.71    3.28
  -6   3  -1   72.59    3.30
  -6  -3  -1   72.87    3.31
  -6  -3  -1   72.73    3.08
   6  -3   1   72.74    3.29
   6   3   2   93.49    4.18
  -6   3  -2   81.25    4.16
  -6   3  -2   91.87    4.18
  -6  -3  -2   93.21    3.91
  -6  -3  -2   91.91    4.19
   6  -3   2   89.84    4.16
  -6   3  -3  129.78    5.46
   6   3   3  127.02    5.88
  -6   3  -3  114.85    5.86
  -6   3  -3  135.12    5.88
  -6  -3  -3  136.21    5.90
  -6  -3  -3  124.72    5.51
   6  -3   3  125.83    5.85
   6   3   4   20.39    1.04
  -6   3  -4   20.69    0.95
  -6   3  -4   20.74    1.03
  -6  -3  -4   20.69    1.06
  -6  -3  -4   19.28    0.99
   6  -3   4   20.54    0.99
  -6   3  -5    7.33    0.45
  -6   3  -5    7.19    0.42
  -6   3  -5    6.07    0.41
   6   3   5    7.14    0.45
  -6  -3  -5    7.36    0.49
  -6   3  -6    1.26    0.20
  -6  -3  -6    0.93    0.22
  -6   3  -7   10.49    0.61
  -6  -3  -7   11.29    0.70
  -6   3  -8    3.01    0.26
  -6  -3  -8    2.01    0.33
   6  -4  -8    5.68    0.49
   6   4  -7    0.21    0.10
  -6   4   7    0.26    0.23
  -6  -4   7   -0.11    0.14
   6  -4  -7   -0.09    0.20
   6   4  -6    2.08    0.19
  -6   4   6    1.74    0.27
   6   4  -6    2.06    0.19
  -6  -4   6    2.32    0.22
   6  -4  -6    1.96    0.26
  -6   4   5   27.49    1.33
  -6   4   5   27.91    1.37
   6   4  -5   26.28    1.34
   6   4  -5   28.57    1.35
   6  -4  -5   29.90    1.41
   6   4  -4   34.71    1.63
  -6   4   4   34.29    1.65
   6  -4  -4   36.08    1.68
  -6  -4   4   32.13    1.61
   6   4  -3    8.41    0.47
   6   4  -3    7.50    0.45
  -6   4   3    7.88    0.48
   6  -4  -3    7.57    0.49
  -6  -4   3    7.74    0.45
   6   4  -2    8.85    0.54
   6   4  -2    9.80    0.55
  -6   4   2    9.52    0.56
  -6  -4   2   10.22    0.54
   6  -4  -2   10.16    0.57
   6   4  -1    0.16    0.13
   6   4   0  135.25    6.16
  -6   4   0  133.81    6.16
  -6  -4   0  130.97    5.73
   6  -4   0  134.85    6.16
  -6  -4   0  133.72    6.16
   6   4   1   12.25    0.67
  -6   4  -1   11.80    0.67
   6  -4   1   12.46    0.66
  -6  -4  -1   12.10    0.68
  -6  -4  -1   12.49    0.62
   6   4   2    6.73    0.44
  -6   4  -2    7.00    0.44
  -6   4  -2    5.95    0.41
  -6  -4  -2    6.95    0.41
   6  -4   2    7.07    0.42
  -6  -4  -2    6.60    0.47
  -6   4  -3    0.07    0.12
  -6   4  -3    0.15    0.09
   6   4   3    0.17    0.15
  -6   4  -3    0.17    0.15
   6  -4   3    0.20    0.12
  -6  -4  -3   -0.15    0.17
  -6  -4  -3    0.12    0.16
  -6   4  -4   50.01    2.16
   6   4   4   47.80    2.35
  -6   4  -4   48.04    2.34
  -6  -4  -4   49.67    2.38
   6  -4   4   51.18    2.31
   6   4   5    3.67    0.33
  -6   4  -5    3.51    0.30
  -6  -4  -5    2.85    0.33
  -6   4  -6   10.34    0.59
  -6  -4  -6    9.56    0.66
  -6   4  -7    0.14    0.16
  -6  -4  -7   -0.08    0.22
   6   5  -8    3.75    0.27
   6  -5  -8    3.25    0.40
  -6   5   7    3.92    0.40
   6   5  -7    3.89    0.30
   6  -5  -7    3.64    0.39
  -6   5   6    6.09    0.46
   6   5  -6    4.43    0.35
   6  -5  -6    6.00    0.49
  -6  -5   6    4.82    0.31
  -6   5   5   20.11    1.07
  -6   5   5   21.84    1.11
   6   5  -5   21.30    1.07
   6  -5  -5   22.44    1.14
  -6   5   4   -0.05    0.16
  -6   5   4   -0.08    0.17
   6   5  -4   -0.05    0.14
   6  -5  -4   -0.24    0.19
   6   5  -3   17.25    1.01
   6   5  -3   20.52    1.02
  -6   5   3   20.94    1.04
   6  -5  -3   20.23    1.05
  -6  -5   3   20.52    1.00
  -6   5   2    0.68    0.19
   6   5  -2    1.20    0.21
  -6  -5   2    1.32    0.20
   6  -5  -2    1.29    0.23
  -6   5   1    4.44    0.38
   6   5  -1    4.69    0.38
  -6  -5   1    5.10    0.37
   6  -5  -1    4.84    0.39
  -6  -5   1    4.53    0.29
  -6   5   0   84.85    3.97
   6   5   0   82.50    3.96
  -6  -5   0   85.43    3.67
  -6  -5   0   85.18    3.97
   6  -5   0   86.36    3.96
   6   5   1   75.49    3.62
  -6   5  -1   79.93    3.62
  -6  -5  -1   74.12    3.35
   6  -5   1   78.68    3.61
  -6  -5  -1   77.97    3.63
  -6   5  -2    3.50    0.20
  -6   5  -2    3.35    0.31
   6   5   2    4.06    0.36
  -6  -5  -2    3.15    0.32
   6  -5   2    3.40    0.31
  -6  -5  -2    3.33    0.29
  -6   5  -3    0.17    0.07
  -6   5  -3    0.00    0.16
   6   5   3    0.08    0.17
  -6  -5  -3    0.10    0.15
   6  -5   3    0.07    0.13
  -6  -5  -3    0.40    0.21
  -6   5  -4    0.06    0.17
   6   5   4    0.08    0.17
  -6  -5  -4    0.14    0.20
  -6   5  -5   27.11    1.36
  -6  -5  -5   27.17    1.43
  -6   5  -6    4.21    0.38
  -6  -5  -6    4.64    0.46
  -6   5  -7    0.23    0.19
  -6  -5  -7    0.25    0.27
   6   6  -7   12.38    0.71
   6  -6  -7   13.71    0.85
  -6   6   6    1.72    0.29
   6   6  -6    1.75    0.24
   6  -6  -6    1.84    0.33
   6   6  -5    1.58    0.23
  -6   6   5    1.22    0.25
  -6   6   5    1.72    0.28
   6  -6  -5    1.18    0.28
   6   6  -4   18.96    1.02
  -6   6   4   19.23    0.98
  -6   6   4   19.55    1.05
   6  -6  -4   20.75    1.08
   6   6  -3    5.52    0.42
  -6   6   3    4.82    0.38
  -6   6   3    5.00    0.43
  -6  -6   3    5.67    0.39
  -6  -6   3    5.33    0.28
   6  -6  -3    5.21    0.44
  -6   6   2   23.67    1.16
  -6   6   2   26.78    1.30
   6   6  -2   26.34    1.28
  -6  -6   2   23.94    1.11
   6  -6  -2   25.53    1.30
  -6  -6   2   24.95    1.26
   6   6  -1   35.02    1.68
  -6   6   1   35.06    1.68
  -6   6   1   32.48    1.50
   6  -6  -1   33.69    1.67
  -6  -6   1   34.23    1.66
  -6  -6   1   32.18    1.49
  -6   6   0   18.92    0.91
   6   6   0   21.11    1.08
  -6   6   0   21.51    1.08
   6  -6   0   20.56    1.06
  -6  -6   0   20.12    1.07
  -6  -6   0   19.72    0.94
  -6   6  -1    0.33    0.07
  -6   6  -1    0.53    0.20
   6   6   1    0.31    0.19
  -6  -6  -1    0.27    0.19
   6  -6   1    0.38    0.18
  -6  -6  -1    0.35    0.14
  -6   6  -2   10.71    0.63
   6   6   2   10.46    0.64
   6  -6   2    9.12    0.59
  -6  -6  -2    9.80    0.55
  -6  -6  -2    9.79    0.65
  -6   6  -3    4.00    0.37
   6   6   3    4.41    0.40
  -6  -6  -3    3.46    0.39
   6   6   4    9.62    0.65
  -6   6  -4   10.58    0.64
  -6  -6  -4   10.44    0.71
  -6   6  -5    0.41    0.20
  -6  -6  -5   -0.01    0.24
  -6   6  -6    2.24    0.29
  -6  -6  -6    1.58    0.34
  -6   7   6    5.58    0.49
   6   7  -6    5.97    0.47
   6  -7  -6    5.49    0.54
   6   7  -5    6.97    0.53
  -6   7   5    6.62    0.51
   6  -7  -5    7.57    0.62
  -6   7   4   -0.06    0.19
  -6   7   4    0.15    0.18
   6   7  -4   -0.03    0.18
   6  -7  -4   -0.38    0.23
   6   7  -3   10.13    0.63
  -6   7   3    8.18    0.54
  -6   7   3    9.49    0.64
   6  -7  -3    9.63    0.67
   6   7  -2    0.46    0.23
  -6   7   2    0.85    0.17
  -6   7   2    1.18    0.27
  -6  -7   2    0.99    0.22
   6  -7  -2    0.93    0.27
  -6  -7   2    1.09    0.11
  -6   7   1   35.14    1.65
   6   7  -1   38.80    1.86
  -6   7   1   40.14    1.87
   6  -7  -1   37.07    1.85
  -6  -7   1   37.21    1.84
  -6  -7   1   35.43    1.63
  -6   7   0   19.44    1.01
   6   7   0   18.59    0.99
  -6   7   0   16.73    0.80
   6  -7   0   17.81    0.98
  -6  -7   0   18.73    0.99
  -6  -7   0   16.34    0.83
  -6   7  -1    0.16    0.22
   6   7   1    0.57    0.23
  -6  -7  -1    0.49    0.14
  -6  -7  -1    0.62    0.24
   6  -7   1    0.22    0.20
   6   7   2    2.11    0.31
  -6   7  -2    2.23    0.33
  -6  -7  -2    1.33    0.29
  -6  -7  -2    1.92    0.24
  -6   7  -3   24.55    1.28
   6   7   3   23.12    1.27
  -6  -7  -3   23.94    1.31
  -6   7  -4    0.05    0.21
   6   7   4   -0.17    0.21
  -6  -7  -4    0.11    0.27
  -6   7  -5   -0.01    0.22
  -6  -7  -5   -0.02    0.26
  -6   8   5    4.90    0.45
   6   8  -5    5.17    0.48
   6  -8  -5    5.46    0.55
   6   8  -4    8.00    0.61
  -6   8   4    7.86    0.54
  -6   8   4    7.37    0.61
   6  -8  -4    8.41    0.67
  -6   8   3    6.28    0.46
   6   8  -3    6.32    0.57
  -6   8   3    7.23    0.59
   6  -8  -3    7.36    0.61
  -6   8   2   15.33    0.97
   6   8  -2   17.90    1.00
   6  -8  -2   16.95    0.99
  -6   8   1    4.86    0.47
   6   8  -1    6.05    0.52
  -6  -8   1    4.50    0.44
   6  -8  -1    4.58    0.46
  -6   8   0    4.89    0.47
   6   8   0    4.19    0.44
  -6  -8   0    3.15    0.39
   6  -8   0    4.34    0.44
   6   8   1    9.27    0.67
  -6   8  -1    9.25    0.67
  -6  -8  -1    8.82    0.67
  -6   8  -2    2.17    0.35
   6   8   2    1.56    0.31
  -6  -8  -2    1.73    0.32
   6   8   3    0.58    0.29
  -6   8  -3    0.83    0.29
  -6  -8  -3    0.59    0.32
  -6   8  -4    0.28    0.26
  -6  -8  -4    0.11    0.30
   6   9  -2    3.42    0.43
  -6   9   2    2.46    0.40
   6  -9  -2    2.72    0.43
   6   9  -1    3.43    0.44
  -6   9   1    3.85    0.47
   6  -9  -1    4.10    0.47
  -6   9   0    1.07    0.34
   6   9   0    0.48    0.30
  -6   9  -1    9.17    0.72
   6   9   1    8.21    0.69
  -6  -9  -1    8.05    0.68
  -7   0   9    0.27    0.23
   7   0  -9    0.00    0.10
   7   0  -8   21.33    1.04
  -7   0   8   21.77    1.10
   7   0  -7   -0.06    0.09
   7   0  -7    0.08    0.10
  -7   0   7   -0.15    0.17
   7   0  -6    5.46    0.33
   7   0  -6    5.35    0.33
   7   0  -5    0.01    0.09
   7   0  -5   -0.09    0.09
   7   0  -4  106.17    4.54
   7   0  -4   95.47    4.53
  -7   0   4   94.40    4.51
   7   0  -3   -0.04    0.08
   7   0  -3    0.01    0.09
  -7   0   3    0.00    0.07
   7   0  -3    0.07    0.10
  -7   0   2    2.47    0.19
   7   0  -2    1.87    0.18
   7   0  -2    2.18    0.21
   7   0  -1    0.12    0.10
  -7   0   1   -0.01    0.11
   7   0  -1    0.15    0.11
   7   0   0  446.87   20.64
  -7   0   0  448.10   20.67
   7   0   1   -0.13    0.10
  -7   0  -1   -0.20    0.09
  -7   0  -1   -0.13    0.11
   7   0   2   37.01    1.74
  -7   0  -2   33.88    1.73
  -7   0  -2   38.96    1.75
  -7   0  -2   36.68    1.63
  -7   0  -3    0.00    0.10
  -7   0  -3   -0.01    0.13
  -7   0  -3   -0.06    0.12
   7   0   3   -0.12    0.09
   7   0   3   -0.04    0.11
   7   0   4   91.66    4.31
  -7   0  -4   88.44    4.33
  -7   0  -4  100.39    4.35
  -7   0  -4   94.13    4.07
  -7   0  -5   -0.07    0.16
  -7   0  -5   -0.05    0.09
  -7   0  -5    0.33    0.16
   7   0   5    0.05    0.09
  -7   0  -6   14.19    0.78
  -7   0  -7   -0.06    0.16
  -7   0  -8    1.85    0.27
   7  -1  -9   10.58    0.61
  -7  -1   9   12.03    0.70
  -7   1   8    5.57    0.46
   7   1  -8    4.97    0.27
   7   1  -8    4.63    0.27
   7  -1  -8    5.26    0.35
  -7  -1   8    5.05    0.42
   7   1  -7    2.41    0.20
  -7   1   7    2.53    0.31
   7   1  -7    2.91    0.20
  -7  -1   7    3.39    0.32
   7  -1  -7    2.77    0.26
   7   1  -6    0.05    0.09
   7   1  -6    0.17    0.10
   7  -1  -6    0.17    0.11
   7  -1  -6    0.21    0.11
   7   1  -5    0.83    0.13
  -7   1   5    0.85    0.10
   7   1  -5    1.01    0.13
   7  -1  -5    0.72    0.13
   7  -1  -5    0.88    0.14
   7   1  -4   11.34    0.60
   7   1  -4   12.73    0.60
  -7   1   4   11.66    0.59
  -7  -1   4   11.19    0.56
   7  -1  -4   11.98    0.61
  -7   1   3   28.13    1.36
   7   1  -3   30.54    1.37
   7  -1  -3   30.46    1.38
   7  -1  -3   26.16    1.37
  -7  -1   3   28.78    1.35
   7   1  -2   12.64    0.63
   7   1  -2   11.26    0.62
  -7   1   2   12.16    0.62
   7  -1  -2   13.42    0.64
   7  -1  -2   11.43    0.62
  -7  -1   2   12.84    0.63
   7   1  -1   30.93    1.56
  -7   1   1   36.15    1.57
   7   1  -1   34.02    1.56
   7  -1  -1   28.86    1.55
  -7  -1   1   32.62    1.56
   7  -1  -1   35.22    1.57
  -7   1   0  232.27   11.44
   7   1   0  260.01   11.55
   7  -1   0  244.53   11.45
  -7  -1   0  257.98   11.45
  -7   1  -1  387.68   18.83
   7   1   1  435.74   18.81
   7  -1   1  409.35   18.78
  -7  -1  -1  399.89   18.80
   7   1   2   47.60    2.16
  -7   1  -2   47.73    2.17
  -7   1  -2   42.83    2.15
  -7  -1  -2   46.39    2.03
  -7  -1  -2   42.17    2.15
  -7  -1  -2   47.90    2.17
   7  -1   2   45.93    2.14
   7   1   3   52.55    2.45
  -7   1  -3   54.18    2.46
  -7   1  -3   53.49    2.29
  -7   1  -3   47.17    2.44
  -7  -1  -3   48.87    2.44
   7  -1   3   54.49    2.43
  -7  -1  -3   54.30    2.46
  -7  -1  -3   51.84    2.31
  -7   1  -4    8.78    0.52
   7   1   4    8.57    0.49
  -7   1  -4    8.08    0.48
  -7   1  -4    9.09    0.49
  -7  -1  -4    8.68    0.52
   7  -1   4    9.19    0.47
  -7  -1  -4    7.69    0.48
  -7  -1  -4    8.71    0.50
  -7   1  -5    9.73    0.57
   7   1   5    9.43    0.52
  -7   1  -5    9.38    0.54
  -7  -1  -5    8.86    0.54
  -7  -1  -5    9.75    0.57
  -7  -1  -5    9.67    0.56
  -7   1  -6    9.38    0.56
  -7  -1  -6    8.93    0.57
  -7   1  -7    2.37    0.26
  -7  -1  -7    2.04    0.27
  -7   1  -8    1.05    0.22
  -7  -1  -8    1.16    0.25
  -7  -2   9    0.13    0.19
   7  -2  -9   -0.32    0.16
  -7   2   8    0.39    0.24
   7  -2  -8    0.33    0.17
  -7  -2   8    0.34    0.19
  -7   2   7    2.34    0.31
   7   2  -7    2.36    0.18
   7   2  -7    2.29    0.18
  -7  -2   7    2.98    0.30
   7  -2  -7    2.42    0.25
   7   2  -6   13.08    0.66
   7   2  -6   13.74    0.67
   7  -2  -6   13.30    0.71
   7   2  -5    1.74    0.17
  -7   2   5    1.66    0.16
   7   2  -5    1.45    0.15
   7  -2  -5    1.44    0.19
   7  -2  -5    1.47    0.18
  -7   2   4    2.74    0.23
   7   2  -4    2.76    0.22
   7   2  -4    2.45    0.21
   7  -2  -4    2.74    0.25
   7  -2  -4    2.64    0.23
  -7   2   3    3.37    0.25
   7   2  -3    3.47    0.24
  -7  -2   3    3.23    0.23
   7  -2  -3    3.34    0.27
   7  -2  -3    3.06    0.25
   7   2  -2  186.73    8.00
  -7   2   2  178.44    8.01
   7   2  -2  167.86    8.00
   7  -2  -2  178.51    8.01
   7  -2  -2  157.63    8.00
  -7  -2   2  180.13    8.01
   7   2  -1   68.48    3.13
   7   2  -1   63.29    3.13
  -7   2   1   69.02    3.14
   7  -2  -1   67.96    3.14
  -7  -2   1   69.08    3.14
   7   2   0   27.77    1.35
  -7   2   0   27.85    1.35
  -7  -2   0   28.21    1.35
   7  -2   0   27.98    1.34
  -7   2  -1   26.66    1.46
   7   2   1   32.04    1.48
  -7   2  -1   30.97    1.48
   7  -2   1   31.38    1.47
  -7  -2  -1   32.33    1.48
  -7   2  -2  248.15   11.58
  -7   2  -2  233.76   11.40
   7   2   2  262.50   11.42
  -7   2  -2  228.62   11.40
  -7  -2  -2  253.74   11.42
  -7  -2  -2  261.28   10.67
   7  -2   2  259.57   11.40
  -7   2  -3    8.47    0.44
   7   2   3    8.72    0.49
  -7   2  -3    7.38    0.45
  -7   2  -3    8.33    0.49
   7  -2   3    8.09    0.45
  -7  -2  -3    7.76    0.48
  -7  -2  -3    7.78    0.47
  -7  -2  -3    8.60    0.51
  -7   2  -4   51.75    2.19
   7   2   4   49.72    2.35
  -7   2  -4   45.91    2.33
  -7   2  -4   52.53    2.36
   7  -2   4   50.97    2.31
  -7  -2  -4   45.78    2.34
  -7  -2  -4   49.18    2.23
  -7  -2  -4   51.04    2.37
  -7   2  -5   16.37    0.78
  -7   2  -5   17.03    0.84
   7   2   5   15.45    0.82
  -7   2  -5   12.72    0.78
  -7  -2  -5   16.94    0.85
  -7   2  -6   10.17    0.55
  -7   2  -6    7.99    0.52
  -7  -2  -6    8.14    0.56
  -7   2  -7    0.40    0.17
  -7  -2  -7    0.59    0.21
  -7   2  -8    3.67    0.34
  -7  -2  -8    3.67    0.38
  -7   3   8    0.36    0.22
  -7  -3   8    0.28    0.17
   7  -3  -8   -0.02    0.18
  -7   3   7    8.64    0.59
   7   3  -7    9.43    0.48
   7   3  -7    8.43    0.47
  -7  -3   7    9.83    0.54
   7  -3  -7    9.34    0.57
   7   3  -6    5.78    0.33
   7   3  -6    4.79    0.31
  -7   3   6    4.87    0.42
   7  -3  -6    4.93    0.39
   7   3  -5    9.83    0.50
  -7   3   5    9.29    0.51
   7   3  -5    9.02    0.49
   7  -3  -5    9.53    0.55
   7  -3  -5    8.11    0.54
   7   3  -4    7.43    0.43
   7   3  -4    8.60    0.44
  -7   3   4    8.15    0.45
  -7  -3   4    7.49    0.40
   7  -3  -4    7.91    0.47
   7  -3  -4    6.47    0.45
   7   3  -3    0.91    0.14
   7   3  -3    0.85    0.15
  -7   3   3    1.07    0.17
  -7  -3   3    1.09    0.15
   7  -3  -3    0.75    0.16
  -7   3   2   35.56    1.67
   7   3  -2   35.49    1.66
   7   3  -2   32.62    1.65
  -7  -3   2   35.70    1.66
   7  -3  -2   34.66    1.67
  -7   3   1  205.91    9.36
   7   3  -1  206.45    9.35
  -7  -3   1  208.95    9.36
   7  -3  -1  196.05    9.35
  -7   3   0   20.99    1.06
   7   3   0   21.38    1.06
  -7  -3   0   20.98    1.06
   7  -3   0   21.58    1.05
  -7   3  -1   60.83    2.86
   7   3   1   60.53    2.86
   7  -3   1   62.24    2.85
  -7  -3  -1   59.96    2.67
  -7  -3  -1   61.38    2.87
  -7   3  -2    0.25    0.14
   7   3   2    0.29    0.15
  -7   3  -2    0.32    0.13
  -7  -3  -2    0.42    0.17
   7  -3   2    0.13    0.12
  -7  -3  -2    0.06    0.14
  -7   3  -3   76.51    3.99
   7   3   3   87.07    4.02
  -7   3  -3   93.33    4.02
  -7   3  -3   85.66    3.72
  -7  -3  -3   85.95    3.77
   7  -3   3   85.96    3.99
  -7  -3  -3   89.90    4.03
   7   3   4   32.29    1.54
  -7   3  -4   32.56    1.42
  -7   3  -4   27.59    1.51
  -7   3  -4   33.27    1.54
  -7   3  -4   28.80    1.52
  -7  -3  -4   33.62    1.57
  -7  -3  -4   30.78    1.46
   7  -3   4   33.08    1.50
  -7   3  -5    0.71    0.16
   7   3   5    0.48    0.17
  -7   3  -5    0.60    0.17
  -7  -3  -5    0.56    0.19
  -7   3  -6   -0.18    0.15
  -7  -3  -6    0.28    0.21
  -7   3  -7    2.77    0.28
  -7  -3  -7    2.69    0.34
   7   4  -8    5.17    0.30
   7  -4  -8    5.11    0.45
  -7   4   7    0.82    0.25
   7   4  -7    0.82    0.14
  -7  -4   7    0.77    0.18
   7  -4  -7    0.84    0.23
   7   4  -6   -0.06    0.11
  -7   4   6    0.25    0.21
   7  -4  -6    0.17    0.17
   7   4  -5   14.28    0.71
   7   4  -5   12.18    0.69
  -7   4   5   13.27    0.73
   7  -4  -5   14.57    0.77
  -7   4   4   50.83    2.44
   7   4  -4   53.32    2.43
   7  -4  -4   53.78    2.47
  -7  -4   4   48.99    2.41
   7   4  -3   57.57    2.87
  -7   4   3   63.64    2.89
   7   4  -3   61.69    2.88
  -7  -4   3   61.70    2.87
   7  -4  -3   62.70    2.90
   7   4  -2    7.62    0.49
   7   4  -2    9.10    0.51
  -7   4   2    8.72    0.52
  -7  -4   2    8.77    0.50
   7  -4  -2    8.74    0.53
  -7   4   1    2.33    0.24
   7   4  -1    2.08    0.24
   7  -4  -1    2.34    0.25
  -7  -4   1    2.36    0.24
   7   4   0   86.10    4.01
  -7   4   0   86.22    4.02
  -7  -4   0   87.18    3.73
   7  -4   0   85.96    4.01
  -7  -4   0   85.77    4.02
   7   4   1   28.30    1.41
  -7   4  -1   29.18    1.41
   7  -4   1   27.78    1.39
  -7  -4  -1   29.43    1.31
  -7  -4  -1   28.39    1.41
   7   4   2  106.15    4.93
  -7   4  -2  112.01    4.94
  -7  -4  -2  103.00    4.60
   7  -4   2  106.84    4.91
  -7  -4  -2  103.61    4.94
   7   4   3    0.61    0.18
  -7   4  -3    0.64    0.15
  -7   4  -3    0.80    0.12
  -7   4  -3    0.50    0.17
   7  -4   3    0.81    0.15
  -7  -4  -3    0.84    0.19
  -7  -4  -3    0.59    0.20
  -7   4  -4   19.30    0.92
   7   4   4   20.44    1.05
  -7   4  -4   19.29    1.03
  -7  -4  -4   21.60    1.08
   7   4   5    6.27    0.50
  -7   4  -5    6.55    0.45
  -7   4  -5    6.64    0.39
  -7  -4  -5    7.06    0.53
  -7   4  -6   26.12    1.33
  -7  -4  -6   27.02    1.39
  -7   4  -7    0.83    0.20
  -7  -4  -7    0.92    0.28
  -7   5   7    2.84    0.36
   7   5  -7    3.03    0.28
   7  -5  -7    3.05    0.37
   7   5  -6   -0.10    0.13
  -7   5   6   -0.15    0.18
   7  -5  -6    0.14    0.22
  -7  -5   6   -0.09    0.12
   7   5  -5    3.45    0.29
  -7   5   5    2.84    0.32
  -7   5   5    3.10    0.31
   7  -5  -5    3.01    0.33
  -7   5   4    0.12    0.17
   7   5  -4    0.45    0.16
   7  -5  -4    0.48    0.19
  -7   5   3   30.89    1.48
   7   5  -3   30.62    1.46
   7   5  -3   25.73    1.46
  -7  -5   3   29.22    1.45
   7  -5  -3   32.28    1.50
   7   5  -2   34.87    1.70
  -7   5   2   35.89    1.72
   7  -5  -2   33.79    1.71
  -7  -5   2   35.50    1.70
  -7   5   1    8.02    0.49
   7   5  -1    7.09    0.48
  -7  -5   1    6.92    0.47
   7  -5  -1    7.18    0.49
  -7  -5   1    6.84    0.40
   7   5   0   12.92    0.72
  -7   5   0   12.38    0.72
  -7  -5   0   12.22    0.63
  -7  -5   0   12.75    0.71
   7  -5   0   12.45    0.70
  -7   5  -1   77.03    3.52
   7   5   1   74.73    3.52
  -7  -5  -1   73.26    3.52
   7  -5   1   75.63    3.50
  -7  -5  -1   72.83    3.26
  -7   5  -2    4.22    0.25
  -7   5  -2    4.25    0.39
   7   5   2    4.27    0.39
  -7  -5  -2    4.43    0.39
   7  -5   2    4.53    0.36
  -7  -5  -2    4.14    0.34
   7   5   3    0.22    0.17
  -7   5  -3    0.07    0.17
  -7   5  -3    0.08    0.08
  -7  -5  -3    0.40    0.21
  -7  -5  -3    0.00    0.16
   7  -5   3   -0.05    0.13
  -7   5  -4    0.95    0.22
   7   5   4    0.98    0.22
  -7  -5  -4    1.13    0.27
  -7   5  -5   25.83    1.37
  -7  -5  -5   28.51    1.43
  -7   5  -6    5.31    0.44
  -7  -5  -6    5.50    0.52
   7   6  -7    7.87    0.52
   7  -6  -7    8.46    0.66
  -7   6   6   10.25    0.67
   7   6  -6   10.66    0.64
   7  -6  -6   11.44    0.73
   7   6  -5    6.09    0.45
  -7   6   5    6.40    0.48
   7  -6  -5    5.90    0.53
  -7   6   4   15.83    0.87
   7   6  -4   17.57    0.93
  -7   6   4   17.63    0.95
   7  -6  -4   17.87    0.98
  -7   6   3    6.21    0.41
  -7   6   3    6.08    0.47
   7   6  -3    5.68    0.44
   7  -6  -3    6.46    0.50
  -7  -6   3    5.91    0.32
  -7  -6   3    5.99    0.43
   7   6  -2   18.05    0.91
  -7   6   2   16.86    0.92
  -7  -6   2   15.68    0.77
   7  -6  -2   17.08    0.93
  -7  -6   2   15.99    0.89
   7   6  -1   16.53    0.90
  -7   6   1   17.38    0.92
   7  -6  -1   16.28    0.90
  -7  -6   1   15.67    0.77
  -7  -6   1   16.20    0.89
   7   6   0   17.62    0.96
  -7   6   0   18.38    0.97
  -7  -6   0   17.58    0.96
  -7  -6   0   17.08    0.84
   7  -6   0   17.61    0.95
   7   6   1    1.74    0.28
  -7   6  -1    1.39    0.25
  -7  -6  -1    1.60    0.20
  -7  -6  -1    1.43    0.27
   7  -6   1    1.86    0.26
   7   6   2    7.78    0.55
  -7   6  -2    8.65    0.56
  -7  -6  -2    6.76    0.46
   7  -6   2    8.03    0.51
  -7  -6  -2    8.03    0.57
   7   6   3    0.60    0.23
  -7   6  -3    0.57    0.22
  -7  -6  -3    0.56    0.25
  -7   6  -4   11.62    0.72
   7   6   4   11.74    0.73
  -7  -6  -4   11.73    0.77
  -7   6  -5    0.74    0.23
  -7  -6  -5    0.57    0.27
  -7   6  -6    6.22    0.49
  -7  -6  -6    5.22    0.55
   7   7  -6    1.58    0.27
   7  -7  -6    1.56    0.34
  -7   7   5    4.08    0.38
   7   7  -5    4.11    0.39
   7  -7  -5    3.60    0.43
   7   7  -4    2.98    0.34
  -7   7   4    2.86    0.37
  -7   7   4    3.43    0.34
   7  -7  -4    3.07    0.38
  -7   7   3   15.12    0.83
  -7   7   3   16.94    0.95
   7   7  -3   17.18    0.93
   7  -7  -3   16.58    0.96
   7   7  -2   11.44    0.69
  -7   7   2   10.39    0.57
  -7   7   2   10.80    0.69
  -7  -7   2    9.49    0.51
   7  -7  -2   12.36    0.72
  -7  -7   2   10.45    0.66
  -7   7   1   16.65    0.91
  -7   7   1   14.30    0.73
   7   7  -1   15.79    0.89
   7  -7  -1   15.03    0.88
  -7  -7   1   14.70    0.72
  -7  -7   1   15.36    0.87
  -7   7   0    3.79    0.24
  -7   7   0    3.99    0.40
   7   7   0    3.39    0.37
   7  -7   0    3.91    0.37
  -7  -7   0    4.07    0.40
  -7  -7   0    3.89    0.29
   7   7   1    0.51    0.24
  -7   7  -1    0.29    0.23
  -7  -7  -1    0.29    0.22
  -7  -7  -1    0.51    0.15
   7  -7   1    0.44    0.21
   7   7   2    0.01    0.22
  -7   7  -2   -0.15    0.21
  -7  -7  -2    0.10    0.24
   7   7   3   17.80    1.01
  -7   7  -3   17.62    1.00
  -7  -7  -3   17.12    1.02
   7   7   4    1.24    0.28
  -7   7  -4    1.84    0.30
  -7  -7  -4    1.48    0.33
  -7   7  -5    0.06    0.23
  -7  -7  -5    0.07    0.28
   7   8  -4    4.71    0.46
  -7   8   4    5.48    0.51
  -7   8   4    4.74    0.42
   7  -8  -4    4.91    0.51
  -7   8   3    3.85    0.42
   7   8  -3    3.76    0.41
   7  -8  -3    4.07    0.45
   7   8  -2   10.78    0.73
  -7   8   2   10.99    0.75
   7  -8  -2   10.46    0.74
   7   8  -1    1.66    0.31
  -7   8   1    2.05    0.35
  -7  -8   1    1.34    0.28
   7  -8  -1    0.88    0.27
  -7   8   0    0.15    0.25
   7   8   0    0.49    0.27
  -7  -8   0    0.45    0.26
   7  -8   0    0.58    0.25
  -7   8  -1    1.11    0.30
   7   8   1    1.02    0.30
  -7  -8  -1    1.02    0.29
  -7   8  -2    0.56    0.27
   7   8   2    0.22    0.25
  -7  -8  -2    0.30    0.25
   7   8   3    0.14    0.27
  -7   8  -3    0.02    0.26
  -7  -8  -3    0.10    0.27
  -7   9   2    4.84    0.52
   7   9  -2    4.33    0.49
   7  -9  -2    5.67    0.54
   7   9  -1    0.32    0.29
  -7   9   1    0.52    0.30
   7  -9  -1    0.44    0.30
   7   9   0    0.99    0.34
  -7   9   0    0.66    0.32
   7   9   1    5.03    0.52
  -7   9  -1    5.37    0.56
  -7  -9  -1    5.61    0.56
  -8   0   9    0.13    0.27
   8   0  -9    0.03    0.11
  -8   0   8   14.43    0.82
   8   0  -8   14.63    0.74
   8   0  -7    0.09    0.10
   8   0  -7   -0.10    0.10
   8   0  -6    6.73    0.40
   8   0  -6    7.10    0.40
   8   0  -5    0.12    0.09
   8   0  -5    0.01    0.11
   8   0  -4  158.77    6.89
  -8   0   4  141.94    6.86
   8   0  -3    0.07    0.11
   8   0  -3    0.01    0.10
  -8   0   3    0.02    0.09
   8   0  -3    0.18    0.09
   8   0  -2   69.80    3.20
   8   0  -2   64.91    3.19
  -8   0   2   71.67    3.19
   8   0  -1   -0.05    0.11
  -8   0   1    0.03    0.11
   8   0  -1   -0.07    0.09
   8   0   0  295.16   14.07
  -8   0   0  316.63   14.12
   8   0   1   -0.06    0.11
  -8   0  -1    0.00    0.12
  -8   0  -2  352.10   15.25
   8   0   2  340.21   15.10
  -8   0  -2  301.71   15.10
   8   0   3    0.00    0.11
   8   0   3   -0.10    0.11
  -8   0  -3   -0.13    0.10
  -8   0  -3   -0.03    0.14
  -8   0  -3    0.28    0.15
  -8   0  -4    4.92    0.37
  -8   0  -4    5.84    0.41
  -8   0  -4    5.70    0.40
   8   0   4    5.95    0.36
  -8   0  -5   -0.04    0.15
  -8   0  -5    0.02    0.15
   8   0   5    0.03    0.10
  -8   0  -6    3.38    0.33
  -8   0  -7    0.21    0.18
  -8   0  -8    0.44    0.20
  -8  -1   9    1.66    0.29
   8  -1  -9    1.57    0.21
   8   1  -8    3.68    0.23
  -8   1   8    3.38    0.37
   8   1  -8    2.82    0.22
  -8  -1   8    3.53    0.36
   8  -1  -8    3.70    0.30
   8   1  -7    1.19    0.14
   8   1  -7    1.11    0.14
   8  -1  -7    1.30    0.18
   8   1  -6    4.09    0.27
   8   1  -6    3.78    0.27
   8  -1  -6    3.95    0.30
   8  -1  -6    3.76    0.29
   8   1  -5    3.17    0.24
   8   1  -5    2.51    0.23
  -8   1   5    2.59    0.20
   8  -1  -5    2.91    0.25
  -8   1   4    0.76    0.12
   8   1  -4    0.66    0.12
   8   1  -4    0.57    0.13
  -8  -1   4    0.92    0.10
   8  -1  -4    0.52    0.12
   8  -1  -4    0.79    0.15
   8   1  -3   52.85    2.30
   8   1  -3   45.52    2.29
  -8   1   3   49.33    2.29
   8  -1  -3   53.11    2.31
  -8  -1   3   47.50    2.28
   8  -1  -3   46.21    2.29
   8   1  -2    1.65    0.18
   8   1  -2    1.61    0.18
  -8   1   2    1.56    0.17
   8  -1  -2    2.18    0.19
   8  -1  -2    2.25    0.21
  -8  -1   2    1.71    0.18
   8   1  -1  370.84   19.36
   8   1  -1  417.58   19.52
  -8   1   1  448.84   19.50
   8  -1  -1  438.92   19.47
  -8  -1   1  442.75   19.57
   8   1   0    6.65    0.43
  -8   1   0    6.37    0.43
  -8  -1   0    7.55    0.44
   8  -1   0    7.25    0.42
   8   1   1  100.59    4.78
  -8   1  -1  104.28    4.79
  -8  -1  -1  103.60    4.78
   8  -1   1  105.45    4.78
   8   1   2   75.15    3.36
  -8   1  -2   63.90    3.34
  -8   1  -2   71.45    3.36
   8  -1   2   74.83    3.35
  -8  -1  -2   71.69    3.36
  -8  -1  -2   75.32    3.15
  -8   1  -3   18.84    0.88
  -8   1  -3   19.98    0.96
  -8   1  -3   16.85    0.93
   8   1   3   20.10    0.95
   8  -1   3   18.47    0.92
  -8  -1  -3   18.46    0.90
  -8  -1  -3   18.63    0.95
  -8  -1  -3   16.65    0.93
  -8   1  -4   17.15    0.98
   8   1   4   20.71    0.99
  -8   1  -4   20.08    0.95
  -8   1  -4   19.96    1.01
   8  -1   4   20.28    0.97
  -8  -1  -4   21.16    1.02
  -8  -1  -4   17.95    0.99
  -8  -1  -4   19.72    0.97
   8   1   5    5.20    0.36
  -8   1  -5    5.31    0.39
  -8   1  -5    5.61    0.41
  -8  -1  -5    5.57    0.41
  -8   1  -6   20.05    1.05
  -8  -1  -6   20.01    1.06
  -8   1  -7    0.66    0.20
  -8  -1  -7    0.30    0.20
  -8   1  -8    2.52    0.30
  -8  -1  -8    2.37    0.31
  -8  -2   9    0.05    0.20
   8  -2  -9    0.25    0.18
  -8   2   8    0.76    0.25
   8   2  -8    0.34    0.08
   8   2  -8    0.40    0.09
  -8  -2   8    0.35    0.19
   8  -2  -8    0.35    0.18
   8   2  -7    4.53    0.28
  -8   2   7    4.32    0.40
   8   2  -7    3.79    0.26
   8  -2  -7    4.42    0.35
   8   2  -6   30.55    1.41
   8   2  -6   27.80    1.40
   8  -2  -6   30.65    1.45
  -8   2   5    7.76    0.43
   8   2  -5    7.79    0.44
   8   2  -5    8.42    0.45
   8  -2  -5    7.10    0.45
   8  -2  -5    7.99    0.47
   8   2  -4    4.17    0.28
   8   2  -4    4.46    0.29
  -8   2   4    4.03    0.29
   8  -2  -4    3.94    0.30
  -8  -2   4    4.13    0.25
   8  -2  -4    4.21    0.31
   8   2  -3    1.77    0.18
   8   2  -3    1.31    0.16
  -8   2   3    2.06    0.20
   8  -2  -3    1.92    0.20
   8  -2  -3    1.69    0.20
  -8  -2   3    2.15    0.19
  -8   2   2  208.56    9.39
   8   2  -2  192.01    9.38
   8   2  -2  196.93    9.39
  -8  -2   2  212.86    9.39
   8  -2  -2  215.49    9.40
   8   2  -1    0.36    0.12
  -8   2   1    0.44    0.13
  -8  -2   1    0.31    0.13
   8  -2  -1    0.32    0.13
  -8   2   0  197.68    8.71
   8   2   0  187.52    8.70
  -8  -2   0  186.00    8.70
   8  -2   0  188.16    8.69
   8   2   1   38.09    1.89
  -8   2  -1   40.14    1.90
   8  -2   1   40.33    1.88
  -8  -2  -1   40.10    1.90
   8   2   2  188.79    8.35
  -8   2  -2  158.18    8.32
  -8   2  -2  190.07    8.35
   8  -2   2  181.27    8.33
  -8  -2  -2  187.67    8.35
  -8  -2  -2  185.52    7.80
   8   2   3   18.71    0.92
  -8   2  -3   18.38    0.84
  -8   2  -3   15.14    0.88
  -8   2  -3   16.83    0.92
  -8  -2  -3   18.24    0.88
   8  -2   3   18.42    0.89
  -8  -2  -3   18.60    0.94
  -8   2  -4   39.33    1.84
   8   2   4   39.18    1.83
  -8   2  -4   33.83    1.81
  -8   2  -4   38.68    1.70
  -8  -2  -4   37.34    1.73
   8  -2   4   38.02    1.78
  -8  -2  -4   42.01    1.85
  -8  -2  -4   34.22    1.83
  -8   2  -5    6.79    0.46
  -8   2  -5    6.65    0.43
   8   2   5    6.53    0.44
  -8  -2  -5    6.69    0.48
  -8   2  -6    0.36    0.17
  -8  -2  -6    0.38    0.20
  -8   2  -7    0.28    0.16
  -8  -2  -7    0.00    0.19
   8   3  -8   -0.06    0.08
  -8  -3   8    0.44    0.18
   8  -3  -8    0.06    0.19
  -8   3   7    6.19    0.50
   8   3  -7    6.54    0.38
   8  -3  -7    6.79    0.47
   8   3  -6    0.08    0.10
   8   3  -6   -0.04    0.10
   8  -3  -6   -0.01    0.14
   8   3  -5    2.35    0.22
   8   3  -5    2.78    0.23
  -8   3   5    2.75    0.24
   8  -3  -5    2.16    0.25
   8   3  -4    3.64    0.29
  -8   3   4    3.84    0.30
  -8  -3   4    3.95    0.27
   8  -3  -4    4.44    0.35
   8   3  -3   51.38    2.36
  -8   3   3   50.44    2.37
   8   3  -3   48.11    2.36
   8  -3  -3   50.55    2.38
  -8  -3   3   50.59    2.36
  -8   3   2   57.05    2.62
   8   3  -2   50.10    2.61
   8   3  -2   57.26    2.62
   8  -3  -2   56.83    2.63
  -8  -3   2   57.74    2.62
   8   3  -1  104.41    4.87
  -8   3   1  106.19    4.88
  -8  -3   1  107.00    4.88
   8  -3  -1  104.16    4.87
  -8   3   0   54.70    2.57
   8   3   0   54.70    2.56
   8  -3   0   53.65    2.56
  -8  -3   0   54.78    2.57
  -8  -3  -1    9.27    0.51
   8  -3   1    8.96    0.52
   8   3   2    0.50    0.16
  -8   3  -2    0.38    0.17
  -8   3  -2    0.47    0.14
  -8  -3  -2    0.39    0.18
   8  -3   2    0.22    0.13
  -8  -3  -2    0.24    0.16
  -8   3  -3   61.85    2.81
  -8   3  -3   59.36    2.59
  -8   3  -3   51.74    2.78
   8   3   3   61.61    2.81
   8  -3   3   58.59    2.78
  -8  -3  -3   64.05    2.83
  -8  -3  -3   59.57    2.64
   8   3   4   16.02    0.86
  -8   3  -4   16.06    0.78
  -8   3  -4   15.42    0.85
   8  -3   4   15.48    0.81
  -8  -3  -4   17.67    0.90
   8   3   5    3.78    0.34
  -8   3  -5    3.58    0.30
  -8   3  -5    3.43    0.33
  -8  -3  -5    3.90    0.38
  -8   3  -6    0.18    0.17
  -8   3  -6   -0.02    0.16
  -8  -3  -6    0.17    0.21
  -8   3  -7   11.94    0.70
  -8  -3  -7   11.74    0.76
   8   4  -8    6.02    0.36
   8  -4  -8    5.81    0.51
   8   4  -7    4.68    0.32
  -8   4   7    4.28    0.42
   8  -4  -7    4.55    0.42
  -8  -4   7    4.89    0.37
  -8   4   6    4.27    0.40
   8   4  -6    4.92    0.34
   8  -4  -6    4.69    0.41
  -8   4   5    1.72    0.23
   8   4  -5    1.91    0.20
   8  -4  -5    1.87    0.25
   8   4  -4   25.22    1.36
  -8   4   4   28.12    1.38
   8   4  -4   28.70    1.37
   8  -4  -4   30.64    1.41
  -8  -4   4   28.05    1.35
   8   4  -3   24.98    1.24
   8   4  -3   22.71    1.23
  -8   4   3   25.16    1.25
   8  -4  -3   26.24    1.27
  -8  -4   3   26.29    1.24
  -8   4   2   15.38    0.84
   8   4  -2   14.10    0.84
   8   4  -2   16.61    0.83
  -8  -4   2   16.86    0.83
   8  -4  -2   16.01    0.84
   8   4  -1    0.52    0.17
  -8   4   1    0.57    0.17
   8  -4  -1    0.48    0.17
  -8  -4   1    0.40    0.16
  -8   4   0  111.02    5.14
   8   4   0  110.70    5.14
  -8  -4   0  114.04    4.78
   8  -4   0  109.47    5.13
  -8  -4   0  109.11    5.14
  -8   4  -1    0.62    0.18
   8   4   1    0.36    0.17
  -8  -4  -1    0.48    0.19
   8  -4   1    0.61    0.16
  -8  -4  -1    0.51    0.16
   8   4   2   19.09    0.98
  -8   4  -2   19.39    0.98
   8  -4   2   18.07    0.95
  -8  -4  -2   18.46    0.91
  -8  -4  -2   17.93    0.99
  -8   4  -3   15.40    0.84
  -8   4  -3   15.25    0.73
   8   4   3   14.84    0.84
  -8  -4  -3   15.44    0.80
   8  -4   3   15.47    0.80
  -8  -4  -3   16.22    0.87
  -8   4  -4   23.46    1.16
   8   4   4   22.39    1.16
  -8   4  -4   21.42    1.03
  -8  -4  -4   22.92    1.19
  -8   4  -5    1.93    0.26
  -8  -4  -5    2.02    0.31
  -8   4  -6    9.64    0.61
  -8  -4  -6   10.42    0.69
  -8   4  -7    0.91    0.22
  -8  -4  -7    1.11    0.29
   8   5  -7    0.83    0.17
  -8   5   7    0.84    0.26
   8  -5  -7    1.09    0.28
   8   5  -6    2.23    0.24
  -8   5   6    2.88    0.33
   8  -5  -6    1.99    0.31
  -8   5   5   10.16    0.61
  -8   5   5    9.52    0.60
   8   5  -5   10.33    0.58
   8  -5  -5    9.27    0.64
   8   5  -4   18.60    0.99
  -8   5   4   19.62    1.01
   8  -5  -4   19.30    1.03
  -8   5   3   47.98    2.25
   8   5  -3   46.86    2.23
   8  -5  -3   45.93    2.25
  -8  -5   3   45.91    2.22
   8   5  -2    5.05    0.39
  -8   5   2    5.07    0.41
   8  -5  -2    4.86    0.42
  -8  -5   2    4.58    0.38
   8   5  -1    2.78    0.29
  -8   5   1    2.47    0.28
   8  -5  -1    2.54    0.29
  -8  -5   1    3.16    0.25
  -8   5   0    2.13    0.27
   8   5   0    1.70    0.25
   8  -5   0    1.69    0.24
  -8  -5   0    1.98    0.22
  -8  -5   0    1.72    0.25
  -8   5  -1   80.84    3.72
   8   5   1   78.87    3.71
   8  -5   1   80.28    3.70
  -8  -5  -1   75.81    3.45
  -8  -5  -1   79.11    3.72
  -8   5  -2   22.14    1.14
   8   5   2   21.03    1.13
   8  -5   2   22.40    1.11
  -8  -5  -2   20.73    1.04
  -8  -5  -2   21.74    1.15
  -8   5  -3    0.18    0.09
   8   5   3    0.03    0.17
  -8   5  -3    0.18    0.17
  -8  -5  -3    0.25    0.22
   8  -5   3   -0.16    0.13
  -8   5  -4    1.22    0.23
   8   5   4    1.44    0.25
  -8  -5  -4    1.08    0.28
  -8   5  -5   14.41    0.84
  -8  -5  -5   15.67    0.91
  -8   5  -6    1.19    0.24
  -8  -5  -6    0.72    0.28
   8   6  -7    4.93    0.41
   8  -6  -7    5.50    0.52
   8   6  -6   11.57    0.67
  -8   6   6   10.25    0.68
   8  -6  -6   11.67    0.75
  -8   6   5   10.15    0.61
   8   6  -5    9.09    0.59
   8  -6  -5    9.56    0.66
   8   6  -4    2.01    0.27
  -8   6   4    2.05    0.28
  -8   6   4    2.45    0.29
   8  -6  -4    2.59    0.34
   8   6  -3    2.66    0.30
  -8   6   3    2.63    0.31
   8  -6  -3    2.41    0.31
  -8   6   2   25.29    1.32
   8   6  -2   26.52    1.33
  -8  -6   2   24.64    1.16
   8  -6  -2   27.92    1.35
  -8  -6   2   25.17    1.31
   8   6  -1   15.95    0.89
  -8   6   1   16.72    0.90
  -8  -6   1   15.41    0.76
  -8  -6   1   16.05    0.88
   8  -6  -1   15.60    0.89
   8   6   0    1.00    0.23
  -8   6   0    1.69    0.27
  -8  -6   0    1.32    0.19
   8  -6   0    1.42    0.24
  -8  -6   0    1.20    0.25
   8   6   1   15.55    0.87
  -8   6  -1   16.41    0.88
  -8  -6  -1   15.40    0.88
   8  -6   1   15.99    0.85
  -8  -6  -1   13.50    0.76
   8   6   2   13.34    0.81
  -8   6  -2   15.14    0.82
  -8  -6  -2   13.07    0.72
   8  -6   2   13.41    0.77
  -8  -6  -2   13.79    0.81
  -8   6  -3    3.07    0.33
   8   6   3    3.00    0.34
  -8  -6  -3    2.52    0.34
  -8   6  -4   11.26    0.70
   8   6   4   10.45    0.72
  -8  -6  -4   12.11    0.77
  -8   6  -5   -0.03    0.20
  -8  -6  -5   -0.05    0.26
   8   7  -6    0.10    0.21
   8  -7  -6    0.32    0.29
   8   7  -5    9.23    0.62
  -8   7   5    8.50    0.58
   8  -7  -5    8.79    0.68
  -8   7   4    8.40    0.55
  -8   7   4    8.05    0.61
   8   7  -4    9.03    0.61
   8  -7  -4    9.74    0.67
  -8   7   3    1.81    0.25
  -8   7   3    1.33    0.29
   8   7  -3    1.80    0.28
   8  -7  -3    1.28    0.29
   8   7  -2    0.85    0.25
  -8   7   2    1.16    0.28
  -8   7   2    1.28    0.20
  -8  -7   2    1.11    0.26
   8  -7  -2    1.39    0.28
   8   7  -1   19.84    1.00
  -8   7   1   16.40    0.82
  -8   7   1   18.28    1.00
  -8  -7   1   15.78    0.81
   8  -7  -1   17.20    0.97
  -8  -7   1   17.33    0.97
   8   7   0    0.92    0.26
  -8   7   0    1.14    0.14
  -8   7   0    1.25    0.29
  -8  -7   0    1.01    0.25
  -8  -7   0    1.21    0.18
   8  -7   0    1.53    0.26
  -8   7  -1    0.26    0.24
   8   7   1    0.75    0.26
  -8  -7  -1    0.68    0.17
   8  -7   1    0.67    0.22
  -8  -7  -1    0.67    0.26
  -8   7  -2    9.56    0.66
   8   7   2    8.84    0.63
  -8  -7  -2    8.37    0.65
  -8   7  -3   14.09    0.86
   8   7   3   14.40    0.87
  -8  -7  -3   14.29    0.90
   8   7   4    1.19    0.29
  -8   7  -4    1.02    0.27
  -8  -7  -4    0.84    0.28
   8   8  -4    2.74    0.37
  -8   8   4    2.99    0.34
  -8   8   4    3.17    0.39
   8  -8  -4    3.56    0.45
  -8   8   3    5.97    0.55
   8   8  -3    6.32    0.58
   8  -8  -3    6.39    0.58
  -8   8   2    8.44    0.65
   8   8  -2    8.80    0.65
   8  -8  -2    7.47    0.63
  -8   8   1    1.18    0.30
   8   8  -1    1.06    0.31
   8  -8  -1    1.06    0.30
   8   8   0   -0.13    0.24
  -8   8   0   -0.20    0.25
  -8  -8   0   -0.13    0.25
   8  -8   0    0.27    0.24
   8   8   1    0.11    0.25
  -8   8  -1    0.30    0.27
  -8  -8  -1    0.38    0.26
   8   8   2    6.47    0.62
  -8   8  -2    7.32    0.63
  -8  -8  -2    8.35    0.63
  -8   8  -3   -0.06    0.25
   8   8   3    0.25    0.28
  -8  -8  -3    0.05    0.27
  -8   9   1    0.07    0.28
   8   9  -1   -0.13    0.28
   8  -9  -1    0.72    0.31
   8   9   0    1.20    0.35
   9   0  -9    0.02    0.12
   9   0  -8   10.08    0.55
  -9   0   8   10.16    0.65
   9   0  -7    0.07    0.12
   9   0  -6    0.26    0.12
   9   0  -6    0.26    0.11
   9   0  -5    0.16    0.12
   9   0  -5   -0.05    0.09
   9   0  -4  166.36    7.08
   9   0  -4  140.04    7.06
  -9   0   4  156.11    7.05
   9   0  -3   -0.09    0.09
  -9   0   3    0.05    0.10
   9   0  -3    0.00    0.12
   9   0  -3   -0.16    0.11
   9   0  -2   34.23    1.53
   9   0  -2   27.37    1.51
  -9   0   2   33.41    1.52
   9   0  -1    0.08    0.13
  -9   0   1   -0.05    0.13
   9   0   0 1000.00   44.88
  -9   0   0  954.49   44.83
  -9   0  -1    0.03    0.13
   9   0   1    0.02    0.12
   9   0   2    1.64    0.20
  -9   0  -2    1.75    0.23
  -9   0  -3    0.17    0.15
  -9   0  -3   -0.02    0.15
  -9   0  -3    0.02    0.11
   9   0   3    0.00    0.12
   9   0   3    0.06    0.13
   9   0   4   20.45    1.05
  -9   0  -4   21.91    1.10
  -9   0  -4   21.03    1.03
  -9   0  -5   -0.04    0.16
  -9   0  -6    7.69    0.54
  -9   0  -7    0.07    0.18
   9   1  -9    0.77    0.11
   9  -1  -9    0.75    0.18
  -9  -1   9    0.81    0.25
  -9   1   8    1.32    0.28
   9   1  -8    1.02    0.14
  -9  -1   8    1.06    0.25
   9  -1  -8    0.85    0.17
   9   1  -7    1.92    0.20
   9   1  -7    2.56    0.23
   9  -1  -7    2.12    0.22
   9   1  -6    0.91    0.15
   9   1  -6    0.72    0.14
   9  -1  -6    0.83    0.15
   9  -1  -6    0.80    0.16
   9   1  -5   16.93    0.83
  -9   1   5   16.22    0.80
   9   1  -5   15.59    0.82
   9  -1  -5   16.66    0.84
  -9   1   4   22.07    1.07
   9   1  -4   23.38    1.09
   9  -1  -4   20.63    1.08
  -9  -1   4   21.30    1.05
   9  -1  -4   23.23    1.10
   9   1  -3  205.73    9.01
  -9   1   3  201.92    9.00
   9   1  -3  173.39    9.00
   9  -1  -3  187.13    9.01
   9  -1  -3  213.04    9.02
  -9  -1   3  199.16    9.00
   9   1  -2   49.71    2.72
  -9   1   2   62.27    2.73
   9   1  -2   64.10    2.74
   9  -1  -2   53.75    2.72
   9  -1  -2   61.01    2.73
  -9  -1   2   59.42    2.73
  -9   1   1   13.65    0.68
   9   1  -1   13.51    0.68
   9  -1  -1   12.39    0.68
  -9  -1   1   11.30    0.67
   9   1   0    2.71    0.26
  -9   1   0    2.92    0.27
  -9  -1   0    2.80    0.26
   9  -1   0    3.01    0.27
   9   1   1   35.38    1.67
  -9   1  -1   32.64    1.67
   9  -1   1   35.11    1.66
  -9  -1  -1   35.21    1.67
  -9   1  -2   40.65    1.87
  -9   1  -2   32.80    1.84
   9   1   2   40.60    1.87
  -9  -1  -2   39.82    1.75
  -9  -1  -2   39.09    1.87
   9  -1   2   39.88    1.85
  -9   1  -3    0.95    0.19
   9   1   3    0.61    0.16
  -9   1  -3    0.86    0.19
  -9   1  -3    0.77    0.16
   9  -1   3    0.98    0.16
  -9  -1  -3    1.16    0.20
  -9  -1  -3    0.94    0.19
  -9   1  -4    0.14    0.17
  -9   1  -4   -0.01    0.15
   9   1   4   -0.09    0.12
  -9   1  -4    0.06    0.12
  -9  -1  -4    0.27    0.17
  -9  -1  -4    0.21    0.18
  -9  -1  -4   -0.06    0.12
   9  -1   4    0.09    0.12
  -9   1  -5    1.72    0.25
  -9   1  -5    1.66    0.23
  -9  -1  -5    1.65    0.25
  -9   1  -6    0.23    0.18
  -9  -1  -6    0.37    0.19
  -9   1  -7    3.06    0.33
  -9  -1  -7    2.24    0.32
  -9  -2   9    0.90    0.25
   9  -2  -9    0.69    0.21
   9   2  -8    0.88    0.13
  -9   2   8    1.20    0.28
   9  -2  -8    0.92    0.20
  -9  -2   8    0.82    0.23
   9   2  -7    0.67    0.12
   9   2  -7    0.81    0.14
   9  -2  -7    0.60    0.17
   9   2  -6   50.01    2.28
   9   2  -6   45.69    2.27
   9  -2  -6   49.87    2.31
  -9   2   5    9.09    0.49
   9   2  -5    8.86    0.50
   9   2  -5    8.64    0.49
   9  -2  -5    9.26    0.52
   9  -2  -5    7.75    0.50
   9   2  -4    5.27    0.34
  -9   2   4    5.12    0.33
   9  -2  -4    4.56    0.34
  -9  -2   4    4.75    0.30
   9  -2  -4    5.12    0.36
   9   2  -3    0.81    0.16
   9   2  -3    0.58    0.13
  -9   2   3    0.77    0.15
   9  -2  -3    0.45    0.13
   9  -2  -3    0.60    0.16
  -9  -2   3    0.62    0.13
  -9   2   2  302.06   13.46
   9   2  -2  249.40   13.34
   9   2  -2  293.78   13.35
  -9  -2   2  311.83   13.35
   9  -2  -2  305.28   13.50
  -9   2   1   25.73    1.27
   9   2  -1   24.42    1.25
  -9  -2   1   26.63    1.27
   9  -2  -1   26.06    1.27
   9   2   0  148.80    6.75
  -9   2   0  139.21    6.75
  -9  -2   0  147.62    6.75
   9  -2   0  150.92    6.75
  -9   2  -1   86.54    4.04
   9   2   1   85.07    4.03
   9  -2   1   85.84    4.02
  -9  -2  -1   89.22    4.04
  -9   2  -2   23.21    1.33
   9   2   2   27.80    1.35
  -9   2  -2   27.72    1.36
  -9  -2  -2   27.22    1.36
   9  -2   2   29.19    1.34
  -9  -2  -2   29.04    1.28
  -9   2  -3   -0.03    0.13
  -9   2  -3    0.19    0.16
  -9   2  -3    0.31    0.14
   9   2   3   -0.04    0.15
  -9  -2  -3    0.13    0.17
   9  -2   3    0.12    0.13
  -9  -2  -3    0.22    0.17
   9   2   4    8.64    0.55
  -9   2  -4    9.10    0.51
  -9   2  -4    9.14    0.57
  -9   2  -4    7.86    0.52
   9  -2   4    9.49    0.51
  -9  -2  -4    9.91    0.59
  -9   2  -5    0.99    0.21
  -9   2  -5    0.65    0.17
  -9  -2  -5    0.83    0.22
  -9   2  -6    2.81    0.30
  -9  -2  -6    2.64    0.32
  -9   2  -7    0.31    0.19
  -9  -2  -7    0.21    0.21
   9   3  -8    1.15    0.15
  -9  -3   8    0.83    0.22
   9  -3  -8    0.84    0.23
  -9   3   7    1.66    0.29
   9   3  -7    1.77    0.18
   9  -3  -7    1.55    0.24
   9   3  -6    5.39    0.36
   9   3  -6    6.24    0.39
   9  -3  -6    6.14    0.44
   9   3  -5   41.11    2.06
  -9   3   5   44.19    2.07
   9   3  -5   44.91    2.07
   9  -3  -5   44.33    2.10
  -9   3   4   10.44    0.59
   9   3  -4   10.39    0.58
   9  -3  -4   10.99    0.61
  -9  -3   4   10.34    0.56
   9   3  -3   20.52    1.11
  -9   3   3   22.38    1.13
   9   3  -3   22.53    1.12
   9  -3  -3   25.24    1.15
  -9  -3   3   22.67    1.12
   9   3  -2    0.10    0.12
  -9   3   2    0.22    0.15
   9   3  -2   -0.16    0.12
   9  -3  -2    0.09    0.15
  -9  -3   2   -0.23    0.12
  -9   3   1  182.83    8.34
   9   3  -1  183.01    8.34
   9  -3  -1  180.48    8.34
  -9  -3   1  180.04    8.34
   9   3   0   38.99    1.91
  -9   3   0   40.35    1.93
   9  -3   0   40.19    1.91
  -9  -3   0   40.32    1.92
  -9   3  -1   15.01    0.81
   9   3   1   14.63    0.80
  -9  -3  -1   15.19    0.82
  -9  -3  -1   15.58    0.76
   9  -3   1   14.76    0.79
   9   3   2    0.74    0.17
  -9   3  -2    0.82    0.19
  -9  -3  -2    0.55    0.20
  -9  -3  -2    0.86    0.18
   9  -3   2    0.60    0.15
   9   3   3   18.23    0.92
  -9   3  -3   17.73    0.92
  -9   3  -3   17.27    0.82
  -9   3  -3   14.02    0.87
   9  -3   3   17.34    0.88
  -9  -3  -3   19.86    0.95
  -9  -3  -3   17.09    0.88
  -9   3  -4   36.40    1.71
   9   3   4   37.63    1.86
  -9   3  -4   39.12    1.87
   9  -3   4   37.80    1.81
  -9  -3  -4   39.72    1.88
  -9   3  -5    4.22    0.33
  -9   3  -5    3.79    0.35
  -9  -3  -5    3.51    0.38
  -9   3  -6   11.15    0.66
  -9  -3  -6   10.48    0.70
  -9   3  -7    9.18    0.59
  -9  -3  -7    8.29    0.65
   9   4  -8    8.61    0.49
   9  -4  -8    9.14    0.63
   9   4  -7    5.96    0.39
  -9   4   7    4.91    0.47
   9  -4  -7    5.73    0.47
   9   4  -6    0.71    0.16
   9  -4  -6    0.76    0.21
   9   4  -5    4.89    0.35
  -9   4   5    4.40    0.36
   9  -4  -5    5.10    0.41
  -9   4   4   56.96    2.64
   9   4  -4   56.61    2.62
   9   4  -4   49.13    2.61
  -9  -4   4   55.27    2.61
   9  -4  -4   60.56    2.66
   9   4  -3   29.67    1.63
   9   4  -3   34.68    1.64
  -9   4   3   35.78    1.66
  -9  -4   3   35.48    1.64
   9  -4  -3   33.70    1.66
   9   4  -2   36.81    1.75
  -9   4   2   36.38    1.76
  -9  -4   2   35.07    1.74
   9  -4  -2   36.05    1.76
  -9   4   1   33.13    1.65
   9   4  -1   35.03    1.65
  -9  -4   1   33.54    1.64
   9  -4  -1   32.87    1.64
   9   4   0   40.31    2.02
  -9   4   0   43.29    2.04
   9  -4   0   42.54    2.02
  -9  -4   0   42.01    2.03
  -9   4  -1    7.50    0.51
   9   4   1    7.03    0.49
  -9  -4  -1    8.37    0.53
  -9  -4  -1    7.69    0.46
   9  -4   1    6.91    0.47
  -9   4  -2   37.60    1.77
   9   4   2   36.74    1.76
  -9  -4  -2   35.78    1.65
  -9  -4  -2   34.64    1.77
   9  -4   2   35.19    1.74
   9   4   3    8.91    0.56
  -9   4  -3    9.18    0.56
  -9   4  -3    8.08    0.46
   9  -4   3    8.62    0.52
  -9  -4  -3    9.27    0.60
   9   4   4    0.79    0.21
  -9   4  -4    0.18    0.18
  -9   4  -4    0.59    0.14
  -9  -4  -4    0.27    0.23
  -9   4  -5   -0.13    0.17
  -9  -4  -5    0.16    0.24
  -9   4  -6    1.17    0.24
  -9  -4  -6    0.88    0.29
  -9   4  -7    1.93    0.28
  -9  -4  -7    2.01    0.36
   9   5  -7    2.65    0.27
   9  -5  -7    3.25    0.37
   9   5  -6    9.55    0.59
  -9   5   6   10.60    0.65
   9  -5  -6   10.42    0.68
   9   5  -5   15.05    0.82
  -9   5   5   14.92    0.84
   9  -5  -5   15.63    0.88
  -9   5   4    2.45    0.28
   9   5  -4    1.70    0.23
   9  -5  -4    1.67    0.26
  -9   5   3   24.71    1.28
   9   5  -3   25.09    1.26
   9  -5  -3   26.08    1.30
  -9  -5   3   24.33    1.25
   9   5  -2    0.13    0.17
  -9   5   2    0.02    0.17
  -9  -5   2    0.26    0.17
   9  -5  -2   -0.06    0.17
  -9   5   1   19.99    1.05
   9   5  -1   20.05    1.04
   9  -5  -1   18.81    1.04
  -9  -5   1   20.32    1.05
  -9   5   0    4.88    0.43
   9   5   0    4.56    0.40
   9  -5   0    4.46    0.39
  -9  -5   0    4.12    0.34
  -9  -5   0    4.53    0.40
   9   5   1   33.55    1.73
  -9   5  -1   37.94    1.75
   9  -5   1   35.14    1.71
  -9  -5  -1   34.24    1.60
  -9  -5  -1   33.99    1.73
  -9   5  -2   21.83    1.11
   9   5   2   22.10    1.11
  -9  -5  -2   18.51    1.00
  -9  -5  -2   21.68    1.12
   9  -5   2   20.25    1.07
   9   5   3    0.06    0.18
  -9   5  -3    0.14    0.10
  -9   5  -3    0.13    0.19
  -9  -5  -3   -0.02    0.20
   9  -5   3   -0.12    0.15
   9   5   4    0.17    0.19
  -9   5  -4    0.14    0.19
  -9  -5  -4    0.09    0.23
  -9   5  -5   26.73    1.40
  -9  -5  -5   27.78    1.46
  -9   5  -6    0.98    0.25
  -9  -5  -6    0.58    0.30
   9   6  -7    3.49    0.33
   9  -6  -7    4.44    0.46
  -9   6   6    5.73    0.50
   9   6  -6    6.60    0.47
   9  -6  -6    5.85    0.55
   9   6  -5   16.72    0.92
  -9   6   5   16.32    0.91
   9  -6  -5   18.02    0.99
   9   6  -4   12.09    0.71
  -9   6   4   10.86    0.72
   9  -6  -4   12.99    0.77
  -9   6   3    0.37    0.21
   9   6  -3    0.70    0.21
   9  -6  -3    0.80    0.24
   9   6  -2    8.93    0.57
  -9   6   2    8.63    0.57
   9  -6  -2    7.79    0.58
  -9  -6   2    8.44    0.55
  -9  -6   2    7.96    0.45
  -9   6   1    0.62    0.23
   9   6  -1    0.72    0.21
  -9  -6   1    0.91    0.16
   9  -6  -1    0.34    0.22
  -9  -6   1    0.53    0.22
   9   6   0   17.00    0.94
  -9   6   0   16.98    0.93
  -9  -6   0   16.15    0.82
   9  -6   0   17.17    0.92
  -9  -6   0   16.24    0.93
   9   6   1    0.78    0.24
  -9   6  -1    0.90    0.25
  -9  -6  -1    0.95    0.26
   9  -6   1    1.11    0.22
  -9  -6  -1    1.12    0.20
  -9   6  -2   24.54    1.26
   9   6   2   24.54    1.27
   9  -6   2   23.24    1.23
  -9  -6  -2   23.31    1.28
  -9   6  -3    4.35    0.41
   9   6   3    4.33    0.42
  -9  -6  -3    3.65    0.42
  -9   6  -4   12.46    0.74
   9   6   4   10.42    0.75
  -9  -6  -4   12.05    0.79
  -9   6  -5    2.47    0.33
  -9  -6  -5    3.12    0.42
  -9   7   5    5.52    0.46
   9   7  -5    5.20    0.48
   9  -7  -5    4.94    0.51
   9   7  -4    3.10    0.34
  -9   7   4    2.40    0.31
  -9   7   4    2.68    0.35
   9  -7  -4    2.47    0.36
  -9   7   3    0.20    0.17
   9   7  -3    0.11    0.21
  -9   7   3    0.19    0.23
   9  -7  -3   -0.04    0.23
  -9   7   2    1.26    0.30
  -9   7   2    1.59    0.22
   9   7  -2    1.80    0.30
   9  -7  -2    1.57    0.30
   9   7  -1   16.00    0.91
  -9   7   1   15.23    0.91
  -9  -7   1   14.79    0.74
   9  -7  -1   15.77    0.90
  -9  -7   1   14.64    0.89
  -9   7   0    6.29    0.52
   9   7   0    6.10    0.51
   9  -7   0    5.60    0.48
  -9  -7   0    6.00    0.50
  -9  -7   0    5.03    0.37
   9   7   1    3.66    0.40
  -9   7  -1    3.87    0.41
   9  -7   1    3.78    0.38
  -9  -7  -1    3.81    0.33
  -9  -7  -1    4.28    0.42
  -9   7  -2    6.99    0.59
   9   7   2    7.48    0.60
  -9  -7  -2    8.17    0.63
   9   7   3   23.56    1.35
  -9   7  -3   25.61    1.35
  -9  -7  -3   25.89    1.39
  -9   7  -4    0.01    0.23
  -9  -7  -4   -0.09    0.27
   9   8  -4    0.96    0.28
   9  -8  -4    0.94    0.32
   9   8  -3    4.53    0.50
  -9   8   3    6.14    0.55
   9  -8  -3    6.34    0.57
   9   8  -2    1.58    0.33
  -9   8   2    1.83    0.36
   9  -8  -2    2.03    0.34
  -9   8   1    1.98    0.35
   9   8  -1    2.60    0.37
   9  -8  -1    2.40    0.36
   9   8   0    2.85    0.39
  -9   8   0    3.94    0.45
  -9  -8   0    2.92    0.40
   9  -8   0    2.22    0.34
  -9   8  -1    0.78    0.31
   9   8   1    0.65    0.28
  -9  -8  -1    0.45    0.28
   9   8   2   11.37    0.77
  -9   8  -2   10.87    0.78
  -9  -8  -2   10.17    0.78
  -9   8  -3    0.17    0.28
  -9  -8  -3    0.43    0.31
  10   0  -9    0.03    0.14
  10   0  -8   18.74    0.94
  10   0  -7   -0.08    0.12
  10   0  -6    1.76    0.19
  10   0  -6    2.18    0.22
  10   0  -5    0.03    0.13
 -10   0   5    0.08    0.08
  10   0  -5    0.05    0.03
  10   0  -4  238.73   10.22
 -10   0   4  224.36   10.03
  10   0  -4  197.41   10.04
 -10   0   3   -0.12    0.10
  10   0  -3   -0.02    0.10
  10   0  -3    0.05    0.13
  10   0  -3   -0.06    0.13
  10   0  -2  283.19   14.12
 -10   0   2  306.29   14.12
  10   0  -2  340.19   14.28
 -10   0   1    0.25    0.13
  10   0  -1   -0.03    0.13
 -10   0   0   12.95    0.71
 -10   0  -1    0.09    0.15
  10   0   1    0.02    0.12
 -10   0  -2   33.78    1.70
  10   0   2   35.76    1.68
  10   0   3   -0.01    0.13
 -10   0  -3   -0.06    0.17
 -10   0  -3   -0.17    0.15
  10   0   4   18.29    0.97
 -10   0  -4   20.32    1.03
 -10   0  -5    0.01    0.18
 -10   0  -6    8.15    0.57
 -10   0  -7   -0.07    0.19
  10   1  -9    1.54    0.16
  10  -1  -9    1.50    0.22
  10   1  -8    0.51    0.13
  10  -1  -8    0.13    0.15
  10   1  -7   12.62    0.65
  10  -1  -7   11.52    0.66
  10   1  -6    1.14    0.17
  10   1  -6    1.67    0.19
  10  -1  -6    1.30    0.20
  10   1  -5   73.53    3.26
  10   1  -5   66.67    3.25
 -10   1   5   70.06    3.23
  10  -1  -5   72.48    3.27
  10  -1  -5   66.39    3.26
  10   1  -4    0.11    0.12
  10   1  -4    0.04    0.11
 -10   1   4    0.20    0.11
 -10  -1   4   -0.02    0.10
  10  -1  -4    0.01    0.11
  10  -1  -4    0.17    0.14
  10   1  -3   75.14    3.39
 -10   1   3   74.25    3.37
  10   1  -3   69.69    3.38
 -10  -1   3   75.14    3.37
  10  -1  -3   76.75    3.39
  10  -1  -3   64.45    3.37
  10   1  -2    2.76    0.27
 -10   1   2    3.45    0.29
  10   1  -2    3.71    0.31
  10  -1  -2    3.02    0.29
 -10  -1   2    3.46    0.29
  10   1  -1   25.78    1.25
 -10   1   1   26.11    1.25
 -10  -1   1   24.19    1.24
  10  -1  -1   25.00    1.25
  10   1   0   47.75    2.23
 -10   1   0   46.02    2.22
 -10  -1   0   47.80    2.23
  10  -1   0   45.31    2.22
 -10   1  -1   63.73    3.02
  10   1   1   65.10    3.01
 -10  -1  -1   64.34    3.02
  10  -1   1   62.77    3.00
  10   1   2   42.61    2.02
 -10   1  -2   43.51    2.04
  10  -1   2   41.52    2.01
 -10  -1  -2   40.76    2.03
 -10   1  -3   10.56    0.70
 -10   1  -3   13.39    0.69
 -10   1  -3   14.11    0.76
  10   1   3   14.75    0.74
 -10  -1  -3   13.32    0.71
  10  -1   3   12.87    0.70
 -10  -1  -3   14.30    0.76
 -10   1  -4   42.47    1.97
  10   1   4   44.79    2.09
 -10   1  -4   42.20    2.11
 -10  -1  -4   45.50    2.12
  10  -1   4   42.78    2.07
 -10   1  -5   29.06    1.43
 -10  -1  -5   27.29    1.43
 -10   1  -6    1.02    0.23
 -10  -1  -6    0.72    0.22
 -10   1  -7    4.89    0.46
 -10  -1  -7    4.86    0.46
 -10   2   8    0.88    0.27
  10   2  -8    0.45    0.13
  10  -2  -8    0.75    0.19
  10   2  -7    2.23    0.21
  10  -2  -7    1.71    0.24
  10   2  -6   46.37    2.06
  10   2  -6   39.46    2.05
  10  -2  -6   44.65    2.08
  10   2  -5    8.04    0.49
 -10   2   5    8.77    0.49
  10   2  -5    9.59    0.52
  10  -2  -5    9.13    0.53
  10  -2  -5    8.15    0.51
  10   2  -4   33.31    1.69
  10   2  -4   37.79    1.70
 -10   2   4   37.41    1.69
  10  -2  -4   30.82    1.69
  10  -2  -4   37.41    1.71
 -10  -2   4   35.25    1.67
 -10   2   3    1.02    0.17
  10   2  -3    0.82    0.16
  10   2  -3    0.96    0.18
  10  -2  -3    1.27    0.20
 -10  -2   3    1.26    0.18
  10   2  -2  180.95    9.51
  10   2  -2  215.79    9.52
 -10   2   2  212.54    9.52
  10  -2  -2  209.84    9.52
 -10  -2   2  218.74    9.52
 -10   2   1   55.16    2.59
  10   2  -1   55.38    2.58
 -10  -2   1   52.27    2.58
  10  -2  -1   55.63    2.58
  10   2   0   16.48    0.87
 -10   2   0   17.06    0.89
 -10  -2   0   16.17    0.87
  10  -2   0   17.07    0.88
  10   2   1    0.09    0.15
 -10   2  -1    0.23    0.16
  10  -2   1    0.16    0.15
 -10  -2  -1    0.20    0.16
 -10   2  -2    6.78    0.48
  10   2   2    7.15    0.47
 -10  -2  -2    7.43    0.49
  10  -2   2    7.26    0.46
 -10  -2  -2    6.81    0.47
  10   2   3    2.44    0.27
 -10   2  -3    2.36    0.26
 -10   2  -3    2.47    0.25
 -10   2  -3    3.27    0.32
 -10  -2  -3    3.06    0.32
 -10  -2  -3    3.31    0.31
  10  -2   3    3.17    0.27
 -10   2  -4    0.38    0.16
 -10   2  -4    0.19    0.18
  10   2   4    0.10    0.15
 -10  -2  -4    0.16    0.19
  10  -2   4    0.27    0.13
 -10   2  -5    0.23    0.17
 -10   2  -5    0.37    0.20
 -10  -2  -5    0.14    0.18
 -10   2  -6    0.28    0.19
 -10  -2  -6    0.04    0.19
 -10   2  -7   -0.01    0.19
 -10  -2  -7    0.10    0.22
  10   3  -8    4.81    0.33
  10  -3  -8    5.04    0.44
  10   3  -7   13.11    0.71
  10  -3  -7   13.83    0.77
  10   3  -6    4.00    0.33
  10  -3  -6    4.27    0.38
  10   3  -5   30.26    1.36
  10   3  -5   25.52    1.35
 -10   3   5   26.08    1.35
  10  -3  -5   29.16    1.39
  10   3  -4    7.28    0.45
  10   3  -4    6.33    0.43
 -10   3   4    7.12    0.46
  10  -3  -4    7.55    0.49
 -10  -3   4    7.58    0.43
  10   3  -3   39.94    2.01
 -10   3   3   43.02    2.03
  10   3  -3   37.67    2.01
  10  -3  -3   46.95    2.04
 -10  -3   3   43.96    2.02
  10   3  -2   14.20    0.75
 -10   3   2   14.14    0.76
 -10  -3   2   14.66    0.76
  10  -3  -2   12.76    0.75
  10   3  -1   65.26    3.17
 -10   3   1   67.94    3.18
 -10  -3   1   69.65    3.18
  10  -3  -1   67.28    3.17
 -10   3   0   68.08    3.17
  10   3   0   65.18    3.16
  10  -3   0   68.05    3.16
 -10  -3   0   67.62    3.17
 -10   3  -1    0.11    0.17
  10   3   1    0.19    0.14
 -10  -3  -1    0.49    0.19
  10  -3   1    0.24    0.15
  10   3   2    1.33    0.22
 -10   3  -2    1.96    0.27
 -10  -3  -2    1.36    0.24
  10  -3   2    1.71    0.22
 -10  -3  -2    1.73    0.24
  10   3   3   50.86    2.42
 -10   3  -3   53.41    2.43
 -10   3  -3   47.84    2.22
 -10  -3  -3   50.40    2.32
  10  -3   3   47.73    2.38
 -10  -3  -3   52.55    2.44
  10   3   4    0.16    0.17
 -10   3  -4   -0.02    0.13
 -10   3  -4    0.18    0.17
 -10  -3  -4    0.08    0.19
 -10   3  -5    2.11    0.29
 -10   3  -5    2.23    0.25
 -10  -3  -5    2.40    0.31
 -10   3  -6   10.62    0.66
 -10  -3  -6   10.23    0.71
 -10   3  -7   16.02    0.88
 -10  -3  -7   13.92    0.92
  10   4  -8    8.32    0.49
  10  -4  -8    7.67    0.59
 -10   4   7    5.78    0.49
  10   4  -7    7.05    0.44
  10  -4  -7    6.91    0.53
  10   4  -6    3.14    0.29
  10  -4  -6    3.44    0.35
  10   4  -5    0.14    0.14
 -10   4   5    0.08    0.16
  10  -4  -5    0.07    0.17
  10   4  -4   63.53    3.02
 -10   4   4   63.56    3.03
  10  -4  -4   67.26    3.06
 -10  -4   4   62.85    3.01
 -10   4   3    0.58    0.19
  10   4  -3    0.49    0.15
  10   4  -3    0.59    0.17
  10  -4  -3    0.50    0.19
 -10  -4   3    0.56    0.17
  10   4  -2    8.94    0.56
 -10   4   2    9.65    0.58
 -10  -4   2    8.98    0.55
  10  -4  -2    9.17    0.58
 -10   4   1   15.31    0.82
  10   4  -1   15.43    0.81
 -10  -4   1   14.49    0.81
  10  -4  -1   13.57    0.80
  10   4   0  111.25    5.24
 -10   4   0  118.69    5.26
 -10  -4   0  110.33    5.25
  10  -4   0  111.46    5.24
 -10   4  -1    5.21    0.42
  10   4   1    4.51    0.39
 -10  -4  -1    4.05    0.35
  10  -4   1    4.76    0.37
 -10  -4  -1    4.35    0.39
 -10   4  -2    5.11    0.43
  10   4   2    4.91    0.41
 -10  -4  -2    4.72    0.39
  10  -4   2    4.32    0.37
 -10  -4  -2    4.95    0.45
 -10   4  -3    2.85    0.26
  10   4   3    3.48    0.35
 -10   4  -3    4.37    0.38
 -10  -4  -3    2.80    0.34
  10  -4   3    3.50    0.31
 -10   4  -4    1.18    0.17
  10   4   4    0.86    0.21
 -10   4  -4    0.92    0.23
 -10  -4  -4    0.75    0.26
 -10   4  -5   -0.05    0.18
 -10  -4  -5   -0.14    0.23
 -10   4  -6    9.03    0.62
 -10  -4  -6    9.28    0.68
  10   5  -7    4.09    0.36
  10  -5  -7    3.83    0.41
 -10   5   6    1.72    0.29
  10   5  -6    1.51    0.22
  10  -5  -6    1.62    0.29
 -10   5   5    1.44    0.26
  10   5  -5    1.42    0.22
  10  -5  -5    1.33    0.27
 -10   5   4   -0.01    0.17
  10   5  -4    0.19    0.16
  10  -5  -4    0.07    0.19
 -10   5   3   45.72    2.20
  10   5  -3   46.25    2.20
 -10  -5   3   44.03    2.18
  10  -5  -3   45.78    2.21
  10   5  -2   16.46    0.92
 -10   5   2   16.98    0.93
  10  -5  -2   18.06    0.94
 -10  -5   2   16.14    0.91
 -10   5   1    6.07    0.47
  10   5  -1    6.36    0.47
  10  -5  -1    5.43    0.46
 -10  -5   1    5.98    0.46
 -10   5   0   36.86    1.76
  10   5   0   36.14    1.75
  10  -5   0   34.43    1.73
 -10  -5   0   34.61    1.75
 -10  -5   0   34.26    1.60
  10   5   1   38.29    1.82
 -10   5  -1   38.44    1.83
  10  -5   1   36.05    1.80
 -10  -5  -1   34.44    1.68
 -10  -5  -1   36.47    1.83
 -10   5  -2    6.29    0.50
  10   5   2    6.41    0.49
 -10  -5  -2    6.75    0.52
  10  -5   2    5.61    0.44
  10   5   3    4.27    0.39
 -10   5  -3    3.08    0.25
 -10   5  -3    3.68    0.36
 -10  -5  -3    2.86    0.35
 -10   5  -4   -0.05    0.19
  10   5   4    0.12    0.20
 -10  -5  -4    0.74    0.28
 -10   5  -5   25.01    1.33
 -10  -5  -5   25.51    1.39
 -10   5  -6    2.91    0.35
 -10  -5  -6    2.35    0.40
  10   6  -6    5.78    0.47
 -10   6   6    5.92    0.51
  10  -6  -6    7.01    0.56
 -10   6   5   13.15    0.76
  10   6  -5   13.56    0.78
  10  -6  -5   12.90    0.82
 -10   6   4    5.81    0.47
  10   6  -4    4.67    0.44
  10  -6  -4    5.45    0.49
  10   6  -3    8.41    0.56
 -10   6   3    7.55    0.57
  10  -6  -3    8.22    0.59
  10   6  -2   16.99    0.92
 -10   6   2   17.89    0.94
  10  -6  -2   17.01    0.93
 -10  -6   2   15.04    0.79
 -10  -6   2   15.18    0.90
  10   6  -1    0.39    0.22
 -10   6   1    0.53    0.23
 -10  -6   1    0.52    0.16
  10  -6  -1    0.63    0.21
 -10  -6   1    0.49    0.21
  10   6   0   30.32    1.52
 -10   6   0   31.55    1.53
 -10  -6   0   27.83    1.37
 -10  -6   0   29.50    1.51
  10  -6   0   29.17    1.50
 -10   6  -1   11.24    0.71
  10   6   1   11.86    0.72
  10  -6   1   10.80    0.67
 -10  -6  -1   10.38    0.60
 -10  -6  -1   10.71    0.71
  10   6   2    7.89    0.60
 -10   6  -2    9.01    0.62
  10  -6   2    7.95    0.56
 -10  -6  -2    9.05    0.64
 -10   6  -3    0.21    0.23
  10   6   3    0.29    0.22
 -10  -6  -3    0.20    0.26
 -10   6  -4    5.79    0.53
  10   6   4    6.37    0.56
 -10  -6  -4    7.27    0.60
 -10   6  -5    6.46    0.56
 -10  -6  -5    6.80    0.62
 -10   7   5    5.02    0.47
  10   7  -5    5.58    0.51
  10  -7  -5    7.05    0.59
  10   7  -4   -0.06    0.20
 -10   7   4    0.23    0.20
 -10   7   4    0.27    0.25
  10  -7  -4    0.31    0.25
 -10   7   3    0.22    0.23
  10   7  -3    0.31    0.23
 -10   7   3    0.42    0.19
  10  -7  -3   -0.17    0.22
  10   7  -2    7.57    0.61
 -10   7   2   10.02    0.65
  10  -7  -2    8.09    0.62
 -10   7   1   13.96    0.87
  10   7  -1   14.77    0.86
 -10  -7   1   14.09    0.85
 -10  -7   1   12.98    0.70
  10  -7  -1   14.29    0.85
 -10   7   0    6.25    0.55
  10   7   0    7.39    0.57
  10  -7   0    6.14    0.51
 -10  -7   0    6.41    0.42
 -10  -7   0    5.99    0.54
  10   7   1    1.20    0.30
 -10   7  -1    0.54    0.27
 -10  -7  -1    1.20    0.31
  10  -7   1    0.55    0.23
  10   7   2    0.43    0.27
 -10   7  -2    0.20    0.24
 -10  -7  -2    1.04    0.30
  10   7   3   34.87    1.80
 -10   7  -3   35.35    1.80
 -10  -7  -3   34.65    1.83
 -10   7  -4    0.64    0.28
 -10  -7  -4   -0.20    0.28
  10   8  -4   -0.02    0.25
  10  -8  -4    0.00    0.29
  10   8  -3    1.71    0.34
 -10   8   3    3.86    0.44
  10  -8  -3    2.97    0.42
  10   8  -2    2.77    0.38
 -10   8   2    2.05    0.36
  10  -8  -2    1.70    0.34
 -10   8   1    6.20    0.56
  10   8  -1    5.40    0.51
  10  -8  -1    4.99    0.49
  10   8   0    6.76    0.59
 -10   8   0    6.98    0.61
 -10  -8   0    6.34    0.59
  10  -8   0    6.86    0.57
  10   8   1    0.38    0.28
 -10   8  -1    0.23    0.29
 -10  -8  -1    0.74    0.29
 -10   8  -2    7.02    0.63
  10   8   2    6.84    0.62
 -10  -8  -2    7.08    0.64
  11   0  -9    0.01    0.15
  11   0  -8   21.75    1.09
  11   0  -7   -0.11    0.13
  11   0  -6   13.72    0.74
  11   0  -5   -0.08    0.10
  11   0  -5    0.10    0.14
 -11   0   5   -0.07    0.09
 -11   0   4  198.09    8.62
  11   0  -4  193.10    8.64
  11   0  -4  173.23    8.63
 -11   0   3   -0.13    0.13
  11   0  -3    0.13    0.15
  11   0  -3   -0.04    0.12
  11   0  -3    0.08    0.14
 -11   0   2    3.31    0.31
  11   0  -2    3.82    0.32
  11   0  -1    0.03    0.13
 -11   0   1    0.14    0.14
  11   0   0   18.60    0.97
 -11   0   0   18.80    0.98
  11   0   1   -0.05    0.14
 -11   0  -1    0.17    0.16
  11   0   2    6.35    0.43
  11   0   2    6.06    0.44
 -11   0  -2    5.60    0.45
  11   0   3   -0.11    0.14
 -11   0  -3    0.03    0.18
 -11   0  -3   -0.23    0.17
  11   0   4   12.94    0.72
 -11   0  -4   13.69    0.78
 -11   0  -5    0.10    0.19
 -11   0  -6   30.37    1.56
 -11   0  -7    0.04    0.22
  11   1  -8    0.32    0.14
  11  -1  -8    0.09    0.16
  11   1  -7   26.44    1.25
  11  -1  -7   24.03    1.26
  11   1  -6    2.31    0.24
  11  -1  -6    1.99    0.23
  11   1  -5   28.68    1.32
 -11   1   5   26.69    1.29
 -11  -1   5   25.46    1.27
  11  -1  -5   28.35    1.33
  11  -1  -5   25.22    1.32
 -11   1   4    9.42    0.51
  11   1  -4    9.48    0.53
  11   1  -4    8.64    0.53
  11  -1  -4    9.12    0.55
  11  -1  -4    8.24    0.52
 -11  -1   4    9.07    0.50
 -11   1   3   86.27    3.85
  11   1  -3   84.14    3.85
  11   1  -3   77.22    3.85
  11  -1  -3   79.67    3.87
 -11  -1   3   83.19    3.84
  11  -1  -3   85.50    3.86
 -11   1   2   44.34    2.17
  11   1  -2   46.43    2.18
 -11  -1   2   45.31    2.17
  11  -1  -2   46.24    2.18
  11   1  -1   51.54    2.35
 -11   1   1   48.81    2.35
  11  -1  -1   48.16    2.35
 -11  -1   1   48.79    2.35
 -11   1   0    1.43    0.21
  11   1   0    1.57    0.23
  11  -1   0    1.07    0.20
 -11  -1   0    1.63    0.23
  11   1   1    0.15    0.16
 -11   1  -1    0.42    0.18
  11  -1   1    0.56    0.17
 -11  -1  -1    0.43    0.18
  11   1   2    1.23    0.21
 -11   1  -2    1.41    0.24
  11  -1   2    1.02    0.19
 -11  -1  -2    1.38    0.24
 -11   1  -3   79.05    3.60
 -11   1  -3   73.56    3.34
  11   1   3   80.13    3.58
  11  -1   3   72.32    3.56
 -11  -1  -3   73.10    3.36
 -11  -1  -3   79.29    3.60
 -11   1  -4    8.51    0.53
 -11   1  -4    8.51    0.57
  11   1   4    8.47    0.54
 -11  -1  -4   10.33    0.61
  11  -1   4    8.83    0.53
 -11   1  -5   16.65    0.90
 -11  -1  -5   15.06    0.90
 -11   1  -6    0.55    0.22
 -11  -1  -6    0.05    0.21
 -11   1  -7   18.24    1.01
 -11  -1  -7   17.32    1.02
  11   2  -8    0.63    0.16
  11  -2  -8    0.56    0.20
  11   2  -7    0.13    0.14
  11  -2  -7    0.05    0.16
  11   2  -6   93.94    4.38
  11  -2  -6   94.94    4.40
 -11   2   5    3.26    0.28
  11   2  -5    3.19    0.29
  11  -2  -5    2.91    0.28
  11   2  -4   19.85    0.99
  11   2  -4   17.08    0.97
 -11   2   4   19.83    0.98
  11  -2  -4   20.98    1.01
 -11  -2   4   18.69    0.96
  11   2  -3   65.04    2.96
  11   2  -3   53.44    2.95
 -11   2   3   66.37    2.96
 -11  -2   3   63.30    2.95
  11  -2  -3   66.92    2.98
 -11   2   2  127.82    5.91
  11   2  -2  126.36    5.91
  11  -2  -2  130.02    5.92
 -11  -2   2  127.21    5.91
 -11   2   1   14.37    0.80
  11   2  -1   14.98    0.80
 -11  -2   1   14.31    0.80
  11  -2  -1   14.98    0.80
 -11   2   0    0.10    0.16
  11   2   0    0.37    0.17
  11  -2   0    0.26    0.17
 -11  -2   0    0.22    0.16
 -11   2  -1   17.70    1.00
  11   2   1   19.36    1.00
  11  -2   1   20.40    1.00
 -11  -2  -1   19.26    1.01
  11   2   2    0.26    0.17
 -11   2  -2    0.16    0.18
 -11  -2  -2    0.15    0.18
 -11  -2  -2    0.24    0.19
  11  -2   2    0.14    0.15
  11   2   3    2.46    0.28
 -11   2  -3    2.65    0.30
 -11   2  -3    2.48    0.26
 -11  -2  -3    1.27    0.26
 -11  -2  -3    3.16    0.35
  11  -2   3    2.64    0.26
 -11   2  -4    5.54    0.39
  11   2   4    5.34    0.43
 -11   2  -4    5.85    0.45
  11  -2   4    5.57    0.38
 -11  -2  -4    5.35    0.46
 -11   2  -5   13.43    0.80
 -11  -2  -5   13.71    0.82
 -11   2  -6    5.30    0.46
 -11  -2  -6    4.83    0.47
 -11   2  -7    0.10    0.20
 -11  -2  -7    0.11    0.25
  11   3  -8    2.17    0.23
  11  -3  -8    2.16    0.30
  11   3  -7    9.84    0.58
  11  -3  -7   10.26    0.64
  11   3  -6    1.89    0.23
  11  -3  -6    1.64    0.25
 -11   3   5   41.98    2.09
  11   3  -5   43.28    2.10
  11  -3  -5   46.30    2.12
  11   3  -4    1.78    0.23
 -11   3   4    2.05    0.25
  11   3  -4    2.43    0.25
  11  -3  -4    2.91    0.30
 -11  -3   4    2.95    0.25
  11   3  -3    1.79    0.23
 -11   3   3    2.84    0.29
  11   3  -3    2.26    0.25
  11  -3  -3    2.60    0.29
 -11  -3   3    2.61    0.26
  11   3  -2   28.30    1.46
 -11   3   2   29.35    1.47
  11  -3  -2   30.75    1.48
 -11  -3   2   30.32    1.47
 -11   3   1   16.21    0.87
  11   3  -1   16.45    0.86
 -11  -3   1   14.91    0.85
  11  -3  -1   15.89    0.86
  11   3   0   49.60    2.38
 -11   3   0   48.50    2.38
 -11  -3   0   49.25    2.38
  11  -3   0   51.48    2.38
 -11   3  -2   16.32    0.91
  11   3   2   17.00    0.90
  11  -3   2   16.52    0.88
 -11  -3  -2   17.56    0.93
 -11  -3  -2   15.32    0.85
 -11   3  -3   14.62    0.75
 -11   3  -3   15.13    0.86
  11   3   3   14.70    0.84
 -11  -3  -3   16.32    0.88
  11  -3   3   14.58    0.80
 -11   3  -4    0.43    0.20
 -11   3  -4    0.61    0.17
  11   3   4    0.24    0.18
 -11  -3  -4    0.89    0.25
 -11   3  -5    2.74    0.28
 -11   3  -5    2.69    0.33
 -11  -3  -5    2.79    0.36
 -11   3  -6    4.47    0.41
 -11  -3  -6    3.75    0.43
  11   4  -8   10.89    0.63
  11  -4  -8   11.43    0.73
  11   4  -7   12.54    0.70
  11  -4  -7   11.88    0.75
  11   4  -6    8.52    0.55
  11  -4  -6    9.75    0.61
 -11   4   5    6.96    0.50
  11   4  -5    7.74    0.50
  11  -4  -5    8.26    0.54
  11   4  -4   44.94    2.21
 -11   4   4   44.79    2.22
  11  -4  -4   48.94    2.25
 -11   4   3    0.11    0.17
  11   4  -3    0.02    0.15
  11  -4  -3   -0.03    0.18
 -11  -4   3    0.19    0.15
 -11   4   2   63.05    2.98
  11   4  -2   64.30    2.97
 -11  -4   2   60.98    2.97
  11  -4  -2   62.63    2.98
 -11   4   1    6.87    0.51
  11   4  -1    7.95    0.51
  11  -4  -1    7.19    0.52
 -11  -4   1    7.49    0.51
  11   4   0    2.43    0.29
 -11   4   0    2.44    0.31
 -11  -4   0    2.38    0.29
  11  -4   0    2.68    0.30
 -11   4  -1    3.05    0.34
  11   4   1    2.35    0.29
 -11  -4  -1    2.91    0.30
  11  -4   1    2.98    0.30
 -11  -4  -1    2.05    0.28
 -11   4  -2    7.89    0.56
  11   4   2    7.61    0.53
 -11  -4  -2    7.66    0.56
  11  -4   2    7.90    0.51
  11   4   3    9.30    0.59
 -11   4  -3    9.07    0.60
 -11   4  -3    7.84    0.48
 -11  -4  -3    9.25    0.62
  11  -4   3    8.81    0.54
  11   4   4    3.07    0.34
 -11   4  -4    2.83    0.33
 -11   4  -4    2.91    0.27
 -11  -4  -4    2.72    0.35
 -11   4  -5    0.85    0.24
 -11  -4  -5    1.04    0.29
 -11   4  -6   11.73    0.72
 -11  -4  -6   10.26    0.78
  11   5  -7    7.46    0.52
  11  -5  -7    7.84    0.60
  11   5  -6    0.28    0.17
  11  -5  -6    0.12    0.21
  11   5  -5    3.50    0.33
  11  -5  -5    3.14    0.35
 -11   5   4    3.82    0.35
  11   5  -4    2.99    0.31
  11  -5  -4    3.25    0.37
 -11   5   3   16.89    0.95
  11   5  -3   18.22    0.95
  11  -5  -3   17.66    0.97
 -11  -5   3   17.09    0.94
  11   5  -2   33.09    1.62
 -11   5   2   31.59    1.62
  11  -5  -2   33.01    1.63
 -11  -5   2   31.81    1.61
 -11   5   1    1.28    0.25
  11   5  -1    0.63    0.21
  11  -5  -1    0.49    0.20
 -11  -5   1    1.07    0.22
 -11   5   0   -0.01    0.21
  11   5   0    0.05    0.20
  11  -5   0    0.12    0.17
 -11  -5   0    0.18    0.17
 -11  -5   0    0.21    0.20
  11   5   1   67.46    3.18
 -11   5  -1   72.23    3.20
  11  -5   1   65.09    3.16
 -11  -5  -1   66.25    3.19
 -11  -5  -1   62.76    2.95
 -11   5  -2    2.27    0.31
  11   5   2    1.87    0.29
 -11  -5  -2    2.19    0.32
  11  -5   2    2.17    0.27
  11   5   3    0.44    0.22
 -11   5  -3    0.45    0.23
 -11  -5  -3    0.49    0.27
  11   5   4   15.73    0.93
 -11   5  -4   15.47    0.93
 -11  -5  -4   17.00    0.97
 -11   5  -5   17.33    1.02
 -11  -5  -5   18.61    1.08
 -11   6   6    2.40    0.34
  11   6  -6    1.76    0.27
  11  -6  -6    2.49    0.37
  11   6  -5    2.52    0.31
  11  -6  -5    3.32    0.40
 -11   6   4    4.33    0.41
  11   6  -4    4.75    0.43
  11  -6  -4    4.22    0.43
 -11   6   3   16.22    0.95
  11   6  -3   17.24    0.96
  11  -6  -3   17.43    0.98
 -11   6   2   17.10    0.93
  11   6  -2   15.73    0.91
 -11  -6   2   15.33    0.90
  11  -6  -2   15.21    0.91
  11   6  -1    3.17    0.36
 -11   6   1    3.01    0.35
  11  -6  -1    2.77    0.34
 -11  -6   1    2.96    0.28
 -11  -6   1    3.36    0.36
  11   6   0    5.48    0.47
 -11   6   0    4.35    0.44
 -11  -6   0    4.64    0.37
  11  -6   0    4.75    0.43
 -11  -6   0    5.46    0.47
 -11   6  -1    1.32    0.28
  11   6   1    0.64    0.26
  11  -6   1    1.27    0.25
 -11  -6  -1    1.07    0.29
  11   6   2    4.37    0.44
 -11   6  -2    3.87    0.42
 -11  -6  -2    3.99    0.43
  11   6   3    0.72    0.25
 -11   6  -3    0.46    0.25
 -11  -6  -3    0.70    0.29
 -11   6  -4    5.30    0.49
 -11  -6  -4    4.91    0.51
 -11   6  -5    6.87    0.58
 -11  -6  -5    6.46    0.61
 -11   7   5    3.12    0.38
  11   7  -5    2.42    0.34
  11  -7  -5    3.10    0.42
  11   7  -4    0.82    0.26
 -11   7   4    1.23    0.29
 -11   7   4    1.07    0.25
  11  -7  -4    0.99    0.29
  11   7  -3    0.17    0.23
 -11   7   3    0.28    0.24
  11  -7  -3    0.37    0.26
 -11   7   2    4.71    0.47
  11   7  -2    4.33    0.43
  11  -7  -2    4.64    0.47
 -11   7   1   28.85    1.47
  11   7  -1   28.10    1.46
  11  -7  -1   26.72    1.44
 -11  -7   1   25.90    1.43
  11   7   0    0.10    0.24
 -11   7   0   -0.25    0.24
  11  -7   0    0.06    0.20
 -11  -7   0   -0.21    0.23
 -11   7  -1    9.49    0.69
  11   7   1    9.08    0.69
 -11  -7  -1    9.40    0.69
  11  -7   1    8.73    0.62
 -11   7  -2   -0.01    0.25
  11   7   2    0.00    0.25
 -11  -7  -2    0.15    0.28
  11   7   3   31.97    1.68
 -11   7  -3   32.31    1.68
 -11  -7  -3   31.12    1.70
 -11   8   3   -0.41    0.24
  11   8  -3   -0.35    0.25
  11  -8  -3    0.33    0.27
  11   8  -2    5.45    0.54
 -11   8   2    5.85    0.55
  11  -8  -2    5.32    0.53
 -11   8   1    3.68    0.45
  11   8  -1    2.96    0.42
  11  -8  -1    2.80    0.40
 -11   8   0    9.36    0.72
  11   8   0    9.41    0.73
  11  -8   0    8.90    0.66
 -11  -8   0    9.31    0.72
 -11   8  -1    0.33    0.29
  11   8   1    0.36    0.29
 -11  -8  -1   -0.04    0.27
  12   0  -8   46.81    2.23
  12   0  -7   -0.06    0.14
  12   0  -6   15.83    0.84
  12   0  -5   -0.05    0.12
 -12   0   5    0.08    0.10
  12   0  -5   -0.08    0.15
 -12   0   4   52.00    2.33
  12   0  -4   43.92    2.33
  12   0  -4   51.89    2.36
  12   0  -3   -0.18    0.14
  12   0  -3    0.01    0.14
 -12   0   3   -0.23    0.13
  12   0  -2    1.82    0.23
 -12   0   2    1.89    0.22
 -12   0   1    0.06    0.16
  12   0  -1   -0.04    0.15
  12   0   0   14.34    0.76
 -12   0   0   12.63    0.75
  12   0   1    0.03    0.16
 -12   0  -1    0.01    0.16
 -12   0  -2    4.84    0.42
  12   0   2    4.44    0.39
  12   0   2    4.14    0.37
 -12   0  -3    0.09    0.19
  12   0   3    0.25    0.16
 -12   0  -3    0.24    0.19
  12   0   4   39.04    2.04
 -12   0  -4   46.18    2.10
 -12   0  -5    0.11    0.19
 -12   0  -6   33.07    1.69
 -12   0  -7    0.20    0.23
  12   1  -8    0.39    0.16
  12  -1  -8    0.40    0.18
  12   1  -7   14.26    0.75
  12  -1  -7   12.97    0.75
  12   1  -6    1.07    0.19
  12  -1  -6    0.91    0.20
  12   1  -5   43.04    1.97
  12   1  -5   44.26    1.98
  12   1  -5   36.66    1.99
 -12   1   5   39.83    1.94
  12  -1  -5   42.38    1.98
 -12  -1   5   39.51    1.92
 -12   1   4    0.04    0.12
  12   1  -4   -0.01    0.13
  12   1  -4    0.01    0.14
 -12  -1   4   -0.03    0.13
  12  -1  -4    0.09    0.16
  12  -1  -4    0.14    0.13
 -12   1   3    8.71    0.52
  12   1  -3    9.36    0.54
  12   1  -3    7.69    0.51
  12  -1  -3    8.29    0.54
 -12  -1   3    8.79    0.52
 -12   1   2   78.29    3.66
  12   1  -2   79.97    3.66
 -12  -1   2   80.37    3.66
  12  -1  -2   73.59    3.66
  12   1  -1    0.30    0.16
 -12   1   1    0.35    0.17
 -12  -1   1    0.19    0.16
  12  -1  -1    0.14    0.17
  12   1   0   47.55    2.27
 -12   1   0   46.89    2.28
  12  -1   0   47.54    2.27
 -12  -1   0   47.18    2.27
  12   1   1   47.96    2.32
 -12   1  -1   48.83    2.34
  12  -1   1   46.65    2.31
 -12  -1  -1   50.17    2.34
 -12   1  -2   65.35    2.94
  12   1   2   60.60    2.90
  12  -1   2   59.34    2.89
 -12  -1  -2   59.67    2.92
 -12   1  -3    6.14    0.44
 -12   1  -3    6.54    0.49
  12   1   3    6.13    0.46
 -12  -1  -3    6.56    0.50
  12  -1   3    6.39    0.44
 -12   1  -4    8.84    0.60
  12   1   4    9.28    0.56
  12  -1   4    8.46    0.54
 -12  -1  -4    9.34    0.61
 -12   1  -5   26.17    1.34
 -12  -1  -5   24.44    1.33
 -12   1  -6    3.64    0.40
 -12  -1  -6    3.07    0.38
 -12   1  -7    9.54    0.66
 -12  -1  -7    8.05    0.65
  12   2  -8    5.21    0.39
  12  -2  -8    5.74    0.46
  12   2  -7    0.13    0.16
  12  -2  -7    0.54    0.19
  12   2  -6   62.52    2.93
  12  -2  -6   61.66    2.94
 -12   2   5    1.03    0.18
  12   2  -5    1.03    0.19
  12  -2  -5    0.76    0.19
 -12   2   4   16.13    0.83
  12   2  -4   12.79    0.81
  12   2  -4   16.71    0.85
 -12  -2   4   15.56    0.81
  12  -2  -4   17.30    0.86
 -12   2   3    9.23    0.54
  12   2  -3    9.46    0.56
  12   2  -3    6.78    0.52
  12  -2  -3   10.01    0.58
 -12  -2   3    9.47    0.55
 -12   2   2   10.15    0.60
  12   2  -2    9.53    0.59
 -12  -2   2   10.23    0.59
  12  -2  -2    9.48    0.61
  12   2  -1   11.53    0.67
 -12   2   1   11.31    0.67
 -12  -2   1   11.11    0.67
  12  -2  -1   11.69    0.68
  12   2   0    0.18    0.17
 -12   2   0    0.38    0.19
 -12  -2   0    0.81    0.22
  12  -2   0    0.42    0.20
  12   2   1   24.05    1.23
 -12   2  -1   24.32    1.24
 -12  -2  -1   23.10    1.23
  12  -2   1   24.00    1.22
 -12   2  -2    1.45    0.25
  12   2   2    2.03    0.26
  12  -2   2    2.09    0.26
 -12  -2  -2    1.87    0.27
 -12  -2  -2    1.95    0.27
 -12   2  -3    7.19    0.51
 -12   2  -3    6.32    0.43
  12   2   3    6.09    0.48
 -12  -2  -3    7.24    0.52
  12  -2   3    6.44    0.45
 -12   2  -4   46.17    2.20
 -12   2  -4   40.79    2.02
  12   2   4   44.22    2.17
 -12  -2  -4   48.34    2.22
 -12   2  -5    4.27    0.41
 -12  -2  -5    3.20    0.37
 -12   2  -6    6.13    0.50
 -12  -2  -6    4.70    0.47
  12   3  -8    0.22    0.16
  12  -3  -8    0.17    0.21
  12   3  -7    8.44    0.52
  12  -3  -7    7.72    0.56
  12   3  -6   -0.13    0.15
  12  -3  -6   -0.04    0.18
 -12   3   5   26.13    1.36
  12   3  -5   27.79    1.38
  12  -3  -5   28.76    1.41
  12   3  -4   32.85    1.60
 -12   3   4   30.17    1.59
  12  -3  -4   34.87    1.62
 -12  -3   4   32.18    1.58
 -12   3   3    0.52    0.18
  12   3  -3    0.48    0.18
 -12  -3   3    0.28    0.15
  12  -3  -3    0.08    0.18
 -12   3   2    1.38    0.24
  12   3  -2    1.55    0.23
  12  -3  -2    1.93    0.26
 -12  -3   2    1.57    0.24
  12   3  -1   92.62    4.31
 -12   3   1   93.41    4.32
  12  -3  -1   90.27    4.31
 -12  -3   1   92.69    4.32
 -12   3   0    0.37    0.20
  12   3   0    0.47    0.20
 -12  -3   0    0.43    0.20
  12  -3   0    0.27    0.19
  12   3   1    0.55    0.19
 -12   3  -1    0.38    0.21
  12  -3   1    0.46    0.18
 -12  -3  -1    0.43    0.21
 -12   3  -2    5.84    0.47
  12   3   2    5.78    0.46
 -12  -3  -2    6.26    0.49
  12  -3   2    5.88    0.44
  12   3   3   61.27    2.98
 -12   3  -3   66.03    3.01
 -12   3  -3   57.94    2.75
 -12  -3  -3   66.91    3.01
  12  -3   3   61.02    2.95
 -12   3  -4    0.27    0.15
  12   3   4    0.25    0.19
 -12   3  -4    0.23    0.20
 -12  -3  -4    0.17    0.21
 -12   3  -5    4.15    0.41
 -12  -3  -5    4.10    0.44
 -12   3  -6    0.80    0.25
 -12  -3  -6    0.97    0.29
  12   4  -7    2.63    0.29
  12  -4  -7    2.25    0.32
  12   4  -6    4.34    0.39
  12  -4  -6    5.24    0.46
  12   4  -5   18.76    1.02
  12  -4  -5   20.04    1.06
  12   4  -4   43.54    2.19
 -12   4   4   44.52    2.19
  12  -4  -4   48.39    2.23
 -12   4   3    0.95    0.22
  12   4  -3    0.40    0.17
  12  -4  -3    0.41    0.20
 -12  -4   3    0.58    0.19
  12   4  -2    1.43    0.24
 -12   4   2    1.94    0.26
  12  -4  -2    2.06    0.28
 -12  -4   2    2.24    0.28
 -12   4   1   24.80    1.30
  12   4  -1   25.65    1.29
 -12  -4   1   24.32    1.28
  12  -4  -1   25.13    1.29
 -12   4   0   11.20    0.67
  12   4   0   10.88    0.66
  12  -4   0   10.43    0.65
 -12  -4   0   10.73    0.67
  12   4   1    5.43    0.44
 -12   4  -1    5.61    0.48
 -12  -4  -1    5.40    0.43
  12  -4   1    5.68    0.44
 -12  -4  -1    6.48    0.50
  12   4   2    5.26    0.46
 -12   4  -2    5.85    0.49
 -12  -4  -2    5.61    0.47
  12  -4   2    5.72    0.43
  12   4   3    6.27    0.50
 -12   4  -3    7.20    0.53
 -12   4  -3    5.56    0.39
 -12  -4  -3    7.36    0.56
  12  -4   3    6.00    0.47
 -12   4  -4    5.17    0.47
  12   4   4    4.11    0.42
 -12  -4  -4    4.54    0.46
 -12   4  -5    0.50    0.24
 -12  -4  -5    0.79    0.28
 -12   4  -6   13.98    0.87
 -12  -4  -6   14.28    0.93
  12   5  -7    7.98    0.57
  12  -5  -7    9.47    0.68
  12   5  -6    1.50    0.25
  12  -5  -6    1.49    0.30
  12   5  -5    0.56    0.19
  12  -5  -5    0.77    0.24
 -12   5   4    4.19    0.37
  12   5  -4    2.69    0.31
  12  -5  -4    3.64    0.39
 -12   5   3   45.29    2.18
  12   5  -3   45.02    2.17
  12  -5  -3   45.50    2.19
 -12  -5   3   42.21    2.16
  12   5  -2    6.15    0.48
 -12   5   2    5.66    0.47
  12  -5  -2    6.85    0.51
 -12  -5   2    6.44    0.48
 -12   5   1   11.92    0.71
  12   5  -1   10.53    0.69
  12  -5  -1   11.40    0.70
 -12  -5   1   10.54    0.68
  12   5   0    5.37    0.46
 -12   5   0    5.75    0.49
 -12  -5   0    5.17    0.47
  12  -5   0    5.00    0.44
 -12  -5   0    4.78    0.40
 -12   5  -1   59.71    2.76
  12   5   1   57.70    2.75
 -12  -5  -1   55.90    2.75
  12  -5   1   53.92    2.72
  12   5   2    9.80    0.67
 -12   5  -2   11.28    0.71
  12  -5   2   10.09    0.64
 -12  -5  -2   10.49    0.71
 -12   5  -3    3.21    0.38
  12   5   3    3.51    0.38
 -12  -5  -3    3.66    0.41
 -12   5  -4   10.10    0.70
  12   5   4   10.12    0.69
 -12  -5  -4    9.42    0.71
 -12   5  -5   12.51    0.82
 -12  -5  -5   13.24    0.87
  12   6  -6    9.07    0.60
  12  -6  -6    8.42    0.68
  12   6  -5   -0.05    0.18
  12  -6  -5    0.14    0.26
 -12   6   4    2.72    0.33
  12   6  -4    2.21    0.30
  12  -6  -4    2.29    0.34
  12   6  -3   23.93    1.26
 -12   6   3   23.81    1.26
  12  -6  -3   22.54    1.27
  12   6  -2   10.93    0.73
 -12   6   2   12.35    0.75
 -12  -6   2   10.75    0.71
  12  -6  -2   12.07    0.76
 -12   6   1    0.30    0.25
  12   6  -1    0.35    0.22
 -12  -6   1    0.09    0.17
 -12  -6   1    0.35    0.23
  12  -6  -1    0.11    0.23
  12   6   0    3.97    0.41
 -12   6   0    4.01    0.43
  12  -6   0    5.97    0.47
 -12  -6   0    4.73    0.45
  12   6   1    3.19    0.39
 -12   6  -1    2.94    0.38
  12  -6   1    2.79    0.34
 -12  -6  -1    2.96    0.38
 -12   6  -2    9.50    0.68
  12   6   2    9.64    0.68
 -12  -6  -2    8.69    0.67
  12   6   3    0.00    0.23
 -12   6  -3    0.48    0.27
 -12  -6  -3    0.66    0.30
 -12   6  -4    5.12    0.49
 -12  -6  -4    4.09    0.49
 -12   7   5    2.56    0.35
  12   7  -5    2.41    0.35
  12  -7  -5    2.84    0.41
 -12   7   4    0.70    0.27
  12   7  -4    0.62    0.26
  12  -7  -4    0.79    0.31
  12   7  -3    1.07    0.28
 -12   7   3    0.38    0.27
  12  -7  -3    0.55    0.27
  12   7  -2    6.61    0.57
 -12   7   2    6.68    0.58
  12  -7  -2    6.47    0.58
  12   7  -1   35.65    1.78
 -12   7   1   34.28    1.78
 -12  -7   1   33.18    1.76
  12  -7  -1   34.49    1.77
 -12   7   0    0.54    0.29
  12   7   0    0.17    0.27
 -12  -7   0    1.17    0.30
  12  -7   0    0.67    0.26
  12   7   1    5.39    0.52
 -12   7  -1    5.22    0.51
 -12  -7  -1    5.82    0.54
 -12   7  -2    2.11    0.37
  12   7   2    1.92    0.37
 -12  -7  -2    2.04    0.39
  12   7   3   13.35    0.87
 -12   7  -3   13.19    0.86
 -12  -7  -3   11.91    0.88
 -12   8   2   11.01    0.80
  12   8  -2   11.82    0.82
  12  -8  -2   11.46    0.80
  12   8  -1    0.78    0.32
 -12   8   1    0.63    0.32
  12  -8  -1    0.65    0.28
  12   8   0    6.70    0.60
 -12   8   0    7.00    0.64
 -12  -8   0    5.86    0.59
  12   8   1    1.65    0.37
 -12   8  -1    1.25    0.36
 -12  -8  -1    1.45    0.36
  13   0  -8   44.21    2.13
  13   0  -7    0.11    0.16
  13   0  -6    0.65    0.19
 -13   0   5   -0.05    0.11
  13   0  -5   -0.11    0.16
  13   0  -4   79.15    3.45
 -13   0   4   77.89    3.43
  13   0  -4   62.83    3.43
  13   0  -3   -0.07    0.16
 -13   0   3   -0.13    0.14
  13   0  -2   31.67    1.53
 -13   0   2   29.65    1.51
  13   0  -1    0.14    0.17
 -13   0   1    0.36    0.18
  13   0   0   13.07    0.75
 -13   0   0   13.33    0.76
  13   0   1    0.02    0.17
  13   0   1    0.17    0.17
 -13   0  -1   -0.15    0.17
  13   0   2  114.91    5.30
  13   0   2  112.96    5.30
 -13   0  -2  113.61    5.31
  13   0   3   -0.19    0.15
 -13   0  -3   -0.43    0.18
  13   0   4   20.73    1.12
 -13   0  -4   23.12    1.19
 -13   0  -5    0.08    0.20
 -13   0  -6   51.45    2.53
  13   1  -8    0.00    0.16
  13  -1  -8    0.11    0.18
  13   1  -7   22.75    1.16
  13  -1  -7   22.66    1.17
  13   1  -6    5.28    0.40
  13  -1  -6    5.02    0.41
  13   1  -5    0.91    0.20
 -13   1   5    1.15    0.18
  13   1  -5    1.03    0.21
  13  -1  -5    0.97    0.21
  13   1  -4    0.36    0.15
 -13   1   4    0.20    0.15
  13   1  -4    0.21    0.16
 -13  -1   4    0.19    0.15
  13  -1  -4    0.23    0.18
  13   1  -3   18.66    0.96
 -13   1   3   17.99    0.95
 -13  -1   3   17.12    0.94
  13  -1  -3   18.09    0.96
  13   1  -2    0.45    0.17
 -13   1   2    0.52    0.19
  13  -1  -2    0.44    0.19
 -13  -1   2    0.62    0.19
  13   1  -1    9.18    0.58
 -13   1   1    9.33    0.59
  13  -1  -1    9.38    0.60
 -13  -1   1   10.16    0.60
 -13   1   0    4.62    0.41
  13   1   0    4.70    0.39
 -13  -1   0    4.26    0.38
  13  -1   0    4.02    0.37
 -13   1  -1   20.08    1.11
  13   1   1   21.27    1.09
  13  -1   1   20.76    1.09
 -13  -1  -1   21.11    1.10
  13   1   2    2.55    0.30
 -13   1  -2    3.96    0.39
  13  -1   2    3.64    0.34
 -13  -1  -2    3.36    0.36
  13   1   3   13.76    0.72
 -13   1  -3   10.95    0.66
 -13   1  -3   12.95    0.76
 -13  -1  -3   11.73    0.74
  13  -1   3   10.94    0.68
  13   1   4    4.61    0.42
 -13   1  -4    5.33    0.49
 -13  -1  -4    6.19    0.49
 -13   1  -5   23.76    1.28
 -13  -1  -5   23.36    1.28
 -13   1  -6    0.27    0.23
 -13  -1  -6    0.16    0.23
  13   2  -8    4.32    0.37
  13  -2  -8    3.51    0.36
  13   2  -7    6.00    0.44
  13  -2  -7    6.16    0.47
  13   2  -6   34.33    1.69
  13  -2  -6   34.48    1.71
 -13   2   5    0.33    0.15
  13   2  -5    0.20    0.15
  13  -2  -5    0.12    0.17
 -13   2   4    0.17    0.15
  13   2  -4    0.41    0.17
 -13  -2   4    0.14    0.14
  13  -2  -4    0.06    0.17
 -13   2   3   28.61    1.45
  13   2  -3   29.16    1.45
  13  -2  -3   29.67    1.46
 -13  -2   3   28.63    1.45
  13   2  -2    1.50    0.23
 -13   2   2    1.50    0.23
  13  -2  -2    1.23    0.23
 -13  -2   2    1.32    0.22
 -13   2   1    7.04    0.50
  13   2  -1    6.30    0.50
 -13  -2   1    9.16    0.53
  13  -2  -1    6.99    0.52
  13   2   0    0.85    0.22
 -13   2   0    0.31    0.21
 -13  -2   0    1.07    0.23
  13  -2   0    0.55    0.21
 -13   2  -1   16.92    0.94
  13   2   1   16.16    0.92
  13  -2   1   16.62    0.92
 -13  -2  -1   17.27    0.94
  13   2   2   13.21    0.80
 -13   2  -2   14.56    0.83
  13  -2   2   13.88    0.79
 -13  -2  -2   14.62    0.84
 -13   2  -3    0.30    0.22
  13   2   3    0.57    0.20
 -13   2  -3    0.38    0.18
  13  -2   3    0.27    0.17
 -13  -2  -3    0.22    0.21
  13   2   4   59.19    3.02
 -13   2  -4   66.73    3.06
 -13  -2  -4   64.43    3.06
 -13   2  -5    2.33    0.33
 -13  -2  -5    1.63    0.32
 -13   2  -6    6.18    0.54
 -13  -2  -6    6.61    0.57
  13   3  -8    0.04    0.16
  13  -3  -8    0.03    0.22
  13   3  -7    6.50    0.45
  13  -3  -7    5.44    0.48
  13   3  -6    1.52    0.24
  13  -3  -6    2.12    0.28
  13   3  -5   21.88    1.15
 -13   3   5   21.67    1.16
  13  -3  -5   22.88    1.17
  13   3  -4   15.56    0.84
 -13   3   4   15.18    0.84
  13  -3  -4   16.02    0.87
 -13  -3   4   14.22    0.81
  13   3  -3   18.66    0.97
 -13   3   3   17.77    0.96
  13  -3  -3   17.93    0.98
 -13  -3   3   17.24    0.94
  13   3  -2   28.30    1.45
 -13   3   2   28.40    1.46
  13  -3  -2   28.99    1.46
 -13  -3   2   29.71    1.46
 -13   3   1   22.28    1.19
  13   3  -1   22.05    1.18
 -13  -3   1   23.71    1.19
  13  -3  -1   22.69    1.18
  13   3   0    6.51    0.47
 -13   3   0    5.87    0.49
 -13  -3   0    5.45    0.47
  13  -3   0    5.99    0.46
  13   3   1   41.11    2.09
 -13   3  -1   43.60    2.11
 -13  -3  -1   43.61    2.10
  13  -3   1   42.42    2.07
 -13   3  -2   67.20    3.26
  13   3   2   66.27    3.24
  13  -3   2   68.36    3.23
 -13  -3  -2   70.87    3.27
 -13   3  -3   27.56    1.43
  13   3   3   27.79    1.41
 -13   3  -3   23.77    1.27
  13  -3   3   27.98    1.38
 -13  -3  -3   30.28    1.45
  13   3   4    0.04    0.19
 -13   3  -4    0.32    0.22
 -13  -3  -4    0.24    0.23
 -13   3  -5   13.78    0.88
 -13  -3  -5   15.55    0.92
 -13   3  -6    0.93    0.28
 -13  -3  -6    0.56    0.29
  13   4  -7    0.39    0.20
  13  -4  -7    0.48    0.24
  13   4  -6    2.18    0.27
  13  -4  -6    2.15    0.30
  13   4  -5   21.64    1.18
  13  -4  -5   24.01    1.22
 -13   4   4    2.17    0.28
  13   4  -4    2.09    0.28
  13  -4  -4    2.71    0.32
 -13   4   3    0.46    0.20
  13   4  -3    0.28    0.17
  13  -4  -3    0.27    0.20
 -13  -4   3    0.24    0.18
 -13   4   2    0.35    0.21
  13   4  -2    0.48    0.20
  13  -4  -2    0.14    0.20
 -13  -4   2   -0.04    0.17
  13   4  -1    0.73    0.21
 -13   4   1    0.75    0.23
 -13  -4   1    0.38    0.20
  13  -4  -1    1.00    0.24
  13   4   0    0.47    0.20
 -13   4   0    0.40    0.23
 -13  -4   0    0.47    0.22
  13  -4   0    0.55    0.22
  13   4   1    9.65    0.62
 -13   4  -1    9.24    0.64
  13  -4   1    9.49    0.60
 -13  -4  -1    8.77    0.63
  13   4   2   13.18    0.81
 -13   4  -2   13.28    0.83
 -13  -4  -2   14.14    0.85
  13  -4   2   14.37    0.79
  13   4   3   12.21    0.73
 -13   4  -3    9.43    0.60
 -13   4  -3   12.91    0.76
 -13  -4  -3   12.57    0.78
  13   4   4   10.39    0.71
 -13   4  -4   10.97    0.72
 -13  -4  -4   10.98    0.75
 -13   4  -5    1.60    0.31
 -13  -4  -5    1.28    0.33
  13   5  -7    2.08    0.29
  13  -5  -7    2.42    0.37
  13   5  -6    2.09    0.29
  13  -5  -6    2.22    0.34
  13   5  -5    3.09    0.34
  13  -5  -5    3.67    0.41
  13   5  -4    5.83    0.47
 -13   5   4    6.05    0.49
  13  -5  -4    5.75    0.51
  13   5  -3   31.84    1.61
 -13   5   3   31.39    1.62
  13  -5  -3   32.58    1.64
  13   5  -2    0.24    0.19
 -13   5   2    0.81    0.25
  13  -5  -2    0.74    0.25
 -13  -5   2    0.70    0.23
 -13   5   1    2.79    0.35
  13   5  -1    2.15    0.29
 -13  -5   1    2.30    0.31
  13  -5  -1    2.86    0.35
 -13   5   0    9.76    0.65
  13   5   0    9.00    0.62
 -13  -5   0    8.93    0.62
  13  -5   0    8.46    0.61
  13   5   1   47.39    2.28
 -13   5  -1   47.83    2.30
 -13  -5  -1   44.73    2.29
  13  -5   1   45.26    2.26
 -13   5  -2    3.86    0.42
  13   5   2    3.14    0.38
 -13  -5  -2    4.33    0.44
  13  -5   2    3.89    0.37
 -13   5  -3    1.28    0.29
  13   5   3    0.63    0.26
 -13  -5  -3    0.75    0.26
 -13   5  -4    2.23    0.35
 -13  -5  -4    2.14    0.37
 -13   5  -5    8.48    0.65
 -13  -5  -5    7.52    0.69
  13   6  -6    6.46    0.53
  13  -6  -6    6.21    0.58
  13   6  -5    0.36    0.21
  13  -6  -5    0.19    0.26
 -13   6   4    5.39    0.48
  13   6  -4    3.80    0.40
  13  -6  -4    5.02    0.48
  13   6  -3    1.10    0.26
 -13   6   3    1.11    0.28
  13  -6  -3    1.03    0.28
  13   6  -2   12.62    0.79
 -13   6   2   12.61    0.80
 -13  -6   2   12.22    0.77
  13  -6  -2   12.58    0.80
  13   6  -1    1.77    0.31
 -13   6   1    1.45    0.32
  13  -6  -1    1.50    0.31
 -13  -6   1    1.22    0.29
 -13   6   0    9.75    0.69
  13   6   0    9.48    0.66
 -13  -6   0    8.78    0.66
  13  -6   0    8.60    0.63
 -13   6  -1   10.85    0.75
  13   6   1   10.58    0.74
  13  -6   1   10.62    0.70
 -13  -6  -1   11.41    0.75
  13   6   2    9.24    0.69
 -13   6  -2    9.47    0.70
 -13  -6  -2    9.34    0.70
 -13   6  -3    0.21    0.27
  13   6   3    0.67    0.28
 -13  -6  -3    0.54    0.30
 -13   6  -4    5.22    0.52
 -13  -6  -4    4.15    0.52
  13   7  -4    1.51    0.31
  13  -7  -4    1.75    0.35
 -13   7   3    1.44    0.31
  13   7  -3    0.66    0.27
  13  -7  -3    1.07    0.31
  13   7  -2    0.42    0.25
 -13   7   2   -0.03    0.24
  13  -7  -2    0.10    0.24
 -13   7   1   43.03    2.07
  13   7  -1   39.81    2.05
 -13  -7   1   38.23    2.04
  13  -7  -1   40.35    2.04
  13   7   0    1.71    0.34
 -13   7   0    2.29    0.39
 -13  -7   0    1.43    0.33
  13  -7   0    1.48    0.32
 -13   7  -1    0.09    0.29
  13   7   1    0.12    0.28
 -13  -7  -1    0.36    0.26
  13   7   2    2.74    0.40
 -13   7  -2    3.72    0.46
 -13  -7  -2    3.03    0.44
  14   0  -8   15.01    0.84
  14   0  -7   -0.11    0.17
  14   0  -6    0.79    0.21
  14   0  -5   -0.07    0.16
  14   0  -4   15.04    0.82
 -14   0   4   14.04    0.79
 -14   0   3   -0.10    0.16
  14   0  -3   -0.25    0.17
  14   0  -2    2.50    0.31
 -14   0   2    2.00    0.26
  14   0  -2    1.17    0.23
  14   0  -1   -0.01    0.18
  14   0  -1    0.07    0.18
 -14   0   1   -0.03    0.18
  14   0   0   16.20    0.88
  14   0   0   15.77    0.89
 -14   0   0   15.71    0.89
  14   0   1   -0.07    0.18
  14   0   1   -0.15    0.17
 -14   0  -1   -0.15    0.18
 -14   0  -2  107.49    5.01
  14   0   2  106.01    4.99
  14   0   3   -0.21    0.15
 -14   0  -3    0.07    0.20
 -14   0  -4   30.56    1.58
 -14   0  -5   -0.16    0.22
 -14   0  -6   20.12    1.15
  14   1  -8   -0.03    0.17
  14  -1  -8   -0.23    0.18
  14   1  -7    8.89    0.57
  14  -1  -7    9.12    0.59
  14   1  -6    2.16    0.27
  14  -1  -6    2.02    0.27
  14   1  -5    2.77    0.30
  14   1  -5    2.39    0.28
  14  -1  -5    3.20    0.32
  14   1  -4   18.88    0.97
 -14   1   4   17.57    0.94
 -14  -1   4   17.46    0.94
  14  -1  -4   18.19    0.98
 -14   1   3   30.10    1.47
  14   1  -3   28.27    1.47
  14  -1  -3   29.91    1.48
 -14  -1   3   29.17    1.46
 -14   1   2   17.13    0.96
  14   1  -2   18.62    0.97
  14  -1  -2   17.57    0.98
 -14  -1   2   18.06    0.97
 -14   1   1    1.34    0.23
  14   1  -1    0.97    0.21
 -14  -1   1    1.19    0.23
  14  -1  -1    1.16    0.23
 -14   1   0   79.20    3.65
  14   1   0   74.03    3.63
  14  -1   0   78.29    3.64
 -14  -1   0   76.83    3.64
  14   1   1   85.55    4.17
 -14   1  -1   92.74    4.20
  14  -1   1   88.30    4.17
 -14  -1  -1   88.91    4.19
 -14   1  -2    6.67    0.52
  14   1   2    5.55    0.46
 -14  -1  -2    5.59    0.49
  14  -1   2    5.63    0.45
 -14   1  -3   37.01    1.81
  14   1   3   35.31    1.77
  14  -1   3   34.22    1.75
 -14  -1  -3   35.96    1.80
 -14   1  -4    6.72    0.54
 -14  -1  -4    6.07    0.53
 -14   1  -5   19.50    1.13
 -14  -1  -5   20.81    1.15
 -14   1  -6    0.45    0.26
 -14  -1  -6    0.21    0.25
  14   2  -8    0.43    0.20
  14  -2  -8    0.75    0.24
  14   2  -7    4.85    0.42
  14  -2  -7    5.33    0.45
  14   2  -6   14.99    0.82
  14  -2  -6   14.14    0.83
  14   2  -5    2.82    0.31
  14  -2  -5    3.45    0.35
 -14   2   4   15.32    0.79
  14   2  -4   14.48    0.80
  14  -2  -4   14.08    0.81
 -14  -2   4   13.12    0.77
 -14   2   3    0.33    0.18
  14   2  -3    0.46    0.19
 -14  -2   3    0.40    0.19
  14  -2  -3    0.39    0.21
  14   2  -2   12.53    0.71
 -14   2   2   11.32    0.70
 -14  -2   2   12.08    0.69
  14  -2  -2   10.35    0.69
 -14   2   1    1.22    0.24
  14   2  -1    1.29    0.25
 -14  -2   1    1.19    0.24
  14  -2  -1    1.05    0.25
  14   2   0   17.33    0.93
 -14   2   0   15.67    0.92
  14  -2   0   16.59    0.92
 -14  -2   0   16.50    0.93
 -14   2  -1    2.81    0.35
  14   2   1    3.21    0.34
 -14  -2  -1    3.85    0.39
  14  -2   1    3.14    0.34
  14   2   2   70.67    3.44
 -14   2  -2   74.62    3.46
  14  -2   2   72.47    3.43
 -14  -2  -2   71.49    3.45
  14   2   3    0.09    0.17
 -14   2  -3   -0.05    0.20
  14  -2   3   -0.15    0.16
 -14  -2  -3    0.16    0.23
 -14   2  -4   42.90    2.18
 -14  -2  -4   44.85    2.20
 -14   2  -5    2.10    0.32
 -14  -2  -5    2.18    0.36
 -14   2  -6    3.10    0.40
 -14  -2  -6    4.58    0.50
  14   3  -7    3.05    0.31
  14  -3  -7    3.15    0.36
  14   3  -6    0.16    0.17
  14  -3  -6    0.24    0.20
  14   3  -5   18.99    1.02
  14  -3  -5   18.90    1.04
 -14   3   4    4.83    0.40
  14   3  -4    4.66    0.40
  14  -3  -4    3.63    0.37
 -14   3   3    0.34    0.19
  14   3  -3    0.00    0.18
 -14  -3   3    0.18    0.16
  14  -3  -3    0.17    0.20
 -14   3   2   11.79    0.71
  14   3  -2   12.01    0.71
 -14  -3   2   10.78    0.70
  14  -3  -2   12.17    0.72
 -14   3   1   66.86    3.18
  14   3  -1   69.03    3.18
  14  -3  -1   64.70    3.17
 -14  -3   1   65.74    3.18
  14   3   0    4.05    0.40
 -14   3   0    5.22    0.44
  14  -3   0    4.63    0.41
 -14  -3   0    4.42    0.43
 -14   3  -1    0.35    0.23
  14   3   1    0.50    0.21
  14  -3   1    0.33    0.18
 -14  -3  -1    0.53    0.23
 -14   3  -2   11.13    0.73
  14   3   2   11.70    0.72
  14  -3   2   10.39    0.68
 -14  -3  -2   12.15    0.75
 -14   3  -3   34.43    1.74
  14   3   3   33.33    1.71
 -14  -3  -3   35.29    1.75
  14  -3   3   32.50    1.70
 -14   3  -4    0.49    0.25
 -14  -3  -4    0.39    0.26
 -14   3  -5    2.04    0.34
 -14  -3  -5    1.35    0.32
  14   4  -7    0.33    0.20
  14  -4  -7    0.07    0.23
  14   4  -6   -0.12    0.17
  14  -4  -6    0.05    0.22
  14   4  -5    2.78    0.32
  14  -4  -5    2.53    0.33
 -14   4   4   15.10    0.85
  14   4  -4   13.96    0.85
  14  -4  -4   15.99    0.89
 -14   4   3    1.67    0.27
  14   4  -3    1.69    0.27
  14  -4  -3    1.62    0.29
 -14  -4   3    1.33    0.24
 -14   4   2    2.59    0.31
  14   4  -2    1.83    0.28
  14  -4  -2    2.29    0.30
 -14  -4   2    1.64    0.26
 -14   4   1   21.01    1.14
  14   4  -1   21.33    1.13
  14  -4  -1   20.26    1.12
 -14  -4   1   21.02    1.13
 -14   4   0   22.61    1.20
  14   4   0   21.00    1.17
 -14  -4   0   21.57    1.18
  14  -4   0   22.57    1.17
 -14   4  -1    1.73    0.31
  14   4   1    2.07    0.30
  14  -4   1    2.69    0.32
 -14  -4  -1    1.61    0.30
 -14   4  -2   44.69    2.20
  14   4   2   41.51    2.17
 -14  -4  -2   47.36    2.21
  14  -4   2   42.95    2.15
 -14   4  -3    1.75    0.24
  14   4   3    2.68    0.33
 -14   4  -3    2.87    0.37
 -14  -4  -3    3.25    0.39
 -14   4  -4    4.87    0.49
 -14  -4  -4    5.15    0.51
 -14   4  -5    6.16    0.57
 -14  -4  -5    6.20    0.59
  14   5  -6    3.31    0.36
  14  -5  -6    3.35    0.42
  14   5  -5    0.61    0.23
  14  -5  -5    0.42    0.24
 -14   5   4    2.07    0.32
  14   5  -4    1.87    0.28
  14  -5  -4    1.44    0.31
  14   5  -3   35.06    1.71
 -14   5   3   31.93    1.71
  14  -5  -3   34.04    1.73
  14   5  -2    1.89    0.29
 -14   5   2    2.62    0.35
  14  -5  -2    2.29    0.32
 -14  -5   2    2.31    0.31
 -14   5   1    2.71    0.36
  14   5  -1    2.31    0.32
  14  -5  -1    2.65    0.34
 -14  -5   1    1.96    0.30
 -14   5   0    7.48    0.60
  14   5   0    8.13    0.58
  14  -5   0    6.61    0.55
 -14  -5   0    7.47    0.57
 -14   5  -1   17.39    1.02
  14   5   1   17.79    1.00
  14  -5   1   16.72    0.97
 -14  -5  -1   17.31    1.01
 -14   5  -2    1.91    0.35
  14   5   2    1.98    0.32
 -14  -5  -2    2.27    0.37
  14   5   3    0.84    0.26
 -14   5  -3    1.23    0.31
 -14  -5  -3    1.08    0.31
 -14   5  -4    0.05    0.25
 -14  -5  -4    0.14    0.28
  14   6  -5    0.98    0.26
  14  -6  -5    0.92    0.30
  14   6  -4    3.12    0.39
 -14   6   4    4.03    0.42
  14  -6  -4    4.88    0.48
 -14   6   3    1.95    0.33
  14   6  -3    1.18    0.27
  14  -6  -3    1.34    0.30
 -14   6   2    7.13    0.60
  14   6  -2    7.22    0.58
  14  -6  -2    6.79    0.59
  14   6  -1   16.50    0.96
 -14   6   1   16.23    0.96
  14  -6  -1   15.25    0.94
 -14  -6   1   15.52    0.93
  14   6   0    9.89    0.75
 -14   6   0   12.86    0.80
  14  -6   0   11.81    0.75
 -14  -6   0   10.51    0.75
 -14   6  -1    4.18    0.47
  14   6   1    4.63    0.47
 -14  -6  -1    4.65    0.48
  14  -6   1    4.57    0.43
 -14   6  -2    3.81    0.45
  14   6   2    3.71    0.43
 -14  -6  -2    3.90    0.47
 -14   6  -3    0.20    0.28
  14   6   3    0.43    0.27
 -14  -6  -3    0.48    0.31
  14   7  -4   -0.03    0.26
  14  -7  -4    0.20    0.29
  14   7  -3    3.36    0.43
 -14   7   3    5.61    0.52
  14  -7  -3    4.20    0.47
  14   7  -2    0.72    0.27
 -14   7   2    0.93    0.31
  14  -7  -2    0.83    0.30
 -14   7   1   21.75    1.28
  14   7  -1   22.88    1.28
  14  -7  -1   22.94    1.27
  14   7   0    5.31    0.53
 -14   7   0    5.35    0.56
  14  -7   0    7.00    0.56
 -14  -7   0    5.83    0.55
  14   7   1    0.39    0.29
 -14   7  -1    0.45    0.30
 -14  -7  -1    0.28    0.29
 -14   7  -2    1.04    0.35
  14   7   2    1.36    0.35
 -14  -7  -2    1.18    0.34
  15   0  -8    8.43    0.58
  15   0  -7    0.19    0.19
  15   0  -6   13.73    0.80
  15   0  -5   -0.22    0.17
 -15   0   4    4.53    0.39
  15   0  -4    5.35    0.43
  15   0  -3   -0.21    0.17
 -15   0   3    0.02    0.17
  15   0  -2    9.83    0.66
 -15   0   2   10.34    0.64
  15   0  -1   -0.25    0.18
 -15   0   1    0.04    0.18
  15   0  -1   -0.21    0.19
  15   0   0   38.92    1.96
 -15   0   0   40.08    1.97
 -15   0  -1    0.04    0.19
  15   0   1   -0.16    0.19
  15   0   2  109.51    5.05
 -15   0  -2  106.06    5.06
  15   0   3    0.01    0.16
 -15   0  -3    0.22    0.23
 -15   0  -4    0.45    0.25
 -15   0  -5    0.27    0.23
 -15   0  -6    8.14    0.65
  15   1  -8    0.07    0.19
  15  -1  -8   -0.04    0.20
  15   1  -7    3.70    0.36
  15  -1  -7    3.68    0.38
  15   1  -6    3.87    0.37
  15  -1  -6    3.47    0.36
  15   1  -5   12.05    0.71
  15  -1  -5   11.11    0.70
 -15   1   4    4.60    0.40
  15   1  -4    5.40    0.42
 -15  -1   4    4.62    0.39
  15  -1  -4    4.75    0.43
  15   1  -3    2.05    0.28
 -15   1   3    1.82    0.26
 -15  -1   3    1.72    0.25
  15  -1  -3    1.77    0.28
  15   1  -2    0.40    0.20
 -15   1   2    0.31    0.20
  15  -1  -2    0.54    0.22
 -15  -1   2    0.23    0.18
 -15   1   1   71.33    3.36
  15   1  -1   71.94    3.36
 -15  -1   1   70.25    3.35
  15  -1  -1   68.74    3.35
  15   1   0    6.50    0.51
 -15   1   0    6.36    0.52
 -15  -1   0    7.41    0.53
  15  -1   0    6.81    0.51
 -15   1  -1   29.36    1.49
  15   1   1   27.77    1.46
 -15  -1  -1   28.56    1.48
  15  -1   1   28.68    1.46
 -15   1  -2    7.37    0.57
  15   1   2    7.08    0.53
  15  -1   2    6.42    0.51
 -15  -1  -2    7.95    0.58
  15   1   3   38.13    1.84
 -15   1  -3   34.10    1.87
 -15  -1  -3   38.89    1.89
  15  -1   3   36.69    1.83
 -15   1  -4    0.00    0.22
 -15  -1  -4    0.23    0.24
 -15   1  -5    5.38    0.52
 -15  -1  -5    5.37    0.53
 -15   1  -6    2.19    0.37
 -15  -1  -6    1.84    0.36
  15   2  -7    3.62    0.36
  15  -2  -7    3.59    0.38
  15   2  -6    4.39    0.40
  15  -2  -6    3.80    0.39
  15   2  -5    4.76    0.42
  15  -2  -5    5.73    0.46
 -15   2   4    0.11    0.17
  15   2  -4   -0.06    0.16
 -15  -2   4    0.23    0.15
  15  -2  -4   -0.10    0.19
  15   2  -3    2.68    0.33
 -15   2   3    2.04    0.28
  15  -2  -3    2.72    0.34
 -15  -2   3    2.64    0.31
 -15   2   2   27.85    1.46
  15   2  -2   29.69    1.47
 -15  -2   2   28.84    1.46
  15  -2  -2   28.28    1.48
  15   2  -1    6.25    0.51
 -15   2   1    6.73    0.51
 -15  -2   1    5.51    0.49
  15  -2  -1    6.43    0.52
 -15   2   0  115.01    5.35
  15   2   0  113.77    5.34
  15  -2   0  116.06    5.34
 -15  -2   0  111.94    5.34
 -15   2  -1    9.34    0.66
  15   2   1    9.82    0.65
 -15  -2  -1   11.51    0.69
  15  -2   1    9.50    0.64
 -15   2  -2   24.95    1.32
  15   2   2   25.02    1.29
  15  -2   2   24.24    1.28
 -15  -2  -2   23.81    1.30
  15   2   3    8.33    0.61
 -15   2  -3    9.53    0.67
  15  -2   3    8.55    0.60
 -15  -2  -3   11.29    0.70
 -15   2  -4   36.16    1.88
 -15  -2  -4   37.23    1.89
 -15   2  -5   -0.03    0.23
 -15  -2  -5    0.22    0.27
  15   3  -7    0.74    0.21
  15  -3  -7    0.82    0.25
  15   3  -6    0.53    0.19
  15  -3  -6    0.61    0.24
  15   3  -5    9.14    0.61
  15  -3  -5    8.64    0.62
 -15   3   4    0.02    0.19
  15   3  -4   -0.08    0.18
  15  -3  -4    0.02    0.19
  15   3  -3    0.37    0.20
 -15   3   3    0.64    0.22
  15  -3  -3    0.97    0.25
 -15  -3   3    0.60    0.19
  15   3  -2   23.97    1.25
 -15   3   2   24.09    1.24
 -15  -3   2   22.97    1.24
  15  -3  -2   22.99    1.24
 -15   3   1   16.61    0.96
  15   3  -1   17.03    0.97
  15  -3  -1   17.36    0.96
 -15  -3   1   17.33    0.97
 -15   3   0    0.31    0.23
  15   3   0    0.03    0.21
 -15  -3   0    0.18    0.22
  15  -3   0    0.05    0.18
  15   3   1   13.09    0.81
 -15   3  -1   13.96    0.83
  15  -3   1   12.74    0.78
 -15  -3  -1   13.93    0.83
 -15   3  -2    1.64    0.30
  15   3   2    2.30    0.33
 -15  -3  -2    2.40    0.35
  15  -3   2    1.85    0.28
 -15   3  -3   23.41    1.29
  15   3   3   22.80    1.26
 -15  -3  -3   24.17    1.30
 -15   3  -4    4.40    0.46
 -15  -3  -4    4.54    0.48
 -15   3  -5    1.37    0.32
 -15  -3  -5    1.63    0.37
  15   4  -7   -0.05    0.19
  15  -4  -7   -0.02    0.24
  15   4  -6    0.12    0.20
  15  -4  -6    0.19    0.25
  15   4  -5    0.30    0.21
  15  -4  -5    0.56    0.25
 -15   4   4    3.97    0.39
  15   4  -4    4.06    0.39
  15  -4  -4    3.95    0.41
 -15   4   3    6.08    0.52
  15   4  -3    6.90    0.52
 -15  -4   3    6.22    0.50
  15  -4  -3    6.38    0.53
 -15   4   2   20.82    1.18
  15   4  -2   21.86    1.17
 -15  -4   2   22.38    1.18
  15  -4  -2   22.05    1.17
 -15   4   1    9.93    0.65
  15   4  -1    8.85    0.63
 -15  -4   1    9.28    0.64
  15  -4  -1    8.40    0.62
 -15   4   0   51.38    2.43
  15   4   0   49.76    2.40
 -15  -4   0   48.01    2.41
  15  -4   0   46.90    2.39
  15   4   1    2.51    0.34
 -15   4  -1    1.78    0.32
  15  -4   1    1.62    0.28
 -15  -4  -1    2.55    0.36
  15   4   2   24.86    1.32
 -15   4  -2   24.86    1.34
  15  -4   2   23.71    1.28
 -15  -4  -2   24.85    1.34
 -15   4  -3   -0.03    0.24
  15   4   3    0.23    0.23
 -15  -4  -3   -0.08    0.23
 -15   4  -4   11.79    0.82
 -15  -4  -4   12.72    0.85
  15   5  -6    1.36    0.28
  15  -5  -6    1.22    0.32
  15   5  -5    1.87    0.31
  15  -5  -5    2.15    0.35
  15   5  -4   10.41    0.68
 -15   5   4    9.47    0.67
  15  -5  -4   10.25    0.71
 -15   5   3   29.45    1.57
  15   5  -3   29.49    1.56
  15  -5  -3   31.93    1.60
  15   5  -2    0.03    0.23
 -15   5   2    0.11    0.24
 -15  -5   2    0.29    0.22
  15  -5  -2    0.38    0.24
 -15   5   1   -0.03    0.23
  15   5  -1    0.38    0.24
 -15  -5   1    0.06    0.22
  15  -5  -1    0.58    0.26
  15   5   0   27.69    1.48
 -15   5   0   29.55    1.51
 -15  -5   0   28.23    1.49
  15  -5   0   27.35    1.47
 -15   5  -1   27.60    1.43
  15   5   1   25.20    1.38
 -15  -5  -1   27.12    1.41
  15  -5   1   24.31    1.36
  15   5   2    1.42    0.32
 -15   5  -2    2.20    0.35
 -15  -5  -2    1.49    0.32
 -15   5  -3   -0.04    0.26
  15   5   3    0.43    0.25
 -15  -5  -3    0.01    0.28
 -15   5  -4    0.32    0.28
 -15  -5  -4    0.39    0.31
  15   6  -5    0.20    0.25
  15  -6  -5    0.03    0.27
  15   6  -4    2.03    0.34
  15  -6  -4    2.26    0.37
 -15   6   3    1.11    0.30
  15   6  -3    0.45    0.25
  15  -6  -3    0.99    0.32
 -15   6   2    9.93    0.73
  15   6  -2    9.75    0.70
  15  -6  -2    9.95    0.72
 -15   6   1    0.22    0.29
  15   6  -1    0.59    0.25
 -15  -6   1    0.66    0.26
  15  -6  -1    0.48    0.28
  15   6   0    6.35    0.56
 -15   6   0    5.72    0.56
  15  -6   0    5.20    0.51
 -15  -6   0    4.95    0.49
 -15   6  -1    0.89    0.32
  15   6   1    0.65    0.30
  15  -6   1    0.40    0.27
 -15  -6  -1    0.71    0.30
 -15   6  -2    5.02    0.53
  15   6   2    4.20    0.48
 -15  -6  -2    5.02    0.53
 -15   6  -3    5.23    0.55
  15   6   3    5.32    0.53
 -15  -6  -3    4.52    0.53
 -15   7   3    2.13    0.38
  15   7  -3    1.35    0.33
  15  -7  -3    1.87    0.38
 -15   7   2    1.15    0.33
  15   7  -2    1.22    0.32
  15  -7  -2    1.36    0.34
 -15   7   1   11.75    0.84
  15  -7  -1   11.29    0.81
 -15   7   0    4.06    0.49
  15   7   0    3.02    0.43
  15  -7   0    4.03    0.47
 -15  -7   0    4.54    0.50
  15   7   1    0.03    0.27
 -15   7  -1    0.82    0.32
 -15  -7  -1    0.09    0.29
  16   0  -7    0.02    0.19
  16   0  -6    2.73    0.33
  16   0  -5   -0.05    0.18
 -16   0   4   40.92    2.11
  16   0  -4   46.01    2.14
 -16   0   3   -0.32    0.15
  16   0  -3   -0.02    0.19
 -16   0   2   64.80    3.18
  16   0  -2   68.51    3.19
 -16   0   1    0.14    0.19
  16   0  -1   -0.36    0.17
  16   0   0  159.97    7.26
 -16   0   0  152.46    7.26
 -16   0  -1   -0.02    0.20
  16   0   1    0.29    0.19
 -16   0  -2   32.59    1.68
  16   0   2   32.42    1.65
  16   0   3   -0.08    0.16
 -16   0  -3    0.28    0.23
 -16   0  -4    3.08    0.39
 -16   0  -5   -0.21    0.23
  16   1  -7    2.35    0.31
  16  -1  -7    2.41    0.32
  16   1  -6    4.78    0.43
  16  -1  -6    4.12    0.40
  16   1  -5    0.28    0.19
  16  -1  -5    0.04    0.20
  16   1  -4   14.49    0.77
 -16   1   4   12.84    0.74
  16  -1  -4   13.44    0.78
 -16  -1   4   10.75    0.72
  16   1  -3   33.34    1.59
 -16   1   3   29.58    1.57
  16  -1  -3   30.95    1.58
 -16  -1   3   30.83    1.57
  16   1  -2   21.22    1.11
 -16   1   2   19.67    1.10
  16  -1  -2   21.13    1.12
 -16  -1   2   20.06    1.10
  16   1  -1   15.60    0.87
 -16   1   1   13.35    0.85
 -16  -1   1   15.72    0.87
  16  -1  -1   14.63    0.87
 -16   1   0   13.60    0.85
  16   1   0   14.88    0.85
 -16  -1   0   14.70    0.86
  16  -1   0   14.56    0.85
 -16   1  -1   84.27    3.87
  16   1   1   80.64    3.84
 -16  -1  -1   80.16    3.85
  16  -1   1   78.75    3.83
 -16   1  -2   11.53    0.73
  16   1   2   10.58    0.68
  16  -1   2    9.90    0.66
 -16  -1  -2   10.31    0.71
  16   1   3    5.46    0.48
 -16   1  -3    5.25    0.49
  16   1   3    4.96    0.46
 -16  -1  -3    4.42    0.47
  16  -1   3    4.91    0.43
 -16   1  -4    0.11    0.25
 -16  -1  -4    0.06    0.24
 -16   1  -5    0.76    0.29
 -16  -1  -5    0.92    0.30
  16   2  -7    0.11    0.19
  16  -2  -7    0.07    0.22
  16   2  -6    2.55    0.31
  16   2  -6    2.79    0.33
  16  -2  -6    2.66    0.34
  16   2  -5    0.28    0.19
  16  -2  -5    0.42    0.22
 -16   2   4   11.62    0.72
  16   2  -4   13.22    0.74
  16  -2  -4   11.16    0.74
 -16   2   3    8.58    0.59
  16   2  -3    9.50    0.61
 -16  -2   3    8.71    0.59
  16  -2  -3    8.79    0.61
  16   2  -2   54.99    2.68
 -16   2   2   55.59    2.69
 -16  -2   2   54.71    2.67
  16  -2  -2   56.39    2.70
  16   2  -1    0.73    0.23
 -16   2   1    0.79    0.25
 -16  -2   1    0.35    0.21
  16  -2  -1    0.54    0.24
  16   2   0   69.33    3.37
 -16   2   0   72.08    3.39
  16  -2   0   70.20    3.38
 -16  -2   0   70.79    3.38
  16   2   1    0.01    0.20
 -16   2  -1    0.00    0.21
 -16  -2  -1    0.29    0.22
  16  -2   1    0.64    0.23
  16   2   2   11.18    0.75
 -16   2  -2   14.95    0.82
 -16  -2  -2   11.62    0.79
  16  -2   2   11.70    0.75
  16   2   3   -0.05    0.19
 -16   2  -3    0.16    0.23
 -16  -2  -3    0.42    0.26
 -16   2  -4   10.24    0.72
 -16  -2  -4    9.47    0.73
 -16   2  -5    0.15    0.25
 -16  -2  -5    0.14    0.28
  16   3  -7    0.72    0.22
  16  -3  -7    0.86    0.27
  16   3  -6    2.15    0.30
  16  -3  -6    2.12    0.33
  16   3  -5   16.69    0.98
  16  -3  -5   18.85    1.02
  16   3  -4    0.11    0.21
 -16   3   4    0.01    0.19
  16  -3  -4    0.13    0.22
 -16   3   3    0.39    0.22
  16   3  -3    0.19    0.21
 -16  -3   3    0.38    0.20
  16  -3  -3    0.39    0.23
 -16   3   2   13.36    0.82
  16   3  -2   14.40    0.82
 -16  -3   2   12.47    0.80
  16  -3  -2   13.06    0.81
 -16   3   1   64.24    3.14
  16   3  -1   64.39    3.13
 -16  -3   1   66.43    3.14
  16  -3  -1   65.60    3.14
  16   3   0    1.09    0.27
 -16   3   0    0.78    0.26
  16  -3   0    1.17    0.27
 -16  -3   0    1.04    0.27
 -16   3  -1   13.46    0.84
  16   3   1   14.08    0.83
 -16  -3  -1   13.97    0.84
  16  -3   1   11.90    0.79
  16   3   2    1.98    0.33
 -16   3  -2    1.91    0.34
 -16  -3  -2    2.07    0.33
  16  -3   2    1.56    0.28
  16   3   3   11.27    0.77
 -16   3  -3   13.21    0.83
 -16  -3  -3   12.23    0.82
 -16   3  -4    3.88    0.46
 -16  -3  -4    3.90    0.48
 -16   3  -5    2.59    0.40
 -16  -3  -5    3.45    0.47
  16   4  -6    0.21    0.22
  16  -4  -6    0.56    0.27
  16   4  -5    0.65    0.24
  16  -4  -5    0.33    0.25
  16   4  -4   19.58    1.05
 -16   4   4   17.41    1.03
  16  -4  -4   18.23    1.06
  16   4  -3   10.09    0.68
 -16   4   3    9.64    0.67
  16  -4  -3   10.07    0.70
 -16   4   2   15.64    0.93
  16   4  -2   15.83    0.93
 -16  -4   2   15.61    0.92
  16  -4  -2   15.40    0.93
 -16   4   1    1.87    0.33
  16   4  -1    2.11    0.33
  16  -4  -1    1.81    0.31
 -16  -4   1    1.89    0.32
  16   4   0   10.32    0.72
 -16   4   0   10.84    0.75
  16  -4   0   11.29    0.71
 -16  -4   0   10.09    0.72
  16   4   1    1.31    0.29
 -16   4  -1    1.10    0.30
 -16  -4  -1    0.71    0.28
  16  -4   1    1.73    0.30
  16   4   2   20.95    1.15
 -16   4  -2   21.29    1.17
  16  -4   2   17.86    1.09
 -16  -4  -2   21.04    1.17
  16   4   3    1.78    0.33
 -16   4  -3    2.16    0.38
 -16  -4  -3    1.91    0.38
 -16   4  -4    0.16    0.27
 -16  -4  -4    0.16    0.30
  16   5  -5    1.07    0.27
  16  -5  -5    0.51    0.27
  16   5  -4    4.97    0.48
 -16   5   4    5.50    0.51
  16  -5  -4    6.72    0.58
 -16   5   3   16.88    1.06
  16   5  -3   19.36    1.07
  16  -5  -3   19.60    1.09
  16   5  -2   10.45    0.72
 -16   5   2   11.93    0.75
  16  -5  -2    9.94    0.71
 -16  -5   2    9.37    0.70
 -16   5   1    0.81    0.30
  16   5  -1    0.72    0.28
  16  -5  -1    0.42    0.24
 -16  -5   1    1.03    0.28
  16   5   0   -0.08    0.24
 -16   5   0   -0.33    0.23
  16  -5   0   -0.26    0.21
 -16  -5   0   -0.29    0.23
 -16   5  -1   12.53    0.84
  16   5   1   12.80    0.82
  16  -5   1   11.75    0.77
 -16  -5  -1   11.71    0.82
  16   5   2    3.34    0.42
 -16   5  -2    3.33    0.43
 -16  -5  -2    4.34    0.48
  16   5   3    1.61    0.33
 -16   5  -3    1.23    0.35
 -16  -5  -3    1.56    0.35
  16   6  -4    3.56    0.44
  16  -6  -4    3.81    0.46
  16   6  -3    0.78    0.29
 -16   6   3    1.07    0.30
  16  -6  -3    1.34    0.35
  16   6  -2   10.43    0.74
 -16   6   2   10.58    0.75
  16  -6  -2    9.69    0.75
  16   6  -1    0.52    0.28
 -16   6   1    0.32    0.29
 -16  -6   1    0.37    0.26
  16  -6  -1   -0.23    0.24
 -16   6   0    6.45    0.61
  16   6   0    6.49    0.60
 -16  -6   0    6.44    0.59
  16  -6   0    6.17    0.57
 -16   6  -1    0.30    0.30
  16   6   1   -0.11    0.25
 -16  -6  -1   -0.22    0.26
 -16   6  -2    2.50    0.42
  16   6   2    2.57    0.40
 -16  -6  -2    2.18    0.39
  16   7  -1    2.39    0.39
 -16   7   1    2.77    0.45
  16  -7  -1    2.83    0.43
  17   0  -7    0.17    0.22
  17   0  -6    4.03    0.42
  17   0  -5   -0.15    0.19
 -17   0   4   50.20    2.52
  17   0  -4   54.51    2.56
  17   0  -3    0.00    0.20
 -17   0   3    0.00    0.19
  17   0  -2  102.51    4.56
 -17   0   2   90.71    4.53
 -17   0   1    0.25    0.20
  17   0  -1   -0.16    0.20
  17   0   0    7.97    0.58
 -17   0   0    7.55    0.60
 -17   0  -1   -0.01    0.21
  17   0   1    0.33    0.21
 -17   0  -2   52.26    2.52
  17   0   2   49.58    2.48
  17   0   3   -0.09    0.17
 -17   0  -3    0.31    0.25
 -17   0  -4    5.29    0.54
 -17   0  -5    0.12    0.26
  17   1  -7    4.00    0.39
  17  -1  -7    3.55    0.39
  17   1  -6    0.09    0.20
  17  -1  -6    0.07    0.21
  17   1  -5    1.03    0.25
  17  -1  -5    1.09    0.26
 -17   1   4    4.83    0.45
  17   1  -4    6.39    0.52
  17   1  -4    6.49    0.50
  17  -1  -4    5.99    0.51
 -17   1   3   29.90    1.60
  17   1  -3   33.85    1.62
  17  -1  -3   32.02    1.62
 -17  -1   3   30.93    1.60
 -17   1   2    0.21    0.20
  17   1  -2    0.07    0.19
 -17  -1   2   -0.04    0.19
  17  -1  -2    0.47    0.22
 -17   1   1   43.48    2.25
  17   1  -1   46.58    2.26
 -17  -1   1   45.80    2.26
  17  -1  -1   47.08    2.26
  17   1   0    0.24    0.20
 -17   1   0    0.14    0.22
 -17  -1   0    0.26    0.21
  17  -1   0    0.32    0.23
  17   1   1   13.49    0.83
 -17   1  -1   14.07    0.86
 -17  -1  -1   14.09    0.86
  17  -1   1   14.23    0.84
 -17   1  -2    6.01    0.55
  17   1   2    6.47    0.51
  17  -1   2    5.15    0.47
 -17  -1  -2    5.86    0.54
  17   1   3    0.49    0.24
 -17   1  -3    0.35    0.27
  17   1   3    0.63    0.24
 -17  -1  -3    0.42    0.25
 -17   1  -4    0.29    0.27
 -17  -1  -4    0.50    0.27
 -17   1  -5    0.56    0.31
 -17  -1  -5    0.39    0.29
  17   2  -7    0.46    0.23
  17  -2  -7    0.48    0.25
  17   2  -6   14.10    0.85
  17   2  -6   13.80    0.85
  17  -2  -6   14.79    0.87
  17   2  -5    2.23    0.30
  17  -2  -5    1.85    0.30
  17   2  -4   23.80    1.22
 -17   2   4   21.69    1.19
  17  -2  -4   21.79    1.22
  17   2  -3   -0.24    0.18
 -17   2   3    0.15    0.20
 -17  -2   3    0.17    0.19
  17  -2  -3    0.33    0.23
  17   2  -2   38.96    1.89
 -17   2   2   35.06    1.88
 -17  -2   2   37.41    1.88
  17  -2  -2   39.02    1.91
 -17   2   1    7.71    0.62
  17   2  -1    9.40    0.63
 -17  -2   1    9.13    0.63
  17  -2  -1    8.97    0.64
  17   2   0   43.67    2.17
 -17   2   0   45.78    2.20
  17  -2   0   42.43    2.17
 -17  -2   0   43.53    2.18
 -17   2  -1   -0.07    0.22
  17   2   1   -0.02    0.21
 -17  -2  -1   -0.01    0.24
  17  -2   1    0.01    0.21
  17   2   2    1.09    0.27
 -17   2  -2    0.61    0.26
  17  -2   2    1.34    0.28
 -17  -2  -2    1.15    0.31
  17   2   3   12.96    0.82
 -17   2  -3   14.75    0.88
 -17  -2  -3   12.58    0.86
 -17   2  -4    2.97    0.42
 -17  -2  -4    3.49    0.46
  17   3  -6    9.71    0.68
  17  -3  -6   10.97    0.72
  17   3  -5    8.05    0.59
  17  -3  -5    8.16    0.61
 -17   3   4    0.22    0.21
  17   3  -4    0.08    0.21
  17  -3  -4    0.16    0.23
  17   3  -3   21.19    1.15
 -17   3   3   19.98    1.13
 -17  -3   3   21.22    1.13
  17  -3  -3   20.16    1.15
 -17   3   2   15.38    0.93
  17   3  -2   16.18    0.94
  17  -3  -2   15.04    0.93
 -17  -3   2   15.92    0.92
  17   3  -1   36.38    1.84
 -17   3   1   34.79    1.84
 -17  -3   1   37.20    1.84
  17  -3  -1   36.06    1.84
 -17   3   0   36.93    1.89
  17   3   0   37.73    1.87
  17  -3   0   35.07    1.85
 -17  -3   0   36.87    1.88
 -17   3  -1    8.24    0.63
  17   3   1    7.81    0.60
 -17  -3  -1    8.02    0.63
  17  -3   1    6.51    0.56
 -17   3  -2    0.18    0.25
  17   3   2    0.44    0.24
  17  -3   2    0.32    0.21
 -17  -3  -2    0.34    0.26
  17   3   3    6.86    0.58
 -17   3  -3    6.95    0.63
 -17  -3  -3    8.01    0.66
 -17   3  -4    3.56    0.47
 -17  -3  -4    3.82    0.49
  17   4  -6    3.42    0.40
  17  -4  -6    3.97    0.45
  17   4  -5    1.52    0.31
  17  -4  -5    1.72    0.34
 -17   4   4   15.25    0.94
  17   4  -4   15.94    0.95
  17  -4  -4   17.01    0.98
  17   4  -3    0.19    0.24
 -17   4   3    0.06    0.22
  17  -4  -3    0.05    0.24
  17   4  -2   21.81    1.21
 -17   4   2   22.06    1.22
 -17  -4   2   21.04    1.20
  17  -4  -2   22.66    1.22
 -17   4   1    1.58    0.32
  17   4  -1    1.53    0.32
 -17  -4   1    1.34    0.31
  17  -4  -1    0.89    0.27
  17   4   0   11.68    0.77
 -17   4   0   11.49    0.79
  17  -4   0   11.63    0.76
 -17  -4   0   11.26    0.77
 -17   4  -1   13.19    0.88
  17   4   1   14.43    0.88
 -17  -4  -1   13.55    0.87
  17  -4   1   12.95    0.83
 -17   4  -2    2.94    0.43
  17   4   2    2.90    0.40
 -17  -4  -2    3.13    0.45
  17   4   3    0.36    0.26
 -17   4  -3    0.41    0.30
 -17  -4  -3    0.04    0.28
  17   5  -5    0.49    0.27
  17  -5  -5    0.07    0.28
  17   5  -4    3.99    0.45
  17  -5  -4    4.46    0.51
  17   5  -3   15.40    0.96
 -17   5   3   14.17    0.93
  17  -5  -3   16.46    0.97
  17   5  -2    1.75    0.32
 -17   5   2    1.94    0.37
  17  -5  -2    1.59    0.35
  17   5  -1    0.22    0.25
 -17   5   1    0.08    0.25
 -17  -5   1    0.27    0.24
  17  -5  -1    0.37    0.26
 -17   5   0    2.03    0.37
  17   5   0    2.33    0.37
 -17  -5   0    2.76    0.38
  17  -5   0    2.19    0.34
 -17   5  -1   19.55    1.17
  17   5   1   19.85    1.14
  17  -5   1   19.83    1.12
 -17  -5  -1   19.15    1.15
 -17   5  -2    5.69    0.57
  17   5   2    4.36    0.47
 -17  -5  -2    4.53    0.52
 -17   6   3    0.05    0.25
  17   6  -3   -0.10    0.28
  17  -6  -3    0.36    0.30
 -17   6   2   11.63    0.82
  17   6  -2   11.39    0.80
  17  -6  -2   10.32    0.79
  17   6  -1    0.48    0.30
 -17   6   1    0.68    0.32
  17  -6  -1    0.61    0.28
  17   6   0    1.43    0.35
 -17   6   0    0.89    0.35
 -17  -6   0    0.49    0.30
  17  -6   0    0.63    0.28
 -17   6  -1    1.25    0.38
  17   6   1    1.10    0.34
 -17  -6  -1    1.44    0.35
  18   0  -7    0.04    0.23
  18   0  -6   14.71    0.89
  18   0  -5    0.03    0.21
  18   0  -4   29.93    1.55
  18   0  -3   -0.15    0.21
 -18   0   3    0.06    0.19
  18   0  -2   35.08    1.71
 -18   0   2   31.48    1.68
 -18   0   1    0.22    0.21
  18   0  -1   -0.19    0.20
  18   0   0   12.41    0.77
 -18   0   0   11.88    0.77
  18   0   1   -0.07    0.19
 -18   0  -1    0.17    0.23
  18   0   2    0.54    0.22
 -18   0  -2    0.99    0.31
 -18   0  -3    0.03    0.25
 -18   0  -4    0.55    0.29
  18   1  -7    3.13    0.38
  18  -1  -7    3.42    0.41
  18   1  -6    1.38    0.29
  18  -1  -6    1.25    0.29
  18   1  -5   16.69    0.96
  18  -1  -5   15.85    0.95
  18   1  -4   13.82    0.83
  18   1  -4   13.16    0.81
  18  -1  -4   12.46    0.82
 -18   1   3   55.78    2.81
  18   1  -3   61.55    2.83
  18  -1  -3   59.50    2.83
 -18  -1   3   55.87    2.80
  18   1  -2   16.50    0.94
 -18   1   2   16.27    0.95
  18  -1  -2   15.37    0.94
 -18  -1   2   16.47    0.95
  18   1  -1   11.45    0.75
 -18   1   1   11.90    0.77
  18  -1  -1   11.90    0.75
 -18  -1   1   12.42    0.78
 -18   1   0    2.42    0.36
  18   1   0    2.59    0.35
 -18  -1   0    2.46    0.37
  18  -1   0    2.98    0.36
  18   1   1    4.83    0.45
 -18   1  -1    3.05    0.40
  18  -1   1    3.26    0.38
 -18  -1  -1    4.47    0.47
 -18   1  -2    1.34    0.32
  18   1   2    0.81    0.26
  18   1   2    0.81    0.25
 -18  -1  -2    0.67    0.28
  18  -1   2    0.88    0.24
 -18   1  -3    0.53    0.27
 -18  -1  -3   -0.20    0.23
 -18   1  -4    0.17    0.29
 -18  -1  -4    0.34    0.27
  18   2  -6   29.60    1.54
  18  -2  -6   29.27    1.55
  18   2  -5    0.41    0.22
  18  -2  -5   -0.07    0.23
  18   2  -4   17.25    0.93
 -18   2   4   14.50    0.93
  18  -2  -4   14.76    0.93
 -18   2   3    1.71    0.30
  18   2  -3    1.15    0.28
  18  -2  -3    1.11    0.27
 -18  -2   3    1.02    0.26
 -18   2   2   33.68    1.85
  18   2  -2   38.31    1.86
  18  -2  -2   35.87    1.86
 -18  -2   2   38.05    1.86
 -18   2   1    0.11    0.22
  18   2  -1   -0.12    0.21
 -18  -2   1   -0.04    0.20
  18  -2  -1    0.09    0.24
  18   2   0   13.37    0.82
 -18   2   0   13.06    0.83
 -18  -2   0   13.47    0.83
  18  -2   0   11.65    0.81
 -18   2  -1    8.03    0.61
  18   2   1    8.46    0.61
 -18  -2  -1    7.19    0.62
  18  -2   1    7.52    0.60
  18   2   2    1.01    0.27
 -18   2  -2    0.64    0.29
  18  -2   2    1.03    0.26
 -18  -2  -2    1.06    0.31
  18   2   3    0.97    0.29
 -18   2  -3    0.93    0.31
 -18  -2  -3    0.95    0.33
 -18   2  -4    7.04    0.65
 -18  -2  -4    5.98    0.60
  18   3  -6    4.29    0.44
  18  -3  -6    3.78    0.43
  18   3  -5   21.73    1.23
  18  -3  -5   24.03    1.28
  18   3  -4    0.12    0.22
  18  -3  -4    0.14    0.25
 -18   3   3    1.38    0.29
  18   3  -3    1.10    0.29
  18  -3  -3    0.87    0.27
  18   3  -2    2.69    0.37
 -18   3   2    2.83    0.38
 -18  -3   2    3.43    0.39
  18  -3  -2    2.53    0.36
  18   3  -1   29.22    1.50
 -18   3   1   29.33    1.50
 -18  -3   1   26.90    1.47
  18  -3  -1   26.47    1.48
 -18   3   0    4.44    0.48
  18   3   0    4.13    0.45
  18  -3   0    4.80    0.47
 -18  -3   0    5.69    0.52
  18   3   1    0.91    0.29
 -18   3  -1    0.38    0.26
 -18  -3  -1    0.61    0.30
  18  -3   1    0.61    0.24
 -18   3  -2    0.40    0.29
  18   3   2    0.19    0.24
 -18  -3  -2    0.68    0.29
 -18   3  -3    0.33    0.27
 -18  -3  -3    0.53    0.31
  18   4  -5    0.66    0.28
  18  -4  -5    0.03    0.28
  18   4  -4   17.00    1.05
  18  -4  -4   18.99    1.08
 -18   4   3    0.42    0.28
  18   4  -3   -0.06    0.24
  18  -4  -3    0.08    0.24
  18   4  -2   12.58    0.83
 -18   4   2   12.34    0.83
 -18  -4   2   12.33    0.81
  18  -4  -2   13.32    0.84
  18   4  -1    3.32    0.42
 -18   4   1    3.34    0.44
  18  -4  -1    3.98    0.45
 -18  -4   1    2.89    0.39
 -18   4   0    1.17    0.33
  18   4   0    0.78    0.28
  18  -4   0    0.32    0.23
 -18  -4   0    0.48    0.28
  18   4   1    7.11    0.61
 -18   4  -1    7.14    0.64
  18  -4   1    5.93    0.56
 -18  -4  -1    6.82    0.61
  18   4   2   10.91    0.79
 -18   4  -2   11.39    0.82
 -18  -4  -2   11.38    0.83
 -18   4  -3    2.93    0.44
 -18  -4  -3    2.84    0.46
  18   5  -4    0.04    0.24
  18  -5  -4   -0.24    0.26
 -18   5   3    9.92    0.75
  18   5  -3   10.68    0.77
  18  -5  -3   11.30    0.79
 -18   5   2    5.58    0.55
  18   5  -2    6.43    0.59
  18  -5  -2    6.30    0.59
 -18   5   1    5.30    0.55
  18   5  -1    5.51    0.55
 -18  -5   1    6.70    0.58
  18  -5  -1    5.96    0.56
  18   5   0    3.50    0.46
 -18   5   0    3.30    0.47
 -18  -5   0    3.89    0.45
  18  -5   0    3.84    0.43
 -18   5  -1    4.64    0.52
  18   5   1    3.24    0.44
 -18  -5  -1    5.22    0.53
 -18   5  -2    6.02    0.58
  18   5   2    4.49    0.50
 -18  -5  -2    4.98    0.54
 -18   6   2    0.22    0.31
  18   6  -2    0.34    0.31
  18  -6  -2    0.35    0.29
  18   6  -1    6.43    0.63
 -18   6   1    7.23    0.66
  18  -6  -1    7.12    0.64
  18   6   0    5.28    0.55
  18  -6   0    6.90    0.61
  19   0  -6    6.17    0.54
  19   0  -5    0.12    0.23
  19   0  -4   24.42    1.32
 -19   0   3   -0.02    0.20
  19   0  -3    0.07    0.24
 -19   0   2   22.32    1.28
  19   0  -2   25.78    1.31
 -19   0   1    0.13    0.22
  19   0  -1   -0.20    0.20
  19   0   0   11.27    0.77
 -19   0   0   12.97    0.81
 -19   0  -1   -0.27    0.23
  19   0   1   -0.01    0.20
  19   0   2   14.78    0.94
 -19   0  -2   17.68    1.02
 -19   0  -3    0.21    0.27
 -19   0  -4    1.61    0.37
  19   1  -6    2.48    0.36
  19  -1  -6    2.19    0.36
  19   1  -5   24.84    1.35
  19  -1  -5   25.42    1.37
  19   1  -4    0.39    0.24
  19  -1  -4    0.23    0.26
  19   1  -3   10.51    0.72
  19   1  -3   11.74    0.74
 -19   1   3    9.78    0.70
 -19  -1   3    9.73    0.68
  19  -1  -3   11.28    0.73
 -19   1   2    9.67    0.68
  19   1  -2    9.15    0.67
 -19  -1   2    9.43    0.67
  19  -1  -2    9.78    0.67
 -19   1   1    6.39    0.56
  19   1  -1    6.92    0.57
  19  -1  -1    6.38    0.56
 -19  -1   1    7.42    0.58
 -19   1   0    0.62    0.25
  19   1   0    0.68    0.27
 -19  -1   0    0.97    0.30
  19  -1   0    0.47    0.24
  19   1   1    0.87    0.28
  19   1   1    0.63    0.26
 -19   1  -1    0.68    0.27
  19  -1   1    0.63    0.23
 -19  -1  -1    0.57    0.25
 -19   1  -2    3.64    0.44
  19   1   2    3.59    0.44
  19   1   2    3.73    0.42
 -19  -1  -2    2.62    0.40
  19  -1   2    3.68    0.41
 -19   1  -3    0.45    0.29
 -19  -1  -3   -0.03    0.27
 -19   1  -4    4.34    0.53
 -19  -1  -4    4.23    0.50
  19   2  -6   15.56    0.90
  19  -2  -6   12.99    0.90
  19   2  -5   -0.08    0.22
  19  -2  -5   -0.25    0.23
  19   2  -4   26.62    1.40
  19  -2  -4   25.12    1.41
  19   2  -3    0.06    0.23
 -19   2   3    0.10    0.21
  19  -2  -3   -0.03    0.24
 -19   2   2    0.96    0.27
  19   2  -2    1.92    0.33
  19  -2  -2    1.47    0.32
 -19  -2   2    1.45    0.30
 -19   2   1   16.27    1.02
  19   2  -1   17.10    1.02
 -19  -2   1   17.08    1.02
  19  -2  -1   18.87    1.05
  19   2   0    4.91    0.49
 -19   2   0    3.62    0.44
 -19  -2   0    3.49    0.42
  19  -2   0    4.98    0.50
 -19   2  -1    7.67    0.64
  19   2   1    6.84    0.60
  19  -2   1    7.80    0.61
 -19  -2  -1    7.34    0.63
  19   2   2    0.13    0.25
 -19   2  -2    0.52    0.28
  19  -2   2    0.53    0.24
 -19  -2  -2    0.07    0.25
 -19   2  -3    0.20    0.30
 -19  -2  -3    0.06    0.29
  19  -3  -6    0.49    0.29
  19   3  -5   16.51    0.99
  19  -3  -5   16.42    1.01
  19   3  -4   10.33    0.72
  19  -3  -4    9.57    0.71
  19   3  -3    7.37    0.63
 -19   3   3    8.25    0.63
  19  -3  -3    7.80    0.63
 -19   3   2   -0.12    0.23
  19   3  -2    0.13    0.25
 -19  -3   2   -0.04    0.21
  19  -3  -2    0.05    0.23
 -19   3   1    8.71    0.68
  19   3  -1    9.20    0.68
  19  -3  -1    8.86    0.67
 -19  -3   1    8.65    0.65
  19   3   0   14.32    0.88
 -19   3   0   14.39    0.91
 -19  -3   0   12.95    0.87
  19  -3   0   12.56    0.85
 -19   3  -1    0.79    0.32
  19   3   1    0.37    0.25
  19  -3   1    0.63    0.26
 -19  -3  -1    0.46    0.28
  19   3   2   -0.02    0.22
 -19   3  -2    0.71    0.32
 -19  -3  -2    0.42    0.31
 -19   3  -3    3.61    0.47
 -19  -3  -3    3.95    0.52
  19   4  -5    0.06    0.26
  19  -4  -5    0.10    0.30
  19   4  -4    9.03    0.70
  19  -4  -4    8.39    0.70
  19   4  -3    9.03    0.71
 -19   4   3    8.92    0.69
  19  -4  -3    9.28    0.71
 -19   4   2    1.44    0.35
  19   4  -2    0.96    0.31
  19  -4  -2    0.85    0.29
  19   4  -1    0.76    0.31
 -19   4   1    0.10    0.26
  19  -4  -1    0.68    0.28
 -19  -4   1    0.55    0.29
 -19   4   0    7.32    0.67
  19   4   0    7.55    0.65
  19  -4   0    8.09    0.63
 -19  -4   0    7.77    0.66
 -19   4  -1    0.70    0.32
  19   4   1    0.83    0.31
  19  -4   1    0.71    0.28
 -19  -4  -1    0.55    0.31
  19   4   2    0.89    0.32
 -19   4  -2    0.80    0.32
 -19  -4  -2    1.07    0.37
  19   5  -3   24.87    1.38
 -19   5   3   23.32    1.36
  19  -5  -3   24.59    1.38
 -19   5   2   10.14    0.75
  19   5  -2    8.77    0.74
  19  -5  -2    9.78    0.75
 -19   5   1    0.93    0.34
  19   5  -1    1.11    0.36
 -19  -5   1    1.21    0.32
  19  -5  -1    1.42    0.36
 -19   5   0    3.09    0.47
  19   5   0    3.47    0.47
  19  -5   0    3.42    0.44
 -19  -5   0    3.20    0.45
  19   5   1    8.56    0.69
 -19   5  -1    8.28    0.72
 -19  -5  -1    6.33    0.63
  20   0  -6    8.56    0.67
  20   0  -5   -0.20    0.23
  20   0  -4   11.99    0.81
  20   0  -3    0.14    0.25
 -20   0   3    0.06    0.21
  20   0  -2    0.47    0.25
 -20   0   2    0.46    0.25
 -20   0   1   -0.04    0.22
  20   0  -1    0.18    0.23
 -20   0   0    0.22    0.24
  20   0   0    0.45    0.24
  20   0   1    0.04    0.22
 -20   0  -1    0.07    0.27
 -20   0  -2    0.34    0.31
  20   0   2    0.54    0.24
 -20   0  -3   -0.03    0.28
  20   1  -6    3.95    0.44
  20  -1  -6    3.74    0.46
  20   1  -5    3.84    0.43
  20  -1  -5    4.54    0.49
  20   1  -4    2.29    0.36
  20  -1  -4    2.79    0.40
  20   1  -3   14.35    0.87
 -20   1   3   12.63    0.83
 -20  -1   3   12.72    0.86
  20  -1  -3   13.14    0.85
 -20   1   2    5.83    0.56
  20   1  -2    6.72    0.59
  20   1  -2    6.97    0.59
 -20  -1   2    6.05    0.55
  20  -1  -2    7.37    0.59
 -20   1   1    1.12    0.31
  20   1  -1    0.72    0.28
  20   1  -1    1.32    0.32
  20  -1  -1    0.81    0.28
 -20  -1   1    1.06    0.28
 -20   1   0    0.23    0.24
  20   1   0   -0.28    0.23
  20   1   0    0.54    0.28
  20  -1   0    0.27    0.24
 -20  -1   0   -0.05    0.24
  20   1   1   -0.18    0.23
  20   1   1    0.58    0.27
 -20   1  -1    0.13    0.26
 -20  -1  -1    0.82    0.31
  20  -1   1    0.44    0.24
 -20   1  -2    1.67    0.36
  20   1   2    1.11    0.29
  20  -1   2    1.89    0.34
 -20  -1  -2    1.01    0.35
 -20   1  -3   18.78    1.16
 -20  -1  -3   18.78    1.15
  20   2  -5    1.15    0.31
  20   2  -5    1.16    0.31
  20  -2  -5    1.06    0.32
  20   2  -4    2.48    0.37
  20  -2  -4    2.61    0.40
  20   2  -3    1.68    0.32
 -20   2   3    1.54    0.31
  20  -2  -3    2.52    0.36
 -20   2   2    0.04    0.26
  20   2  -2    0.28    0.26
 -20  -2   2    0.12    0.22
  20  -2  -2    0.27    0.27
  20   2  -1    1.49    0.33
 -20   2   1    1.67    0.35
 -20  -2   1    2.04    0.34
  20  -2  -1    1.64    0.34
 -20   2   0    2.47    0.41
  20   2   0    2.61    0.38
  20  -2   0    2.75    0.39
 -20  -2   0    2.54    0.38
  20   2   1   -0.13    0.25
 -20   2  -1    0.14    0.26
 -20  -2  -1    0.10    0.27
  20  -2   1   -0.27    0.22
 -20   2  -2    0.74    0.31
  20   2   2    0.54    0.29
 -20  -2  -2    0.92    0.30
 -20   2  -3    0.48    0.32
 -20  -2  -3    0.25    0.29
  20   3  -5   18.72    1.11
  20  -3  -5   18.89    1.14
  20   3  -4    3.97    0.45
  20  -3  -4    3.91    0.48
 -20   3   3    1.19    0.32
  20   3  -3    0.27    0.27
  20  -3  -3    0.60    0.30
  20   3  -2    3.48    0.43
 -20   3   2    3.04    0.42
  20  -3  -2    3.71    0.44
 -20  -3   2    3.36    0.43
  20   3  -1    0.98    0.30
 -20   3   1    1.10    0.31
 -20  -3   1    1.07    0.29
  20  -3  -1    0.90    0.31
 -20   3   0    0.57    0.29
  20   3   0    0.32    0.26
 -20  -3   0    0.82    0.30
  20  -3   0    0.73    0.27
 -20   3  -1    4.13    0.50
  20   3   1    4.03    0.46
  20  -3   1    2.84    0.38
 -20  -3  -1    3.20    0.44
  20   3   2    5.43    0.54
 -20   3  -2    5.85    0.61
 -20  -3  -2    5.01    0.56
  20   4  -4    1.66    0.36
  20  -4  -4    1.74    0.38
  20   4  -3    1.47    0.35
 -20   4   3    1.86    0.37
  20  -4  -3    0.91    0.31
 -20   4   2   12.88    0.86
  20   4  -2   11.97    0.87
  20  -4  -2   12.55    0.86
  20   4  -1    0.43    0.31
 -20   4   1    0.31    0.29
 -20  -4   1    0.67    0.30
  20  -4  -1    0.12    0.25
  20   4   0    0.33    0.30
 -20   4   0    0.75    0.33
  20  -4   0    0.54    0.29
 -20  -4   0    0.70    0.31
  20   4   1    0.08    0.28
 -20   4  -1    0.14    0.30
 -20  -4  -1   -0.16    0.29
  21   0  -5    0.39    0.27
  21   0  -4    0.19    0.26
  21   0  -3    0.01    0.25
 -21   0   2    9.34    0.69
  21   0  -2    9.56    0.71
  21   0  -1   -0.08    0.23
 -21   0   1    0.26    0.25
  21   0   0    5.09    0.52
 -21   0   0    6.32    0.58
  21   0   1    0.33    0.25
 -21   0  -1    0.28    0.28
 -21   0  -2    9.55    0.78
  21   1  -5    4.24    0.46
  21  -1  -5    3.57    0.47
  21   1  -4    0.01    0.25
  21  -1  -4    0.10    0.26
  21   1  -3    0.07    0.25
 -21   1   3   -0.15    0.22
  21  -1  -3    0.03    0.26
 -21   1   2    2.22    0.38
  21   1  -2    3.28    0.42
 -21  -1   2    2.76    0.38
  21  -1  -2    2.68    0.39
  21   1  -1   -0.17    0.23
  21   1  -1    0.02    0.26
 -21   1   1   -0.12    0.23
 -21  -1   1    0.03    0.24
  21  -1  -1   -0.12    0.22
 -21   1   0    9.60    0.72
  21   1   0    9.00    0.71
 -21  -1   0    9.23    0.71
  21  -1   0    8.48    0.68
 -21   1  -1   18.59    1.14
  21   1   1   18.29    1.10
 -21  -1  -1   18.76    1.15
  21  -1   1   19.62    1.11
 -21   1  -2    0.61    0.31
  21   1   2    0.88    0.29
 -21  -1  -2    0.86    0.35
  21   2  -5    2.45    0.40
  21  -2  -5    2.24    0.39
  21   2  -4    2.76    0.40
  21  -2  -4    1.92    0.38
 -21   2   3    1.68    0.34
  21   2  -3    2.81    0.40
  21  -2  -3    1.54    0.35
  21   2  -2    0.22    0.26
 -21   2   2   -0.07    0.23
 -21  -2   2    0.02    0.21
  21  -2  -2    0.10    0.28
  21   2  -1    4.56    0.49
 -21   2   1    3.69    0.47
 -21  -2   1    4.58    0.50
  21  -2  -1    3.99    0.49
  21   2   0    2.14    0.37
 -21   2   0    2.30    0.40
 -21  -2   0    2.30    0.40
  21  -2   0    2.24    0.36
 -21   2  -1   13.10    0.85
  21   2   1   10.73    0.78
  21  -2   1   10.91    0.78
 -21  -2  -1    9.89    0.81
  21   2   2    0.52    0.28
 -21   2  -2    1.15    0.36
 -21  -2  -2    0.35    0.29
  21   3  -4   16.64    1.03
  21  -3  -4   15.82    1.02
 -21   3   3    0.33    0.28
  21   3  -3    0.65    0.31
  21  -3  -3    1.06    0.31
 -21   3   2    3.87    0.47
  21   3  -2    2.64    0.39
  21  -3  -2    2.37    0.40
  21   3  -1    9.57    0.71
 -21   3   1    7.79    0.69
 -21  -3   1    8.76    0.70
  21  -3  -1    8.02    0.68
 -21   3   0    2.08    0.40
  21   3   0    1.83    0.37
 -21  -3   0    2.04    0.38
  21  -3   0    2.46    0.39
 -21   3  -1    1.17    0.37
  21   3   1    1.00    0.33
  21  -3   1    0.91    0.32
 -21  -3  -1    0.79    0.35
  21   4  -2    0.23    0.30
 -21   4   2   -0.11    0.27
  21  -4  -2   -0.15    0.27
  21   4  -1    0.77    0.32
 -21   4   1    0.72    0.31
 -21  -4   1    0.75    0.31
  21  -4  -1    0.67    0.30
  22   0  -4    0.46    0.28
  22   0  -3   -0.03    0.26
 -22   0   2    0.69    0.28
  22   0  -2    0.70    0.31
 -22   0   1    0.15    0.24
  22   0  -1    0.04    0.26
  22   0   0    1.82    0.36
 -22   0   0    1.70    0.36
  22   0   1    0.03    0.27
 -22   0  -1    0.42    0.31
  22   1  -4    1.50    0.33
  22  -1  -4    1.41    0.34
  22   1  -3    0.66    0.30
  22  -1  -3    0.35    0.30
  22   1  -2    0.03    0.25
 -22   1   2    0.05    0.24
  22  -1  -2    0.26    0.26
 -22  -1   2   -0.06    0.24
  22   1  -1    7.91    0.66
 -22   1   1    7.52    0.66
  22  -1  -1    7.66    0.65
 -22  -1   1    7.23    0.64
 -22   1   0    0.13    0.26
  22   1   0    0.06    0.25
  22  -1   0   -0.21    0.26
 -22  -1   0    0.65    0.30
  22   1   1    8.45    0.70
 -22   1  -1    8.49    0.73
 -22  -1  -1   10.26    0.77
  22  -1   1    8.31    0.70
  22   2  -4    0.74    0.33
  22   2  -4    0.86    0.32
  22  -2  -4    0.58    0.33
  22   2  -3    1.20    0.33
  22  -2  -3    1.39    0.35
  22   2  -2    1.09    0.34
 -22   2   2    0.90    0.30
  22  -2  -2    1.34    0.37
  22   2  -1    1.75    0.36
 -22   2   1    2.14    0.39
  22  -2  -1    3.20    0.43
 -22  -2   1    3.06    0.44
  22   2   0   11.41    0.81
 -22   2   0   12.07    0.86
  22  -2   0   11.07    0.82
 -22  -2   0   11.50    0.84
  22   2   1    0.77    0.30
  22  -2   1    0.98    0.31
  22   3  -2    4.96    0.55
 -22   3   2    5.92    0.57
  22  -3  -2    6.70    0.62
 -22   3   1    3.28    0.44
  22   3  -1    3.53    0.48
  22  -3  -1    2.78    0.44
 -22  -3   1    3.01    0.46
  23   0  -3   -0.02    0.27
 -23   0   2   14.60    0.97
  23   0  -2   15.89    0.99
  23   0  -1   -0.06    0.27
 -23   0   1    0.12    0.28
  23   0   0    4.50    0.50
 -23   0   0    5.39    0.55
  23   1  -3    5.26    0.54
  23  -1  -3    5.78    0.57
  23   1  -2    1.80    0.36
 -23   1   2    1.23    0.35
  23  -1  -2    1.22    0.35
  23   1  -1    5.97    0.58
 -23   1   1    4.99    0.56
  23  -1  -1    4.37    0.52
 -23  -1   1    5.83    0.58
   0   0   0    0.00    0.00
;
loop_
_space_group_symop_operation_xyz
'x, y, z'
'-x, y+1/2, -z+1/2'
'-x, -y, -z'
'x, -y-1/2, z-1/2'
loop_
_atom_site_label
_atom_site_type_symbol
_atom_site_fract_x
_atom_site_fract_y
_atom_site_fract_z
_atom_site_U_iso_or_equiv
_atom_site_adp_type
_atom_site_occupancy
_atom_site_site_symmetry_order
_atom_site_calc_flag
_atom_site_refinement_flags_posn
_atom_site_refinement_flags_adp
_atom_site_refinement_flags_occupancy
_atom_site_disorder_assembly
_atom_site_disorder_group
Cu1 Cu 0.0000 0.5000 0.5000 0.02420(11) Uani 1 2 d S . P . .
Cl1 Cl 0.01904(3) 0.28923(7) 0.27994(7) 0.03370(14) Uani 1 1 d . . . . .
Cl2 Cl 0.12625(3) 0.54738(8) 0.57256(8) 0.03648(14) Uani 1 1 d . . . . .
Cl3A Cl 0.4420(4) 0.3337(10) 0.2138(11) 0.0752(9) Uani 0.418(11) 1 d . U P A 1
Cl3B Cl 0.4492(3) 0.3908(9) 0.1883(8) 0.0752(9) Uani 0.582(11) 1 d . . P A 2
N1 N 0.30984(14) 0.3340(4) 0.0195(3) 0.0615(7) Uani 1 1 d . . . . .
N2 N 0.12286(10) 0.5218(3) 0.0484(3) 0.0376(4) Uani 1 1 d . . . . .
H2A H 0.0998 0.4601 0.1266 0.056 Uiso 1 1 calc R U . . .
H2B H 0.1050 0.4873 -0.0676 0.056 Uiso 1 1 calc R U . . .
H2C H 0.1145 0.6396 0.0602 0.056 Uiso 1 1 calc R U . . .
C1 C 0.23610(15) 0.3695(4) -0.0148(4) 0.0484(6) Uani 1 1 d . . . . .
H1 H 0.2059 0.3124 -0.1144 0.058 Uiso 1 1 calc R U . . .
C2 C 0.20387(12) 0.4865(3) 0.0912(3) 0.0284(4) Uani 1 1 d . . . . .
C3 C 0.24795(12) 0.5707(3) 0.2399(3) 0.0342(5) Uani 1 1 d . . . . .
H3 H 0.2264 0.6514 0.3128 0.041 Uiso 1 1 calc R U . . .
C4 C 0.32402(13) 0.5350(3) 0.2805(3) 0.0382(5) Uani 1 1 d . . . . .
C5 C 0.35080(14) 0.4168(4) 0.1620(4) 0.0460(6) Uani 1 1 d . . . . .
C6 C 0.37410(18) 0.6196(5) 0.4449(5) 0.0766(11) Uani 1 1 d . . . B 1
H6C H 0.4104 0.6966 0.4022 0.115 Uiso 1 1 calc R U . B 1
H6B H 0.3998 0.5262 0.5226 0.115 Uiso 1 1 calc R U . B 1
H6A H 0.3441 0.6898 0.5147 0.115 Uiso 1 1 calc R U . B 1
loop_
_atom_site_aniso_label
_atom_site_aniso_U_11
_atom_site_aniso_U_22
_atom_site_aniso_U_33
_atom_site_aniso_U_23
_atom_site_aniso_U_13
_atom_site_aniso_U_12
Cu1 0.02325(19) 0.02420(18) 0.02489(18) -0.00585(13) 0.00350(13) -0.00086(13)
Cl1 0.0436(3) 0.0284(3) 0.0294(2) -0.00759(19) 0.0071(2) 0.0030(2)
Cl2 0.0238(3) 0.0380(3) 0.0468(3) 0.0001(2) 0.0039(2) -0.0034(2)
Cl3A 0.0314(9) 0.091(2) 0.1022(15) -0.0072(17) 0.0096(8) 0.0146(14)
Cl3B 0.0314(9) 0.091(2) 0.1022(15) -0.0072(17) 0.0096(8) 0.0146(14)
N1 0.0501(14) 0.0743(17) 0.0575(14) -0.0259(13) 0.0027(11) 0.0229(13)
N2 0.0269(10) 0.0368(10) 0.0477(11) 0.0018(8) 0.0024(8) -0.0012(8)
C1 0.0469(15) 0.0492(15) 0.0442(13) -0.0185(11) -0.0056(11) 0.0084(12)
C2 0.0260(10) 0.0258(10) 0.0333(10) 0.0050(8) 0.0048(8) -0.0002(8)
C3 0.0344(12) 0.0345(11) 0.0345(11) -0.0048(9) 0.0086(9) -0.0002(9)
C4 0.0338(12) 0.0411(13) 0.0380(12) -0.0030(10) 0.0015(10) -0.0036(10)
C5 0.0299(12) 0.0549(15) 0.0530(14) -0.0016(12) 0.0070(11) 0.0091(11)
C6 0.0491(18) 0.095(3) 0.076(2) -0.034(2) -0.0161(16) -0.0017(17)
loop_
_atom_type_symbol
_atom_type_description
_atom_type_scat_dispersion_real
_atom_type_scat_dispersion_imag
_atom_type_scat_source
C C 0.0033 0.0016 'International Tables Vol C Tables 4.2.6.8 and 6.1.1.4'
H H 0.0000 0.0000 'International Tables Vol C Tables 4.2.6.8 and 6.1.1.4'
N N 0.0061 0.0033 'International Tables Vol C Tables 4.2.6.8 and 6.1.1.4'
Cl Cl 0.1484 0.1585 'International Tables Vol C Tables 4.2.6.8 and 6.1.1.4'
Cu Cu 0.3201 1.2651 'International Tables Vol C Tables 4.2.6.8 and 6.1.1.4'
loop_
_geom_angle_atom_site_label_1
_geom_angle_atom_site_label_2
_geom_angle_atom_site_label_3
_geom_angle
_geom_angle_site_symmetry_1
_geom_angle_site_symmetry_3
Cl2 Cu1 Cl2 180.0 . 3_566
Cl2 Cu1 Cl1 90.04(2) . .
Cl2 Cu1 Cl1 89.96(2) 3_566 .
Cl2 Cu1 Cl1 89.96(2) . 3_566
Cl2 Cu1 Cl1 90.04(2) 3_566 3_566
Cl1 Cu1 Cl1 180.0 . 3_566
C5 N1 C1 117.3(2) . .
C2 N2 H2A 109.5 . .
C2 N2 H2B 109.5 . .
H2A N2 H2B 109.5 . .
C2 N2 H2C 109.5 . .
H2A N2 H2C 109.5 . .
H2B N2 H2C 109.5 . .
N1 C1 C2 122.0(2) . .
N1 C1 H1 119.0 . .
C2 C1 H1 119.0 . .
C1 C2 C3 119.5(2) . .
C1 C2 N2 120.2(2) . .
C3 C2 N2 120.28(19) . .
C4 C3 C2 119.9(2) . .
C4 C3 H3 120.1 . .
C2 C3 H3 120.1 . .
C5 C4 C3 115.6(2) . .
C5 C4 C6 122.6(2) . .
C3 C4 C6 121.8(2) . .
N1 C5 C4 125.6(2) . .
N1 C5 Cl3A 112.8(3) . .
C4 C5 Cl3A 120.8(3) . .
N1 C5 Cl3B 116.7(3) . .
C4 C5 Cl3B 117.3(3) . .
C4 C6 H6C 109.5 . .
C4 C6 H6B 109.5 . .
H6C C6 H6B 109.5 . .
C4 C6 H6A 109.5 . .
H6C C6 H6A 109.5 . .
H6B C6 H6A 109.5 . .
loop_
_geom_bond_atom_site_label_1
_geom_bond_atom_site_label_2
_geom_bond_distance
_geom_bond_site_symmetry_2
Cu1 Cl2 2.2728(5) .
Cu1 Cl2 2.2729(5) 3_566
Cu1 Cl1 2.3087(5) .
Cu1 Cl1 2.3087(5) 3_566
Cl3A C5 1.734(7) .
Cl3B C5 1.762(5) .
N1 C5 1.317(3) .
N1 C1 1.336(3) .
N2 C2 1.463(3) .
N2 H2A 0.8900 .
N2 H2B 0.8900 .
N2 H2C 0.8900 .
C1 C2 1.359(3) .
C1 H1 0.9300 .
C2 C3 1.377(3) .
C3 C4 1.378(3) .
C3 H3 0.9300 .
C4 C5 1.377(4) .
C4 C6 1.506(3) .
C6 H6C 0.9600 .
C6 H6B 0.9600 .
C6 H6A 0.9600 .
