#------------------------------------------------------------------------------
#$Date: 2021-12-09 11:27:09 +0200 (Thu, 09 Dec 2021) $
#$Revision: 271292 $
#$URL: file:///home/coder/svn-repositories/cod/cif/1/56/56/1565616.cif $
#------------------------------------------------------------------------------
#
# This file is available in the Crystallography Open Database (COD),
# http://www.crystallography.net/
#
# All data on this site have been placed in the public domain by the
# contributors.
#
data_1565616
loop_
_publ_author_name
'Birgisson, Benedikt O.'
'Monger, Lindsey J.'
'Damodaran, Krishna K.'
'Suman, Sigridur G.'
_publ_section_title
;
 Synthesis and characterization of asymmetric [Mo2O2(\m-S)2(S2)(L)]
 complexes (L&#x202F;=&#x202F;bipy, en, dien) and their heterogeneous
 reaction with propylene sulfide
;
_journal_name_full               'Inorganica Chimica Acta'
_journal_page_first              119272
_journal_paper_doi               10.1016/j.ica.2019.119272
_journal_volume                  501
_journal_year                    2020
_chemical_formula_moiety         'C13 H15 Mo2 N3 O3 S4'
_chemical_formula_sum            'C13 H15 Mo2 N3 O3 S4'
_chemical_formula_weight         581.40
_space_group_crystal_system      triclinic
_space_group_IT_number           2
_space_group_name_Hall           '-P 1'
_space_group_name_H-M_alt        'P -1'
_atom_sites_solution_hydrogens   geom
_cell_angle_alpha                69.4630(10)
_cell_angle_beta                 84.0190(10)
_cell_angle_gamma                60.9330(10)
_cell_formula_units_Z            2
_cell_length_a                   9.6507(3)
_cell_length_b                   9.6875(4)
_cell_length_c                   12.4793(5)
_cell_measurement_reflns_used    9885
_cell_measurement_temperature    150(2)
_cell_measurement_theta_max      25.37
_cell_measurement_theta_min      3.10
_cell_volume                     951.82(6)
_computing_cell_refinement       'SAINT V8.35A (?, 2016)'
_computing_data_collection       'SAINT V8.35A (?, 2016)'
_computing_data_reduction        'SAINT V8.35A (?, 2016)'
_computing_molecular_graphics    'MERCURY CSD 3.8'
_computing_publication_material  'MERCURY CSD 3.8'
_computing_structure_refinement  'SHELXL-2014/7 (Sheldrick, 2014)'
_computing_structure_solution    'SAINT V8.35A (?, 2016)'
_diffrn_ambient_temperature      150(2)
_diffrn_measured_fraction_theta_full 0.998
_diffrn_measured_fraction_theta_max 0.997
_diffrn_measurement_device_type  'Bruker APEX-II CCD'
_diffrn_measurement_method       '\f and \w scans'
_diffrn_radiation_type           MoK\a
_diffrn_radiation_wavelength     0.71073
_diffrn_reflns_av_R_equivalents  0.0228
_diffrn_reflns_av_unetI/netI     0.0127
_diffrn_reflns_Laue_measured_fraction_full 0.998
_diffrn_reflns_Laue_measured_fraction_max 0.997
_diffrn_reflns_limit_h_max       11
_diffrn_reflns_limit_h_min       -11
_diffrn_reflns_limit_k_max       11
_diffrn_reflns_limit_k_min       -11
_diffrn_reflns_limit_l_max       15
_diffrn_reflns_limit_l_min       -15
_diffrn_reflns_number            27669
_diffrn_reflns_point_group_measured_fraction_full 0.998
_diffrn_reflns_point_group_measured_fraction_max 0.997
_diffrn_reflns_theta_full        25.242
_diffrn_reflns_theta_max         25.408
_diffrn_reflns_theta_min         3.101
_exptl_absorpt_coefficient_mu    1.774
_exptl_absorpt_correction_T_max  0.7452
_exptl_absorpt_correction_T_min  0.6760
_exptl_absorpt_correction_type   multi-scan
_exptl_absorpt_process_details
'Multi-scan was used for absorption correction. wR2(int) was 0.0457 before and 0.0387 after correction. The Ratio of minimum to maximum transmission is 0.9071. The \l/2 correction factor is Not present.'
_exptl_crystal_colour            red
_exptl_crystal_density_diffrn    2.029
_exptl_crystal_description       plate
_exptl_crystal_F_000             572
_exptl_crystal_size_max          0.210
_exptl_crystal_size_mid          0.150
_exptl_crystal_size_min          0.040
_refine_diff_density_max         0.543
_refine_diff_density_min         -0.473
_refine_diff_density_rms         0.069
_refine_ls_extinction_coef       .
_refine_ls_extinction_method     none
_refine_ls_goodness_of_fit_ref   1.052
_refine_ls_hydrogen_treatment    constr
_refine_ls_matrix_type           full
_refine_ls_number_parameters     228
_refine_ls_number_reflns         3496
_refine_ls_number_restraints     0
_refine_ls_restrained_S_all      1.052
_refine_ls_R_factor_all          0.0216
_refine_ls_R_factor_gt           0.0177
_refine_ls_shift/su_max          0.001
_refine_ls_shift/su_mean         0.000
_refine_ls_structure_factor_coef Fsqd
_refine_ls_weighting_details
'w=1/[\s^2^(Fo^2^)+(0.0199P)^2^+1.1136P] where P=(Fo^2^+2Fc^2^)/3'
_refine_ls_weighting_scheme      calc
_refine_ls_wR_factor_gt          0.0424
_refine_ls_wR_factor_ref         0.0438
_reflns_Friedel_coverage         0.000
_reflns_Friedel_fraction_full    .
_reflns_Friedel_fraction_max     .
_reflns_number_gt                3187
_reflns_number_total             3496
_reflns_threshold_expression     'I > 2\s(I)'
_cod_data_source_file            ICA-2020-501-119272.cif
_cod_data_source_block           mo_SSBOB269_0m
_cod_database_code               1565616
_shelx_space_group_comment
;
The symmetry employed for this shelxl refinement is uniquely defined
by the following loop, which should always be used as a source of
symmetry information in preference to the above space-group names.
They are only intended as comments.
;
_shelx_estimated_absorpt_t_min   0.707
_shelx_estimated_absorpt_t_max   0.932
_shelx_res_file
;

    mo_SSBOB269_0m.res created by SHELXL-2014/7


TITL mo_SSBOB269_0m_a.res in P-1
CELL 0.71073 9.6507 9.6875 12.4793 69.463 84.019 60.933
ZERR 2 0.0003 0.0004 0.0005 0.001 0.001 0.001
LATT 1

SFAC C H N O S Mo
UNIT 26 30 6 6 8 4
LIST 6 ! automatically inserted. Change 6 to 4 for CHECKCIF!!

L.S. 20
PLAN  20
SIZE 0.21 0.15 0.04
TEMP -123.15
fmap 2
acta

WGHT    0.019900    1.113600
FVAR       0.15479
S1    5    0.636541    0.052412    0.085861    11.00000    0.02163    0.01816 =
         0.01298   -0.00313    0.00128   -0.00954
MO1   6    0.804277    0.010360    0.227749    11.00000    0.01473    0.01318 =
         0.01461   -0.00513    0.00240   -0.00466
S2    5    0.739382   -0.142602    0.394459    11.00000    0.02646    0.02108 =
         0.01382   -0.00224    0.00036   -0.01113
MO2   6    0.615220   -0.145786    0.246148    11.00000    0.01799    0.01338 =
         0.01447   -0.00488    0.00399   -0.00678
S3    5    0.340798   -0.026195    0.188540    11.00000    0.01995    0.02675 =
         0.02821   -0.01089    0.00462   -0.01062
S4    5    0.403390   -0.139805    0.363667    11.00000    0.03147    0.04763 =
         0.02463   -0.01532    0.01421   -0.02509
O5    4    0.985857   -0.123837    0.201886    11.00000    0.01870    0.02039 =
         0.02897   -0.01043    0.00292   -0.00550
O6    4    0.723831   -0.334192    0.229243    11.00000    0.02767    0.01610 =
         0.02641   -0.00813    0.00349   -0.00766
N7    3    0.591290    0.261810    0.244399    11.00000    0.01711    0.01623 =
         0.01656   -0.00691    0.00416   -0.00719
C8    1    0.478097    0.269653    0.318179    11.00000    0.02242    0.02108 =
         0.02245   -0.00869    0.00830   -0.01182
AFIX  43
H8    2    0.482142    0.167593    0.368089    11.00000   -1.20000
AFIX   0
C9    1    0.356323    0.419719    0.324431    11.00000    0.01886    0.02752 =
         0.02682   -0.01380    0.00971   -0.01187
AFIX  43
H9    2    0.278204    0.420385    0.377587    11.00000   -1.20000
AFIX   0
C10   1    0.349150    0.569197    0.252505    11.00000    0.01690    0.02138 =
         0.02892   -0.01431    0.00376   -0.00423
AFIX  43
H10   2    0.266835    0.674020    0.255786    11.00000   -1.20000
AFIX   0
C11   1    0.464219    0.562873    0.175773    11.00000    0.01936    0.01714 =
         0.02244   -0.00772    0.00165   -0.00686
AFIX  43
H11   2    0.461577    0.663823    0.125053    11.00000   -1.20000
AFIX   0
C12   1    0.583847    0.407864    0.173283    11.00000    0.01499    0.01768 =
         0.01524   -0.00627    0.00019   -0.00743
C13   1    0.711234    0.391295    0.093788    11.00000    0.01661    0.01793 =
         0.01594   -0.00770    0.00209   -0.00879
C14   1    0.721750    0.529096    0.016795    11.00000    0.02462    0.02006 =
         0.02128   -0.00724    0.00297   -0.01131
AFIX  43
H14   2    0.645095    0.639877    0.013164    11.00000   -1.20000
AFIX   0
C15   1    0.844662    0.503788   -0.054533    11.00000    0.03397    0.03022 =
         0.02087   -0.00847    0.00846   -0.02332
AFIX  43
H15   2    0.852568    0.596932   -0.108396    11.00000   -1.20000
AFIX   0
C16   1    0.955869    0.341435   -0.046559    11.00000    0.02689    0.03437 =
         0.02472   -0.01676    0.01337   -0.01985
AFIX  43
H16   2    1.042190    0.321139   -0.093972    11.00000   -1.20000
AFIX   0
C17   1    0.939458    0.209546    0.031278    11.00000    0.02015    0.02527 =
         0.02338   -0.01457    0.00844   -0.01112
AFIX  43
H17   2    1.016200    0.097965    0.036746    11.00000   -1.20000
AFIX   0
N18   3    0.818816    0.232547    0.099992    11.00000    0.01595    0.01837 =
         0.01724   -0.00843    0.00464   -0.00857
O19   4    0.916657    0.074466    0.331137    11.00000    0.02610    0.02626 =
         0.02485   -0.01312   -0.00013   -0.00977
C20   1    0.862092    0.154920    0.397890    11.00000    0.02207    0.02866 =
         0.01973   -0.00456    0.00252   -0.01154
AFIX  43
H20   2    0.782361    0.141875    0.445065    11.00000   -1.20000
AFIX   0
N21   3    0.909536    0.257092    0.406228    11.00000    0.02506    0.02207 =
         0.01994   -0.00508   -0.00058   -0.01162
C22   1    0.842093    0.347114    0.487285    11.00000    0.02778    0.03013 =
         0.02522   -0.01032    0.00519   -0.01195
AFIX 137
H22A  2    0.926831    0.314727    0.542619    11.00000   -1.50000
H22B  2    0.762141    0.318346    0.528161    11.00000   -1.50000
H22C  2    0.792101    0.468609    0.445408    11.00000   -1.50000
AFIX   0
C23   1    1.026636    0.287942    0.334034    11.00000    0.02739    0.03255 =
         0.02614   -0.00935    0.00572   -0.01365
AFIX 137
H23A  2    0.988943    0.409327    0.301155    11.00000   -1.50000
H23B  2    1.042485    0.242926    0.271992    11.00000   -1.50000
H23C  2    1.127571    0.232410    0.380191    11.00000   -1.50000
AFIX   0
HKLF 4

REM  mo_SSBOB269_0m_a.res in P-1
REM R1 =  0.0177 for    3187 Fo > 4sig(Fo)  and  0.0216 for all    3496 data
REM    228 parameters refined using      0 restraints

END

WGHT      0.0199      1.1126

REM Highest difference peak  0.543,  deepest hole -0.473,  1-sigma level  0.069
Q1    1   0.9589  0.1435  0.3331  11.00000  0.05    0.54
Q2    1   1.0655  0.3498  0.3603  11.00000  0.05    0.44
Q3    1   0.7058 -0.1343  0.2716  11.00000  0.05    0.37
Q4    1   0.8385  0.0704  0.2356  11.00000  0.05    0.34
Q5    1   0.8023 -0.0950  0.2113  11.00000  0.05    0.33
Q6    1   0.6203 -0.2582  0.2381  11.00000  0.05    0.31
Q7    1   0.6381  0.3992  0.1273  11.00000  0.05    0.29
Q8    1   0.3992 -0.0191  0.3633  11.00000  0.05    0.29
Q9    1   0.6228 -0.0360  0.2757  11.00000  0.05    0.29
Q10   1   0.8229  0.3239  0.4402  11.00000  0.05    0.28
Q11   1   0.9229  0.2060  0.4264  11.00000  0.05    0.28
Q12   1   0.5920  0.3375  0.2205  11.00000  0.05    0.27
Q13   1   0.4231  0.5595  0.2307  11.00000  0.05    0.25
Q14   1   0.8683  0.0668  0.3801  11.00000  0.05    0.25
Q15   1   0.9177  0.4196 -0.0362  11.00000  0.05    0.25
Q16   1   0.7657  0.5178 -0.0387  11.00000  0.05    0.24
Q17   1   0.3221 -0.0971  0.1399  11.00000  0.05    0.24
Q18   1   0.8830  0.2445  0.3947  11.00000  0.05    0.23
Q19   1   0.3375  0.0758  0.1998  11.00000  0.05    0.23
Q20   1   0.7130  0.4577  0.0489  11.00000  0.05    0.23
;
_shelx_res_checksum              99934
_shelx_hkl_file
;
  -2   0   0   72.95    1.34
  -2   0   0   69.11    1.24
  -2   0   0   72.54    1.31
  -2   0   0   72.45    1.31
   2   0   0   67.89    1.13
   2   0   0   69.08    1.14
   2   0   0   73.54    1.31
   2   0   0   67.88    1.24
  -3   0   0   56.89    1.19
  -3   0   0   53.89    1.16
  -3   0   0   56.29    1.23
  -3   0   0   53.05    1.09
   3   0   0   54.17    0.94
   3   0   0   52.72    0.94
   3   0   0   54.89    1.17
   3   0   0   52.70    1.08
  -4   0   0  108.67    2.09
  -4   0   0  110.22    2.09
  -4   0   0  108.45    2.15
  -4   0   0  104.66    1.96
   4   0   0  107.96    2.07
   4   0   0  105.04    1.96
   4   0   0  104.14    1.95
   4   0   0  105.63    1.78
   4   0   0  107.63    1.77
  -5   0   0  235.39    4.07
  -5   0   0  227.63    3.89
  -5   0   0  228.31    4.13
  -5   0   0  234.30    4.06
   5   0   0  229.15    3.89
   5   0   0  231.84    3.69
   5   0   0  233.00    4.06
   5   0   0  225.10    3.89
   5   0   0  229.02    3.67
  -6   0   0    0.28    0.37
  -6   0   0    0.08    0.30
   6   0   0    0.39    0.20
   6   0   0    0.53    0.21
   6   0   0   -0.02    0.33
   6   0   0    0.72    0.33
   6   0   0    0.71    0.30
  -7   0   0   38.16    1.21
  -7   0   0   36.65    1.36
   7   0   0   38.11    1.30
   7   0   0   37.04    0.96
   7   0   0   38.60    1.19
   7   0   0   37.32    0.93
   7   0   0   38.82    1.35
   7   0   0   38.54    1.20
  -8   0   0    2.52    0.56
  -8   0   0    1.93    0.56
   8   0   0    2.59    0.51
   8   0   0    3.08    0.60
   8   0   0    3.28    0.39
   8   0   0    2.91    0.62
   8   0   0    2.09    0.40
   8   0   0    3.03    0.59
  -9   0   0   28.28    1.48
  -9   0   0   31.90    1.46
   9   0   0   28.47    1.28
   9   0   0   28.69    1.01
   9   0   0   27.87    1.05
   9   0   0   31.00    1.37
   9   0   0   29.07    1.55
   9   0   0   30.03    1.40
   9   0   0   30.77    1.52
 -10   0   0   10.75    1.29
  10   0   0   13.20    1.58
  10   0   0   11.80    1.47
  10   0   0   15.38    1.42
  10   0   0   13.07    1.26
  10   0   0   11.72    1.15
  10   0   0   13.09    0.95
   9  -1   0    5.33    0.90
   9  -1   0    5.25    0.77
   9  -1   0    5.46    0.68
   9  -1   0    4.47    0.58
   9  -1   0    5.64    0.88
   9  -1   0    6.65    0.93
   9  -1   0    4.39    0.76
  -9   1   0    3.56    0.77
  -9   1   0    5.16    0.89
   8  -1   0    2.31    0.43
   8  -1   0    2.53    0.49
   8  -1   0    2.47    0.64
   8  -1   0    2.72    0.60
   8  -1   0    2.11    0.64
  -8   1   0    2.74    0.66
  -8   1   0    1.82    0.62
   7  -1   0  120.93    2.94
   7  -1   0  133.33    2.94
   7  -1   0  127.90    2.62
   7  -1   0  131.54    2.44
   7  -1   0  132.79    2.74
   7  -1   0  133.37    2.46
  -7   1   0  125.97    2.89
  -7   1   0  133.78    2.75
   6  -1   0   12.00    0.59
   6  -1   0   13.31    0.62
   6  -1   0   12.14    0.77
   6  -1   0    9.93    1.01
   6  -1   0   11.87    0.77
  -6   1   0   12.93    0.80
  -6   1   0   11.00    0.88
   5  -1   0  167.38    2.82
   5  -1   0  167.60    3.17
   5  -1   0  166.51    3.05
   5  -1   0  164.11    2.81
   5  -1   0  159.92    2.93
  -5   1   0  163.27    3.16
  -5   1   0  161.61    3.21
  -5   1   0  167.97    3.05
   4  -1   0   25.60    0.79
   4  -1   0   26.99    0.69
   4  -1   0   26.37    0.91
   4  -1   0   25.25    0.83
   4  -1   0   25.53    0.67
  -4   1   0   26.56    0.91
  -4   1   0   27.12    0.96
  -4   1   0   26.63    0.84
   3  -1   0    9.23    0.38
   3  -1   0    8.89    0.52
   3  -1   0    8.86    0.37
   3  -1   0    8.66    0.46
   3  -1   0    8.92    0.51
  -3   1   0    8.26    0.32
  -3   1   0    9.11    0.31
  -3   1   0    8.81    0.54
  -3   1   0    9.44    0.58
  -3   1   0    8.86    0.50
  -3   1   0    9.91    0.56
   2  -1   0  224.76    3.69
   2  -1   0  222.85    3.73
   2  -1   0  231.42    3.58
   2  -1   0  222.92    3.60
   2  -1   0  223.99    3.58
  -2   1   0  223.06    3.54
  -2   1   0  228.98    3.55
  -2   1   0  225.93    3.74
  -2   1   0  226.99    3.70
  -2   1   0  237.78    3.74
  -2   1   0  227.62    3.73
   1  -1   0    7.91    0.29
   1  -1   0    7.24    0.36
   1  -1   0    8.61    0.32
   1  -1   0    8.13    0.37
   1  -1   0    7.81    0.29
  -1   1   0    7.63    0.36
  -1   1   0    8.27    0.37
  -1   1   0    8.09    0.35
  -1   1   0    7.90    0.28
  -1   1   0    7.81    0.28
  -1   1   0    8.03    0.32
  -1   1   0    7.37    0.36
  -2  -1   0    6.95    0.28
  -2  -1   0    7.66    0.36
  -2  -1   0    6.92    0.32
  -2  -1   0    7.32    0.33
  -2  -1   0    7.68    0.35
   2   1   0    7.26    0.28
   2   1   0    6.68    0.31
   2   1   0    7.25    0.34
  -3  -1   0   53.90    1.11
  -3  -1   0   54.68    1.07
  -3  -1   0   56.42    1.16
  -3  -1   0   51.08    1.05
   3   1   0   53.17    1.06
   3   1   0   52.26    0.97
   3   1   0   51.06    1.04
   3   1   0   51.63    1.09
  -4  -1   0  101.18    1.81
  -4  -1   0  102.91    1.92
  -4  -1   0  105.54    1.98
  -4  -1   0  104.27    2.02
   4   1   0  104.47    1.93
   4   1   0  103.23    1.80
   4   1   0  102.27    1.94
   4   1   0  101.53    1.87
  -5  -1   0  180.06    3.03
  -5  -1   0  180.10    3.29
  -5  -1   0  179.13    3.17
   5   1   0  177.40    3.09
   5   1   0  177.18    3.18
   5   1   0  176.69    3.01
   5   1   0  181.33    3.18
  -6  -1   0    0.09    0.30
  -6  -1   0    0.18    0.25
  -6  -1   0    0.37    0.34
   6   1   0   -0.07    0.28
   6   1   0   -0.33    0.27
   6   1   0    0.17    0.22
   6   1   0    0.01    0.28
  -7  -1   0   18.67    0.99
  -7  -1   0   20.80    0.82
   7   1   0   20.05    0.59
   7   1   0   19.80    0.80
   7   1   0   19.91    0.85
   7   1   0   19.80    0.95
   7   1   0   20.03    0.61
   7   1   0   22.63    0.99
  -8  -1   0    2.06    0.54
   8   1   0    2.70    0.34
   8   1   0    2.58    0.53
   8   1   0    3.44    0.54
   8   1   0    3.71    0.47
   8   1   0    3.05    0.33
   8   1   0    2.77    0.55
  -9  -1   0   24.27    1.31
   9   1   0   23.11    0.86
   9   1   0   23.50    1.17
   9   1   0   22.73    0.82
   9   1   0   24.40    1.06
   9   1   0   25.00    1.33
   9   1   0   25.23    1.35
 -10  -1   0   46.12    1.86
  10   1   0   44.98    1.71
  10   1   0   46.37    1.90
  10   1   0   45.37    1.28
  10   1   0   42.39    1.23
  10   1   0   44.73    1.65
  10   1   0   42.86    1.89
  10   1   0   44.10    1.54
   8  -2   0    0.59    0.48
   8  -2   0    1.07    0.70
   8  -2   0    0.18    0.56
   8  -2   0   -0.38    0.58
   8  -2   0    1.56    0.72
  -8   2   0   -0.05    0.70
  -8   2   0   -0.27    0.57
   7  -2   0   86.13    2.00
   7  -2   0   85.88    1.91
   7  -2   0   86.01    2.37
   7  -2   0   87.68    1.97
   7  -2   0   86.09    2.20
  -7   2   0   87.29    2.25
  -7   2   0   83.48    2.32
   6  -2   0   66.13    1.55
   6  -2   0   70.13    1.58
   6  -2   0   68.73    1.64
   6  -2   0   68.87    1.86
   6  -2   0   65.88    1.92
  -6   2   0   67.49    1.93
  -6   2   0   70.36    1.85
   5  -2   0   29.49    1.08
   5  -2   0   29.21    1.36
   5  -2   0   29.29    0.89
   5  -2   0   29.37    0.89
   5  -2   0   30.50    0.97
  -5   2   0   27.12    1.27
  -5   2   0   30.10    1.16
   4  -2   0    3.61    0.46
   4  -2   0    4.68    0.59
   4  -2   0    4.27    0.42
   4  -2   0    3.74    0.40
   4  -2   0    3.52    0.37
  -4   2   0    3.34    0.32
  -4   2   0    3.90    0.47
  -4   2   0    3.56    0.47
  -4   2   0    3.55    0.32
  -4   2   0    4.06    0.45
   3  -2   0    0.83    0.23
   3  -2   0    0.34    0.21
   3  -2   0    0.81    0.29
   3  -2   0    0.74    0.30
   3  -2   0    0.88    0.23
  -3   2   0    0.72    0.30
  -3   2   0    0.94    0.31
  -3   2   0    0.60    0.28
  -3   2   0    0.54    0.19
  -3   2   0    0.21    0.18
   2  -2   0  310.47    4.87
   2  -2   0  304.27    4.90
   2  -2   0  308.08    5.04
   2  -2   0  303.24    5.05
   2  -2   0  312.20    4.90
  -2   2   0  314.87    5.06
  -2   2   0  306.62    4.87
  -2   2   0  318.78    5.02
  -2   2   0  305.33    5.03
  -2   2   0  302.00    4.85
  -2   2   0  299.18    4.86
   1  -2   0    3.82    0.37
   1  -2   0    3.98    0.31
   1  -2   0    4.08    0.30
   1  -2   0    2.98    0.38
   1  -2   0    2.97    0.31
  -1   2   0    3.77    0.35
  -1   2   0    3.88    0.33
  -1   2   0    4.05    0.39
  -1   2   0    4.29    0.31
  -1   2   0    4.41    0.31
  -1   2   0    4.52    0.41
   0  -2   0   72.82    1.30
   0  -2   0   71.65    1.30
   0  -2   0   70.44    1.35
   0  -2   0   73.64    1.28
   0  -2   0   70.83    1.30
   0   2   0   71.31    1.28
   0   2   0   72.36    1.35
   0   2   0   71.15    1.30
   0   2   0   71.88    1.30
   0   2   0   73.46    1.22
  -1  -2   0   27.26    0.63
  -1  -2   0   27.00    0.60
  -1  -2   0   27.79    0.65
  -1  -2   0   27.33    0.60
   1   2   0   27.95    0.65
   1   2   0   27.00    0.61
   1   2   0   27.80    0.65
   1   2   0   26.99    0.60
   1   2   0   26.92    0.63
  -2  -2   0   50.25    0.89
  -2  -2   0   47.77    0.84
  -2  -2   0   50.16    0.99
  -2  -2   0   49.34    0.88
  -2  -2   0   50.21    1.02
   2   2   0   50.17    0.91
   2   2   0   47.62    0.84
   2   2   0   49.30    0.91
   2   2   0   50.25    0.91
   2   2   0   51.46    0.99
   2   2   0   51.54    1.03
  -3  -2   0   20.44    0.61
  -3  -2   0   19.88    0.60
  -3  -2   0   19.29    0.47
  -3  -2   0   18.58    0.59
   3   2   0   18.11    0.47
   3   2   0   19.51    0.44
   3   2   0   19.35    0.43
   3   2   0   19.66    0.62
   3   2   0   18.65    0.58
   3   2   0   19.07    0.58
  -4  -2   0    0.15    0.20
  -4  -2   0    0.37    0.21
  -4  -2   0   -0.11    0.17
  -4  -2   0    0.31    0.25
   4   2   0    0.21    0.14
   4   2   0   -0.16    0.19
   4   2   0   -0.08    0.17
   4   2   0    0.18    0.21
  -5  -2   0    8.52    0.48
  -5  -2   0    7.82    0.51
  -5  -2   0    7.51    0.57
   5   2   0    7.25    0.46
   5   2   0    7.44    0.54
   5   2   0    7.78    0.50
   5   2   0    8.25    0.38
  -6  -2   0   33.63    1.09
  -6  -2   0   34.49    0.99
   6   2   0   32.72    1.03
   6   2   0   32.86    0.98
   6   2   0   33.08    0.97
   6   2   0   33.12    0.82
  -7  -2   0    3.38    0.50
  -7  -2   0    4.50    0.61
   7   2   0    4.42    0.49
   7   2   0    3.79    0.48
   7   2   0    4.12    0.45
   7   2   0    4.43    0.49
  -8  -2   0   78.25    2.04
   8   2   0   77.26    1.84
   8   2   0   80.95    1.96
   8   2   0   78.68    1.96
   8   2   0   76.56    1.66
  -9  -2   0    1.42    0.55
   9   2   0    1.42    0.53
   9   2   0    0.91    0.55
   9   2   0    1.35    0.41
   9   2   0    2.25    0.55
   9   2   0    1.23    0.30
   9   2   0    1.24    0.52
 -10  -2   0   12.34    1.20
  10   2   0   13.05    1.11
  10   2   0   10.57    1.14
  10   2   0   12.33    0.76
  10   2   0   11.10    0.86
  10   2   0   10.39    1.21
  10   2   0   10.73    1.21
  10   2   0   11.96    0.71
  11   2   0    0.32    0.81
  11   2   0   -0.11    0.77
   8  -3   0   21.62    1.25
   8  -3   0   23.67    2.11
   8  -3   0   24.47    1.61
   8  -3   0   23.05    1.45
  -8   3   0   20.08    1.65
  -8   3   0   26.48    2.04
   7  -3   0   45.58    1.44
   7  -3   0   48.25    1.74
   7  -3   0   44.56    1.38
   7  -3   0   43.96    1.86
   7  -3   0   46.96    1.53
  -7   3   0   43.51    1.77
   6  -3   0   49.41    1.72
   6  -3   0   47.64    1.33
   6  -3   0   49.54    1.38
   6  -3   0   47.61    1.62
   6  -3   0   47.74    1.40
  -6   3   0   47.29    1.65
  -6   3   0   47.18    1.68
   5  -3   0    1.12    0.38
   5  -3   0    0.64    0.44
   5  -3   0    1.44    0.37
   5  -3   0    1.20    0.49
  -5   3   0    1.77    0.52
  -5   3   0    0.19    0.44
  -5   3   0    1.57    0.29
  -5   3   0    1.87    0.28
   4  -3   0   24.11    0.84
   4  -3   0   24.15    1.05
   4  -3   0   23.28    1.01
   4  -3   0   23.82    0.80
   4  -3   0   23.48    0.85
  -4   3   0   22.26    1.03
  -4   3   0   23.74    0.72
  -4   3   0   23.32    0.72
  -4   3   0   25.58    1.05
   3  -3   0   51.80    1.40
   3  -3   0   51.69    1.22
   3  -3   0   52.27    1.16
   3  -3   0   51.35    1.22
   3  -3   0   51.22    1.39
  -3   3   0   52.03    1.36
  -3   3   0   51.61    1.15
  -3   3   0   52.28    1.41
  -3   3   0   51.17    1.38
  -3   3   0   51.16    1.14
   2  -3   0   31.81    1.01
   2  -3   0   32.64    0.83
   2  -3   0   32.20    0.88
   2  -3   0   33.17    0.89
   2  -3   0   32.81    1.01
  -2   3   0   33.19    0.85
  -2   3   0   33.26    0.85
  -2   3   0   33.78    1.02
  -2   3   0   32.61    1.01
  -2   3   0   32.85    0.86
  -2   3   0   33.44    0.96
   1  -3   0   40.32    0.97
   1  -3   0   40.96    0.92
   1  -3   0   40.73    1.04
   1  -3   0   39.68    1.03
   1  -3   0   41.49    0.97
   1  -3   0   41.23    1.08
  -1   3   0   40.89    0.96
  -1   3   0   41.92    0.96
  -1   3   0   41.83    1.08
  -1   3   0   39.71    1.07
  -1   3   0   39.66    0.94
  -1   3   0   41.17    0.94
   0  -3   0   -0.04    0.18
   0  -3   0    0.01    0.19
   0  -3   0    0.02    0.17
   0  -3   0    0.15    0.17
   0  -3   0    0.18    0.21
   0  -3   0   -0.09    0.20
   0   3   0    0.05    0.19
   0   3   0    0.11    0.17
   0   3   0    0.37    0.18
   0   3   0   -0.22    0.17
   0   3   0    0.10    0.21
  -1  -3   0  103.53    1.87
  -1  -3   0  105.20    1.91
  -1  -3   0  105.24    1.92
  -1  -3   0  108.01    1.91
   1   3   0  106.93    1.92
   1   3   0  107.40    1.93
   1   3   0  103.92    1.88
   1   3   0  107.96    1.91
  -2  -3   0  109.62    1.92
  -2  -3   0  109.20    1.96
  -2  -3   0  108.55    1.89
  -2  -3   0  110.51    2.00
  -2  -3   0  109.77    1.89
   2   3   0  109.83    1.91
   2   3   0  110.79    1.91
   2   3   0  110.49    2.00
   2   3   0  109.08    1.95
   2   3   0  109.64    1.91
  -3  -3   0   33.06    0.69
  -3  -3   0   31.53    0.62
  -3  -3   0   32.78    0.87
  -3  -3   0   33.81    0.89
  -3  -3   0   32.38    0.83
   3   3   0   33.91    0.73
   3   3   0   32.65    0.83
   3   3   0   32.94    0.73
   3   3   0   33.00    0.73
   3   3   0   32.31    0.88
  -4  -3   0   43.77    1.08
  -4  -3   0   46.84    1.11
  -4  -3   0   44.14    0.88
  -4  -3   0   46.54    1.07
   4   3   0   44.96    0.90
   4   3   0   45.70    0.90
   4   3   0   44.69    0.90
   4   3   0   46.13    1.14
   4   3   0   45.77    1.08
   4   3   0   46.35    1.10
   4   3   0   46.19    0.90
  -5  -3   0    6.85    0.50
  -5  -3   0    7.44    0.41
  -5  -3   0    7.90    0.56
  -5  -3   0    7.35    0.53
   5   3   0    7.16    0.51
   5   3   0    7.65    0.34
   5   3   0    7.32    0.41
   5   3   0    7.39    0.53
   5   3   0    7.83    0.56
   5   3   0    7.43    0.32
  -6  -3   0   83.40    1.66
  -6  -3   0   85.21    1.85
  -6  -3   0   83.70    1.80
  -6  -3   0   82.97    1.77
   6   3   0   83.05    1.80
   6   3   0   82.73    1.51
   6   3   0   84.07    1.77
   6   3   0   81.70    1.66
   6   3   0   81.91    1.84
  -7  -3   0    6.29    0.62
  -7  -3   0    4.38    0.58
  -7  -3   0    5.81    0.72
   7   3   0    4.53    0.42
   7   3   0    5.97    0.59
   7   3   0    6.00    0.58
   7   3   0    6.43    0.62
   7   3   0    5.42    0.65
  -8  -3   0  205.98    3.91
   8   3   0  198.48    3.38
   8   3   0  199.67    3.68
   8   3   0  204.26    3.84
   8   3   0  195.14    4.27
   8   3   0  200.80    3.69
  -9  -3   0   44.45    1.61
   9   3   0   43.19    1.50
   9   3   0   44.65    1.42
   9   3   0   41.17    1.52
   9   3   0   42.14    1.12
   9   3   0   43.21    1.44
 -10  -3   0    2.29    0.64
  10   3   0    1.44    0.62
  10   3   0    2.10    0.66
  10   3   0    1.42    0.42
  10   3   0    2.27    0.62
  10   3   0    1.90    0.67
 -11  -3   0    3.05    0.75
  11   3   0    4.44    0.93
  11   3   0    3.18    0.81
  11   3   0    4.51    0.88
  11   3   0    4.27    0.86
  11   3   0    3.82    0.69
   7  -4   0    3.97    0.83
   7  -4   0    4.06    0.94
   7  -4   0    5.21    0.74
   7  -4   0    4.99    0.93
  -7   4   0    3.85    0.78
   6  -4   0    2.12    0.65
   6  -4   0    1.03    0.65
   6  -4   0    2.76    0.70
   6  -4   0    1.71    0.46
   6  -4   0    2.06    0.56
  -6   4   0    0.94    0.55
   5  -4   0   14.71    1.13
   5  -4   0   16.92    0.99
   5  -4   0   14.12    0.81
   5  -4   0   15.71    0.91
   5  -4   0   16.81    1.13
  -5   4   0   17.21    0.76
  -5   4   0   14.47    0.70
  -5   4   0   15.10    1.10
  -5   4   0   15.38    1.18
   4  -4   0    9.56    0.64
   4  -4   0   10.08    0.76
   4  -4   0    9.76    0.92
   4  -4   0   10.66    0.90
  -4   4   0    7.64    0.84
  -4   4   0    8.59    0.62
  -4   4   0    8.47    0.95
  -4   4   0    9.72    0.63
   3  -4   0  119.67    2.66
   3  -4   0  127.52    2.47
   3  -4   0  122.86    2.32
   3  -4   0  124.60    2.66
   3  -4   0  125.84    2.67
  -3   4   0  123.74    2.68
  -3   4   0  130.10    2.69
  -3   4   0  128.17    2.37
  -3   4   0  125.92    2.38
  -3   4   0  127.06    2.38
   2  -4   0    1.90    0.44
   2  -4   0    1.93    0.30
   2  -4   0    1.60    0.38
   2  -4   0    1.82    0.40
   2  -4   0    1.80    0.34
   2  -4   0    1.99    0.35
  -2   4   0    1.97    0.33
  -2   4   0    1.85    0.37
  -2   4   0    1.61    0.31
  -2   4   0    1.56    0.40
  -2   4   0    1.18    0.30
   1  -4   0    0.17    0.23
   1  -4   0   -0.06    0.23
   1  -4   0   -0.18    0.20
   1  -4   0    0.06    0.29
   1  -4   0   -0.29    0.25
   1  -4   0   -0.09    0.24
  -1   4   0    0.01    0.28
  -1   4   0    0.14    0.24
  -1   4   0    0.17    0.23
  -1   4   0    0.30    0.26
  -1   4   0   -0.10    0.28
  -1   4   0    0.41    0.23
   0  -4   0    2.32    0.36
   0  -4   0    2.36    0.30
   0  -4   0    2.40    0.32
   0  -4   0    2.46    0.29
   0  -4   0    2.12    0.30
   0  -4   0    1.95    0.35
   0   4   0    2.64    0.28
   0   4   0    2.69    0.32
   0   4   0    2.36    0.30
   0   4   0    2.68    0.39
   0   4   0    2.05    0.29
  -1  -4   0  267.58    4.36
  -1  -4   0  262.07    4.28
  -1  -4   0  265.82    4.40
  -1  -4   0  261.56    4.34
  -1  -4   0  265.36    4.36
  -1  -4   0  266.14    4.42
   1   4   0  262.68    4.36
   1   4   0  261.57    4.39
   1   4   0  264.57    4.35
   1   4   0  264.92    4.42
   1   4   0  262.65    4.35
  -2  -4   0  125.83    2.24
  -2  -4   0  126.06    2.25
  -2  -4   0  125.92    2.31
  -2  -4   0  126.16    2.29
  -2  -4   0  125.73    2.33
   2   4   0  127.38    2.30
   2   4   0  128.35    2.28
   2   4   0  126.71    2.34
   2   4   0  125.40    2.26
   2   4   0  127.74    2.32
  -3  -4   0  122.68    2.29
  -3  -4   0  119.02    2.11
  -3  -4   0  119.76    2.14
  -3  -4   0  118.08    1.96
  -3  -4   0  118.17    2.10
  -3  -4   0  121.51    2.23
   3   4   0  121.03    2.29
   3   4   0  120.34    2.14
   3   4   0  119.26    2.14
   3   4   0  121.75    2.14
   3   4   0  119.38    2.22
  -4  -4   0   27.92    0.58
  -4  -4   0   28.78    0.91
  -4  -4   0   28.78    0.69
  -4  -4   0   28.78    0.67
  -4  -4   0   28.99    0.87
   4   4   0   30.09    0.88
   4   4   0   28.79    0.75
   4   4   0   29.32    0.75
   4   4   0   30.09    0.94
   4   4   0   29.08    0.74
  -5  -4   0   41.45    1.10
  -5  -4   0   41.38    1.13
  -5  -4   0   42.65    1.18
  -5  -4   0   40.98    0.85
   5   4   0   43.70    1.19
   5   4   0   41.78    0.91
   5   4   0   41.85    1.11
   5   4   0   42.05    0.92
   5   4   0   41.86    0.93
   5   4   0   41.08    0.87
  -6  -4   0  282.74    4.81
  -6  -4   0  286.66    4.87
  -6  -4   0  273.70    4.54
  -6  -4   0  285.31    4.83
   6   4   0  285.40    4.49
   6   4   0  283.16    4.51
   6   4   0  282.70    4.82
   6   4   0  282.44    4.82
   6   4   0  275.59    4.55
   6   4   0  281.33    4.52
   6   4   0  285.06    4.92
  -7  -4   0   92.45    2.72
  -7  -4   0   96.91    2.18
  -7  -4   0   98.22    2.11
  -7  -4   0   98.94    1.91
   7   4   0   97.14    1.75
   7   4   0   96.97    1.74
   7   4   0   96.98    1.93
   7   4   0  102.54    2.14
   7   4   0   97.71    2.12
   7   4   0  100.28    2.22
  -8  -4   0  176.28    3.47
  -8  -4   0  175.43    3.35
  -8  -4   0  174.20    3.15
   8   4   0  173.52    2.89
   8   4   0  172.51    2.90
   8   4   0  162.38    3.74
   8   4   0  176.26    3.19
   8   4   0  173.67    3.45
   8   4   0  168.88    3.60
   8   4   0  173.41    2.91
  -9  -4   0   61.66    1.86
   9   4   0   56.02    1.67
   9   4   0   57.55    1.78
   9   4   0   59.26    1.25
   9   4   0   60.00    1.26
   9   4   0   62.05    1.79
   9   4   0   56.80    1.25
   9   4   0   58.79    1.58
 -10  -4   0    4.56    0.73
  10   4   0    4.38    0.76
  10   4   0    4.78    0.73
  10   4   0    4.08    0.70
 -11  -4   0   11.52    1.30
  11   4   0   10.44    1.08
  11   4   0   11.72    1.35
  11   4   0    9.51    1.00
  11   4   0    9.07    1.25
   6  -5   0    4.92    0.94
   6  -5   0    4.23    0.95
   6  -5   0    5.33    0.90
   6  -5   0    5.99    0.79
  -6   5   0    5.50    0.94
   5  -5   0   38.67    1.85
   5  -5   0   32.48    1.13
   5  -5   0   34.22    1.63
   5  -5   0   33.09    1.62
   5  -5   0   34.73    1.37
   5  -5   0   31.36    1.47
  -5   5   0   31.78    1.65
  -5   5   0   33.66    1.57
  -5   5   0   34.35    1.14
  -5   5   0   34.35    1.16
   4  -5   0    0.53    0.37
   4  -5   0    0.53    0.54
   4  -5   0    0.49    0.56
   4  -5   0   -0.17    0.43
   4  -5   0   -0.04    0.52
   4  -5   0   -0.58    0.55
  -4   5   0   -0.09    0.67
  -4   5   0    0.28    0.50
  -4   5   0    0.01    0.38
  -4   5   0    0.03    0.44
   3  -5   0   53.20    1.31
   3  -5   0   55.12    1.68
   3  -5   0   50.34    1.65
   3  -5   0   54.37    1.70
   3  -5   0   52.72    1.47
   3  -5   0   51.50    1.50
  -3   5   0   50.22    1.36
  -3   5   0   53.69    1.71
  -3   5   0   51.96    1.39
  -3   5   0   52.76    1.39
  -3   5   0   49.21    1.65
   2  -5   0    2.42    0.45
   2  -5   0    2.53    0.52
   2  -5   0    2.81    0.39
   2  -5   0    2.90    0.49
   2  -5   0    2.52    0.52
  -2   5   0    2.97    0.42
  -2   5   0    2.66    0.53
  -2   5   0    1.74    0.45
  -2   5   0    2.72    0.41
  -2   5   0    3.02    0.43
   1  -5   0  130.56    2.61
   1  -5   0  128.07    2.40
   1  -5   0  131.01    2.53
   1  -5   0  130.61    2.59
   1  -5   0  127.33    2.67
   1  -5   0  125.83    2.51
  -1   5   0  127.11    2.47
  -1   5   0  118.96    2.66
  -1   5   0  126.86    2.66
  -1   5   0  128.17    2.45
  -1   5   0  128.78    2.67
   0  -5   0   23.95    0.84
   0  -5   0   23.50    0.84
   0  -5   0   23.36    0.94
   0  -5   0   24.52    0.97
   0  -5   0   23.80    0.85
   0  -5   0   23.69    0.82
   0   5   0   23.00    0.95
   0   5   0   23.45    0.82
   0   5   0   25.23    0.85
   0   5   0   22.97    0.83
  -1  -5   0  182.14    3.20
  -1  -5   0  187.79    3.35
  -1  -5   0  185.53    3.28
  -1  -5   0  184.63    3.28
  -1  -5   0  185.36    3.28
  -1  -5   0  184.19    3.37
   1   5   0  184.14    3.28
   1   5   0  186.44    3.29
   1   5   0  186.94    3.38
   1   5   0  186.94    3.35
   1   5   0  184.19    3.28
  -2  -5   0  296.88    4.94
  -2  -5   0  293.00    4.72
  -2  -5   0  296.68    4.87
  -2  -5   0  288.86    4.93
  -2  -5   0  293.13    4.86
  -2  -5   0  293.98    4.93
   2   5   0  295.43    4.88
   2   5   0  292.04    4.93
   2   5   0  291.84    4.92
   2   5   0  293.34    4.89
   2   5   0  293.09    4.93
  -3  -5   0    1.90    0.29
  -3  -5   0    2.57    0.38
  -3  -5   0    1.97    0.33
  -3  -5   0    2.26    0.37
  -3  -5   0    1.88    0.29
   3   5   0    1.89    0.29
   3   5   0    1.79    0.33
   3   5   0    1.68    0.33
   3   5   0    2.02    0.31
   3   5   0    1.94    0.33
  -4  -5   0    0.50    0.22
  -4  -5   0    0.11    0.28
  -4  -5   0    0.32    0.14
  -4  -5   0    0.33    0.28
  -4  -5   0    0.36    0.22
  -4  -5   0    0.51    0.32
   4   5   0    0.34    0.28
   4   5   0    0.05    0.23
   4   5   0    0.72    0.25
   4   5   0    0.36    0.23
   4   5   0    0.65    0.30
  -5  -5   0    0.51    0.32
  -5  -5   0    0.99    0.33
  -5  -5   0    0.60    0.19
  -5  -5   0    0.87    0.21
   5   5   0    0.23    0.30
   5   5   0    0.97    0.25
   5   5   0    0.40    0.28
   5   5   0    0.86    0.25
   5   5   0    0.79    0.26
  -6  -5   0  205.59    3.76
  -6  -5   0  208.83    3.71
  -6  -5   0  198.97    3.29
   6   5   0  209.09    3.72
   6   5   0  206.67    3.84
   6   5   0  198.65    3.31
   6   5   0  204.23    3.47
   6   5   0  209.45    3.47
   6   5   0  205.36    3.40
  -7  -5   0  114.46    2.39
  -7  -5   0  113.31    2.42
  -7  -5   0  114.21    2.46
  -7  -5   0  111.24    2.02
   7   5   0  115.55    2.10
   7   5   0  114.11    2.09
   7   5   0  113.81    2.01
   7   5   0  108.17    2.75
   7   5   0  109.04    2.05
   7   5   0  115.11    2.39
  -8  -5   0   85.39    2.05
  -8  -5   0   88.37    2.10
  -8  -5   0   86.89    2.16
   8   5   0   86.42    2.17
   8   5   0   84.99    1.60
   8   5   0   86.39    1.68
   8   5   0   83.67    1.77
   8   5   0   86.42    1.69
  -9  -5   0   16.04    1.26
  -9  -5   0   17.12    1.15
   9   5   0   18.86    0.89
   9   5   0   19.04    1.16
   9   5   0   16.27    1.09
   9   5   0   17.58    0.70
   9   5   0   17.32    0.71
 -10  -5   0   11.62    1.12
 -10  -5   0   11.13    1.14
  10   5   0   10.56    1.20
  10   5   0    9.52    0.69
  10   5   0   11.21    1.14
  10   5   0   12.17    0.95
 -11  -5   0   17.95    1.40
  11   5   0   14.21    1.41
  11   5   0   17.79    1.25
  11   5   0   17.31    1.48
   5  -6   0   59.89    2.22
   5  -6   0   55.26    1.89
   5  -6   0   55.89    2.21
  -5   6   0   52.25    1.64
  -5   6   0   54.39    1.60
   4  -6   0    1.04    0.69
   4  -6   0    0.40    0.67
   4  -6   0    0.93    0.46
   4  -6   0    1.56    0.64
   4  -6   0    0.21    0.55
  -4   6   0    1.62    0.57
  -4   6   0    1.30    0.61
  -4   6   0    0.38    0.80
   3  -6   0    7.17    0.83
   3  -6   0    6.61    0.83
   3  -6   0    6.31    0.76
   3  -6   0    5.34    0.71
   3  -6   0    6.30    0.82
  -3   6   0    5.40    0.93
  -3   6   0    6.47    0.64
  -3   6   0    5.60    0.77
  -3   6   0    7.28    0.85
   2  -6   0    6.79    0.78
   2  -6   0    8.07    0.69
   2  -6   0    7.66    0.90
   2  -6   0    6.88    0.87
   2  -6   0    8.96    0.80
  -2   6   0    6.50    0.76
  -2   6   0    8.07    0.91
  -2   6   0    8.57    0.80
   1  -6   0   96.43    2.03
   1  -6   0   98.67    2.30
   1  -6   0   96.65    2.22
   1  -6   0   95.98    2.16
   1  -6   0   98.09    2.19
   1  -6   0   94.19    2.33
  -1   6   0   97.41    2.10
  -1   6   0   95.87    2.18
  -1   6   0   96.81    2.13
  -1   6   0   98.50    2.36
  -1   6   0   93.21    2.31
   0  -6   0  107.98    2.30
   0  -6   0  107.99    2.22
   0  -6   0  110.85    2.43
   0  -6   0  109.56    2.31
   0   6   0  110.60    2.29
   0   6   0  112.22    2.47
   0   6   0  108.09    2.25
   0   6   0  111.97    2.30
  -1  -6   0  101.07    2.26
  -1  -6   0  101.88    2.12
  -1  -6   0   99.64    2.13
  -1  -6   0  101.73    2.07
  -1  -6   0  100.55    2.13
  -1  -6   0  103.58    2.23
   1   6   0  101.28    2.25
   1   6   0  102.53    2.14
   1   6   0  102.32    2.14
   1   6   0  103.95    2.15
  -2  -6   0  158.03    3.02
  -2  -6   0  157.75    3.02
  -2  -6   0  156.93    2.98
  -2  -6   0  155.57    2.92
  -2  -6   0  154.26    2.92
  -2  -6   0  153.87    2.77
   2   6   0  156.80    3.00
   2   6   0  156.99    3.02
   2   6   0  158.42    2.95
   2   6   0  157.72    2.99
   2   6   0  156.66    2.95
  -3  -6   0    3.03    0.38
  -3  -6   0    2.97    0.37
  -3  -6   0    2.70    0.29
  -3  -6   0    3.32    0.43
  -3  -6   0    2.89    0.46
  -3  -6   0    2.22    0.47
   3   6   0    3.63    0.46
   3   6   0    2.89    0.61
   3   6   0    3.70    0.45
   3   6   0    3.14    0.39
   3   6   0    2.95    0.44
  -4  -6   0    0.07    0.28
  -4  -6   0    0.10    0.37
  -4  -6   0    0.46    0.28
  -4  -6   0    0.49    0.27
  -4  -6   0    0.60    0.36
  -4  -6   0    0.73    0.21
  -4  -6   0    0.61    0.33
   4   6   0    0.36    0.29
   4   6   0    0.32    0.28
   4   6   0   -0.11    0.28
   4   6   0    0.78    0.33
   4   6   0    0.61    0.32
  -5  -6   0   43.22    1.06
  -5  -6   0   43.54    1.35
   5   6   0   44.20    1.35
   5   6   0   45.93    1.18
   5   6   0   45.15    1.29
   5   6   0   43.61    1.13
   5   6   0   44.48    1.16
  -6  -6   0   71.92    1.39
  -6  -6   0   72.71    1.84
  -6  -6   0   72.01    1.42
  -6  -6   0   72.02    1.78
   6   6   0   70.68    1.58
   6   6   0   73.34    1.76
   6   6   0   69.79    1.51
   6   6   0   73.57    1.60
  -7  -6   0    2.40    0.50
  -7  -6   0    3.34    0.54
   7   6   0    3.71    0.52
   7   6   0    3.81    0.39
   7   6   0    3.48    0.41
   7   6   0    3.21    0.54
   7   6   0    3.72    0.43
  -8  -6   0    0.08    0.49
  -8  -6   0    0.57    0.77
   8   6   0    0.70    0.35
   8   6   0    0.61    0.29
   8   6   0   -0.19    0.45
   8   6   0   -0.06    0.26
   8   6   0   -0.70    0.29
   8   6   0   -0.58    0.41
  -9  -6   0    1.60    0.60
  -9  -6   0    1.82    0.62
   9   6   0    1.82    0.42
   9   6   0    1.44    0.39
   9   6   0    1.26    0.39
   9   6   0    1.75    0.57
   9   6   0    2.73    0.58
 -10  -6   0    0.24    0.58
 -10  -6   0    1.05    0.67
  10   6   0    0.77    0.42
  10   6   0    0.70    0.63
  10   6   0    1.28    0.62
  10   6   0    0.89    0.41
  10   6   0    0.31    0.45
 -11  -6   0    7.49    0.94
 -11  -6   0    6.07    0.89
  11   6   0    8.48    0.78
  11   6   0    5.95    0.72
  11   6   0    5.23    0.86
  11   6   0    4.83    0.89
   4  -7   0    1.56    0.73
   4  -7   0    2.01    1.02
   4  -7   0    0.85    0.80
  -4   7   0    0.41    0.67
  -4   7   0    0.23    0.64
   3  -7   0   -0.70    0.57
   3  -7   0   -0.34    0.69
   3  -7   0   -0.03    0.50
   3  -7   0    0.31    0.66
  -3   7   0    0.37    0.53
  -3   7   0    0.52    0.56
  -3   7   0   -0.44    0.55
   2  -7   0   10.38    1.09
   2  -7   0    9.22    0.88
   2  -7   0    8.51    0.93
   2  -7   0    8.45    0.94
   2  -7   0    9.20    1.06
  -2   7   0    9.73    0.98
  -2   7   0    9.49    0.92
  -2   7   0   10.02    0.95
  -2   7   0    9.64    1.05
   1  -7   0   47.34    1.70
   1  -7   0   44.77    1.48
   1  -7   0   44.41    1.51
   1  -7   0   39.59    1.53
   1  -7   0   45.37    1.55
  -1   7   0   44.26    1.46
  -1   7   0   43.91    1.43
  -1   7   0   44.89    1.44
   0  -7   0  175.96    3.44
   0  -7   0  177.40    3.45
   0  -7   0  169.94    3.36
   0  -7   0  172.26    3.62
   0   7   0  176.73    3.64
   0   7   0  178.16    3.42
   0   7   0  176.01    3.38
   0   7   0  169.90    3.62
   0   7   0  177.72    3.42
  -1  -7   0    8.92    0.80
  -1  -7   0    8.52    0.77
  -1  -7   0    8.85    0.79
  -1  -7   0    9.17    0.93
  -1  -7   0    9.13    0.95
  -1  -7   0   12.02    0.77
   1   7   0    8.01    0.97
   1   7   0    7.74    0.80
   1   7   0   11.06    0.78
   1   7   0    9.83    0.77
  -2  -7   0    6.15    0.71
  -2  -7   0    6.99    0.94
  -2  -7   0    6.59    0.82
  -2  -7   0    6.75    0.60
  -2  -7   0    7.42    0.67
  -2  -7   0    7.18    0.74
   2   7   0    7.91    0.77
   2   7   0    6.96    0.72
   2   7   0    7.61    0.67
   2   7   0    7.52    0.82
   2   7   0    5.21    0.60
  -3  -7   0   -0.23    0.35
  -3  -7   0   -0.54    0.39
  -3  -7   0    0.17    0.34
  -3  -7   0    0.29    0.39
  -3  -7   0   -0.05    0.34
  -3  -7   0    0.63    0.26
   3   7   0   -0.27    0.31
   3   7   0    0.61    0.38
   3   7   0    0.87    0.41
   3   7   0   -0.31    0.38
  -4  -7   0   13.82    0.59
  -4  -7   0   14.23    0.54
  -4  -7   0   15.79    0.86
  -4  -7   0   13.84    0.93
  -4  -7   0   14.67    0.93
  -4  -7   0   16.03    0.79
  -4  -7   0   14.25    0.75
   4   7   0   15.57    0.94
   4   7   0   14.44    0.87
   4   7   0   16.58    0.93
   4   7   0   14.41    0.83
  -5  -7   0   65.79    1.52
  -5  -7   0   66.62    1.86
  -5  -7   0   67.03    1.55
  -5  -7   0   66.13    1.76
   5   7   0   68.79    1.63
   5   7   0   66.63    1.78
   5   7   0   65.17    1.63
   5   7   0   70.15    1.66
   5   7   0   65.42    1.81
  -6  -7   0    6.42    0.80
  -6  -7   0    8.94    0.90
  -6  -7   0    6.43    0.54
  -6  -7   0    8.00    0.59
   6   7   0    6.53    0.87
   6   7   0    5.70    0.64
   6   7   0    6.76    0.71
   6   7   0    6.88    0.69
   6   7   0    6.14    0.83
  -7  -7   0    3.01    0.61
  -7  -7   0    4.28    0.48
  -7  -7   0    3.89    0.60
   7   7   0    3.98    0.51
   7   7   0    4.50    0.51
   7   7   0    3.66    0.46
   7   7   0    3.63    0.62
   7   7   0    3.57    0.56
  -8  -7   0    5.62    0.75
  -8  -7   0    5.08    0.70
   8   7   0    4.55    0.57
   8   7   0    5.21    0.53
   8   7   0    4.91    0.67
   8   7   0    3.86    0.62
   8   7   0    4.56    0.60
  -9  -7   0    0.08    0.60
  -9  -7   0    0.74    0.61
   9   7   0    1.00    0.59
   9   7   0    0.55    0.57
   9   7   0    0.64    0.41
   9   7   0    1.35    0.53
 -10  -7   0   48.20    1.81
  10   7   0   47.76    1.93
  10   7   0   44.86    1.88
  10   7   0   44.91    1.15
  10   7   0   50.99    1.84
  10   7   0   47.28    1.45
 -11  -7   0    2.17    0.86
  11   7   0    0.32    0.51
  11   7   0   -0.56    0.79
  11   7   0    1.06    0.79
   2  -8   0   22.40    1.69
   2  -8   0   23.00    1.52
   2  -8   0   21.54    1.26
   2  -8   0   21.00    1.35
  -2   8   0   25.64    1.41
  -2   8   0   21.46    1.66
  -2   8   0   24.38    1.31
   1  -8   0    1.15    0.56
   1  -8   0    1.14    0.62
   1  -8   0    1.44    0.71
   1  -8   0   -0.27    0.55
  -1   8   0    0.95    0.64
  -1   8   0    0.79    0.56
  -1   8   0   -0.18    0.54
   0  -8   0   57.41    1.78
   0  -8   0   58.39    1.78
   0  -8   0   58.95    2.02
   0  -8   0   57.41    1.71
   0   8   0   54.91    1.91
   0   8   0   56.46    1.73
   0   8   0   57.11    2.05
  -1  -8   0    2.78    0.59
  -1  -8   0    1.44    0.63
  -1  -8   0    2.61    0.54
  -1  -8   0    2.33    0.56
   1   8   0    1.96    0.61
   1   8   0    1.93    0.50
   1   8   0    1.68    0.72
  -2  -8   0    3.30    0.68
  -2  -8   0    2.45    0.46
  -2  -8   0    2.71    0.57
  -2  -8   0    3.49    0.58
  -2  -8   0    3.81    0.58
  -2  -8   0    3.25    0.64
   2   8   0    2.23    0.64
   2   8   0    3.26    0.55
   2   8   0    2.59    0.52
  -3  -8   0   52.19    1.53
  -3  -8   0   52.40    1.66
  -3  -8   0   48.83    1.50
  -3  -8   0   52.11    1.66
  -3  -8   0   50.26    1.31
  -3  -8   0   50.94    1.67
   3   8   0   51.69    1.64
   3   8   0   52.08    1.54
   3   8   0   51.48    1.67
   3   8   0   52.55    1.60
   3   8   0   51.29    1.62
  -4  -8   0    1.49    0.58
  -4  -8   0    1.41    0.31
  -4  -8   0    1.70    0.45
  -4  -8   0    0.76    0.54
  -4  -8   0    1.24    0.48
   4   8   0    0.28    0.50
   4   8   0    0.75    0.50
   4   8   0    1.12    0.51
   4   8   0    1.61    0.52
   4   8   0    0.79    0.44
  -5  -8   0   38.96    1.55
  -5  -8   0   38.36    1.45
  -5  -8   0   38.40    0.86
  -5  -8   0   37.89    1.22
  -5  -8   0   37.65    0.93
  -5  -8   0   40.30    1.28
  -5  -8   0   41.27    1.57
   5   8   0   39.65    1.37
   5   8   0   38.28    1.47
   5   8   0   40.65    1.33
   5   8   0   42.11    1.41
   5   8   0   37.39    1.42
  -6  -8   0    5.63    0.72
  -6  -8   0    4.78    0.71
  -6  -8   0    5.00    0.51
   6   8   0    4.43    0.57
   6   8   0    4.07    1.05
   6   8   0    4.26    0.69
   6   8   0    5.86    0.68
   6   8   0    4.58    0.63
  -7  -8   0   17.76    0.76
  -7  -8   0   17.87    0.84
  -7  -8   0   17.86    1.19
  -7  -8   0   17.92    1.23
   7   8   0   18.69    0.97
   7   8   0   17.51    1.15
   7   8   0   19.09    1.06
   7   8   0   17.66    1.21
   7   8   0   18.60    0.96
  -8  -8   0   19.72    1.30
  -8  -8   0   21.10    1.32
   8   8   0   20.32    1.01
   8   8   0   19.04    1.27
   8   8   0   19.46    1.32
   8   8   0   19.82    1.11
   8   8   0   18.87    0.92
  -9  -8   0   46.08    1.81
   9   8   0   45.00    1.24
   9   8   0   44.24    1.49
   9   8   0   44.99    1.74
   9   8   0   45.39    1.42
   9   8   0   46.65    1.89
 -10  -8   0   87.53    2.59
 -10  -8   0   88.77    2.58
  10   8   0   89.47    2.68
  10   8   0   92.91    2.21
  10   8   0   89.46    2.13
  10   8   0   88.28    2.51
 -11  -8   0    1.59    0.91
  11   8   0    2.34    0.85
   1  -9   0   14.97    1.39
   1  -9   0   11.54    1.15
  -1   9   0   10.47    1.31
  -1   9   0   13.19    1.31
  -1   9   0   11.37    1.40
   0  -9   0    1.26    0.66
   0  -9   0    0.81    0.70
   0  -9   0    0.18    0.66
   0  -9   0    0.98    0.78
   0   9   0    1.07    0.64
   0   9   0    0.90    0.66
   0   9   0   -0.42    0.64
  -1  -9   0   12.28    1.18
  -1  -9   0   11.43    1.26
  -1  -9   0   15.43    1.34
  -1  -9   0   13.93    1.14
   1   9   0   13.98    1.12
   1   9   0   11.05    1.17
   1   9   0   13.28    1.19
  -2  -9   0    2.80    0.68
  -2  -9   0    3.41    0.70
  -2  -9   0    2.10    0.56
  -2  -9   0    1.91    0.67
  -2  -9   0    2.14    0.68
  -2  -9   0    1.86    0.73
   2   9   0    2.17    0.77
   2   9   0    2.48    0.65
   2   9   0    1.31    0.59
  -3  -9   0   45.57    1.76
  -3  -9   0   49.77    1.79
  -3  -9   0   49.43    1.63
  -3  -9   0   48.60    1.40
   3   9   0   49.53    1.71
   3   9   0   46.17    1.83
   3   9   0   49.61    1.62
  -4  -9   0    6.78    0.81
  -4  -9   0    7.78    0.68
  -4  -9   0    6.09    0.87
  -4  -9   0    6.77    0.73
   4   9   0    6.34    0.77
   4   9   0    6.27    0.78
   4   9   0    5.89    0.83
   4   9   0    7.24    0.89
   4   9   0    6.85    0.81
  -5  -9   0   -0.21    0.33
  -5  -9   0   -0.23    0.53
  -5  -9   0    0.09    0.28
  -5  -9   0    0.26    0.48
  -5  -9   0   -1.54    0.59
  -5  -9   0   -0.74    0.53
   5   9   0    0.49    0.50
   5   9   0    0.81    0.58
   5   9   0   -0.59    0.52
   5   9   0   -0.28    0.60
   5   9   0    0.41    0.61
  -6  -9   0    9.27    1.18
  -6  -9   0   11.77    0.99
   6   9   0    8.57    1.10
   6   9   0    9.41    1.16
   6   9   0   10.06    0.96
   6   9   0   10.89    1.08
   6   9   0    9.55    1.11
  -7  -9   0   26.64    1.15
  -7  -9   0   28.44    1.49
  -7  -9   0   25.76    1.04
   7   9   0   26.85    1.24
   7   9   0   25.10    1.35
   7   9   0   25.33    1.48
   7   9   0   26.37    1.42
   7   9   0   28.40    1.26
  -8  -9   0   90.71    1.88
  -8  -9   0   92.23    1.94
  -8  -9   0   94.28    2.67
   8   9   0   91.62    2.18
   8   9   0   93.53    2.64
   8   9   0   95.21    2.31
   8   9   0   93.11    2.37
   8   9   0   96.66    2.55
  -9  -9   0    3.25    0.91
  -9  -9   0    2.95    0.87
   9   9   0    2.99    0.58
   9   9   0    2.16    0.75
   9   9   0    3.12    0.78
   9   9   0    2.08    0.76
   9   9   0    2.80    0.64
 -10  -9   0   32.39    1.90
  10   9   0   33.76    1.46
  10   9   0   32.66    1.63
  10   9   0   32.85    1.78
  -1 -10   0   45.96    2.01
  -1 -10   0   47.87    1.88
   1  10   0   43.09    1.98
   1  10   0   47.54    1.91
   1  10   0   41.37    1.88
  -2 -10   0    0.41    0.65
  -2 -10   0    0.65    0.81
  -2 -10   0    0.27    0.72
  -2 -10   0    0.45    0.84
   2  10   0   -1.18    0.69
   2  10   0   -0.41    0.68
  -3 -10   0   48.84    1.81
  -3 -10   0   46.26    1.96
  -3 -10   0   48.48    1.58
  -3 -10   0   52.94    2.02
   3  10   0   46.21    1.86
   3  10   0   48.21    1.78
  -4 -10   0    6.93    0.83
  -4 -10   0    5.00    0.94
  -4 -10   0    7.48    0.85
  -4 -10   0    7.70    0.95
   4  10   0    6.86    0.97
   4  10   0    8.99    1.08
   4  10   0    4.56    0.80
   4  10   0    6.89    0.89
  -5 -10   0    2.68    0.75
  -5 -10   0    3.96    0.72
  -5 -10   0    2.25    0.49
  -5 -10   0    1.82    0.75
  -5 -10   0    3.40    0.45
  -5 -10   0    3.11    0.86
   5  10   0    3.10    0.68
   5  10   0    2.86    0.75
   5  10   0    2.55    0.87
   5  10   0    3.98    0.79
  -6 -10   0   31.50    1.73
  -6 -10   0   33.92    1.41
   6  10   0   31.24    1.68
   6  10   0   33.89    1.67
   6  10   0   32.93    1.47
   6  10   0   33.60    1.64
  -7 -10   0   21.50    1.18
  -7 -10   0   21.31    1.55
   7  10   0   21.49    1.44
   7  10   0   21.02    1.56
   7  10   0   23.32    1.34
   7  10   0   23.01    1.55
  -8 -10   0  100.51    2.29
  -8 -10   0  100.97    2.94
  -8 -10   0   98.27    2.20
   8  10   0   99.12    2.46
   8  10   0  107.13    3.29
   8  10   0  102.24    2.79
   8  10   0  105.96    3.01
   8  10   0  102.42    2.59
  -9 -10   0    7.24    1.16
   9  10   0    5.28    0.97
   9  10   0    6.10    0.87
   9  10   0    7.20    1.15
   8  10  -1    2.13    0.97
   8  10  -1    2.56    0.75
   8  10  -1    2.83    0.88
   8  10  -1    4.67    0.82
  -8 -10   1    2.87    0.74
  -8 -10   1    3.76    0.94
  -8 -10   1    3.37    0.67
   7  10  -1   24.56    1.41
   7  10  -1   23.08    1.70
   7  10  -1   26.26    1.65
   7  10  -1   25.64    1.53
  -7 -10   1   22.59    1.28
  -7 -10   1   25.17    1.70
  -7 -10   1   27.53    1.76
   6  10  -1    0.34    0.71
   6  10  -1    0.73    0.80
   6  10  -1    0.05    0.64
   6  10  -1    0.17    0.70
  -6 -10   1    1.00    0.66
  -6 -10   1   -0.85    0.70
  -6 -10   1    2.49    0.91
   5  10  -1    0.87    0.68
   5  10  -1   -0.73    0.84
   5  10  -1   -0.61    0.65
   5  10  -1    1.73    0.72
  -5 -10   1    0.73    0.92
  -5 -10   1    1.34    0.86
  -5 -10   1    0.35    0.70
  -5 -10   1   -0.25    0.64
  -5 -10   1    0.17    0.46
   4  10  -1   28.41    1.74
   4  10  -1   28.67    1.47
   4  10  -1   31.79    1.63
   4  10  -1   30.03    1.66
  -4 -10   1   27.95    1.22
  -4 -10   1   29.95    1.69
  -4 -10   1   31.61    1.54
   3  10  -1    4.24    0.83
   3  10  -1    3.27    0.79
  -3 -10   1    4.21    0.84
  -3 -10   1    4.46    0.74
  -3 -10   1    6.17    1.00
   2  10  -1   61.06    2.57
   2  10  -1   60.66    2.10
  -2 -10   1   56.93    1.96
  -2 -10   1   62.42    2.31
  -2 -10   1   62.13    2.53
  10   9  -1   -1.56    0.80
 -10  -9   1    0.62    0.94
   9   9  -1   63.85    2.08
   9   9  -1   64.20    2.34
   9   9  -1   65.39    1.96
   9   9  -1   66.91    2.26
  -9  -9   1   68.55    2.32
   8   9  -1   59.22    2.16
   8   9  -1   56.63    1.88
   8   9  -1   57.21    1.80
   8   9  -1   57.73    2.05
   8   9  -1   51.40    1.77
  -8  -9   1   65.19    2.79
  -8  -9   1   57.37    2.10
  -8  -9   1   57.75    1.47
  -8  -9   1   55.27    1.58
   7   9  -1   21.12    1.15
   7   9  -1   19.99    1.40
   7   9  -1   20.34    1.34
   7   9  -1   22.49    1.24
   7   9  -1   20.00    1.39
  -7  -9   1   20.56    1.03
  -7  -9   1   22.48    1.49
  -7  -9   1   20.36    1.18
  -7  -9   1   19.25    1.51
   6   9  -1    3.53    0.73
   6   9  -1    1.50    0.69
   6   9  -1    1.34    0.59
   6   9  -1    1.95    0.64
   6   9  -1    2.00    0.66
  -6  -9   1    2.60    0.57
  -6  -9   1    2.62    0.79
  -6  -9   1    2.00    0.81
  -6  -9   1    2.21    0.37
   5   9  -1    6.73    0.81
   5   9  -1    6.84    0.85
   5   9  -1    8.99    1.12
   5   9  -1    7.81    0.95
   5   9  -1    6.28    0.79
  -5  -9   1    6.33    0.93
  -5  -9   1    5.42    0.81
  -5  -9   1    7.21    0.63
  -5  -9   1    6.98    0.79
  -5  -9   1    7.22    0.81
  -5  -9   1    6.61    0.73
   4   9  -1  109.08    2.69
   4   9  -1  110.78    2.72
   4   9  -1  111.44    2.74
   4   9  -1  108.29    2.62
   4   9  -1  107.45    2.66
  -4  -9   1  108.44    2.25
  -4  -9   1  112.47    2.58
  -4  -9   1  108.80    2.79
  -4  -9   1  110.05    2.68
   3   9  -1   28.62    1.31
   3   9  -1   31.06    1.42
   3   9  -1   26.19    1.45
   3   9  -1   28.86    1.61
  -3  -9   1   27.28    1.53
  -3  -9   1   31.10    1.20
  -3  -9   1   30.84    1.61
  -3  -9   1   29.89    1.41
  -3  -9   1   32.16    1.52
  -3  -9   1   29.44    1.38
   2   9  -1   39.14    1.58
   2   9  -1   39.35    1.83
   2   9  -1   39.09    1.55
  -2  -9   1   40.77    1.71
  -2  -9   1   43.35    1.51
  -2  -9   1   39.74    1.58
  -2  -9   1   39.65    1.75
   1   9  -1   23.99    1.33
   1   9  -1   22.89    1.34
  -1  -9   1   23.73    1.60
  -1  -9   1   24.15    1.40
  -1  -9   1   23.12    1.43
  -1  -9   1   23.20    1.36
   0   9  -1    9.78    0.98
   0   9  -1    9.69    1.28
   0   9  -1   11.99    1.25
   0  -9   1    9.92    1.34
   0  -9   1    9.49    1.07
   0  -9   1    8.44    1.11
   0  -9   1   12.62    1.32
  10   8  -1    5.31    0.93
  10   8  -1    4.38    0.88
  10   8  -1    6.13    0.86
  10   8  -1    6.21    0.74
 -10  -8   1    6.32    1.00
   9   8  -1   54.26    1.72
   9   8  -1   53.51    2.04
   9   8  -1   52.37    1.59
   9   8  -1   55.58    1.96
  -9  -8   1   52.47    1.94
  -9  -8   1   50.54    1.98
   8   8  -1   51.23    1.90
   8   8  -1   50.73    1.84
   8   8  -1   52.32    1.35
   8   8  -1   53.43    1.59
   8   8  -1   53.75    1.65
  -8  -8   1   53.97    1.90
   7   8  -1    0.29    0.43
   7   8  -1   -0.25    0.43
   7   8  -1   -0.29    0.53
   7   8  -1   -0.48    0.53
   7   8  -1    1.02    0.58
  -7  -8   1   -0.03    0.67
  -7  -8   1    0.01    0.58
  -7  -8   1    0.13    0.69
  -7  -8   1    0.34    0.36
   6   8  -1    2.80    0.61
   6   8  -1    2.22    0.52
   6   8  -1    2.25    0.60
   6   8  -1    2.07    0.61
  -6  -8   1    2.66    0.47
  -6  -8   1    2.15    0.32
  -6  -8   1    3.00    0.69
  -6  -8   1    3.61    0.69
   5   8  -1    1.13    0.56
   5   8  -1    1.08    0.52
   5   8  -1    0.62    0.53
   5   8  -1    0.74    0.46
   5   8  -1    0.50    0.51
  -5  -8   1    1.48    0.57
  -5  -8   1    0.72    0.37
  -5  -8   1    1.04    0.47
  -5  -8   1    1.57    0.53
  -5  -8   1    1.31    0.54
  -5  -8   1    1.10    0.58
  -5  -8   1    1.26    0.30
   4   8  -1  145.53    3.09
   4   8  -1  151.33    3.09
   4   8  -1  150.30    3.09
   4   8  -1  149.03    3.16
   4   8  -1  150.01    3.19
  -4  -8   1  149.09    2.72
  -4  -8   1  144.95    3.18
  -4  -8   1  146.95    2.99
  -4  -8   1  148.09    3.14
  -4  -8   1  146.99    3.01
   3   8  -1   64.43    1.91
   3   8  -1   61.30    1.79
   3   8  -1   60.69    1.76
   3   8  -1   61.96    1.85
  -3  -8   1   62.45    1.75
  -3  -8   1   62.39    1.92
  -3  -8   1   65.82    1.89
  -3  -8   1   64.10    1.85
  -3  -8   1   63.23    1.56
  -3  -8   1   63.67    1.76
   2   8  -1   16.88    1.00
   2   8  -1   16.12    0.99
   2   8  -1   15.80    1.25
  -2  -8   1   14.69    1.02
  -2  -8   1   15.41    1.09
  -2  -8   1   15.73    1.16
  -2  -8   1   16.32    0.94
   1   8  -1    5.05    0.82
   1   8  -1    5.35    0.67
   1   8  -1    3.42    1.04
  -1  -8   1    5.46    0.81
  -1  -8   1    6.01    0.73
  -1  -8   1    5.34    0.68
  -1  -8   1    5.22    0.67
   0   8  -1    9.00    1.07
   0   8  -1    8.16    0.95
   0   8  -1    8.60    1.08
   0   8  -1    9.69    1.00
   0   8  -1   10.40    1.00
   0  -8   1   11.09    1.28
   0  -8   1    9.21    1.02
   0  -8   1    8.55    0.85
   0  -8   1   11.59    1.05
  -1   8  -1   56.27    1.74
  -1   8  -1   55.71    1.80
  -1   8  -1   53.28    2.00
  -1   8  -1   57.96    1.88
   1  -8   1   55.98    1.88
   1  -8   1   63.88    2.20
   1  -8   1   60.28    2.00
   1  -8   1   57.75    1.72
  -2   8  -1    0.22    0.70
  -2   8  -1    0.16    0.66
  -2   8  -1   -0.42    0.63
   2  -8   1   -0.71    0.69
   2  -8   1    0.97    0.78
   2  -8   1   -0.44    0.70
   2  -8   1   -0.17    0.85
  11   7  -1   22.97    1.72
  11   7  -1   22.69    1.74
  11   7  -1   22.97    1.19
 -11  -7   1   21.97    1.54
  10   7  -1   39.49    1.33
  10   7  -1   38.43    1.39
  10   7  -1   42.32    1.80
  10   7  -1   38.49    1.81
  10   7  -1   37.37    1.13
 -10  -7   1   41.07    1.72
 -10  -7   1   36.81    1.84
   9   7  -1   41.43    1.72
   9   7  -1   39.39    1.30
   9   7  -1   43.55    1.38
   9   7  -1   41.40    1.67
  -9  -7   1   38.37    0.99
  -9  -7   1   39.71    1.61
   8   7  -1   63.00    1.99
   8   7  -1   59.11    1.31
   8   7  -1   60.65    1.61
   8   7  -1   61.96    1.88
   8   7  -1   62.30    1.60
  -8  -7   1   61.59    1.88
  -8  -7   1   62.10    1.91
   7   7  -1    1.43    0.46
   7   7  -1    1.12    0.37
   7   7  -1    0.89    0.39
   7   7  -1    0.42    0.50
   7   7  -1    1.14    0.52
  -7  -7   1    0.95    0.35
  -7  -7   1    0.19    0.49
  -7  -7   1    0.51    0.51
  -7  -7   1    1.18    0.30
   6   7  -1    4.36    0.55
   6   7  -1    5.06    0.63
   6   7  -1    4.61    0.62
   6   7  -1    3.01    0.55
   6   7  -1    4.71    0.53
  -6  -7   1    4.51    0.41
  -6  -7   1    4.91    0.68
  -6  -7   1    4.07    0.44
  -6  -7   1    4.14    0.62
  -6  -7   1    3.73    0.47
   5   7  -1   11.38    0.75
   5   7  -1   11.89    0.91
   5   7  -1   11.34    0.77
   5   7  -1   11.48    0.89
   5   7  -1   11.25    0.84
  -5  -7   1   11.41    0.72
  -5  -7   1   12.76    0.96
  -5  -7   1    9.33    0.74
  -5  -7   1   11.55    0.58
  -5  -7   1   11.32    0.75
  -5  -7   1   11.89    0.96
   4   7  -1   96.83    2.30
   4   7  -1  103.34    2.23
   4   7  -1  104.50    2.25
  -4  -7   1   99.09    1.96
  -4  -7   1  101.27    2.15
  -4  -7   1   99.09    2.32
  -4  -7   1   99.98    2.20
  -4  -7   1  100.22    2.15
   3   7  -1    7.20    0.73
   3   7  -1    6.58    0.79
   3   7  -1    6.60    0.69
   3   7  -1    4.69    0.55
   3   7  -1    6.80    0.78
  -3  -7   1    7.90    0.83
  -3  -7   1    7.42    0.88
  -3  -7   1    7.01    0.57
  -3  -7   1    6.42    0.75
  -3  -7   1    6.21    0.71
   2   7  -1    1.34    0.46
   2   7  -1    0.76    0.40
   2   7  -1    1.39    0.49
   2   7  -1    1.69    0.51
   2   7  -1    1.30    0.41
  -2  -7   1    1.82    0.44
  -2  -7   1    1.84    0.47
  -2  -7   1    1.11    0.52
  -2  -7   1    1.13    0.49
  -2  -7   1    0.86    0.44
  -2  -7   1    1.16    0.37
   1   7  -1    8.35    0.75
   1   7  -1    8.50    1.02
   1   7  -1    8.74    0.83
   1   7  -1    8.21    0.76
  -1  -7   1    9.01    0.82
  -1  -7   1    9.85    0.96
  -1  -7   1    9.01    0.78
  -1  -7   1    7.92    0.80
   0   7  -1   17.84    1.04
   0   7  -1   16.79    0.93
   0   7  -1   17.66    0.97
   0   7  -1   19.64    1.23
   0  -7   1   18.48    1.03
   0  -7   1   14.86    0.97
   0  -7   1   15.24    1.48
   0  -7   1   16.37    1.18
  -1   7  -1   82.12    2.02
  -1   7  -1   77.20    2.00
  -1   7  -1   77.88    2.24
  -1   7  -1   77.15    1.90
   1  -7   1   76.87    2.05
   1  -7   1   79.74    2.29
   1  -7   1   79.25    2.15
   1  -7   1   78.75    1.93
   1  -7   1   79.60    2.12
  -2   7  -1    0.32    0.75
  -2   7  -1    0.34    0.57
  -2   7  -1    0.30    0.49
   2  -7   1    0.12    0.52
   2  -7   1    0.31    0.62
   2  -7   1    0.44    0.61
   2  -7   1   -0.12    0.45
   2  -7   1   -0.02    0.68
   2  -7   1   -0.76    0.92
  -3   7  -1   21.90    1.39
  -3   7  -1   22.96    1.22
   3  -7   1   22.34    1.06
   3  -7   1   22.53    1.31
   3  -7   1   23.63    1.64
   3  -7   1   20.51    1.55
  11   6  -1    8.25    0.97
  11   6  -1    7.06    0.85
  11   6  -1    9.18    1.07
  11   6  -1    7.95    1.00
 -11  -6   1    7.43    0.96
 -11  -6   1   10.02    1.03
  10   6  -1   64.90    2.06
  10   6  -1   63.62    1.58
  10   6  -1   59.27    1.79
  10   6  -1   63.79    1.66
  10   6  -1   61.94    2.13
 -10  -6   1   65.32    2.12
 -10  -6   1   64.11    1.95
   9   6  -1   16.14    1.17
   9   6  -1   17.31    0.84
   9   6  -1   15.85    0.87
   9   6  -1   14.55    0.81
   9   6  -1   16.00    1.21
  -9  -6   1   16.32    1.27
  -9  -6   1   13.95    0.79
  -9  -6   1   17.01    1.09
   8   6  -1    1.74    0.52
   8   6  -1    2.29    0.54
   8   6  -1    2.55    0.36
   8   6  -1    2.71    0.43
   8   6  -1    2.65    0.44
  -8  -6   1    2.11    0.57
  -8  -6   1    2.17    0.35
   7   6  -1   13.56    0.94
   7   6  -1   14.21    0.75
   7   6  -1   13.32    0.58
   7   6  -1   13.12    0.73
   7   6  -1   14.15    1.01
  -7  -6   1   12.49    0.53
  -7  -6   1   13.15    0.90
  -7  -6   1   12.98    0.97
   6   6  -1   32.18    1.02
   6   6  -1   32.26    0.91
   6   6  -1   32.96    1.04
   6   6  -1   32.14    1.19
   6   6  -1   32.59    1.23
  -6  -6   1   32.74    0.91
  -6  -6   1   32.86    1.20
  -6  -6   1   30.99    0.86
  -6  -6   1   31.11    1.18
  -6  -6   1   31.59    0.77
   5   6  -1   35.98    1.03
   5   6  -1   35.35    1.23
   5   6  -1   36.19    1.26
   5   6  -1   37.18    1.22
   5   6  -1   37.26    1.09
  -5  -6   1   38.43    0.88
  -5  -6   1   38.55    1.25
  -5  -6   1   36.98    1.01
  -5  -6   1   38.20    1.29
   4   6  -1   12.31    0.79
   4   6  -1   12.96    0.75
   4   6  -1   13.00    0.70
   4   6  -1   12.70    0.68
   4   6  -1   11.74    0.77
  -4  -6   1   12.51    0.69
  -4  -6   1   13.13    0.66
  -4  -6   1   13.08    0.67
  -4  -6   1   13.58    0.82
  -4  -6   1   13.33    0.58
   3   6  -1   50.75    1.35
   3   6  -1   50.02    1.33
   3   6  -1   52.14    1.36
   3   6  -1   50.67    1.42
   3   6  -1   50.35    1.40
  -3  -6   1   50.97    1.36
  -3  -6   1   50.26    1.31
  -3  -6   1   52.29    1.32
  -3  -6   1   52.86    1.47
  -3  -6   1   52.15    1.43
   2   6  -1    6.61    0.59
   2   6  -1    6.82    0.63
   2   6  -1    6.71    0.68
   2   6  -1    6.82    0.62
  -2  -6   1    6.49    0.72
  -2  -6   1    7.31    0.63
  -2  -6   1    7.54    0.65
  -2  -6   1    7.46    0.63
  -2  -6   1    6.34    0.67
   1   6  -1   41.42    1.34
   1   6  -1   41.07    0.95
   1   6  -1   41.70    1.19
   1   6  -1   43.33    1.25
   1   6  -1   41.28    1.22
   1   6  -1   41.12    1.34
  -1  -6   1   40.35    1.19
  -1  -6   1   41.33    1.23
  -1  -6   1   40.86    1.34
  -1  -6   1   40.50    1.19
  -1  -6   1   42.31    1.33
  -1  -6   1   40.37    1.23
   0   6  -1   67.72    1.95
   0   6  -1   78.32    1.98
   0   6  -1   73.53    1.70
   0   6  -1   75.01    1.79
   0   6  -1   75.40    1.57
   0  -6   1   75.07    1.81
   0  -6   1   75.20    1.96
   0  -6   1   74.43    1.69
   0  -6   1   74.74    1.82
   0  -6   1   77.83    1.94
   0  -6   1   75.43    1.81
  -1   6  -1   12.76    0.97
  -1   6  -1   12.99    0.79
  -1   6  -1   12.70    1.04
  -1   6  -1   14.71    1.00
  -1   6  -1   16.03    0.90
   1  -6   1   13.92    0.89
   1  -6   1   14.83    1.07
   1  -6   1   14.04    0.74
   1  -6   1   14.02    1.04
   1  -6   1   13.91    0.95
   1  -6   1   13.22    0.92
  -2   6  -1    1.07    0.47
  -2   6  -1    1.13    0.44
  -2   6  -1    0.52    0.53
  -2   6  -1    1.00    0.42
   2  -6   1    1.48    0.51
   2  -6   1    0.89    0.51
   2  -6   1    0.18    0.56
   2  -6   1    0.86    0.53
   2  -6   1    1.43    0.53
   2  -6   1    0.78    0.36
  -3   6  -1    8.67    1.02
  -3   6  -1    8.09    0.80
  -3   6  -1   10.86    0.94
  -3   6  -1    8.66    0.82
   3  -6   1    9.10    1.04
   3  -6   1    7.75    0.90
   3  -6   1    7.98    0.91
   3  -6   1   10.16    0.73
   3  -6   1    9.22    1.19
   3  -6   1    8.03    0.88
  -4   6  -1   45.92    1.86
  -4   6  -1   49.76    1.55
   4  -6   1   47.04    1.66
   4  -6   1   45.70    1.73
   4  -6   1   47.58    1.92
   4  -6   1   48.72    2.00
   4  -6   1   45.64    1.28
  -5   6  -1   24.19    1.62
  -5   6  -1   23.76    1.21
   5  -6   1   21.28    1.77
   5  -6   1   23.02    1.43
   5  -6   1   26.85    2.72
  11   5  -1    2.03    0.82
  11   5  -1    1.80    0.66
  11   5  -1    1.82    0.79
 -11  -5   1    2.15    0.79
  10   5  -1   46.77    1.74
  10   5  -1   45.08    1.26
  10   5  -1   44.72    1.48
  10   5  -1   47.83    1.82
 -10  -5   1   44.36    1.75
 -10  -5   1   44.50    1.59
   9   5  -1    1.84    0.45
   9   5  -1    0.95    0.56
   9   5  -1    1.65    0.38
   9   5  -1    1.59    0.38
   9   5  -1    1.49    0.56
  -9  -5   1    0.92    0.44
  -9  -5   1    2.42    0.63
  -9  -5   1    0.68    0.56
  -9  -5   1    2.24    0.56
   8   5  -1    6.12    0.56
   8   5  -1    5.43    0.65
   8   5  -1    6.66    0.65
   8   5  -1    5.91    0.69
   8   5  -1    5.74    0.58
  -8  -5   1    5.57    0.61
  -8  -5   1    6.04    0.76
  -8  -5   1    7.86    0.95
  -8  -5   1    5.39    0.68
   7   5  -1   37.34    1.03
   7   5  -1   38.86    1.04
   7   5  -1   37.92    1.01
   7   5  -1   39.24    1.29
   7   5  -1   38.24    1.35
  -7  -5   1   36.54    1.33
  -7  -5   1   38.26    1.23
  -7  -5   1   37.48    0.96
  -7  -5   1   39.14    1.31
   6   5  -1   56.76    1.32
   6   5  -1   58.69    1.16
   6   5  -1   58.21    1.33
   6   5  -1   56.77    1.21
   6   5  -1   57.14    1.53
   6   5  -1   59.25    1.61
  -6  -5   1   58.00    1.52
  -6  -5   1   59.48    1.54
  -6  -5   1   57.62    1.11
  -6  -5   1   59.10    1.19
   5   5  -1   18.58    0.84
   5   5  -1   18.83    0.71
   5   5  -1   17.79    0.85
   5   5  -1   18.60    0.63
   5   5  -1   18.22    0.71
  -5  -5   1   18.65    0.86
  -5  -5   1   18.03    0.84
  -5  -5   1   18.15    0.56
  -5  -5   1   20.39    0.66
  -5  -5   1   18.56    0.61
   4   5  -1    0.23    0.29
   4   5  -1    0.08    0.23
   4   5  -1    0.11    0.26
   4   5  -1    0.32    0.27
   4   5  -1    0.17    0.24
  -4  -5   1    0.37    0.25
  -4  -5   1    0.19    0.20
  -4  -5   1    0.42    0.30
  -4  -5   1    0.43    0.25
  -4  -5   1    0.27    0.23
   3   5  -1  135.88    2.64
   3   5  -1  136.75    2.64
   3   5  -1  138.23    2.56
   3   5  -1  138.76    2.54
   3   5  -1  138.44    2.56
  -3  -5   1  136.34    2.64
  -3  -5   1  135.75    2.52
  -3  -5   1  138.28    2.64
  -3  -5   1  138.83    2.53
  -3  -5   1  139.28    2.55
   2   5  -1  125.45    2.40
   2   5  -1  127.40    2.41
   2   5  -1  126.61    2.47
   2   5  -1  124.53    2.42
   2   5  -1  127.03    2.43
  -2  -5   1  125.91    2.43
  -2  -5   1  123.00    2.45
  -2  -5   1  124.95    2.39
  -2  -5   1  125.41    2.38
  -2  -5   1  127.80    2.43
   1   5  -1   42.20    1.11
   1   5  -1   43.71    1.15
   1   5  -1   43.31    1.21
   1   5  -1   42.07    0.91
   1   5  -1   42.63    1.14
   1   5  -1   42.30    1.20
  -1  -5   1   42.07    1.22
  -1  -5   1   43.44    1.22
  -1  -5   1   42.57    1.14
  -1  -5   1   43.00    1.15
  -1  -5   1   41.83    1.11
   0   5  -1  326.81    5.39
   0   5  -1  335.74    5.19
   0   5  -1  321.22    5.30
   0   5  -1  310.16    5.73
   0   5  -1  283.44    5.84
   0  -5   1  323.14    5.41
   0  -5   1  322.08    5.53
   0  -5   1  327.95    5.43
   0  -5   1  327.70    5.42
   0  -5   1  334.09    5.50
   0  -5   1  320.58    5.28
  -1   5  -1    5.48    0.69
  -1   5  -1    5.83    0.55
  -1   5  -1    5.35    0.57
  -1   5  -1    5.36    0.55
  -1   5  -1    5.49    0.58
  -1   5  -1    5.08    0.60
   1  -5   1    4.78    0.65
   1  -5   1    4.97    0.57
   1  -5   1    5.86    0.60
   1  -5   1    4.90    0.50
   1  -5   1    5.17    0.69
   1  -5   1    4.96    0.52
  -2   5  -1   47.68    1.24
  -2   5  -1   46.83    1.29
  -2   5  -1   48.61    1.56
  -2   5  -1   49.43    1.29
  -2   5  -1   46.15    1.34
   2  -5   1   46.64    1.16
   2  -5   1   49.75    1.38
   2  -5   1   50.39    1.40
   2  -5   1   43.71    1.69
   2  -5   1   48.48    1.56
   2  -5   1   47.91    1.51
  -3   5  -1   15.68    1.16
  -3   5  -1   15.53    1.04
  -3   5  -1   17.18    0.97
  -3   5  -1   15.61    0.80
  -3   5  -1   16.25    0.79
  -3   5  -1   17.85    0.86
   3  -5   1   15.64    1.12
   3  -5   1   14.93    1.07
   3  -5   1   15.36    0.72
   3  -5   1   15.08    1.11
   3  -5   1   17.34    0.99
   3  -5   1   15.49    0.90
  -4   5  -1   63.11    1.54
  -4   5  -1   61.17    1.98
  -4   5  -1   64.17    1.59
   4  -5   1   60.72    1.41
   4  -5   1   62.46    1.96
   4  -5   1   61.05    1.72
   4  -5   1   61.93    1.80
   4  -5   1   62.14    1.99
   4  -5   1   60.86    1.98
  -5   5  -1  103.41    2.17
  -5   5  -1  101.55    2.11
  -5   5  -1   96.90    2.72
   5  -5   1  100.27    2.43
   5  -5   1  103.96    2.80
   5  -5   1  101.69    2.52
   5  -5   1  102.81    2.02
   5  -5   1  102.21    2.75
   6  -5   1    4.77    0.96
   6  -5   1    3.48    0.77
   6  -5   1    5.25    0.90
   6  -5   1    4.32    1.20
  11   4  -1    2.47    0.78
  11   4  -1    2.31    0.80
  11   4  -1    3.19    0.78
  11   4  -1    3.18    0.52
 -11  -4   1    2.96    0.81
  10   4  -1   -0.06    0.60
  10   4  -1   -0.26    0.53
  10   4  -1   -0.43    0.56
  10   4  -1   -0.30    0.38
  10   4  -1   -0.44    0.40
 -10  -4   1    0.55    0.56
   9   4  -1   29.62    0.90
   9   4  -1   29.80    1.36
   9   4  -1   27.83    1.33
   9   4  -1   28.49    1.16
   9   4  -1   28.19    0.90
  -9  -4   1   29.15    1.17
  -9  -4   1   27.15    1.39
  -9  -4   1   26.74    1.38
   8   4  -1   30.83    1.22
   8   4  -1   30.73    0.89
   8   4  -1   29.78    0.86
   8   4  -1   29.06    1.25
   8   4  -1   28.52    1.06
  -8  -4   1   29.76    1.04
  -8  -4   1   31.21    1.11
  -8  -4   1   30.11    1.27
  -8  -4   1   31.31    1.26
   7   4  -1   93.86    1.78
   7   4  -1   93.70    2.19
   7   4  -1   92.16    2.11
   7   4  -1   91.44    1.90
  -7  -4   1   94.21    2.13
  -7  -4   1   93.87    2.02
  -7  -4   1   95.93    2.21
  -7  -4   1   91.04    1.86
   6   4  -1    3.30    0.46
   6   4  -1    3.40    0.35
   6   4  -1    3.28    0.40
   6   4  -1    4.08    0.47
   6   4  -1    3.19    0.39
  -6  -4   1    4.43    0.53
  -6  -4   1    3.71    0.42
  -6  -4   1    3.68    0.46
  -6  -4   1    3.32    0.47
   5   4  -1   18.30    0.62
   5   4  -1   18.03    0.51
   5   4  -1   17.86    0.59
   5   4  -1   18.25    0.63
   5   4  -1   19.15    0.83
   5   4  -1   18.64    0.79
  -5  -4   1   18.55    0.57
  -5  -4   1   18.85    0.53
  -5  -4   1   18.72    0.50
  -5  -4   1   18.52    0.77
  -5  -4   1   17.87    0.74
   4   4  -1   17.03    0.61
   4   4  -1   17.55    0.55
   4   4  -1   18.48    0.76
   4   4  -1   17.80    0.61
   4   4  -1   16.85    0.72
  -4  -4   1   17.94    0.73
  -4  -4   1   17.24    0.55
  -4  -4   1   17.42    0.58
  -4  -4   1   17.39    0.74
  -4  -4   1   17.75    0.53
   3   4  -1   28.68    0.89
   3   4  -1   28.65    0.80
   3   4  -1   28.20    0.89
   3   4  -1   28.68    0.80
   3   4  -1   28.45    0.77
  -3  -4   1   29.30    0.71
  -3  -4   1   27.72    0.77
  -3  -4   1   28.55    0.77
  -3  -4   1   29.44    0.78
  -3  -4   1   27.91    0.88
   2   4  -1  365.11    5.78
   2   4  -1  357.35    5.77
   2   4  -1  352.19    5.82
   2   4  -1  355.58    5.83
   2   4  -1  357.49    5.78
  -2  -4   1  360.51    5.76
  -2  -4   1  354.38    5.77
  -2  -4   1  364.17    5.83
  -2  -4   1  359.68    5.76
   1   4  -1   14.49    0.66
   1   4  -1   15.31    0.62
   1   4  -1   14.27    0.59
   1   4  -1   14.40    0.60
   1   4  -1   14.86    0.68
   1   4  -1   14.98    0.46
  -1  -4   1   16.16    0.69
  -1  -4   1   14.62    0.61
  -1  -4   1   14.41    0.60
  -1  -4   1   14.75    0.66
  -1  -4   1   15.38    0.61
   0   4  -1  179.36    3.10
   0   4  -1  183.12    2.97
   0   4  -1  174.28    3.20
   0   4  -1  178.46    3.11
   0   4  -1  172.53    3.02
   0  -4   1  177.81    3.18
   0  -4   1  175.93    3.11
   0  -4   1  174.61    3.21
   0  -4   1  174.76    3.01
   0  -4   1  174.19    3.11
  -1   4  -1   15.42    0.64
  -1   4  -1   14.20    0.59
  -1   4  -1   14.74    0.63
  -1   4  -1   15.21    0.78
  -1   4  -1   14.80    0.65
  -1   4  -1   14.97    0.77
   1  -4   1   15.71    0.74
   1  -4   1   13.20    0.76
   1  -4   1   14.20    0.56
   1  -4   1   14.42    0.66
   1  -4   1   14.43    0.66
   1  -4   1   14.62    0.75
  -2   4  -1   92.04    1.85
  -2   4  -1   90.81    2.09
  -2   4  -1   92.63    1.86
  -2   4  -1   92.39    1.79
  -2   4  -1   89.62    2.08
   2  -4   1   89.92    2.05
   2  -4   1   93.46    2.12
   2  -4   1   92.96    1.94
   2  -4   1   93.66    2.04
   2  -4   1   91.47    1.74
   2  -4   1   90.22    1.92
  -3   4  -1   48.24    1.50
  -3   4  -1   50.30    1.54
  -3   4  -1   50.06    1.23
  -3   4  -1   49.01    1.21
  -3   4  -1   47.07    1.40
   3  -4   1   44.45    1.83
   3  -4   1   44.29    1.68
   3  -4   1   50.10    1.32
   3  -4   1   50.87    1.48
   3  -4   1   49.50    1.32
   3  -4   1   48.92    1.11
  -4   4  -1   95.60    2.37
  -4   4  -1   99.18    1.94
  -4   4  -1   89.50    2.25
  -4   4  -1   95.65    2.37
  -4   4  -1   95.28    1.93
   4  -4   1   97.04    2.39
   4  -4   1   94.52    1.84
   4  -4   1   96.09    2.11
   4  -4   1   95.60    2.37
   4  -4   1   97.05    2.33
   4  -4   1   97.13    2.12
  -5   4  -1   58.68    1.35
  -5   4  -1   58.88    1.91
  -5   4  -1   59.59    1.36
  -5   4  -1   60.84    2.55
   5  -4   1   60.21    1.91
   5  -4   1   57.52    1.33
   5  -4   1   58.81    1.62
   5  -4   1   62.09    1.70
   5  -4   1   60.22    1.95
  -6   4  -1    1.28    0.73
  -6   4  -1   -0.61    0.55
   6  -4   1    0.99    0.66
   6  -4   1   -0.42    0.51
   6  -4   1    1.11    0.65
   6  -4   1    0.35    0.38
   6  -4   1    0.27    0.66
  -7   4  -1    5.71    0.98
   7  -4   1    6.92    0.91
   7  -4   1    7.24    1.04
   7  -4   1    6.94    0.81
  11   3  -1    0.22    0.73
  11   3  -1   -0.29    0.74
  11   3  -1   -0.80    0.75
  11   3  -1    0.66    0.46
  11   3  -1   -0.06    0.76
 -11  -3   1   -0.65    0.67
  10   3  -1    5.03    0.80
  10   3  -1    4.35    0.70
  10   3  -1    3.14    0.46
  10   3  -1    3.52    0.67
  10   3  -1    3.62    0.47
  10   3  -1    2.90    0.72
 -10  -3   1    3.19    0.77
   9   3  -1  118.94    2.74
   9   3  -1  115.65    2.17
   9   3  -1  116.26    2.47
   9   3  -1  113.82    2.89
   9   3  -1  120.80    2.74
   9   3  -1  114.47    2.17
  -9  -3   1  117.82    2.83
  -9  -3   1  117.17    2.58
   8   3  -1    0.70    0.28
   8   3  -1    0.27    0.41
   8   3  -1    0.67    0.50
   8   3  -1    0.67    0.43
   8   3  -1    0.62    0.41
   8   3  -1    0.59    0.28
  -8  -3   1   -0.23    0.39
  -8  -3   1    1.14    0.49
   7   3  -1  103.35    2.13
   7   3  -1  106.78    1.92
   7   3  -1  107.16    2.29
   7   3  -1  104.95    1.90
   7   3  -1  104.56    2.16
  -7  -3   1  108.92    2.17
  -7  -3   1  103.72    2.13
  -7  -3   1  105.61    2.35
   6   3  -1    0.92    0.23
   6   3  -1    0.57    0.21
   6   3  -1    0.78    0.31
   6   3  -1    0.58    0.30
   6   3  -1    0.88    0.28
  -6  -3   1    1.12    0.31
  -6  -3   1    0.99    0.27
  -6  -3   1    0.84    0.34
  -6  -3   1    1.53    0.36
   5   3  -1   21.31    0.60
   5   3  -1   20.63    0.58
   5   3  -1   19.52    0.77
   5   3  -1   21.18    0.68
   5   3  -1   21.04    0.82
  -5  -3   1   20.10    0.79
  -5  -3   1   21.29    0.83
  -5  -3   1   20.04    0.64
  -5  -3   1   19.44    0.70
   4   3  -1  140.94    2.26
   4   3  -1  141.83    2.63
   4   3  -1  141.04    2.39
   4   3  -1  143.60    2.58
   4   3  -1  138.59    2.39
   4   3  -1  141.76    2.40
  -4  -3   1  138.28    2.37
  -4  -3   1  141.22    2.31
  -4  -3   1  139.94    2.52
  -4  -3   1  145.12    2.62
  -4  -3   1  138.47    2.55
  -4  -3   1  142.51    2.30
   3   3  -1   67.15    1.39
   3   3  -1   67.84    1.29
   3   3  -1   67.01    1.21
   3   3  -1   67.91    1.44
   3   3  -1   67.03    1.30
  -3  -3   1   66.54    1.25
  -3  -3   1   65.65    1.22
  -3  -3   1   66.91    1.26
  -3  -3   1   65.14    1.38
  -3  -3   1   65.75    1.23
   2   3  -1  545.26    8.56
   2   3  -1  547.89    8.46
   2   3  -1  552.70    8.58
   2   3  -1  540.60    8.49
   2   3  -1  550.02    8.50
  -2  -3   1  554.47    8.46
  -2  -3   1  542.11    8.55
  -2  -3   1  547.45    8.48
  -2  -3   1  551.01    8.48
   1   3  -1    0.42    0.19
   1   3  -1    0.34    0.19
   1   3  -1    0.58    0.15
   1   3  -1    0.29    0.22
   1   3  -1    0.67    0.22
   1   3  -1    0.38    0.20
  -1  -3   1    0.53    0.23
  -1  -3   1    0.29    0.19
  -1  -3   1    0.46    0.20
  -1  -3   1    0.10    0.20
  -1  -3   1    0.19    0.19
   0   3  -1    2.59    0.32
   0   3  -1    2.52    0.31
   0   3  -1    2.89    0.34
   0   3  -1    3.16    0.36
   0   3  -1    2.68    0.32
   0   3  -1    2.94    0.32
   0  -3   1    2.13    0.30
   0  -3   1    3.12    0.33
   0  -3   1    3.18    0.36
   0  -3   1    2.74    0.34
   0  -3   1    4.23    0.46
   1  -3   1    0.84    0.27
  -2   3  -1   71.37    1.64
  -2   3  -1   71.13    1.44
  -2   3  -1   70.05    1.43
  -2   3  -1   74.43    1.58
  -2   3  -1   70.52    1.37
  -2   3  -1   70.96    1.64
   2  -3   1   69.41    1.33
   2  -3   1   72.61    1.59
   2  -3   1   69.52    1.62
   2  -3   1   70.67    1.65
   2  -3   1   69.63    1.48
   2  -3   1   68.97    1.48
  -3   3  -1   55.46    1.45
  -3   3  -1   57.45    1.22
  -3   3  -1   55.14    1.48
  -3   3  -1   55.73    1.21
   3  -3   1   55.72    1.49
   3  -3   1   55.32    1.14
   3  -3   1   55.89    1.50
   3  -3   1   54.47    1.30
   3  -3   1   57.13    1.31
  -4   3  -1   50.08    1.13
  -4   3  -1   54.39    1.52
  -4   3  -1   51.36    1.13
  -4   3  -1   51.06    1.49
  -4   3  -1   49.83    1.49
   4  -3   1   44.55    1.69
   4  -3   1   52.69    1.30
   4  -3   1   49.27    1.50
   4  -3   1   50.81    1.28
   4  -3   1   49.07    1.11
  -5   3  -1    5.15    0.46
  -5   3  -1    5.30    0.44
  -5   3  -1    5.15    0.69
  -5   3  -1    3.99    0.61
  -5   3  -1    4.94    0.67
   5  -3   1    4.92    0.54
   5  -3   1    4.97    0.64
   5  -3   1    5.26    0.61
   5  -3   1    6.07    0.73
   5  -3   1    5.44    0.54
  -6   3  -1    0.75    0.53
  -6   3  -1   -0.28    0.55
   6  -3   1   -0.03    0.55
   6  -3   1    0.01    0.32
   6  -3   1   -0.01    0.40
   6  -3   1    0.12    0.46
   6  -3   1    0.02    0.52
  -7   3  -1   19.78    1.36
   7  -3   1   22.54    1.47
   7  -3   1   24.03    1.45
   7  -3   1   23.82    1.26
   7  -3   1   20.86    0.91
   7  -3   1   21.19    1.09
  -8   3  -1    4.47    1.12
   8  -3   1    5.58    0.76
   8  -3   1    5.83    0.97
   8  -3   1    5.18    0.87
  10   2  -1   14.60    1.05
  10   2  -1   14.76    0.85
  10   2  -1   14.30    1.33
  10   2  -1   15.50    1.28
  10   2  -1   13.67    0.84
  10   2  -1   15.25    0.81
  10   2  -1   16.31    1.29
 -10  -2   1   13.43    1.28
   9   2  -1  132.24    2.99
   9   2  -1  133.41    2.47
   9   2  -1  131.59    2.70
   9   2  -1  135.69    2.47
   9   2  -1  139.03    2.99
   9   2  -1  135.92    2.49
  -9  -2   1  136.10    3.11
  -9  -2   1  136.64    2.97
   8   2  -1   18.80    1.03
   8   2  -1   18.38    0.69
   8   2  -1   17.43    0.68
   8   2  -1   19.49    1.04
   8   2  -1   18.56    0.87
   8   2  -1   18.50    0.66
  -8  -2   1   17.28    1.02
  -8  -2   1   19.71    1.11
   7   2  -1   46.85    1.31
   7   2  -1   44.07    0.98
   7   2  -1   45.11    1.17
   7   2  -1   43.14    0.98
   7   2  -1   44.01    1.34
   7   2  -1   42.51    0.97
  -7  -2   1   44.64    1.41
  -7  -2   1   43.61    1.27
   6   2  -1    0.15    0.17
   6   2  -1    0.27    0.18
   6   2  -1    0.02    0.18
   6   2  -1    0.45    0.30
   6   2  -1    0.24    0.26
   6   2  -1    0.48    0.27
  -6  -2   1    0.37    0.33
  -6  -2   1    0.15    0.24
  -6  -2   1    0.10    0.25
   5   2  -1  206.87    3.44
   5   2  -1  205.79    3.29
   5   2  -1  201.90    3.27
   5   2  -1  201.00    3.48
   5   2  -1  205.28    3.58
  -5  -2   1  204.33    3.44
  -5  -2   1  208.17    3.67
  -5  -2   1  206.32    3.58
  -5  -2   1  201.64    3.47
   4   2  -1  217.66    3.56
   4   2  -1  224.76    3.78
   4   2  -1  227.61    3.68
   4   2  -1  221.90    3.68
   4   2  -1  227.16    3.57
  -4  -2   1  230.60    3.81
  -4  -2   1  230.56    3.79
  -4  -2   1  220.83    3.66
  -4  -2   1  219.26    3.67
   3   2  -1   88.57    1.57
   3   2  -1   88.33    1.67
   3   2  -1   88.14    1.54
   3   2  -1   87.86    1.52
  -3  -2   1   84.99    1.54
  -3  -2   1   89.24    1.48
  -3  -2   1   89.24    1.62
  -3  -2   1   87.54    1.66
  -3  -2   1   87.76    1.49
  -3  -2   1   93.66    1.71
   2   2  -1  279.12    4.53
   2   2  -1  284.26    4.39
   2   2  -1  285.71    4.47
   2   2  -1  288.26    4.56
   2   2  -1  282.78    4.43
   2   2  -1  288.25    4.46
  -2  -2   1  288.64    4.54
  -2  -2   1  280.05    4.43
  -2  -2   1  280.27    4.39
  -2  -2   1  285.96    4.44
   1   2  -1   66.19    1.23
   1   2  -1   65.73    1.21
   1   2  -1   64.38    1.21
   1   2  -1   65.70    1.22
  -1  -2   1   64.28    1.20
  -1  -2   1   65.63    1.21
  -1  -2   1   64.36    1.20
  -1  -2   1   66.74    1.23
  -1  -2   1   64.82    1.24
   0   2  -1   12.86    0.45
   0   2  -1   12.89    0.50
   0   2  -1   13.05    0.44
   0   2  -1   13.63    0.42
   0   2  -1   12.76    0.49
   0   2  -1   13.39    0.41
   0  -2   1   13.60    0.41
   0  -2   1   14.35    0.51
   0  -2   1   13.26    0.45
   0  -2   1   12.58    0.45
  -1   2  -1   42.49    0.94
  -1   2  -1   40.83    1.00
  -1   2  -1   41.41    0.89
  -1   2  -1   42.15    0.89
  -1   2  -1   41.92    0.82
   1  -2   1   41.81    0.90
   1  -2   1   42.25    0.97
   1  -2   1   39.85    0.90
   1  -2   1   41.57    0.80
   1  -2   1   40.57    1.00
  -2   2  -1   20.99    0.55
  -2   2  -1   20.75    0.72
  -2   2  -1   20.47    0.59
  -2   2  -1   22.16    0.75
  -2   2  -1   20.87    0.74
  -2   2  -1   20.30    0.58
   2  -2   1   19.99    0.61
   2  -2   1   19.30    0.73
   2  -2   1   20.04    0.51
   2  -2   1   20.08    0.61
   2  -2   1   20.50    0.75
  -3   2  -1   63.58    1.67
  -3   2  -1   64.45    1.50
  -3   2  -1   64.97    1.51
  -3   2  -1   65.23    1.23
  -3   2  -1   63.84    1.23
   3  -2   1   63.03    1.21
   3  -2   1   63.52    1.31
   3  -2   1   62.70    1.31
   3  -2   1   64.45    1.51
   3  -2   1   63.28    1.52
  -4   2  -1   13.90    0.80
  -4   2  -1   14.91    0.78
  -4   2  -1   13.52    0.46
  -4   2  -1   14.15    0.47
  -4   2  -1   13.08    0.76
   4  -2   1   13.53    0.78
   4  -2   1   13.51    0.58
   4  -2   1   12.62    0.75
   4  -2   1   14.13    0.59
   4  -2   1   14.49    0.54
  -5   2  -1   17.67    0.95
  -5   2  -1   18.76    0.99
  -5   2  -1   18.66    1.01
   5  -2   1   17.57    0.97
   5  -2   1   18.44    0.73
   5  -2   1   18.46    0.69
   5  -2   1   19.73    0.75
   5  -2   1   18.87    0.95
  -6   2  -1   58.82    1.86
  -6   2  -1   60.90    1.81
  -6   2  -1   62.91    1.80
   6  -2   1   62.88    1.77
   6  -2   1   61.90    1.41
   6  -2   1   62.93    1.48
   6  -2   1   63.00    1.48
   6  -2   1   61.23    1.85
  -7   2  -1    8.91    1.12
  -7   2  -1    8.68    0.98
   7  -2   1    9.56    1.05
   7  -2   1    8.67    0.73
   7  -2   1    9.33    1.09
   7  -2   1    8.32    0.80
   7  -2   1    7.85    0.78
  -8   2  -1   16.65    1.30
   8  -2   1   15.26    1.43
   8  -2   1   14.40    0.93
   8  -2   1   16.76    1.32
   8  -2   1   13.08    1.40
   8  -2   1   15.46    1.07
   8  -2   1   16.00    0.99
  10   1  -1    3.35    0.56
  10   1  -1    3.23    0.80
  10   1  -1    3.34    0.58
  10   1  -1    3.26    0.84
  10   1  -1    3.71    0.52
  10   1  -1    5.07    0.74
 -10  -1   1    2.16    0.70
   9   1  -1   65.36    1.61
   9   1  -1   69.50    1.73
   9   1  -1   66.04    1.50
   9   1  -1   69.31    2.05
   9   1  -1   66.32    1.53
   9   1  -1   67.77    2.04
  -9  -1   1   66.88    2.08
   8   1  -1   13.43    1.00
   8   1  -1   13.73    0.80
   8   1  -1   16.22    1.04
   8   1  -1   14.28    0.74
   8   1  -1   14.00    0.64
   8   1  -1   14.17    0.68
  -8  -1   1   12.55    1.03
  -8  -1   1   12.58    1.01
   7   1  -1   16.42    0.91
   7   1  -1   17.23    0.93
   7   1  -1   16.56    0.61
   7   1  -1   15.75    0.72
   7   1  -1   16.85    0.59
   7   1  -1   14.85    0.66
  -7  -1   1   15.82    0.69
  -7  -1   1   16.62    0.91
  -7  -1   1   17.30    0.96
   6   1  -1    2.96    0.38
   6   1  -1    3.81    0.38
   6   1  -1    2.88    0.42
   6   1  -1    3.48    0.33
   6   1  -1    3.03    0.42
   6   1  -1    3.48    0.36
  -6  -1   1    3.29    0.33
  -6  -1   1    3.41    0.47
  -6  -1   1    3.46    0.44
   5   1  -1    7.11    0.36
   5   1  -1    6.20    0.54
   5   1  -1    6.84    0.55
   5   1  -1    6.82    0.37
   5   1  -1    6.42    0.33
   5   1  -1    6.98    0.43
  -5  -1   1    6.86    0.59
  -5  -1   1    6.66    0.53
  -5  -1   1    6.78    0.37
   4   1  -1  121.98    1.99
   4   1  -1  119.45    1.99
   4   1  -1  123.65    2.21
   4   1  -1  123.33    2.00
   4   1  -1  122.52    2.09
   4   1  -1  120.37    2.24
  -4  -1   1  118.70    2.09
  -4  -1   1  118.01    2.00
  -4  -1   1  123.09    2.28
  -4  -1   1  121.56    2.20
   3   1  -1  116.98    2.12
   3   1  -1  119.95    1.94
   3   1  -1  116.28    2.07
   3   1  -1  119.62    1.94
   3   1  -1  117.56    1.99
  -3  -1   1  121.55    2.13
  -3  -1   1  126.44    2.17
  -3  -1   1  119.96    2.07
  -3  -1   1  119.55    2.00
   2   1  -1   12.05    0.35
   2   1  -1   12.78    0.41
   2   1  -1   11.73    0.34
  -2  -1   1   13.08    0.46
  -2  -1   1   12.66    0.34
  -2  -1   1   12.62    0.44
  -2  -1   1   11.80    0.39
  -2  -1   1   11.84    0.37
  -2  -1   1   11.93    0.32
   1   1  -1   32.69    0.65
   1   1  -1   34.20    0.69
   1   1  -1   33.81    0.60
   1   1  -1   32.38    0.65
   1   1  -1   34.17    0.67
  -1  -1   1   32.37    0.65
  -1  -1   1   32.95    0.60
  -1  -1   1   35.27    0.69
  -1  -1   1   34.49    0.67
   0   1  -1   78.82    1.34
   0   1  -1   77.67    1.33
   0   1  -1   82.30    1.37
   0   1  -1   79.20    1.29
   0   1  -1   78.08    1.36
   0  -1   1   77.52    1.34
   0  -1   1   77.41    1.29
   0  -1   1   78.19    1.37
   0  -1   1   82.74    1.37
  -1   1  -1  420.50    6.36
  -1   1  -1  427.66    6.36
  -1   1  -1  412.21    6.19
  -1   1  -1  403.61    6.27
  -1   1  -1  398.44    6.27
  -1   1  -1  409.97    6.38
   1  -1   1  409.29    6.29
   1  -1   1  411.58    6.19
   1  -1   1  403.76    6.38
   1  -1   1  397.72    6.28
  -2   1  -1   71.38    1.44
  -2   1  -1   75.77    1.43
  -2   1  -1   71.59    1.26
  -2   1  -1   75.66    1.46
  -2   1  -1   72.95    1.25
   2  -1   1   71.43    1.23
   2  -1   1   70.02    1.29
   2  -1   1   74.41    1.29
   2  -1   1   71.42    1.44
   2  -1   1   71.85    1.45
  -3   1  -1    3.18    0.35
  -3   1  -1    2.84    0.22
  -3   1  -1    3.12    0.39
  -3   1  -1    3.44    0.42
   3  -1   1    2.80    0.29
   3  -1   1    3.01    0.36
   3  -1   1    2.75    0.32
   3  -1   1    3.01    0.36
   3  -1   1    2.81    0.28
  -4   1  -1   91.73    1.98
  -4   1  -1   89.86    1.88
  -4   1  -1   92.72    1.93
   4  -1   1   90.56    1.65
   4  -1   1   91.66    1.65
   4  -1   1   89.67    1.89
   4  -1   1   91.69    1.95
   4  -1   1   88.26    1.67
  -5   1  -1   31.53    1.08
  -5   1  -1   31.53    1.05
  -5   1  -1   29.71    1.15
   5  -1   1   29.64    0.80
   5  -1   1   30.51    0.87
   5  -1   1   31.86    1.11
   5  -1   1   31.47    0.81
   5  -1   1   31.11    1.06
  -6   1  -1  215.72    4.11
  -6   1  -1  223.89    4.04
  -6   1  -1  217.88    4.25
   6  -1   1  218.40    4.03
   6  -1   1  224.61    4.18
   6  -1   1  215.74    3.77
   6  -1   1  220.31    3.70
   6  -1   1  221.95    3.70
  -7   1  -1   16.51    1.09
  -7   1  -1   16.92    1.11
   7  -1   1   17.00    0.87
   7  -1   1   16.72    1.10
   7  -1   1   14.86    1.01
   7  -1   1   15.96    0.76
   7  -1   1   15.65    1.18
   7  -1   1   17.08    0.74
  -8   1  -1   26.13    1.40
  -8   1  -1   27.12    1.37
   8  -1   1   24.40    1.29
   8  -1   1   26.24    1.46
   8  -1   1   26.71    0.98
   8  -1   1   24.61    1.00
   8  -1   1   28.03    1.41
   8  -1   1   26.08    1.12
  -9   1  -1    3.05    0.76
   9  -1   1    2.47    0.58
   9  -1   1    2.87    0.55
   9  -1   1    3.44    0.77
   9  -1   1    1.52    0.76
   9  -1   1    1.68    0.78
   9  -1   1    2.71    0.92
  10   0  -1   24.24    1.72
  10   0  -1   21.80    1.68
  10   0  -1   22.23    1.10
  10   0  -1   25.05    1.74
  10   0  -1   22.55    1.30
 -10   0   1   22.84    1.48
   9   0  -1   19.83    1.06
   9   0  -1   19.95    1.43
   9   0  -1   19.16    1.37
   9   0  -1   19.15    0.90
   9   0  -1   18.72    1.10
   9   0  -1   20.84    0.96
   9   0  -1   18.38    1.37
  -9   0   1   18.86    1.31
  -9   0   1   19.22    1.21
   8   0  -1   25.19    0.86
   8   0  -1   26.66    0.93
   8   0  -1   24.97    1.30
   8   0  -1   25.61    1.04
   8   0  -1   24.25    1.27
   8   0  -1   22.21    0.99
  -8   0   1   24.97    1.09
  -8   0   1   25.26    1.31
   7   0  -1    3.15    0.35
   7   0  -1    3.51    0.44
   7   0  -1    2.57    0.52
   7   0  -1    3.16    0.37
   7   0  -1    2.87    0.44
   7   0  -1    3.58    0.53
  -7   0   1    3.45    0.46
  -7   0   1    3.62    0.57
  -7   0   1    3.56    0.59
   6   0  -1   35.76    1.00
   6   0  -1   36.99    0.99
   6   0  -1   35.60    0.86
   6   0  -1   35.22    0.88
   6   0  -1   35.65    1.15
   6   0  -1   35.17    1.19
  -6   0   1   35.39    1.24
  -6   0   1   35.11    1.18
  -6   0   1   35.51    1.00
   5   0  -1    6.49    0.39
   5   0  -1    6.42    0.55
   5   0  -1    5.42    0.44
   5   0  -1    4.73    0.57
   5   0  -1    5.93    0.43
   5   0  -1    5.49    0.35
  -5   0   1    4.70    0.55
  -5   0   1    6.57    0.63
  -5   0   1    5.89    0.45
   4   0  -1   74.73    1.43
   4   0  -1   74.93    1.44
   4   0  -1   77.68    1.62
   4   0  -1   75.87    1.37
   4   0  -1   76.90    1.36
  -4   0   1   74.67    1.44
  -4   0   1   76.32    1.61
  -4   0   1   76.68    1.64
   3   0  -1   24.00    0.53
   3   0  -1   22.93    0.54
   3   0  -1   22.13    0.57
   3   0  -1   24.25    0.71
   3   0  -1   23.19    0.57
  -3   0   1   24.63    0.74
  -3   0   1   23.98    0.71
  -3   0   1   21.88    0.57
   2   0  -1   21.63    0.48
   2   0  -1   22.56    0.47
   2   0  -1   22.75    0.60
   2   0  -1   22.12    0.49
   2   0  -1   23.17    0.48
  -2   0   1   23.19    0.62
  -2   0   1   21.46    0.48
  -2   0   1   22.64    0.45
  -2   0   1   22.96    0.60
  -2   0   1   22.04    0.46
  -1   0  -1  430.84    6.44
  -1   0  -1  434.57    6.32
  -1   0  -1  391.68    6.39
   1   0   1  400.87    6.36
  -2   0  -1    4.59    0.33
  -2   0  -1    4.65    0.37
  -2   0  -1    4.88    0.34
   2   0   1    4.37    0.34
   2   0   1    4.65    0.18
  -3   0  -1   13.30    0.53
  -3   0  -1   13.54    0.60
  -3   0  -1   14.27    0.55
   3   0   1   12.91    0.33
   3   0   1   14.05    0.55
   3   0   1   12.89    0.54
  -4   0  -1  104.96    2.17
  -4   0  -1  110.51    2.07
  -4   0  -1  106.45    2.01
   4   0   1  106.32    1.75
   4   0   1  105.86    2.07
   4   0   1  103.27    1.74
   4   0   1  104.76    2.01
  -5   0  -1    2.27    0.36
  -5   0  -1    2.87    0.45
  -5   0  -1    2.99    0.41
   5   0   1    2.85    0.36
   5   0   1    2.97    0.28
   5   0   1    2.35    0.29
   5   0   1    2.66    0.38
  -6   0  -1  220.21    4.17
  -6   0  -1  224.83    3.93
  -6   0  -1  217.51    4.01
   6   0   1  221.32    3.57
   6   0   1  215.45    3.92
   6   0   1  222.84    3.58
   6   0   1  219.10    4.03
   6   0   1  218.64    3.89
  -7   0  -1   43.87    1.57
  -7   0  -1   39.67    1.54
  -7   0  -1   43.58    1.44
   7   0   1   44.61    1.02
   7   0   1   45.06    1.47
   7   0   1   44.06    1.03
   7   0   1   43.75    1.33
  -8   0  -1    1.45    0.55
  -8   0  -1    1.29    0.56
   8   0   1    2.21    0.38
   8   0   1    1.60    0.57
   8   0   1    2.38    0.61
   8   0   1    1.19    0.58
   8   0   1    0.86    0.52
   8   0   1    1.78    0.34
   8   0   1    1.23    0.49
  -9   0  -1   17.94    1.27
  -9   0  -1   19.15    1.34
   9   0   1   17.13    1.15
   9   0   1   18.35    1.35
   9   0   1   18.48    0.84
   9   0   1   18.02    1.11
   9   0   1   18.03    0.88
   9   0   1   19.72    1.20
   9   0   1   17.16    1.31
   9   0   1   18.19    1.37
 -10   0  -1   29.72    1.62
  10   0   1   29.59    1.80
  10   0   1   27.97    1.55
  10   0   1   26.30    1.42
  10   0   1   24.35    1.78
  10   0   1   29.28    1.73
   9  -1  -1    1.56    0.50
   9  -1  -1    1.10    0.72
   9  -1  -1    2.39    0.74
   9  -1  -1    0.68    0.60
   9  -1  -1   -0.09    0.76
   9  -1  -1    1.98    0.61
   9  -1  -1    1.44    0.68
  -9   1   1    1.99    0.75
  -9   1   1    1.22    0.65
   8  -1  -1   31.40    1.14
   8  -1  -1   34.21    1.42
   8  -1  -1   32.62    1.48
   8  -1  -1   32.46    1.09
   8  -1  -1   30.82    1.48
   8  -1  -1   32.28    1.52
  -8   1   1   31.95    1.50
  -8   1   1   31.60    1.39
   7  -1  -1   34.33    1.14
   7  -1  -1   35.49    1.21
   7  -1  -1   35.82    1.07
   7  -1  -1   34.34    1.47
   7  -1  -1   36.13    1.03
   7  -1  -1   34.85    1.41
  -7   1   1   33.33    1.41
  -7   1   1   35.62    1.28
   6  -1  -1   79.26    1.62
   6  -1  -1   77.96    1.83
   6  -1  -1   78.41    1.71
   6  -1  -1   79.17    1.80
   6  -1  -1   80.41    1.64
  -6   1   1   77.73    1.99
  -6   1   1   79.50    1.80
  -6   1   1   82.94    2.02
   5  -1  -1   49.40    1.39
   5  -1  -1   50.40    1.26
   5  -1  -1   52.01    1.13
   5  -1  -1   48.65    1.29
   5  -1  -1   50.26    1.11
  -5   1   1   49.25    1.24
  -5   1   1   50.73    1.42
   4  -1  -1    0.11    0.23
   4  -1  -1    0.17    0.18
   4  -1  -1    0.10    0.27
   4  -1  -1    0.25    0.19
   4  -1  -1   -0.03    0.25
  -4   1   1   -0.03    0.27
  -4   1   1    0.33    0.24
  -4   1   1    0.13    0.25
   3  -1  -1  154.58    2.77
   3  -1  -1  152.06    2.66
   3  -1  -1  151.77    2.68
   3  -1  -1  156.12    2.56
   3  -1  -1  157.30    2.57
  -3   1   1  160.65    2.80
  -3   1   1  154.98    2.49
  -3   1   1  151.36    2.49
  -3   1   1  153.87    2.76
  -3   1   1  152.84    2.66
   2  -1  -1   26.42    0.74
   2  -1  -1   25.97    0.71
   2  -1  -1   26.12    0.67
   2  -1  -1   26.20    0.61
   2  -1  -1   27.53    0.62
  -2   1   1   26.77    0.59
  -2   1   1   28.51    0.76
  -2   1   1   26.25    0.60
  -2   1   1   27.58    0.68
  -1   1   1  715.19   11.25
  -1   1   1  765.73   11.29
  -2  -1  -1    0.35    0.14
  -2  -1  -1    0.43    0.18
  -2  -1  -1    0.28    0.17
  -2  -1  -1    0.60    0.15
   2   1   1    0.33    0.18
   2   1   1    0.42    0.13
   2   1   1    0.36    0.13
  -3  -1  -1   96.50    1.77
  -3  -1  -1   94.53    1.67
   3   1   1   95.22    1.67
   3   1   1   89.58    1.64
   3   1   1   92.63    1.71
   3   1   1   92.86    1.64
   3   1   1   92.48    1.64
  -4  -1  -1  194.18    3.27
  -4  -1  -1  201.36    3.44
  -4  -1  -1  204.45    3.34
   4   1   1  193.73    3.26
   4   1   1  197.00    3.32
   4   1   1  190.94    3.28
   4   1   1  191.85    3.33
  -5  -1  -1   68.88    1.63
  -5  -1  -1   68.42    1.44
  -5  -1  -1   69.69    1.53
   5   1   1   68.03    1.51
   5   1   1   67.33    1.42
   5   1   1   66.46    1.49
   5   1   1   67.65    1.48
  -6  -1  -1  165.32    3.26
  -6  -1  -1  168.38    3.12
  -6  -1  -1  164.10    2.99
   6   1   1  162.80    3.04
   6   1   1  166.76    2.97
   6   1   1  165.07    3.09
   6   1   1  164.81    3.06
  -7  -1  -1    3.52    0.58
  -7  -1  -1    3.02    0.44
  -7  -1  -1    2.91    0.49
   7   1   1    3.09    0.45
   7   1   1    3.90    0.54
   7   1   1    3.66    0.50
   7   1   1    3.76    0.45
  -8  -1  -1    9.50    0.92
   8   1   1   10.14    0.90
   8   1   1    9.61    0.79
   8   1   1    9.34    0.90
   8   1   1    9.70    0.81
   8   1   1   10.10    0.53
   8   1   1    9.30    0.50
   8   1   1    9.68    0.89
  -9  -1  -1    3.17    0.64
   9   1   1    1.92    0.68
   9   1   1    4.06    0.67
   9   1   1    3.78    0.40
   9   1   1    3.46    0.59
   9   1   1    3.81    0.60
   9   1   1    3.98    0.41
   9   1   1    4.31    0.74
 -10  -1  -1   22.55    1.46
  10   1   1   21.46    0.90
  10   1   1   25.37    1.58
  10   1   1   22.41    1.32
  10   1   1   23.43    1.27
  10   1   1   21.64    1.49
  10   1   1   25.96    1.55
   9  -2  -1   -0.64    0.74
   9  -2  -1    0.65    0.83
   9  -2  -1    0.73    0.73
   9  -2  -1    1.48    0.62
  -9   2   1   -0.41    0.65
   8  -2  -1   60.28    1.77
   8  -2  -1   60.12    1.88
   8  -2  -1   60.00    1.88
   8  -2  -1   59.03    1.61
   8  -2  -1   59.39    2.11
   8  -2  -1   60.34    1.69
  -8   2   1   62.80    2.00
  -8   2   1   60.17    2.07
   7  -2  -1   11.91    0.80
   7  -2  -1   13.68    0.86
   7  -2  -1   12.17    0.98
   7  -2  -1   12.15    1.15
  -7   2   1   12.50    1.08
  -7   2   1   12.08    1.07
   6  -2  -1   36.01    1.22
   6  -2  -1   35.46    1.24
   6  -2  -1   34.67    1.05
   6  -2  -1   36.73    1.09
   6  -2  -1   37.53    1.42
  -6   2   1   32.37    1.34
  -6   2   1   34.45    1.25
   5  -2  -1   41.74    1.24
   5  -2  -1   40.85    1.08
   5  -2  -1   41.16    1.35
   5  -2  -1   40.27    1.19
   5  -2  -1   41.47    1.08
  -5   2   1   42.73    1.38
  -5   2   1   41.46    1.35
  -5   2   1   42.13    1.25
   4  -2  -1    1.49    0.28
   4  -2  -1    1.18    0.32
   4  -2  -1    0.82    0.34
   4  -2  -1    1.15    0.28
   4  -2  -1    1.04    0.32
  -4   2   1    1.08    0.21
  -4   2   1    1.53    0.38
  -4   2   1    1.11    0.35
  -4   2   1    1.03    0.33
  -4   2   1    1.47    0.22
   3  -2  -1  359.19    5.66
   3  -2  -1  350.31    5.71
   3  -2  -1  350.42    5.59
   3  -2  -1  346.39    5.58
   3  -2  -1  348.23    5.80
  -3   2   1  347.95    5.52
  -3   2   1  348.66    5.79
  -3   2   1  349.99    5.71
  -3   2   1  344.80    5.50
  -3   2   1  352.19    5.81
   2  -2  -1  116.10    2.05
   2  -2  -1  114.02    2.14
   2  -2  -1  116.32    2.18
   2  -2  -1  116.34    2.09
   2  -2  -1  119.73    2.06
  -2   2   1  117.90    2.15
  -2   2   1  120.54    2.20
  -2   2   1  118.83    2.20
  -2   2   1  114.41    2.01
  -2   2   1  115.16    2.09
  -2   2   1  117.08    2.03
   1  -2  -1  306.37    4.87
   1  -2  -1  304.30    4.94
   1  -2  -1  304.56    4.87
   1  -2  -1  308.31    4.95
   1  -2  -1  314.45    4.90
  -1   2   1  307.92    4.86
  -1   2   1  305.15    4.94
  -1   2   1  311.70    4.95
  -1   2   1  308.02    4.86
  -1   2   1  320.39    4.97
  -1   2   1  311.05    4.91
   0  -2  -1  519.39    8.07
   0  -2  -1  528.09    8.07
   0  -2  -1  535.61    8.07
   0  -2  -1  525.99    8.12
   0  -2  -1  525.16    8.09
   0   2   1  525.18    8.10
   0   2   1  532.05    8.07
   0   2   1  526.08    8.12
   0   2   1  518.75    8.07
   0   2   1  541.20    8.11
   0   2   1  513.98    8.06
  -1  -2  -1   82.62    1.47
  -1  -2  -1   83.51    1.34
  -1  -2  -1   82.89    1.42
  -1  -2  -1   83.22    1.50
  -1  -2  -1   84.11    1.41
  -1  -2  -1   85.70    1.43
   1   2   1   84.75    1.43
   1   2   1   83.01    1.42
   1   2   1   84.86    1.42
   1   2   1   82.75    1.47
   1   2   1   83.45    1.34
   1   2   1   83.92    1.49
  -2  -2  -1  197.06    3.10
  -2  -2  -1  185.92    2.91
  -2  -2  -1  186.65    3.09
  -2  -2  -1  199.06    3.00
  -2  -2  -1  185.72    2.91
  -2  -2  -1  187.69    3.00
   2   2   1  189.95    3.10
   2   2   1  190.47    3.09
   2   2   1  184.54    2.94
   2   2   1  186.91    3.00
   2   2   1  188.56    2.94
  -3  -2  -1    1.71    0.26
  -3  -2  -1    1.89    0.25
  -3  -2  -1    1.72    0.21
  -3  -2  -1    2.07    0.24
   3   2   1    1.42    0.16
   3   2   1    1.68    0.26
   3   2   1    1.87    0.24
   3   2   1    2.39    0.28
  -4  -2  -1  298.08    4.85
  -4  -2  -1  306.77    4.88
  -4  -2  -1  306.39    4.79
   4   2   1  293.82    4.71
   4   2   1  293.19    4.76
   4   2   1  292.42    4.81
   4   2   1  289.57    4.71
   4   2   1  293.93    4.83
  -5  -2  -1  131.26    2.61
  -5  -2  -1  136.52    2.44
  -5  -2  -1  132.69    2.44
   5   2   1  132.31    2.44
   5   2   1  128.44    2.38
   5   2   1  129.51    2.35
   5   2   1  128.60    2.29
   5   2   1  129.34    2.40
  -6  -2  -1    5.66    0.59
  -6  -2  -1    5.29    0.64
   6   2   1    5.65    0.45
   6   2   1    4.95    0.55
   6   2   1    5.97    0.53
   6   2   1    5.36    0.51
   6   2   1    5.59    0.54
  -7  -2  -1   23.68    1.00
  -7  -2  -1   23.98    1.10
   7   2   1   23.40    0.92
   7   2   1   22.87    0.82
   7   2   1   23.58    0.95
   7   2   1   23.38    0.95
   7   2   1   24.69    0.93
  -8  -2  -1   19.85    1.06
   8   2   1   19.02    0.84
   8   2   1   18.67    0.94
   8   2   1   17.94    1.03
   8   2   1   18.49    1.01
   8   2   1   19.92    1.31
  -9  -2  -1   50.22    1.68
   9   2   1   47.47    1.64
   9   2   1   50.05    1.52
   9   2   1   49.57    1.60
   9   2   1   48.01    1.64
   9   2   1   48.45    1.41
 -10  -2  -1    1.03    0.61
  10   2   1    0.40    0.50
  10   2   1   -0.59    0.52
  10   2   1    0.39    0.72
  10   2   1    1.28    0.64
  10   2   1   -0.02    0.61
   8  -3  -1   33.27    1.59
   8  -3  -1   34.92    1.64
   8  -3  -1   36.79    1.93
   8  -3  -1   36.34    1.71
   8  -3  -1   35.86    1.44
   8  -3  -1   34.54    1.50
  -8   3   1   35.04    2.04
   7  -3  -1   27.44    1.23
   7  -3  -1   27.71    1.15
   7  -3  -1   28.13    1.29
   7  -3  -1   27.45    1.54
   7  -3  -1   26.53    1.39
  -7   3   1   29.01    1.48
  -7   3   1   26.00    1.43
   6  -3  -1    1.90    0.61
   6  -3  -1    1.97    0.45
   6  -3  -1    2.18    0.59
   6  -3  -1    1.79    0.50
   6  -3  -1    3.14    0.54
  -6   3   1    1.72    0.57
  -6   3   1    1.69    0.59
   5  -3  -1    3.57    0.48
   5  -3  -1    3.06    0.43
   5  -3  -1    2.65    0.56
   5  -3  -1    2.12    0.50
  -5   3   1    3.58    0.58
  -5   3   1    3.43    0.34
  -5   3   1    2.76    0.55
  -5   3   1    3.50    0.43
   4  -3  -1   14.82    0.82
   4  -3  -1   15.63    0.74
   4  -3  -1   15.64    0.70
   4  -3  -1   15.52    0.87
   4  -3  -1   15.53    0.70
  -4   3   1   15.74    0.61
  -4   3   1   15.53    0.61
  -4   3   1   14.31    1.03
  -4   3   1   15.78    0.91
   3  -3  -1  179.04    3.14
   3  -3  -1  175.95    3.33
   3  -3  -1  177.50    3.14
   3  -3  -1  178.13    3.29
   3  -3  -1  177.61    3.14
  -3   3   1  181.01    3.30
  -3   3   1  174.82    3.34
  -3   3   1  182.06    3.08
  -3   3   1  180.87    3.05
  -3   3   1  180.06    3.35
   2  -3  -1   35.47    1.04
   2  -3  -1   37.35    1.06
   2  -3  -1   36.36    0.94
   2  -3  -1   37.71    0.95
   2  -3  -1   34.45    0.92
  -2   3   1   36.58    0.90
  -2   3   1   35.81    0.96
  -2   3   1   36.03    1.06
  -2   3   1   36.77    0.91
  -2   3   1   36.24    1.06
  -2   3   1   35.15    1.03
   1  -3  -1  160.45    2.80
   1  -3  -1  160.07    2.80
   1  -3  -1  165.58    2.88
   1  -3  -1  162.26    2.90
   1  -3  -1  165.12    2.80
  -1   3   1  166.13    2.91
  -1   3   1  162.61    2.82
  -1   3   1  160.43    2.78
  -1   3   1  163.33    2.79
  -1   3   1  167.96    2.88
   0  -3  -1  179.34    3.01
   0  -3  -1  176.67    3.08
   0  -3  -1  183.40    3.01
   0  -3  -1  185.12    3.04
   0  -3  -1  178.01    3.03
   0   3   1  183.14    3.04
   0   3   1  178.01    3.01
   0   3   1  181.62    3.01
   0   3   1  180.46    3.01
   0   3   1  178.64    3.08
  -1  -3  -1   21.70    0.59
  -1  -3  -1   22.00    0.66
  -1  -3  -1   22.06    0.65
  -1  -3  -1   22.02    0.63
  -1  -3  -1   21.49    0.53
  -1  -3  -1   22.45    0.60
   1   3   1   22.66    0.61
   1   3   1   21.88    0.66
   1   3   1   22.14    0.62
   1   3   1   21.86    0.60
   1   3   1   22.22    0.66
  -2  -3  -1   75.79    1.40
  -2  -3  -1   76.06    1.35
  -2  -3  -1   73.81    1.34
  -2  -3  -1   73.93    1.49
  -2  -3  -1   75.40    1.48
   2   3   1   76.86    1.40
   2   3   1   75.89    1.37
   2   3   1   74.40    1.36
   2   3   1   77.25    1.48
   2   3   1   74.92    1.42
  -3  -3  -1    7.36    0.47
  -3  -3  -1    7.46    0.27
  -3  -3  -1    6.95    0.27
  -3  -3  -1    7.48    0.37
  -3  -3  -1    6.89    0.46
  -3  -3  -1    7.11    0.40
   3   3   1    7.35    0.31
   3   3   1    6.86    0.31
   3   3   1    6.92    0.39
   3   3   1    6.93    0.45
   3   3   1    7.34    0.49
  -4  -3  -1   77.14    1.60
  -4  -3  -1   81.76    1.55
  -4  -3  -1   79.94    1.55
  -4  -3  -1   80.13    1.53
   4   3   1   79.14    1.33
   4   3   1   78.99    1.62
   4   3   1   77.54    1.51
   4   3   1   76.98    1.32
   4   3   1   75.52    1.35
   4   3   1   77.63    1.61
  -5  -3  -1   33.17    0.97
  -5  -3  -1   31.59    0.93
  -5  -3  -1   31.60    0.89
  -5  -3  -1   31.14    0.94
   5   3   1   30.59    0.76
   5   3   1   30.53    0.87
   5   3   1   33.03    0.95
   5   3   1   32.59    0.95
  -6  -3  -1    4.74    0.62
  -6  -3  -1    4.33    0.56
  -6  -3  -1    4.18    0.54
   6   3   1    3.83    0.51
   6   3   1    4.67    0.53
   6   3   1    4.32    0.43
   6   3   1    4.94    0.52
   6   3   1    3.32    0.38
  -7  -3  -1   30.23    1.09
   7   3   1   28.46    1.04
   7   3   1   28.84    1.03
   7   3   1   29.04    0.94
   7   3   1   28.47    0.86
   7   3   1   30.74    1.03
  -8  -3  -1    1.08    0.45
   8   3   1   -0.83    0.50
   8   3   1    0.53    0.31
   8   3   1    1.45    0.43
   8   3   1    0.04    0.36
   8   3   1    0.19    0.38
  -9  -3  -1   54.77    1.75
   9   3   1   55.84    1.67
   9   3   1   56.97    1.63
   9   3   1   54.99    1.68
   9   3   1   54.98    1.40
 -10  -3  -1    0.27    0.56
  10   3   1    0.06    0.53
  10   3   1    0.82    0.53
  10   3   1   -0.43    0.68
  10   3   1   -0.93    0.42
  10   3   1   -1.00    0.51
 -11  -3  -1    0.66    0.67
  11   3   1   -0.31    0.53
  11   3   1    0.31    0.74
  11   3   1   -1.25    0.84
  11   3   1   -0.80    0.68
  11   3   1    0.41    0.67
   7  -4  -1    8.16    0.84
   7  -4  -1   10.38    1.32
   7  -4  -1   10.12    1.26
   7  -4  -1   12.41    1.50
   7  -4  -1    9.27    1.09
  -7   4   1    9.97    1.22
  -7   4   1    8.30    1.03
   6  -4  -1    3.94    0.68
   6  -4  -1    4.36    0.77
   6  -4  -1    3.36    0.69
   6  -4  -1    3.40    0.59
  -6   4   1    1.84    0.61
   5  -4  -1    1.34    0.57
   5  -4  -1    1.84    0.47
   5  -4  -1    1.18    0.49
   5  -4  -1    2.07    0.58
   5  -4  -1    2.17    0.47
  -5   4   1    1.54    0.59
  -5   4   1    1.90    0.38
  -5   4   1    1.96    0.39
  -5   4   1    1.97    0.59
   4  -4  -1   71.34    1.92
   4  -4  -1   69.11    1.86
   4  -4  -1   71.31    1.64
   4  -4  -1   68.99    1.86
   4  -4  -1   70.15    1.69
  -4   4   1   70.78    1.54
  -4   4   1   67.26    1.92
  -4   4   1   71.79    1.91
  -4   4   1   69.59    1.54
   3  -4  -1    9.66    0.78
   3  -4  -1    9.71    0.63
   3  -4  -1    9.87    0.77
   3  -4  -1    8.23    0.62
  -3   4   1    8.72    0.79
  -3   4   1    8.06    0.58
  -3   4   1    9.41    0.66
  -3   4   1    8.75    0.77
  -3   4   1    8.43    0.58
   2  -4  -1  165.21    3.00
   2  -4  -1  169.66    3.19
   2  -4  -1  172.84    3.23
   2  -4  -1  168.65    3.05
   2  -4  -1  171.09    3.07
  -2   4   1  168.29    3.01
  -2   4   1  168.24    3.06
  -2   4   1  169.16    3.24
  -2   4   1  174.17    3.23
  -2   4   1  169.76    3.00
   1  -4  -1   -0.09    0.24
   1  -4  -1    0.77    0.25
   1  -4  -1    0.36    0.30
   1  -4  -1    0.34    0.25
   1  -4  -1    0.56    0.25
   1  -4  -1    0.06    0.27
  -1   4   1    0.91    0.32
  -1   4   1    0.33    0.29
  -1   4   1    0.16    0.22
  -1   4   1    0.44    0.25
  -1   4   1    0.19    0.23
   0  -4  -1    1.16    0.26
   0  -4  -1    0.84    0.24
   0  -4  -1    1.14    0.30
   0  -4  -1    0.98    0.31
   0  -4  -1    1.37    0.26
   0   4   1    1.15    0.26
   0   4   1    1.21    0.26
   0   4   1    1.29    0.32
   0   4   1    1.22    0.28
  -1  -4  -1    8.10    0.53
  -1  -4  -1    8.31    0.46
  -1  -4  -1    7.78    0.46
  -1  -4  -1    8.56    0.54
  -1  -4  -1    8.41    0.52
  -1  -4  -1    7.50    0.41
   1   4   1    8.25    0.46
   1   4   1    8.57    0.54
   1   4   1    7.86    0.50
   1   4   1    8.92    0.48
   1   4   1    8.54    0.51
  -2  -4  -1    0.07    0.19
  -2  -4  -1    0.48    0.21
  -2  -4  -1    0.21    0.13
  -2  -4  -1    0.10    0.22
  -2  -4  -1    0.59    0.24
  -2  -4  -1    0.34    0.24
   2   4   1    0.17    0.21
   2   4   1    0.50    0.22
   2   4   1    0.23    0.20
   2   4   1    0.34    0.21
   2   4   1   -0.09    0.22
  -3  -4  -1   48.93    1.10
  -3  -4  -1   48.27    0.99
  -3  -4  -1   47.96    1.19
  -3  -4  -1   47.11    1.17
  -3  -4  -1   48.04    0.99
   3   4   1   49.25    1.04
   3   4   1   48.61    1.19
   3   4   1   50.33    1.04
   3   4   1   48.84    1.09
   3   4   1   47.32    1.08
  -4  -4  -1   60.53    1.10
  -4  -4  -1   62.83    1.32
  -4  -4  -1   63.15    1.44
  -4  -4  -1   60.80    1.42
   4   4   1   61.35    1.27
   4   4   1   63.36    1.21
   4   4   1   61.38    1.32
   4   4   1   62.15    1.43
   4   4   1   61.00    1.20
  -5  -4  -1   34.45    0.99
  -5  -4  -1   34.85    1.03
  -5  -4  -1   34.38    0.95
   5   4   1   33.45    0.71
   5   4   1   34.66    1.03
   5   4   1   33.64    1.04
   5   4   1   34.82    0.77
   5   4   1   34.33    0.76
   5   4   1   33.45    0.93
  -6  -4  -1   56.31    1.37
  -6  -4  -1   53.88    1.32
  -6  -4  -1   52.71    1.39
   6   4   1   51.56    1.37
   6   4   1   55.10    1.32
   6   4   1   51.60    1.39
   6   4   1   51.81    1.02
   6   4   1   53.41    1.02
   6   4   1   50.35    1.10
  -7  -4  -1  110.30    2.34
  -7  -4  -1  115.44    2.30
  -7  -4  -1  112.04    2.36
   7   4   1  109.39    2.10
   7   4   1  108.74    2.05
   7   4   1  112.79    2.29
   7   4   1  109.37    2.36
   7   4   1  114.22    2.37
  -8  -4  -1   32.02    1.23
  -8  -4  -1   28.89    1.19
   8   4   1   32.16    0.91
   8   4   1   31.18    1.22
   8   4   1   33.77    1.21
   8   4   1   31.42    1.16
   8   4   1   30.85    1.02
  -9  -4  -1   32.01    1.36
   9   4   1   31.88    1.31
   9   4   1   31.06    1.31
   9   4   1   32.59    1.31
   9   4   1   30.93    1.14
   9   4   1   32.47    0.97
 -10  -4  -1    3.03    0.69
  10   4   1    1.90    0.73
  10   4   1    3.16    0.64
  10   4   1    2.60    0.46
  10   4   1    2.83    0.65
 -11  -4  -1    0.80    0.64
  11   4   1    0.96    0.67
  11   4   1   -0.85    0.45
  11   4   1   -1.37    0.80
  11   4   1    0.43    0.67
  11   4   1   -0.47    0.67
   6  -5  -1    3.72    0.84
   6  -5  -1    4.54    0.75
   6  -5  -1    4.17    0.85
   6  -5  -1    2.73    0.84
   6  -5  -1    3.66    0.63
  -6   5   1    3.38    0.75
  -6   5   1    3.52    0.60
   5  -5  -1   13.45    1.15
   5  -5  -1   13.18    1.01
   5  -5  -1   13.54    1.29
   5  -5  -1   14.35    1.23
  -5   5   1   12.02    0.89
  -5   5   1   13.00    0.83
  -5   5   1   13.02    1.20
   4  -5  -1  150.34    3.06
   4  -5  -1  150.17    3.28
   4  -5  -1  152.27    3.31
   4  -5  -1  148.28    3.03
   4  -5  -1  150.02    2.90
  -4   5   1  148.84    2.86
  -4   5   1  149.76    3.28
  -4   5   1  146.17    3.32
  -4   5   1  152.36    2.86
   3  -5  -1    5.89    0.72
   3  -5  -1    3.99    0.58
   3  -5  -1    5.39    0.66
   3  -5  -1    5.20    0.65
   3  -5  -1    4.57    0.56
  -3   5   1    4.98    0.51
  -3   5   1    4.88    0.51
  -3   5   1    4.80    0.65
  -3   5   1    4.49    0.53
  -3   5   1    4.83    0.66
   2  -5  -1   10.36    0.81
   2  -5  -1   10.10    0.67
   2  -5  -1    9.89    0.95
   2  -5  -1    9.89    0.71
   2  -5  -1   10.10    0.69
   2  -5  -1    9.60    0.77
  -2   5   1   11.01    0.66
  -2   5   1    9.68    0.64
  -2   5   1   10.39    0.85
  -2   5   1   10.16    0.81
  -2   5   1   10.58    0.74
   1  -5  -1    1.67    0.36
   1  -5  -1    1.41    0.40
   1  -5  -1    1.55    0.33
   1  -5  -1    1.31    0.33
   1  -5  -1    1.07    0.34
   1  -5  -1    1.56    0.42
  -1   5   1    1.49    0.41
  -1   5   1    1.33    0.32
  -1   5   1    1.81    0.41
  -1   5   1    1.19    0.35
  -1   5   1    1.62    0.41
   0  -5  -1  163.82    3.02
   0  -5  -1  165.41    3.14
   0  -5  -1  163.24    2.99
   0  -5  -1  168.77    3.08
   0  -5  -1  165.21    3.00
   0  -5  -1  167.74    3.02
   0   5   1  167.35    3.14
   0   5   1  164.36    3.00
   0   5   1  165.37    3.13
   0   5   1  167.26    3.01
   0   5   1  165.20    3.02
  -1  -5  -1  128.72    2.44
  -1  -5  -1  128.31    2.32
  -1  -5  -1  126.19    2.50
  -1  -5  -1  125.63    2.39
  -1  -5  -1  128.58    2.40
  -1  -5  -1  130.47    2.46
   1   5   1  128.92    2.41
   1   5   1  130.25    2.51
   1   5   1  128.92    2.41
   1   5   1  125.69    2.43
  -2  -5  -1   10.84    0.63
  -2  -5  -1   11.61    0.63
  -2  -5  -1   11.30    0.44
  -2  -5  -1   10.71    0.54
  -2  -5  -1   11.76    0.63
  -2  -5  -1   10.91    0.56
   2   5   1   11.50    0.58
   2   5   1   11.45    0.57
   2   5   1   11.50    0.62
   2   5   1   10.92    0.63
   2   5   1   11.15    0.63
  -3  -5  -1   18.14    0.77
  -3  -5  -1   18.37    0.79
  -3  -5  -1   17.16    0.70
  -3  -5  -1   19.58    0.64
  -3  -5  -1   17.36    0.61
  -3  -5  -1   19.42    0.72
  -3  -5  -1   18.26    0.44
   3   5   1   17.92    0.72
   3   5   1   19.10    0.67
   3   5   1   18.39    0.72
   3   5   1   17.32    0.76
   3   5   1   17.89    0.66
  -4  -5  -1   60.13    1.22
  -4  -5  -1   61.11    1.39
  -4  -5  -1   61.49    1.50
  -4  -5  -1   62.02    1.24
   4   5   1   61.34    1.30
   4   5   1   62.86    1.31
   4   5   1   60.15    1.37
   4   5   1   61.23    1.49
   4   5   1   59.61    1.34
  -5  -5  -1  249.34    3.94
  -5  -5  -1  249.12    4.39
  -5  -5  -1  249.93    4.39
  -5  -5  -1  246.14    3.93
  -5  -5  -1  252.62    4.26
   5   5   1  253.21    4.10
   5   5   1  246.35    4.10
   5   5   1  246.96    4.24
   5   5   1  250.92    4.14
   5   5   1  251.15    4.41
  -6  -5  -1  161.85    3.17
  -6  -5  -1  169.79    3.08
   6   5   1  163.98    3.20
   6   5   1  169.13    3.07
   6   5   1  165.36    2.89
   6   5   1  166.25    2.84
   6   5   1  168.13    2.83
  -7  -5  -1   42.65    1.33
  -7  -5  -1   42.15    1.29
  -7  -5  -1   40.09    1.24
   7   5   1   39.72    0.94
   7   5   1   40.65    0.95
   7   5   1   42.85    1.25
   7   5   1   41.19    1.36
   7   5   1   41.75    0.95
   7   5   1   40.37    1.34
  -8  -5  -1   52.10    1.48
  -8  -5  -1   49.81    1.51
  -8  -5  -1   49.17    1.51
   8   5   1   47.28    1.18
   8   5   1   48.49    1.07
   8   5   1   48.71    1.45
   8   5   1   48.14    1.07
   8   5   1   49.62    1.55
   8   5   1   50.15    1.17
   8   5   1   49.08    1.54
  -9  -5  -1    4.74    0.69
  -9  -5  -1    4.33    0.67
   9   5   1    4.55    0.46
   9   5   1    3.81    0.48
   9   5   1    4.45    0.73
   9   5   1    3.87    0.58
   9   5   1    4.91    0.55
   9   5   1    3.65    0.45
   9   5   1    3.52    0.63
 -10  -5  -1   26.49    1.36
  10   5   1   25.42    1.34
  10   5   1   23.71    1.34
  10   5   1   23.37    1.42
  10   5   1   24.11    1.10
  10   5   1   22.76    0.88
 -11  -5  -1    6.38    0.85
  11   5   1    5.82    0.73
  11   5   1    6.62    0.87
  11   5   1    7.01    1.05
  11   5   1    7.10    0.94
  11   5   1    5.67    0.83
   5  -6  -1    5.03    0.91
   5  -6  -1    5.74    0.83
   5  -6  -1    5.79    0.95
   5  -6  -1    6.04    0.74
  -5   6   1    5.92    0.96
  -5   6   1    4.79    0.64
  -5   6   1    4.76    0.70
   4  -6  -1   41.20    1.39
   4  -6  -1   41.46    1.51
   4  -6  -1   42.37    1.76
   4  -6  -1   42.54    1.79
   4  -6  -1   42.02    1.64
  -4   6   1   41.31    1.71
  -4   6   1   40.07    1.95
  -4   6   1   44.24    1.86
  -4   6   1   45.83    1.45
   3  -6  -1    0.00    0.51
   3  -6  -1    0.80    0.46
   3  -6  -1    0.63    0.56
   3  -6  -1    0.35    0.56
   3  -6  -1    0.85    0.52
  -3   6   1    0.53    0.47
  -3   6   1    0.65    0.50
  -3   6   1    0.14    0.46
   2  -6  -1   14.95    0.97
   2  -6  -1   17.54    1.03
   2  -6  -1   17.62    0.88
   2  -6  -1   17.99    0.95
   2  -6  -1   17.33    1.11
  -2   6   1   16.83    1.15
  -2   6   1   16.35    0.92
  -2   6   1   16.08    0.95
  -2   6   1   16.61    1.06
  -2   6   1   15.84    0.99
   1  -6  -1   36.85    1.26
   1  -6  -1   34.74    1.21
   1  -6  -1   37.56    1.33
   1  -6  -1   39.98    1.23
   1  -6  -1   36.60    1.15
   1  -6  -1   36.94    1.37
  -1   6   1   35.26    1.33
  -1   6   1   37.38    1.39
  -1   6   1   36.80    1.16
  -1   6   1   37.63    1.23
  -1   6   1   37.62    1.18
   0  -6  -1  101.45    2.32
   0  -6  -1  103.69    2.20
   0  -6  -1  104.89    2.17
   0  -6  -1  104.26    2.20
   0  -6  -1  105.75    2.29
   0  -6  -1  104.44    2.19
   0   6   1  103.88    2.17
   0   6   1  103.62    2.17
   0   6   1  103.25    2.20
   0   6   1  103.94    2.33
   0   6   1   99.94    2.31
  -1  -6  -1  272.59    4.82
  -1  -6  -1  275.27    4.70
  -1  -6  -1  266.95    4.67
  -1  -6  -1  274.86    4.76
  -1  -6  -1  271.76    4.71
  -1  -6  -1  270.58    4.59
   1   6   1  271.49    4.73
   1   6   1  272.53    4.69
   1   6   1  271.85    4.69
   1   6   1  279.08    4.84
  -2  -6  -1    0.22    0.31
  -2  -6  -1   -0.01    0.27
  -2  -6  -1    0.10    0.27
  -2  -6  -1    0.17    0.31
  -2  -6  -1    0.48    0.23
  -2  -6  -1   -0.06    0.31
   2   6   1   -0.27    0.26
   2   6   1   -0.05    0.33
   2   6   1   -0.01    0.27
   2   6   1   -0.25    0.24
  -3  -6  -1    2.48    0.39
  -3  -6  -1    2.96    0.41
  -3  -6  -1    2.33    0.31
  -3  -6  -1    2.19    0.37
  -3  -6  -1    2.96    0.37
  -3  -6  -1    2.45    0.35
   3   6   1    2.69    0.40
   3   6   1    2.54    0.38
   3   6   1    2.47    0.35
   3   6   1    2.67    0.40
   3   6   1    2.09    0.37
  -4  -6  -1    4.55    0.44
  -4  -6  -1    5.53    0.63
  -4  -6  -1    6.18    0.61
  -4  -6  -1    5.38    0.46
   4   6   1    5.20    0.59
   4   6   1    5.19    0.51
   4   6   1    4.73    0.55
   4   6   1    5.10    0.61
   4   6   1    5.66    0.50
  -5  -6  -1  199.70    3.75
  -5  -6  -1  197.97    3.35
  -5  -6  -1  202.02    3.75
  -5  -6  -1  196.28    3.34
  -5  -6  -1  203.89    3.62
   5   6   1  199.84    3.48
   5   6   1  196.56    3.47
   5   6   1  200.05    3.50
   5   6   1  202.76    3.76
   5   6   1  199.18    3.58
  -6  -6  -1  191.43    3.65
  -6  -6  -1  196.04    3.52
   6   6   1  190.08    3.49
   6   6   1  187.51    3.66
   6   6   1  189.95    3.34
   6   6   1  192.32    3.33
   6   6   1  189.26    3.32
  -7  -6  -1    0.63    0.43
  -7  -6  -1    0.45    0.41
   7   6   1    0.56    0.27
   7   6   1    0.85    0.39
   7   6   1    0.30    0.29
   7   6   1    0.16    0.38
   7   6   1    0.50    0.31
  -8  -6  -1   24.95    1.15
  -8  -6  -1   23.81    1.15
   8   6   1   23.24    0.78
   8   6   1   22.99    0.84
   8   6   1   22.45    0.68
   8   6   1   24.33    0.81
   8   6   1   24.00    1.09
   8   6   1   20.50    1.15
  -9  -6  -1   18.09    1.18
  -9  -6  -1   19.56    1.17
   9   6   1   19.16    1.21
   9   6   1   18.44    0.75
   9   6   1   20.54    0.75
   9   6   1   18.89    0.76
   9   6   1   17.32    0.75
   9   6   1   19.74    1.11
   9   6   1   17.69    0.78
 -10  -6  -1   69.64    2.11
 -10  -6  -1   69.96    2.08
  10   6   1   70.28    2.03
  10   6   1   68.95    1.50
  10   6   1   69.36    1.64
  10   6   1   69.23    1.52
  10   6   1   73.09    2.18
  10   6   1   70.27    1.52
  10   6   1   68.15    1.50
 -11  -6  -1   19.17    1.37
  11   6   1   15.30    1.09
  11   6   1   21.54    1.51
  11   6   1   18.09    1.38
   4  -7  -1   11.20    1.21
   4  -7  -1   11.80    1.53
   4  -7  -1   10.58    1.10
   4  -7  -1   11.29    1.50
  -4   7   1   10.48    1.39
  -4   7   1   11.73    1.10
   3  -7  -1    0.38    0.55
   3  -7  -1   -0.71    0.63
   3  -7  -1    0.48    0.52
   3  -7  -1   -1.14    0.65
   3  -7  -1    0.72    0.70
  -3   7   1    0.08    0.58
  -3   7   1    1.09    0.60
  -3   7   1    0.34    0.52
  -3   7   1    0.11    0.55
   2  -7  -1    5.56    0.76
   2  -7  -1    8.01    0.85
   2  -7  -1    8.91    1.13
   2  -7  -1    6.57    0.87
   2  -7  -1    6.78    0.74
  -2   7   1    6.24    0.70
  -2   7   1    7.06    0.72
  -2   7   1    5.61    0.76
  -2   7   1    7.12    0.72
   1  -7  -1   87.34    2.05
   1  -7  -1   88.56    2.33
   1  -7  -1   85.27    2.15
   1  -7  -1   87.04    2.12
   1  -7  -1   86.43    2.16
  -1   7   1   87.53    2.07
  -1   7   1   85.44    2.07
  -1   7   1   83.21    2.08
  -1   7   1   83.40    2.28
   0  -7  -1    8.04    0.97
   0  -7  -1    6.31    0.77
   0  -7  -1    5.83    0.71
   0  -7  -1    6.02    0.74
   0  -7  -1    4.83    0.58
   0  -7  -1    5.86    0.63
   0   7   1    6.42    0.72
   0   7   1    6.35    0.78
   0   7   1    6.30    0.75
   0   7   1    5.31    0.64
   0   7   1    5.15    0.60
  -1  -7  -1   27.86    1.20
  -1  -7  -1   26.45    0.99
  -1  -7  -1   27.37    1.07
  -1  -7  -1   26.09    1.17
  -1  -7  -1   26.16    1.06
  -1  -7  -1   27.14    1.09
   1   7   1   26.67    1.08
   1   7   1   27.31    1.08
   1   7   1   27.82    1.04
   1   7   1   26.20    1.21
  -2  -7  -1    0.77    0.42
  -2  -7  -1    0.98    0.40
  -2  -7  -1    1.20    0.44
  -2  -7  -1    0.66    0.36
  -2  -7  -1    0.07    0.36
  -2  -7  -1    0.60    0.28
   2   7   1    0.28    0.37
   2   7   1   -0.38    0.39
   2   7   1    0.46    0.35
   2   7   1    0.55    0.34
  -3  -7  -1   10.75    0.51
  -3  -7  -1   10.11    0.68
  -3  -7  -1    9.76    0.68
  -3  -7  -1   10.07    0.79
  -3  -7  -1   11.10    0.84
  -3  -7  -1   10.42    0.79
   3   7   1   11.21    0.78
   3   7   1    9.23    0.76
   3   7   1   10.10    0.81
   3   7   1   10.51    0.73
   3   7   1    9.29    0.72
  -4  -7  -1   62.90    1.63
  -4  -7  -1   61.17    2.31
  -4  -7  -1   61.05    1.14
  -4  -7  -1   60.56    1.68
  -4  -7  -1   60.86    1.57
  -4  -7  -1   60.68    1.45
   4   7   1   61.42    1.67
   4   7   1   63.19    1.55
   4   7   1   61.44    1.52
   4   7   1   59.47    1.60
   4   7   1   59.38    1.58
  -5  -7  -1   41.51    1.42
  -5  -7  -1   41.12    1.09
  -5  -7  -1   40.54    1.10
  -5  -7  -1   40.19    1.29
   5   7   1   41.04    1.20
   5   7   1   40.04    1.21
   5   7   1   39.47    1.27
   5   7   1   42.09    1.19
   5   7   1   35.77    1.57
  -6  -7  -1  119.90    2.54
  -6  -7  -1  117.83    2.66
  -6  -7  -1  118.29    2.19
  -6  -7  -1  120.28    2.18
   6   7   1  116.67    2.49
   6   7   1  118.19    2.67
   6   7   1  120.27    2.38
   6   7   1  120.16    2.38
  -7  -7  -1    3.92    0.58
  -7  -7  -1    3.00    0.60
   7   7   1    3.49    0.54
   7   7   1    4.05    0.56
   7   7   1    3.29    0.48
   7   7   1    2.94    0.45
   7   7   1    3.03    0.42
  -8  -7  -1    1.49    0.51
  -8  -7  -1    1.29    0.58
   8   7   1    0.38    0.46
   8   7   1    0.54    0.39
   8   7   1    1.20    0.37
   8   7   1    0.14    0.39
   8   7   1    0.47    0.49
  -9  -7  -1    0.13    0.60
  -9  -7  -1    1.06    0.57
   9   7   1   -0.46    0.36
   9   7   1   -0.33    0.53
   9   7   1    0.19    0.38
   9   7   1    0.23    0.40
   9   7   1    0.64    0.54
 -10  -7  -1    9.81    1.00
 -10  -7  -1   12.54    1.32
  10   7   1    9.91    1.26
  10   7   1    7.20    0.74
  10   7   1    8.54    0.74
  10   7   1    7.50    0.85
  10   7   1   10.44    0.80
  10   7   1    9.62    0.70
 -11  -7  -1   18.28    1.52
  11   7   1   18.68    1.55
  11   7   1   17.49    1.47
  11   7   1   18.64    0.95
   3  -8  -1   23.59    1.73
   3  -8  -1   22.53    1.56
  -3   8   1   20.04    1.54
  -3   8   1   21.55    1.37
  -3   8   1   24.10    1.83
  -3   8   1   21.00    1.43
   2  -8  -1    1.56    0.73
   2  -8  -1    1.63    0.66
   2  -8  -1    1.68    0.65
   2  -8  -1    0.30    0.71
  -2   8   1    1.86    0.65
  -2   8   1    1.66    0.70
  -2   8   1    2.46    0.66
  -2   8   1    3.91    0.75
   1  -8  -1   98.89    2.48
   1  -8  -1  101.36    2.54
   1  -8  -1  102.46    3.77
   1  -8  -1   98.38    2.57
   1  -8  -1  100.90    2.40
   1  -8  -1  101.94    2.74
  -1   8   1  101.16    2.47
  -1   8   1   93.89    2.64
  -1   8   1  100.54    2.43
   0  -8  -1    0.82    0.51
   0  -8  -1    0.16    0.50
   0  -8  -1    0.49    0.65
   0  -8  -1    1.40    0.55
   0   8   1    0.91    0.52
   0   8   1    1.66    0.67
   0   8   1    1.13    0.55
   0   8   1   -0.23    0.50
  -1  -8  -1   35.92    1.25
  -1  -8  -1   34.10    1.46
  -1  -8  -1   36.27    1.34
  -1  -8  -1   34.41    1.35
  -1  -8  -1   34.41    1.47
   1   8   1   35.08    1.34
   1   8   1   33.95    1.44
   1   8   1   35.23    1.30
   1   8   1   33.76    1.53
  -2  -8  -1    0.00    0.46
  -2  -8  -1    0.64    0.36
  -2  -8  -1    0.39    0.42
  -2  -8  -1   -0.02    0.49
  -2  -8  -1    0.17    0.52
  -2  -8  -1   -0.64    0.46
   2   8   1    0.00    0.41
   2   8   1    0.09    0.40
   2   8   1   -0.50    0.51
  -3  -8  -1    0.43    0.41
  -3  -8  -1    0.78    0.50
  -3  -8  -1    0.70    0.48
  -3  -8  -1    0.44    0.44
  -3  -8  -1    0.54    0.50
  -3  -8  -1   -0.13    0.29
   3   8   1    0.99    0.44
   3   8   1    0.84    0.56
   3   8   1    0.58    0.44
   3   8   1    0.57    0.42
   3   8   1    0.40    0.47
  -4  -8  -1   90.37    1.74
  -4  -8  -1   92.46    2.09
  -4  -8  -1   93.28    2.33
  -4  -8  -1   97.09    2.29
  -4  -8  -1   93.27    2.39
  -4  -8  -1   93.94    2.10
   4   8   1  101.11    2.30
   4   8   1   95.74    2.18
   4   8   1   96.84    2.33
   4   8   1   94.01    2.19
   4   8   1   95.83    2.24
  -5  -8  -1    0.95    0.53
  -5  -8  -1    1.10    0.40
  -5  -8  -1    0.47    0.48
  -5  -8  -1    1.50    0.50
  -5  -8  -1    1.51    0.44
   5   8   1    1.67    0.52
   5   8   1    0.38    0.47
   5   8   1    0.85    0.42
   5   8   1    1.45    0.49
   5   8   1    2.03    0.52
  -6  -8  -1   18.40    1.15
  -6  -8  -1   18.41    1.26
  -6  -8  -1   19.68    0.82
  -6  -8  -1   18.91    0.88
  -6  -8  -1   18.07    1.15
   6   8   1   20.84    0.95
   6   8   1   19.20    1.02
   6   8   1   20.07    1.08
   6   8   1   17.61    1.16
   6   8   1   20.18    1.03
  -7  -8  -1    1.03    0.57
  -7  -8  -1    0.72    0.30
  -7  -8  -1    1.11    0.37
  -7  -8  -1    1.36    0.56
   7   8   1    0.92    0.52
   7   8   1    0.85    0.47
   7   8   1    1.27    0.49
   7   8   1   -0.24    0.50
   7   8   1    0.69    0.43
  -8  -8  -1    4.63    0.78
  -8  -8  -1    3.91    0.68
   8   8   1    4.01    0.56
   8   8   1    4.41    0.56
   8   8   1    2.88    0.69
   8   8   1    4.48    0.67
   8   8   1    5.16    0.62
  -9  -8  -1   11.93    1.24
  -9  -8  -1   10.71    1.25
   9   8   1   10.38    0.84
   9   8   1   11.80    1.21
   9   8   1   11.19    0.93
   9   8   1   11.56    1.13
   9   8   1    8.64    0.82
 -10  -8  -1   11.15    1.36
  10   8   1    7.04    0.86
  10   8   1    5.84    0.92
  10   8   1    6.81    0.86
  10   8   1    7.01    0.80
  10   8   1    8.41    0.97
 -11  -8  -1    6.38    1.08
 -11  -8  -1    4.86    1.29
  11   8   1    6.60    1.00
  11   8   1    7.21    0.70
  11   8   1    6.36    0.91
   1  -9  -1   16.97    1.40
   1  -9  -1   15.44    1.42
   1  -9  -1   23.00    1.57
   1  -9  -1   14.76    1.59
  -1   9   1   17.20    1.44
  -1   9   1   19.89    1.33
  -1   9   1   18.76    1.44
   0  -9  -1   16.28    1.26
   0  -9  -1   16.23    1.28
   0  -9  -1   16.66    1.32
   0  -9  -1   11.99    1.38
   0   9   1   16.77    1.27
   0   9   1   16.16    1.29
   0   9   1   16.30    1.21
  -1  -9  -1    1.17    0.60
  -1  -9  -1   -1.07    0.62
  -1  -9  -1    0.58    0.53
  -1  -9  -1    0.80    0.70
  -1  -9  -1    0.46    0.71
   1   9   1   -0.26    0.56
   1   9   1   -0.40    0.54
   1   9   1    0.25    0.75
   1   9   1    0.16    0.55
   1   9   1   -0.03    0.73
  -2  -9  -1   62.89    1.87
  -2  -9  -1   59.54    1.88
  -2  -9  -1   64.02    2.05
  -2  -9  -1   67.57    1.73
  -2  -9  -1   64.90    2.02
   2   9   1   65.95    1.97
   2   9   1   65.53    1.90
   2   9   1   64.63    2.14
  -3  -9  -1    0.71    0.52
  -3  -9  -1    1.57    0.62
  -3  -9  -1    2.34    0.44
  -3  -9  -1    1.74    0.66
   3   9   1    1.11    0.57
   3   9   1    0.37    0.63
   3   9   1    1.22    0.52
  -4  -9  -1   33.54    1.53
  -4  -9  -1   33.73    1.30
  -4  -9  -1   34.38    1.56
  -4  -9  -1   36.10    1.48
  -4  -9  -1   33.29    0.97
  -4  -9  -1   34.91    1.52
  -4  -9  -1   32.99    1.30
   4   9   1   35.84    1.44
   4   9   1   34.66    1.47
   4   9   1   34.57    1.42
   4   9   1   32.83    1.53
   4   9   1   34.40    1.33
  -5  -9  -1    7.37    0.81
  -5  -9  -1    8.45    0.90
  -5  -9  -1   10.90    1.13
  -5  -9  -1    8.73    1.17
  -5  -9  -1    8.50    0.84
   5   9   1    9.82    1.14
   5   9   1   10.25    1.10
   5   9   1    8.37    0.89
   5   9   1    9.84    1.04
   5   9   1    8.33    1.03
  -6  -9  -1    4.11    0.82
  -6  -9  -1    6.25    0.67
  -6  -9  -1    5.90    0.79
  -6  -9  -1    6.82    0.77
  -6  -9  -1    5.46    0.82
   6   9   1    5.71    0.77
   6   9   1    5.22    0.72
   6   9   1    5.70    0.76
   6   9   1    5.60    0.66
   6   9   1    5.20    0.74
  -7  -9  -1   38.53    1.15
  -7  -9  -1   37.24    1.65
  -7  -9  -1   38.70    1.69
  -7  -9  -1   38.32    1.24
   7   9   1   35.51    1.35
   7   9   1   36.58    1.42
   7   9   1   36.96    1.66
   7   9   1   35.21    1.46
   7   9   1   36.70    1.53
  -8  -9  -1    4.97    0.87
   8   9   1    4.09    0.81
   8   9   1    4.14    0.74
   8   9   1    3.98    0.74
   8   9   1    3.64    0.60
   8   9   1    4.09    0.64
  -9  -9  -1   35.07    1.76
   9   9   1   33.86    1.63
   9   9   1   38.60    1.79
   9   9   1   35.19    1.38
   9   9   1   34.78    1.49
 -10  -9  -1    1.39    0.85
 -10  -9  -1    1.03    0.88
  10   9   1   -0.25    0.71
  10   9   1    0.63    0.74
  10   9   1   -0.08    0.75
  10   9   1    0.05    0.59
  -1 -10  -1    0.95    0.82
  -1 -10  -1    1.29    0.75
  -1 -10  -1    1.25    0.71
  -1 -10  -1    0.77    0.88
   1  10   1    0.86    0.74
   1  10   1    0.87    0.68
   1  10   1   -0.49    0.70
  -2 -10  -1   56.78    2.09
  -2 -10  -1   54.11    1.91
  -2 -10  -1   58.12    1.77
  -2 -10  -1   55.75    2.12
   2  10   1   57.93    2.03
   2  10   1   52.94    2.02
   2  10   1   57.72    1.95
  -3 -10  -1    4.61    0.88
  -3 -10  -1    3.39    0.83
  -3 -10  -1    3.01    0.73
  -3 -10  -1    4.12    0.61
   3  10   1    3.66    0.75
   3  10   1    2.80    0.69
  -4 -10  -1    8.84    1.09
  -4 -10  -1    8.53    0.88
  -4 -10  -1    7.24    0.99
  -4 -10  -1    7.76    0.95
  -4 -10  -1    8.50    1.08
  -4 -10  -1    8.81    0.78
  -4 -10  -1    7.60    0.94
   4  10   1    7.52    0.92
   4  10   1    7.82    1.01
   4  10   1    7.73    0.84
  -5 -10  -1    0.75    0.59
  -5 -10  -1    0.21    0.73
  -5 -10  -1    0.00    0.32
  -5 -10  -1    1.08    0.77
  -5 -10  -1    1.57    0.75
   5  10   1   -0.17    0.59
   5  10   1    0.62    0.64
   5  10   1    0.27    0.57
   5  10   1    0.76    0.76
  -6 -10  -1   15.30    1.10
  -6 -10  -1   18.23    1.18
  -6 -10  -1   15.58    1.43
  -6 -10  -1   13.23    1.43
   6  10   1   16.35    1.32
   6  10   1   15.55    1.43
   6  10   1   14.69    1.15
   6  10   1   14.40    1.29
   6  10   1   14.82    1.36
  -7 -10  -1  103.49    2.84
  -7 -10  -1  106.03    2.36
  -7 -10  -1  110.55    2.97
   7  10   1  104.51    2.72
   7  10   1  109.38    2.69
   7  10   1  106.14    2.57
   7  10   1  106.19    2.92
   7  10   1  104.45    2.65
  -8 -10  -1   -0.51    0.80
  -8 -10  -1    0.19    0.59
  -8 -10  -1    0.54    0.86
  -8 -10  -1   -0.15    0.48
   8  10   1   -0.73    0.66
   8  10   1   -0.88    0.73
   8  10   1    0.58    0.62
   8  10   1   -0.57    0.72
   8  10   1    1.34    0.73
  -9 -10  -1   46.64    2.13
   9  10   1   43.95    1.66
   9  10   1   44.41    2.34
   9  10   1   43.98    1.82
   9  10   1   40.85    1.88
   9  10   1   45.50    1.67
  -4 -11  -1    0.55    0.77
  -4 -11  -1   -0.50    0.82
   4  11   1   -0.19    0.79
  -5 -11  -1   20.70    1.45
   5  11   1   19.60    1.64
  -6 -11  -1   -0.91    0.71
  -6 -11  -1    0.67    0.85
   6  11   1    1.22    0.78
   6  11   1    0.26    0.76
   6  11   1    1.39    0.83
   6  11   1    1.13    0.93
  -7 -11  -1   44.81    1.67
   7  11   1   45.98    2.01
   7  11   1   42.81    1.78
   7  11   1   44.15    1.98
   7  11   1   48.70    2.84
   7  10  -2    5.59    0.97
   7  10  -2    1.62    0.90
   7  10  -2    5.91    0.90
   7  10  -2    2.78    0.87
  -7 -10   2    5.07    0.78
  -7 -10   2    2.56    1.00
  -7 -10   2    0.99    0.81
   6  10  -2   19.00    1.50
   6  10  -2   19.30    1.56
   6  10  -2   19.55    1.42
   6  10  -2   17.12    1.61
  -6 -10   2   17.00    1.41
  -6 -10   2   16.05    1.33
  -6 -10   2   17.58    1.68
   5  10  -2   -0.05    0.85
   5  10  -2    0.56    0.73
   5  10  -2   -0.24    0.71
   5  10  -2    1.00    0.76
  -5 -10   2   -1.01    0.72
  -5 -10   2    0.05    0.77
  -5 -10   2   -0.04    0.53
   4  10  -2    0.50    0.97
   4  10  -2    2.25    0.77
  -4 -10   2    1.29    0.80
  -4 -10   2    1.76    0.88
   3  10  -2   31.07    1.65
  -3 -10   2   35.16    1.57
  -3 -10   2   34.87    1.92
  -3 -10   2   32.53    1.72
   9   9  -2   -0.78    0.81
   9   9  -2    1.52    1.45
   9   9  -2    0.54    0.68
   9   9  -2   -1.22    0.75
  -9  -9   2    1.42    0.88
   8   9  -2   30.02    1.74
   8   9  -2   29.48    1.70
   8   9  -2   26.28    1.15
   8   9  -2   27.77    1.52
   8   9  -2   25.32    1.39
  -8  -9   2   29.69    1.67
  -8  -9   2   26.41    1.29
  -8  -9   2   26.06    1.14
   7   9  -2   13.33    1.33
   7   9  -2    9.62    1.08
   7   9  -2   10.78    1.26
   7   9  -2   11.43    1.03
   7   9  -2    8.87    0.97
  -7  -9   2   10.62    0.99
  -7  -9   2   10.33    1.14
  -7  -9   2    8.75    1.06
   6   9  -2    7.84    0.94
   6   9  -2    6.59    0.85
   6   9  -2    8.79    1.19
   6   9  -2    7.56    0.84
   6   9  -2    6.73    0.79
  -6  -9   2    9.19    1.02
  -6  -9   2    7.98    0.81
  -6  -9   2    8.16    1.04
  -6  -9   2    7.78    0.79
   5   9  -2    3.68    0.77
   5   9  -2    2.27    0.69
   5   9  -2    3.20    0.75
   5   9  -2    2.55    0.68
  -5  -9   2    3.61    0.69
  -5  -9   2    2.75    0.59
  -5  -9   2    3.07    0.48
  -5  -9   2    3.60    0.70
   4   9  -2    1.90    0.64
   4   9  -2    1.45    0.61
   4   9  -2    0.72    0.60
   4   9  -2    1.24    0.74
  -4  -9   2    0.75    0.63
  -4  -9   2   -1.12    0.61
  -4  -9   2    0.60    0.65
  -4  -9   2    1.05    0.49
   3   9  -2   74.31    2.30
   3   9  -2   72.87    2.12
   3   9  -2   75.47    2.16
   3   9  -2   73.09    2.24
  -3  -9   2   73.13    2.13
  -3  -9   2   65.95    2.56
  -3  -9   2   74.84    2.24
   2   9  -2   23.50    1.33
   2   9  -2   23.17    1.32
  -2  -9   2   24.16    1.40
  -2  -9   2   23.10    1.32
  -2  -9   2   22.34    1.58
   1   9  -2    7.56    0.87
   1   9  -2    5.69    0.80
  -1  -9   2    5.91    0.85
  -1  -9   2    5.41    0.89
  -1  -9   2    5.73    0.98
   0   9  -2    2.06    0.76
   0   9  -2    1.63    0.73
   0   9  -2    0.96    0.73
   0  -9   2    0.99    0.78
  10   8  -2   40.50    1.74
  10   8  -2   36.42    1.93
  10   8  -2   40.11    1.58
  10   8  -2   38.67    2.68
 -10  -8   2   43.24    1.88
   9   8  -2   33.59    1.72
   9   8  -2   34.19    1.42
   9   8  -2   33.16    1.75
   9   8  -2   34.82    1.59
  -9  -8   2   34.94    1.72
   8   8  -2    7.06    0.76
   8   8  -2    5.55    0.68
   8   8  -2    5.92    0.84
   8   8  -2    5.32    0.77
   8   8  -2    6.62    0.87
  -8  -8   2    5.49    0.52
  -8  -8   2    7.58    0.94
  -8  -8   2    6.04    0.87
  -8  -8   2    6.90    0.61
   7   8  -2    5.18    0.66
   7   8  -2    5.28    0.78
   7   8  -2    6.08    0.78
   7   8  -2    5.34    0.77
   7   8  -2    4.50    0.55
  -7  -8   2    4.83    0.54
  -7  -8   2    5.15    0.58
  -7  -8   2    5.62    0.85
  -7  -8   2    5.23    0.64
   6   8  -2   10.95    1.12
   6   8  -2   13.12    1.16
   6   8  -2   12.36    1.09
   6   8  -2   13.67    0.96
  -6  -8   2   10.99    0.74
  -6  -8   2   11.86    1.19
  -6  -8   2   12.29    0.96
   5   8  -2   82.12    2.23
   5   8  -2   83.47    2.11
   5   8  -2   81.50    2.04
   5   8  -2   80.95    2.12
   5   8  -2   83.03    2.26
  -5  -8   2   79.76    2.03
  -5  -8   2   82.48    1.84
  -5  -8   2   84.21    2.05
  -5  -8   2   82.39    2.01
   4   8  -2   48.02    1.64
   4   8  -2   48.69    1.72
   4   8  -2   50.20    1.68
   4   8  -2   48.52    1.56
   4   8  -2   49.82    1.65
  -4  -8   2   48.61    1.44
  -4  -8   2   51.13    1.58
  -4  -8   2   52.32    1.63
  -4  -8   2   53.06    1.60
   3   8  -2   25.35    1.32
   3   8  -2   26.73    1.37
   3   8  -2   27.37    1.25
   3   8  -2   26.59    1.21
  -3  -8   2   27.29    1.07
  -3  -8   2   25.78    1.22
  -3  -8   2   25.64    1.31
   2   8  -2   37.26    1.54
   2   8  -2   35.10    1.40
   2   8  -2   37.88    1.38
   2   8  -2   35.98    1.61
  -2  -8   2   36.26    1.58
  -2  -8   2   38.87    1.46
  -2  -8   2   37.72    1.58
   1   8  -2   -0.51    0.60
   1   8  -2   -0.74    0.66
   1   8  -2    0.24    0.51
  -1  -8   2    2.07    0.68
  -1  -8   2    0.38    0.53
  -1  -8   2   -0.25    0.54
   0   8  -2   20.34    1.34
   0   8  -2   21.11    1.16
   0   8  -2   20.30    1.20
   0   8  -2   21.03    1.35
   0  -8   2   17.79    1.25
   0  -8   2   19.65    1.24
   0  -8   2   19.69    1.51
   0  -8   2   21.47    1.33
  -1   8  -2    0.14    0.62
  -1   8  -2   -0.52    0.58
  -1   8  -2   -0.13    0.57
   1  -8   2    0.40    0.83
   1  -8   2   -0.55    0.58
   1  -8   2    0.76    0.71
   1  -8   2    0.07    0.66
   2  -8   2   29.81    1.82
  10   7  -2   24.75    1.68
  10   7  -2   26.08    1.25
  10   7  -2   27.05    1.68
  10   7  -2   27.00    1.39
 -10  -7   2   27.71    1.44
 -10  -7   2   26.92    1.49
   9   7  -2   85.37    2.41
   9   7  -2   87.07    2.07
   9   7  -2   87.77    2.52
   9   7  -2   84.71    2.10
  -9  -7   2   83.01    2.42
  -9  -7   2   77.93    1.72
  -9  -7   2   83.01    2.29
   8   7  -2    3.31    0.55
   8   7  -2    3.06    0.61
   8   7  -2    2.93    0.68
   8   7  -2    3.67    0.69
  -8  -7   2    3.83    0.71
  -8  -7   2    3.37    0.41
   7   7  -2    1.54    0.56
   7   7  -2    0.85    0.35
   7   7  -2    1.03    0.53
   7   7  -2    1.35    0.45
   7   7  -2    1.04    0.51
  -7  -7   2    0.42    0.51
  -7  -7   2    1.20    0.36
  -7  -7   2    1.00    0.33
  -7  -7   2    0.95    0.56
  -7  -7   2    1.13    0.42
   6   7  -2   30.76    1.15
   6   7  -2   31.13    1.04
   6   7  -2   31.13    1.36
   6   7  -2   32.85    1.23
   6   7  -2   30.54    1.33
  -6  -7   2   31.24    1.05
  -6  -7   2   31.29    1.35
  -6  -7   2   32.83    1.38
  -6  -7   2   33.31    1.11
  -6  -7   2   30.17    0.93
   5   7  -2   95.27    2.32
   5   7  -2   95.32    2.18
   5   7  -2   94.72    2.16
   5   7  -2   93.81    2.06
   5   7  -2   92.41    2.28
  -5  -7   2   94.94    2.07
  -5  -7   2   94.69    2.07
  -5  -7   2   97.53    2.36
  -5  -7   2   96.10    1.94
   4   7  -2   88.77    2.10
   4   7  -2   88.39    2.18
   4   7  -2   89.13    2.11
   4   7  -2   88.84    2.22
   4   7  -2   89.35    2.10
  -4  -7   2   89.57    2.05
  -4  -7   2   90.09    2.21
  -4  -7   2   88.56    1.90
  -4  -7   2   89.82    2.05
   3   7  -2    0.73    0.42
   3   7  -2    0.17    0.45
   3   7  -2    0.30    0.47
   3   7  -2    0.45    0.39
   3   7  -2    1.03    0.46
  -3  -7   2    1.72    0.46
  -3  -7   2    0.86    0.49
  -3  -7   2    0.36    0.42
  -3  -7   2    0.98    0.44
   2   7  -2    0.79    0.40
   2   7  -2    1.00    0.45
   2   7  -2    0.35    0.47
   2   7  -2    0.95    0.51
  -2  -7   2    0.07    0.44
  -2  -7   2    0.67    0.46
  -2  -7   2   -0.08    0.42
   1   7  -2    7.86    0.83
   1   7  -2    7.62    0.85
   1   7  -2    6.80    0.72
   1   7  -2    8.69    0.79
   1   7  -2    7.60    0.64
  -1  -7   2    7.76    0.85
  -1  -7   2    7.42    0.98
  -1  -7   2    6.77    0.83
  -1  -7   2    7.31    0.84
   0   7  -2  151.73    2.98
   0   7  -2  154.20    3.14
   0   7  -2  152.08    3.17
   0   7  -2  152.28    3.37
   0   7  -2  146.76    2.81
   0  -7   2  154.73    3.19
   0  -7   2  149.97    3.18
   0  -7   2  152.10    3.38
   0  -7   2  152.40    3.02
  -1   7  -2   20.27    1.11
  -1   7  -2   19.34    1.00
  -1   7  -2   19.71    1.26
  -1   7  -2   17.57    1.42
  -1   7  -2   17.02    0.98
   1  -7   2   19.49    1.25
   1  -7   2   19.81    1.22
   1  -7   2   18.62    1.17
   1  -7   2   18.94    1.38
   1  -7   2   18.90    0.99
  -2   7  -2   19.34    1.33
  -2   7  -2   17.86    1.03
  -2   7  -2   19.16    1.16
   2  -7   2   21.97    1.53
   2  -7   2   22.01    1.26
   2  -7   2   21.03    1.41
   2  -7   2   21.14    1.02
  -3   7  -2    0.30    0.59
   3  -7   2    1.61    0.73
   3  -7   2    0.22    0.81
   3  -7   2    0.25    0.75
  11   6  -2   38.71    2.00
  11   6  -2   40.91    1.56
  11   6  -2   43.24    1.95
  11   6  -2   37.94    1.40
 -11  -6   2   39.13    1.86
 -11  -6   2   38.13    1.69
  10   6  -2   16.68    1.00
  10   6  -2   18.29    1.39
  10   6  -2   17.48    1.07
  10   6  -2   16.17    1.43
  10   6  -2   16.52    1.08
 -10  -6   2   17.36    1.03
 -10  -6   2   19.35    1.26
 -10  -6   2   18.99    1.39
 -10  -6   2   19.85    1.75
   9   6  -2   43.46    1.67
   9   6  -2   44.79    1.73
   9   6  -2   45.49    1.38
   9   6  -2   42.14    1.29
   9   6  -2   42.70    1.39
  -9  -6   2   41.90    1.24
  -9  -6   2   44.35    1.54
   8   6  -2    3.36    0.43
   8   6  -2    2.60    0.54
   8   6  -2    2.93    0.61
   8   6  -2    2.53    0.59
   8   6  -2    3.14    0.51
  -8  -6   2    2.89    0.40
  -8  -6   2    2.96    0.65
   7   6  -2   23.50    1.18
   7   6  -2   22.84    0.97
   7   6  -2   24.47    1.20
   7   6  -2   24.46    0.96
  -7  -6   2   23.65    0.81
  -7  -6   2   23.20    1.21
  -7  -6   2   23.35    1.11
  -7  -6   2   24.35    0.78
  -7  -6   2   22.67    0.71
   6   6  -2   21.52    1.08
   6   6  -2   21.25    1.09
   6   6  -2   22.13    0.91
   6   6  -2   22.42    0.94
   6   6  -2   20.89    0.72
  -6  -6   2   21.64    0.77
  -6  -6   2   20.87    1.11
  -6  -6   2   20.51    0.75
  -6  -6   2   22.77    0.83
  -6  -6   2   22.50    1.06
   5   6  -2   32.78    1.07
   5   6  -2   32.23    1.08
   5   6  -2   31.75    0.97
  -5  -6   2   31.77    0.91
  -5  -6   2   31.14    0.98
  -5  -6   2   32.06    1.22
  -5  -6   2   31.64    0.96
  -5  -6   2   31.99    1.01
   4   6  -2   47.49    1.32
   4   6  -2   47.38    1.26
   4   6  -2   48.95    1.43
   4   6  -2   50.93    1.36
   4   6  -2   48.90    1.48
  -4  -6   2   49.59    1.44
  -4  -6   2   49.10    1.29
  -4  -6   2   48.93    1.20
  -4  -6   2   50.61    1.31
  -4  -6   2   46.41    1.27
   3   6  -2   14.06    0.80
   3   6  -2   11.93    0.84
   3   6  -2   13.55    0.79
   3   6  -2   13.76    0.75
   3   6  -2   14.00    0.80
  -3  -6   2   13.82    0.78
  -3  -6   2   13.77    0.75
  -3  -6   2   13.40    0.86
  -3  -6   2   13.17    0.74
   2   6  -2   49.04    1.36
   2   6  -2   49.13    1.05
   2   6  -2   51.66    1.40
   2   6  -2   50.73    1.44
  -2  -6   2   48.79    1.46
  -2  -6   2   50.34    1.38
  -2  -6   2   50.28    1.44
  -2  -6   2   49.82    1.38
   1   6  -2   -0.22    0.33
   1   6  -2    0.03    0.36
   1   6  -2    0.26    0.43
   1   6  -2    0.22    0.31
   1   6  -2   -0.02    0.31
   1   6  -2    0.49    0.39
  -1  -6   2   -0.23    0.36
  -1  -6   2    0.52    0.43
  -1  -6   2   -0.17    0.33
  -1  -6   2    0.39    0.40
  -1  -6   2    0.52    0.38
   0   6  -2   45.09    1.23
   0   6  -2   45.22    1.19
   0   6  -2   44.80    1.34
   0   6  -2   44.78    1.37
   0   6  -2   46.45    1.56
   0  -6   2   44.73    1.40
   0  -6   2   45.02    1.38
   0  -6   2   43.22    1.22
   0  -6   2   42.18    1.38
   0  -6   2   43.84    1.49
   0  -6   2   44.32    1.50
  -1   6  -2   16.32    1.19
  -1   6  -2   17.07    0.83
  -1   6  -2   16.66    0.88
  -1   6  -2   17.96    0.97
  -1   6  -2   17.04    1.10
  -1   6  -2   17.67    0.91
   1  -6   2   16.99    0.83
   1  -6   2   17.65    1.21
   1  -6   2   18.18    1.14
   1  -6   2   16.34    1.02
   1  -6   2   16.22    1.02
   1  -6   2   18.09    0.98
  -2   6  -2   26.30    1.16
  -2   6  -2   23.43    1.29
  -2   6  -2   24.04    0.95
  -2   6  -2   26.42    1.09
  -2   6  -2   24.93    1.12
   2  -6   2   26.14    1.43
   2  -6   2   26.98    1.38
   2  -6   2   24.94    1.25
   2  -6   2   26.38    1.18
   2  -6   2   24.73    1.31
   2  -6   2   25.49    0.95
  -3   6  -2    5.70    0.79
  -3   6  -2    6.29    0.72
  -3   6  -2    7.05    0.95
  -3   6  -2    7.24    0.86
   3  -6   2    6.52    0.78
   3  -6   2    6.44    0.83
   3  -6   2    7.53    0.90
   3  -6   2    8.93    0.76
   3  -6   2    8.82    1.16
   3  -6   2    6.49    0.88
  -4   6  -2    3.61    0.75
  -4   6  -2    1.99    0.66
  -4   6  -2    3.58    0.79
   4  -6   2    3.02    0.83
   4  -6   2    3.34    0.75
   4  -6   2    3.61    0.86
  11   5  -2   24.95    1.73
  11   5  -2   24.09    1.42
  11   5  -2   24.12    1.65
 -11  -5   2   25.39    1.58
 -11  -5   2   20.64    1.43
  10   5  -2    1.85    0.70
  10   5  -2    1.96    0.67
  10   5  -2    2.68    0.50
  10   5  -2    2.36    0.59
 -10  -5   2    3.30    0.65
 -10  -5   2    1.42    0.72
 -10  -5   2    4.48    0.78
   9   5  -2    1.48    0.46
   9   5  -2    0.20    0.56
   9   5  -2    0.48    0.38
   9   5  -2    0.66    0.43
   9   5  -2    1.08    0.57
  -9  -5   2    1.09    0.51
  -9  -5   2    1.88    0.49
  -9  -5   2    0.56    0.56
   8   5  -2    1.95    0.40
   8   5  -2    0.52    0.39
   8   5  -2    1.65    0.52
   8   5  -2    1.26    0.39
   8   5  -2    1.05    0.53
  -8  -5   2    0.65    0.48
  -8  -5   2    0.77    0.54
  -8  -5   2    1.52    0.40
  -8  -5   2    1.19    0.55
   7   5  -2   25.29    0.89
   7   5  -2   25.16    1.16
   7   5  -2   22.44    1.08
   7   5  -2   24.31    0.87
   7   5  -2   24.69    0.89
  -7  -5   2   24.14    0.83
  -7  -5   2   25.02    1.03
  -7  -5   2   23.62    1.15
   6   5  -2   42.12    1.34
   6   5  -2   42.87    1.15
   6   5  -2   43.16    1.15
   6   5  -2   43.08    1.73
  -6  -5   2   42.34    1.01
  -6  -5   2   40.88    1.04
  -6  -5   2   41.96    1.27
  -6  -5   2   42.76    1.35
  -6  -5   2   41.33    0.97
   5   5  -2    0.09    0.22
   5   5  -2   -0.29    0.25
   5   5  -2    0.65    0.35
   5   5  -2    0.37    0.29
   5   5  -2    0.49    0.31
  -5  -5   2   -0.01    0.34
  -5  -5   2    0.25    0.25
  -5  -5   2    0.06    0.25
  -5  -5   2    0.43    0.25
  -5  -5   2    0.32    0.35
   4   5  -2    7.26    0.54
   4   5  -2    7.15    0.51
   4   5  -2    7.34    0.64
   4   5  -2    7.54    0.65
   4   5  -2    7.02    0.56
  -4  -5   2    7.41    0.52
  -4  -5   2    6.68    0.48
  -4  -5   2    6.84    0.52
   3   5  -2    2.61    0.37
   3   5  -2    2.86    0.43
   3   5  -2    2.28    0.35
   3   5  -2    2.59    0.37
   3   5  -2    2.47    0.38
  -3  -5   2    2.87    0.34
  -3  -5   2    2.37    0.36
  -3  -5   2    2.43    0.41
  -3  -5   2    1.77    0.33
  -3  -5   2    2.72    0.36
   2   5  -2  100.11    2.06
   2   5  -2   93.73    2.38
   2   5  -2  102.12    2.09
   2   5  -2  102.37    2.14
   2   5  -2  102.44    2.07
   2   5  -2  104.55    1.80
  -2  -5   2  101.79    2.11
  -2  -5   2  101.58    2.06
  -2  -5   2   99.65    2.08
   1   5  -2  113.77    2.30
   1   5  -2  116.70    2.38
   1   5  -2  116.18    2.30
   1   5  -2  113.86    2.37
   1   5  -2  118.34    2.06
   1   5  -2  112.18    2.21
  -1  -5   2  117.00    2.32
  -1  -5   2  116.31    2.38
  -1  -5   2  113.25    2.36
  -1  -5   2  112.91    2.22
  -1  -5   2  112.29    2.29
   0   5  -2   54.73    1.30
   0   5  -2   57.21    1.42
   0   5  -2   57.62    1.31
   0   5  -2   55.97    1.41
   0   5  -2   55.38    1.54
   0  -5   2   55.96    1.44
   0  -5   2   57.70    1.53
   0  -5   2   57.45    1.32
   0  -5   2   57.97    1.57
   0  -5   2   57.58    1.46
  -1   5  -2  103.59    2.11
  -1   5  -2  104.46    2.14
  -1   5  -2  100.43    1.97
  -1   5  -2  101.14    2.11
  -1   5  -2  101.28    2.33
   1  -5   2   94.42    2.54
   1  -5   2  101.46    2.27
   1  -5   2   86.47    2.68
   1  -5   2  103.64    2.30
   1  -5   2   98.78    1.93
   1  -5   2  102.04    2.17
  -2   5  -2    8.96    1.00
  -2   5  -2   11.11    0.78
  -2   5  -2    9.93    0.70
  -2   5  -2   11.22    0.93
  -2   5  -2   10.71    0.65
  -2   5  -2   11.58    0.76
   2  -5   2   10.20    0.77
   2  -5   2   10.53    0.62
   2  -5   2   10.11    0.96
   2  -5   2   11.70    0.90
   2  -5   2    8.84    0.81
   2  -5   2   10.01    1.00
  -3   5  -2   32.93    1.12
  -3   5  -2   34.41    1.30
  -3   5  -2   36.44    1.19
  -3   5  -2   32.24    1.41
   3  -5   2   33.21    1.44
   3  -5   2   33.89    0.95
   3  -5   2   36.21    1.27
   3  -5   2   33.02    1.45
   3  -5   2   36.78    1.47
   3  -5   2   35.02    1.32
  -4   5  -2   27.30    1.52
  -4   5  -2   26.89    1.41
  -4   5  -2   29.67    1.14
  -4   5  -2   26.54    1.31
  -4   5  -2   28.22    1.05
   4  -5   2   29.12    1.49
   4  -5   2   30.55    1.52
   4  -5   2   30.18    1.35
   4  -5   2   29.55    1.49
   4  -5   2   27.18    1.23
  -5   5  -2    9.76    0.83
  -5   5  -2    7.31    0.67
  -5   5  -2    9.91    1.18
   5  -5   2    9.94    1.34
   5  -5   2    8.33    0.85
   5  -5   2   10.01    1.09
   5  -5   2    9.95    1.23
  11   4  -2    2.17    0.78
  11   4  -2    2.71    0.83
  11   4  -2    1.84    0.80
 -11  -4   2    2.35    0.78
 -11  -4   2    0.43    0.79
  10   4  -2    3.83    0.76
  10   4  -2    2.08    0.63
  10   4  -2    1.81    0.46
  10   4  -2    2.49    0.51
  10   4  -2    2.09    0.65
 -10  -4   2    1.40    0.61
 -10  -4   2    2.35    0.67
   9   4  -2   12.34    0.75
   9   4  -2   12.15    1.11
   9   4  -2   11.36    0.72
   9   4  -2   11.41    0.93
   9   4  -2   10.22    1.05
  -9  -4   2   12.68    0.87
  -9  -4   2   11.75    0.95
  -9  -4   2    9.75    1.09
   8   4  -2  134.65    2.54
   8   4  -2  135.34    2.98
   8   4  -2  138.05    2.54
   8   4  -2  136.37    2.72
   8   4  -2  137.34    2.94
  -8  -4   2  130.68    2.98
  -8  -4   2  132.20    2.66
  -8  -4   2  143.67    2.97
  -8  -4   2  136.31    2.70
   7   4  -2    0.25    0.30
   7   4  -2    0.39    0.34
   7   4  -2    0.16    0.40
  -7  -4   2    0.37    0.35
  -7  -4   2    0.07    0.31
  -7  -4   2   -0.21    0.40
  -7  -4   2   -0.09    0.39
   6   4  -2   66.65    1.48
   6   4  -2   64.05    1.71
   6   4  -2   66.33    1.44
   6   4  -2   66.73    1.45
   6   4  -2   68.11    1.68
  -6  -4   2   68.33    1.67
  -6  -4   2   65.73    1.43
  -6  -4   2   66.50    1.54
  -6  -4   2   66.42    1.72
   5   4  -2    2.05    0.30
   5   4  -2    1.49    0.36
   5   4  -2    2.11    0.31
   5   4  -2    1.94    0.38
   5   4  -2    1.95    0.31
  -5  -4   2    1.72    0.25
  -5  -4   2    0.78    0.32
  -5  -4   2    1.65    0.28
  -5  -4   2    1.90    0.36
  -5  -4   2    1.82    0.26
   4   4  -2   25.87    0.80
   4   4  -2   26.73    0.68
   4   4  -2   27.33    0.94
   4   4  -2   25.46    0.90
   4   4  -2   25.12    0.79
  -4  -4   2   27.18    0.92
  -4  -4   2   26.54    0.77
  -4  -4   2   26.15    0.75
  -4  -4   2   26.43    0.68
  -4  -4   2   26.00    0.75
   3   4  -2  148.69    2.59
   3   4  -2  150.73    2.69
   3   4  -2  147.42    2.67
   3   4  -2  151.66    2.78
   3   4  -2  148.21    2.77
  -3  -4   2  149.51    2.60
  -3  -4   2  151.25    2.77
  -3  -4   2  146.70    2.59
  -3  -4   2  149.18    2.65
  -3  -4   2  148.82    2.65
   2   4  -2    2.86    0.34
   2   4  -2    2.99    0.34
   2   4  -2    3.41    0.45
   2   4  -2    2.82    0.34
   2   4  -2    2.84    0.38
  -2  -4   2    3.02    0.37
  -2  -4   2    2.33    0.31
  -2  -4   2    3.38    0.36
  -2  -4   2    3.99    0.43
   1   4  -2  142.05    2.66
   1   4  -2  141.26    2.59
   1   4  -2  143.89    2.42
   1   4  -2  140.40    2.63
   1   4  -2  141.42    2.55
   1   4  -2  141.81    2.60
  -1  -4   2  142.25    2.60
  -1  -4   2  141.75    2.66
  -1  -4   2  140.87    2.54
  -1  -4   2  140.77    2.65
   0   4  -2    5.95    0.45
   0   4  -2    4.89    0.54
   0   4  -2    5.44    0.49
   0   4  -2    4.64    0.46
   0   4  -2    5.83    0.57
   0   4  -2    4.97    0.41
   0  -4   2    5.21    0.50
   0  -4   2    5.41    0.58
   0  -4   2    4.32    0.55
   0  -4   2    6.37    0.44
   0  -4   2    5.37    0.49
  -1   4  -2    6.66    0.51
  -1   4  -2    6.23    0.56
  -1   4  -2    6.57    0.44
  -1   4  -2    5.79    0.53
   1  -4   2    5.90    0.54
   1  -4   2    7.04    0.79
   1  -4   2    5.52    0.63
   1  -4   2    5.91    0.43
   1  -4   2    6.36    0.54
  -2   4  -2   75.27    1.50
  -2   4  -2   78.07    1.91
  -2   4  -2   75.23    1.88
  -2   4  -2   76.37    1.65
  -2   4  -2   74.66    1.64
  -2   4  -2   75.07    1.76
   2  -4   2   77.67    1.83
   2  -4   2   77.39    1.72
   2  -4   2   74.53    1.71
   2  -4   2   76.22    1.91
   2  -4   2   74.23    1.44
   2  -4   2   77.63    1.88
  -3   4  -2   31.40    0.96
  -3   4  -2   31.50    0.99
  -3   4  -2   31.53    1.18
  -3   4  -2   30.46    1.27
  -3   4  -2   30.51    1.22
   3  -4   2   31.40    0.78
   3  -4   2   30.56    1.20
   3  -4   2   30.94    1.26
   3  -4   2   31.54    1.09
   3  -4   2   32.76    1.27
   3  -4   2   31.38    1.22
  -4   4  -2   94.68    1.92
  -4   4  -2   94.75    1.93
  -4   4  -2   93.97    2.37
  -4   4  -2   94.59    2.40
  -4   4  -2   92.41    2.30
   4  -4   2   89.49    2.36
   4  -4   2   97.01    2.15
   4  -4   2   97.54    2.33
   4  -4   2   92.93    2.40
   4  -4   2   94.87    2.12
  -5   4  -2    0.30    0.39
  -5   4  -2    0.18    0.54
  -5   4  -2    0.50    0.54
  -5   4  -2   -0.10    0.32
   5  -4   2    0.04    0.60
   5  -4   2    0.09    0.46
   5  -4   2    0.47    0.55
   5  -4   2   -0.09    0.63
   5  -4   2    1.01    0.60
  -6   4  -2    0.94    0.63
  -6   4  -2    1.34    0.62
   6  -4   2    1.78    0.71
   6  -4   2    0.81    0.57
   6  -4   2    1.12    0.72
   6  -4   2    1.13    0.73
  11   3  -2    1.15    0.80
  11   3  -2   -0.28    0.81
  11   3  -2   -0.07    0.74
 -11  -3   2    0.98    0.67
  10   3  -2    1.30    0.68
  10   3  -2    0.24    0.46
  10   3  -2    0.83    0.65
  10   3  -2    0.36    0.43
  10   3  -2    1.54    0.64
 -10  -3   2   -0.19    0.67
 -10  -3   2    0.83    0.61
   9   3  -2   33.81    1.06
   9   3  -2   33.23    1.05
   9   3  -2   31.39    1.59
   9   3  -2   35.92    1.50
  -9  -3   2   36.13    1.39
  -9  -3   2   33.96    1.50
   8   3  -2  205.71    3.80
   8   3  -2  203.39    3.50
   8   3  -2  198.71    3.46
   8   3  -2  204.68    3.94
  -8  -3   2  194.69    4.04
  -8  -3   2  206.60    3.62
  -8  -3   2  200.10    4.00
   7   3  -2    4.23    0.47
   7   3  -2    4.27    0.56
   7   3  -2    5.36    0.49
   7   3  -2    4.53    0.50
  -7  -3   2    4.79    0.60
  -7  -3   2    4.17    0.52
  -7  -3   2    4.65    0.54
  -7  -3   2    4.63    0.62
   6   3  -2   11.97    0.55
   6   3  -2   13.61    0.68
   6   3  -2   14.50    0.77
   6   3  -2   12.98    0.56
  -6  -3   2   12.39    0.65
  -6  -3   2   12.54    0.61
  -6  -3   2   11.31    1.26
  -6  -3   2   11.98    0.79
   5   3  -2    1.34    0.29
   5   3  -2    1.45    0.33
   5   3  -2    1.43    0.26
   5   3  -2    1.30    0.26
  -5  -3   2    1.34    0.29
  -5  -3   2    1.30    0.20
  -5  -3   2    1.15    0.33
  -5  -3   2    1.71    0.37
  -5  -3   2    1.40    0.18
  -5  -3   2    1.53    0.28
   4   3  -2  100.80    1.87
   4   3  -2   99.96    1.86
   4   3  -2  102.24    2.02
   4   3  -2  100.87    1.87
  -4  -3   2   98.07    1.85
  -4  -3   2  102.56    2.16
  -4  -3   2  101.86    1.81
  -4  -3   2  100.89    2.01
  -4  -3   2  100.45    1.79
  -4  -3   2   98.13    1.93
   3   3  -2  456.14    7.11
   3   3  -2  452.93    6.97
   3   3  -2  450.81    7.12
   3   3  -2  450.08    7.22
   3   3  -2  447.59    7.24
  -3  -3   2  454.93    7.21
  -3  -3   2  457.16    7.08
  -3  -3   2  448.13    6.97
  -3  -3   2  448.49    7.08
  -3  -3   2  454.11    7.07
   2   3  -2    1.12    0.24
   2   3  -2    1.34    0.25
   2   3  -2    1.37    0.27
   2   3  -2    1.50    0.24
   2   3  -2    1.15    0.25
  -2  -3   2    1.50    0.26
  -2  -3   2    1.27    0.24
  -2  -3   2    1.63    0.26
  -2  -3   2    1.23    0.28
  -2  -3   2    1.10    0.23
   1   3  -2  252.83    4.17
   1   3  -2  254.32    4.19
   1   3  -2  256.80    4.23
   1   3  -2  251.17    4.17
   1   3  -2  254.71    4.14
  -1  -3   2  254.29    4.19
  -1  -3   2  255.13    4.17
  -1  -3   2  252.37    4.17
  -1  -3   2  252.37    4.22
   0   3  -2    0.15    0.25
   0   3  -2    0.17    0.23
   0   3  -2    0.10    0.17
   0   3  -2   -0.23    0.21
   0   3  -2   -0.13    0.18
   0   3  -2    0.21    0.22
   0  -3   2    0.02    0.21
   0  -3   2   -0.08    0.20
   0  -3   2   -0.08    0.17
   0  -3   2    0.06    0.25
   0  -3   2   -0.20    0.24
  -1   3  -2   26.72    0.66
  -1   3  -2   26.70    0.78
  -1   3  -2   28.13    0.83
  -1   3  -2   26.71    0.78
  -1   3  -2   27.83    0.94
   1  -3   2   27.27    0.81
   1  -3   2   27.10    0.80
   1  -3   2   27.44    0.66
   1  -3   2   26.67    0.92
   1  -3   2   26.73    0.88
  -2   3  -2  265.96    4.35
  -2   3  -2  259.79    4.33
  -2   3  -2  267.59    4.61
  -2   3  -2  260.39    4.17
  -2   3  -2  264.39    4.57
  -2   3  -2  263.16    4.49
   2  -3   2  263.57    4.61
   2  -3   2  265.45    4.51
   2  -3   2  256.28    4.39
   2  -3   2  261.57    4.41
   2  -3   2  262.06    4.15
  -3   3  -2    7.40    0.47
  -3   3  -2    6.62    0.68
  -3   3  -2    7.82    0.73
  -3   3  -2    6.69    0.49
  -3   3  -2    7.77    0.69
   3  -3   2    7.50    0.55
   3  -3   2    8.66    0.73
   3  -3   2    8.41    0.57
   3  -3   2    7.44    0.69
   3  -3   2    8.32    0.72
   3  -3   2    6.98    0.36
  -4   3  -2   69.64    1.83
  -4   3  -2   70.27    1.44
  -4   3  -2   68.72    1.84
  -4   3  -2   68.87    1.43
   4  -3   2   67.59    1.59
   4  -3   2   69.02    1.29
   4  -3   2   70.30    1.87
   4  -3   2   71.13    1.64
   4  -3   2   73.03    1.81
   4  -3   2   68.81    1.86
  -5   3  -2   15.44    1.11
  -5   3  -2   15.13    1.06
  -5   3  -2   15.72    1.04
   5  -3   2   16.00    0.95
   5  -3   2   17.42    1.11
   5  -3   2   16.79    0.87
   5  -3   2   15.10    1.07
  -6   3  -2   40.97    1.67
  -6   3  -2   41.85    1.63
   6  -3   2   43.18    1.39
   6  -3   2   42.20    1.33
   6  -3   2   39.90    1.66
   6  -3   2   42.49    1.66
  -7   3  -2   18.16    1.60
  -7   3  -2   14.40    1.26
   7  -3   2   16.92    1.41
   7  -3   2   17.20    1.07
   7  -3   2   14.94    1.17
   7  -3   2   15.37    1.42
  10   2  -2   17.10    1.01
  10   2  -2   16.33    1.38
  10   2  -2   15.85    0.97
  10   2  -2   17.50    1.37
  10   2  -2   16.81    0.93
 -10  -2   2   17.91    1.36
   9   2  -2    8.61    0.68
   9   2  -2    7.55    0.83
   9   2  -2    7.12    0.72
   9   2  -2   10.34    0.78
   9   2  -2    8.01    0.86
  -9  -2   2    8.82    1.06
  -9  -2   2    6.52    0.79
   8   2  -2  135.45    2.59
   8   2  -2  143.26    3.00
   8   2  -2  141.37    2.92
   8   2  -2  134.14    2.52
   8   2  -2  135.19    2.53
  -8  -2   2  139.39    2.89
  -8  -2   2  135.43    3.03
   7   2  -2    3.10    0.49
   7   2  -2    3.92    0.46
   7   2  -2    3.74    0.46
   7   2  -2    4.66    0.51
   7   2  -2    3.46    0.49
  -7  -2   2    3.79    0.50
  -7  -2   2    3.13    0.55
   6   2  -2    9.68    0.49
   6   2  -2   10.49    0.70
   6   2  -2    9.08    0.47
   6   2  -2    9.69    0.64
   6   2  -2   10.36    0.53
  -6  -2   2    9.54    0.75
  -6  -2   2    9.18    0.62
  -6  -2   2    9.20    0.52
   5   2  -2   25.71    0.70
   5   2  -2   24.62    0.82
   5   2  -2   23.73    0.87
   5   2  -2   26.78    0.70
  -5  -2   2   27.68    0.92
  -5  -2   2   24.34    0.80
  -5  -2   2   24.49    0.71
  -5  -2   2   25.56    0.94
   4   2  -2    7.14    0.39
   4   2  -2    6.99    0.48
   4   2  -2    7.08    0.40
   4   2  -2    5.72    0.50
  -4  -2   2    7.00    0.53
  -4  -2   2    6.62    0.31
  -4  -2   2    6.30    0.41
  -4  -2   2    6.40    0.34
  -4  -2   2    6.43    0.46
  -4  -2   2    6.79    0.55
   3   2  -2  466.09    7.23
   3   2  -2  456.54    7.20
   3   2  -2  464.03    7.19
   3   2  -2  449.42    7.30
  -3  -2   2  468.90    7.16
  -3  -2   2  464.22    7.22
  -3  -2   2  458.09    7.30
  -3  -2   2  469.88    7.35
  -3  -2   2  464.76    7.15
   2   2  -2   54.52    1.09
   2   2  -2   52.07    1.13
   2   2  -2   52.30    1.08
   2   2  -2   54.19    0.98
  -2  -2   2   52.62    1.07
  -2  -2   2   52.53    1.06
  -2  -2   2   52.86    1.14
  -2  -2   2   53.45    0.98
  -2  -2   2   52.74    1.09
   1   2  -2  133.69    2.29
   1   2  -2  133.05    2.32
   1   2  -2  135.59    2.28
   1   2  -2  133.99    2.29
   1   2  -2  134.98    2.29
  -1  -2   2  134.52    2.29
  -1  -2   2  133.71    2.29
  -1  -2   2  132.97    2.27
   0   2  -2    0.67    0.20
   0   2  -2    0.88    0.23
   0   2  -2    0.75    0.15
   0   2  -2    1.02    0.21
   0   2  -2    0.54    0.18
   0   2  -2    0.84    0.23
   0  -2   2    0.20    0.20
   0  -2   2    0.57    0.22
   0  -2   2    0.63    0.20
   0  -2   2    0.56    0.20
  -1   2  -2  144.87    2.49
  -1   2  -2  145.57    2.63
  -1   2  -2  143.72    2.34
  -1   2  -2  154.44    2.57
  -1   2  -2  147.40    2.50
   1  -2   2  143.67    2.51
   1  -2   2  147.22    2.56
   1  -2   2  145.84    2.63
   1  -2   2  144.19    2.51
   1  -2   2  144.37    2.34
  -2   2  -2  191.01    3.44
  -2   2  -2  197.49    3.23
  -2   2  -2  199.19    3.41
  -2   2  -2  200.16    3.41
  -2   2  -2  194.06    3.22
   2  -2   2  196.03    3.36
   2  -2   2  195.44    3.27
   2  -2   2  192.96    3.45
   2  -2   2  187.12    3.26
  -3   2  -2    4.57    0.56
  -3   2  -2    3.87    0.34
  -3   2  -2    4.82    0.36
  -3   2  -2    3.87    0.45
  -3   2  -2    4.18    0.54
   3  -2   2    4.52    0.50
   3  -2   2    4.13    0.40
   3  -2   2    4.62    0.42
   3  -2   2    4.39    0.55
  -4   2  -2    0.03    0.34
  -4   2  -2   -0.09    0.34
  -4   2  -2   -0.11    0.18
  -4   2  -2   -0.33    0.16
  -4   2  -2   -0.36    0.31
   4  -2   2   -0.11    0.32
   4  -2   2    0.06    0.32
   4  -2   2    0.12    0.27
   4  -2   2    0.04    0.25
  -5   2  -2    0.37    0.41
  -5   2  -2    0.44    0.42
  -5   2  -2    0.75    0.44
   5  -2   2    0.50    0.30
   5  -2   2    0.57    0.48
   5  -2   2    0.84    0.33
   5  -2   2    0.60    0.41
   5  -2   2    0.38    0.21
  -6   2  -2   72.71    2.03
  -6   2  -2   78.57    2.08
  -6   2  -2   75.76    2.15
   6  -2   2   73.74    1.68
   6  -2   2   75.76    2.04
   6  -2   2   75.86    1.71
   6  -2   2   74.88    2.10
  -7   2  -2   45.98    2.08
  -7   2  -2   42.98    1.65
  -7   2  -2   42.28    1.74
   7  -2   2   39.39    1.56
   7  -2   2   44.20    1.72
   7  -2   2   44.76    1.67
   7  -2   2   46.37    1.35
   7  -2   2   40.84    1.05
  -8   2  -2   23.69    1.71
  -8   2  -2   22.90    1.44
   8  -2   2   23.01    1.22
   8  -2   2   24.46    1.56
   8  -2   2   24.90    1.14
   8  -2   2   20.66    1.46
  10   1  -2   40.82    1.78
  10   1  -2   47.14    1.95
  10   1  -2   46.82    1.88
  10   1  -2   46.24    1.34
  10   1  -2   47.58    1.41
 -10  -1   2   49.66    1.97
   9   1  -2   10.55    0.80
   9   1  -2   10.64    0.79
   9   1  -2   10.02    0.74
   9   1  -2   10.31    1.16
   9   1  -2   10.39    1.14
   9   1  -2    9.89    0.74
  -9  -1   2    9.96    1.13
  -9  -1   2    8.22    0.93
   8   1  -2   25.66    0.91
   8   1  -2   25.37    0.86
   8   1  -2   26.70    1.24
   8   1  -2   26.33    0.87
   8   1  -2   26.69    0.92
   8   1  -2   26.57    1.25
  -8  -1   2   24.81    1.21
  -8  -1   2   26.15    1.28
   7   1  -2    3.97    0.52
   7   1  -2    4.39    0.45
   7   1  -2    4.19    0.49
   7   1  -2    3.99    0.41
   7   1  -2    4.56    0.46
   7   1  -2    3.50    0.51
  -7  -1   2    4.40    0.59
  -7  -1   2    4.59    0.56
  -7  -1   2    3.30    0.45
   6   1  -2   30.54    1.04
   6   1  -2   29.83    0.81
   6   1  -2   30.37    0.80
   6   1  -2   30.06    0.81
   6   1  -2   30.64    1.07
   6   1  -2   29.91    0.74
  -6  -1   2   31.06    0.76
  -6  -1   2   31.57    1.13
  -6  -1   2   31.56    1.04
   5   1  -2   49.93    1.04
   5   1  -2   49.43    1.05
   5   1  -2   51.13    1.31
   5   1  -2   50.79    0.95
   5   1  -2   52.51    1.28
   5   1  -2   49.91    1.06
  -5  -1   2   50.58    1.34
  -5  -1   2   49.13    1.23
  -5  -1   2   49.21    0.95
   4   1  -2  143.13    2.45
   4   1  -2  148.77    2.63
   4   1  -2  147.69    2.41
   4   1  -2  146.50    2.44
   4   1  -2  145.02    2.65
  -4  -1   2  145.99    2.69
  -4  -1   2  148.50    2.61
  -4  -1   2  140.99    2.40
  -4  -1   2  145.31    2.32
  -4  -1   2  144.23    2.32
   3   1  -2   58.07    1.11
   3   1  -2   56.31    1.10
   3   1  -2   57.03    1.23
   3   1  -2   57.99    1.21
  -3  -1   2   58.70    1.06
  -3  -1   2   59.37    1.28
  -3  -1   2   55.04    1.05
  -3  -1   2   57.15    1.19
  -3  -1   2   57.02    1.05
  -3  -1   2   58.06    1.24
   2   1  -2   11.18    0.46
   2   1  -2   10.81    0.40
   2   1  -2   10.96    0.40
   2   1  -2   10.59    0.45
  -2  -1   2   10.67    0.39
  -2  -1   2   10.05    0.38
  -2  -1   2   11.64    0.49
  -2  -1   2   11.68    0.46
   1   1  -2    2.97    0.27
   1   1  -2    3.31    0.31
   1   1  -2    2.82    0.33
   1   1  -2    3.08    0.24
   1   1  -2    2.91    0.28
  -1  -1   2    2.86    0.24
  -1  -1   2    2.82    0.27
  -1  -1   2    2.80    0.28
  -1  -1   2    3.17    0.31
  -1  -1   2    3.27    0.34
   0   1  -2  314.18    5.01
   0   1  -2  330.05    5.03
   0   1  -2  323.22    5.05
   0   1  -2  317.03    5.01
   0  -1   2  325.44    5.02
   0  -1   2  318.08    5.02
   0  -1   2  325.26    5.06
  -1   1  -2  270.48    4.27
  -1   1  -2  258.66    4.16
  -1   1  -2  264.87    4.29
  -1   1  -2  260.89    4.16
   1  -1   2  266.89    4.29
   1  -1   2  264.87    4.18
   1  -1   2  259.91    4.18
   1  -1   2  271.49    4.21
  -2   1  -2   14.68    0.61
  -2   1  -2   15.73    0.62
  -2   1  -2   15.79    0.45
  -2   1  -2   16.13    0.59
  -2   1  -2   15.32    0.43
   2  -1   2   15.71    0.63
   2  -1   2   15.86    0.48
   2  -1   2   14.05    0.47
  -3   1  -2    2.18    0.37
  -3   1  -2    2.11    0.24
  -3   1  -2    2.01    0.32
  -3   1  -2    2.10    0.23
  -3   1  -2    2.54    0.36
   3  -1   2    2.14    0.25
   3  -1   2    1.90    0.33
   3  -1   2    2.10    0.24
  -4   1  -2   18.40    0.84
  -4   1  -2   18.61    0.78
  -4   1  -2   17.52    0.78
   4  -1   2   17.10    0.57
   4  -1   2   17.22    0.57
   4  -1   2   18.52    0.80
   4  -1   2   17.99    0.80
   4  -1   2   17.43    0.51
  -5   1  -2   41.44    1.36
  -5   1  -2   41.79    1.25
   5  -1   2   41.55    0.99
   5  -1   2   40.68    0.93
   5  -1   2   43.11    1.00
   5  -1   2   40.21    1.26
   5  -1   2   43.56    1.32
  -6   1  -2   24.89    1.22
  -6   1  -2   23.13    1.09
  -6   1  -2   26.63    1.16
   6  -1   2   24.10    0.80
   6  -1   2   24.08    0.78
   6  -1   2   24.96    0.82
   6  -1   2   25.09    1.15
   6  -1   2   24.65    1.12
  -7   1  -2   66.07    1.90
  -7   1  -2   64.85    1.86
  -7   1  -2   63.22    2.01
   7  -1   2   60.84    1.44
   7  -1   2   60.73    1.43
   7  -1   2   63.06    1.83
   7  -1   2   60.73    1.42
   7  -1   2   61.02    1.90
  -8   1  -2    0.10    0.60
  -8   1  -2    1.06    0.69
  -8   1  -2    1.06    0.59
   8  -1   2    0.28    0.60
   8  -1   2   -0.64    0.40
   8  -1   2    0.31    0.77
   8  -1   2    0.23    0.43
   8  -1   2   -0.29    0.39
   8  -1   2   -0.06    0.38
   8  -1   2   -0.89    0.58
  -9   1  -2    4.74    0.82
   9  -1   2    4.01    0.66
   9  -1   2    4.07    0.83
   9  -1   2    5.44    0.64
   9  -1   2    6.32    1.08
   9  -1   2    6.29    1.00
  10   0  -2   25.96    1.78
  10   0  -2   27.36    1.84
  10   0  -2   27.23    1.26
  10   0  -2   26.53    1.72
  10   0  -2   30.37    1.25
   9   0  -2   10.54    1.27
   9   0  -2   12.48    1.30
   9   0  -2   12.15    0.85
   9   0  -2   11.91    0.84
   9   0  -2   12.00    0.92
   9   0  -2   13.85    1.40
  -9   0   2   10.50    1.26
  -9   0   2   11.96    1.21
   8   0  -2    3.62    0.48
   8   0  -2    3.37    0.47
   8   0  -2    4.98    0.61
   8   0  -2    3.52    0.49
   8   0  -2    3.27    0.64
   8   0  -2    3.13    0.61
  -8   0   2    3.37    0.51
  -8   0   2    2.73    0.59
  -8   0   2    2.75    0.62
   7   0  -2   29.42    0.91
   7   0  -2   27.27    0.92
   7   0  -2   28.76    0.88
   7   0  -2   27.66    0.86
   7   0  -2   28.34    1.21
   7   0  -2   28.62    1.21
  -7   0   2   27.36    1.23
  -7   0   2   28.10    1.21
  -7   0   2   28.04    0.94
   6   0  -2   60.22    1.27
   6   0  -2   62.45    1.30
   6   0  -2   60.17    1.61
   6   0  -2   61.81    1.61
   6   0  -2   61.04    1.33
   6   0  -2   59.87    1.31
  -6   0   2   58.45    1.32
  -6   0   2   61.80    1.61
  -6   0   2   61.87    1.68
   5   0  -2  161.09    3.02
   5   0  -2  161.61    2.75
   5   0  -2  157.40    2.73
   5   0  -2  160.97    2.73
   5   0  -2  158.92    2.68
   5   0  -2  162.68    3.03
  -5   0   2  157.19    2.73
  -5   0   2  164.01    3.02
  -5   0   2  162.59    3.09
   4   0  -2  158.09    2.61
   4   0  -2  159.01    2.84
   4   0  -2  153.69    2.58
   4   0  -2  154.58    2.53
   4   0  -2  156.66    2.83
   4   0  -2  156.82    2.62
  -4   0   2  158.46    2.83
  -4   0   2  150.22    2.57
  -4   0   2  153.25    2.48
   3   0  -2   44.04    0.85
   3   0  -2   44.33    0.92
   3   0  -2   45.28    1.06
   3   0  -2   43.96    0.79
   3   0  -2   45.14    0.91
   3   0  -2   45.76    1.06
  -3   0   2   44.52    0.85
  -3   0   2   43.94    0.86
  -3   0   2   44.97    1.05
  -3   0   2   42.66    0.85
   2   0  -2  135.02    2.32
   2   0  -2  132.24    2.30
   2   0  -2  134.38    2.23
   2   0  -2  131.00    2.22
  -2   0   2  135.62    2.20
  -2   0   2  137.06    2.34
  -2   0   2  138.69    2.32
  -2   0   2  137.53    2.14
  -2   0   2  132.47    2.20
   1   0  -2   86.56    1.50
   1   0  -2   89.00    1.53
   1   0  -2   90.36    1.57
  -1   0   2   90.72    1.57
  -1   0   2   91.37    1.54
  -1   0   2   84.53    1.49
  -1   0   2   87.09    1.52
   0   0  -2  639.68    9.70
  -1   0  -2  263.43    4.02
  -1   0  -2  268.96    4.21
  -1   0  -2  261.12    4.09
  -1   0  -2  266.22    4.09
   1   0   2  262.46    4.10
   1   0   2  277.26    4.10
   1   0   2  258.33    4.10
   1   0   2  264.76    4.21
  -2   0  -2   41.92    0.86
  -2   0  -2   41.37    0.95
  -2   0  -2   43.57    0.98
   2   0   2   41.52    0.77
   2   0   2   41.87    0.95
   2   0   2   40.31    0.78
  -3   0  -2    0.35    0.22
  -3   0  -2    0.92    0.27
  -3   0  -2    0.34    0.22
   3   0   2    0.56    0.14
   3   0   2    0.47    0.13
   3   0   2    0.50    0.12
   3   0   2    0.35    0.22
  -4   0  -2   -0.04    0.27
  -4   0  -2    0.06    0.25
  -4   0  -2   -0.07    0.24
   4   0   2    0.28    0.15
   4   0   2    0.72    0.16
   4   0   2    0.07    0.26
   4   0   2    0.29    0.24
  -5   0  -2  256.02    4.56
  -5   0  -2  258.73    4.39
  -5   0  -2  255.68    4.40
   5   0   2  247.79    4.02
   5   0   2  252.94    4.44
   5   0   2  254.54    4.02
   5   0   2  249.33    4.37
  -6   0  -2   18.92    0.91
  -6   0  -2   19.03    1.04
  -6   0  -2   17.99    0.90
   6   0   2   18.47    0.92
   6   0   2   18.27    0.88
   6   0   2   17.82    0.90
   6   0   2   16.79    0.57
   6   0   2   18.46    0.59
  -7   0  -2   41.79    1.58
  -7   0  -2   43.50    1.43
  -7   0  -2   39.33    1.39
   7   0   2   40.87    1.00
   7   0   2   41.80    1.45
   7   0   2   41.21    0.99
   7   0   2   43.07    1.43
   7   0   2   41.23    1.11
   7   0   2   42.01    1.35
  -8   0  -2    3.17    0.70
  -8   0  -2    3.62    0.65
  -8   0  -2    4.88    0.71
   8   0   2    3.47    0.64
   8   0   2    4.15    0.52
   8   0   2    3.80    0.64
   8   0   2    3.26    0.42
   8   0   2    3.34    0.74
   8   0   2    3.34    0.41
   8   0   2    4.49    0.49
  -9   0  -2   -1.46    0.66
  -9   0  -2   -0.01    0.56
   9   0   2    1.06    0.63
   9   0   2    0.08    0.80
   9   0   2   -0.85    0.62
   9   0   2   -0.13    0.62
   9   0   2    0.22    0.39
   9   0   2    0.71    0.44
   9   0   2    0.77    0.52
   9   0   2    0.89    0.48
   9  -1  -2    4.18    0.68
   9  -1  -2    4.37    0.87
   9  -1  -2    4.85    0.84
   9  -1  -2    5.18    0.63
   9  -1  -2    6.17    0.68
   9  -1  -2    4.38    0.87
   9  -1  -2    4.68    0.69
  -9   1   2    5.93    0.83
  -9   1   2    4.20    0.78
   8  -1  -2   -0.24    0.43
   8  -1  -2   -0.84    0.53
   8  -1  -2    0.37    0.43
   8  -1  -2    0.76    0.49
   8  -1  -2    0.60    0.65
   8  -1  -2    0.72    0.61
   8  -1  -2    0.11    0.39
  -8   1   2    0.20    0.53
  -8   1   2   -0.29    0.51
   7  -1  -2   20.15    0.83
   7  -1  -2   20.16    0.82
   7  -1  -2   19.60    1.13
   7  -1  -2   19.76    1.19
   7  -1  -2   19.67    0.85
   7  -1  -2   20.98    1.16
   7  -1  -2   20.80    0.93
  -7   1   2   20.36    0.97
  -7   1   2   20.55    1.20
  -7   1   2   19.99    1.19
   6  -1  -2   74.35    1.58
   6  -1  -2   74.63    1.67
   6  -1  -2   73.40    1.54
   6  -1  -2   74.09    1.84
   6  -1  -2   72.74    1.56
  -6   1   2   74.19    1.91
  -6   1   2   72.17    1.92
  -6   1   2   72.67    1.66
   5  -1  -2   83.32    1.93
   5  -1  -2   83.02    1.86
   5  -1  -2   82.46    1.63
   5  -1  -2   80.72    1.58
   5  -1  -2   80.76    1.70
   5  -1  -2   83.46    1.65
  -5   1   2   84.84    1.72
  -5   1   2   82.31    1.95
   4  -1  -2   70.95    1.47
   4  -1  -2   71.43    1.63
   4  -1  -2   72.95    1.43
   4  -1  -2   71.12    1.60
   4  -1  -2   70.98    1.41
  -4   1   2   71.84    1.29
  -4   1   2   73.22    1.67
  -4   1   2   71.13    1.63
  -4   1   2   70.59    1.46
  -4   1   2   69.98    1.30
   3  -1  -2   28.10    0.71
   3  -1  -2   26.91    0.85
   3  -1  -2   27.26    0.69
   3  -1  -2   26.64    0.85
   3  -1  -2   27.00    0.73
  -3   1   2   27.59    0.64
  -3   1   2   26.23    0.72
  -3   1   2   25.84    0.84
  -3   1   2   27.71    0.66
  -3   1   2   28.47    0.88
   2  -1  -2  290.78    4.60
   2  -1  -2  276.07    4.47
   2  -1  -2  283.98    4.48
   2  -1  -2  279.26    4.47
   2  -1  -2  278.16    4.59
  -2   1   2  283.88    4.48
  -2   1   2  280.71    4.59
  -2   1   2  282.68    4.46
  -2   1   2  279.05    4.44
  -2   1   2  297.71    4.61
   1  -1  -2   18.80    0.39
   1  -1  -2   18.90    0.50
   1  -1  -2   19.16    0.51
   1  -1  -2   19.56    0.60
   1  -1  -2   19.35    0.51
  -1   1   2   19.28    0.50
  -1   1   2   19.27    0.51
  -1   1   2   19.76    0.55
  -1   1   2   19.61    0.51
  -1   1   2   19.72    0.57
   0  -1  -2  403.69    6.24
   0  -1  -2  411.02    6.31
   0  -1  -2  412.26    6.28
   0   1   2  410.50    6.28
   0   1   2  407.90    6.28
   0   1   2  415.38    6.31
   0   1   2  399.37    6.32
   0   1   2  425.32    6.25
   0   1   2  403.82    6.24
  -1  -1  -2   92.71    1.57
  -1  -1  -2  100.24    1.63
  -1  -1  -2   98.63    1.57
   1   1   2   97.35    1.59
   1   1   2   98.86    1.68
   1   1   2   99.35    1.63
   1   1   2   98.43    1.58
  -2  -1  -2  179.73    2.91
  -2  -1  -2  173.80    2.77
  -2  -1  -2  173.93    2.73
   2   1   2  173.12    2.77
   2   1   2  173.98    2.91
  -3  -1  -2  210.89    3.43
  -3  -1  -2  205.72    3.25
   3   1   2  200.07    3.21
   3   1   2  197.88    3.33
   3   1   2  192.86    3.38
  -4  -1  -2    4.53    0.45
  -4  -1  -2    3.79    0.51
   4   1   2    4.20    0.46
   4   1   2    3.83    0.42
   4   1   2    4.22    0.33
   4   1   2    4.17    0.42
  -5  -1  -2  305.73    5.24
  -5  -1  -2  305.46    5.06
  -5  -1  -2  312.99    5.05
   5   1   2  305.65    5.09
   5   1   2  294.88    4.89
   5   1   2  303.57    5.04
   5   1   2  302.07    5.12
  -6  -1  -2   81.32    1.78
  -6  -1  -2   77.57    1.95
  -6  -1  -2   82.51    1.81
   6   1   2   76.46    1.61
   6   1   2   78.56    1.73
   6   1   2   79.29    1.81
   6   1   2   77.41    1.82
  -7  -1  -2    2.02    0.55
  -7  -1  -2    1.60    0.45
   7   1   2    2.47    0.46
   7   1   2    2.30    0.36
   7   1   2    1.31    0.38
   7   1   2    2.15    0.42
   7   1   2    2.29    0.51
  -8  -1  -2   27.80    1.22
  -8  -1  -2   25.14    1.38
   8   1   2   26.55    1.24
   8   1   2   27.98    1.17
   8   1   2   28.09    1.14
   8   1   2   26.63    1.02
   8   1   2   28.61    1.28
  -9  -1  -2   19.86    1.22
   9   1   2   20.23    1.33
   9   1   2   21.81    1.18
   9   1   2   19.13    1.23
   9   1   2   19.30    1.37
   9   1   2   20.43    1.05
 -10  -1  -2   80.15    2.36
  10   1   2   80.87    2.37
  10   1   2   81.96    2.46
  10   1   2   81.02    1.70
  10   1   2   78.31    2.11
  10   1   2   81.21    2.08
  10   1   2   81.73    2.45
  10   1   2   82.27    2.23
   9  -2  -2    3.27    0.78
   9  -2  -2    3.61    1.00
   9  -2  -2    4.40    0.86
   9  -2  -2    4.11    1.22
   9  -2  -2    4.95    0.72
  -9   2   2    3.60    0.92
  -9   2   2    1.75    0.74
   8  -2  -2   10.93    1.04
   8  -2  -2   12.09    1.34
   8  -2  -2    8.63    1.04
   8  -2  -2   10.89    0.89
   8  -2  -2   11.75    1.34
   8  -2  -2    9.56    0.93
  -8   2   2    9.01    1.20
  -8   2   2    8.41    1.15
   7  -2  -2  124.06    2.76
   7  -2  -2  125.21    2.55
   7  -2  -2  120.01    2.47
   7  -2  -2  123.71    2.73
   7  -2  -2  129.70    2.99
  -7   2   2  120.31    2.95
  -7   2   2  128.09    2.73
   6  -2  -2   79.83    2.53
   6  -2  -2   83.44    1.95
   6  -2  -2   80.50    2.14
   6  -2  -2   82.86    1.79
   6  -2  -2   83.92    1.82
  -6   2   2   84.19    2.02
  -6   2   2   81.41    2.17
  -6   2   2   84.92    2.20
   5  -2  -2    3.23    0.49
   5  -2  -2    4.06    0.47
   5  -2  -2    3.92    0.55
   5  -2  -2    3.13    0.40
   5  -2  -2    4.12    0.49
  -5   2   2    3.97    0.36
  -5   2   2    4.16    0.48
  -5   2   2    3.75    0.52
  -5   2   2    3.42    0.54
  -5   2   2    3.69    0.35
   4  -2  -2    0.22    0.27
   4  -2  -2    0.54    0.25
   4  -2  -2   -0.21    0.27
   4  -2  -2    0.42    0.31
   4  -2  -2    0.10    0.24
  -4   2   2    0.10    0.29
  -4   2   2    0.25    0.19
  -4   2   2    0.05    0.27
  -4   2   2    0.16    0.19
  -4   2   2    0.43    0.32
   3  -2  -2    2.83    0.34
   3  -2  -2    1.93    0.36
   3  -2  -2    2.44    0.30
   3  -2  -2    2.80    0.31
   3  -2  -2    2.46    0.37
  -3   2   2    2.34    0.33
  -3   2   2    2.43    0.27
  -3   2   2    2.18    0.37
  -3   2   2    2.69    0.28
  -3   2   2    2.27    0.38
   2  -2  -2  373.66    5.96
   2  -2  -2  372.43    5.95
   2  -2  -2  388.10    6.06
   2  -2  -2  380.82    6.09
   2  -2  -2  372.96    6.01
  -2   2   2  378.39    6.08
  -2   2   2  382.45    6.02
  -2   2   2  370.65    5.91
  -2   2   2  372.92    5.93
   1  -2  -2   42.85    0.93
   1  -2  -2   44.52    0.98
   1  -2  -2   43.20    1.00
   1  -2  -2   43.93    1.01
  -1   2   2   45.18    0.99
  -1   2   2   44.22    0.93
  -1   2   2   45.56    0.94
  -1   2   2   47.28    1.02
  -1   2   2   42.89    0.99
  -1   2   2   44.63    1.03
   0  -2  -2  244.25    3.94
   0  -2  -2  246.95    4.00
   0  -2  -2  245.71    3.95
   0  -2  -2  253.29    4.00
   0  -2  -2  248.49    3.93
   0  -2  -2  245.46    3.94
   0   2   2  248.71    4.01
   0   2   2  247.04    3.95
   0   2   2  254.31    4.00
   0   2   2  248.55    3.95
   0   2   2  264.74    3.96
   0   2   2  241.93    3.94
  -1  -2  -2    4.37    0.27
  -1  -2  -2    4.40    0.26
  -1  -2  -2    4.55    0.26
  -1  -2  -2    4.30    0.32
  -1  -2  -2    3.68    0.24
  -1  -2  -2    4.43    0.34
   1   2   2    4.44    0.34
   1   2   2    3.80    0.26
   1   2   2    3.86    0.27
   1   2   2    4.03    0.25
   1   2   2    3.96    0.34
  -2  -2  -2   17.44    0.50
  -2  -2  -2   15.51    0.35
  -2  -2  -2   16.08    0.55
  -2  -2  -2   15.96    0.38
  -2  -2  -2   16.44    0.51
   2   2   2   15.69    0.50
   2   2   2   16.35    0.37
   2   2   2   16.10    0.55
   2   2   2   16.04    0.38
   2   2   2   16.02    0.39
  -3  -2  -2  189.87    3.10
  -3  -2  -2  205.60    3.27
  -3  -2  -2  198.65    3.22
  -3  -2  -2  196.83    3.12
  -3  -2  -2  193.01    3.30
   3   2   2  189.69    3.10
   3   2   2  197.67    3.21
   3   2   2  192.52    3.29
  -4  -2  -2   37.63    1.00
  -4  -2  -2   36.48    0.99
  -4  -2  -2   36.26    0.87
   4   2   2   35.85    0.97
   4   2   2   36.56    0.87
   4   2   2   36.32    0.84
   4   2   2   36.82    0.89
   4   2   2   34.92    0.82
  -5  -2  -2  129.58    2.83
  -5  -2  -2  143.47    2.49
   5   2   2  136.80    2.46
   5   2   2  136.10    2.58
   5   2   2  135.55    2.44
   5   2   2  135.36    2.44
   5   2   2  138.34    2.46
  -6  -2  -2   34.81    1.18
   6   2   2   36.26    1.00
   6   2   2   35.19    0.98
   6   2   2   35.30    1.11
   6   2   2   36.46    1.02
   6   2   2   37.17    1.04
  -7  -2  -2    0.36    0.44
  -7  -2  -2    0.53    0.36
   7   2   2    0.63    0.33
   7   2   2    0.25    0.31
   7   2   2    0.46    0.40
   7   2   2    0.56    0.31
   7   2   2    1.07    0.32
  -8  -2  -2   45.61    1.68
  -8  -2  -2   50.43    1.51
   8   2   2   47.11    1.35
   8   2   2   46.42    1.34
   8   2   2   48.13    1.48
   8   2   2   47.46    1.44
   8   2   2   47.83    1.51
  -9  -2  -2   -0.11    0.49
  -9  -2  -2    0.49    0.56
   9   2   2   -0.06    0.42
   9   2   2   -0.99    0.45
   9   2   2    0.95    0.44
   9   2   2   -0.62    0.47
   9   2   2    0.18    0.60
 -10  -2  -2   17.04    1.23
  10   2   2   15.77    1.36
  10   2   2   19.08    1.38
  10   2   2   16.31    1.31
  10   2   2   16.64    1.42
  10   2   2   18.09    1.16
   8  -3  -2   11.14    1.38
   8  -3  -2   14.58    1.11
   8  -3  -2   11.46    1.55
   8  -3  -2   11.50    1.16
   8  -3  -2   13.57    1.35
   8  -3  -2   14.41    1.32
  -8   3   2   13.19    1.80
   7  -3  -2   16.77    1.17
   7  -3  -2   12.58    0.95
   7  -3  -2   17.96    1.13
   7  -3  -2   15.18    1.31
   7  -3  -2   13.36    1.14
  -7   3   2   13.19    1.22
  -7   3   2   11.79    1.17
   6  -3  -2    8.61    0.83
   6  -3  -2    7.43    0.91
   6  -3  -2    7.96    0.91
   6  -3  -2    9.21    0.76
   6  -3  -2    7.60    1.01
  -6   3   2    8.42    0.94
  -6   3   2    8.68    0.97
   5  -3  -2    0.63    0.41
   5  -3  -2    0.71    0.33
   5  -3  -2    0.95    0.42
   5  -3  -2    0.37    0.44
   5  -3  -2    0.46    0.42
  -5   3   2    0.53    0.47
  -5   3   2    0.32    0.42
  -5   3   2   -0.23    0.40
  -5   3   2    0.42    0.26
  -5   3   2    0.50    0.28
   4  -3  -2   33.15    0.99
   4  -3  -2   33.68    1.20
   4  -3  -2   32.59    1.10
   4  -3  -2   33.38    1.12
   4  -3  -2   34.78    1.02
  -4   3   2   35.04    0.90
  -4   3   2   34.07    0.92
  -4   3   2   33.08    1.22
  -4   3   2   35.00    1.15
  -4   3   2   33.93    1.20
   3  -3  -2  112.42    2.16
   3  -3  -2  113.89    2.28
   3  -3  -2  111.54    2.16
   3  -3  -2  113.76    2.23
   3  -3  -2  110.06    2.33
  -3   3   2  111.72    2.36
  -3   3   2  111.92    2.10
  -3   3   2  113.60    2.08
  -3   3   2  112.41    2.34
  -3   3   2  114.39    2.28
   2  -3  -2  179.87    3.17
   2  -3  -2  181.97    3.25
   2  -3  -2  181.20    3.12
   2  -3  -2  179.55    3.22
   2  -3  -2  179.74    3.12
  -2   3   2  182.04    3.25
  -2   3   2  178.73    3.09
  -2   3   2  178.32    3.19
  -2   3   2  183.92    3.27
  -2   3   2  182.15    3.08
  -2   3   2  178.65    3.21
   1  -3  -2   59.34    1.30
   1  -3  -2   58.21    1.24
   1  -3  -2   58.99    1.31
   1  -3  -2   57.92    1.24
  -1   3   2   58.99    1.23
  -1   3   2   59.45    1.24
  -1   3   2   59.95    1.33
  -1   3   2   59.72    1.33
  -1   3   2   61.48    1.34
  -1   3   2   59.02    1.31
   0  -3  -2   48.85    1.05
   0  -3  -2   50.23    1.11
   0  -3  -2   48.57    1.05
   0  -3  -2   48.68    1.12
   0  -3  -2   49.58    1.05
   0   3   2   51.18    1.10
   0   3   2   49.86    1.05
   0   3   2   48.66    1.05
   0   3   2   49.41    1.12
   0   3   2   49.08    1.05
  -1  -3  -2    1.34    0.21
  -1  -3  -2    1.04    0.19
  -1  -3  -2    1.60    0.26
  -1  -3  -2    1.59    0.25
  -1  -3  -2    1.51    0.18
  -1  -3  -2    1.47    0.21
  -1  -3  -2    0.99    0.23
   1   3   2    1.40    0.21
   1   3   2    1.54    0.25
   1   3   2    1.35    0.18
   1   3   2    1.14    0.21
   1   3   2    1.37    0.21
  -2  -3  -2  144.17    2.30
  -2  -3  -2  147.32    2.42
  -2  -3  -2  148.29    2.41
  -2  -3  -2  147.42    2.58
  -2  -3  -2  155.08    2.39
  -2  -3  -2  146.41    2.42
   2   3   2  149.79    2.59
   2   3   2  147.45    2.44
   2   3   2  147.68    2.30
   2   3   2  146.53    2.42
   2   3   2  146.26    2.56
   2   3   2  147.93    2.43
  -3  -3  -2   29.81    0.68
  -3  -3  -2   28.93    0.83
  -3  -3  -2   30.59    0.73
  -3  -3  -2   30.19    0.81
   3   3   2   30.07    0.85
   3   3   2   29.22    0.67
   3   3   2   29.25    0.81
   3   3   2   28.59    0.62
   3   3   2   29.25    0.63
  -4  -3  -2  166.02    2.88
  -4  -3  -2  165.70    2.76
  -4  -3  -2  170.40    2.86
  -4  -3  -2  164.00    2.93
  -4  -3  -2  162.43    2.74
   4   3   2  162.85    2.92
   4   3   2  161.13    2.73
   4   3   2  162.86    2.88
   4   3   2  160.14    2.64
  -5  -3  -2   -0.22    0.27
  -5  -3  -2    0.41    0.30
  -5  -3  -2   -0.40    0.24
   5   3   2    0.15    0.19
   5   3   2    0.34    0.22
   5   3   2   -0.17    0.27
   5   3   2    0.03    0.17
  -6  -3  -2    0.11    0.29
  -6  -3  -2    0.17    0.31
  -6  -3  -2    0.09    0.32
   6   3   2    0.33    0.31
   6   3   2    0.72    0.25
   6   3   2    0.59    0.23
   6   3   2    0.39    0.26
   6   3   2    0.03    0.24
  -7  -3  -2   10.80    0.85
  -7  -3  -2   10.82    0.75
   7   3   2    9.15    0.62
   7   3   2    9.68    0.63
   7   3   2   10.46    0.68
   7   3   2   10.51    0.78
   7   3   2   10.75    0.68
  -8  -3  -2   98.72    2.23
  -8  -3  -2   99.30    2.43
   8   3   2   98.77    2.27
   8   3   2   97.23    2.04
   8   3   2   97.38    2.13
   8   3   2   97.31    2.16
   8   3   2   96.62    2.16
  -9  -3  -2    0.49    0.46
   9   3   2    0.66    0.45
   9   3   2    0.23    0.43
   9   3   2    0.74    0.58
   9   3   2    0.68    0.52
   9   3   2   -0.23    0.38
 -10  -3  -2   16.95    1.23
  10   3   2   14.32    1.09
  10   3   2   17.98    1.21
  10   3   2   15.64    1.00
  10   3   2   18.17    1.23
  10   3   2   18.85    1.41
 -11  -3  -2   -0.65    0.62
  11   3   2    1.04    0.75
  11   3   2   -1.07    0.58
  11   3   2    0.54    0.63
  11   3   2   -0.17    0.90
  11   3   2   -0.16    0.72
   7  -4  -2    1.47    0.62
   7  -4  -2   -0.31    0.75
   7  -4  -2    1.67    0.71
   7  -4  -2    1.84    0.73
   7  -4  -2    1.86    0.78
  -7   4   2   -0.59    0.74
  -7   4   2    0.97    0.66
   6  -4  -2    6.69    0.81
   6  -4  -2    5.72    0.84
   6  -4  -2    7.36    0.85
   6  -4  -2    5.95    0.74
   6  -4  -2    5.33    0.71
  -6   4   2    5.64    0.65
  -6   4   2    6.52    0.85
  -6   4   2    5.69    0.80
   5  -4  -2   22.49    1.26
   5  -4  -2   22.67    1.19
   5  -4  -2   25.36    1.11
   5  -4  -2   24.23    1.02
   5  -4  -2   24.75    1.30
  -5   4   2   23.10    0.87
  -5   4   2   25.71    1.26
  -5   4   2   24.13    0.87
  -5   4   2   23.53    1.24
   4  -4  -2   13.11    0.85
   4  -4  -2   13.67    0.97
   4  -4  -2   12.51    1.07
   4  -4  -2   13.77    0.81
   4  -4  -2   12.84    0.81
  -4   4   2   15.06    1.03
  -4   4   2   12.90    0.69
  -4   4   2   14.75    0.70
  -4   4   2   13.57    0.97
  -4   4   2   13.60    0.96
   3  -4  -2  239.93    4.40
   3  -4  -2  245.50    4.27
   3  -4  -2  242.41    4.27
   3  -4  -2  245.22    4.46
  -3   4   2  247.61    4.48
  -3   4   2  246.65    4.17
  -3   4   2  249.86    4.20
  -3   4   2  246.34    4.51
  -3   4   2  248.81    4.43
   2  -4  -2    1.39    0.38
   2  -4  -2    1.40    0.32
   2  -4  -2    0.90    0.32
   2  -4  -2    0.58    0.30
   2  -4  -2    1.85    0.38
  -2   4   2    0.87    0.34
  -2   4   2    1.01    0.30
  -2   4   2    0.28    0.34
  -2   4   2    0.93    0.34
  -2   4   2    1.29    0.31
  -2   4   2    1.25    0.37
   1  -4  -2    5.35    0.47
   1  -4  -2    5.85    0.52
   1  -4  -2    5.13    0.51
   1  -4  -2    5.66    0.46
   1  -4  -2    6.18    0.56
  -1   4   2    5.42    0.50
  -1   4   2    6.56    0.58
  -1   4   2    6.34    0.56
  -1   4   2    6.10    0.57
  -1   4   2    5.39    0.45
  -1   4   2    5.49    0.46
   0  -4  -2    4.86    0.48
   0  -4  -2    5.65    0.51
   0  -4  -2    4.53    0.42
   0  -4  -2    5.09    0.42
   0  -4  -2    5.48    0.44
   0  -4  -2    5.36    0.49
   0   4   2    5.24    0.51
   0   4   2    5.15    0.43
   0   4   2    4.97    0.50
   0   4   2    5.45    0.44
   0   4   2    4.50    0.41
   0   4   2    5.18    0.50
  -1  -4  -2   11.46    0.54
  -1  -4  -2   13.29    0.60
  -1  -4  -2   11.31    0.59
  -1  -4  -2   10.96    0.45
  -1  -4  -2   10.96    0.50
  -1  -4  -2   10.77    0.50
   1   4   2   12.33    0.53
   1   4   2   11.98    0.61
   1   4   2   12.11    0.59
   1   4   2   11.83    0.45
  -2  -4  -2  262.46    4.37
  -2  -4  -2  261.04    4.24
  -2  -4  -2  264.69    4.39
  -2  -4  -2  255.88    4.07
  -2  -4  -2  261.79    4.23
  -2  -4  -2  268.70    4.24
   2   4   2  262.92    4.38
   2   4   2  254.58    4.07
   2   4   2  264.32    4.25
   2   4   2  262.78    4.25
   2   4   2  261.98    4.24
   2   4   2  264.26    4.34
  -3  -4  -2    4.29    0.32
  -3  -4  -2    4.98    0.40
  -3  -4  -2    4.60    0.48
  -3  -4  -2    4.26    0.31
  -3  -4  -2    3.61    0.47
  -3  -4  -2    3.70    0.31
   3   4   2    3.87    0.44
   3   4   2    4.32    0.34
   3   4   2    3.79    0.34
   3   4   2    4.40    0.47
   3   4   2    4.17    0.38
  -4  -4  -2   29.93    0.77
  -4  -4  -2   28.37    0.91
  -4  -4  -2   28.56    0.91
  -4  -4  -2   27.79    0.76
   4   4   2   28.24    0.68
   4   4   2   29.66    0.95
   4   4   2   28.77    0.76
   4   4   2   28.55    0.69
   4   4   2   28.29    0.90
  -5  -4  -2    8.14    0.60
  -5  -4  -2    8.94    0.51
  -5  -4  -2    8.40    0.60
  -5  -4  -2    9.44    0.56
   5   4   2    8.78    0.33
   5   4   2    8.99    0.61
   5   4   2    9.36    0.50
   5   4   2    8.75    0.35
   5   4   2    8.74    0.36
   5   4   2    9.06    0.64
  -6  -4  -2  183.63    3.24
  -6  -4  -2  182.12    3.39
  -6  -4  -2  183.37    3.36
  -6  -4  -2  182.74    3.20
   6   4   2  179.29    3.02
   6   4   2  184.14    3.39
   6   4   2  178.85    3.19
   6   4   2  182.10    3.34
  -7  -4  -2   68.89    1.73
  -7  -4  -2   67.92    1.73
  -7  -4  -2   67.38    1.62
   7   4   2   65.67    1.55
   7   4   2   65.12    1.48
   7   4   2   67.55    1.66
   7   4   2   66.42    1.43
  -8  -4  -2   46.30    1.42
  -8  -4  -2   46.45    1.48
  -8  -4  -2   47.93    1.55
   8   4   2   49.45    1.52
   8   4   2   45.90    1.25
   8   4   2   46.70    1.41
   8   4   2   47.14    1.22
   8   4   2   47.53    1.38
  -9  -4  -2    4.33    0.63
   9   4   2    3.29    0.51
   9   4   2    3.84    0.58
   9   4   2    3.86    0.48
   9   4   2    4.27    0.72
 -10  -4  -2    1.30    0.59
  10   4   2    1.05    0.52
  10   4   2    1.64    0.48
  10   4   2    0.64    0.72
  10   4   2    1.66    0.59
 -11  -4  -2   10.24    1.23
  11   4   2   10.28    1.25
  11   4   2   10.46    0.99
  11   4   2    8.33    0.95
  11   4   2   11.41    1.26
  11   4   2   13.27    1.54
   6  -5  -2    2.82    0.65
   6  -5  -2    1.51    0.78
   6  -5  -2    1.79    0.71
   6  -5  -2    1.60    0.77
   6  -5  -2    1.47    0.80
  -6   5   2    1.86    0.48
  -6   5   2    1.68    0.80
  -6   5   2    1.35    0.64
   5  -5  -2   71.02    1.89
   5  -5  -2   68.95    2.12
   5  -5  -2   70.06    2.20
   5  -5  -2   69.86    1.97
   5  -5  -2   71.50    1.92
  -5   5   2   74.84    1.71
  -5   5   2   65.12    2.14
  -5   5   2   70.08    1.69
   4  -5  -2   -0.07    0.41
   4  -5  -2    0.37    0.54
   4  -5  -2   -0.50    0.48
   4  -5  -2    0.28    0.45
   4  -5  -2    0.22    0.50
  -4   5   2    0.57    0.40
  -4   5   2    1.16    0.41
  -4   5   2    0.63    0.52
  -4   5   2    0.37    0.53
   3  -5  -2  112.71    2.37
   3  -5  -2  113.97    2.57
   3  -5  -2  115.24    2.40
   3  -5  -2  113.72    2.40
   3  -5  -2  113.64    2.57
  -3   5   2  119.09    2.62
  -3   5   2  112.49    2.29
  -3   5   2  109.11    2.41
  -3   5   2  113.62    2.31
  -3   5   2  108.35    2.59
   2  -5  -2    3.53    0.46
   2  -5  -2    4.18    0.48
   2  -5  -2    3.57    0.52
   2  -5  -2    3.79    0.46
   2  -5  -2    3.16    0.48
  -2   5   2    4.79    0.55
  -2   5   2    3.76    0.55
  -2   5   2    4.12    0.51
  -2   5   2    4.11    0.46
  -2   5   2    3.91    0.56
   1  -5  -2    9.71    0.72
   1  -5  -2   11.42    0.70
   1  -5  -2   10.47    0.67
   1  -5  -2   10.19    0.91
   1  -5  -2    9.82    0.63
  -1   5   2   11.59    0.64
  -1   5   2   11.25    0.71
  -1   5   2   10.17    0.72
  -1   5   2   10.74    0.62
  -1   5   2   11.02    0.79
   0  -5  -2   14.31    0.76
   0  -5  -2   15.56    0.74
   0  -5  -2   15.04    0.69
   0  -5  -2   14.96    0.67
   0  -5  -2   14.37    0.72
   0  -5  -2   15.01    0.66
   0   5   2   15.31    0.76
   0   5   2   15.08    0.67
   0   5   2   15.82    0.79
   0   5   2   14.56    0.74
   0   5   2   15.07    0.67
  -1  -5  -2   98.93    1.98
  -1  -5  -2   97.67    2.05
  -1  -5  -2   99.71    1.95
  -1  -5  -2   98.86    1.86
  -1  -5  -2   98.98    1.95
  -1  -5  -2   99.64    2.02
   1   5   2   98.29    2.02
   1   5   2   99.69    1.96
   1   5   2   99.11    2.05
   1   5   2   98.16    1.95
  -2  -5  -2  340.05    5.47
  -2  -5  -2  336.64    5.57
  -2  -5  -2  332.20    5.55
  -2  -5  -2  333.46    5.43
  -2  -5  -2  332.83    5.59
  -2  -5  -2  334.58    5.26
  -2  -5  -2  333.56    5.43
   2   5   2  334.97    5.57
   2   5   2  337.15    5.46
   2   5   2  329.08    5.44
   2   5   2  343.57    5.47
   2   5   2  333.24    5.55
  -3  -5  -2    0.01    0.26
  -3  -5  -2    0.22    0.21
  -3  -5  -2    0.01    0.20
  -3  -5  -2    0.20    0.27
  -3  -5  -2    0.08    0.23
   3   5   2   -0.01    0.21
   3   5   2    0.04    0.22
   3   5   2    0.09    0.27
   3   5   2    0.28    0.26
   3   5   2   -0.12    0.22
  -4  -5  -2   10.80    0.67
  -4  -5  -2   10.28    0.44
  -4  -5  -2   11.63    0.58
  -4  -5  -2   11.00    0.46
  -4  -5  -2   11.10    0.67
  -4  -5  -2   10.85    0.44
   4   5   2   11.66    0.57
   4   5   2   10.64    0.50
   4   5   2   10.57    0.51
   4   5   2   11.39    0.61
   4   5   2   10.72    0.66
  -5  -5  -2   31.31    1.05
  -5  -5  -2   31.56    0.90
  -5  -5  -2   28.63    1.04
  -5  -5  -2   31.19    0.87
   5   5   2   30.81    0.89
   5   5   2   28.90    1.04
   5   5   2   29.37    0.78
   5   5   2   29.97    0.91
   5   5   2   30.23    0.79
   5   5   2   31.82    1.08
  -6  -5  -2  244.70    4.43
  -6  -5  -2  245.30    4.21
  -6  -5  -2  254.54    4.26
   6   5   2  247.63    4.22
   6   5   2  242.99    4.01
   6   5   2  254.52    4.02
   6   5   2  252.90    4.48
   6   5   2  242.78    4.41
  -7  -5  -2   74.09    1.75
  -7  -5  -2   74.13    1.67
  -7  -5  -2   71.40    1.70
  -7  -5  -2   71.45    1.83
   7   5   2   70.76    1.38
   7   5   2   74.26    1.85
   7   5   2   71.07    1.36
   7   5   2   71.88    1.36
   7   5   2   71.39    1.66
   7   5   2   72.62    1.82
  -8  -5  -2    6.02    0.80
  -8  -5  -2    6.84    0.85
   8   5   2    7.10    0.85
   8   5   2    5.50    0.56
   8   5   2    6.03    0.59
   8   5   2    6.15    0.53
  -9  -5  -2   15.03    1.09
  -9  -5  -2   14.09    1.03
   9   5   2   12.29    1.14
   9   5   2   12.96    1.02
   9   5   2   14.73    0.76
   9   5   2   12.16    0.76
   9   5   2   15.32    1.13
 -10  -5  -2    0.35    0.54
  10   5   2   -0.13    0.40
  10   5   2    0.84    0.55
  10   5   2    1.32    0.77
  10   5   2    0.44    0.46
  10   5   2    1.24    0.55
 -11  -5  -2   36.77    1.62
  11   5   2   37.54    1.67
  11   5   2   35.67    1.50
  11   5   2   33.18    1.85
  11   5   2   34.37    1.25
  11   5   2   36.80    1.60
   5  -6  -2   91.16    2.71
   5  -6  -2   90.33    2.62
   5  -6  -2   88.46    2.35
   5  -6  -2   92.30    2.59
   5  -6  -2   87.82    2.27
  -5   6   2   88.96    2.11
  -5   6   2   81.41    2.59
  -5   6   2   87.17    2.09
   4  -6  -2    1.91    0.58
   4  -6  -2    2.10    0.60
   4  -6  -2    1.94    0.65
   4  -6  -2    0.76    0.65
   4  -6  -2    3.55    0.75
  -4   6   2    2.29    0.64
  -4   6   2   -0.01    0.67
  -4   6   2    2.08    0.57
   3  -6  -2    6.01    0.83
   3  -6  -2    7.92    1.01
   3  -6  -2    6.95    0.76
   3  -6  -2    8.44    0.92
   3  -6  -2    8.47    0.84
  -3   6   2    6.30    0.69
  -3   6   2    8.64    0.84
  -3   6   2    6.27    0.78
  -3   6   2    6.48    0.83
   2  -6  -2    0.44    0.46
   2  -6  -2    0.78    0.45
   2  -6  -2    0.56    0.39
   2  -6  -2    0.86    0.52
   2  -6  -2    0.41    0.46
   2  -6  -2    0.92    0.52
  -2   6   2    0.24    0.42
  -2   6   2    0.32    0.52
  -2   6   2    0.74    0.42
  -2   6   2    0.04    0.43
  -2   6   2    0.73    0.38
   1  -6  -2   29.19    1.18
   1  -6  -2   30.37    1.14
   1  -6  -2   29.28    1.07
   1  -6  -2   30.80    1.11
   1  -6  -2   29.90    1.21
   1  -6  -2   29.97    1.10
  -1   6   2   28.97    1.20
  -1   6   2   30.29    1.13
  -1   6   2   31.04    1.24
  -1   6   2   30.17    1.06
  -1   6   2   30.56    1.07
   0  -6  -2  101.43    2.14
   0  -6  -2  101.77    2.22
   0  -6  -2  101.39    2.17
   0  -6  -2  100.38    2.15
   0  -6  -2  101.61    2.29
   0  -6  -2  101.51    2.16
   0   6   2  103.13    2.30
   0   6   2  102.31    2.20
   0   6   2  103.80    2.15
   0   6   2   99.36    2.26
   0   6   2  104.08    2.16
  -1  -6  -2   26.26    0.93
  -1  -6  -2   26.45    1.06
  -1  -6  -2   26.31    1.04
  -1  -6  -2   26.71    0.93
  -1  -6  -2   26.87    1.00
  -1  -6  -2   26.81    0.88
   1   6   2   27.54    0.94
   1   6   2   27.05    0.95
   1   6   2   27.59    1.02
   1   6   2   27.54    1.09
  -2  -6  -2  101.08    2.13
  -2  -6  -2   99.92    2.01
  -2  -6  -2   98.24    2.13
  -2  -6  -2  100.04    2.06
  -2  -6  -2   98.10    1.84
  -2  -6  -2   98.15    2.00
   2   6   2  102.20    2.05
   2   6   2   99.58    2.12
   2   6   2   97.42    2.11
   2   6   2   96.49    2.02
  -3  -6  -2    0.38    0.17
  -3  -6  -2    0.04    0.33
  -3  -6  -2    0.16    0.25
  -3  -6  -2    0.56    0.30
  -3  -6  -2   -0.04    0.24
  -3  -6  -2    0.08    0.29
   3   6   2    0.06    0.27
   3   6   2    0.17    0.25
   3   6   2    0.69    0.31
   3   6   2    0.15    0.27
   3   6   2   -0.23    0.30
  -4  -6  -2   19.61    0.67
  -4  -6  -2   19.09    0.87
  -4  -6  -2   19.47    0.80
  -4  -6  -2   17.27    1.00
  -4  -6  -2   18.45    0.65
   4   6   2   18.66    0.80
   4   6   2   18.74    0.73
   4   6   2   19.89    0.87
   4   6   2   19.38    0.72
   4   6   2   19.26    0.78
  -5  -6  -2   22.82    0.68
  -5  -6  -2   21.97    1.02
  -5  -6  -2   24.41    0.69
  -5  -6  -2   25.27    1.03
  -5  -6  -2   23.79    0.90
   5   6   2   23.91    0.87
   5   6   2   23.34    0.79
   5   6   2   25.02    1.01
   5   6   2   24.33    0.88
   5   6   2   24.27    0.81
  -6  -6  -2   99.41    2.25
  -6  -6  -2   97.60    2.04
  -6  -6  -2   99.96    2.25
   6   6   2   97.32    2.03
   6   6   2   97.80    2.24
   6   6   2   94.60    1.89
   6   6   2   96.58    2.00
   6   6   2   99.38    1.91
  -7  -6  -2   53.15    1.41
  -7  -6  -2   52.22    1.59
   7   6   2   53.55    1.19
   7   6   2   52.30    1.40
   7   6   2   53.11    1.34
   7   6   2   54.40    1.21
   7   6   2   46.99    1.77
  -8  -6  -2    0.69    0.44
  -8  -6  -2    1.16    0.51
   8   6   2    0.28    0.39
   8   6   2    0.77    0.31
   8   6   2    0.49    0.58
   8   6   2    0.23    0.45
   8   6   2    0.87    0.27
  -9  -6  -2    1.18    0.51
  -9  -6  -2    1.05    0.59
   9   6   2    0.71    0.67
   9   6   2    1.77    0.56
   9   6   2    1.25    0.31
   9   6   2    0.92    0.58
   9   6   2    1.61    0.35
   9   6   2    1.47    0.31
   9   6   2    1.08    0.38
 -10  -6  -2   29.48    1.50
 -10  -6  -2   30.35    1.40
  10   6   2   30.98    1.07
  10   6   2   32.48    1.36
  10   6   2   31.27    1.07
  10   6   2   30.71    1.62
  10   6   2   32.85    1.54
 -11  -6  -2   36.95    1.62
  11   6   2   35.05    1.18
  11   6   2   33.51    1.85
  11   6   2   33.56    1.59
  11   6   2   33.70    1.29
  11   6   2   36.87    1.73
   4  -7  -2   26.15    1.40
   4  -7  -2   25.53    1.70
   4  -7  -2   27.80    1.70
   4  -7  -2   25.74    1.46
  -4   7   2   25.72    1.32
   3  -7  -2   11.23    1.10
   3  -7  -2   10.36    1.18
   3  -7  -2   13.24    1.28
   3  -7  -2   12.85    1.06
   3  -7  -2   15.75    1.30
  -3   7   2   10.69    1.03
  -3   7   2   12.39    1.55
  -3   7   2   11.20    1.16
  -3   7   2   12.17    1.00
  -3   7   2   11.39    1.14
   2  -7  -2    4.37    0.73
   2  -7  -2    4.95    0.78
   2  -7  -2    5.01    0.67
   2  -7  -2    3.92    0.68
   2  -7  -2    4.15    0.64
  -2   7   2    4.07    0.61
  -2   7   2    3.32    0.65
  -2   7   2    4.82    0.77
  -2   7   2    5.68    0.66
   1  -7  -2   24.51    1.14
   1  -7  -2   24.55    1.17
   1  -7  -2   23.12    1.17
   1  -7  -2   25.69    1.28
   1  -7  -2   26.48    1.13
  -1   7   2   23.96    1.23
  -1   7   2   23.37    1.06
  -1   7   2   25.32    1.11
  -1   7   2   23.69    1.18
   0  -7  -2  206.80    3.79
   0  -7  -2  207.57    3.92
   0  -7  -2  201.88    3.80
   0  -7  -2  195.93    3.95
   0  -7  -2  204.72    3.82
   0  -7  -2  199.57    3.80
   0   7   2  194.13    3.95
   0   7   2  198.99    3.78
   0   7   2  204.49    4.00
   0   7   2  206.25    3.86
   0   7   2  206.37    3.80
  -1  -7  -2    0.35    0.38
  -1  -7  -2   -0.25    0.38
  -1  -7  -2    0.46    0.45
  -1  -7  -2   -0.30    0.31
  -1  -7  -2    0.71    0.44
  -1  -7  -2    0.23    0.35
   1   7   2    0.12    0.42
   1   7   2   -1.17    0.43
   1   7   2   -0.13    0.36
   1   7   2   -0.01    0.39
   1   7   2   -0.74    0.30
  -2  -7  -2    0.78    0.28
  -2  -7  -2    1.00    0.43
  -2  -7  -2    0.73    0.41
  -2  -7  -2    0.09    0.36
  -2  -7  -2    0.58    0.35
  -2  -7  -2    0.52    0.36
   2   7   2    0.57    0.42
   2   7   2    1.56    0.64
   2   7   2    0.35    0.34
   2   7   2    0.75    0.38
  -3  -7  -2   37.37    0.89
  -3  -7  -2   37.52    1.12
  -3  -7  -2   38.07    1.26
  -3  -7  -2   35.83    1.28
  -3  -7  -2   39.20    1.29
  -3  -7  -2   38.90    1.23
  -3  -7  -2   38.72    1.13
   3   7   2   37.69    1.27
   3   7   2   37.16    1.17
   3   7   2   35.67    1.23
   3   7   2   38.23    1.16
   3   7   2   38.73    1.19
  -4  -7  -2   29.79    0.95
  -4  -7  -2   30.89    1.19
  -4  -7  -2   28.34    0.93
  -4  -7  -2   29.52    1.17
   4   7   2   29.60    1.05
   4   7   2   28.83    0.99
   4   7   2   27.25    1.26
   4   7   2   29.26    1.15
   4   7   2   29.63    1.02
  -5  -7  -2  163.09    3.21
  -5  -7  -2  161.13    2.81
  -5  -7  -2  151.12    3.24
  -5  -7  -2  157.41    2.80
  -5  -7  -2  133.78    3.98
   5   7   2  161.42    2.99
   5   7   2  161.14    3.02
   5   7   2  160.73    2.93
   5   7   2  152.84    3.15
  -6  -7  -2    0.74    0.25
  -6  -7  -2   -0.04    0.45
  -6  -7  -2    1.12    0.50
   6   7   2    0.73    0.39
   6   7   2    0.34    0.40
   6   7   2    0.88    0.34
   6   7   2    0.66    0.35
   6   7   2    1.29    0.41
  -7  -7  -2   25.24    1.20
  -7  -7  -2   25.87    1.09
   7   7   2   27.00    1.01
   7   7   2   26.40    1.21
   7   7   2   26.59    1.07
   7   7   2   26.29    0.92
   7   7   2   25.17    0.90
  -8  -7  -2    7.18    0.90
  -8  -7  -2    7.59    0.96
   8   7   2    7.50    0.94
   8   7   2    8.21    0.66
   8   7   2    6.33    0.76
   8   7   2    7.25    0.83
   8   7   2    8.73    0.62
  -9  -7  -2    4.14    0.67
  -9  -7  -2    2.21    0.68
   9   7   2    2.76    0.42
   9   7   2    3.18    0.44
   9   7   2    2.08    0.58
   9   7   2    2.60    0.56
   9   7   2    2.49    0.50
 -10  -7  -2   12.43    1.27
 -10  -7  -2   16.05    1.28
  10   7   2   14.84    1.33
  10   7   2   12.47    1.16
  10   7   2   12.79    0.89
  10   7   2   13.69    0.76
  10   7   2   13.29    0.86
  10   7   2   12.48    0.78
 -11  -7  -2    1.94    0.87
  11   7   2    2.03    0.52
  11   7   2    1.96    0.74
  11   7   2    2.00    0.46
  11   7   2    1.75    0.81
  11   7   2    2.12    0.81
   3  -8  -2    5.83    0.88
   3  -8  -2    6.44    1.04
   3  -8  -2    5.96    0.90
   3  -8  -2    4.60    0.97
  -3   8   2   10.49    1.31
  -3   8   2    6.52    0.83
  -3   8   2    7.16    0.90
  -3   8   2    5.62    0.94
   2  -8  -2   36.52    1.76
   2  -8  -2   35.81    1.53
   2  -8  -2   37.16    1.68
   2  -8  -2   36.43    1.58
  -2   8   2   37.34    1.50
  -2   8   2   35.86    1.66
  -2   8   2   37.66    1.62
  -2   8   2   34.19    1.51
   1  -8  -2    5.28    0.72
   1  -8  -2    4.79    0.81
   1  -8  -2    3.13    0.73
   1  -8  -2    4.58    0.75
   1  -8  -2    4.54    0.73
   1  -8  -2    5.32    0.74
  -1   8   2    6.55    0.73
  -1   8   2    4.37    0.70
  -1   8   2    4.31    0.72
   0  -8  -2   69.81    1.87
   0  -8  -2   68.77    1.89
   0  -8  -2   67.34    2.07
   0  -8  -2   67.43    1.92
   0   8   2   70.55    1.87
   0   8   2   66.64    1.94
  -1  -8  -2    0.60    0.53
  -1  -8  -2    1.02    0.47
  -1  -8  -2    0.80    0.50
  -1  -8  -2    0.62    0.55
  -1  -8  -2    0.77    0.41
   1   8   2   -0.02    0.46
   1   8   2    0.53    0.61
   1   8   2    0.37    0.47
   1   8   2    0.11    0.43
  -2  -8  -2    0.78    0.46
  -2  -8  -2    1.46    0.52
  -2  -8  -2    0.39    0.35
  -2  -8  -2    0.85    0.47
  -2  -8  -2    0.08    0.48
  -2  -8  -2    1.14    0.46
   2   8   2    0.18    0.40
   2   8   2    1.15    0.56
   2   8   2    0.65    0.45
  -3  -8  -2   42.04    1.33
  -3  -8  -2   42.71    1.46
  -3  -8  -2   40.22    1.49
  -3  -8  -2   42.42    1.47
  -3  -8  -2   43.50    1.50
  -3  -8  -2   40.67    1.06
  -3  -8  -2   41.91    1.31
   3   8   2   41.72    1.33
   3   8   2   41.40    1.45
   3   8   2   42.37    1.51
   3   8   2   40.84    1.40
  -4  -8  -2    1.76    0.57
  -4  -8  -2    1.08    0.50
  -4  -8  -2    2.01    0.57
  -4  -8  -2    1.25    0.24
  -4  -8  -2    1.24    0.44
  -4  -8  -2    1.57    0.42
   4   8   2    1.70    0.50
   4   8   2    1.00    0.44
   4   8   2    1.65    0.53
   4   8   2    1.28    0.50
  -5  -8  -2  113.22    2.30
  -5  -8  -2  115.70    2.32
  -5  -8  -2  115.33    2.71
  -5  -8  -2  117.29    2.55
  -5  -8  -2  115.56    2.69
   5   8   2  116.32    2.71
   5   8   2  115.91    2.44
   5   8   2  116.18    2.53
   5   8   2  117.77    2.47
   5   8   2  113.93    2.67
  -6  -8  -2   18.00    0.79
  -6  -8  -2   19.15    1.16
  -6  -8  -2   18.06    1.11
  -6  -8  -2   15.79    0.74
   6   8   2   18.33    1.11
   6   8   2   16.71    1.15
   6   8   2   17.54    0.94
   6   8   2   16.83    0.88
   6   8   2   18.49    1.01
  -7  -8  -2    3.40    0.68
  -7  -8  -2    3.15    0.61
   7   8   2    3.37    0.53
   7   8   2    2.36    0.61
   7   8   2    2.56    0.62
   7   8   2    3.15    0.56
   7   8   2    2.52    0.57
  -8  -8  -2   13.60    1.14
  -8  -8  -2   13.00    1.09
   8   8   2   14.43    1.02
   8   8   2   10.92    0.95
   8   8   2   13.49    0.89
   8   8   2   13.57    1.16
  -9  -8  -2   10.10    1.17
  -9  -8  -2    9.68    1.21
   9   8   2    8.66    1.16
   9   8   2   10.93    0.85
   9   8   2   10.28    0.91
   9   8   2    9.37    1.07
 -10  -8  -2   71.34    2.31
 -10  -8  -2   69.74    2.17
  10   8   2   70.93    1.76
  10   8   2   71.09    2.08
  10   8   2   69.34    1.79
  10   8   2   67.68    2.27
 -11  -8  -2   13.67    1.57
  11   8   2   15.16    1.56
  11   8   2   12.71    1.19
  11   8   2   13.58    1.40
   1  -9  -2    0.79    0.76
   1  -9  -2    2.71    0.79
   1  -9  -2    2.37    0.86
   1  -9  -2    3.53    0.78
  -1   9   2    1.55    1.05
  -1   9   2    2.39    0.74
  -1   9   2    2.03    0.77
   0  -9  -2   18.82    1.30
   0  -9  -2   16.62    1.36
   0  -9  -2   18.69    1.47
   0  -9  -2   18.11    1.24
   0   9   2   15.09    1.31
   0   9   2   16.86    1.25
   0   9   2   17.95    1.22
  -1  -9  -2    1.44    0.71
  -1  -9  -2    3.40    0.74
  -1  -9  -2    1.90    0.76
  -1  -9  -2    1.77    0.55
  -1  -9  -2    2.27    0.60
   1   9   2    2.70    0.70
   1   9   2    2.68    0.67
   1   9   2    2.63    0.63
   1   9   2    2.39    0.79
   1   9   2    1.36    0.61
  -2  -9  -2   24.41    1.09
  -2  -9  -2   23.52    1.38
  -2  -9  -2   29.47    1.47
  -2  -9  -2   25.96    1.24
   2   9   2   25.17    1.48
   2   9   2   24.46    1.22
   2   9   2   25.79    1.34
  -3  -9  -2   70.55    2.02
  -3  -9  -2   68.80    2.05
  -3  -9  -2   70.03    1.59
  -3  -9  -2   66.43    2.05
  -3  -9  -2   69.08    1.86
  -3  -9  -2   65.74    2.06
  -3  -9  -2   66.11    1.92
   3   9   2   67.89    2.02
   3   9   2   67.10    2.10
   3   9   2   64.65    1.85
  -4  -9  -2   20.66    1.07
  -4  -9  -2   19.26    1.06
  -4  -9  -2   22.83    1.29
  -4  -9  -2   19.96    1.24
  -4  -9  -2   20.39    0.72
  -4  -9  -2   18.34    1.28
   4   9   2   18.61    1.05
   4   9   2   19.31    1.21
   4   9   2   18.06    1.16
   4   9   2   21.46    1.34
   4   9   2   20.95    1.16
  -5  -9  -2   22.48    1.41
  -5  -9  -2   22.51    1.26
  -5  -9  -2   21.54    1.06
  -5  -9  -2   21.53    1.29
   5   9   2   21.17    1.31
   5   9   2   21.34    1.18
   5   9   2   22.83    1.33
   5   9   2   19.75    1.04
   5   9   2   22.95    1.19
  -6  -9  -2    0.36    0.62
  -6  -9  -2   -0.06    0.45
  -6  -9  -2   -0.08    0.40
  -6  -9  -2    0.04    0.56
  -6  -9  -2    0.12    0.56
   6   9   2    0.76    0.60
   6   9   2    0.16    0.57
   6   9   2   -0.06    0.51
   6   9   2   -0.05    0.46
   6   9   2    1.20    0.57
  -7  -9  -2   11.96    0.74
  -7  -9  -2   14.17    1.23
  -7  -9  -2   14.88    1.25
   7   9   2   16.38    1.14
   7   9   2   14.51    1.20
   7   9   2   12.06    0.93
   7   9   2   13.53    1.07
   7   9   2   14.35    1.12
  -8  -9  -2   30.49    1.59
  -8  -9  -2   33.26    1.53
   8   9   2   31.52    1.34
   8   9   2   32.30    1.27
   8   9   2   33.07    1.65
   8   9   2   33.06    1.45
   8   9   2   29.61    1.35
  -9  -9  -2    0.58    0.71
  -9  -9  -2    0.46    0.75
   9   9   2    0.35    0.63
   9   9   2    0.06    0.58
   9   9   2    0.24    0.63
   9   9   2   -0.32    0.63
   9   9   2    0.99    0.50
 -10  -9  -2   20.38    1.65
  10   9   2   17.96    1.24
  10   9   2   20.23    1.13
  10   9   2   18.07    1.44
  10   9   2   17.49    1.55
  10   9   2   17.92    1.16
  -1 -10  -2   30.41    1.70
  -1 -10  -2   30.28    1.52
  -1 -10  -2   29.68    1.81
  -1 -10  -2   29.28    1.55
   1  10   2   27.72    1.83
   1  10   2   33.91    1.56
   1  10   2   27.01    1.63
  -2 -10  -2   20.02    1.55
  -2 -10  -2   19.80    1.55
  -2 -10  -2   19.27    1.17
  -2 -10  -2   20.66    1.32
   2  10   2   19.51    1.34
   2  10   2   19.52    1.29
   2  10   2   18.41    1.43
  -3 -10  -2   46.43    1.39
  -3 -10  -2   47.72    1.91
  -3 -10  -2   47.52    1.91
  -3 -10  -2   43.81    1.90
  -3 -10  -2   46.41    1.89
  -3 -10  -2   44.35    1.66
   3  10   2   43.78    1.97
   3  10   2   46.18    1.70
   3  10   2   46.86    1.85
  -4 -10  -2    6.94    0.68
  -4 -10  -2    6.81    0.94
  -4 -10  -2    7.83    0.98
  -4 -10  -2    6.76    0.80
   4  10   2    6.42    0.91
   4  10   2    5.89    0.77
   4  10   2    7.19    0.98
  -5 -10  -2    7.46    0.93
  -5 -10  -2    7.72    0.98
  -5 -10  -2    6.66    0.90
  -5 -10  -2    7.92    1.00
   5  10   2    8.04    0.97
   5  10   2    7.35    0.81
   5  10   2    7.89    0.85
   5  10   2    8.81    1.21
   5  10   2    8.31    0.91
  -6 -10  -2   15.01    1.10
  -6 -10  -2   15.20    1.03
  -6 -10  -2   12.61    1.48
  -6 -10  -2   16.32    1.35
   6  10   2   16.61    1.30
   6  10   2   14.77    1.08
   6  10   2   13.96    1.38
   6  10   2   16.55    1.24
   6  10   2   17.73    1.44
  -7 -10  -2    3.06    0.87
  -7 -10  -2    3.55    0.66
  -7 -10  -2    3.06    0.55
   7  10   2    2.70    0.78
   7  10   2    3.38    0.78
   7  10   2    1.84    0.61
   7  10   2    2.58    0.82
   7  10   2    2.93    0.71
  -8 -10  -2   80.47    1.79
  -8 -10  -2   83.31    2.59
  -8 -10  -2   78.50    1.74
   8  10   2   82.94    2.30
   8  10   2   87.20    2.62
   8  10   2   83.59    2.35
   8  10   2   83.64    2.19
   8  10   2   80.38    2.27
  -9 -10  -2    2.00    0.90
  -9 -10  -2    1.19    0.88
   9  10   2    2.68    0.69
   9  10   2    1.29    0.84
   9  10   2    1.60    0.77
   9  10   2    1.94    0.78
   9  10   2    1.70    0.76
  -3 -11  -2   12.03    1.40
  -3 -11  -2   12.56    1.29
   3  11   2   11.05    1.32
   3  11   2   13.26    1.53
  -4 -11  -2   -0.06    0.93
  -4 -11  -2    0.79    0.75
   4  11   2    2.88    1.33
   4  11   2    1.56    0.81
  -5 -11  -2   18.63    1.35
  -5 -11  -2   20.60    1.64
   5  11   2   19.54    1.57
   5  11   2   16.99    1.37
  -6 -11  -2   46.85    2.10
  -6 -11  -2   50.35    1.74
   6  11   2   49.30    2.12
   6  11   2   51.59    1.98
   6  11   2   49.01    1.82
   6  11   2   46.08    2.09
  -7 -11  -2    5.80    1.21
  -7 -11  -2    5.21    0.75
  -7 -11  -2    4.86    0.82
   7  11   2    4.65    1.00
   7  11   2    5.74    0.86
   7  11   2    5.62    1.03
   7  11   2    6.21    0.90
   8  11   2   29.40    1.86
   8  11   2   31.38    1.74
   8  11   2   30.57    1.57
   8   9  -3   22.90    1.69
   8   9  -3   19.88    1.66
   8   9  -3   22.51    1.40
  -8  -9   3   22.61    1.65
  -8  -9   3   21.82    1.36
   7   9  -3    0.04    0.68
   7   9  -3   -0.62    0.74
   7   9  -3   -0.68    0.61
   7   9  -3    0.81    0.60
  -7  -9   3    1.17    0.90
  -7  -9   3   -0.07    0.62
  -7  -9   3   -0.15    0.81
   6   9  -3   -0.21    0.69
   6   9  -3    0.28    0.61
   6   9  -3    0.67    0.71
   6   9  -3    0.16    0.63
  -6  -9   3   -0.22    0.58
  -6  -9   3    0.12    0.80
  -6  -9   3    0.70    0.63
  -6  -9   3    0.44    0.64
  -6  -9   3   -0.49    0.73
   5   9  -3   -0.06    0.73
   5   9  -3    0.45    0.65
   5   9  -3    0.56    0.68
   5   9  -3    0.08    0.61
  -5  -9   3    0.04    0.65
  -5  -9   3    1.81    0.73
  -5  -9   3    2.83    0.68
   4   9  -3   73.14    2.14
   4   9  -3   70.39    2.22
   4   9  -3   70.45    2.15
   4   9  -3   71.76    2.25
  -4  -9   3   71.51    2.12
  -4  -9   3   69.59    2.16
  -4  -9   3   64.38    2.04
  -4  -9   3   68.14    2.00
   3   9  -3   25.16    1.64
   3   9  -3   20.02    1.48
   3   9  -3   19.94    1.37
   3   9  -3   23.83    1.41
  -3  -9   3   20.70    1.29
  -3  -9   3   22.89    1.43
  -3  -9   3   20.64    1.49
   2   9  -3   19.31    1.28
   2   9  -3   19.89    1.33
  -2  -9   3   18.62    1.59
  -2  -9   3   18.64    1.40
  -2  -9   3   20.85    1.36
   1   9  -3    2.13    0.75
   1   9  -3    3.30    0.76
  -1  -9   3    5.57    1.01
  -1  -9   3    1.49    0.80
   9   8  -3   22.99    1.33
   9   8  -3   23.00    1.56
   9   8  -3   23.28    1.65
   9   8  -3   25.03    1.72
  -9  -8   3   25.61    1.56
   8   8  -3   66.63    2.24
   8   8  -3   60.95    2.17
   8   8  -3   66.90    1.95
   8   8  -3   67.80    2.06
  -8  -8   3   64.10    1.59
  -8  -8   3   65.66    1.72
  -8  -8   3   62.52    1.51
  -8  -8   3   65.47    2.12
   7   8  -3    2.02    0.70
   7   8  -3    2.70    0.74
   7   8  -3    1.89    0.58
   7   8  -3    0.86    0.61
   7   8  -3    1.29    0.45
  -7  -8   3    1.50    0.52
  -7  -8   3    1.90    0.62
  -7  -8   3    1.04    0.47
  -7  -8   3    0.30    0.70
  -7  -8   3    1.82    0.71
   6   8  -3   20.18    1.06
   6   8  -3   21.27    1.14
   6   8  -3   21.08    1.33
   6   8  -3   21.43    1.34
   6   8  -3   20.31    1.27
  -6  -8   3   20.51    1.09
  -6  -8   3   19.13    1.36
  -6  -8   3   21.41    1.03
  -6  -8   3   20.59    1.19
  -6  -8   3   19.92    1.03
  -6  -8   3   20.91    1.48
   5   8  -3   23.84    1.19
   5   8  -3   23.61    1.40
   5   8  -3   24.20    1.32
   5   8  -3   24.52    1.34
   5   8  -3   24.80    1.21
  -5  -8   3   26.17    1.22
  -5  -8   3   25.08    1.23
  -5  -8   3   26.54    1.18
   4   8  -3  151.77    3.38
   4   8  -3  152.06    3.22
   4   8  -3  151.92    3.29
   4   8  -3  153.11    3.25
   4   8  -3  151.74    3.29
  -4  -8   3  154.57    3.22
  -4  -8   3  158.16    3.26
   3   8  -3   73.38    2.16
   3   8  -3   72.88    2.01
   3   8  -3   72.23    2.03
   3   8  -3   71.20    2.12
  -3  -8   3   73.09    2.11
  -3  -8   3   75.79    2.05
   2   8  -3    3.78    0.71
   2   8  -3    4.14    0.62
   2   8  -3    4.06    0.71
   2   8  -3    3.22    0.81
   2   8  -3    4.19    0.72
  -2  -8   3    3.20    0.74
  -2  -8   3    3.11    0.71
  -2  -8   3    3.91    0.72
  -2  -8   3    3.93    0.64
   1   8  -3    5.40    1.18
   1   8  -3    4.54    0.88
   1   8  -3    5.12    0.76
  -1  -8   3    8.33    1.11
  -1  -8   3    5.64    0.79
  -1  -8   3    5.12    0.86
   0   8  -3   -0.11    0.50
   0   8  -3   -0.70    0.61
   0   8  -3    0.17    0.54
   0  -8   3   -0.33    0.66
   0  -8   3   -1.02    0.68
   0  -8   3    1.10    0.67
  -1   8  -3   49.34    2.08
  -1   8  -3   49.75    1.63
  -1   8  -3   52.22    1.85
   1  -8   3   55.03    2.10
   1  -8   3   58.22    2.98
   1  -8   3   52.37    2.32
  10   7  -3   46.92    1.65
  10   7  -3   46.64    2.10
  10   7  -3   47.24    2.08
  10   7  -3   45.32    1.80
 -10  -7   3   52.38    1.86
   9   7  -3   30.29    1.31
   9   7  -3   30.61    1.64
   9   7  -3   31.57    1.45
   9   7  -3   31.52    1.69
  -9  -7   3   28.21    1.10
  -9  -7   3   30.23    1.51
   8   7  -3   68.29    2.12
   8   7  -3   68.07    1.84
   8   7  -3   65.11    2.14
   8   7  -3   69.73    1.91
  -8  -7   3   65.35    1.52
  -8  -7   3   66.90    2.01
  -8  -7   3   62.86    2.14
  -8  -7   3   65.79    1.57
  -8  -7   3   64.64    1.45
   7   7  -3    1.18    0.57
   7   7  -3   -0.13    0.56
   7   7  -3    0.59    0.57
   7   7  -3   -0.10    0.31
   7   7  -3    1.05    0.50
  -7  -7   3   -0.07    0.56
  -7  -7   3    1.07    0.40
  -7  -7   3    0.48    0.47
  -7  -7   3    0.35    0.41
   6   7  -3   65.17    1.80
   6   7  -3   63.83    1.73
   6   7  -3   61.36    1.92
   6   7  -3   62.09    1.89
   6   7  -3   59.31    1.48
  -6  -7   3   60.97    1.52
  -6  -7   3   62.56    1.59
  -6  -7   3   62.30    1.64
  -6  -7   3   61.97    1.91
  -6  -7   3   59.23    1.96
   5   7  -3   23.35    0.98
   5   7  -3   22.68    1.19
   5   7  -3   24.31    1.10
   5   7  -3   24.13    1.17
   5   7  -3   23.03    1.23
  -5  -7   3   21.45    1.06
  -5  -7   3   22.03    1.00
  -5  -7   3   20.92    1.21
  -5  -7   3   22.22    0.99
   4   7  -3  103.97    2.38
   4   7  -3  100.32    2.32
   4   7  -3  100.70    2.25
   4   7  -3  101.32    2.39
   4   7  -3   98.48    2.45
  -4  -7   3  102.30    2.29
  -4  -7   3  100.93    2.29
  -4  -7   3  100.92    2.19
  -4  -7   3  101.00    2.26
   3   7  -3  106.09    2.37
   3   7  -3  103.21    2.36
   3   7  -3  103.91    2.48
   3   7  -3  103.01    1.89
  -3  -7   3  104.31    2.34
  -3  -7   3   86.51    3.01
  -3  -7   3  105.69    2.36
   2   7  -3    4.83    0.62
   2   7  -3    4.72    0.70
   2   7  -3    5.14    0.67
   2   7  -3    6.99    0.81
   2   7  -3    5.06    0.58
  -2  -7   3    4.80    0.64
  -2  -7   3    3.61    0.66
   1   7  -3   -0.24    0.39
   1   7  -3    0.67    0.40
   1   7  -3   -0.42    0.45
   1   7  -3    0.31    0.60
  -1  -7   3   -0.37    0.54
  -1  -7   3   -0.52    0.47
   0   7  -3    2.05    0.48
   0   7  -3    2.17    0.72
   0   7  -3    2.24    0.56
   0   7  -3    1.99    0.47
   0  -7   3    2.35    0.59
   0  -7   3    2.42    0.71
   0  -7   3    2.02    0.62
   0  -7   3    2.15    0.66
  -1   7  -3   58.42    1.64
  -1   7  -3   59.26    1.59
  -1   7  -3   61.26    1.78
  -1   7  -3   61.68    3.14
  -1   7  -3   57.66    2.02
   1  -7   3   60.11    1.97
   1  -7   3   61.54    2.11
   1  -7   3   58.35    1.87
   1  -7   3   64.97    2.38
   1  -7   3   52.22    2.54
  -2   7  -3   15.91    1.10
  -2   7  -3   16.19    1.16
  -2   7  -3   15.56    1.32
  -2   7  -3   15.84    0.98
   2  -7   3   18.89    1.47
   2  -7   3   18.26    1.27
   2  -7   3   17.27    1.56
  -3   7  -3    0.16    0.62
  -3   7  -3   -0.26    0.78
  -3   7  -3   -0.22    0.66
  -3   7  -3    0.51    0.66
   3  -7   3   -0.28    0.82
  10   6  -3   89.13    2.63
  10   6  -3   96.94    2.32
  10   6  -3   91.34    2.22
  10   6  -3   95.57    2.74
  10   6  -3   92.78    2.22
 -10  -6   3   90.10    2.18
 -10  -6   3   94.91    2.38
   9   6  -3    3.22    0.56
   9   6  -3    2.02    0.69
   9   6  -3    2.84    0.73
   9   6  -3    1.84    0.54
   9   6  -3    2.51    0.64
  -9  -6   3    3.80    0.69
  -9  -6   3    2.07    0.75
  -9  -6   3    3.12    0.55
   8   6  -3    0.91    0.55
   8   6  -3    1.37    0.46
   8   6  -3    0.63    0.50
   8   6  -3    2.33    0.62
  -8  -6   3    1.03    0.43
  -8  -6   3    0.08    0.59
   7   6  -3   36.25    1.47
   7   6  -3   36.87    1.22
   7   6  -3   35.20    1.46
   7   6  -3   37.28    1.26
  -7  -6   3   33.78    1.56
  -7  -6   3   35.57    1.06
  -7  -6   3   34.15    1.09
  -7  -6   3   36.62    1.01
  -7  -6   3   35.21    1.46
   6   6  -3    8.86    0.93
   6   6  -3    8.42    0.91
   6   6  -3    7.51    0.55
   6   6  -3    9.37    0.83
   6   6  -3    7.75    0.71
  -6  -6   3    7.57    0.83
  -6  -6   3    6.76    0.73
  -6  -6   3    8.03    0.65
  -6  -6   3    8.28    0.69
   5   6  -3   30.74    1.11
   5   6  -3   31.10    1.25
   5   6  -3   32.42    1.26
   5   6  -3   31.63    1.14
   5   6  -3   31.13    0.95
  -5  -6   3   31.01    1.08
  -5  -6   3   29.91    0.96
  -5  -6   3   31.64    1.04
  -5  -6   3   30.54    1.29
  -5  -6   3   31.02    1.03
   4   6  -3    0.27    0.35
   4   6  -3    0.53    0.41
   4   6  -3    0.68    0.35
   4   6  -3    0.14    0.35
   4   6  -3    0.66    0.43
  -4  -6   3    0.16    0.31
  -4  -6   3    0.38    0.35
  -4  -6   3    0.66    0.44
  -4  -6   3    0.64    0.39
  -4  -6   3    0.96    0.37
   3   6  -3   12.73    0.84
   3   6  -3   12.16    0.79
   3   6  -3   13.04    0.77
   3   6  -3   12.72    0.81
   3   6  -3   11.64    0.90
  -3  -6   3   11.68    0.79
  -3  -6   3   12.23    0.90
  -3  -6   3   11.71    0.78
  -3  -6   3   13.14    0.91
   2   6  -3    1.59    0.45
   2   6  -3    1.53    0.41
   2   6  -3    1.36    0.44
   2   6  -3    0.91    0.41
   2   6  -3    2.10    0.40
   2   6  -3    1.99    0.34
  -2  -6   3    1.47    0.43
  -2  -6   3    1.07    0.44
  -2  -6   3    1.19    0.47
  -2  -6   3    1.29    0.46
   1   6  -3   26.32    0.86
   1   6  -3   24.67    1.12
   1   6  -3   23.82    1.01
   1   6  -3   24.49    0.92
   1   6  -3   24.35    1.06
   1   6  -3   24.67    1.17
  -1  -6   3   23.35    1.06
  -1  -6   3   23.30    1.03
  -1  -6   3   23.86    1.18
  -1  -6   3   25.31    1.13
   0   6  -3   16.49    0.97
   0   6  -3   13.89    0.84
   0   6  -3   17.30    0.91
   0   6  -3   13.21    0.75
   0   6  -3   16.91    1.15
   0  -6   3   15.01    0.93
   0  -6   3   13.30    1.09
   0  -6   3   13.96    0.96
   0  -6   3   16.56    1.08
  -1   6  -3   47.94    1.72
  -1   6  -3   45.32    1.25
  -1   6  -3   44.16    1.41
  -1   6  -3   46.33    1.46
  -1   6  -3   46.55    1.38
  -1   6  -3   44.24    1.63
   1  -6   3   46.55    1.69
   1  -6   3   47.90    1.62
   1  -6   3   46.65    1.50
   1  -6   3   44.17    1.64
  -2   6  -3    0.36    0.53
  -2   6  -3    0.10    0.45
  -2   6  -3   -0.40    0.49
  -2   6  -3   -0.01    0.38
  -2   6  -3   -0.48    0.45
   2  -6   3   -0.14    0.52
   2  -6   3   -0.26    0.48
   2  -6   3   -0.26    0.60
   2  -6   3   -0.02    0.60
   2  -6   3   -0.53    0.70
  -3   6  -3    1.22    0.53
  -3   6  -3    1.49    0.61
  -3   6  -3    1.81    0.59
  -3   6  -3    1.19    0.65
   3  -6   3    2.55    0.77
   3  -6   3    1.26    0.63
   3  -6   3    1.40    0.73
   3  -6   3    0.84    0.67
  -4   6  -3   22.89    1.51
  -4   6  -3   22.02    1.31
  -4   6  -3   24.65    1.22
  -4   6  -3   20.85    1.33
   4  -6   3   21.88    1.38
   4  -6   3   22.39    1.74
   4  -6   3   25.26    1.73
  11   5  -3    2.02    0.65
  11   5  -3    1.06    0.86
  11   5  -3    3.16    0.80
  11   5  -3    1.21    0.86
 -11  -5   3    1.34    0.79
 -11  -5   3    1.67    1.02
  10   5  -3   56.35    1.61
  10   5  -3   59.44    2.06
  10   5  -3   57.23    2.12
  10   5  -3   57.31    1.65
 -10  -5   3   57.08    2.09
 -10  -5   3   54.66    1.69
 -10  -5   3   55.29    1.80
   9   5  -3   -0.11    0.48
   9   5  -3   -0.06    0.57
   9   5  -3   -0.37    0.41
   9   5  -3    0.02    0.53
   9   5  -3   -0.30    0.48
  -9  -5   3    2.89    1.19
  -9  -5   3   -0.34    0.54
  -9  -5   3    0.55    0.57
  -9  -5   3    0.71    0.51
   8   5  -3    7.15    0.79
   8   5  -3    6.17    0.60
   8   5  -3    5.73    0.68
   8   5  -3    6.35    0.78
   8   5  -3    5.39    0.72
  -8  -5   3    6.83    0.79
  -8  -5   3    8.21    1.03
  -8  -5   3    5.66    0.74
  -8  -5   3    6.16    0.76
   7   5  -3    5.26    0.67
   7   5  -3    5.87    0.66
   7   5  -3    5.68    0.70
   7   5  -3    6.05    0.67
   7   5  -3    5.18    0.65
  -7  -5   3    5.71    0.65
  -7  -5   3    5.86    0.50
  -7  -5   3    5.74    0.73
  -7  -5   3    5.62    0.44
  -7  -5   3    4.37    0.64
   6   5  -3    1.06    0.43
   6   5  -3    1.56    0.45
   6   5  -3    0.98    0.34
   6   5  -3    0.50    0.46
  -6  -5   3    0.81    0.44
  -6  -5   3    0.83    0.30
  -6  -5   3    0.46    0.31
  -6  -5   3    2.00    0.45
  -6  -5   3    0.85    0.34
   5   5  -3   46.48    1.26
   5   5  -3   45.35    1.41
   5   5  -3   47.12    1.05
   5   5  -3   48.01    1.41
   5   5  -3   45.40    1.43
  -5  -5   3   46.27    1.17
  -5  -5   3   48.38    1.22
  -5  -5   3   47.52    1.41
  -5  -5   3   45.91    1.05
  -5  -5   3   48.04    1.21
   4   5  -3    0.30    0.32
   4   5  -3    0.27    0.26
   4   5  -3    0.33    0.29
   4   5  -3    0.26    0.31
   4   5  -3    0.91    0.36
  -4  -5   3   -0.44    0.29
  -4  -5   3    0.01    0.26
  -4  -5   3   -0.33    0.27
  -4  -5   3    0.21    0.34
  -4  -5   3    0.68    0.33
   3   5  -3   17.22    0.77
   3   5  -3   18.29    0.81
   3   5  -3   18.17    0.82
   3   5  -3   18.92    0.89
   3   5  -3   19.03    0.77
  -3  -5   3   18.64    0.79
  -3  -5   3   16.83    0.75
  -3  -5   3   18.80    0.88
  -3  -5   3   16.89    0.76
  -3  -5   3   16.93    0.80
   2   5  -3  106.45    2.17
   2   5  -3  105.61    2.25
   2   5  -3  104.02    2.16
   2   5  -3  103.51    2.14
   2   5  -3  104.10    2.17
  -2  -5   3  104.57    2.24
  -2  -5   3  101.49    2.16
  -2  -5   3  106.87    2.18
  -2  -5   3  102.67    2.15
   1   5  -3   10.45    0.81
   1   5  -3   10.22    0.61
   1   5  -3   10.86    0.70
   1   5  -3   10.52    0.66
   1   5  -3    9.50    0.57
   1   5  -3    9.94    0.76
  -1  -5   3   10.58    0.68
  -1  -5   3   10.82    0.69
  -1  -5   3   10.00    0.78
  -1  -5   3    9.54    0.75
   0   5  -3   75.94    1.76
   0   5  -3   75.62    1.60
   0   5  -3   75.14    1.64
   0   5  -3   77.37    1.92
   0   5  -3   75.03    1.76
   0  -5   3   74.51    1.90
   0  -5   3   75.68    1.87
   0  -5   3   74.29    1.79
  -1   5  -3    7.51    0.69
  -1   5  -3    6.09    0.64
  -1   5  -3    6.46    0.53
  -1   5  -3    6.75    0.71
  -1   5  -3    7.05    0.88
   1  -5   3    6.98    0.88
   1  -5   3    7.44    0.84
   1  -5   3    6.33    0.74
   1  -5   3    6.04    0.68
  -2   5  -3   35.19    1.15
  -2   5  -3   35.77    1.25
  -2   5  -3   34.54    1.40
  -2   5  -3   35.43    1.20
  -2   5  -3   35.89    0.97
   2  -5   3   32.76    1.42
   2  -5   3   34.56    1.23
   2  -5   3   36.18    1.29
   2  -5   3   35.51    1.41
   2  -5   3   34.67    1.43
  -3   5  -3   42.32    1.34
  -3   5  -3   41.02    1.45
  -3   5  -3   42.17    1.28
  -3   5  -3   40.22    1.57
   3  -5   3   43.65    1.43
   3  -5   3   41.59    1.61
   3  -5   3   43.02    1.67
   3  -5   3   41.64    1.49
   3  -5   3   41.34    1.61
  -4   5  -3   36.32    1.29
  -4   5  -3   36.11    1.58
  -4   5  -3   36.19    2.66
  -4   5  -3   35.55    1.49
  -4   5  -3   36.80    1.19
   4  -5   3   34.60    1.66
   4  -5   3   37.18    1.66
   4  -5   3   34.50    1.51
   4  -5   3   34.80    1.65
   4  -5   3   33.26    1.38
  -5   5  -3   36.74    1.26
  -5   5  -3   41.28    1.79
  -5   5  -3   40.20    1.71
  -5   5  -3   41.45    1.31
   5  -5   3   40.20    1.59
   5  -5   3   41.41    1.93
   5  -5   3   41.36    1.73
   5  -5   3   41.49    1.92
  11   4  -3    1.60    0.80
  11   4  -3    0.89    0.78
  11   4  -3   -0.74    0.78
  11   4  -3    0.54    0.59
 -11  -4   3   -1.02    0.74
  10   4  -3    9.36    0.85
  10   4  -3    9.71    1.21
  10   4  -3    7.49    0.96
  10   4  -3    9.20    0.98
  10   4  -3    9.19    0.90
 -10  -4   3    8.05    0.97
 -10  -4   3    8.95    1.17
   9   4  -3    7.67    0.83
   9   4  -3    8.38    0.96
   9   4  -3    7.21    0.86
   9   4  -3    5.98    0.72
  -9  -4   3    7.68    1.04
  -9  -4   3    7.07    0.78
  -9  -4   3    7.26    0.94
   8   4  -3    1.46    0.53
   8   4  -3    0.48    0.37
   8   4  -3    0.74    0.43
   8   4  -3    0.98    0.38
  -8  -4   3    1.50    0.58
  -8  -4   3   -0.10    0.40
  -8  -4   3    1.41    0.45
  -8  -4   3    0.59    0.51
   7   4  -3   90.02    1.87
   7   4  -3   87.07    1.96
   7   4  -3   89.45    2.17
  -7  -4   3   85.43    1.91
  -7  -4   3   89.56    2.22
  -7  -4   3   86.27    1.90
  -7  -4   3   91.27    2.19
   6   4  -3   30.34    1.18
   6   4  -3   30.21    0.95
   6   4  -3   29.92    0.98
   6   4  -3   29.89    0.94
   6   4  -3   30.64    1.14
  -6  -4   3   29.90    0.81
  -6  -4   3   29.98    1.18
  -6  -4   3   28.99    0.97
  -6  -4   3   30.12    0.96
  -6  -4   3   28.81    0.78
  -6  -4   3   30.78    1.15
   5   4  -3    3.75    0.47
   5   4  -3    4.15    0.51
   5   4  -3    4.33    0.48
   5   4  -3    5.19    0.63
   5   4  -3    3.89    0.51
  -5  -4   3    4.67    0.55
  -5  -4   3    4.06    0.42
  -5  -4   3    3.78    0.49
  -5  -4   3    3.85    0.48
  -5  -4   3    4.40    0.46
   4   4  -3    0.26    0.29
   4   4  -3    0.07    0.18
   4   4  -3    0.59    0.29
   4   4  -3    0.23    0.25
   4   4  -3    0.14    0.26
  -4  -4   3   -0.23    0.24
  -4  -4   3    0.20    0.27
  -4  -4   3    0.05    0.19
  -4  -4   3    0.48    0.30
  -4  -4   3    0.00    0.23
   3   4  -3  101.32    2.00
   3   4  -3  100.13    2.07
   3   4  -3  101.05    1.88
   3   4  -3   98.68    2.00
   3   4  -3   98.36    2.07
  -3  -4   3   98.66    2.07
  -3  -4   3  100.95    1.96
  -3  -4   3   97.85    1.95
  -3  -4   3   96.58    1.86
   2   4  -3  200.19    3.45
   2   4  -3  198.56    3.49
   2   4  -3  202.31    3.49
   2   4  -3  194.46    3.48
   2   4  -3  199.02    3.56
  -2  -4   3  200.17    3.48
  -2  -4   3  197.37    3.54
  -2  -4   3  197.24    3.45
  -2  -4   3  193.99    3.46
   1   4  -3    8.57    0.52
   1   4  -3    8.64    0.63
   1   4  -3    8.59    0.51
   1   4  -3    9.29    0.63
   1   4  -3    8.37    0.54
   1   4  -3    8.45    0.57
  -1  -4   3   10.37    0.65
  -1  -4   3    8.47    0.56
  -1  -4   3    9.23    0.57
  -1  -4   3    8.80    0.61
   0   4  -3   42.91    1.14
   0   4  -3   41.52    0.99
   0   4  -3   43.36    1.15
   0   4  -3   42.71    1.21
   0   4  -3   42.99    1.25
   0   4  -3   43.42    1.09
   0  -4   3   41.22    1.24
   0  -4   3   41.67    1.21
   0  -4   3   42.14    1.20
   0  -4   3   41.16    1.15
  -1   4  -3    0.95    0.32
  -1   4  -3    0.77    0.38
  -1   4  -3    0.20    0.21
  -1   4  -3    0.51    0.38
  -1   4  -3    0.27    0.27
   1  -4   3    1.39    0.40
   1  -4   3    1.11    0.41
   1  -4   3    0.78    0.33
   1  -4   3    0.58    0.34
  -2   4  -3   45.27    1.34
  -2   4  -3   47.09    1.03
  -2   4  -3   47.90    1.24
  -2   4  -3   48.82    1.51
  -2   4  -3   47.44    1.46
   2  -4   3   47.00    1.32
   2  -4   3   48.33    1.33
   2  -4   3   48.18    1.43
  -3   4  -3  140.22    3.11
  -3   4  -3  139.64    2.63
  -3   4  -3  136.75    2.91
  -3   4  -3  132.54    2.96
   3  -4   3  138.44    2.92
   3  -4   3  139.18    2.78
   3  -4   3  142.71    2.79
   3  -4   3  141.20    3.06
   3  -4   3  140.38    3.04
  -4   4  -3   35.46    1.43
  -4   4  -3   36.83    1.11
  -4   4  -3   37.06    1.42
  -4   4  -3   36.20    1.07
   4  -4   3   36.44    1.48
   4  -4   3   35.18    1.31
   4  -4   3   36.62    1.52
   4  -4   3   36.47    1.53
   4  -4   3   34.42    1.24
  -5   4  -3   65.75    2.05
  -5   4  -3   66.81    1.47
  -5   4  -3   68.76    1.51
  -5   4  -3   69.16    2.20
  -5   4  -3   62.71    2.03
   5  -4   3   64.34    1.80
   5  -4   3   68.53    2.16
   5  -4   3   66.84    2.15
   5  -4   3   69.68    1.91
   5  -4   3   65.91    2.09
  -6   4  -3    3.45    0.75
  -6   4  -3    3.56    0.80
   6  -4   3    4.26    0.71
   6  -4   3    2.53    0.81
   6  -4   3    2.69    0.78
   6  -4   3    4.03    0.83
  11   3  -3   -0.01    0.87
  11   3  -3    0.56    0.80
  11   3  -3    1.07    0.93
 -11  -3   3   -1.21    0.90
  10   3  -3    0.05    0.61
  10   3  -3   -1.04    0.51
  10   3  -3   -0.14    0.62
 -10  -3   3    0.70    0.67
 -10  -3   3   -0.59    0.57
   9   3  -3   29.95    1.09
   9   3  -3   29.49    1.07
   9   3  -3   29.75    1.33
   9   3  -3   26.92    1.43
  -9  -3   3   30.43    1.37
  -9  -3   3   28.43    1.46
   8   3  -3   18.67    0.83
   8   3  -3   19.78    0.86
   8   3  -3   21.65    1.16
   8   3  -3   18.36    1.04
  -8  -3   3   19.46    0.84
  -8  -3   3   19.35    1.17
  -8  -3   3   20.92    1.05
   7   3  -3   45.46    1.43
   7   3  -3   42.89    1.31
   7   3  -3   43.33    1.16
   7   3  -3   42.93    1.14
  -7  -3   3   44.37    1.31
  -7  -3   3   41.44    1.12
  -7  -3   3   44.84    1.46
  -7  -3   3   43.38    1.48
   6   3  -3    1.11    0.35
   6   3  -3    1.51    0.32
   6   3  -3    1.37    0.30
   6   3  -3    1.69    0.41
  -6  -3   3    0.72    0.38
  -6  -3   3    1.23    0.20
  -6  -3   3    1.54    0.33
  -6  -3   3    1.47    0.22
  -6  -3   3    0.97    0.38
  -6  -3   3    0.50    0.31
   5   3  -3   72.81    1.52
   5   3  -3   70.63    1.68
   5   3  -3   71.71    1.50
   5   3  -3   71.50    1.57
  -5  -3   3   72.88    1.68
  -5  -3   3   71.15    1.37
  -5  -3   3   70.36    1.50
  -5  -3   3   71.64    1.54
  -5  -3   3   71.33    1.40
  -5  -3   3   68.14    1.70
   4   3  -3   54.77    1.26
   4   3  -3   54.62    1.23
   4   3  -3   52.71    1.34
   4   3  -3   54.45    1.23
  -4  -3   3   54.68    1.24
  -4  -3   3   53.89    1.19
  -4  -3   3   52.62    1.38
  -4  -3   3   54.27    1.35
  -4  -3   3   53.86    1.16
   3   3  -3   11.29    0.55
   3   3  -3   11.13    0.44
   3   3  -3   10.80    0.55
   3   3  -3   10.45    0.63
  -3  -3   3   10.84    0.63
  -3  -3   3   10.58    0.43
  -3  -3   3   10.41    0.53
  -3  -3   3   11.10    0.53
  -3  -3   3   11.25    0.59
   2   3  -3  735.25   11.60
   2   3  -3  751.50   11.60
   2   3  -3  723.08   11.65
   2   3  -3  754.97   11.63
   2   3  -3  751.61   11.52
  -2  -3   3  748.71   11.66
  -2  -3   3  744.87   11.52
  -2  -3   3  753.05   11.61
  -2  -3   3  759.95   11.60
  -2  -3   3  753.09   11.59
   1   3  -3   16.16    0.65
   1   3  -3   16.49    0.60
   1   3  -3   16.90    0.72
   1   3  -3   16.19    0.64
  -1  -3   3   16.11    0.66
  -1  -3   3   16.71    0.64
  -1  -3   3   16.43    0.64
  -1  -3   3   16.07    0.68
   0   3  -3   19.18    0.59
   0   3  -3   19.87    0.70
   0   3  -3   20.82    0.77
   0   3  -3   20.91    0.71
   0   3  -3   20.80    0.71
   0   3  -3   19.56    0.78
   0  -3   3   21.36    0.81
   0  -3   3   19.99    0.76
   0  -3   3   19.99    0.71
   0  -3   3   20.82    0.73
  -1   3  -3   28.57    0.85
  -1   3  -3   28.25    0.98
  -1   3  -3   28.41    0.67
  -1   3  -3   27.70    0.83
  -1   3  -3   29.10    0.90
   1  -3   3   27.49    0.92
   1  -3   3   28.42    0.87
   1  -3   3   28.23    1.00
   1  -3   3   28.92    0.87
  -2   3  -3   51.14    1.22
  -2   3  -3   51.25    1.49
  -2   3  -3   54.28    1.42
  -2   3  -3   53.31    1.37
  -2   3  -3   51.67    1.21
   2  -3   3   52.11    1.28
   2  -3   3   52.32    1.47
   2  -3   3   52.80    1.36
   2  -3   3   54.07    1.29
  -3   3  -3  253.74    4.26
  -3   3  -3  256.68    4.60
  -3   3  -3  259.74    4.67
  -3   3  -3  255.99    4.27
  -3   3  -3  251.26    4.59
   3  -3   3  259.02    4.69
   3  -3   3  251.46    4.39
   3  -3   3  258.09    4.52
   3  -3   3  256.51    4.40
   3  -3   3  258.42    4.72
  -4   3  -3    0.21    0.30
  -4   3  -3    0.53    0.27
  -4   3  -3   -0.19    0.45
  -4   3  -3    0.04    0.41
  -4   3  -3    0.00    0.42
   4  -3   3    0.15    0.33
   4  -3   3   -0.03    0.40
   4  -3   3   -0.07    0.45
   4  -3   3   -0.42    0.40
   4  -3   3    0.40    0.36
  -5   3  -3   25.25    1.23
  -5   3  -3   26.30    1.36
  -5   3  -3   25.40    1.28
   5  -3   3   24.57    1.28
   5  -3   3   24.45    1.00
   5  -3   3   24.63    1.04
   5  -3   3   24.53    1.30
   5  -3   3   23.82    1.29
  -6   3  -3    3.19    0.72
  -6   3  -3    2.36    0.65
   6  -3   3    2.31    0.71
   6  -3   3    3.70    0.78
   6  -3   3    3.09    0.76
   6  -3   3    2.96    0.54
   6  -3   3    1.37    0.56
  -7   3  -3   21.37    1.42
  -7   3  -3   18.77    1.47
   7  -3   3   19.76    1.29
   7  -3   3   21.64    1.56
   7  -3   3   16.05    1.49
   7  -3   3   19.33    1.15
  10   2  -3   -0.32    0.65
  10   2  -3    0.14    0.55
  10   2  -3    0.07    0.67
  10   2  -3   -0.14    0.49
 -10  -2   3    0.12    0.63
   9   2  -3  115.95    2.38
   9   2  -3  116.58    2.38
   9   2  -3  121.87    2.87
   9   2  -3  117.49    2.78
  -9  -2   3  117.16    2.95
  -9  -2   3  115.44    2.74
   8   2  -3   53.31    1.69
   8   2  -3   51.18    1.34
   8   2  -3   52.24    1.33
  -8  -2   3   51.28    1.60
  -8  -2   3   51.46    1.77
   7   2  -3   15.38    0.92
   7   2  -3   15.84    0.90
   7   2  -3   14.55    0.71
   7   2  -3   12.99    0.67
  -7  -2   3   15.10    1.00
  -7  -2   3   15.48    0.90
   6   2  -3    1.97    0.32
   6   2  -3    2.42    0.40
   6   2  -3    2.25    0.33
   6   2  -3    2.25    0.42
  -6  -2   3    1.99    0.40
  -6  -2   3    1.60    0.45
  -6  -2   3    1.82    0.35
  -6  -2   3    2.72    0.31
   5   2  -3   54.09    1.39
   5   2  -3   54.04    1.21
   5   2  -3   53.42    1.20
   5   2  -3   54.92    1.34
  -5  -2   3   52.58    1.05
  -5  -2   3   55.50    1.41
  -5  -2   3   54.74    1.32
  -5  -2   3   52.77    1.13
  -5  -2   3   55.00    1.43
  -5  -2   3   54.23    1.07
   4   2  -3  508.18    8.20
   4   2  -3  511.18    8.13
   4   2  -3  505.20    8.05
   4   2  -3  516.39    8.04
  -4  -2   3  501.67    7.95
  -4  -2   3  520.97    7.98
  -4  -2   3  517.51    8.13
  -4  -2   3  521.30    8.20
  -4  -2   3  502.83    7.97
  -4  -2   3  523.95    8.26
   3   2  -3   52.41    1.14
   3   2  -3   52.53    1.15
   3   2  -3   54.47    1.24
   3   2  -3   52.49    1.19
  -3  -2   3   52.43    1.19
  -3  -2   3   51.41    0.92
  -3  -2   3   53.55    1.13
  -3  -2   3   51.25    1.10
  -3  -2   3   54.16    1.27
   2   2  -3  497.10    7.83
   2   2  -3  493.11    7.87
   2   2  -3  494.77    7.81
   2   2  -3  498.65    7.70
  -2  -2   3  513.51    7.88
  -2  -2   3  505.56    7.82
  -2  -2   3  497.45    7.85
  -2  -2   3  497.13    7.80
  -2  -2   3  502.37    7.70
   1   2  -3   19.00    0.61
   1   2  -3   19.07    0.66
   1   2  -3   20.04    0.62
   1   2  -3   19.15    0.62
  -1  -2   3   19.39    0.62
  -1  -2   3   19.58    0.62
  -1  -2   3   19.35    0.62
  -1  -2   3   19.73    0.65
   0   2  -3    1.76    0.25
   0   2  -3    1.77    0.27
   0   2  -3    1.99    0.28
   0   2  -3    1.89    0.21
   0   2  -3    1.92    0.29
   0  -2   3    2.17    0.30
   0  -2   3    2.07    0.30
   0  -2   3    1.62    0.25
   0  -2   3    2.24    0.29
  -1   2  -3   76.80    1.31
  -1   2  -3   79.39    1.60
  -1   2  -3   75.03    1.50
  -1   2  -3   75.58    1.56
  -1   2  -3   77.21    1.65
  -1   2  -3   77.54    1.50
   1  -2   3   76.70    1.53
   1  -2   3   78.39    1.57
   1  -2   3   78.18    1.53
   1  -2   3   75.43    1.65
  -2   2  -3   38.23    1.08
  -2   2  -3   37.20    0.89
  -2   2  -3   37.77    0.91
  -2   2  -3   37.18    1.10
  -2   2  -3   39.18    1.07
   2  -2   3   36.83    1.11
   2  -2   3   38.06    1.02
   2  -2   3   37.78    0.96
   2  -2   3   37.57    0.95
  -3   2  -3   34.53    1.19
  -3   2  -3   36.96    0.88
  -3   2  -3   35.51    1.14
  -3   2  -3   37.00    0.87
  -3   2  -3   36.95    1.11
   3  -2   3   37.85    0.98
   3  -2   3   36.90    0.96
   3  -2   3   37.20    1.06
   3  -2   3   35.60    1.16
  -4   2  -3    2.32    0.45
  -4   2  -3    1.70    0.41
  -4   2  -3    1.58    0.43
  -4   2  -3    1.55    0.25
  -4   2  -3    1.61    0.23
   4  -2   3    1.98    0.44
   4  -2   3    2.12    0.34
   4  -2   3    1.50    0.41
   4  -2   3    1.59    0.32
  -5   2  -3    2.97    0.58
  -5   2  -3    2.30    0.49
  -5   2  -3    2.06    0.54
   5  -2   3    2.13    0.37
   5  -2   3    2.51    0.41
   5  -2   3    2.33    0.53
   5  -2   3    3.44    0.60
  -6   2  -3   12.65    1.13
  -6   2  -3   11.59    0.99
  -6   2  -3   10.14    1.06
   6  -2   3   10.60    0.73
   6  -2   3   10.82    1.06
   6  -2   3   10.01    1.05
   6  -2   3    8.22    1.01
  -7   2  -3   15.23    1.29
  -7   2  -3   17.85    1.22
   7  -2   3   18.47    1.30
   7  -2   3   17.46    1.35
   7  -2   3   17.73    1.03
   7  -2   3   18.34    0.94
  -8   2  -3   24.43    1.43
  -8   2  -3   25.07    1.59
   8  -2   3   23.73    1.61
   8  -2   3   21.16    1.60
   8  -2   3   25.83    1.32
   8  -2   3   26.18    1.22
  10   1  -3    0.02    0.74
  10   1  -3   -0.28    0.65
  10   1  -3    0.72    0.60
  10   1  -3    0.45    0.54
 -10  -1   3    0.41    0.67
   9   1  -3  139.77    2.54
   9   1  -3  144.74    3.27
   9   1  -3  144.55    2.78
   9   1  -3  139.10    2.60
   9   1  -3  145.50    3.27
  -9  -1   3  141.43    3.38
   8   1  -3   40.96    1.51
   8   1  -3   40.83    1.16
   8   1  -3   39.94    0.97
   8   1  -3   38.89    1.02
   8   1  -3   40.17    1.50
   8   1  -3   36.30    1.17
  -8  -1   3   40.70    1.60
  -8  -1   3   40.30    1.51
   7   1  -3   -0.60    0.29
   7   1  -3    0.03    0.38
   7   1  -3    0.24    0.25
   7   1  -3    0.65    0.39
   7   1  -3    0.23    0.30
  -7  -1   3    0.55    0.44
  -7  -1   3    0.09    0.37
   6   1  -3   26.20    0.81
   6   1  -3   25.10    1.01
   6   1  -3   26.81    1.02
   6   1  -3   26.31    0.83
  -6  -1   3   26.08    1.01
  -6  -1   3   25.56    1.10
   5   1  -3    0.44    0.28
   5   1  -3    0.45    0.23
   5   1  -3    0.50    0.28
   5   1  -3    0.38    0.25
  -5  -1   3    0.23    0.15
  -5  -1   3    0.28    0.27
  -5  -1   3    0.63    0.32
  -5  -1   3    0.37    0.17
   4   1  -3  295.93    4.75
   4   1  -3  292.05    4.76
   4   1  -3  290.49    4.93
   4   1  -3  296.16    4.91
  -4  -1   3  293.36    5.00
  -4  -1   3  304.30    4.91
  -4  -1   3  289.32    4.59
  -4  -1   3  287.69    4.65
  -4  -1   3  298.55    4.67
  -4  -1   3  298.86    4.94
   3   1  -3   31.14    0.79
   3   1  -3   30.98    0.80
   3   1  -3   33.93    0.91
  -3  -1   3   30.33    0.75
  -3  -1   3   33.30    0.93
  -3  -1   3   33.24    0.78
  -3  -1   3   32.45    0.88
  -3  -1   3   32.24    0.90
  -3  -1   3   33.52    0.70
   2   1  -3   36.27    0.85
   2   1  -3   36.15    0.91
   2   1  -3   35.95    0.89
   2   1  -3   37.00    0.86
  -2  -1   3   38.20    0.86
  -2  -1   3   38.54    0.94
  -2  -1   3   37.86    0.92
  -2  -1   3   37.09    0.90
  -2  -1   3   36.49    0.84
  -2  -1   3   37.15    0.71
   1   1  -3    5.56    0.33
   1   1  -3    5.22    0.38
   1   1  -3    5.44    0.36
   1   1  -3    5.22    0.37
  -1  -1   3    5.76    0.39
  -1  -1   3    6.18    0.44
  -1  -1   3    5.33    0.33
  -1  -1   3    5.52    0.36
  -1  -1   3    5.21    0.36
   0   1  -3   38.13    0.88
   0   1  -3   38.09    0.84
   0   1  -3   36.72    0.84
   0   1  -3   37.90    0.85
   0  -1   3   37.34    0.85
   0  -1   3   38.37    0.84
   0  -1   3   37.29    0.86
   0  -1   3   38.11    0.89
  -1   1  -3   72.37    1.35
  -1   1  -3   71.66    1.48
  -1   1  -3   71.80    1.36
  -1   1  -3   74.41    1.47
  -1   1  -3   72.50    1.38
   1  -1   3   70.50    1.47
   1  -1   3   71.38    1.38
   1  -1   3   73.94    1.38
   1  -1   3   72.10    1.37
  -2   1  -3   15.00    0.59
  -2   1  -3   14.43    0.64
  -2   1  -3   14.42    0.48
  -2   1  -3   14.35    0.65
  -2   1  -3   14.24    0.46
   2  -1   3   14.30    0.67
   2  -1   3   15.15    0.51
   2  -1   3   14.45    0.57
   2  -1   3   14.72    0.52
  -3   1  -3    2.60    0.37
  -3   1  -3    1.57    0.59
  -3   1  -3    1.92    0.33
  -3   1  -3    2.88    0.29
  -3   1  -3    2.35    0.25
   3  -1   3    2.59    0.39
   3  -1   3    2.49    0.28
   3  -1   3    2.31    0.32
   3  -1   3    2.20    0.27
  -4   1  -3    0.18    0.32
  -4   1  -3   -0.05    0.32
  -4   1  -3   -0.05    0.28
   4  -1   3    0.05    0.29
   4  -1   3   -0.11    0.20
   4  -1   3   -0.04    0.28
   4  -1   3    0.15    0.21
  -5   1  -3    0.44    0.36
  -5   1  -3    0.84    0.40
  -5   1  -3    1.06    0.41
   5  -1   3    0.50    0.36
   5  -1   3    0.77    0.27
   5  -1   3    0.59    0.27
   5  -1   3    0.58    0.38
  -6   1  -3  131.79    3.02
  -6   1  -3  143.14    2.97
  -6   1  -3  137.44    2.85
   6  -1   3  137.52    2.51
   6  -1   3  132.32    2.95
   6  -1   3  135.39    2.50
   6  -1   3  134.24    2.90
  -7   1  -3    0.89    0.56
  -7   1  -3    1.16    0.59
  -7   1  -3    0.13    0.48
   7  -1   3    0.89    0.36
   7  -1   3   -0.04    0.37
   7  -1   3    1.30    0.54
   7  -1   3    0.73    0.58
  -8   1  -3    6.99    0.94
  -8   1  -3    6.64    0.82
   8  -1   3    6.35    0.84
   8  -1   3    6.23    0.86
   8  -1   3    5.61    0.72
   8  -1   3    6.83    0.99
  -9   1  -3    4.56    0.90
  -9   1  -3    3.96    0.79
   9  -1   3    5.44    0.67
   9  -1   3    4.01    0.90
   9  -1   3    5.19    0.96
   9  -1   3    5.58    1.15
  10   0  -3    5.54    1.04
  10   0  -3    6.35    1.07
  10   0  -3    5.73    1.04
  10   0  -3    7.65    1.14
  10   0  -3    6.70    0.74
 -10   0   3    5.13    0.94
   9   0  -3   69.80    2.23
   9   0  -3   66.69    1.51
   9   0  -3   70.06    2.19
   9   0  -3   70.69    1.73
   9   0  -3   67.03    1.65
   9   0  -3   69.75    1.77
   9   0  -3   65.61    2.29
  -9   0   3   69.07    2.25
  -9   0   3   64.40    2.20
  -9   0   3   67.52    1.69
   8   0  -3   38.87    1.12
   8   0  -3   36.83    1.15
   8   0  -3   36.81    1.51
   8   0  -3   36.76    0.99
   8   0  -3   37.67    1.56
   8   0  -3   36.85    1.20
  -8   0   3   39.58    1.56
  -8   0   3   40.20    1.16
  -8   0   3   34.66    1.52
   7   0  -3   -0.10    0.33
   7   0  -3   -0.15    0.41
   7   0  -3   -0.02    0.43
   7   0  -3    0.13    0.29
   7   0  -3    0.40    0.26
   7   0  -3   -0.20    0.30
  -7   0   3   -0.03    0.29
  -7   0   3   -0.10    0.42
  -7   0   3   -0.16    0.46
   6   0  -3   25.81    0.76
   6   0  -3   26.07    0.82
   6   0  -3   25.25    1.07
   6   0  -3   27.19    0.86
   6   0  -3   26.03    0.67
   6   0  -3   25.00    1.05
  -6   0   3   25.37    1.10
  -6   0   3   26.10    1.06
  -6   0   3   26.08    0.76
   5   0  -3   26.89    0.99
   5   0  -3   26.94    0.81
   5   0  -3   25.67    0.59
   5   0  -3   26.71    0.70
   5   0  -3   26.75    0.78
   5   0  -3   26.38    0.97
  -5   0   3   25.98    0.97
  -5   0   3   26.34    1.01
  -5   0   3   26.31    0.70
  -5   0   3   27.27    0.62
  -5   0   3   26.26    0.62
   4   0  -3  183.71    3.30
   4   0  -3  186.64    3.32
   4   0  -3  182.76    3.11
   4   0  -3  181.27    2.98
   4   0  -3  184.93    3.11
  -4   0   3  180.79    2.97
  -4   0   3  185.38    3.01
  -4   0   3  185.57    3.30
  -4   0   3  187.39    3.35
  -4   0   3  184.50    3.01
   3   0  -3   87.84    1.74
   3   0  -3   84.85    1.60
   3   0  -3   84.19    1.70
   3   0  -3   86.04    1.61
  -3   0   3   83.85    1.55
  -3   0   3   84.92    1.55
  -3   0   3   88.20    1.74
  -3   0   3   87.13    1.46
  -3   0   3   85.72    1.75
   2   0  -3   11.38    0.50
   2   0  -3   10.67    0.44
   2   0  -3   10.53    0.45
   2   0  -3   10.77    0.52
  -2   0   3   10.56    0.43
  -2   0   3   10.64    0.44
  -2   0   3   10.40    0.52
  -2   0   3   10.82    0.49
  -2   0   3   11.84    0.52
   1   0  -3   82.09    1.54
   1   0  -3   79.56    1.45
   1   0  -3   79.95    1.46
   1   0  -3   80.09    1.47
  -1   0   3   79.98    1.46
  -1   0   3   83.00    1.54
  -1   0   3   80.44    1.45
  -1   0   3   79.10    1.45
   0   0  -3    0.56    0.18
   0   0  -3    0.21    0.14
   0   0   3    0.06    0.19
   0   0   3    0.11    0.14
   0   0   3    0.07    0.16
   0   0   3    0.23    0.16
   0   0   3    0.16    0.16
  -1   0  -3   15.81    0.43
  -1   0  -3   15.12    0.55
  -1   0  -3   15.47    0.45
  -1   0  -3   15.23    0.44
  -1   0  -3   15.27    0.40
   1   0   3   15.48    0.46
   1   0   3   14.60    0.54
   1   0   3   16.35    0.43
   1   0   3   14.74    0.46
  -2   0  -3   68.51    1.19
  -2   0  -3   70.69    1.28
  -2   0  -3   69.49    1.44
  -2   0  -3   67.13    1.20
   2   0   3   70.04    1.26
   2   0   3   66.84    1.25
   2   0   3   70.02    1.24
   2   0   3   66.43    1.41
  -3   0  -3    6.65    0.55
  -3   0  -3    6.94    0.53
  -3   0  -3    7.41    0.46
   3   0   3    6.34    0.34
   3   0   3    6.71    0.33
   3   0   3    7.40    0.54
  -4   0  -3  171.82    3.10
  -4   0  -3  168.41    3.15
  -4   0  -3  167.13    2.95
   4   0   3  165.06    3.07
   4   0   3  162.33    2.74
   4   0   3  168.80    2.74
  -5   0  -3    9.59    0.70
  -5   0  -3    8.42    0.74
  -5   0  -3    9.10    0.64
   5   0   3    7.54    0.65
   5   0   3    8.04    0.66
   5   0   3    7.43    0.40
   5   0   3    7.23    0.40
   5   0   3    6.60    0.33
  -6   0  -3  217.42    3.98
  -6   0  -3  230.16    4.12
  -6   0  -3  225.18    4.27
   6   0   3  219.21    4.13
   6   0   3  217.92    3.62
   6   0   3  222.72    3.62
   6   0   3  207.48    3.57
   6   0   3  222.47    4.06
  -7   0  -3    6.46    0.71
  -7   0  -3    5.76    0.67
  -7   0  -3    6.58    0.94
   7   0   3    6.04    0.81
   7   0   3    6.02    0.52
   7   0   3    6.92    0.86
   7   0   3    5.53    0.48
   7   0   3    7.04    0.79
   7   0   3    5.51    0.49
   7   0   3    5.01    0.55
  -8   0  -3    1.14    0.62
  -8   0  -3    0.44    0.52
  -8   0  -3    0.35    0.58
   8   0   3    0.20    0.57
   8   0   3    1.18    0.38
   8   0   3    0.68    0.35
   8   0   3    1.21    0.76
   8   0   3    1.17    0.58
   8   0   3    1.13    0.31
   8   0   3    0.42    0.37
  -9   0  -3   10.80    1.13
  -9   0  -3    7.89    1.02
   9   0   3    8.60    0.94
   9   0   3   10.20    0.96
   9   0   3   10.39    0.83
   9   0   3   11.93    0.83
   9   0   3   11.35    0.71
   9   0   3    9.51    1.31
   9   0   3   14.48    1.53
   9   0   3    9.80    0.77
   9  -1  -3   10.47    0.96
   9  -1  -3   11.35    1.12
   9  -1  -3    8.51    0.99
   9  -1  -3    9.77    1.02
   9  -1  -3   11.51    1.55
   9  -1  -3   11.15    1.40
   9  -1  -3   10.83    1.14
  -9   1   3   11.61    1.20
  -9   1   3    9.87    1.24
   8  -1  -3    5.44    0.61
   8  -1  -3    5.31    0.62
   8  -1  -3    4.89    0.48
   8  -1  -3    3.92    0.72
   8  -1  -3    5.17    0.57
   8  -1  -3    5.18    0.81
   8  -1  -3    5.21    0.80
  -8   1   3    4.21    0.77
   7  -1  -3   68.55    1.98
   7  -1  -3   69.67    1.94
   7  -1  -3   68.78    1.62
   7  -1  -3   67.71    1.62
   7  -1  -3   65.19    1.39
   7  -1  -3   65.80    1.58
   7  -1  -3   66.35    1.93
  -7   1   3   67.38    1.63
  -7   1   3   64.83    1.99
  -7   1   3   67.68    1.97
   6  -1  -3    1.10    0.37
   6  -1  -3    0.95    0.46
   6  -1  -3    0.52    0.31
   6  -1  -3    0.72    0.34
   6  -1  -3    0.44    0.24
   6  -1  -3    1.04    0.31
   6  -1  -3    0.59    0.44
  -6   1   3    0.31    0.40
  -6   1   3    0.42    0.31
  -6   1   3    0.24    0.44
   5  -1  -3   45.54    1.13
   5  -1  -3   45.37    0.95
   5  -1  -3   46.15    1.32
   5  -1  -3   48.35    1.40
   5  -1  -3   49.10    1.40
   5  -1  -3   48.49    1.16
   5  -1  -3   46.52    1.14
  -5   1   3   47.12    0.97
  -5   1   3   47.88    1.42
  -5   1   3   45.91    1.36
  -5   1   3   47.02    0.98
  -5   1   3   45.23    1.12
   4  -1  -3   11.67    0.53
   4  -1  -3   12.76    0.54
   4  -1  -3   12.80    0.74
   4  -1  -3   12.60    0.71
   4  -1  -3   12.31    0.57
   4  -1  -3   11.63    0.37
  -4   1   3   12.83    0.71
  -4   1   3   12.33    0.54
  -4   1   3   12.24    0.46
  -4   1   3   12.40    0.48
  -4   1   3   13.66    0.72
   3  -1  -3   88.29    1.83
   3  -1  -3   89.61    1.68
   3  -1  -3   86.09    1.66
   3  -1  -3   88.69    1.63
   3  -1  -3   89.90    1.85
  -3   1   3   90.89    1.64
  -3   1   3   87.30    1.62
  -3   1   3   88.24    1.62
  -3   1   3   90.35    1.84
  -3   1   3   87.31    1.82
   2  -1  -3   40.99    1.02
   2  -1  -3   41.73    1.05
   2  -1  -3   40.82    0.91
   2  -1  -3   41.41    0.93
  -2   1   3   40.88    0.88
  -2   1   3   41.51    0.91
  -2   1   3   42.66    1.02
  -2   1   3   40.33    1.02
  -2   1   3   41.52    0.90
   1  -1  -3   79.11    1.46
   1  -1  -3   78.73    1.45
   1  -1  -3   80.14    1.47
   1  -1  -3   80.31    1.53
  -1   1   3   78.61    1.46
  -1   1   3   79.94    1.53
  -1   1   3   80.68    1.30
  -1   1   3   78.68    1.46
  -1   1   3   83.96    1.49
   0  -1  -3  248.06    4.03
   0  -1  -3  251.68    4.02
   0  -1  -3  250.18    3.90
   0  -1  -3  250.16    3.98
   0  -1  -3  246.00    3.97
   0   1   3  250.93    4.02
   0   1   3  255.71    4.04
   0   1   3  249.56    3.98
   0   1   3  264.21    3.92
   0   1   3  248.95    3.93
   0   1   3  245.93    3.98
  -1  -1  -3  101.99    1.72
  -1  -1  -3   98.52    1.68
  -1  -1  -3   99.61    1.68
   1   1   3  102.67    1.73
   1   1   3   99.80    1.70
   1   1   3   99.57    1.70
   1   1   3   99.65    1.78
   1   1   3  101.84    1.77
  -2  -1  -3   45.42    0.79
  -2  -1  -3   45.75    0.80
  -2  -1  -3   45.78    0.86
  -2  -1  -3   49.10    1.06
  -2  -1  -3   45.35    0.79
   2   1   3   45.34    1.04
   2   1   3   46.28    0.87
   2   1   3   43.88    1.02
   2   1   3   45.65    0.86
   2   1   3   45.40    0.85
  -3  -1  -3   16.80    0.68
  -3  -1  -3   16.21    0.49
  -3  -1  -3   16.68    0.45
   3   1   3   16.35    0.65
   3   1   3   15.83    0.62
   3   1   3   15.74    0.44
   3   1   3   16.92    0.39
   3   1   3   16.22    0.40
  -4  -1  -3  382.77    5.78
  -4  -1  -3  354.01    6.28
   4   1   3  359.94    5.97
   4   1   3  360.30    5.91
   4   1   3  358.59    5.65
  -5  -1  -3   16.17    0.69
  -5  -1  -3   15.76    0.81
   5   1   3   14.13    0.70
   5   1   3   15.10    0.73
   5   1   3   14.14    0.50
   5   1   3   13.90    0.74
  -6  -1  -3  190.23    3.36
  -6  -1  -3  183.86    3.62
   6   1   3  176.13    3.09
   6   1   3  183.81    3.41
   6   1   3  186.24    3.45
  -7  -1  -3    5.69    0.60
  -7  -1  -3    5.35    0.69
   7   1   3    5.42    0.69
   7   1   3    6.20    0.49
   7   1   3    5.73    0.73
   7   1   3    7.18    0.84
  -8  -1  -3    0.07    0.46
  -8  -1  -3    0.52    0.56
   8   1   3    1.24    0.51
   8   1   3    1.10    0.65
   8   1   3    0.89    0.53
   8   1   3    1.01    0.32
   8   1   3    1.07    0.44
  -9  -1  -3   26.44    1.56
  -9  -1  -3   28.84    1.37
   9   1   3   26.91    1.00
   9   1   3   27.75    1.60
   9   1   3   28.86    1.34
   9   1   3   27.95    1.35
   9   1   3   26.95    1.45
 -10  -1  -3    0.96    0.65
  10   1   3    0.34    0.72
  10   1   3    2.66    0.99
  10   1   3   -1.54    0.71
  10   1   3    0.59    0.48
  10   1   3    1.42    0.72
   9  -2  -3   10.85    1.19
   9  -2  -3    9.34    1.12
   9  -2  -3    9.40    1.02
   9  -2  -3   10.23    1.25
  -9   2   3    9.86    1.01
  -9   2   3    7.31    0.96
   8  -2  -3   20.92    0.93
   8  -2  -3   23.15    1.54
   8  -2  -3   20.63    1.17
   8  -2  -3   21.55    1.08
   8  -2  -3   22.07    1.51
   8  -2  -3   21.23    1.25
   8  -2  -3   21.84    1.47
  -8   2   3   20.87    1.33
  -8   2   3   19.47    1.37
   7  -2  -3  130.94    3.09
   7  -2  -3  132.59    2.97
   7  -2  -3  133.11    2.70
   7  -2  -3  130.70    2.48
   7  -2  -3  132.94    2.76
   7  -2  -3  132.79    2.67
  -7   2   3  136.05    2.80
  -7   2   3  128.88    3.09
   6  -2  -3    6.80    0.73
   6  -2  -3    7.75    0.94
   6  -2  -3    5.37    0.66
   6  -2  -3    6.08    0.54
   6  -2  -3    5.53    0.64
  -6   2   3    6.55    0.78
  -6   2   3    5.50    0.69
  -6   2   3    6.59    0.73
   5  -2  -3   49.43    1.24
   5  -2  -3   47.47    1.73
   5  -2  -3   49.81    1.26
   5  -2  -3   47.04    1.29
   5  -2  -3   49.08    1.45
  -5   2   3   49.59    1.31
  -5   2   3   50.68    1.08
  -5   2   3   50.10    1.50
  -5   2   3   49.36    1.52
  -5   2   3   48.41    1.08
   4  -2  -3    8.52    0.52
   4  -2  -3    8.69    0.54
   4  -2  -3    9.81    0.73
   4  -2  -3    8.82    0.58
   4  -2  -3    8.87    0.69
  -4   2   3    8.36    0.48
  -4   2   3    9.07    0.59
  -4   2   3    8.88    0.47
  -4   2   3    9.44    0.72
  -4   2   3    5.78    0.79
   3  -2  -3  336.38    5.52
   3  -2  -3  339.65    5.49
   3  -2  -3  339.30    5.68
   3  -2  -3  341.80    5.50
   3  -2  -3  337.87    5.65
  -3   2   3  340.09    5.67
  -3   2   3  338.16    5.45
  -3   2   3  344.69    5.53
  -3   2   3  339.78    5.43
  -3   2   3  344.22    5.69
   2  -2  -3  104.15    1.93
   2  -2  -3  103.34    1.94
   2  -2  -3  104.08    1.92
   2  -2  -3  103.02    2.03
   2  -2  -3  104.79    2.05
  -2   2   3  105.61    1.90
  -2   2   3  104.78    1.95
  -2   2   3  106.84    2.04
  -2   2   3  104.28    2.04
  -2   2   3  104.67    1.91
   1  -2  -3   47.69    1.04
   1  -2  -3   46.98    1.02
   1  -2  -3   49.00    1.03
   1  -2  -3   47.82    0.91
   1  -2  -3   47.60    1.09
   1  -2  -3   49.22    1.15
  -1   2   3   49.10    1.04
  -1   2   3   47.04    1.05
  -1   2   3   48.31    1.02
  -1   2   3   50.31    1.08
  -1   2   3   48.54    1.13
  -1   2   3   47.64    1.09
   0  -2  -3  237.51    3.79
   0  -2  -3  241.87    3.92
   0  -2  -3  235.42    3.84
   0  -2  -3  234.06    3.84
   0  -2  -3  240.44    3.88
   0   2   3  239.30    3.87
   0   2   3  234.93    3.85
   0   2   3  238.26    3.80
   0   2   3  244.62    3.94
   0   2   3  236.06    3.85
   0   2   3  253.55    3.83
  -1  -2  -3   21.19    0.55
  -1  -2  -3   21.94    0.58
  -1  -2  -3   22.24    0.63
  -1  -2  -3   21.21    0.54
  -1  -2  -3   21.60    0.60
   1   2   3   21.36    0.59
   1   2   3   21.53    0.55
   1   2   3   20.55    0.56
   1   2   3   21.67    0.63
   1   2   3   22.98    0.47
   1   2   3   21.73    0.62
   2   2   3 1000.00   15.28
  -3  -2  -3  122.30    2.15
  -3  -2  -3  117.89    1.90
  -3  -2  -3  116.19    2.18
  -3  -2  -3  119.89    2.04
   3   2   3  114.04    1.87
   3   2   3  112.84    1.86
   3   2   3  116.91    2.18
   3   2   3  113.53    1.89
   3   2   3  117.45    2.03
  -4  -2  -3  301.24    4.80
  -4  -2  -3  309.40    5.01
  -4  -2  -3  304.19    4.74
   4   2   3  299.08    4.80
   4   2   3  297.69    5.00
   4   2   3  289.01    4.72
   4   2   3  297.51    4.92
  -5  -2  -3  156.85    2.93
  -5  -2  -3  154.69    2.68
   5   2   3  151.20    2.78
   5   2   3  152.87    2.65
   5   2   3  149.38    2.87
   5   2   3  153.58    2.75
   5   2   3  149.74    2.64
  -6  -2  -3   28.05    0.91
  -6  -2  -3   27.31    1.07
   6   2   3   27.97    1.04
   6   2   3   26.54    0.85
   6   2   3   26.77    0.91
   6   2   3   28.31    0.83
   6   2   3   28.60    0.94
  -7  -2  -3    0.41    0.41
  -7  -2  -3    0.14    0.35
   7   2   3   -0.02    0.30
   7   2   3    0.48    0.32
   7   2   3    0.53    0.34
   7   2   3   -0.42    0.40
   7   2   3    0.43    0.27
  -8  -2  -3    1.43    0.46
  -8  -2  -3    0.41    0.53
   8   2   3    0.70    0.86
   8   2   3    1.78    0.60
   8   2   3    1.42    0.43
   8   2   3    0.72    0.33
   8   2   3    0.71    0.41
  -9  -2  -3   32.62    1.35
  -9  -2  -3   33.03    1.60
   9   2   3   34.04    1.30
   9   2   3   32.70    1.33
   9   2   3   32.38    1.14
   9   2   3   31.20    1.53
   9   2   3   32.89    1.43
 -10  -2  -3    1.58    0.62
 -10  -2  -3    1.49    0.71
  10   2   3    2.09    0.89
  10   2   3    0.89    0.64
  10   2   3    0.55    0.49
  10   2   3    0.38    0.68
  10   2   3    1.17    0.62
   8  -3  -3   15.66    1.57
   8  -3  -3   18.52    1.19
   8  -3  -3   16.85    1.33
   8  -3  -3   16.72    1.59
   8  -3  -3   14.38    1.37
  -8   3   3   19.11    1.54
   7  -3  -3   68.59    2.24
   7  -3  -3   71.96    1.93
   7  -3  -3   71.03    2.17
   7  -3  -3   70.59    1.97
   7  -3  -3   67.49    1.66
   7  -3  -3   68.36    1.82
  -7   3   3   72.14    2.05
  -7   3   3   69.63    2.22
   6  -3  -3   12.01    1.14
   6  -3  -3   14.33    0.94
   6  -3  -3   13.34    0.84
   6  -3  -3   12.49    1.12
  -6   3   3   11.59    1.04
  -6   3   3   12.28    0.60
  -6   3   3   14.84    1.04
  -6   3   3   12.52    0.63
   5  -3  -3    1.18    0.37
   5  -3  -3    0.93    0.47
   5  -3  -3    0.44    0.35
   5  -3  -3    0.90    0.42
   5  -3  -3    0.69    0.49
  -5   3   3    1.30    0.43
  -5   3   3    0.88    0.30
  -5   3   3    0.92    0.46
  -5   3   3    0.56    0.29
  -5   3   3    0.75    0.45
   4  -3  -3    5.76    0.76
   4  -3  -3    5.59    0.58
   4  -3  -3    6.51    0.72
   4  -3  -3    6.29    0.56
   4  -3  -3    6.86    0.65
  -4   3   3    5.21    0.50
  -4   3   3    6.63    0.67
  -4   3   3    5.52    0.72
  -4   3   3    6.60    0.73
  -4   3   3    6.06    0.49
   3  -3  -3  369.76    6.18
   3  -3  -3  377.34    6.12
   3  -3  -3  374.96    6.23
   3  -3  -3  376.00    6.31
   3  -3  -3  375.63    6.11
  -3   3   3  388.58    6.21
  -3   3   3  368.61    6.29
  -3   3   3  377.77    6.06
  -3   3   3  373.52    6.03
  -3   3   3  367.61    6.31
   2  -3  -3  302.61    5.10
   2  -3  -3  304.31    4.98
   2  -3  -3  301.09    5.03
   2  -3  -3  304.95    4.99
   2  -3  -3  300.57    5.07
  -2   3   3  305.45    5.11
  -2   3   3  300.13    4.95
  -2   3   3  298.22    4.93
  -2   3   3  308.50    5.06
  -2   3   3  309.50    5.12
  -2   3   3  300.39    5.08
   1  -3  -3  261.39    4.34
   1  -3  -3  257.24    4.24
   1  -3  -3  257.16    4.31
   1  -3  -3  257.17    4.25
   1  -3  -3  257.71    4.30
  -1   3   3  261.01    4.31
  -1   3   3  255.27    4.24
  -1   3   3  254.73    4.31
  -1   3   3  257.33    4.35
  -1   3   3  254.93    4.23
  -1   3   3  266.76    4.33
   0  -3  -3  249.57    4.09
   0  -3  -3  251.85    4.17
   0  -3  -3  247.44    4.05
   0  -3  -3  249.98    4.14
   0  -3  -3  247.23    4.09
   0  -3  -3  251.02    4.09
   0   3   3  251.02    4.09
   0   3   3  249.05    4.15
   0   3   3  260.93    4.10
   0   3   3  250.28    4.19
   0   3   3  251.07    4.09
  -1  -3  -3   13.67    0.44
  -1  -3  -3   13.49    0.49
  -1  -3  -3   13.40    0.47
  -1  -3  -3   13.91    0.56
  -1  -3  -3   13.38    0.47
  -1  -3  -3   13.68    0.53
   1   3   3   13.59    0.58
   1   3   3   13.36    0.49
   1   3   3   14.23    0.47
   1   3   3   13.74    0.48
   1   3   3   13.39    0.46
   1   3   3   13.25    0.55
   1   3   3   13.59    0.57
  -2  -3  -3   58.05    1.09
  -2  -3  -3   58.02    1.23
  -2  -3  -3   57.58    1.07
  -2  -3  -3   57.16    1.25
  -2  -3  -3   58.59    1.11
  -2  -3  -3   59.18    1.05
   2   3   3   58.90    1.13
   2   3   3   57.86    1.03
   2   3   3   59.55    1.25
   2   3   3   59.78    1.27
   2   3   3   57.86    1.12
   2   3   3   58.89    1.07
  -3  -3  -3  153.14    2.49
  -3  -3  -3  163.40    2.69
  -3  -3  -3  154.28    2.78
  -3  -3  -3  157.27    2.71
   3   3   3  154.69    2.52
   3   3   3  154.63    2.52
   3   3   3  152.40    2.48
   3   3   3  156.99    2.71
   3   3   3  154.26    2.53
   3   3   3  156.86    2.78
  -4  -3  -3  162.64    2.67
  -4  -3  -3  163.28    2.97
  -4  -3  -3  169.00    2.90
  -4  -3  -3  163.92    2.86
  -4  -3  -3  163.70    2.69
   4   3   3  164.54    2.86
   4   3   3  161.91    2.96
   4   3   3  157.36    2.66
  -5  -3  -3  108.66    2.23
  -5  -3  -3  109.28    2.23
  -5  -3  -3  113.52    2.01
   5   3   3  108.65    2.08
   5   3   3  109.47    1.99
   5   3   3  111.09    2.23
   5   3   3  107.40    1.96
  -6  -3  -3    1.77    0.35
  -6  -3  -3    0.81    0.33
   6   3   3    1.42    0.28
   6   3   3    1.26    0.30
   6   3   3    1.13    0.38
   6   3   3    1.04    0.27
   6   3   3    0.98    0.26
  -7  -3  -3   49.80    1.31
  -7  -3  -3   49.41    1.51
   7   3   3   46.76    1.26
   7   3   3   48.85    1.28
   7   3   3   49.51    1.26
   7   3   3   48.74    1.30
   7   3   3   48.74    1.46
  -8  -3  -3    3.44    0.52
  -8  -3  -3    3.83    0.63
   8   3   3    3.77    0.48
   8   3   3    4.60    0.53
   8   3   3    3.36    0.46
   8   3   3    3.76    0.65
   8   3   3    2.86    0.47
  -9  -3  -3   26.11    1.43
  -9  -3  -3   29.73    1.27
   9   3   3   26.81    1.24
   9   3   3   28.78    1.12
   9   3   3   28.91    1.40
   9   3   3   28.61    1.16
 -10  -3  -3    1.15    0.61
 -10  -3  -3    0.46    0.61
  10   3   3    0.31    0.80
  10   3   3    0.47    0.57
  10   3   3    0.63    0.57
  10   3   3    1.57    0.55
  10   3   3    1.10    0.59
 -11  -3  -3    1.45    0.71
  11   3   3    1.54    0.77
  11   3   3    2.31    0.72
  11   3   3    0.96    0.65
  11   3   3    4.65    1.04
  11   3   3    3.00    0.83
   7  -4  -3   53.74    1.73
   7  -4  -3   51.34    1.93
   7  -4  -3   52.81    2.15
   7  -4  -3   51.76    1.85
   7  -4  -3   51.45    1.89
  -7   4   3   49.17    2.02
   6  -4  -3   -0.21    0.59
   6  -4  -3   -0.16    0.56
   6  -4  -3    0.95    0.59
   6  -4  -3   -0.01    0.49
   6  -4  -3   -0.14    0.61
  -6   4   3    0.11    0.61
  -6   4   3    0.03    0.36
  -6   4   3    0.47    0.40
  -6   4   3    0.44    0.52
   5  -4  -3    1.76    0.59
   5  -4  -3    2.53    0.55
   5  -4  -3    1.87    0.47
   5  -4  -3    2.41    0.56
   5  -4  -3    2.04    0.55
  -5   4   3    1.95    0.58
  -5   4   3    3.07    0.61
  -5   4   3    2.44    0.42
  -5   4   3    3.28    0.44
   4  -4  -3   30.31    1.27
   4  -4  -3   29.10    1.18
   4  -4  -3   30.46    1.09
  -4   4   3   30.29    0.98
  -4   4   3   32.21    0.98
  -4   4   3   29.94    1.30
  -4   4   3   31.04    1.29
  -4   4   3   30.96    1.22
   3  -4  -3  140.13    2.82
   3  -4  -3  142.88    2.72
   3  -4  -3  141.61    2.80
   3  -4  -3  137.38    2.83
   3  -4  -3  143.13    2.90
  -3   4   3  141.08    2.65
  -3   4   3  141.53    3.07
  -3   4   3  141.50    2.91
  -3   4   3  140.10    2.92
  -3   4   3  141.88    2.63
   2  -4  -3  254.12    4.44
   2  -4  -3  254.68    4.47
   2  -4  -3  252.26    4.48
   2  -4  -3  255.71    4.37
   2  -4  -3  260.43    4.38
  -2   4   3  256.79    4.49
  -2   4   3  253.07    4.47
  -2   4   3  256.73    4.34
  -2   4   3  255.73    4.32
  -2   4   3  254.60    4.52
  -2   4   3  261.48    4.50
   1  -4  -3   22.06    0.76
   1  -4  -3   21.75    0.83
   1  -4  -3   23.61    0.86
   1  -4  -3   21.91    0.81
   1  -4  -3   22.73    0.76
  -1   4   3   21.29    0.74
  -1   4   3   21.98    0.75
  -1   4   3   23.70    0.86
  -1   4   3   22.58    0.81
  -1   4   3   22.12    0.84
  -1   4   3   22.40    0.87
   0  -4  -3    0.32    0.22
   0  -4  -3    0.28    0.25
   0  -4  -3    0.28    0.26
   0  -4  -3   -0.01    0.21
   0   4   3    0.18    0.28
   0   4   3    0.76    0.29
   0   4   3    0.10    0.22
   0   4   3    0.39    0.27
   0   4   3    0.25    0.22
   0   4   3    0.08    0.23
  -1  -4  -3   -0.01    0.20
  -1  -4  -3   -0.05    0.19
  -1  -4  -3   -0.04    0.23
  -1  -4  -3    0.18    0.24
  -1  -4  -3    0.04    0.17
  -1  -4  -3    0.17    0.21
   1   4   3    0.30    0.24
   1   4   3    0.19    0.23
   1   4   3    0.11    0.18
   1   4   3    0.25    0.26
   1   4   3    0.00    0.20
   1   4   3   -0.11    0.20
  -2  -4  -3   25.43    0.61
  -2  -4  -3   25.67    0.82
  -2  -4  -3   26.38    0.69
  -2  -4  -3   25.11    0.81
  -2  -4  -3   25.06    0.69
  -2  -4  -3   24.40    0.68
   2   4   3   24.33    0.59
   2   4   3   25.12    0.70
   2   4   3   24.78    0.81
   2   4   3   25.44    0.72
  -3  -4  -3  121.63    2.08
  -3  -4  -3  125.59    2.10
  -3  -4  -3  121.12    2.28
  -3  -4  -3  120.53    2.04
  -3  -4  -3  119.52    2.31
  -3  -4  -3  120.71    2.05
   3   4   3  121.43    2.07
   3   4   3  119.81    2.28
   3   4   3  118.66    1.94
   3   4   3  121.99    2.11
   3   4   3  121.63    2.33
   3   4   3  119.46    2.10
  -4  -4  -3   68.72    1.38
  -4  -4  -3   63.46    1.25
  -4  -4  -3   66.39    1.47
  -4  -4  -3   64.01    1.50
   4   4   3   63.07    1.13
   4   4   3   66.10    1.47
   4   4   3   66.27    1.53
   4   4   3   66.08    1.24
   4   4   3   65.04    1.25
   4   4   3   65.53    1.22
  -5  -4  -3    2.22    0.26
  -5  -4  -3    1.89    0.35
  -5  -4  -3    1.84    0.33
  -5  -4  -3    2.41    0.39
   5   4   3    1.57    0.38
   5   4   3    2.29    0.33
   5   4   3    1.97    0.26
   5   4   3    1.79    0.19
   5   4   3    2.04    0.26
   5   4   3    1.98    0.23
  -6  -4  -3    0.17    0.31
  -6  -4  -3    0.86    0.31
  -6  -4  -3    0.06    0.35
   6   4   3    0.28    0.21
   6   4   3    0.11    0.26
   6   4   3    0.73    0.39
   6   4   3    0.70    0.23
  -7  -4  -3   35.92    1.28
  -7  -4  -3   35.71    1.24
  -7  -4  -3   33.83    1.23
   7   4   3   37.49    1.28
   7   4   3   36.69    0.99
   7   4   3   36.22    1.05
   7   4   3   36.93    1.14
   7   4   3   36.88    1.09
  -8  -4  -3   10.09    0.93
  -8  -4  -3   10.48    0.81
   8   4   3   10.25    0.70
   8   4   3   10.99    0.95
   8   4   3   10.99    0.80
   8   4   3    8.82    0.72
   8   4   3    9.70    0.73
  -9  -4  -3    1.76    0.53
  -9  -4  -3    1.06    0.57
   9   4   3    1.24    0.43
   9   4   3    1.50    0.45
   9   4   3    1.14    0.65
   9   4   3    1.08    0.45
   9   4   3    1.02    0.43
 -10  -4  -3    0.65    0.59
 -10  -4  -3    0.85    0.61
  10   4   3   -0.04    0.76
  10   4   3    0.96    0.54
  10   4   3    1.07    0.53
  10   4   3    0.96    0.51
  10   4   3    0.48    0.51
 -11  -4  -3    0.93    0.67
  11   4   3    0.38    0.61
  11   4   3    0.08    0.68
  11   4   3   -0.26    0.64
  11   4   3    0.39    0.91
  11   4   3    1.17    0.64
   6  -5  -3    5.47    0.76
   6  -5  -3    4.16    0.91
   6  -5  -3    4.18    0.86
   6  -5  -3    5.31    0.87
   6  -5  -3    4.31    0.86
  -6   5   3    5.33    0.95
  -6   5   3    3.98    0.77
  -6   5   3    4.99    0.58
  -6   5   3    4.87    0.59
   5  -5  -3    7.79    0.84
   5  -5  -3    6.67    0.86
   5  -5  -3    7.78    0.89
   5  -5  -3    9.05    0.88
   5  -5  -3    7.41    0.81
  -5   5   3    6.93    0.86
  -5   5   3    6.87    0.77
  -5   5   3    7.81    0.86
  -5   5   3    9.50    1.07
   4  -5  -3   75.06    2.12
   4  -5  -3   73.71    2.04
   4  -5  -3   74.11    1.88
   4  -5  -3   75.05    1.94
   4  -5  -3   76.27    1.95
  -4   5   3   74.78    1.76
  -4   5   3   75.21    2.15
  -4   5   3   72.61    2.13
  -4   5   3   74.90    1.75
  -4   5   3   79.78    2.14
   3  -5  -3    0.89    0.46
   3  -5  -3    1.24    0.47
   3  -5  -3    1.78    0.49
   3  -5  -3    2.23    0.51
   3  -5  -3    0.75    0.40
  -3   5   3    1.63    0.53
  -3   5   3    0.79    0.49
  -3   5   3    1.08    0.47
  -3   5   3    1.02    0.39
  -3   5   3    0.35    0.50
  -3   5   3    0.65    0.38
   2  -5  -3   17.63    0.87
   2  -5  -3   17.19    0.83
   2  -5  -3   16.24    0.89
   2  -5  -3   16.81    0.81
   2  -5  -3   15.55    0.89
  -2   5   3   16.56    0.95
  -2   5   3   17.82    0.78
  -2   5   3   16.84    0.91
  -2   5   3   17.31    0.78
  -2   5   3   17.01    0.92
  -2   5   3   16.34    0.91
   1  -5  -3   14.54    0.71
   1  -5  -3   15.90    0.78
   1  -5  -3   15.82    0.83
   1  -5  -3   13.79    0.93
   1  -5  -3   16.45    0.79
  -1   5   3   15.93    0.81
  -1   5   3   16.16    0.78
  -1   5   3   14.39    0.84
  -1   5   3   15.00    0.83
  -1   5   3   15.59    0.71
   0  -5  -3    7.11    0.52
   0  -5  -3    6.56    0.54
   0  -5  -3    7.09    0.62
   0  -5  -3    8.09    0.62
   0  -5  -3    6.99    0.58
   0  -5  -3    7.06    0.53
   0   5   3    6.63    0.58
   0   5   3    7.98    0.55
   0   5   3    6.29    0.63
   0   5   3    7.54    0.63
   0   5   3    7.26    0.54
   0   5   3    7.66    0.54
  -1  -5  -3   91.03    1.83
  -1  -5  -3   90.27    1.82
  -1  -5  -3   90.89    1.82
  -1  -5  -3   88.94    1.74
  -1  -5  -3   90.80    1.93
  -1  -5  -3   92.02    1.91
  -1  -5  -3   91.13    1.94
   1   5   3   91.14    1.84
   1   5   3   94.19    1.96
   1   5   3   91.99    1.91
   1   5   3   89.72    1.93
   1   5   3   89.32    1.82
   1   5   3   90.26    1.75
  -2  -5  -3    7.73    0.59
  -2  -5  -3    6.50    0.49
  -2  -5  -3    6.34    0.40
  -2  -5  -3    6.44    0.53
  -2  -5  -3    6.35    0.60
  -2  -5  -3    8.14    0.51
   2   5   3    8.50    0.62
   2   5   3    6.96    0.49
   2   5   3    6.29    0.50
   2   5   3    6.51    0.59
   2   5   3    5.35    0.39
  -3  -5  -3   21.65    0.66
  -3  -5  -3   21.65    0.65
  -3  -5  -3   22.48    0.58
  -3  -5  -3   21.24    0.84
  -3  -5  -3   22.83    0.84
  -3  -5  -3   22.07    0.71
   3   5   3   22.67    0.85
   3   5   3   22.54    0.83
   3   5   3   22.48    0.70
   3   5   3   21.36    0.69
   3   5   3   20.41    0.47
   3   5   3   21.49    0.70
  -4  -5  -3   26.43    0.66
  -4  -5  -3   26.82    0.77
  -4  -5  -3   26.97    0.95
  -4  -5  -3   26.46    0.66
  -4  -5  -3   27.53    0.74
  -4  -5  -3   26.65    0.94
   4   5   3   27.50    1.00
   4   5   3   27.23    0.94
   4   5   3   26.55    0.75
   4   5   3   26.41    0.73
   4   5   3   26.95    0.76
   4   5   3   26.71    0.89
  -5  -5  -3   28.55    0.82
  -5  -5  -3   28.34    1.00
  -5  -5  -3   28.27    1.02
  -5  -5  -3   30.36    0.88
   5   5   3   29.82    0.76
   5   5   3   29.23    1.07
   5   5   3   29.08    0.81
   5   5   3   29.70    0.75
   5   5   3   28.18    1.00
  -6  -5  -3   64.26    1.66
  -6  -5  -3   63.33    1.39
  -6  -5  -3   63.87    1.61
  -6  -5  -3   63.43    1.53
   6   5   3   62.11    1.22
   6   5   3   62.10    1.13
   6   5   3   63.66    1.60
   6   5   3   62.76    1.22
   6   5   3   63.68    1.38
   6   5   3   56.86    1.87
  -7  -5  -3    6.64    0.75
  -7  -5  -3    7.37    0.72
  -7  -5  -3    7.64    0.66
  -7  -5  -3    7.33    0.62
   7   5   3    5.50    0.56
   7   5   3    7.09    0.37
   7   5   3    6.93    0.44
   7   5   3    6.79    0.59
   7   5   3    6.83    0.82
  -8  -5  -3   44.49    1.33
  -8  -5  -3   43.62    1.47
  -8  -5  -3   43.53    1.50
   8   5   3   44.58    1.42
   8   5   3   42.71    1.26
   8   5   3   44.18    1.11
   8   5   3   47.09    1.57
   8   5   3   45.02    1.27
  -9  -5  -3    0.59    0.47
  -9  -5  -3   -0.35    0.50
   9   5   3   -1.07    0.43
   9   5   3   -0.42    0.62
   9   5   3    0.58    0.37
   9   5   3    0.04    0.37
   9   5   3    0.20    0.41
 -10  -5  -3   13.99    1.12
  10   5   3   14.77    1.39
  10   5   3   14.29    1.03
  10   5   3   10.84    1.07
  10   5   3   13.99    0.96
  10   5   3   12.96    0.96
 -11  -5  -3   27.43    1.51
  11   5   3   25.06    1.27
  11   5   3   25.41    1.42
  11   5   3   26.85    1.76
  11   5   3   26.16    1.47
  11   5   3   26.73    1.34
   5  -6  -3    2.10    0.80
   5  -6  -3    3.01    0.86
   5  -6  -3    2.75    0.71
   5  -6  -3    2.40    0.83
   5  -6  -3    2.95    0.77
  -5   6   3    2.67    0.65
  -5   6   3    2.97    0.72
   4  -6  -3   46.53    1.73
   4  -6  -3   42.26    1.51
   4  -6  -3   42.58    1.74
   4  -6  -3   44.74    1.62
   4  -6  -3   44.96    1.59
  -4   6   3   42.08    1.73
  -4   6   3   42.27    1.43
  -4   6   3   43.71    1.43
   3  -6  -3    3.37    0.59
   3  -6  -3    3.25    0.63
   3  -6  -3    3.06    0.62
   3  -6  -3    3.09    0.70
   3  -6  -3    3.27    0.58
  -3   6   3    3.29    0.71
  -3   6   3    3.78    0.63
  -3   6   3    3.90    0.58
  -3   6   3    3.66    0.64
  -3   6   3    4.20    0.57
   2  -6  -3   -0.44    0.45
   2  -6  -3    0.44    0.42
   2  -6  -3    0.06    0.43
   2  -6  -3   -0.47    0.44
   2  -6  -3   -0.03    0.39
   2  -6  -3    0.35    0.40
  -2   6   3   -0.22    0.43
  -2   6   3    0.26    0.43
  -2   6   3   -0.24    0.39
  -2   6   3   -0.12    0.48
  -2   6   3   -0.01    0.44
   1  -6  -3   97.86    2.16
   1  -6  -3   96.69    2.16
   1  -6  -3   98.97    2.23
   1  -6  -3   99.41    2.21
   1  -6  -3   97.91    2.34
   1  -6  -3  100.30    2.24
  -1   6   3   96.12    2.25
  -1   6   3  100.16    2.14
  -1   6   3   97.45    2.29
  -1   6   3   98.76    2.13
  -1   6   3   97.76    2.20
  -1   6   3   99.96    2.33
   0  -6  -3    1.39    0.38
   0  -6  -3    1.52    0.42
   0  -6  -3    1.48    0.42
   0  -6  -3    1.50    0.37
   0  -6  -3    1.92    0.44
   0  -6  -3    1.50    0.38
   0   6   3    1.08    0.43
   0   6   3    1.31    0.36
   0   6   3    0.76    0.38
   0   6   3    1.46    0.39
   0   6   3    1.26    0.38
   0   6   3    1.49    0.39
  -1  -6  -3  185.60    3.30
  -1  -6  -3  184.52    3.45
  -1  -6  -3  190.38    3.42
  -1  -6  -3  189.73    3.50
  -1  -6  -3  188.14    3.55
  -1  -6  -3  193.50    3.44
   1   6   3  187.12    3.42
   1   6   3  192.63    3.57
   1   6   3  186.70    3.52
   1   6   3  186.56    3.41
   1   6   3  188.43    3.48
   1   6   3  189.05    3.32
  -2  -6  -3   62.23    1.43
  -2  -6  -3   60.51    1.55
  -2  -6  -3   63.20    1.47
  -2  -6  -3   60.02    1.28
  -2  -6  -3   63.56    1.58
  -2  -6  -3   63.18    1.58
  -2  -6  -3   62.16    1.44
   2   6   3   63.05    1.58
   2   6   3   63.32    1.48
   2   6   3   62.32    1.58
   2   6   3   60.79    1.45
  -3  -6  -3   24.13    0.78
  -3  -6  -3   25.55    0.97
  -3  -6  -3   24.39    0.60
  -3  -6  -3   25.28    0.85
  -3  -6  -3   25.29    0.97
  -3  -6  -3   24.00    0.79
   3   6   3   24.73    0.95
   3   6   3   22.49    0.92
   3   6   3   24.03    0.81
   3   6   3   24.47    0.84
   3   6   3   24.26    0.81
  -4  -6  -3   36.13    1.02
  -4  -6  -3   36.31    0.79
  -4  -6  -3   35.94    0.91
  -4  -6  -3   36.34    0.92
  -4  -6  -3   33.02    1.32
  -4  -6  -3   35.92    1.17
   4   6   3   36.54    1.00
   4   6   3   37.68    1.01
   4   6   3   35.84    0.97
   4   6   3   36.15    1.12
   4   6   3   35.41    1.16
  -5  -6  -3  195.04    3.40
  -5  -6  -3  195.88    3.68
  -5  -6  -3  190.41    3.63
  -5  -6  -3  190.69    3.17
  -5  -6  -3  195.14    3.18
  -5  -6  -3  198.96    3.26
   5   6   3  193.37    3.51
   5   6   3  191.32    3.63
   5   6   3  194.87    3.35
   5   6   3  193.59    3.38
   5   6   3  196.67    3.35
  -6  -6  -3  230.08    4.22
  -6  -6  -3  233.14    3.91
  -6  -6  -3  223.01    4.22
  -6  -6  -3  225.07    3.93
   6   6   3  225.08    3.82
   6   6   3  227.80    3.92
   6   6   3  227.21    4.20
   6   6   3  235.17    4.29
   6   6   3  227.15    4.02
   6   6   3  227.79    3.82
  -7  -6  -3    1.59    0.45
  -7  -6  -3    2.50    0.92
  -7  -6  -3    2.81    0.42
   7   6   3    2.42    0.60
   7   6   3    2.07    0.57
   7   6   3    2.23    0.31
   7   6   3    2.79    0.40
   7   6   3    2.58    0.33
  -8  -6  -3    5.28    0.56
  -8  -6  -3    6.01    0.72
  -8  -6  -3    5.56    0.63
   8   6   3    4.65    0.61
   8   6   3    6.91    0.50
   8   6   3    5.67    0.46
   8   6   3    4.89    0.42
   8   6   3    5.62    0.55
   8   6   3    6.41    0.80
  -9  -6  -3    7.34    0.86
   9   6   3    7.84    0.94
   9   6   3    6.24    0.58
   9   6   3    5.75    0.75
   9   6   3    7.57    0.81
   9   6   3    6.35    0.90
 -10  -6  -3   39.44    1.50
 -10  -6  -3   38.84    1.69
  10   6   3   40.48    1.59
  10   6   3   40.86    1.43
  10   6   3   36.45    1.79
  10   6   3   38.63    1.29
  10   6   3   36.72    1.17
 -11  -6  -3   63.18    2.05
  11   6   3   59.41    1.66
  11   6   3   59.59    2.26
  11   6   3   59.12    1.90
  11   6   3   58.99    1.69
  11   6   3   59.94    2.04
   4  -7  -3    7.18    1.01
   4  -7  -3    7.12    0.94
   4  -7  -3    7.07    0.98
   4  -7  -3    6.58    0.84
  -4   7   3    5.86    0.99
  -4   7   3    9.93    1.09
   3  -7  -3    1.95    0.67
   3  -7  -3    1.26    0.65
   3  -7  -3    1.20    0.56
   3  -7  -3    0.34    0.64
   3  -7  -3    0.73    0.63
   3  -7  -3    1.08    0.84
  -3   7   3    0.83    0.57
  -3   7   3    1.78    0.57
  -3   7   3    1.43    0.56
  -3   7   3    2.17    0.67
  -3   7   3    2.65    0.79
   2  -7  -3   18.01    1.15
   2  -7  -3   19.06    1.13
   2  -7  -3   17.97    1.08
   2  -7  -3   18.47    1.19
   2  -7  -3   17.94    1.23
  -2   7   3   18.70    1.03
  -2   7   3   17.60    1.17
  -2   7   3   17.73    1.04
  -2   7   3   20.33    1.19
   1  -7  -3  124.49    2.69
   1  -7  -3  124.86    2.71
   1  -7  -3  125.37    2.76
   1  -7  -3  122.85    2.84
   1  -7  -3  120.09    2.65
   1  -7  -3  120.29    2.67
  -1   7   3  121.21    2.61
  -1   7   3  121.50    2.82
  -1   7   3  121.66    2.61
   0  -7  -3    4.43    0.60
   0  -7  -3    5.26    0.63
   0  -7  -3    5.71    0.73
   0  -7  -3    5.50    0.68
   0  -7  -3    5.11    0.59
   0  -7  -3    5.26    0.58
   0   7   3    4.44    0.58
   0   7   3    4.88    0.60
   0   7   3    4.53    0.57
   0   7   3    4.90    0.69
   0   7   3    5.54    0.62
  -1  -7  -3   53.08    1.53
  -1  -7  -3   52.68    1.61
  -1  -7  -3   54.78    1.56
  -1  -7  -3   54.61    1.48
  -1  -7  -3   54.66    1.39
  -1  -7  -3   57.51    1.56
   1   7   3   55.95    1.66
   1   7   3   54.16    1.48
   1   7   3   53.75    1.57
   1   7   3   54.69    1.59
   1   7   3   54.95    1.50
  -2  -7  -3   14.53    0.65
  -2  -7  -3   14.30    0.91
  -2  -7  -3   15.01    0.90
  -2  -7  -3   15.01    0.89
  -2  -7  -3   14.33    0.76
  -2  -7  -3   14.56    0.87
  -2  -7  -3   13.38    0.77
   2   7   3   14.55    0.79
   2   7   3   15.21    0.83
   2   7   3   14.82    0.93
   2   7   3   15.06    0.90
  -3  -7  -3   66.31    1.75
  -3  -7  -3   65.21    1.31
  -3  -7  -3   65.93    1.75
  -3  -7  -3   68.25    1.64
  -3  -7  -3   66.38    1.55
  -3  -7  -3   65.66    1.55
   3   7   3   67.11    1.62
   3   7   3   67.35    1.60
   3   7   3   65.64    1.74
   3   7   3   67.64    1.73
  -4  -7  -3  136.02    2.83
  -4  -7  -3  134.56    2.52
  -4  -7  -3  134.05    2.80
  -4  -7  -3  136.11    2.63
  -4  -7  -3  134.17    2.51
   4   7   3  129.04    2.80
   4   7   3  136.33    2.82
   4   7   3  135.65    2.59
   4   7   3  126.25    2.98
   4   7   3  136.37    2.61
  -5  -7  -3   37.93    1.91
  -5  -7  -3   44.89    1.10
  -5  -7  -3   44.84    1.27
  -5  -7  -3   45.21    1.09
   5   7   3   44.36    1.23
   5   7   3   45.15    1.25
   5   7   3   45.30    1.20
   5   7   3   44.57    1.38
  -6  -7  -3  203.58    3.96
  -6  -7  -3  210.29    3.98
  -6  -7  -3  206.64    3.68
  -6  -7  -3  197.57    3.31
   6   7   3  200.14    3.57
   6   7   3  203.57    3.65
   6   7   3  203.50    3.93
   6   7   3  204.54    3.59
   6   7   3  206.25    3.76
  -7  -7  -3    9.62    0.77
  -7  -7  -3    8.71    0.99
  -7  -7  -3    9.35    0.94
   7   7   3    9.00    0.62
   7   7   3    9.11    0.93
   7   7   3    8.80    0.64
   7   7   3    9.45    0.81
   7   7   3    9.41    0.77
  -8  -7  -3    0.00    0.52
  -8  -7  -3    0.31    0.42
   8   7   3    0.29    0.44
   8   7   3   -0.11    0.40
   8   7   3    0.34    0.35
   8   7   3   -0.46    0.30
   8   7   3    0.42    0.49
  -9  -7  -3   15.45    1.17
  -9  -7  -3   14.57    1.08
   9   7   3   14.97    1.00
   9   7   3   15.65    0.99
   9   7   3   15.45    1.15
   9   7   3   13.37    0.71
   9   7   3   14.45    0.73
   9   7   3   13.57    1.35
 -10  -7  -3   27.41    1.55
  10   7   3   27.42    0.93
  10   7   3   28.59    1.53
  10   7   3   31.07    1.21
  10   7   3   28.35    1.32
  10   7   3   27.91    1.73
  10   7   3   28.72    0.94
 -11  -7  -3   52.94    2.09
  11   7   3   49.40    1.82
  11   7   3   49.30    1.51
  11   7   3   47.14    1.93
  11   7   3   52.16    2.00
   3  -8  -3    5.72    0.83
   3  -8  -3    7.15    1.10
   3  -8  -3    5.30    0.92
   3  -8  -3    6.76    1.00
  -3   8   3    6.61    0.85
  -3   8   3    5.74    0.98
  -3   8   3    7.04    0.91
  -3   8   3    6.27    0.90
   2  -8  -3   16.99    1.34
   2  -8  -3   14.23    1.33
   2  -8  -3   15.06    1.18
   2  -8  -3   15.09    1.39
  -2   8   3   14.44    1.11
  -2   8   3   15.11    1.25
  -2   8   3   10.34    1.19
  -2   8   3   17.16    1.38
   1  -8  -3   87.34    2.29
   1  -8  -3   87.14    2.24
   1  -8  -3   86.35    2.44
   1  -8  -3   85.93    2.26
  -1   8   3   84.65    2.18
  -1   8   3   84.65    2.31
  -1   8   3   82.20    2.36
   0  -8  -3   11.67    1.13
   0  -8  -3   12.67    0.97
   0  -8  -3   10.60    1.11
   0  -8  -3   10.95    1.05
   0  -8  -3   10.42    0.93
   0   8   3   12.04    0.94
   0   8   3   13.28    1.04
   0   8   3   10.51    1.05
  -1  -8  -3   38.74    1.25
  -1  -8  -3   40.29    1.55
  -1  -8  -3   40.77    1.51
  -1  -8  -3   38.68    1.35
  -1  -8  -3   41.12    1.51
   1   8   3   41.30    1.37
   1   8   3   40.44    1.49
   1   8   3   33.55    1.52
   1   8   3   41.02    1.48
  -2  -8  -3    0.21    0.48
  -2  -8  -3   -0.01    0.33
  -2  -8  -3    1.04    0.46
  -2  -8  -3    0.73    0.50
  -2  -8  -3   -0.39    0.39
  -2  -8  -3    0.58    0.49
  -2  -8  -3    0.05    0.49
   2   8   3    0.03    0.43
   2   8   3    0.78    0.40
   2   8   3    0.75    0.57
   2   8   3   -0.54    0.45
  -3  -8  -3   88.73    2.26
  -3  -8  -3   89.51    2.13
  -3  -8  -3   91.67    2.25
  -3  -8  -3   88.68    2.03
  -3  -8  -3   84.81    1.74
   3   8   3   88.39    2.07
   3   8   3   91.44    2.24
   3   8   3   89.83    2.24
   3   8   3   89.24    2.12
  -4  -8  -3  146.69    2.80
  -4  -8  -3  143.14    2.91
  -4  -8  -3  144.71    3.08
  -4  -8  -3  143.96    2.79
  -4  -8  -3  141.17    2.40
  -4  -8  -3  142.27    3.09
   4   8   3  142.65    3.07
   4   8   3  142.04    2.86
   4   8   3  143.80    2.87
   4   8   3  145.98    2.90
   4   8   3  143.60    3.02
  -5  -8  -3    1.35    0.54
  -5  -8  -3    1.66    0.38
  -5  -8  -3    3.00    0.61
  -5  -8  -3    2.41    0.55
   5   8   3    2.37    0.46
   5   8   3    1.71    0.49
   5   8   3    2.52    0.56
   5   8   3    1.64    0.51
   5   8   3    1.98    0.47
  -6  -8  -3  158.34    3.40
  -6  -8  -3  159.33    2.84
  -6  -8  -3  165.38    3.18
  -6  -8  -3  156.65    2.84
   6   8   3  161.82    3.08
   6   8   3  159.41    3.20
   6   8   3  160.15    3.11
   6   8   3  161.11    3.41
  -7  -8  -3    2.80    0.64
  -7  -8  -3    2.03    0.52
   7   8   3    1.41    0.40
   7   8   3    1.71    0.48
   7   8   3    1.03    0.44
   7   8   3    2.18    0.56
   7   8   3    1.62    0.54
  -8  -8  -3    0.26    0.54
  -8  -8  -3    1.17    0.63
   8   8   3    0.04    0.53
   8   8   3   -0.22    0.52
   8   8   3    0.81    0.53
   8   8   3   -0.20    0.50
   8   8   3    0.22    0.39
  -9  -8  -3    4.06    0.70
  -9  -8  -3    5.93    0.88
   9   8   3    6.01    0.69
   9   8   3    5.57    0.71
   9   8   3    3.84    0.75
   9   8   3    4.99    0.68
   9   8   3    5.05    0.63
 -10  -8  -3    1.80    0.75
 -10  -8  -3    1.00    0.76
  10   8   3    0.61    0.62
  10   8   3    0.04    0.61
  10   8   3    1.29    0.51
  10   8   3    0.30    0.45
  10   8   3    0.73    0.68
 -11  -8  -3   14.28    1.60
  11   8   3   16.31    1.10
  11   8   3   15.77    1.37
  11   8   3   15.05    1.56
  11   8   3   15.27    0.92
   2  -9  -3    2.84    0.93
   2  -9  -3    5.23    0.96
  -2   9   3    1.61    0.89
  -2   9   3    2.80    0.79
   1  -9  -3   54.18    1.97
   1  -9  -3   49.23    1.84
   1  -9  -3   50.55    2.08
   1  -9  -3   51.50    1.93
  -1   9   3   49.62    1.80
  -1   9   3   47.83    1.94
  -1   9   3   52.63    1.98
   0  -9  -3   13.98    1.20
   0  -9  -3   16.05    1.38
   0  -9  -3   16.29    1.20
   0  -9  -3   13.61    1.35
   0  -9  -3   16.76    1.96
   0   9   3   15.79    1.15
   0   9   3   12.78    1.17
   0   9   3   14.83    1.29
  -1  -9  -3   14.83    1.10
  -1  -9  -3   11.98    1.25
  -1  -9  -3   13.75    1.18
  -1  -9  -3    9.98    1.23
   1   9   3   13.03    1.06
   1   9   3   14.42    1.13
   1   9   3   11.60    1.37
   1   9   3   11.59    1.18
   1   9   3   15.03    1.73
  -2  -9  -3   41.27    1.68
  -2  -9  -3   41.50    1.49
  -2  -9  -3   44.04    1.67
  -2  -9  -3   41.07    1.64
  -2  -9  -3   42.44    1.69
  -2  -9  -3   43.53    1.32
   2   9   3   43.08    1.51
   2   9   3   43.10    1.65
   2   9   3   41.90    1.59
   2   9   3   45.00    1.79
  -3  -9  -3   18.34    0.81
  -3  -9  -3   17.55    1.28
  -3  -9  -3   17.92    1.20
  -3  -9  -3   19.00    1.26
  -3  -9  -3   18.61    1.22
  -3  -9  -3   17.55    1.04
  -3  -9  -3   18.63    1.09
   3   9   3   16.91    1.16
   3   9   3   18.73    1.07
   3   9   3   17.27    1.32
   3   9   3   18.09    1.23
  -4  -9  -3   31.80    1.23
  -4  -9  -3   30.98    1.20
  -4  -9  -3   30.69    1.51
  -4  -9  -3   31.80    1.43
  -4  -9  -3   31.06    0.84
  -4  -9  -3   31.36    1.39
   4   9   3   30.52    1.45
   4   9   3   29.95    1.34
   4   9   3   31.50    1.42
   4   9   3   28.84    1.21
  -5  -9  -3    4.45    0.72
  -5  -9  -3    4.85    0.77
  -5  -9  -3    6.23    0.74
  -5  -9  -3    5.50    0.70
  -5  -9  -3    4.35    0.59
   5   9   3    4.76    0.76
   5   9   3    4.43    0.67
   5   9   3    5.51    0.74
   5   9   3    4.83    0.61
   5   9   3    5.02    0.62
  -6  -9  -3   11.32    1.07
  -6  -9  -3   11.35    0.77
  -6  -9  -3   12.94    0.84
  -6  -9  -3   11.05    1.11
   6   9   3   12.05    0.90
   6   9   3   11.34    1.11
   6   9   3   11.14    1.12
   6   9   3   12.69    0.99
   6   9   3   10.80    1.02
  -7  -9  -3   11.89    1.19
  -7  -9  -3   11.74    0.67
  -7  -9  -3   11.06    1.15
   7   9   3   10.98    1.02
   7   9   3   12.76    0.90
   7   9   3   12.55    1.22
   7   9   3   12.54    1.02
   7   9   3   12.00    1.11
  -8  -9  -3    0.94    0.65
  -8  -9  -3    2.55    0.73
   8   9   3    1.16    0.66
   8   9   3    1.03    0.50
   8   9   3    0.87    0.55
   8   9   3    0.64    0.60
   8   9   3    0.46    0.64
  -9  -9  -3    9.82    0.92
  -9  -9  -3    9.50    1.09
   9   9   3    9.12    1.13
   9   9   3   10.77    0.93
   9   9   3   10.42    1.03
   9   9   3   10.01    1.06
   9   9   3    9.74    1.12
 -10  -9  -3    1.00    0.79
 -10  -9  -3   -1.67    0.77
  10   9   3    1.58    0.65
  10   9   3    0.81    0.77
  10   9   3   -0.23    0.66
  10   9   3   -0.39    0.65
  10   9   3    1.15    0.56
   0 -10  -3    1.10    0.88
   0 -10  -3    0.65    0.77
   0  10   3   -0.08    0.80
   0  10   3    0.19    0.72
   0  10   3    0.26    0.66
  -1 -10  -3    1.97    0.82
  -1 -10  -3    3.38    0.88
  -1 -10  -3    3.76    0.74
  -1 -10  -3    5.01    0.78
   1  10   3    3.74    0.76
   1  10   3    3.48    0.74
   1  10   3    1.57    0.79
  -2 -10  -3   43.98    1.88
  -2 -10  -3   45.07    1.91
  -2 -10  -3   45.68    1.91
  -2 -10  -3   48.51    1.73
   2  10   3   43.72    1.70
   2  10   3   42.72    1.76
   2  10   3   45.30    1.86
  -3 -10  -3   14.93    1.34
  -3 -10  -3   13.70    1.32
  -3 -10  -3   15.60    1.22
  -3 -10  -3   13.19    1.13
  -3 -10  -3   12.16    1.37
  -3 -10  -3   13.13    0.88
   3  10   3   14.55    1.43
   3  10   3   14.19    1.15
   3  10   3   14.19    1.31
  -4 -10  -3   10.95    1.23
  -4 -10  -3    9.91    1.36
  -4 -10  -3    8.37    1.01
  -4 -10  -3   10.03    0.70
   4  10   3    9.43    0.88
   4  10   3   12.57    1.40
   4  10   3    9.91    1.17
   4  10   3   10.51    1.22
  -5 -10  -3    3.28    0.78
  -5 -10  -3    2.24    0.62
  -5 -10  -3    2.41    0.68
  -5 -10  -3    2.55    0.60
   5  10   3    2.31    0.83
   5  10   3    1.75    0.68
   5  10   3    2.38    0.62
   5  10   3    1.09    0.67
  -6 -10  -3    0.87    0.56
  -6 -10  -3   -0.30    0.62
  -6 -10  -3    0.01    0.75
  -6 -10  -3    0.37    0.67
   6  10   3    0.97    0.55
   6  10   3    1.47    0.56
   6  10   3    1.19    0.79
   6  10   3    1.78    0.70
   6  10   3    1.25    0.69
  -7 -10  -3   50.52    1.47
  -7 -10  -3   52.47    1.92
  -7 -10  -3   49.73    2.01
  -7 -10  -3   49.63    1.39
   7  10   3   49.67    1.65
   7  10   3   52.94    2.00
   7  10   3   47.38    1.75
   7  10   3   50.04    1.73
   7  10   3   51.69    1.89
  -8 -10  -3   36.75    1.77
  -8 -10  -3   34.68    1.83
   8  10   3   32.60    1.66
   8  10   3   34.96    1.56
   8  10   3   34.68    1.85
   8  10   3   36.23    1.44
   8  10   3   33.60    1.58
  -9 -10  -3    4.12    0.95
   9  10   3    5.20    0.89
   9  10   3    5.52    0.73
   9  10   3    4.47    0.83
   9  10   3    4.01    0.92
   9  10   3    3.50    0.76
 -10 -10  -3    0.10    0.90
 -10 -10  -3    2.46    1.04
  10  10   3    0.48    0.66
  10  10   3    1.39    0.78
  10  10   3    0.73    1.26
  10  10   3    1.20    0.82
  -3 -11  -3   23.21    1.74
  -3 -11  -3   24.18    1.53
  -3 -11  -3   23.56    1.25
   3  11   3   23.33    1.70
   3  11   3   21.36    1.55
  -4 -11  -3    2.69    0.89
  -4 -11  -3    3.71    0.80
  -4 -11  -3    3.91    0.61
   4  11   3    3.03    0.82
   4  11   3    2.56    0.82
  -5 -11  -3    6.42    1.02
  -5 -11  -3    7.93    0.86
  -5 -11  -3    9.91    1.23
   5  11   3    7.31    1.00
   5  11   3    7.96    0.92
  -6 -11  -3    0.43    0.88
  -6 -11  -3    1.28    0.87
  -6 -11  -3    2.45    0.71
   6  11   3   -0.25    0.77
   6  11   3    1.63    0.73
   6  11   3    0.64    0.89
   6  11   3    1.71    0.68
  -7 -11  -3   52.76    1.62
  -7 -11  -3   48.28    2.16
  -7 -11  -3   48.64    2.14
  -7 -11  -3   48.74    1.68
   7  11   3   50.83    2.15
   7  11   3   50.85    1.88
   7  11   3   49.98    2.19
   7  11   3   48.81    1.79
  -8 -11  -3   15.39    1.81
  -8 -11  -3   17.47    2.28
   8  11   3   21.18    1.53
   8  11   3   21.73    1.41
   8  11   3   19.07    1.71
   7   9  -4   15.54    1.31
   7   9  -4   14.56    1.54
   7   9  -4   12.17    1.50
  -7  -9   4   14.82    1.31
  -7  -9   4   13.87    1.58
   6   9  -4    3.81    0.85
   6   9  -4    5.26    0.84
   6   9  -4    2.50    0.86
   6   9  -4    5.48    0.84
  -6  -9   4    3.38    0.79
  -6  -9   4    4.51    0.76
   5   9  -4    4.50    0.87
   5   9  -4    3.21    0.75
   5   9  -4    3.78    0.88
   5   9  -4    2.47    0.77
  -5  -9   4    2.93    0.79
  -5  -9   4    1.96    0.79
  -5  -9   4    5.50    0.83
   4   9  -4   -1.01    0.66
   4   9  -4    0.26    0.84
   4   9  -4   -0.15    0.75
   4   9  -4   -0.23    0.64
  -4  -9   4    0.53    0.73
  -4  -9   4    0.55    0.75
  -4  -9   4    0.79    0.77
   3   9  -4   40.11    2.42
   3   9  -4   36.03    1.69
   3   9  -4   37.66    1.66
  -3  -9   4   38.00    1.88
  -3  -9   4   35.55    1.61
  -3  -9   4   35.49    1.72
   2   9  -4    3.45    1.04
   2   9  -4    3.35    0.74
  -2  -9   4    2.86    0.96
  -2  -9   4    3.53    0.86
   9   8  -4    5.50    0.88
   9   8  -4    3.53    1.01
  -9  -8   4    6.55    1.02
   8   8  -4    1.34    0.80
   8   8  -4    3.04    0.73
   8   8  -4    3.13    0.83
   8   8  -4    1.91    1.03
  -8  -8   4    2.15    0.73
  -8  -8   4    3.61    0.86
  -8  -8   4    2.55    0.60
  -8  -8   4    3.24    0.73
   7   8  -4   -0.24    0.66
   7   8  -4    0.70    0.72
   7   8  -4    0.72    0.58
   7   8  -4   -0.50    0.45
   7   8  -4    0.06    0.62
  -7  -8   4    0.63    0.76
  -7  -8   4    0.24    0.55
  -7  -8   4    1.74    0.69
  -7  -8   4   -0.03    0.56
   6   8  -4    6.64    0.87
   6   8  -4    6.90    0.86
   6   8  -4    9.98    1.00
   6   8  -4    8.36    0.94
   6   8  -4    8.26    1.03
  -6  -8   4    9.76    0.95
  -6  -8   4    7.75    1.01
  -6  -8   4    8.27    0.81
   5   8  -4   50.38    1.81
   5   8  -4   52.50    1.67
   5   8  -4   51.89    1.92
   5   8  -4   51.98    1.74
   5   8  -4   52.78    1.98
  -5  -8   4   50.30    1.66
  -5  -8   4   53.69    1.70
  -5  -8   4   52.33    1.71
   4   8  -4   27.47    1.36
   4   8  -4   26.33    1.34
   4   8  -4   28.08    1.51
   4   8  -4   27.80    1.44
  -4  -8   4   26.71    1.36
  -4  -8   4   23.36    1.37
  -4  -8   4   24.71    1.32
  -4  -8   4   27.71    1.40
   3   8  -4   15.06    1.10
   3   8  -4   13.62    1.23
   3   8  -4   12.14    1.30
   3   8  -4   11.93    1.10
  -3  -8   4   13.16    1.16
  -3  -8   4   14.52    1.21
   2   8  -4   21.63    1.27
   2   8  -4   20.08    1.51
   2   8  -4   19.29    1.40
   2   8  -4   21.92    1.21
  -2  -8   4   21.34    1.33
  -2  -8   4   20.95    1.46
   1   8  -4   -0.88    0.60
  -1  -8   4   -0.01    0.67
  -1  -8   4    0.20    0.75
  -1  -8   4    1.05    0.71
   0   8  -4   23.72    1.26
   0   8  -4   26.16    1.19
   0   8  -4   27.59    1.48
   0  -8   4   25.63    1.67
   0  -8   4   26.04    1.64
   0  -8   4   26.70    1.77
  10   7  -4    2.29    0.71
  10   7  -4    0.84    1.54
  10   7  -4    1.49    0.87
 -10  -7   4    3.47    0.88
   9   7  -4   18.06    1.42
   9   7  -4   22.50    1.56
   9   7  -4   17.51    1.22
   9   7  -4   18.87    1.53
  -9  -7   4   18.20    1.36
  -9  -7   4   16.36    1.08
   8   7  -4    1.39    0.67
   8   7  -4   -0.58    0.65
   8   7  -4    0.56    0.57
   8   7  -4   -0.18    0.64
  -8  -7   4    0.18    0.62
  -8  -7   4   -0.77    0.52
  -8  -7   4    0.63    0.53
  -8  -7   4   -0.18    0.43
   7   7  -4   29.04    0.90
   7   7  -4   30.21    1.53
   7   7  -4   32.73    1.34
   7   7  -4   31.66    1.54
   7   7  -4   29.87    1.43
  -7  -7   4   30.46    1.14
  -7  -7   4   31.20    1.22
  -7  -7   4   28.08    1.45
  -7  -7   4   31.80    1.60
  -7  -7   4   32.29    1.28
   6   7  -4   52.85    1.82
   6   7  -4   50.36    1.35
   6   7  -4   53.24    1.72
   6   7  -4   52.14    1.81
   6   7  -4   51.76    1.63
  -6  -7   4   53.13    1.39
  -6  -7   4   52.78    1.53
  -6  -7   4   51.98    1.52
  -6  -7   4   52.17    1.57
   5   7  -4   59.36    1.87
   5   7  -4   58.14    1.80
   5   7  -4   56.28    1.61
   5   7  -4   57.19    1.82
   5   7  -4   57.37    1.70
  -5  -7   4   56.96    1.65
  -5  -7   4   56.16    1.63
  -5  -7   4   59.04    1.68
  -5  -7   4   58.20    1.56
   4   7  -4  143.60    3.19
   4   7  -4  142.68    3.07
   4   7  -4  142.84    3.04
   4   7  -4  141.50    2.93
   4   7  -4  143.11    3.08
  -4  -7   4  147.62    2.97
  -4  -7   4  141.80    2.99
  -4  -7   4  145.89    3.01
   3   7  -4    2.73    0.51
   3   7  -4    3.02    0.59
   3   7  -4    2.82    0.44
   3   7  -4    2.54    0.62
   3   7  -4    1.74    0.55
  -3  -7   4    3.69    0.64
  -3  -7   4    3.65    0.63
  -3  -7   4    4.29    0.63
   2   7  -4    5.89    0.62
   2   7  -4    5.11    0.75
   2   7  -4    5.10    0.71
   2   7  -4    6.41    0.73
   2   7  -4    6.03    0.66
  -2  -7   4    5.09    0.68
  -2  -7   4    6.38    0.77
   1   7  -4   -0.73    0.39
   1   7  -4    0.08    0.67
   1   7  -4   -0.01    0.65
   1   7  -4    0.16    0.50
  -1  -7   4   -0.11    0.60
  -1  -7   4    0.85    0.69
  -1  -7   4    0.73    0.56
   0   7  -4   40.49    1.48
   0   7  -4   31.59    1.50
   0   7  -4   37.32    1.29
   0   7  -4   39.45    1.26
   0   7  -4   41.18    1.76
   0  -7   4   37.33    1.72
   0  -7   4   44.17    2.09
   0  -7   4   39.32    1.56
   0  -7   4   40.26    1.60
   0  -7   4   42.40    1.74
  -1   7  -4   64.91    2.19
  -1   7  -4   65.88    1.82
  -1   7  -4   62.80    1.64
  -1   7  -4   68.85    1.97
  -1   7  -4   65.57    2.00
   1  -7   4   65.65    2.17
   1  -7   4   64.99    2.03
   1  -7   4   65.35    2.25
  -2   7  -4   12.56    1.11
  -2   7  -4   13.28    1.32
  -2   7  -4   12.30    1.15
   2  -7   4   12.49    1.51
   2  -7   4   15.04    1.63
   2  -7   4   12.95    1.30
  10   6  -4    0.41    0.94
  10   6  -4   -1.24    0.76
  10   6  -4    0.86    0.60
  10   6  -4    0.98    0.78
  10   6  -4    0.58    0.74
 -10  -6   4   -1.28    0.68
 -10  -6   4    1.38    0.72
   9   6  -4   34.39    1.33
   9   6  -4   38.45    1.74
   9   6  -4   37.63    1.78
   9   6  -4   35.75    1.53
   9   6  -4   35.85    1.39
  -9  -6   4   35.10    1.40
  -9  -6   4   35.29    1.45
   8   6  -4    3.40    0.67
   8   6  -4    3.61    0.66
   8   6  -4    3.10    0.70
   8   6  -4    4.32    0.63
  -8  -6   4    3.56    0.59
  -8  -6   4    4.05    0.69
  -8  -6   4    3.54    0.48
  -8  -6   4    4.23    0.77
  -8  -6   4    3.88    0.44
   7   6  -4   57.72    1.68
   7   6  -4   54.47    1.84
   7   6  -4   54.64    1.87
   7   6  -4   58.70    1.64
  -7  -6   4   56.91    1.40
  -7  -6   4   55.93    1.78
  -7  -6   4   55.67    1.68
  -7  -6   4   57.06    1.54
   6   6  -4   90.43    2.35
   6   6  -4   90.48    1.77
   6   6  -4   93.21    2.16
   6   6  -4   93.29    2.19
   6   6  -4   93.07    2.34
  -6  -6   4   90.80    2.31
  -6  -6   4   90.11    2.04
  -6  -6   4   91.28    2.00
  -6  -6   4   94.20    2.06
   5   6  -4    9.03    0.96
   5   6  -4    7.97    0.88
   5   6  -4    8.23    0.78
   5   6  -4    8.28    0.65
   5   6  -4    9.17    0.90
  -5  -6   4    8.92    0.75
  -5  -6   4    8.61    0.81
  -5  -6   4    6.93    0.82
  -5  -6   4    9.02    0.67
   4   6  -4  198.30    3.75
   4   6  -4  199.51    3.58
   4   6  -4  187.44    4.28
   4   6  -4  200.96    3.77
   4   6  -4  193.84    3.85
  -4  -6   4  196.66    3.59
  -4  -6   4  202.83    3.96
  -4  -6   4  195.78    3.76
  -4  -6   4  198.62    3.65
   3   6  -4   16.78    0.91
   3   6  -4   16.97    0.92
   3   6  -4   17.12    0.98
   3   6  -4   15.86    0.89
   3   6  -4   14.92    1.03
  -3  -6   4   15.03    0.93
  -3  -6   4   15.71    0.91
  -3  -6   4   16.81    0.95
  -3  -6   4   15.88    0.89
  -3  -6   4   16.65    1.05
   2   6  -4    9.96    0.89
   2   6  -4   10.13    1.14
   2   6  -4    8.59    0.91
   2   6  -4    8.11    0.65
   2   6  -4    9.16    0.79
   2   6  -4    8.12    0.72
  -2  -6   4    8.49    0.81
  -2  -6   4    7.87    0.87
  -2  -6   4    8.37    0.95
  -2  -6   4   10.14    0.84
   1   6  -4   22.03    0.89
   1   6  -4   21.23    1.19
   1   6  -4   21.26    1.02
   1   6  -4   19.95    0.89
   1   6  -4   20.49    1.08
   1   6  -4   21.02    1.14
  -1  -6   4   21.01    1.14
  -1  -6   4   20.80    1.20
  -1  -6   4   21.54    1.06
   0   6  -4   69.66    2.05
   0   6  -4   71.82    1.85
   0   6  -4   70.36    1.87
   0   6  -4   68.66    1.69
   0   6  -4   67.32    1.59
   0  -6   4   70.75    2.04
   0  -6   4   65.55    1.89
   0  -6   4   69.00    1.88
   0  -6   4   69.60    2.02
  -1   6  -4   59.00    1.71
  -1   6  -4   56.62    1.96
  -1   6  -4   57.92    1.41
  -1   6  -4   58.41    1.64
  -1   6  -4   60.23    1.69
   1  -6   4   58.60    1.94
   1  -6   4   58.04    1.96
   1  -6   4   54.83    1.72
   1  -6   4   56.86    1.79
  -2   6  -4   14.12    1.09
  -2   6  -4   13.03    1.17
  -2   6  -4   14.61    1.00
  -2   6  -4   15.65    1.07
   2  -6   4   13.34    1.20
   2  -6   4   15.33    1.11
   2  -6   4   15.31    1.29
   2  -6   4   13.39    1.32
   2  -6   4   12.33    1.31
  -3   6  -4    0.05    0.55
  -3   6  -4   -0.47    0.57
  -3   6  -4   -0.07    0.57
  -3   6  -4    0.24    0.67
   3  -6   4    0.66    0.79
   3  -6   4   -0.15    0.62
   3  -6   4   -0.37    0.70
  10   5  -4    4.34    0.76
  10   5  -4    4.09    0.86
  10   5  -4    4.12    0.69
  10   5  -4    3.27    0.89
  10   5  -4    4.84    0.79
 -10  -5   4    4.11    0.70
 -10  -5   4    5.29    0.82
 -10  -5   4    4.22    0.83
   9   5  -4   15.41    1.11
   9   5  -4   12.49    0.96
   9   5  -4   14.25    1.32
   9   5  -4   13.68    1.11
   9   5  -4   12.24    1.24
  -9  -5   4   15.13    0.99
  -9  -5   4   13.87    1.16
  -9  -5   4   15.70    1.29
  -9  -5   4   16.05    1.40
   8   5  -4    2.43    0.53
   8   5  -4    2.53    0.51
   8   5  -4    2.41    0.53
   8   5  -4    2.24    0.56
   8   5  -4    1.82    0.59
  -8  -5   4    2.07    0.65
  -8  -5   4    2.40    0.52
  -8  -5   4    2.38    0.95
   7   5  -4  130.08    2.94
   7   5  -4  131.62    2.67
   7   5  -4  131.94    2.68
   7   5  -4  130.35    2.99
   7   5  -4  130.19    2.64
  -7  -5   4  128.78    2.69
  -7  -5   4  130.11    2.44
  -7  -5   4  133.53    2.63
  -7  -5   4  126.11    2.91
  -7  -5   4  131.03    2.41
   6   5  -4  199.38    3.83
   6   5  -4  194.53    3.59
   6   5  -4  187.33    3.72
   6   5  -4  193.41    3.85
  -6  -5   4  196.08    3.54
  -6  -5   4  194.19    3.68
  -6  -5   4  194.54    3.45
  -6  -5   4  188.87    3.77
  -6  -5   4  193.74    3.42
   5   5  -4   -0.41    0.38
   5   5  -4    0.42    0.37
   5   5  -4   -0.21    0.24
   5   5  -4    0.41    0.50
  -5  -5   4    0.36    0.26
  -5  -5   4    0.10    0.30
  -5  -5   4    0.28    0.42
  -5  -5   4    0.41    0.34
  -5  -5   4    0.18    0.34
   4   5  -4  135.50    2.51
   4   5  -4  138.31    2.72
   4   5  -4  127.58    2.96
   4   5  -4  132.82    2.79
  -4  -5   4  135.80    2.51
  -4  -5   4  138.06    2.68
  -4  -5   4  137.58    2.64
  -4  -5   4  138.05    2.66
  -4  -5   4  137.92    2.82
   3   5  -4   10.48    0.92
   3   5  -4   10.98    0.68
   3   5  -4   11.16    0.80
   3   5  -4   12.01    0.74
   3   5  -4   12.95    0.78
  -3  -5   4   12.80    0.82
  -3  -5   4   12.26    0.78
  -3  -5   4   11.04    0.73
  -3  -5   4   11.92    0.69
  -3  -5   4   11.23    0.71
   2   5  -4   33.68    1.31
   2   5  -4   36.27    1.11
   2   5  -4   36.14    1.17
   2   5  -4   36.53    1.41
   2   5  -4   36.00    1.17
  -2  -5   4   36.54    1.17
  -2  -5   4   36.19    1.15
  -2  -5   4   36.06    1.16
  -2  -5   4   36.54    1.25
   1   5  -4   28.77    1.37
   1   5  -4   29.92    0.96
   1   5  -4   31.05    1.16
   1   5  -4   29.22    0.95
   1   5  -4   30.14    1.09
  -1  -5   4   30.31    1.18
  -1  -5   4   29.77    1.10
  -1  -5   4   30.99    1.15
  -1  -5   4   29.31    1.07
   0   5  -4   32.82    1.08
   0   5  -4   30.39    1.21
   0   5  -4   31.54    1.16
   0   5  -4   31.44    1.28
   0   5  -4   33.05    0.95
   0  -5   4   32.92    1.27
   0  -5   4   33.24    1.27
   0  -5   4   31.68    1.15
   0  -5   4   33.14    1.19
  -1   5  -4   16.76    0.91
  -1   5  -4   17.25    1.13
  -1   5  -4   16.98    0.69
  -1   5  -4   17.40    0.95
   1  -5   4   19.20    1.12
   1  -5   4   18.56    1.01
   1  -5   4   18.23    0.96
   1  -5   4   16.64    1.10
  -2   5  -4    4.44    0.63
  -2   5  -4    5.92    0.77
  -2   5  -4    5.57    0.63
   2  -5   4    5.18    0.77
   2  -5   4    4.41    0.71
   2  -5   4    4.12    0.65
   2  -5   4    4.55    0.61
  -3   5  -4   31.39    1.45
  -3   5  -4   32.45    1.25
  -3   5  -4   29.62    1.32
  -3   5  -4   30.65    1.14
   3  -5   4   30.69    1.57
   3  -5   4   30.48    1.38
   3  -5   4   32.15    1.31
   3  -5   4   29.25    1.52
   3  -5   4   31.76    1.56
  -4   5  -4   18.45    1.12
  -4   5  -4   17.09    1.22
  -4   5  -4   17.17    0.97
  -4   5  -4   16.33    1.27
   4  -5   4   17.19    1.17
   4  -5   4   19.37    1.74
   4  -5   4   16.59    1.43
   4  -5   4   16.23    1.31
   4  -5   4   18.80    1.47
  -5   5  -4   16.81    1.35
  -5   5  -4   18.05    1.39
   5  -5   4   15.61    1.30
  10   4  -4    0.63    0.77
  10   4  -4   -1.01    0.61
  10   4  -4   -0.25    0.53
  10   4  -4    0.82    0.71
  10   4  -4    0.27    0.67
 -10  -4   4    0.98    0.73
 -10  -4   4    1.62    0.69
   9   4  -4    4.74    0.65
   9   4  -4    5.67    0.72
   9   4  -4    5.57    0.80
   9   4  -4    4.34    0.59
  -9  -4   4    5.21    0.77
  -9  -4   4    5.52    0.74
  -9  -4   4    5.26    0.72
   8   4  -4   11.70    0.85
   8   4  -4   10.62    1.03
   8   4  -4   11.08    0.94
  -8  -4   4   11.29    1.08
  -8  -4   4   10.24    1.05
  -8  -4   4   11.73    0.96
  -8  -4   4   11.04    0.76
   7   4  -4    1.98    0.50
   7   4  -4    2.47    0.47
   7   4  -4    3.10    0.47
   7   4  -4    2.34    0.49
  -7  -4   4    2.05    0.57
  -7  -4   4    2.69    0.47
  -7  -4   4    2.73    0.31
  -7  -4   4    3.69    0.61
  -7  -4   4    2.92    0.34
  -7  -4   4    2.54    0.49
   6   4  -4   14.40    0.75
   6   4  -4   14.67    0.81
   6   4  -4   14.37    0.89
  -6  -4   4   13.97    0.67
  -6  -4   4   12.56    0.94
  -6  -4   4   12.46    0.78
  -6  -4   4   13.29    0.74
  -6  -4   4   12.97    0.62
  -6  -4   4   14.07    0.93
   5   4  -4   -0.30    0.31
   5   4  -4    0.04    0.28
   5   4  -4   -0.33    0.47
  -5  -4   4    0.42    0.32
  -5  -4   4   -0.43    0.32
  -5  -4   4    0.05    0.27
  -5  -4   4    0.07    0.30
   4   4  -4   32.06    1.09
   4   4  -4   29.28    1.13
   4   4  -4   30.91    0.80
   4   4  -4   30.41    1.08
   4   4  -4   30.04    0.98
  -4  -4   4   30.16    0.79
  -4  -4   4   30.45    0.95
  -4  -4   4   30.83    0.93
  -4  -4   4   29.69    1.01
  -4  -4   4   30.78    1.08
   3   4  -4    8.17    0.63
   3   4  -4    8.85    0.59
   3   4  -4    8.76    0.70
   3   4  -4    8.71    0.54
  -3  -4   4    8.61    0.53
  -3  -4   4    9.06    1.08
  -3  -4   4    9.51    0.60
  -3  -4   4    9.62    0.67
  -3  -4   4    8.91    0.61
   2   4  -4    2.07    0.35
   2   4  -4    3.08    0.55
   2   4  -4    1.99    0.34
   2   4  -4    2.43    0.38
   2   4  -4    2.24    0.41
  -2  -4   4    2.04    0.37
  -2  -4   4    2.24    0.36
  -2  -4   4    2.63    0.56
  -2  -4   4    2.45    0.40
   1   4  -4   12.06    0.58
   1   4  -4   11.77    0.71
   1   4  -4   11.74    0.74
   1   4  -4   12.22    0.69
   1   4  -4   13.00    0.67
  -1  -4   4   11.05    0.69
  -1  -4   4   12.69    0.69
  -1  -4   4   12.44    0.68
   0   4  -4   21.79    0.92
   0   4  -4   22.25    0.70
   0   4  -4   20.88    0.95
   0   4  -4   20.90    0.81
   0   4  -4   22.09    0.84
   0   4  -4   21.73    0.86
   0  -4   4   20.90    0.86
   0  -4   4   20.63    0.95
   0  -4   4   21.81    0.94
   0  -4   4   20.60    0.87
  -1   4  -4   -0.06    0.33
  -1   4  -4    0.07    0.40
  -1   4  -4   -0.35    0.27
  -1   4  -4    0.21    0.20
  -1   4  -4   -0.26    0.33
   1  -4   4   -0.25    0.38
   1  -4   4   -0.18    0.39
   1  -4   4    0.71    0.37
  -2   4  -4   85.95    1.86
  -2   4  -4   84.69    2.17
  -2   4  -4   84.20    1.86
  -2   4  -4   83.45    2.09
  -2   4  -4   80.76    1.97
   2  -4   4   83.58    1.94
   2  -4   4   82.63    2.15
   2  -4   4   84.11    2.04
   2  -4   4   85.07    1.96
  -3   4  -4   10.89    0.96
  -3   4  -4   11.61    0.72
  -3   4  -4   11.09    0.78
  -3   4  -4   11.63    0.94
   3  -4   4   12.47    1.06
   3  -4   4   11.79    0.83
   3  -4   4   12.67    1.05
   3  -4   4   12.77    1.06
   3  -4   4   13.08    0.93
  -4   4  -4   88.07    2.34
  -4   4  -4   91.11    2.38
  -4   4  -4   91.52    1.91
  -4   4  -4   83.94    2.20
   4  -4   4   90.99    2.20
   4  -4   4   92.55    2.36
   4  -4   4   90.43    2.46
   4  -4   4   90.31    2.16
   4  -4   4   90.28    2.47
  -5   4  -4   -0.07    0.52
  -5   4  -4    0.09    0.41
  -5   4  -4    0.60    0.58
  -5   4  -4    0.42    0.38
   5  -4   4    0.38    0.68
   5  -4   4    0.36    0.69
   5  -4   4    1.21    0.68
   5  -4   4   -0.37    0.67
   5  -4   4   -0.04    0.53
  -6   4  -4    0.74    0.63
  -6   4  -4    0.95    0.68
   6  -4   4    2.20    0.98
   6  -4   4    2.49    0.68
   6  -4   4    2.42    0.83
   6  -4   4    2.33    0.91
  10   3  -4   -0.58    0.60
  10   3  -4   -0.24    0.66
  10   3  -4    0.96    0.73
  10   3  -4    0.94    0.55
 -10  -3   4    0.46    0.66
   9   3  -4    0.37    0.50
   9   3  -4    0.22    0.43
   9   3  -4   -0.94    0.54
   9   3  -4    0.63    0.57
  -9  -3   4    0.80    0.59
  -9  -3   4    0.19    0.60
   8   3  -4   54.00    1.46
   8   3  -4   52.98    1.74
   8   3  -4   53.23    1.65
  -8  -3   4   52.77    1.30
  -8  -3   4   56.23    1.67
  -8  -3   4   54.76    1.84
   7   3  -4   40.38    1.39
   7   3  -4   41.04    1.33
   7   3  -4   40.45    1.18
   7   3  -4   41.90    1.18
  -7  -3   4   39.08    1.06
  -7  -3   4   39.75    1.45
  -7  -3   4   33.44    1.87
  -7  -3   4   38.68    1.46
   6   3  -4    1.66    0.38
   6   3  -4    1.98    0.44
   6   3  -4    1.95    0.35
   6   3  -4    0.83    0.63
  -6  -3   4    1.88    0.42
  -6  -3   4    1.69    0.43
  -6  -3   4    2.25    0.35
  -6  -3   4    1.99    0.31
  -6  -3   4    1.62    0.45
  -6  -3   4    1.78    0.28
   5   3  -4    9.68    0.71
   5   3  -4   10.24    0.69
   5   3  -4   10.88    0.63
  -5  -3   4   10.35    0.67
  -5  -3   4   11.20    0.74
  -5  -3   4   10.44    0.56
  -5  -3   4    9.26    0.76
  -5  -3   4   10.39    0.53
  -5  -3   4   10.24    0.57
   4   3  -4    0.61    0.30
   4   3  -4    0.91    0.28
   4   3  -4    0.41    0.28
   4   3  -4    0.95    0.32
  -4  -3   4    0.74    0.31
  -4  -3   4    0.75    0.28
  -4  -3   4    0.72    0.33
  -4  -3   4    0.68    0.25
   3   3  -4  239.70    4.08
   3   3  -4  239.61    4.06
   3   3  -4  237.72    3.87
   3   3  -4  235.57    4.14
  -3  -3   4  239.76    4.13
  -3  -3   4  237.53    4.09
  -3  -3   4  232.90    3.86
  -3  -3   4  239.51    4.03
  -3  -3   4  239.34    4.04
   2   3  -4   24.70    0.76
   2   3  -4   24.51    0.87
   2   3  -4   26.56    0.83
  -2  -3   4   24.40    0.86
  -2  -3   4   24.16    0.86
  -2  -3   4   24.38    0.76
  -2  -3   4   24.16    0.81
   1   3  -4   10.47    0.56
   1   3  -4   10.62    0.65
   1   3  -4    9.78    0.52
   1   3  -4   10.00    0.59
   1   3  -4   10.49    0.57
  -1  -3   4   10.62    0.59
  -1  -3   4   10.51    0.58
  -1  -3   4   10.61    0.63
  -1  -3   4   10.03    0.58
   0   3  -4   50.21    1.31
   0   3  -4   51.08    1.22
   0   3  -4   50.97    1.08
   0   3  -4   49.87    1.28
   0   3  -4   51.35    1.25
   0   3  -4   51.22    1.23
   0  -3   4   49.33    1.31
   0  -3   4   50.83    1.25
   0  -3   4   51.34    1.26
   0  -3   4   51.91    1.28
  -1   3  -4   42.61    1.29
  -1   3  -4   41.67    1.10
  -1   3  -4   42.23    0.88
  -1   3  -4   43.14    1.11
   1  -3   4   42.42    1.16
   1  -3   4   42.84    1.27
   1  -3   4   43.59    1.19
   1  -3   4   40.67    1.13
  -2   3  -4  331.75    5.69
  -2   3  -4  329.01    5.59
  -2   3  -4  325.79    5.37
  -2   3  -4  334.35    5.39
   2  -3   4  327.27    5.68
   2  -3   4  324.74    5.46
   2  -3   4  308.14    6.02
  -3   3  -4    6.17    0.75
  -3   3  -4    4.94    0.56
  -3   3  -4    6.31    0.74
  -3   3  -4    5.14    0.61
  -3   3  -4    5.99    0.52
   3  -3   4    6.27    0.76
   3  -3   4    5.56    0.64
   3  -3   4    6.70    0.85
   3  -3   4    6.54    0.61
  -4   3  -4   66.73    1.45
  -4   3  -4   67.04    1.43
  -4   3  -4   66.05    1.89
  -4   3  -4   67.36    1.96
  -4   3  -4   64.54    1.82
   4  -3   4   64.50    1.66
   4  -3   4   65.73    1.66
   4  -3   4   68.06    1.99
   4  -3   4   66.84    1.81
   4  -3   4   64.64    1.92
  -5   3  -4    9.98    0.99
  -5   3  -4    9.66    1.06
   5  -3   4    9.96    1.09
   5  -3   4   11.17    1.13
   5  -3   4   11.39    0.92
   5  -3   4    9.45    0.84
   5  -3   4   10.61    1.11
  -6   3  -4    4.96    0.80
  -6   3  -4    4.01    0.71
   6  -3   4    4.32    0.78
   6  -3   4    7.45    0.87
   6  -3   4    5.68    0.83
   6  -3   4    3.17    0.73
   6  -3   4    4.62    0.74
  -7   3  -4   24.23    1.52
  -7   3  -4   24.65    1.59
   7  -3   4   28.68    2.80
   7  -3   4   27.41    1.33
   7  -3   4   24.58    1.48
   7  -3   4   24.81    1.71
  10   2  -4   12.22    1.37
  10   2  -4   11.40    1.17
  10   2  -4   11.36    1.43
  10   2  -4   12.98    1.06
 -10  -2   4   11.29    1.33
   9   2  -4   15.45    1.23
   9   2  -4   14.19    1.00
   9   2  -4   16.69    1.27
   9   2  -4   14.13    0.98
  -9  -2   4   15.38    1.30
  -9  -2   4   14.26    1.23
   8   2  -4   30.62    1.38
   8   2  -4   30.19    1.32
   8   2  -4   27.44    1.12
   8   2  -4   29.75    1.06
  -8  -2   4   28.78    1.32
  -8  -2   4   28.89    1.41
   7   2  -4   17.84    1.01
   7   2  -4   16.56    0.81
   7   2  -4   16.87    0.95
   7   2  -4   14.67    0.77
  -7  -2   4   16.00    0.98
  -7  -2   4   17.01    1.06
   6   2  -4   10.98    0.77
   6   2  -4    8.93    0.62
   6   2  -4   10.12    0.75
   6   2  -4   10.85    0.64
  -6  -2   4   11.45    0.81
  -6  -2   4    8.91    0.44
  -6  -2   4    9.64    0.81
  -6  -2   4    9.31    0.47
  -6  -2   4    9.00    0.72
  -6  -2   4   10.90    0.47
   5   2  -4  150.02    2.73
   5   2  -4  152.41    2.86
   5   2  -4  144.88    2.70
   5   2  -4  150.62    2.91
  -5  -2   4  147.86    2.58
  -5  -2   4  149.18    2.97
  -5  -2   4  149.33    2.60
  -5  -2   4  147.73    2.56
  -5  -2   4  151.11    2.83
   4   2  -4    1.13    0.28
   4   2  -4    0.87    0.27
   4   2  -4    1.13    0.28
   4   2  -4    1.34    0.33
  -4  -2   4    1.26    0.31
  -4  -2   4    1.21    0.33
  -4  -2   4    1.13    0.25
  -4  -2   4    1.12    0.37
  -4  -2   4    1.41    0.27
   3   2  -4  569.82    9.25
   3   2  -4  593.86    9.20
   3   2  -4  587.70    9.29
  -3  -2   4  579.31    9.36
  -3  -2   4  588.69    9.27
  -3  -2   4  590.82    9.16
  -3  -2   4  598.98    9.28
  -3  -2   4  585.38    9.17
  -3  -2   4  578.69    8.95
   2   2  -4  135.94    2.50
   2   2  -4  139.77    2.51
   2   2  -4  138.97    2.39
   2   2  -4  141.45    2.55
  -2  -2   4  137.21    2.38
  -2  -2   4  138.52    2.56
  -2  -2   4  140.72    2.50
  -2  -2   4  140.20    2.49
  -2  -2   4  137.42    2.53
   1   2  -4    8.03    0.48
   1   2  -4    8.14    0.49
   1   2  -4    9.12    0.51
   1   2  -4    9.03    0.54
  -1  -2   4    8.86    0.58
  -1  -2   4    8.03    0.49
  -1  -2   4    8.47    0.52
  -1  -2   4    9.02    0.51
   0   2  -4   89.15    1.73
   0   2  -4   87.17    1.72
   0   2  -4   88.24    1.79
   0   2  -4   88.66    1.76
   0   2  -4   85.94    1.60
   0  -2   4   87.84    1.74
   0  -2   4   87.05    1.79
   0  -2   4   87.26    1.73
   0  -2   4   87.95    1.74
  -1   2  -4  124.95    2.44
  -1   2  -4  127.72    2.42
  -1   2  -4  127.42    2.30
  -1   2  -4  126.10    2.34
  -1   2  -4  123.61    2.07
  -1   2  -4  125.82    2.29
   1  -2   4  121.59    2.31
   1  -2   4  124.36    2.45
   1  -2   4  129.68    2.34
   1  -2   4  127.18    2.34
  -2   2  -4  372.66    6.26
  -2   2  -4  379.21    6.03
  -2   2  -4  380.57    6.31
  -2   2  -4  385.67    6.05
   2  -2   4  375.45    6.31
   2  -2   4  376.89    6.14
   2  -2   4  370.44    6.11
   2  -2   4  374.67    6.11
  -3   2  -4  124.41    2.58
  -3   2  -4  125.17    2.49
  -3   2  -4  123.07    2.21
  -3   2  -4  123.21    2.22
  -3   2  -4  121.19    2.55
   3  -2   4  124.03    2.42
   3  -2   4  123.55    2.60
   3  -2   4  121.44    2.33
   3  -2   4  120.79    2.33
  -4   2  -4   39.49    1.26
  -4   2  -4   37.61    1.35
  -4   2  -4   37.85    0.90
  -4   2  -4   40.16    0.93
  -4   2  -4   41.47    1.42
   4  -2   4   39.87    1.38
   4  -2   4   39.20    1.11
   4  -2   4   39.95    1.10
   4  -2   4   40.24    1.22
  -5   2  -4    4.17    0.60
  -5   2  -4    5.13    0.70
  -5   2  -4    4.56    0.66
   5  -2   4    5.42    0.70
   5  -2   4    4.79    0.50
   5  -2   4    4.54    0.67
   5  -2   4    5.41    0.62
  -6   2  -4   38.66    1.61
  -6   2  -4   40.57    1.50
   6  -2   4   40.26    1.62
   6  -2   4   36.05    1.42
   6  -2   4   38.94    1.25
   6  -2   4   40.39    1.64
   6  -2   4   37.64    1.49
  -7   2  -4   47.66    1.92
  -7   2  -4   46.81    1.77
  -7   2  -4   50.70    2.03
   7  -2   4   50.13    1.49
   7  -2   4   53.68    1.57
   7  -2   4   48.86    1.95
   7  -2   4   51.01    1.93
   7  -2   4   49.05    1.86
  -8   2  -4    5.76    0.87
   8  -2   4    5.57    0.96
   8  -2   4    5.94    0.83
   8  -2   4    4.17    0.71
  10   1  -4   33.78    1.82
  10   1  -4   35.09    1.40
  10   1  -4   36.50    1.84
  10   1  -4   37.86    1.55
 -10  -1   4   30.65    2.83
   9   1  -4   17.76    1.32
   9   1  -4   15.74    1.34
   9   1  -4   17.35    0.99
   9   1  -4   16.99    1.09
  -9  -1   4   17.09    1.35
   8   1  -4    4.11    0.68
   8   1  -4    4.00    0.51
   8   1  -4    3.40    0.65
  -8  -1   4    3.71    0.67
  -8  -1   4    3.38    0.64
   7   1  -4    0.13    0.40
   7   1  -4    0.14    0.37
   7   1  -4    0.41    0.33
  -7  -1   4    0.45    0.47
  -7  -1   4   -0.29    0.42
   6   1  -4    0.25    0.36
   6   1  -4   -0.04    0.29
   6   1  -4   -0.61    0.32
   6   1  -4    0.05    0.26
  -6  -1   4    0.20    0.19
  -6  -1   4    0.46    0.35
  -6  -1   4   -0.03    0.39
   5   1  -4  335.28    5.56
   5   1  -4  342.80    5.59
   5   1  -4  346.32    5.78
   5   1  -4  339.50    5.78
  -5  -1   4  350.68    5.76
  -5  -1   4  346.53    5.43
  -5  -1   4  337.86    5.42
  -5  -1   4  337.91    5.29
  -5  -1   4  336.29    5.84
   4   1  -4   10.71    0.55
   4   1  -4   11.42    0.66
   4   1  -4   11.35    0.56
  -4  -1   4   10.52    0.37
  -4  -1   4   10.13    0.49
  -4  -1   4    9.75    0.69
  -4  -1   4   10.32    0.65
  -4  -1   4   10.25    0.62
  -4  -1   4   10.91    0.50
   3   1  -4  272.91    4.60
   3   1  -4  272.84    4.53
   3   1  -4  270.19    4.51
   3   1  -4  279.99    4.63
  -3  -1   4  277.27    4.64
  -3  -1   4  270.94    4.47
  -3  -1   4  276.64    4.49
  -3  -1   4  274.19    4.59
  -3  -1   4  280.96    4.63
   2   1  -4  160.15    2.78
   2   1  -4  158.56    2.77
   2   1  -4  160.37    2.81
   2   1  -4  158.42    2.85
  -2  -1   4  163.44    2.86
  -2  -1   4  159.15    2.75
  -2  -1   4  164.43    2.84
  -2  -1   4  158.38    2.79
  -2  -1   4  159.72    2.77
  -2  -1   4  157.81    2.62
   1   1  -4   34.02    0.86
   1   1  -4   34.10    0.86
   1   1  -4   34.51    0.86
  -1  -1   4   34.99    0.85
  -1  -1   4   34.00    0.82
  -1  -1   4   32.61    0.85
  -1  -1   4   34.30    0.86
  -1  -1   4   35.37    0.95
   0   1  -4  133.61    2.35
   0   1  -4  136.19    2.41
   0   1  -4  135.64    2.34
   0   1  -4  133.74    2.36
   0  -1   4  135.02    2.33
   0  -1   4  134.80    2.40
   0  -1   4  132.67    2.36
   0  -1   4  133.44    2.37
  -1   1  -4   27.67    0.74
  -1   1  -4   27.19    0.86
  -1   1  -4   28.71    0.77
  -1   1  -4   28.40    0.75
   1  -1   4   29.48    0.78
   1  -1   4   27.07    0.86
   1  -1   4   28.00    0.78
   1  -1   4   29.97    0.77
  -2   1  -4  204.19    3.38
  -2   1  -4  208.02    3.64
  -2   1  -4  204.10    3.37
  -2   1  -4  205.58    3.64
   2  -1   4  208.14    3.46
   2  -1   4  205.28    3.44
   2  -1   4  204.09    3.45
   2  -1   4  202.76    3.63
  -3   1  -4  106.48    2.23
  -3   1  -4  107.02    2.07
  -3   1  -4  104.91    2.23
  -3   1  -4  105.10    1.86
  -3   1  -4  105.37    1.85
   3  -1   4  106.82    2.23
   3  -1   4  106.60    2.03
   3  -1   4  104.80    1.96
   3  -1   4  105.18    1.97
  -4   1  -4   25.32    1.04
  -4   1  -4   24.46    1.05
  -4   1  -4   25.41    0.91
   4  -1   4   25.38    0.79
   4  -1   4   25.68    1.03
   4  -1   4   25.98    0.89
   4  -1   4   25.05    0.78
  -5   1  -4   -0.24    0.34
  -5   1  -4    1.15    0.45
  -5   1  -4    0.24    0.40
   5  -1   4   -0.48    0.61
   5  -1   4   -0.19    0.28
   5  -1   4   -0.41    0.26
   5  -1   4   -0.18    0.37
  -6   1  -4   38.49    1.55
  -6   1  -4   38.17    1.50
  -6   1  -4   39.53    1.37
   6  -1   4   38.86    1.10
   6  -1   4   39.71    1.47
   6  -1   4   39.36    1.10
   6  -1   4   40.37    1.49
  -7   1  -4   68.98    1.98
  -7   1  -4   66.88    2.17
   7  -1   4   70.58    2.09
   7  -1   4   70.18    1.64
   7  -1   4   68.43    1.62
   7  -1   4   72.29    2.13
  -8   1  -4    2.16    0.72
  -8   1  -4    1.19    0.59
  -8   1  -4    0.67    0.75
   8  -1   4    2.34    0.76
   8  -1   4    2.48    0.88
   8  -1   4    2.38    0.56
   8  -1   4    0.91    0.49
   8  -1   4    1.94    0.72
   9   0  -4   28.67    1.60
   9   0  -4   26.53    1.76
   9   0  -4   24.31    1.14
   9   0  -4   23.29    1.51
   9   0  -4   24.98    1.25
   9   0  -4   23.23    0.95
  -9   0   4   21.98    0.98
  -9   0   4   23.85    1.60
  -9   0   4   25.53    1.53
   8   0  -4    3.20    0.55
   8   0  -4    4.35    0.44
   8   0  -4    3.77    0.67
   8   0  -4    3.90    0.70
  -8   0   4    3.68    0.68
  -8   0   4    3.26    0.86
  -8   0   4    5.23    0.64
   7   0  -4   21.46    0.74
   7   0  -4   23.62    1.17
   7   0  -4   22.58    0.89
   7   0  -4   23.97    1.20
   7   0  -4   23.37    0.96
  -7   0   4   21.92    1.18
  -7   0   4   22.67    1.20
  -7   0   4   22.48    0.76
   6   0  -4   24.57    1.09
   6   0  -4   24.67    0.90
   6   0  -4   24.53    1.09
   6   0  -4   25.85    0.87
  -6   0   4   24.22    0.70
  -6   0   4   25.21    1.09
  -6   0   4   24.60    0.64
  -6   0   4   24.61    0.64
  -6   0   4   23.84    1.11
   5   0  -4  223.75    3.81
   5   0  -4  223.04    4.01
   5   0  -4  219.82    3.81
   5   0  -4  224.18    4.05
  -5   0   4  222.77    3.64
  -5   0   4  218.87    4.09
  -5   0   4  220.21    3.64
  -5   0   4  223.90    3.59
  -5   0   4  224.85    4.04
   4   0  -4  143.77    2.59
   4   0  -4  146.05    2.77
   4   0  -4  141.91    2.72
   4   0  -4  143.43    2.59
  -4   0   4  146.91    2.51
  -4   0   4  142.33    2.79
  -4   0   4  147.69    2.39
  -4   0   4  140.16    2.49
  -4   0   4  147.40    2.76
   3   0  -4    3.23    0.39
   3   0  -4    3.16    0.33
   3   0  -4    3.86    0.51
   3   0  -4    3.88    0.46
  -3   0   4    3.67    0.42
  -3   0   4    4.22    0.49
  -3   0   4    3.55    0.29
  -3   0   4    3.26    0.32
  -3   0   4    3.64    0.38
   2   0  -4    3.35    0.39
   2   0  -4    3.82    0.47
   2   0  -4    3.27    0.36
   2   0  -4    3.79    0.40
  -2   0   4    3.53    0.37
  -2   0   4    3.71    0.38
  -2   0   4    3.66    0.40
  -2   0   4    3.87    0.46
  -2   0   4    3.74    0.46
   1   0  -4    9.27    0.43
   1   0  -4    9.75    0.46
   1   0  -4    9.40    0.45
   1   0  -4    9.47    0.53
  -1   0   4    9.60    0.45
  -1   0   4    9.14    0.45
  -1   0   4    9.55    0.47
  -1   0   4    9.01    0.44
  -1   0   4    9.36    0.55
   0   0  -4  120.80    2.13
   0   0  -4  123.21    2.07
   0   0   4  123.92    2.15
   0   0   4  123.47    2.23
   0   0   4  120.86    2.16
   0   0   4  119.92    2.14
   0   0   4  123.86    2.07
  -1   0  -4   41.99    0.91
  -1   0  -4   40.49    0.88
  -1   0  -4   43.26    0.86
  -1   0  -4   40.84    0.84
   1   0   4   39.71    0.92
   1   0   4   42.87    0.85
   1   0   4   40.29    1.00
  -2   0  -4  117.32    1.99
  -2   0  -4  114.62    2.22
  -2   0  -4  119.01    2.25
  -2   0  -4  113.82    1.97
   2   0   4  115.21    2.21
   2   0   4  119.87    2.01
   2   0   4  116.94    2.04
   2   0   4  116.27    2.04
  -3   0  -4    2.36    0.31
  -3   0  -4    1.91    0.33
   3   0   4    2.14    0.27
   3   0   4    2.21    0.36
   3   0   4    1.63    0.24
   3   0   4    2.16    0.25
  -4   0  -4    7.85    0.66
  -4   0  -4    9.55    0.67
  -4   0  -4    9.39    0.56
   4   0   4    8.84    0.43
   4   0   4    8.90    0.65
   4   0   4    8.28    0.43
  -5   0  -4   50.85    1.46
  -5   0  -4   49.00    1.50
  -5   0  -4   50.93    1.31
   5   0   4   48.60    1.07
   5   0   4   48.72    1.42
   5   0   4   49.46    1.08
  -6   0  -4    0.55    0.44
  -6   0  -4   -0.21    0.42
  -6   0  -4    0.42    0.39
   6   0   4   -0.23    0.36
   6   0   4    0.09    0.25
   6   0   4    0.31    0.26
  -7   0  -4   17.70    1.03
  -7   0  -4   18.62    1.22
  -7   0  -4   18.93    1.18
   7   0   4   18.42    1.12
   7   0   4   18.84    0.75
   7   0   4   18.67    0.72
   7   0   4   17.36    1.11
   7   0   4   16.39    1.22
  -8   0  -4   17.17    1.14
  -8   0  -4   18.02    1.35
   8   0   4   17.08    1.26
   8   0   4   15.77    1.45
   8   0   4   18.49    0.81
   8   0   4   18.29    1.25
   8   0   4   16.57    0.81
  -9   0  -4    0.46    0.68
  -9   0  -4    0.06    0.59
   9   0   4    0.74    0.78
   9   0   4   -0.28    0.96
   9   0   4   -1.01    0.44
   9   0   4    0.34    0.53
   9   0   4   -0.05    0.71
   9  -1  -4   14.70    1.25
   9  -1  -4   16.59    1.11
   9  -1  -4   14.78    1.47
   9  -1  -4   17.14    1.69
   9  -1  -4   15.26    1.01
   9  -1  -4   11.54    1.53
  -9   1   4   14.25    1.16
  -9   1   4   13.70    1.49
   8  -1  -4   -0.28    0.58
   8  -1  -4    0.58    0.52
   8  -1  -4    0.02    0.41
   8  -1  -4    0.95    0.77
   8  -1  -4    0.18    0.44
   8  -1  -4   -0.05    0.56
  -8   1   4    0.13    0.65
  -8   1   4    0.49    0.60
  -8   1   4    0.05    0.49
   7  -1  -4   48.25    1.72
   7  -1  -4   47.56    1.38
   7  -1  -4   47.15    1.27
   7  -1  -4   49.75    1.65
   7  -1  -4   45.99    1.72
   7  -1  -4   48.68    1.38
  -7   1   4   45.29    1.67
  -7   1   4   48.71    1.71
  -7   1   4   47.40    1.29
   6  -1  -4   29.41    1.30
   6  -1  -4   27.04    0.98
   6  -1  -4   28.22    0.96
   6  -1  -4   28.92    1.24
   6  -1  -4   28.03    0.90
   6  -1  -4   27.86    1.17
  -6   1   4   27.75    1.22
  -6   1   4   29.47    1.23
  -6   1   4   28.39    0.74
  -6   1   4   28.99    0.92
  -6   1   4   27.58    0.74
   5  -1  -4   92.59    1.87
   5  -1  -4   84.32    2.37
   5  -1  -4   90.91    1.79
   5  -1  -4   93.21    2.08
   5  -1  -4   93.63    1.91
   5  -1  -4   94.24    2.16
  -5   1   4   92.59    1.80
  -5   1   4   91.76    2.16
  -5   1   4   92.52    1.72
  -5   1   4   90.85    2.11
  -5   1   4   93.16    1.74
   4  -1  -4  158.19    3.01
   4  -1  -4  153.58    2.94
   4  -1  -4  155.38    2.80
   4  -1  -4  155.01    2.69
   4  -1  -4  153.24    2.79
   4  -1  -4  156.04    3.01
  -4   1   4  157.22    2.99
  -4   1   4  155.74    3.01
  -4   1   4  157.21    2.71
  -4   1   4  160.02    2.70
  -4   1   4  154.35    2.69
   3  -1  -4   39.78    1.00
   3  -1  -4   39.56    1.16
   3  -1  -4   39.32    1.06
   3  -1  -4   39.37    0.98
   3  -1  -4   39.46    1.12
  -3   1   4   38.77    0.94
  -3   1   4   38.12    1.10
  -3   1   4   39.00    0.91
  -3   1   4   38.82    0.95
   2  -1  -4   19.06    0.73
   2  -1  -4   18.77    0.64
   2  -1  -4   18.76    0.78
   2  -1  -4   18.62    0.66
   2  -1  -4   17.98    0.62
  -2   1   4   19.40    0.71
  -2   1   4   19.09    0.59
  -2   1   4   18.90    0.62
  -2   1   4   19.27    0.62
   1  -1  -4   39.40    0.88
   1  -1  -4   38.88    0.91
   1  -1  -4   37.85    0.99
   1  -1  -4   38.94    0.99
   1  -1  -4   38.97    0.91
  -1   1   4   40.60    0.91
  -1   1   4   38.98    0.98
  -1   1   4   37.98    0.91
  -1   1   4   38.64    0.75
   0  -1  -4    6.07    0.45
   0  -1  -4    5.75    0.37
   0  -1  -4    5.60    0.37
   0  -1  -4    5.76    0.31
   0  -1  -4    5.89    0.45
   0   1   4    5.38    0.44
   0   1   4    5.37    0.37
   0   1   4    5.08    0.38
   0   1   4    5.85    0.46
   0   1   4    5.79    0.35
   0   1   4    6.04    0.36
   0   1   4    5.53    0.30
  -1  -1  -4   12.98    0.34
  -1  -1  -4   13.28    0.49
  -1  -1  -4   12.25    0.45
  -1  -1  -4   13.37    0.45
   1   1   4   12.60    0.49
   1   1   4   13.14    0.34
   1   1   4   12.98    0.56
   1   1   4   12.82    0.47
   1   1   4   12.85    0.47
  -2  -1  -4    0.37    0.15
  -2  -1  -4    0.25    0.15
  -2  -1  -4    0.37    0.13
  -2  -1  -4    0.26    0.14
   2   1   4    0.22    0.18
   2   1   4    0.51    0.18
   2   1   4    0.51    0.12
   2   1   4    0.44    0.23
   2   1   4    0.49    0.17
  -3  -1  -4   91.39    1.86
  -3  -1  -4   88.80    1.51
  -3  -1  -4   92.40    1.56
   3   1   4   89.60    1.55
   3   1   4   85.06    1.79
   3   1   4   88.48    1.52
   3   1   4   84.47    1.55
   3   1   4   87.65    1.53
  -4  -1  -4   26.81    0.74
  -4  -1  -4   27.43    0.98
   4   1   4   26.59    0.63
   4   1   4   25.95    0.90
   4   1   4   26.97    0.95
   4   1   4   27.16    0.63
   4   1   4   26.80    0.61
  -5  -1  -4   80.12    1.92
  -5  -1  -4   80.91    1.64
   5   1   4   78.80    1.43
   5   1   4   79.58    1.87
   5   1   4   79.95    1.82
   5   1   4   80.49    1.42
   5   1   4   78.43    1.43
  -6  -1  -4    7.41    0.66
  -6  -1  -4    6.13    0.79
   6   1   4    6.31    0.39
   6   1   4    6.85    0.39
   6   1   4    6.57    0.71
   6   1   4    7.02    0.69
   6   1   4    7.10    0.41
   6   1   4    6.46    0.78
  -7  -1  -4   -0.48    0.44
  -7  -1  -4    0.16    0.40
   7   1   4    0.38    0.24
   7   1   4   -0.81    0.36
   7   1   4   -0.06    0.23
   7   1   4   -0.12    0.54
   7   1   4    0.31    0.23
  -8  -1  -4   57.69    1.97
  -8  -1  -4   57.74    1.73
   8   1   4   57.85    1.24
   8   1   4   58.61    1.83
   8   1   4   55.01    1.26
   8   1   4   57.74    1.93
   8   1   4   60.84    1.80
  -9  -1  -4    9.74    1.11
  -9  -1  -4    8.65    1.22
   9   1   4   11.01    0.71
   9   1   4   11.04    0.67
   9   1   4    9.45    0.69
   9   1   4   10.61    1.15
   9   1   4   11.13    1.48
   9   1   4   10.54    0.80
   9   1   4    9.23    1.01
   9   1   4    9.67    1.08
 -10  -1  -4   73.19    2.20
 -10  -1  -4   69.82    2.55
  10   1   4   65.97    2.33
  10   1   4   69.00    2.20
  10   1   4   73.60    2.35
   8  -2  -4    4.56    1.06
   8  -2  -4    3.13    0.85
   8  -2  -4    5.16    0.84
   8  -2  -4    4.46    0.75
   8  -2  -4    4.43    0.53
   8  -2  -4    5.15    0.66
   8  -2  -4    5.54    0.96
  -8   2   4    3.16    0.77
  -8   2   4    3.63    0.74
   7  -2  -4   14.31    0.99
   7  -2  -4   14.33    1.16
   7  -2  -4   12.41    0.92
   7  -2  -4   11.08    1.20
   7  -2  -4   12.70    1.28
   7  -2  -4   14.00    0.90
   7  -2  -4   13.40    0.58
  -7   2   4   12.92    1.16
  -7   2   4   14.15    0.99
   6  -2  -4  170.36    3.45
   6  -2  -4  166.02    3.14
   6  -2  -4  164.43    3.14
   6  -2  -4  157.54    2.74
   6  -2  -4  167.69    3.14
   6  -2  -4  164.91    3.47
   6  -2  -4  162.63    3.37
  -6   2   4  166.85    3.14
  -6   2   4  161.10    3.49
  -6   2   4  165.18    2.83
  -6   2   4  167.66    2.83
  -6   2   4  168.23    3.50
   5  -2  -4   12.39    0.72
   5  -2  -4   10.40    0.90
   5  -2  -4   11.30    0.42
   5  -2  -4   10.82    1.01
   5  -2  -4   11.81    0.70
   5  -2  -4   11.81    0.67
  -5   2   4   11.29    0.86
  -5   2   4   11.96    0.72
  -5   2   4   11.59    0.86
  -5   2   4   12.03    0.57
  -5   2   4   10.81    0.58
   4  -2  -4   23.69    1.01
   4  -2  -4   22.93    0.82
   4  -2  -4   24.14    0.82
   4  -2  -4   23.59    1.00
   4  -2  -4   24.41    0.84
  -4   2   4   24.47    0.98
  -4   2   4   23.81    0.74
  -4   2   4   23.05    0.76
  -4   2   4   22.41    0.99
  -4   2   4   23.02    0.82
   3  -2  -4   10.31    0.68
   3  -2  -4   10.58    0.57
   3  -2  -4   10.47    0.55
   3  -2  -4   10.35    0.72
   3  -2  -4   10.74    0.55
  -3   2   4   10.47    0.51
  -3   2   4    8.86    0.65
  -3   2   4   10.67    0.68
  -3   2   4   10.60    0.53
  -3   2   4    9.49    0.55
   2  -2  -4  121.59    2.21
   2  -2  -4  117.81    1.91
   2  -2  -4  117.74    2.18
   2  -2  -4  117.31    2.33
   2  -2  -4  119.83    2.31
  -2   2   4  116.94    2.29
  -2   2   4  117.49    2.17
  -2   2   4  118.59    2.16
  -2   2   4  124.54    2.30
  -2   2   4  119.38    2.18
   1  -2  -4   84.36    1.64
   1  -2  -4   87.06    1.76
   1  -2  -4   85.65    1.71
   1  -2  -4   85.51    1.46
   1  -2  -4   86.10    1.65
  -1   2   4   84.63    1.76
  -1   2   4   91.49    1.68
  -1   2   4   83.31    1.70
  -1   2   4   84.68    1.63
  -1   2   4   85.46    1.65
  -1   2   4   84.93    1.65
   0  -2  -4    0.09    0.22
   0  -2  -4    0.12    0.19
   0  -2  -4    0.21    0.22
   0  -2  -4    0.42    0.18
   0  -2  -4    0.40    0.20
   0   2   4    0.35    0.20
   0   2   4    0.38    0.25
   0   2   4    0.29    0.18
   0   2   4    0.21    0.20
   0   2   4    0.66    0.23
   0   2   4    0.13    0.19
  -1  -2  -4    0.84    0.19
  -1  -2  -4    0.74    0.23
  -1  -2  -4    0.83    0.22
  -1  -2  -4    1.04    0.23
  -1  -2  -4    0.86    0.19
   1   2   4    1.02    0.15
   1   2   4    1.29    0.23
   1   2   4    0.66    0.23
   1   2   4    0.89    0.20
   1   2   4    1.01    0.24
   1   2   4    0.88    0.21
  -2  -2  -4   73.64    1.30
  -2  -2  -4   75.28    1.42
  -2  -2  -4   72.59    1.50
  -2  -2  -4   74.10    1.31
   2   2   4   73.73    1.36
   2   2   4   75.01    1.44
   2   2   4   74.26    1.36
   2   2   4   72.36    1.50
   2   2   4   74.42    1.43
  -3  -2  -4  625.70    9.41
  -3  -2  -4  595.63    9.19
   3   2   4  571.79    9.10
   3   2   4  591.71    9.19
   3   2   4  592.68    9.09
   3   2   4  596.88    9.40
  -4  -2  -4  287.87    5.36
  -4  -2  -4  311.81    4.90
  -4  -2  -4  319.69    4.81
   4   2   4  309.12    4.89
   4   2   4  305.52    5.17
   4   2   4  310.97    5.12
   4   2   4  299.39    4.79
  -5  -2  -4  100.47    1.81
  -5  -2  -4   95.17    2.09
   5   2   4   94.05    1.76
   5   2   4   93.52    1.99
   5   2   4   93.80    1.76
   5   2   4   97.58    2.10
  -6  -2  -4   46.40    1.16
  -6  -2  -4   44.37    1.41
   6   2   4   43.48    1.36
   6   2   4   44.73    1.25
   6   2   4   43.79    1.04
   6   2   4   46.09    1.29
   6   2   4   42.15    1.09
  -7  -2  -4    3.68    0.63
  -7  -2  -4    4.67    0.52
   7   2   4    4.30    0.46
   7   2   4    3.95    0.51
   7   2   4    4.71    0.66
   7   2   4    5.46    0.71
   7   2   4    3.75    0.47
  -8  -2  -4   99.52    2.23
  -8  -2  -4   96.18    2.56
   8   2   4  100.38    2.17
   8   2   4   91.52    2.55
   8   2   4  101.18    2.51
   8   2   4  100.32    1.99
   8   2   4  100.55    2.35
  -9  -2  -4   23.05    1.20
  -9  -2  -4   23.05    1.45
   9   2   4   21.83    0.92
   9   2   4   20.02    1.27
   9   2   4   23.44    1.53
   9   2   4   22.83    1.16
   9   2   4   23.33    1.25
 -10  -2  -4   31.34    1.49
 -10  -2  -4   28.73    1.72
  10   2   4   29.07    1.51
  10   2   4   28.60    1.50
  10   2   4   28.94    1.81
  10   2   4   26.83    1.59
  10   2   4   27.95    1.12
   8  -3  -4   26.93    1.77
   8  -3  -4   24.42    1.41
   8  -3  -4   24.09    1.74
   8  -3  -4   25.23    1.34
   8  -3  -4   24.05    1.90
   8  -3  -4   26.58    1.54
  -8   3   4   24.17    1.64
  -8   3   4   24.22    1.55
   7  -3  -4    3.92    0.63
   7  -3  -4    3.22    0.46
   7  -3  -4    1.71    0.59
   7  -3  -4    5.13    0.85
   7  -3  -4    3.42    0.87
   7  -3  -4    2.80    0.66
  -7   3   4    2.88    0.70
  -7   3   4    3.41    0.71
   6  -3  -4   18.94    1.32
   6  -3  -4   15.57    0.98
   6  -3  -4   15.92    1.19
   6  -3  -4   16.34    1.01
   6  -3  -4   17.20    0.95
  -6   3   4   15.93    0.71
  -6   3   4   15.65    0.73
  -6   3   4   14.89    1.05
  -6   3   4   15.93    1.13
   5  -3  -4   19.81    1.30
   5  -3  -4   24.54    1.24
   5  -3  -4   24.78    1.20
   5  -3  -4   25.24    1.01
   5  -3  -4   22.80    1.03
  -5   3   4   24.83    1.24
  -5   3   4   24.09    0.86
  -5   3   4   24.80    0.84
  -5   3   4   24.78    1.22
  -5   3   4   24.53    1.19
   4  -3  -4   30.12    1.21
   4  -3  -4   29.73    0.98
   4  -3  -4   31.49    1.06
  -4   3   4   30.83    1.05
  -4   3   4   29.94    1.17
  -4   3   4   27.07    1.14
  -4   3   4   30.14    0.90
  -4   3   4   30.52    0.93
   3  -3  -4  134.56    2.75
   3  -3  -4  136.58    2.58
   3  -3  -4  137.77    2.59
   3  -3  -4  136.82    2.62
   3  -3  -4  142.42    2.78
  -3   3   4  139.96    2.55
  -3   3   4  139.25    2.78
  -3   3   4  130.63    3.00
  -3   3   4  137.55    2.52
  -3   3   4  139.35    2.64
   2  -3  -4   83.08    1.84
   2  -3  -4   80.36    1.73
   2  -3  -4   84.43    1.72
   2  -3  -4   83.27    1.71
   2  -3  -4   82.87    1.82
  -2   3   4   83.63    1.70
  -2   3   4   83.14    1.84
  -2   3   4   82.42    1.74
  -2   3   4   84.68    1.82
  -2   3   4   82.94    1.82
  -2   3   4   82.93    1.67
   1  -3  -4   65.82    1.42
   1  -3  -4   68.25    1.55
   1  -3  -4   68.62    1.44
   1  -3  -4   68.68    1.50
   1  -3  -4   67.98    1.30
  -1   3   4   71.24    1.49
  -1   3   4   66.73    1.56
  -1   3   4   67.92    1.43
  -1   3   4   67.92    1.50
  -1   3   4   69.13    1.49
   0  -3  -4    0.56    0.20
   0  -3  -4    0.52    0.21
   0  -3  -4    0.53    0.23
   0  -3  -4    0.58    0.22
   0  -3  -4    0.30    0.25
   0   3   4    0.21    0.22
   0   3   4    0.62    0.23
   0   3   4    0.14    0.22
   0   3   4    0.85    0.30
   0   3   4    0.34    0.23
   0   3   4    0.05    0.24
  -1  -3  -4   51.81    1.10
  -1  -3  -4   50.68    1.08
  -1  -3  -4   51.40    1.11
  -1  -3  -4   52.16    1.20
  -1  -3  -4   50.87    1.13
   1   3   4   53.34    1.22
   1   3   4   53.15    1.11
   1   3   4   51.46    1.14
   1   3   4   54.88    1.03
   1   3   4   51.71    1.11
   1   3   4   50.98    1.11
  -2  -3  -4   86.68    1.61
  -2  -3  -4   88.81    1.72
  -2  -3  -4   87.72    1.44
  -2  -3  -4   86.92    1.56
  -2  -3  -4   87.02    1.58
  -2  -3  -4   88.38    1.74
   2   3   4   87.77    1.60
   2   3   4   87.58    1.72
   2   3   4   88.17    1.75
   2   3   4   88.10    1.62
   2   3   4   89.35    1.62
   2   3   4   90.77    1.46
  -3  -3  -4  542.84    8.39
  -3  -3  -4  558.80    8.76
  -3  -3  -4  579.55    8.69
  -3  -3  -4  553.89    8.65
  -3  -3  -4  543.83    8.38
   3   3   4  547.98    8.54
   3   3   4  546.13    8.65
   3   3   4  549.05    8.48
   3   3   4  554.87    8.50
   3   3   4  545.15    8.74
  -4  -3  -4  276.02    4.54
  -4  -3  -4  269.03    4.60
  -4  -3  -4  273.04    4.43
  -4  -3  -4  270.62    4.19
   4   3   4  265.87    4.21
   4   3   4  264.68    4.20
   4   3   4  270.67    4.60
   4   3   4  267.04    4.42
   4   3   4  261.76    4.18
  -5  -3  -4    0.21    0.23
  -5  -3  -4    0.05    0.23
  -5  -3  -4    0.33    0.30
   5   3   4    0.23    0.22
   5   3   4    0.14    0.26
   5   3   4    0.22    0.17
   5   3   4    0.33    0.32
  -6  -3  -4    6.30    0.56
  -6  -3  -4    6.71    0.67
   6   3   4    5.91    0.49
   6   3   4    5.93    0.51
   6   3   4    6.34    0.47
   6   3   4    6.59    0.60
  -7  -3  -4   11.37    0.72
  -7  -3  -4   10.88    0.90
   7   3   4   11.84    0.64
   7   3   4   11.15    0.65
   7   3   4   11.60    0.75
   7   3   4   10.40    0.70
   7   3   4    9.65    0.86
  -8  -3  -4  132.04    3.05
  -8  -3  -4  133.54    2.68
   8   3   4  134.84    2.78
   8   3   4  134.74    2.61
   8   3   4  134.57    2.98
   8   3   4  136.14    2.76
   8   3   4  130.84    2.61
  -9  -3  -4   22.73    1.16
  -9  -3  -4   22.72    1.37
   9   3   4   23.67    1.17
   9   3   4   23.11    1.13
   9   3   4   22.04    0.97
   9   3   4   23.25    1.42
   9   3   4   21.39    1.05
 -10  -3  -4   15.06    1.19
 -10  -3  -4   15.72    1.36
  10   3   4   15.83    1.19
  10   3   4   15.58    1.02
  10   3   4   16.82    1.14
  10   3   4   14.06    1.51
  10   3   4   14.58    1.24
   7  -4  -4    8.32    1.05
   7  -4  -4    8.98    0.89
   7  -4  -4    9.40    1.13
   7  -4  -4   12.23    1.33
   7  -4  -4    9.64    1.20
  -7   4   4    6.60    1.04
   6  -4  -4    3.92    0.78
   6  -4  -4    3.60    0.70
   6  -4  -4    2.72    0.59
   6  -4  -4    3.26    0.67
   6  -4  -4    3.98    0.74
  -6   4   4    2.44    0.66
  -6   4   4    4.20    0.54
  -6   4   4    3.95    0.50
  -6   4   4    4.71    0.76
   5  -4  -4   10.08    0.92
   5  -4  -4   11.14    0.84
   5  -4  -4   10.69    0.93
   5  -4  -4   10.16    1.04
   5  -4  -4   12.74    1.08
  -5   4   4   11.46    0.74
  -5   4   4   10.41    1.07
  -5   4   4    8.50    0.97
  -5   4   4    9.89    0.82
   4  -4  -4   74.85    1.91
   4  -4  -4   74.67    1.78
   4  -4  -4   70.55    1.73
   4  -4  -4   68.88    1.81
   4  -4  -4   72.56    1.95
  -4   4   4   71.35    1.98
  -4   4   4   75.29    1.87
  -4   4   4   64.17    1.88
  -4   4   4   69.18    1.96
  -4   4   4   72.48    1.65
   3  -4  -4  224.71    3.98
   3  -4  -4  221.14    3.96
   3  -4  -4  222.98    4.14
   3  -4  -4  222.54    4.05
  -3   4   4  218.79    4.15
  -3   4   4  222.05    3.90
  -3   4   4  224.11    4.16
  -3   4   4  225.24    3.89
   2  -4  -4   -0.62    0.25
   2  -4  -4    0.24    0.35
   2  -4  -4    0.33    0.31
   2  -4  -4    0.30    0.29
  -2   4   4    0.08    0.34
  -2   4   4   -0.08    0.32
  -2   4   4    0.52    0.32
  -2   4   4   -0.49    0.26
  -2   4   4    0.06    0.32
  -2   4   4    0.19    0.27
   1  -4  -4    4.90    0.48
   1  -4  -4    5.01    0.47
   1  -4  -4    5.72    0.54
   1  -4  -4    4.68    0.53
   1  -4  -4    4.15    0.41
   1  -4  -4    4.64    0.58
  -1   4   4    4.08    0.52
  -1   4   4    4.98    0.54
  -1   4   4    4.39    0.49
  -1   4   4    5.22    0.47
  -1   4   4    4.93    0.47
  -1   4   4    4.10    0.54
   0  -4  -4    1.26    0.27
   0  -4  -4    1.23    0.26
   0  -4  -4    0.92    0.25
   0  -4  -4    0.87    0.26
   0  -4  -4    0.93    0.30
   0   4   4    0.84    0.27
   0   4   4    1.08    0.26
   0   4   4    1.53    0.29
   0   4   4    0.82    0.31
   0   4   4    1.00    0.29
   0   4   4    1.05    0.33
  -1  -4  -4   77.23    1.59
  -1  -4  -4   78.08    1.68
  -1  -4  -4   79.52    1.56
  -1  -4  -4   78.42    1.49
  -1  -4  -4   75.96    1.52
  -1  -4  -4   77.18    1.56
   1   4   4   78.83    1.53
   1   4   4   78.06    1.69
   1   4   4   79.04    1.68
   1   4   4   77.50    1.57
   1   4   4   81.69    1.54
   1   4   4   77.96    1.58
  -2  -4  -4  288.33    4.55
  -2  -4  -4  285.18    4.64
  -2  -4  -4  284.31    4.77
  -2  -4  -4  287.53    4.80
  -2  -4  -4  286.38    4.63
  -2  -4  -4  282.17    4.58
   2   4   4  285.01    4.57
   2   4   4  296.64    4.58
   2   4   4  288.35    4.67
   2   4   4  291.14    4.80
   2   4   4  291.21    4.82
   2   4   4  284.82    4.67
  -3  -4  -4   46.01    0.96
  -3  -4  -4   49.53    1.09
  -3  -4  -4   47.26    1.18
  -3  -4  -4   47.96    0.96
  -3  -4  -4   46.70    0.91
  -3  -4  -4   46.63    1.19
   3   4   4   46.38    0.90
   3   4   4   45.81    1.17
   3   4   4   46.30    1.01
   3   4   4   46.66    1.03
   3   4   4   47.15    0.95
   3   4   4   45.01    1.20
  -4  -4  -4   96.98    1.89
  -4  -4  -4   97.29    1.66
  -4  -4  -4   97.87    1.95
  -4  -4  -4   96.63    2.02
   4   4   4   97.87    2.04
   4   4   4   97.74    1.95
   4   4   4   95.06    1.70
   4   4   4   94.28    1.65
   4   4   4   95.67    1.71
   4   4   4   96.79    1.73
  -5  -4  -4    0.21    0.25
  -5  -4  -4   -0.17    0.26
  -5  -4  -4    0.09    0.17
  -5  -4  -4    0.60    0.34
   5   4   4    0.09    0.14
   5   4   4   -0.08    0.22
   5   4   4    0.31    0.18
   5   4   4    0.16    0.16
   5   4   4   -0.52    0.30
  -6  -4  -4    6.51    0.54
  -6  -4  -4    6.08    0.64
  -6  -4  -4    4.90    0.67
  -6  -4  -4    5.23    0.59
   6   4   4    6.66    0.58
   6   4   4    6.54    0.44
   6   4   4    5.42    0.75
   6   4   4    6.21    0.45
  -7  -4  -4    1.02    0.44
  -7  -4  -4    2.46    0.39
   7   4   4    1.23    0.36
   7   4   4    1.27    0.35
   7   4   4    1.49    0.32
   7   4   4    1.86    0.35
   7   4   4    2.01    0.52
  -8  -4  -4   13.78    0.87
  -8  -4  -4   12.73    0.98
   8   4   4   13.45    0.76
   8   4   4   14.01    1.09
   8   4   4   13.11    0.79
   8   4   4   12.28    0.83
   8   4   4   13.88    0.82
  -9  -4  -4    8.03    1.07
  -9  -4  -4    8.12    0.94
   9   4   4    9.99    0.90
   9   4   4    8.49    0.83
   9   4   4    9.17    1.19
   9   4   4    9.12    0.82
   9   4   4    8.29    0.81
 -10  -4  -4   10.38    1.09
 -10  -4  -4    7.96    0.99
  10   4   4   10.08    1.03
  10   4   4    8.07    0.88
  10   4   4    8.31    1.00
  10   4   4    9.23    1.11
  10   4   4    9.13    1.01
 -11  -4  -4    0.19    0.80
 -11  -4  -4    0.51    0.68
  11   4   4   -0.43    0.69
  11   4   4   -0.11    0.67
  11   4   4    1.76    0.64
  11   4   4    0.36    0.66
   6  -5  -4   13.25    1.43
   6  -5  -4   13.62    1.30
   6  -5  -4   14.10    1.16
   6  -5  -4   12.97    1.30
   6  -5  -4   14.11    1.47
  -6   5   4   12.26    1.00
  -6   5   4   12.25    1.24
  -6   5   4   11.44    0.94
   5  -5  -4   41.91    1.67
   5  -5  -4   42.14    1.55
   5  -5  -4   42.13    1.49
   5  -5  -4   40.06    1.73
   5  -5  -4   42.39    1.63
  -5   5   4   42.14    1.82
  -5   5   4   42.65    1.72
  -5   5   4   44.32    1.73
  -5   5   4   42.04    1.34
  -5   5   4   43.60    1.33
   4  -5  -4   16.47    1.12
   4  -5  -4   16.91    1.04
   4  -5  -4   16.61    0.96
   4  -5  -4   15.81    1.18
   4  -5  -4   16.38    1.10
  -4   5   4   15.86    1.20
  -4   5   4   17.81    1.19
  -4   5   4   16.17    0.91
  -4   5   4   15.88    1.11
  -4   5   4   17.04    0.90
   3  -5  -4  177.14    3.40
   3  -5  -4  175.31    3.57
   3  -5  -4  180.05    3.42
   3  -5  -4  179.74    3.49
   3  -5  -4  177.82    3.58
  -3   5   4  177.15    3.59
  -3   5   4  178.36    3.33
  -3   5   4  178.71    3.30
  -3   5   4  177.82    3.54
  -3   5   4  173.95    3.61
   2  -5  -4   21.64    1.00
   2  -5  -4   20.80    0.90
   2  -5  -4   23.75    1.06
   2  -5  -4   22.44    1.01
   2  -5  -4   23.17    0.94
  -2   5   4   21.32    1.06
  -2   5   4   21.68    0.88
  -2   5   4   20.67    1.02
  -2   5   4   21.47    1.04
  -2   5   4   22.34    0.88
  -2   5   4   22.45    1.02
   1  -5  -4    2.15    0.38
   1  -5  -4    2.18    0.43
   1  -5  -4    2.95    0.43
   1  -5  -4    2.36    0.38
   1  -5  -4    3.22    0.47
  -1   5   4    3.71    0.80
  -1   5   4    2.92    0.42
  -1   5   4    2.69    0.49
  -1   5   4    3.16    0.48
  -1   5   4    2.90    0.39
  -1   5   4    3.40    0.47
   0  -5  -4    2.42    0.35
   0  -5  -4    1.81    0.33
   0  -5  -4    1.74    0.32
   0  -5  -4    1.99    0.38
   0  -5  -4    1.24    0.34
   0  -5  -4    1.65    0.32
   0   5   4    1.94    0.34
   0   5   4    1.87    0.37
   0   5   4    2.47    0.40
   0   5   4    1.53    0.31
   0   5   4    1.34    0.38
   0   5   4    1.56    0.32
  -1  -5  -4  110.74    2.11
  -1  -5  -4  105.89    2.14
  -1  -5  -4  106.34    2.06
  -1  -5  -4  109.59    2.23
  -1  -5  -4  110.52    2.12
  -1  -5  -4  106.84    2.04
   1   5   4  108.67    2.23
   1   5   4  109.07    2.04
   1   5   4  110.67    2.12
   1   5   4  107.40    2.11
   1   5   4  109.10    2.12
   1   5   4  108.88    2.25
  -2  -5  -4  339.80    5.68
  -2  -5  -4  346.36    5.73
  -2  -5  -4  340.70    5.55
  -2  -5  -4  338.82    5.44
  -2  -5  -4  342.09    5.54
  -2  -5  -4  343.93    5.50
   2   5   4  335.53    5.56
   2   5   4  339.68    5.58
   2   5   4  342.76    5.73
   2   5   4  341.57    5.43
   2   5   4  351.63    5.54
   2   5   4  344.40    5.73
  -3  -5  -4    7.96    0.61
  -3  -5  -4    7.70    0.46
  -3  -5  -4    9.43    0.48
  -3  -5  -4    8.31    0.61
  -3  -5  -4    8.63    0.39
  -3  -5  -4    8.46    0.45
   3   5   4    8.20    0.64
   3   5   4    8.57    0.44
   3   5   4    8.48    0.36
   3   5   4    8.48    0.51
   3   5   4    7.97    0.61
   3   5   4    7.35    0.46
   3   5   4    7.68    0.64
  -4  -5  -4   26.61    0.68
  -4  -5  -4   28.29    0.81
  -4  -5  -4   27.65    0.66
  -4  -5  -4   28.28    0.98
  -4  -5  -4   27.04    0.73
  -4  -5  -4   27.56    0.96
   4   5   4   27.99    0.76
   4   5   4   27.13    0.59
   4   5   4   28.27    0.78
   4   5   4   27.63    0.96
   4   5   4   29.34    1.02
   4   5   4   27.37    0.72
  -5  -5  -4    3.29    0.48
  -5  -5  -4    3.73    0.37
  -5  -5  -4    3.53    0.44
  -5  -5  -4    3.40    0.40
   5   5   4    2.99    0.30
   5   5   4    3.29    0.43
   5   5   4    3.67    0.37
   5   5   4    2.90    0.28
   5   5   4    3.24    0.34
   5   5   4    3.25    0.49
  -6  -5  -4   10.41    0.54
  -6  -5  -4    9.37    0.77
  -6  -5  -4   10.08    0.69
  -6  -5  -4    9.71    0.73
   6   5   4    9.42    0.42
   6   5   4   10.68    0.46
   6   5   4    9.95    0.42
   6   5   4   10.19    0.71
   6   5   4   10.26    0.52
   6   5   4    8.72    0.81
  -7  -5  -4   29.12    1.38
  -7  -5  -4   30.16    1.12
   7   5   4   30.15    0.82
   7   5   4   30.21    1.09
   7   5   4   28.93    0.89
   7   5   4   31.25    1.28
  -8  -5  -4    0.24    0.44
  -8  -5  -4    0.17    0.42
  -8  -5  -4    0.84    0.53
   8   5   4    0.77    0.60
   8   5   4    0.08    0.37
   8   5   4    0.59    0.34
   8   5   4    0.19    0.39
   8   5   4   -0.20    0.29
  -9  -5  -4    3.12    0.64
  -9  -5  -4    3.04    0.56
   9   5   4    2.68    0.46
   9   5   4    2.70    0.51
   9   5   4    2.87    0.78
   9   5   4    2.63    0.54
   9   5   4    3.09    0.47
 -10  -5  -4   21.32    1.24
 -10  -5  -4   23.08    1.40
  10   5   4   22.15    1.20
  10   5   4   20.21    1.57
  10   5   4   21.50    1.09
 -11  -5  -4   25.04    1.46
 -11  -5  -4   26.48    1.59
  11   5   4   27.07    1.37
  11   5   4   20.47    1.29
  11   5   4   25.23    1.41
  11   5   4   24.99    2.42
  11   5   4   25.98    1.36
   5  -6  -4   66.65    2.01
   5  -6  -4   65.25    2.16
   5  -6  -4   65.17    2.18
   5  -6  -4   65.05    2.30
  -5   6   4   66.08    1.79
  -5   6   4   70.48    1.85
  -5   6   4   65.53    2.31
  -5   6   4   61.58    2.20
   4  -6  -4    0.70    0.66
   4  -6  -4    0.80    0.67
   4  -6  -4    1.88    0.67
   4  -6  -4    1.65    0.68
   4  -6  -4    1.26    0.56
  -4   6   4    2.00    0.75
  -4   6   4    1.56    0.56
  -4   6   4    1.24    0.57
  -4   6   4    1.23    0.52
   3  -6  -4   94.06    2.41
   3  -6  -4   91.23    2.22
   3  -6  -4   96.09    2.29
   3  -6  -4   92.72    2.38
   3  -6  -4   95.71    2.33
  -3   6   4   91.01    2.42
  -3   6   4   92.00    2.41
  -3   6   4   92.96    2.44
  -3   6   4   93.03    2.14
  -3   6   4   91.95    2.14
  -3   6   4   91.32    2.33
   2  -6  -4    6.63    0.83
   2  -6  -4    6.39    0.71
   2  -6  -4    5.72    0.63
   2  -6  -4    6.49    0.86
   2  -6  -4    6.74    0.84
  -2   6   4    6.06    0.82
  -2   6   4    6.43    0.71
  -2   6   4    7.06    0.88
  -2   6   4    6.67    0.76
  -2   6   4    7.73    0.90
  -2   6   4    6.69    0.76
   1  -6  -4    8.93    0.76
   1  -6  -4    9.49    0.74
   1  -6  -4    9.27    0.79
   1  -6  -4    9.54    0.85
   1  -6  -4    9.64    0.84
  -1   6   4    9.35    0.83
  -1   6   4    9.77    0.75
  -1   6   4    8.75    0.80
  -1   6   4   11.38    0.91
  -1   6   4   11.87    0.92
  -1   6   4    9.10    0.70
   0  -6  -4  105.45    2.31
   0  -6  -4  104.31    2.18
   0  -6  -4  104.53    2.22
   0  -6  -4  105.51    2.34
   0  -6  -4   98.11    2.41
   0  -6  -4  107.69    2.22
   0   6   4  106.71    2.36
   0   6   4  103.87    2.28
   0   6   4  106.88    2.21
   0   6   4  107.36    2.35
   0   6   4  108.96    2.21
   0   6   4  108.05    2.22
  -1  -6  -4    0.80    0.34
  -1  -6  -4    0.89    0.37
  -1  -6  -4    1.24    0.37
  -1  -6  -4    0.52    0.35
  -1  -6  -4    0.34    0.30
  -1  -6  -4    1.18    0.36
   1   6   4    0.67    0.39
   1   6   4    0.66    0.39
   1   6   4    0.49    0.32
   1   6   4    0.45    0.31
   1   6   4    0.45    0.33
   1   6   4    0.58    0.36
  -2  -6  -4   94.23    2.05
  -2  -6  -4   91.86    1.78
  -2  -6  -4   93.33    1.90
  -2  -6  -4   89.55    2.11
  -2  -6  -4   93.50    1.91
  -2  -6  -4   93.71    1.91
   2   6   4   92.82    1.77
   2   6   4   96.48    1.96
   2   6   4   93.40    2.13
   2   6   4   92.34    1.93
   2   6   4   93.20    1.94
   2   6   4   92.01    2.09
  -3  -6  -4    2.31    0.44
  -3  -6  -4    2.15    0.34
  -3  -6  -4    2.19    0.34
  -3  -6  -4    2.41    0.33
  -3  -6  -4    2.35    0.42
  -3  -6  -4    2.34    0.33
   3   6   4    2.36    0.24
   3   6   4    2.36    0.35
   3   6   4    2.15    0.36
   3   6   4    2.39    0.41
   3   6   4    2.42    0.46
  -4  -6  -4    2.28    0.30
  -4  -6  -4    2.05    0.42
  -4  -6  -4    3.18    0.43
  -4  -6  -4    2.03    0.29
  -4  -6  -4    2.87    0.35
   4   6   4    2.10    0.39
   4   6   4    2.64    0.36
   4   6   4    2.47    0.33
   4   6   4    2.21    0.32
   4   6   4    2.61    0.43
  -5  -6  -4   45.27    1.11
  -5  -6  -4   45.13    1.36
  -5  -6  -4   45.15    0.94
  -5  -6  -4   44.93    0.94
  -5  -6  -4   47.44    1.13
  -5  -6  -4   46.45    1.38
   5   6   4   43.67    1.10
   5   6   4   46.49    1.11
   5   6   4   47.28    1.13
   5   6   4   46.05    1.44
   5   6   4   43.09    1.35
   5   6   4   46.98    1.32
  -6  -6  -4   21.82    1.04
  -6  -6  -4   20.73    0.76
  -6  -6  -4   21.05    0.86
  -6  -6  -4   19.60    1.01
   6   6   4   19.90    0.69
   6   6   4   22.18    1.10
   6   6   4   20.18    0.98
   6   6   4   20.55    0.74
   6   6   4   21.17    0.72
  -7  -6  -4   37.07    1.07
  -7  -6  -4   38.06    1.22
  -7  -6  -4   38.78    1.39
  -7  -6  -4   38.51    1.35
   7   6   4   38.05    1.46
   7   6   4   37.70    0.93
   7   6   4   39.40    1.33
   7   6   4   38.85    1.07
   7   6   4   38.37    0.95
  -8  -6  -4    0.47    0.52
  -8  -6  -4   -0.42    0.41
   8   6   4    0.66    0.27
   8   6   4    1.16    0.26
   8   6   4    0.58    0.37
   8   6   4    0.55    0.25
   8   6   4    0.21    0.61
   8   6   4    0.75    0.45
  -9  -6  -4   19.04    1.25
  -9  -6  -4   17.33    1.18
   9   6   4   16.38    1.32
   9   6   4   16.80    0.75
   9   6   4   18.20    1.13
   9   6   4   18.92    0.95
   9   6   4   17.57    0.99
 -10  -6  -4   51.53    1.85
 -10  -6  -4   51.00    1.65
  10   6   4   51.16    1.58
  10   6   4   50.79    2.04
  10   6   4   48.78    1.37
  10   6   4   53.43    1.79
  10   6   4   47.04    1.78
 -11  -6  -4   24.51    1.47
  11   6   4   22.41    1.49
  11   6   4   25.56    1.32
  11   6   4   25.64    1.20
  11   6   4   22.98    1.35
   4  -7  -4    4.04    0.75
   4  -7  -4    4.32    0.88
   4  -7  -4    5.49    0.91
   4  -7  -4    5.16    0.93
  -4   7   4    4.96    0.87
  -4   7   4    3.99    0.71
   3  -7  -4    1.73    0.71
   3  -7  -4    1.74    0.67
   3  -7  -4    0.96    0.67
   3  -7  -4    1.33    0.67
   3  -7  -4    1.90    0.60
   3  -7  -4    0.95    0.67
  -3   7   4    1.64    0.63
  -3   7   4    2.59    0.82
  -3   7   4    1.44    0.67
  -3   7   4    1.46    0.63
   2  -7  -4   19.63    1.23
   2  -7  -4   19.13    1.27
   2  -7  -4   18.68    1.23
   2  -7  -4   21.59    1.11
   2  -7  -4   17.43    1.16
  -2   7   4   19.32    1.20
  -2   7   4   21.34    1.30
  -2   7   4   21.69    1.09
  -2   7   4   20.88    1.10
   1  -7  -4   13.56    1.10
   1  -7  -4   13.58    0.92
   1  -7  -4   13.41    1.00
   1  -7  -4   12.90    1.05
   1  -7  -4   10.84    0.93
   1  -7  -4   15.35    1.11
  -1   7   4   13.99    1.16
  -1   7   4   12.34    0.90
  -1   7   4   14.26    0.97
  -1   7   4   13.69    1.04
  -1   7   4   13.76    1.06
  -1   7   4   14.23    1.09
   0  -7  -4   46.15    1.39
   0  -7  -4   45.22    1.52
   0  -7  -4   44.51    1.37
   0  -7  -4   42.49    1.36
   0  -7  -4   46.65    1.51
   0  -7  -4   44.60    1.45
   0   7   4   45.13    1.47
   0   7   4   42.88    1.35
   0   7   4   44.62    1.37
   0   7   4   45.70    1.57
   0   7   4   46.23    1.42
  -1  -7  -4   18.87    1.01
  -1  -7  -4   16.60    0.93
  -1  -7  -4   15.08    1.10
  -1  -7  -4   16.48    0.93
  -1  -7  -4   16.94    0.81
  -1  -7  -4   16.81    1.00
  -1  -7  -4   16.63    0.88
   1   7   4   18.80    0.92
   1   7   4   18.21    1.06
   1   7   4   18.81    1.01
   1   7   4   17.93    0.93
   1   7   4   17.74    0.88
   1   7   4   16.78    0.81
  -2  -7  -4    2.64    0.51
  -2  -7  -4    3.19    0.44
  -2  -7  -4    2.77    0.50
  -2  -7  -4    2.74    0.44
  -2  -7  -4    2.49    0.49
  -2  -7  -4    2.95    0.37
   2   7   4    2.64    0.45
   2   7   4    3.10    0.52
   2   7   4    2.36    0.35
   2   7   4    2.63    0.50
   2   7   4    2.96    0.45
   2   7   4    3.01    0.46
  -3  -7  -4   33.85    1.26
  -3  -7  -4   30.98    0.84
  -3  -7  -4   32.81    1.04
  -3  -7  -4   32.03    1.07
  -3  -7  -4   33.98    1.10
  -3  -7  -4   33.62    1.20
   3   7   4   33.05    1.23
   3   7   4   34.44    1.07
   3   7   4   34.70    1.11
   3   7   4   34.78    1.25
  -4  -7  -4    8.04    0.58
  -4  -7  -4    8.90    0.58
  -4  -7  -4    5.76    0.66
  -4  -7  -4    8.90    0.80
  -4  -7  -4    8.62    0.82
   4   7   4    8.31    0.81
   4   7   4    7.66    0.60
   4   7   4    7.01    0.63
   4   7   4    7.55    0.78
  -5  -7  -4  134.47    2.54
  -5  -7  -4  137.27    2.33
  -5  -7  -4  130.04    2.37
  -5  -7  -4  131.44    2.37
  -5  -7  -4  134.31    2.81
   5   7   4  134.40    2.74
   5   7   4  131.62    2.50
   5   7   4  120.04    3.68
   5   7   4  133.98    2.55
   5   7   4  130.65    2.52
  -6  -7  -4   -0.11    0.42
  -6  -7  -4    0.40    0.36
  -6  -7  -4    0.11    0.34
  -6  -7  -4   -0.28    0.43
   6   7   4   -0.38    0.33
   6   7   4    0.05    0.31
   6   7   4    0.21    0.34
   6   7   4    0.25    0.41
   6   7   4    0.43    0.46
  -7  -7  -4    4.22    0.63
  -7  -7  -4    3.94    0.60
  -7  -7  -4    4.08    0.70
  -7  -7  -4    5.20    0.66
   7   7   4    3.73    0.76
   7   7   4    3.80    0.43
   7   7   4    4.43    0.53
   7   7   4    4.37    0.58
   7   7   4    2.50    0.52
   7   7   4    5.47    0.65
  -8  -7  -4    6.00    0.64
  -8  -7  -4    5.47    0.75
  -8  -7  -4    5.04    0.55
   8   7   4    5.69    0.56
   8   7   4    6.49    0.61
   8   7   4    5.41    0.54
   8   7   4    6.40    0.92
   8   7   4    4.80    0.66
  -9  -7  -4   17.35    1.14
  -9  -7  -4   17.09    1.29
  -9  -7  -4   16.96    1.04
   9   7   4   18.26    0.97
   9   7   4   17.48    1.43
   9   7   4   16.37    0.75
   9   7   4   14.68    1.20
   9   7   4   17.14    0.72
 -10  -7  -4   92.87    2.63
  10   7   4   92.15    1.82
  10   7   4   97.93    2.56
  10   7   4   92.93    2.25
  10   7   4   90.60    1.83
  10   7   4   95.50    2.71
  11   7   4    2.53    0.81
  11   7   4    2.64    0.68
  11   7   4    3.12    0.81
   3  -8  -4    2.33    0.87
   3  -8  -4    3.14    0.86
   3  -8  -4    2.33    0.81
   3  -8  -4    0.83    0.68
  -3   8   4    2.32    0.76
  -3   8   4    1.66    0.71
  -3   8   4    2.40    0.91
   2  -8  -4   27.27    1.55
   2  -8  -4   25.70    1.59
   2  -8  -4   25.48    1.33
   2  -8  -4   25.64    1.50
  -2   8   4   23.97    1.44
  -2   8   4   27.86    1.38
  -2   8   4   27.52    1.58
  -2   8   4   26.35    1.32
   1  -8  -4   22.98    1.31
   1  -8  -4   21.60    1.38
   1  -8  -4   21.79    1.40
   1  -8  -4   22.82    1.21
  -1   8   4   22.87    1.20
  -1   8   4   23.89    1.40
  -1   8   4   16.23    1.89
  -1   8   4   23.00    1.32
   0  -8  -4   16.49    1.17
   0  -8  -4   13.94    0.99
   0  -8  -4   15.49    1.01
   0  -8  -4   18.44    1.24
   0  -8  -4   15.34    1.14
   0   8   4   14.86    0.98
   0   8   4   15.48    1.15
   0   8   4   14.61    1.08
  -1  -8  -4    5.00    0.69
  -1  -8  -4    4.93    0.64
  -1  -8  -4    4.68    0.54
  -1  -8  -4    4.14    0.66
  -1  -8  -4    5.09    0.71
  -1  -8  -4    5.62    0.68
  -1  -8  -4    5.11    0.62
   1   8   4    4.12    0.59
   1   8   4    4.36    0.63
   1   8   4    4.84    0.69
  -2  -8  -4   11.87    0.72
  -2  -8  -4   12.28    0.88
  -2  -8  -4   13.22    1.08
  -2  -8  -4   13.29    0.86
  -2  -8  -4   13.12    0.99
  -2  -8  -4   12.08    0.95
   2   8   4   13.13    0.87
   2   8   4   12.05    1.00
   2   8   4   12.66    0.95
   2   8   4   12.73    1.10
   2   8   4   12.42    0.92
  -3  -8  -4  252.88    4.80
  -3  -8  -4  254.24    4.64
  -3  -8  -4  265.16    4.63
  -3  -8  -4  255.55    4.55
  -3  -8  -4  263.36    4.83
  -3  -8  -4  255.19    4.29
   3   8   4  256.27    4.62
   3   8   4  263.42    4.83
   3   8   4  257.17    4.64
   3   8   4  258.45    4.83
  -4  -8  -4    0.18    0.48
  -4  -8  -4    0.19    0.39
  -4  -8  -4    0.26    0.49
  -4  -8  -4   -0.14    0.43
  -4  -8  -4    0.84    0.39
   4   8   4    1.02    0.55
   4   8   4    1.36    0.49
   4   8   4    0.25    0.44
   4   8   4    0.31    0.39
  -5  -8  -4  158.77    3.31
  -5  -8  -4  135.84    3.73
  -5  -8  -4  157.05    2.87
  -5  -8  -4  160.28    2.88
  -5  -8  -4  156.87    3.31
   5   8   4  156.92    2.98
   5   8   4  153.56    3.08
   5   8   4  161.12    3.23
   5   8   4  159.69    3.05
   5   8   4  159.41    3.32
  -6  -8  -4   35.25    0.97
  -6  -8  -4   34.31    1.44
  -6  -8  -4   35.62    0.97
  -6  -8  -4   34.97    1.42
  -6  -8  -4   34.84    1.55
   6   8   4   33.79    1.18
   6   8   4   33.47    1.17
   6   8   4   36.54    1.38
   6   8   4   36.43    1.45
   6   8   4   34.03    1.19
  -7  -8  -4    2.65    0.58
  -7  -8  -4    1.74    0.87
  -7  -8  -4    2.20    0.62
   7   8   4    1.31    0.41
   7   8   4    1.34    0.57
   7   8   4    2.42    0.59
   7   8   4    1.70    0.44
   7   8   4    3.04    0.48
  -8  -8  -4   28.76    1.18
  -8  -8  -4   27.68    1.44
   8   8   4   27.43    1.40
   8   8   4   27.43    1.11
   8   8   4   27.90    1.13
   8   8   4   27.35    1.28
   8   8   4   27.32    0.99
  -9  -8  -4    5.30    0.84
  -9  -8  -4    5.66    0.71
   9   8   4    5.13    0.72
   9   8   4    5.37    0.54
   9   8   4    5.44    0.64
   9   8   4    5.04    0.56
   9   8   4    5.49    0.80
 -10  -8  -4   88.66    2.28
 -10  -8  -4   92.00    2.64
  10   8   4   86.87    1.92
  10   8   4   91.92    2.60
  10   8   4   91.89    2.30
  10   8   4   87.05    2.19
  10   8   4   87.64    1.91
 -11  -8  -4    6.63    1.08
  11   8   4    4.67    0.75
  11   8   4    5.81    0.98
  11   8   4    5.41    0.56
  11   8   4    5.32    0.79
  11   8   4    3.84    0.88
   2  -9  -4   58.94    2.21
   2  -9  -4   57.77    2.21
  -2   9   4   58.35    2.00
  -2   9   4   57.39    2.23
  -2   9   4   54.35    2.14
   1  -9  -4   46.31    1.76
   1  -9  -4   46.69    2.02
   1  -9  -4   45.82    1.84
   1  -9  -4   49.96    1.96
  -1   9   4   48.98    1.91
  -1   9   4   47.05    1.97
  -1   9   4   47.44    1.74
   0  -9  -4   14.13    1.35
   0  -9  -4   13.10    1.11
   0  -9  -4   13.83    1.33
   0  -9  -4   14.47    1.17
   0  -9  -4   11.96    1.34
   0   9   4   11.79    1.50
   0   9   4   13.36    1.31
   0   9   4   14.37    1.21
   0   9   4   12.71    1.10
  -1  -9  -4    2.84    0.70
  -1  -9  -4    0.73    0.65
  -1  -9  -4    1.88    0.71
  -1  -9  -4    1.42    0.56
  -1  -9  -4    0.98    0.61
   1   9   4    0.54    0.59
   1   9   4    1.05    0.55
   1   9   4    1.64    0.59
  -2  -9  -4    8.60    1.09
  -2  -9  -4    7.73    0.87
  -2  -9  -4    8.18    1.08
  -2  -9  -4   10.06    0.79
  -2  -9  -4    8.86    0.93
  -2  -9  -4   10.27    1.05
   2   9   4    9.92    0.93
   2   9   4    7.63    0.93
   2   9   4    8.06    1.09
   2   9   4   10.00    1.00
  -3  -9  -4  110.81    2.49
  -3  -9  -4  114.66    2.51
  -3  -9  -4  109.41    2.20
  -3  -9  -4  110.49    2.70
  -3  -9  -4  112.34    2.59
  -3  -9  -4  109.18    2.75
   3   9   4  113.22    2.76
   3   9   4  108.98    2.53
   3   9   4  114.08    2.76
   3   9   4  110.31    2.61
   3   9   4  114.04    2.60
  -4  -9  -4    3.28    0.64
  -4  -9  -4    3.21    0.69
  -4  -9  -4    3.62    0.57
  -4  -9  -4    2.66    0.51
  -4  -9  -4    2.63    0.34
  -4  -9  -4    2.64    0.62
   4   9   4    2.64    0.54
   4   9   4    2.92    0.62
   4   9   4    3.25    0.74
   4   9   4    1.76    0.59
  -5  -9  -4   37.41    1.23
  -5  -9  -4   37.35    1.53
  -5  -9  -4   37.96    1.22
  -5  -9  -4   36.08    1.39
   5   9   4   33.86    1.51
   5   9   4   35.75    1.54
   5   9   4   32.43    1.49
   5   9   4   37.13    1.29
   5   9   4   36.27    1.39
  -6  -9  -4   28.54    1.44
  -6  -9  -4   31.86    1.02
  -6  -9  -4   32.51    1.33
  -6  -9  -4   30.28    1.22
   6   9   4   29.37    1.28
   6   9   4   28.48    1.46
   6   9   4   28.96    1.17
   6   9   4   32.20    1.47
  -7  -9  -4    3.70    0.65
  -7  -9  -4    4.07    0.79
  -7  -9  -4    4.76    0.53
   7   9   4    4.49    0.76
   7   9   4    3.92    0.56
   7   9   4    4.04    0.63
   7   9   4    2.01    0.64
  -8  -9  -4   48.20    1.93
  -8  -9  -4   47.81    1.88
  -8  -9  -4   47.04    1.61
   8   9   4   45.84    1.54
   8   9   4   47.18    1.86
   8   9   4   46.25    1.42
   8   9   4   48.22    1.52
   8   9   4   47.96    1.73
  -9  -9  -4    1.42    0.75
  -9  -9  -4    0.33    0.66
   9   9   4   -0.25    0.56
   9   9   4    0.17    0.67
   9   9   4    0.44    0.70
   9   9   4   -0.36    0.55
 -10  -9  -4   31.28    1.78
 -10  -9  -4   31.54    1.62
  10   9   4   31.53    1.80
  10   9   4   32.12    1.23
  10   9   4   30.27    1.45
  10   9   4   32.07    1.59
  10   9   4   28.28    1.29
   0 -10  -4   -0.37    1.20
   0 -10  -4    0.29    0.80
   0 -10  -4   -1.58    0.67
   0  10   4   -0.32    0.81
   0  10   4    0.22    0.71
   0  10   4    0.58    0.83
  -1 -10  -4   22.55    1.66
  -1 -10  -4   24.38    1.58
  -1 -10  -4   21.93    1.63
  -1 -10  -4   23.55    1.41
  -1 -10  -4   23.73    1.35
   1  10   4   23.75    1.58
   1  10   4   23.38    1.43
   1  10   4   23.01    1.38
  -2 -10  -4    0.84    0.62
  -2 -10  -4   -0.05    0.50
  -2 -10  -4    0.33    0.76
  -2 -10  -4    1.25    0.79
   2  10   4    1.10    0.63
   2  10   4   -0.96    0.64
   2  10   4    0.09    0.54
  -3 -10  -4  103.03    2.77
  -3 -10  -4   98.24    2.48
  -3 -10  -4  101.52    2.18
  -3 -10  -4  101.83    2.74
  -3 -10  -4  104.35    2.51
   3  10   4   99.25    2.61
   3  10   4   98.60    2.77
   3  10   4  102.64    2.75
   3  10   4  103.71    2.56
  -4 -10  -4   48.11    1.86
  -4 -10  -4   48.61    1.93
  -4 -10  -4   48.11    1.22
  -4 -10  -4   49.59    1.62
  -4 -10  -4   50.55    1.83
   4  10   4   50.29    1.78
   4  10   4   48.70    1.89
   4  10   4   49.57    1.69
   4  10   4   49.55    1.94
  -5 -10  -4   11.69    1.35
  -5 -10  -4   11.17    1.03
  -5 -10  -4   11.47    1.00
  -5 -10  -4   11.52    1.20
  -5 -10  -4   10.19    0.96
   5  10   4   12.14    1.04
   5  10   4   10.10    1.04
   5  10   4   10.16    1.34
   5  10   4   12.23    1.18
  -6 -10  -4    0.89    0.57
  -6 -10  -4    2.09    0.71
  -6 -10  -4    1.11    0.49
  -6 -10  -4    1.74    0.72
  -6 -10  -4    1.95    0.84
   6  10   4    1.31    0.69
   6  10   4    1.11    0.57
   6  10   4    0.50    0.57
   6  10   4    1.72    0.69
   6  10   4    0.85    0.80
  -7 -10  -4    3.68    0.85
  -7 -10  -4    2.33    0.49
  -7 -10  -4    3.57    0.60
  -7 -10  -4    2.96    0.78
   7  10   4    3.34    0.76
   7  10   4    3.12    0.84
   7  10   4    3.24    0.63
   7  10   4    2.41    0.61
   7  10   4    4.04    0.82
  -8 -10  -4   34.69    1.81
  -8 -10  -4   39.80    1.73
   8  10   4   37.24    1.83
   8  10   4   36.55    1.53
   8  10   4   37.74    1.76
   8  10   4   37.05    1.59
   8  10   4   38.80    1.45
  -9 -10  -4    2.27    0.81
  -9 -10  -4    2.61    0.92
   9  10   4    3.02    0.72
   9  10   4    0.91    0.81
   9  10   4    2.53    0.67
   9  10   4    1.07    0.85
   9  10   4    1.09    0.73
 -10 -10  -4    2.05    1.01
 -10 -10  -4    4.62    1.16
  10  10   4    3.20    0.93
  10  10   4    3.95    0.73
  10  10   4    6.30    0.88
  10  10   4    3.92    0.80
  -3 -11  -4    9.73    1.07
  -3 -11  -4    9.05    1.16
  -3 -11  -4    7.62    0.94
   3  11   4    8.67    1.01
   3  11   4    9.09    1.21
   3  11   4   12.24    1.56
  -4 -11  -4    1.82    0.53
  -4 -11  -4    3.21    0.78
  -4 -11  -4    3.59    0.93
   4  11   4    2.59    0.81
   4  11   4    2.24    0.70
   4  11   4    2.83    0.75
  -5 -11  -4    4.20    0.79
  -5 -11  -4    3.62    0.82
  -5 -11  -4    6.16    1.05
  -5 -11  -4    3.19    0.92
   5  11   4    3.92    0.77
   5  11   4    4.24    0.90
  -6 -11  -4   10.82    1.39
  -6 -11  -4    6.13    0.76
   6  11   4    8.90    0.91
   6  11   4    7.84    1.19
   6  11   4    4.41    0.95
  -7 -11  -4   13.70    1.18
  -7 -11  -4   15.02    1.63
  -7 -11  -4   15.98    1.17
   7  11   4   16.15    1.34
   7  11   4   15.13    1.62
   7  11   4   15.42    1.61
   7  11   4   15.86    1.27
  -8 -11  -4    4.55    1.43
  -8 -11  -4    1.75    1.49
   8  11   4    3.91    0.81
   8  11   4    3.05    0.77
   8  11   4    4.52    1.58
   8  11   4    3.75    1.02
   8   8  -5   23.45    1.71
   8   8  -5   22.45    1.43
  -8  -8   5   24.67    1.66
  -8  -8   5   22.45    1.28
  -8  -8   5   20.82    1.43
   7   8  -5    1.58    0.66
   7   8  -5    2.00    0.79
   7   8  -5    2.01    0.82
   7   8  -5    3.28    0.83
  -7  -8   5    2.07    0.70
  -7  -8   5    4.66    0.92
  -7  -8   5    1.67    0.76
   6   8  -5    8.62    1.04
   6   8  -5    6.76    0.86
   6   8  -5    7.57    0.96
   6   8  -5    9.29    1.03
  -6  -8   5    8.28    0.98
  -6  -8   5    6.82    0.86
  -6  -8   5    7.35    0.83
   5   8  -5   -0.13    0.68
   5   8  -5    0.61    0.63
   5   8  -5   -0.13    0.55
   5   8  -5    0.63    0.68
  -5  -8   5    0.12    0.60
  -5  -8   5    0.24    0.74
  -5  -8   5    1.58    0.69
  -5  -8   5    0.51    0.77
   4   8  -5   19.95    1.47
   4   8  -5   19.09    1.28
   4   8  -5   18.40    1.29
   4   8  -5   19.43    1.42
  -4  -8   5   21.09    1.35
  -4  -8   5   21.58    1.35
  -4  -8   5   19.05    1.96
   3   8  -5    5.77    0.77
   3   8  -5    5.85    0.87
   3   8  -5    7.97    0.89
   3   8  -5    6.41    0.98
  -3  -8   5    6.34    0.93
  -3  -8   5    5.76    0.90
  -3  -8   5    5.84    0.86
   2   8  -5    6.42    0.78
   2   8  -5    5.42    0.93
   2   8  -5    5.21    1.07
   2   8  -5    6.15    0.83
  -2  -8   5    6.77    0.97
  -2  -8   5    5.78    0.87
   1   8  -5    0.00    0.72
   1   8  -5   -0.23    0.62
  -1  -8   5    0.45    0.92
  -1  -8   5   -0.75    0.84
   9   7  -5    2.40    0.89
   9   7  -5    1.38    0.89
   9   7  -5    1.30    0.70
   9   7  -5    3.05    0.93
  -9  -7   5    2.15    0.83
   8   7  -5   15.93    1.44
   8   7  -5   17.20    1.46
   8   7  -5   16.21    1.22
   8   7  -5   15.77    1.38
  -8  -7   5   15.95    1.31
  -8  -7   5   16.09    1.24
  -8  -7   5   15.22    1.15
  -8  -7   5   12.69    0.98
   7   7  -5    2.06    0.63
   7   7  -5    1.64    0.67
   7   7  -5    2.51    0.68
   7   7  -5    0.98    0.70
  -7  -7   5    0.94    0.64
  -7  -7   5    1.77    0.74
  -7  -7   5    1.37    0.64
  -7  -7   5    1.52    0.55
   6   7  -5   16.37    1.11
   6   7  -5   15.26    0.88
   6   7  -5   15.30    1.25
   6   7  -5   13.54    1.27
   6   7  -5   16.25    1.23
  -6  -7   5   14.67    0.87
  -6  -7   5   17.24    1.13
  -6  -7   5   15.92    1.19
  -6  -7   5   16.99    1.08
   5   7  -5   41.28    1.59
   5   7  -5   37.70    1.57
   5   7  -5   39.22    1.49
   5   7  -5   40.38    1.34
   5   7  -5   42.60    1.68
  -5  -7   5   40.17    1.46
  -5  -7   5   39.95    1.54
  -5  -7   5   39.12    1.33
   4   7  -5   12.02    1.04
   4   7  -5   12.82    1.01
   4   7  -5   13.01    1.06
   4   7  -5   10.55    1.16
  -4  -7   5   10.25    1.35
  -4  -7   5   12.04    1.13
  -4  -7   5   10.01    1.02
   3   7  -5   69.94    2.01
   3   7  -5   71.43    2.00
   3   7  -5   69.73    1.91
   3   7  -5   68.08    2.09
   3   7  -5   63.36    1.73
  -3  -7   5   71.87    2.00
  -3  -7   5   70.42    2.05
  -3  -7   5   70.40    1.98
   2   7  -5    0.89    0.55
   2   7  -5    0.87    0.46
   2   7  -5    0.16    0.60
   2   7  -5   -0.02    0.61
   2   7  -5   -1.34    0.79
   2   7  -5   -0.61    0.65
  -2  -7   5    0.70    0.61
  -2  -7   5    0.50    0.67
  -2  -7   5    0.34    0.54
   1   7  -5   18.51    1.30
   1   7  -5   19.60    1.04
   1   7  -5   21.83    1.23
   1   7  -5   21.42    1.03
   1   7  -5   21.11    1.47
   1   7  -5   21.68    1.39
  -1  -7   5   21.32    1.39
  -1  -7   5   20.38    1.25
  -1  -7   5   18.86    2.27
   0   7  -5   57.51    1.58
   0   7  -5   64.96    1.92
   0   7  -5   61.28    1.74
   0  -7   5   60.49    2.16
   0  -7   5   60.62    2.00
  -1   7  -5   17.95    1.41
  -1   7  -5   20.12    1.32
  -1   7  -5   19.53    1.18
   1  -7   5   19.19    1.39
   1  -7   5   23.60    1.61
   1  -7   5   19.17    1.64
  10   6  -5   23.09    1.61
  10   6  -5   23.14    1.45
  10   6  -5   24.36    1.40
 -10  -6   5   23.59    1.42
   9   6  -5   -0.18    0.55
   9   6  -5   -1.55    0.68
   9   6  -5    0.65    0.74
   9   6  -5    1.21    0.72
  -9  -6   5    0.20    0.64
  -9  -6   5   -0.82    0.66
   8   6  -5   -0.04    0.67
   8   6  -5    0.78    0.64
   8   6  -5    1.51    0.66
   8   6  -5   -0.46    0.52
  -8  -6   5   -0.31    0.57
  -8  -6   5    1.17    0.60
  -8  -6   5    0.03    0.41
  -8  -6   5    1.04    0.63
   7   6  -5   20.26    1.32
   7   6  -5   14.15    1.25
   7   6  -5   16.42    1.05
   7   6  -5   15.99    1.21
  -7  -6   5   16.99    1.14
  -7  -6   5   16.00    0.91
  -7  -6   5   16.93    1.13
  -7  -6   5   13.73    0.99
   6   6  -5    3.96    0.66
   6   6  -5    3.83    0.71
   6   6  -5    4.34    0.68
   6   6  -5    4.60    0.61
   6   6  -5    4.98    0.55
  -6  -6   5    4.36    0.43
  -6  -6   5    4.44    0.64
  -6  -6   5    5.15    0.71
   5   6  -5   99.33    2.32
   5   6  -5   98.46    2.42
   5   6  -5   98.64    2.35
   5   6  -5   97.58    2.03
   5   6  -5   98.06    2.47
  -5  -6   5   99.32    2.22
  -5  -6   5  100.17    2.27
  -5  -6   5   97.78    2.04
   4   6  -5    2.91    0.64
   4   6  -5    2.54    0.52
   4   6  -5    3.01    0.49
   4   6  -5    1.97    0.56
   4   6  -5    2.31    0.51
  -4  -6   5    3.04    0.57
  -4  -6   5    2.87    0.49
  -4  -6   5    2.95    0.56
  -4  -6   5    3.60    0.56
   3   6  -5    6.79    0.80
   3   6  -5    6.21    0.66
   3   6  -5    5.80    0.77
   3   6  -5    5.89    0.73
  -3  -6   5    6.55    0.90
  -3  -6   5    5.12    0.65
  -3  -6   5    4.59    0.62
  -3  -6   5    6.94    0.79
  -3  -6   5    5.08    0.67
   2   6  -5   10.98    0.81
   2   6  -5   10.00    1.00
   2   6  -5    9.74    1.01
   2   6  -5    9.02    0.87
   2   6  -5    9.18    0.85
  -2  -6   5    9.19    0.92
  -2  -6   5    7.87    0.82
  -2  -6   5    9.00    0.89
   1   6  -5   38.74    1.51
   1   6  -5   39.18    1.70
   1   6  -5   39.09    1.39
   1   6  -5   38.47    1.56
   1   6  -5   36.34    1.18
   1   6  -5   39.04    1.24
  -1  -6   5   37.36    1.54
  -1  -6   5   41.38    1.45
  -1  -6   5   38.38    1.52
   0   6  -5  134.84    2.59
   0   6  -5  135.11    2.89
   0   6  -5  134.02    3.12
   0   6  -5  134.95    2.77
   0  -6   5  134.50    2.96
   0  -6   5  134.58    3.05
   0  -6   5  135.18    2.99
   0  -6   5  133.18    3.11
  -1   6  -5    3.88    0.63
  -1   6  -5    4.30    0.63
  -1   6  -5    3.81    0.83
  -1   6  -5    4.12    0.48
   1  -6   5    5.42    0.75
   1  -6   5    4.52    0.80
   1  -6   5    4.25    0.70
   1  -6   5    2.30    0.75
  -2   6  -5   39.56    1.76
  -2   6  -5   41.61    1.51
  -2   6  -5   42.43    1.57
   2  -6   5   42.36    1.64
   2  -6   5   42.86    1.85
   2  -6   5   40.95    1.87
  -3   6  -5   11.09    1.24
  -3   6  -5   13.00    1.14
  -3   6  -5   10.85    1.15
   3  -6   5   12.26    1.52
   3  -6   5   11.84    1.26
   3  -6   5    9.76    1.38
  10   5  -5    8.00    1.01
  10   5  -5    8.79    0.96
  10   5  -5    8.34    1.12
  10   5  -5    8.81    1.11
  10   5  -5   10.46    1.03
 -10  -5   5    8.91    0.99
 -10  -5   5    8.27    1.17
   9   5  -5    1.05    0.57
   9   5  -5    1.40    0.65
   9   5  -5    1.42    0.72
   9   5  -5    1.18    0.67
   9   5  -5    0.41    0.60
  -9  -5   5    0.99    0.67
  -9  -5   5    1.03    0.54
  -9  -5   5    0.74    0.67
   8   5  -5    2.76    0.62
   8   5  -5    3.73    0.74
   8   5  -5    2.73    0.60
   8   5  -5    1.97    0.54
   8   5  -5    3.05    0.71
  -8  -5   5    2.50    0.57
  -8  -5   5    2.55    0.65
  -8  -5   5    2.87    0.46
  -8  -5   5    2.87    0.40
   7   5  -5  115.02    2.54
   7   5  -5  115.16    2.84
   7   5  -5  118.62    2.59
   7   5  -5  115.40    2.77
  -7  -5   5  114.16    2.51
  -7  -5   5  116.37    2.28
  -7  -5   5  116.21    2.53
   6   5  -5    0.42    0.52
   6   5  -5    1.91    0.48
   6   5  -5    1.55    0.53
   6   5  -5    0.97    0.53
  -6  -5   5    0.32    0.49
  -6  -5   5    1.34    0.51
  -6  -5   5    0.49    0.44
  -6  -5   5    1.57    0.42
   5   5  -5  145.57    2.95
   5   5  -5  143.85    2.59
   5   5  -5  148.89    2.96
   5   5  -5  144.61    3.09
   5   5  -5  145.67    3.10
  -5  -5   5  150.09    2.89
  -5  -5   5  143.74    3.08
  -5  -5   5  148.67    2.95
  -5  -5   5  143.54    2.59
  -5  -5   5  145.41    2.83
   4   5  -5    7.30    0.87
   4   5  -5    7.81    0.79
   4   5  -5    7.00    0.71
   4   5  -5    7.33    0.61
   4   5  -5    6.19    0.77
  -4  -5   5    6.01    0.74
  -4  -5   5    7.47    0.71
  -4  -5   5    6.92    0.82
  -4  -5   5    8.53    0.63
  -4  -5   5    8.27    0.71
   3   5  -5    0.31    0.36
   3   5  -5    0.52    0.41
   3   5  -5   -0.12    0.40
   3   5  -5   -0.11    0.31
   3   5  -5   -0.03    0.33
  -3  -5   5   -0.15    0.38
  -3  -5   5    0.26    0.35
  -3  -5   5    0.34    0.45
   2   5  -5   39.98    1.28
   2   5  -5   42.01    1.33
   2   5  -5   40.53    1.22
   2   5  -5   41.41    1.32
   2   5  -5   42.83    1.42
  -2  -5   5   43.18    1.34
  -2  -5   5   40.99    1.32
  -2  -5   5   40.96    1.29
  -2  -5   5   41.24    1.36
  -2  -5   5   42.50    1.44
   1   5  -5   14.30    0.84
   1   5  -5   14.29    0.80
   1   5  -5   14.99    0.74
   1   5  -5   14.59    0.96
   1   5  -5   14.36    0.89
   1   5  -5   12.78    0.95
  -1  -5   5   14.91    0.91
  -1  -5   5   14.54    0.88
  -1  -5   5   13.78    0.99
   0   5  -5  102.57    2.41
   0   5  -5  105.60    2.50
   0   5  -5  105.88    2.30
   0   5  -5  100.23    2.03
   0   5  -5  103.02    2.24
   0   5  -5  104.75    2.31
   0  -5   5  104.94    2.36
   0  -5   5  101.62    2.40
   0  -5   5  101.76    2.36
   0  -5   5  104.87    2.48
  -1   5  -5    5.89    0.52
  -1   5  -5    4.68    0.61
  -1   5  -5    5.85    0.75
  -1   5  -5    6.45    0.75
  -1   5  -5    4.62    0.72
   1  -5   5    5.88    0.81
   1  -5   5    6.64    0.81
   1  -5   5    5.90    0.77
   1  -5   5    4.47    0.66
  -2   5  -5    3.80    0.76
  -2   5  -5    3.52    0.56
  -2   5  -5    3.53    0.61
  -2   5  -5    2.79    0.57
  -2   5  -5    1.72    0.58
   2  -5   5    3.11    0.69
   2  -5   5    3.55    0.77
   2  -5   5    2.94    0.70
   2  -5   5    4.03    0.62
  -3   5  -5    0.29    0.47
  -3   5  -5    0.71    0.54
  -3   5  -5    0.75    0.59
  -3   5  -5    1.13    0.60
   3  -5   5   -0.30    0.62
   3  -5   5    1.19    0.74
   3  -5   5    0.70    0.67
   3  -5   5    0.96    0.69
   3  -5   5   -0.45    0.54
  -4   5  -5   38.98    1.35
  -4   5  -5   39.84    1.45
  -4   5  -5   38.84    1.75
  -4   5  -5   39.66    1.66
   4  -5   5   39.67    1.94
   4  -5   5   37.65    1.59
   4  -5   5   39.08    1.92
  10   4  -5    0.25    0.70
  10   4  -5    0.12    0.73
  10   4  -5    1.63    0.77
  10   4  -5    0.81    0.65
 -10  -4   5    2.21    0.87
   9   4  -5   10.11    1.14
   9   4  -5   10.57    1.22
   9   4  -5   10.27    1.18
  -9  -4   5    8.89    1.18
  -9  -4   5   11.35    1.26
  -9  -4   5   11.41    0.81
   8   4  -5    3.73    0.67
   8   4  -5    3.66    0.61
  -8  -4   5    4.80    0.54
  -8  -4   5    3.78    0.72
  -8  -4   5    3.39    0.65
   7   4  -5  180.72    3.43
   7   4  -5  177.69    3.49
   7   4  -5  182.41    3.43
   7   4  -5  176.98    3.67
  -7  -4   5  178.13    3.13
  -7  -4   5  176.11    3.76
  -7  -4   5  183.37    3.48
  -7  -4   5  172.76    3.28
  -7  -4   5  179.73    3.17
   6   4  -5   28.53    1.14
   6   4  -5   28.95    1.11
   6   4  -5   26.56    1.13
  -6  -4   5   29.34    0.95
  -6  -4   5   28.99    1.14
  -6  -4   5   30.07    1.00
  -6  -4   5   27.92    1.24
  -6  -4   5   28.28    1.03
   5   4  -5   12.50    0.79
   5   4  -5   10.22    0.79
   5   4  -5   11.93    0.87
  -5  -4   5   11.34    0.90
  -5  -4   5   11.53    0.75
  -5  -4   5   11.18    0.67
  -5  -4   5   12.41    0.47
  -5  -4   5   12.74    0.85
   4   4  -5   33.57    1.10
   4   4  -5   34.88    1.13
   4   4  -5   33.99    0.90
   4   4  -5   33.64    1.20
  -4  -4   5   34.00    1.07
  -4  -4   5   34.02    0.90
  -4  -4   5   33.52    1.07
  -4  -4   5   33.52    1.20
  -4  -4   5   34.39    1.17
   3   4  -5    5.90    0.64
   3   4  -5    5.61    0.72
   3   4  -5    5.93    0.64
   3   4  -5    5.58    0.58
   3   4  -5    5.17    0.54
  -3  -4   5    5.73    0.62
  -3  -4   5    6.95    0.62
  -3  -4   5    5.63    0.70
  -3  -4   5    5.54    0.58
  -3  -4   5    5.87    0.53
   2   4  -5  163.44    3.20
   2   4  -5  168.64    3.10
   2   4  -5  162.52    3.13
   2   4  -5  163.34    3.09
   2   4  -5  167.84    3.15
  -2  -4   5  169.72    3.15
  -2  -4   5  171.98    3.22
  -2  -4   5  164.83    3.09
  -2  -4   5  168.28    3.20
   1   4  -5    6.29    0.70
   1   4  -5    6.49    0.63
   1   4  -5    6.41    0.52
   1   4  -5    6.39    0.60
   1   4  -5    5.55    0.70
  -1  -4   5    6.53    0.66
  -1  -4   5    5.46    0.61
  -1  -4   5    5.45    0.63
  -1  -4   5    5.77    0.70
   0   4  -5   25.23    1.04
   0   4  -5   24.08    0.77
   0   4  -5   24.51    1.08
   0   4  -5   24.77    0.96
   0   4  -5   25.46    0.97
   0   4  -5   24.31    0.94
   0  -4   5   26.21    1.02
   0  -4   5   24.20    1.03
   0  -4   5   22.36    1.00
   0  -4   5   25.01    1.08
  -1   4  -5    2.07    0.43
  -1   4  -5    2.80    0.48
  -1   4  -5    2.36    0.42
  -1   4  -5    2.68    0.29
  -1   4  -5    3.16    0.55
   1  -4   5    2.85    0.51
   1  -4   5    3.31    0.53
   1  -4   5    2.07    0.50
   1  -4   5    2.50    0.45
  -2   4  -5    3.61    0.53
  -2   4  -5    4.13    0.49
  -2   4  -5    3.50    0.63
  -2   4  -5    3.49    0.53
   2  -4   5    4.08    0.64
   2  -4   5    4.21    0.70
   2  -4   5    3.04    0.52
   2  -4   5    3.43    0.58
  -3   4  -5   10.94    0.94
  -3   4  -5   10.38    0.75
  -3   4  -5    8.84    0.97
  -3   4  -5    8.65    0.83
   3  -4   5   10.98    0.89
   3  -4   5    9.86    1.10
   3  -4   5    9.46    1.05
   3  -4   5    9.43    0.99
  -4   4  -5   32.59    1.08
  -4   4  -5   32.94    1.47
  -4   4  -5   34.45    1.19
  -4   4  -5   30.68    1.43
   4  -4   5   33.66    1.65
   4  -4   5   34.64    1.63
   4  -4   5   32.92    1.57
   4  -4   5   33.52    1.35
   4  -4   5   32.05    1.43
  -5   4  -5   23.18    0.95
  -5   4  -5   19.94    1.37
  -5   4  -5   20.47    0.91
  -5   4  -5   19.82    1.36
   5  -4   5   20.08    1.40
   5  -4   5   18.20    1.52
   5  -4   5   20.68    1.51
   5  -4   5   23.20    1.60
   5  -4   5   21.88    1.26
  10   3  -5    2.86    0.82
  10   3  -5    2.43    0.81
  10   3  -5    3.35    0.68
  10   3  -5    1.88    0.81
   9   3  -5   22.22    1.39
   9   3  -5   23.36    1.37
   9   3  -5   19.88    1.23
   9   3  -5   21.66    1.10
  -9  -3   5   22.14    1.38
  -9  -3   5   21.61    1.40
   8   3  -5    7.77    0.99
   8   3  -5    7.92    0.99
   8   3  -5    7.48    0.79
   8   3  -5    8.57    0.89
  -8  -3   5    8.52    1.04
  -8  -3   5    7.08    0.60
  -8  -3   5    9.13    1.05
   7   3  -5   96.33    2.86
   7   3  -5  108.90    2.28
   7   3  -5  103.00    2.49
   7   3  -5  110.06    2.44
  -7  -3   5  107.75    2.40
  -7  -3   5  105.97    2.05
  -7  -3   5  105.64    1.98
  -7  -3   5  106.57    2.60
  -7  -3   5  104.17    1.95
   6   3  -5   93.39    2.03
   6   3  -5   93.58    2.13
   6   3  -5   95.46    2.03
   6   3  -5   92.95    2.21
  -6  -3   5   90.71    1.83
  -6  -3   5   91.48    2.27
  -6  -3   5   88.51    1.84
  -6  -3   5   96.40    2.24
  -6  -3   5   89.37    2.49
  -6  -3   5   93.35    1.87
   5   3  -5    0.13    0.34
   5   3  -5   -0.81    0.31
  -5  -3   5    0.78    0.39
  -5  -3   5    0.47    0.31
  -5  -3   5    0.07    0.35
  -5  -3   5    0.07    0.39
  -5  -3   5    0.09    0.26
   4   3  -5    2.68    0.40
   4   3  -5    3.36    0.44
   4   3  -5    2.95    0.46
   4   3  -5    3.01    0.48
  -4  -3   5    2.03    0.41
  -4  -3   5    3.18    0.45
  -4  -3   5    2.58    0.36
  -4  -3   5    3.17    0.40
  -4  -3   5    2.85    0.32
   3   3  -5    9.65    0.68
   3   3  -5    9.64    0.51
   3   3  -5   10.93    0.63
   3   3  -5    9.59    0.64
  -3  -3   5    9.96    0.51
  -3  -3   5    9.62    0.69
  -3  -3   5   10.59    0.63
  -3  -3   5   10.35    0.62
  -3  -3   5    9.72    0.69
   2   3  -5  214.95    3.89
   2   3  -5  219.02    3.76
   2   3  -5  220.43    3.86
   2   3  -5  223.38    3.87
  -2  -3   5  225.40    3.90
  -2  -3   5  218.95    3.91
  -2  -3   5  213.84    3.83
  -2  -3   5  223.95    3.86
  -2  -3   5  215.89    3.75
   1   3  -5    0.67    0.28
   1   3  -5    0.84    0.30
   1   3  -5    0.83    0.26
   1   3  -5    1.13    0.31
   1   3  -5    0.94    0.34
  -1  -3   5    0.11    0.33
  -1  -3   5    1.11    0.31
  -1  -3   5    0.68    0.30
  -1  -3   5    0.70    0.31
   0   3  -5    7.45    0.45
   0   3  -5    5.93    0.63
   0   3  -5    7.76    0.71
   0   3  -5    7.04    0.63
   0   3  -5    7.55    0.55
   0  -3   5    6.78    0.58
   0  -3   5    7.06    0.64
   0  -3   5    6.62    0.68
   0  -3   5    7.19    0.62
  -1   3  -5   32.67    1.17
  -1   3  -5   31.96    0.75
  -1   3  -5   30.98    1.20
  -1   3  -5   31.42    1.08
  -1   3  -5   32.94    1.00
  -1   3  -5   32.38    1.08
   1  -3   5   34.58    1.07
   1  -3   5   34.83    1.19
   1  -3   5   33.56    1.06
   1  -3   5   29.90    1.23
  -2   3  -5   15.43    0.72
  -2   3  -5   14.75    0.86
  -2   3  -5   15.66    1.00
  -2   3  -5   14.81    0.87
   2  -3   5   15.56    0.87
   2  -3   5   15.50    0.80
   2  -3   5   15.29    0.81
   2  -3   5   14.75    0.95
  -3   3  -5  153.74    3.22
  -3   3  -5  158.97    3.41
  -3   3  -5  155.25    3.19
  -3   3  -5  157.64    2.89
  -3   3  -5  155.48    2.87
   3  -3   5  160.58    3.13
   3  -3   5  154.22    3.03
   3  -3   5  159.05    3.32
   3  -3   5  159.00    3.05
  -4   3  -5    9.05    0.61
  -4   3  -5    8.26    0.93
  -4   3  -5    9.17    0.92
  -4   3  -5    9.35    0.69
   4  -3   5    7.96    0.78
   4  -3   5    8.54    1.10
   4  -3   5   10.02    0.87
   4  -3   5    8.46    1.00
  -5   3  -5    7.43    1.01
  -5   3  -5    6.50    0.92
  -5   3  -5    6.40    0.79
   5  -3   5    7.24    0.87
   5  -3   5    8.27    1.00
   5  -3   5    7.17    0.89
   5  -3   5    7.54    0.84
   5  -3   5    6.54    0.84
  -6   3  -5   10.50    1.22
  -6   3  -5   10.68    1.17
   6  -3   5   11.82    1.19
   6  -3   5   11.66    1.41
   6  -3   5   10.50    1.33
   6  -3   5   12.88    1.22
   6  -3   5   10.87    1.04
  10   2  -5    2.78    0.81
  10   2  -5    3.29    0.84
  10   2  -5    2.62    0.66
  10   2  -5    3.44    0.85
 -10  -2   5    4.09    1.21
 -10  -2   5    3.47    0.90
   9   2  -5   14.97    1.16
   9   2  -5   17.13    1.06
   9   2  -5   16.57    1.33
   9   2  -5   17.50    1.33
  -9  -2   5   18.29    1.34
  -9  -2   5   17.87    2.05
   8   2  -5   17.93    1.01
   8   2  -5   16.93    1.16
   8   2  -5   13.98    1.15
   8   2  -5   15.60    0.94
  -8  -2   5   17.24    1.24
  -8  -2   5   15.62    1.20
   7   2  -5   12.26    0.83
   7   2  -5   13.76    1.01
   7   2  -5   12.21    0.81
  -7  -2   5   13.16    0.52
  -7  -2   5   12.70    1.02
  -7  -2   5   11.56    0.57
  -7  -2   5   12.41    1.00
  -7  -2   5   11.09    0.52
   6   2  -5    1.04    0.38
   6   2  -5    1.45    0.37
   6   2  -5    0.85    0.41
   6   2  -5    1.09    0.42
  -6  -2   5    1.76    0.32
  -6  -2   5    0.98    0.42
  -6  -2   5    1.45    0.30
  -6  -2   5    1.44    0.49
  -6  -2   5    1.54    0.47
   5   2  -5    1.24    0.33
   5   2  -5    1.46    0.41
   5   2  -5    1.52    0.39
   5   2  -5    1.73    0.36
  -5  -2   5    0.73    0.38
  -5  -2   5    0.80    0.27
  -5  -2   5    1.00    0.40
  -5  -2   5    1.52    0.31
  -5  -2   5    1.83    0.28
  -5  -2   5    1.53    0.39
   4   2  -5  130.01    2.49
   4   2  -5  130.06    2.48
   4   2  -5  127.38    2.56
   4   2  -5  128.92    2.59
  -4  -2   5  131.29    2.58
  -4  -2   5  128.17    2.63
  -4  -2   5  130.84    2.43
  -4  -2   5  132.16    2.59
  -4  -2   5  131.84    2.41
   3   2  -5   -0.04    0.28
   3   2  -5    0.04    0.27
   3   2  -5    0.56    0.28
   3   2  -5   -0.09    0.24
  -3  -2   5   -0.40    0.24
  -3  -2   5    0.16    0.26
  -3  -2   5   -0.01    0.25
  -3  -2   5   -0.41    0.28
  -3  -2   5    0.15    0.30
  -3  -2   5    0.11    0.17
   2   2  -5   69.79    1.55
   2   2  -5   69.13    1.53
   2   2  -5   69.86    1.53
  -2  -2   5   68.28    1.41
  -2  -2   5   71.59    1.61
  -2  -2   5   68.75    1.51
  -2  -2   5   70.39    1.54
  -2  -2   5   68.11    1.51
   1   2  -5    1.06    0.27
   1   2  -5    0.76    0.26
   1   2  -5    0.95    0.28
   1   2  -5    0.98    0.28
  -1  -2   5    1.07    0.33
  -1  -2   5    0.64    0.26
  -1  -2   5    0.58    0.26
  -1  -2   5    0.70    0.28
  -1  -2   5    1.01    0.27
   0   2  -5   12.41    0.65
   0   2  -5   12.80    0.66
   0   2  -5   13.57    0.62
   0   2  -5   13.18    0.60
   0  -2   5   11.60    0.67
   0  -2   5   12.46    0.62
   0  -2   5   12.62    0.63
   0  -2   5   13.68    0.64
  -1   2  -5   65.21    1.46
  -1   2  -5   63.74    1.40
  -1   2  -5   65.06    1.43
  -1   2  -5   64.39    1.58
  -1   2  -5   63.57    1.55
  -1   2  -5   63.07    1.18
   1  -2   5   63.31    1.45
   1  -2   5   63.66    1.57
   1  -2   5   61.87    1.43
   1  -2   5   64.12    1.46
  -2   2  -5   14.27    0.62
  -2   2  -5   14.97    0.84
  -2   2  -5   13.61    0.80
  -2   2  -5   13.89    0.64
   2  -2   5   14.41    0.69
   2  -2   5   14.60    0.84
   2  -2   5   15.72    0.74
   2  -2   5   14.74    0.69
  -3   2  -5  105.47    2.40
  -3   2  -5  106.49    2.01
  -3   2  -5  101.54    2.35
  -3   2  -5  103.67    1.99
  -3   2  -5  105.73    2.25
   3  -2   5  105.25    2.13
   3  -2   5  106.88    2.14
   3  -2   5  108.24    2.20
  -4   2  -5   14.65    1.06
  -4   2  -5   16.68    1.03
  -4   2  -5   16.31    0.65
  -4   2  -5   16.65    0.61
  -4   2  -5   17.02    0.92
   4  -2   5   17.12    0.94
   4  -2   5   15.80    0.88
   4  -2   5   15.49    0.79
   4  -2   5   16.32    1.04
  -5   2  -5    0.79    0.58
  -5   2  -5    1.81    0.56
  -5   2  -5    1.17    0.50
   5  -2   5    1.80    0.57
   5  -2   5    2.42    0.65
   5  -2   5    1.20    0.45
   5  -2   5    1.81    0.58
  -6   2  -5   63.36    1.92
  -6   2  -5   63.09    2.09
   6  -2   5   63.59    1.90
   6  -2   5   63.02    2.09
   6  -2   5   65.84    1.72
   6  -2   5   61.14    1.63
   6  -2   5   60.51    2.05
  -7   2  -5    2.42    0.66
  -7   2  -5    1.52    0.67
   7  -2   5    2.76    0.69
   7  -2   5    1.99    0.80
   7  -2   5    1.00    0.57
   7  -2   5    2.19    0.80
   7  -2   5    2.65    0.82
  10   1  -5   19.37    1.50
  10   1  -5   20.21    1.66
  10   1  -5   17.46    1.31
 -10  -1   5   18.72    1.59
   9   1  -5   22.11    1.48
   9   1  -5   24.13    1.18
   9   1  -5   23.87    1.30
   9   1  -5   24.18    1.44
  -9  -1   5   21.16    1.44
   8   1  -5   59.22    1.68
   8   1  -5   63.08    1.95
   8   1  -5   63.04    1.65
   8   1  -5   59.64    1.91
  -8  -1   5   61.67    1.94
  -8  -1   5   60.84    2.02
   7   1  -5    2.90    0.49
   7   1  -5    3.04    0.49
   7   1  -5    2.97    0.56
   7   1  -5    3.71    0.61
  -7  -1   5    3.02    0.61
  -7  -1   5    2.87    0.62
   6   1  -5   53.51    1.37
   6   1  -5   52.69    1.55
   6   1  -5   50.46    1.54
   6   1  -5   53.49    1.39
  -6  -1   5   49.50    1.62
  -6  -1   5   54.18    1.18
  -6  -1   5   50.81    1.15
  -6  -1   5   54.51    1.55
   5   1  -5   62.00    1.62
   5   1  -5   62.88    1.48
   5   1  -5   59.88    1.46
   5   1  -5   62.10    1.63
  -5  -1   5   65.09    1.63
  -5  -1   5   63.97    1.62
  -5  -1   5   65.25    1.37
  -5  -1   5   63.01    1.70
  -5  -1   5   60.81    1.34
   4   1  -5  137.09    2.57
   4   1  -5  136.53    2.56
   4   1  -5  138.32    2.69
   4   1  -5  138.94    2.67
  -4  -1   5  135.04    2.67
  -4  -1   5  136.69    2.49
  -4  -1   5  140.68    2.68
  -4  -1   5  134.63    2.47
  -4  -1   5  131.62    2.69
  -4  -1   5  135.21    2.26
   3   1  -5   28.26    0.91
   3   1  -5   28.61    0.97
   3   1  -5   27.54    0.87
   3   1  -5   28.08    0.87
  -3  -1   5   28.80    0.93
  -3  -1   5   27.29    0.84
  -3  -1   5   28.05    0.66
  -3  -1   5   27.44    0.82
  -3  -1   5   28.67    0.96
  -3  -1   5   28.70    0.96
   2   1  -5    2.28    0.33
   2   1  -5    2.13    0.36
   2   1  -5    2.01    0.32
   2   1  -5    1.70    0.31
  -2  -1   5    1.65    0.35
  -2  -1   5    2.40    0.37
  -2  -1   5    1.45    0.29
  -2  -1   5    1.38    0.29
  -2  -1   5    1.43    0.28
  -2  -1   5    1.98    0.25
   1   1  -5   98.96    1.91
   1   1  -5   97.99    1.88
   1   1  -5   97.33    1.90
  -1  -1   5   96.58    1.90
  -1  -1   5   99.65    1.87
  -1  -1   5   98.23    1.90
  -1  -1   5   97.86    1.86
  -1  -1   5  100.61    2.01
   0   1  -5   13.37    0.57
   0   1  -5   14.40    0.60
   0   1  -5   14.23    0.64
   0   1  -5   14.68    0.61
   0  -1   5   13.93    0.70
   0  -1   5   14.25    0.60
   0  -1   5   13.73    0.60
   0  -1   5   14.35    0.63
   0  -1   5   14.99    0.59
  -1   1  -5  358.97    5.88
  -1   1  -5  354.70    5.71
  -1   1  -5  354.62    5.70
  -1   1  -5  350.98    5.69
   1  -1   5  346.77    5.67
   1  -1   5  355.58    5.75
   1  -1   5  353.28    5.74
   1  -1   5  361.97    5.87
  -2   1  -5  122.28    2.44
  -2   1  -5  120.41    2.15
  -2   1  -5  119.55    2.17
  -2   1  -5  117.86    2.43
   2  -1   5  119.24    2.23
   2  -1   5  120.13    2.42
   2  -1   5  118.03    2.23
   2  -1   5  118.48    2.21
  -3   1  -5   50.40    1.09
  -3   1  -5   51.25    1.44
  -3   1  -5   50.22    1.43
  -3   1  -5   51.07    1.30
  -3   1  -5   51.11    1.08
   3  -1   5   50.70    1.20
   3  -1   5   50.31    1.42
   3  -1   5   51.59    1.21
   3  -1   5   49.98    1.22
  -4   1  -5    1.58    0.21
  -4   1  -5    1.35    0.39
  -4   1  -5    1.74    0.47
  -4   1  -5    1.85    0.45
   4  -1   5    1.40    0.36
   4  -1   5    1.61    0.34
   4  -1   5    1.94    0.33
   4  -1   5    2.32    0.47
  -5   1  -5    6.63    0.84
  -5   1  -5    6.89    0.74
  -5   1  -5    5.68    0.68
   5  -1   5    5.63    0.68
   5  -1   5    5.78    0.59
   5  -1   5    5.63    0.59
   5  -1   5    5.68    0.70
  -6   1  -5  113.59    2.76
  -6   1  -5  114.71    2.84
  -6   1  -5  115.27    2.56
   6  -1   5  113.98    2.48
   6  -1   5  108.08    2.26
   6  -1   5  116.48    2.77
   6  -1   5  117.76    2.76
   6  -1   5  115.69    2.30
  -7   1  -5   -0.10    0.60
  -7   1  -5    0.34    0.69
  -7   1  -5   -0.11    0.52
   7  -1   5    0.33    0.65
   7  -1   5    1.26    0.64
   7  -1   5    0.86    0.62
   7  -1   5    0.88    0.48
  -8   1  -5   11.21    1.29
  -8   1  -5   10.40    1.12
   8  -1   5    9.76    0.96
   8  -1   5   11.92    1.43
   8  -1   5   12.12    1.07
   8  -1   5   10.20    1.38
   8  -1   5    9.78    1.10
   9   0  -5    7.09    0.99
   9   0  -5   10.37    1.32
   9   0  -5    7.52    1.07
   9   0  -5    9.80    1.20
   9   0  -5    7.11    0.75
  -9   0   5    6.79    0.95
   8   0  -5   11.82    1.20
   8   0  -5   11.12    1.11
   8   0  -5   10.85    1.00
   8   0  -5   10.78    0.90
  -8   0   5    8.71    1.12
   7   0  -5    7.28    0.96
   7   0  -5    7.50    0.92
   7   0  -5    7.02    0.84
   7   0  -5    8.67    0.82
  -7   0   5    7.43    0.97
  -7   0   5    5.86    0.77
   6   0  -5  155.95    2.94
   6   0  -5  156.88    3.17
   6   0  -5  156.75    3.02
   6   0  -5  138.67    3.49
  -6   0   5  153.08    3.26
  -6   0   5  165.18    3.24
  -6   0   5  161.64    2.72
  -6   0   5  157.77    2.71
  -6   0   5  155.45    2.62
   5   0  -5   55.91    1.37
   5   0  -5   55.65    1.52
   5   0  -5   53.69    1.37
   5   0  -5   56.10    1.56
  -5   0   5   55.73    1.25
  -5   0   5   56.61    1.11
  -5   0   5   54.64    1.59
  -5   0   5   56.22    1.54
  -5   0   5   56.07    1.24
   4   0  -5  141.96    2.77
   4   0  -5  140.75    2.72
   4   0  -5  139.80    2.61
   4   0  -5  137.18    2.60
  -4   0   5  143.12    2.35
  -4   0   5  138.83    2.77
  -4   0   5  140.82    2.53
  -4   0   5  141.40    2.75
  -4   0   5  138.09    2.52
   3   0  -5   48.56    1.21
   3   0  -5   48.14    1.29
   3   0  -5   47.21    1.17
   3   0  -5   48.10    1.17
  -3   0   5   47.47    0.98
  -3   0   5   47.95    1.13
  -3   0   5   46.30    1.26
  -3   0   5   46.61    1.13
  -3   0   5   47.41    1.21
  -3   0   5   46.82    1.26
   2   0  -5   39.12    1.01
   2   0  -5   38.19    0.99
   2   0  -5   37.21    0.99
   2   0  -5   40.13    1.11
  -2   0   5   37.40    0.98
  -2   0   5   39.41    1.10
  -2   0   5   38.03    0.98
  -2   0   5   39.46    1.03
  -2   0   5   38.18    0.99
   1   0  -5  251.36    4.32
   1   0  -5  254.76    4.24
   1   0  -5  255.36    4.23
   1   0  -5  254.62    4.18
  -1   0   5  252.71    4.22
  -1   0   5  258.34    4.20
  -1   0   5  252.22    4.23
  -1   0   5  262.91    4.18
  -1   0   5  257.84    4.34
   0   0  -5  158.58    2.75
   0   0  -5  157.04    2.68
   0   0  -5  162.34    2.78
   0   0  -5  160.47    2.77
   0   0   5  158.76    2.78
   0   0   5  160.69    2.68
   0   0   5  158.83    2.80
   0   0   5  160.23    2.88
  -1   0  -5  296.34    4.79
  -1   0  -5  293.85    4.78
  -1   0  -5  299.14    4.72
  -1   0  -5  299.81    4.72
   1   0   5  293.88    4.71
   1   0   5  296.35    4.83
   1   0   5  299.52    4.82
   1   0   5  298.19    4.92
  -2   0  -5  233.70    4.44
  -2   0  -5  245.28    3.91
  -2   0  -5  240.37    3.76
  -2   0  -5  239.05    3.89
   2   0   5  239.64    4.15
   2   0   5  239.20    3.97
   2   0   5  243.99    3.89
   2   0   5  240.62    3.96
  -3   0  -5   17.71    0.83
  -3   0  -5   18.47    0.67
  -3   0  -5   17.96    0.53
  -3   0  -5   18.15    0.82
  -3   0  -5   17.59    0.50
   3   0   5   17.61    0.81
   3   0   5   16.91    0.62
   3   0   5   17.58    0.61
   3   0   5   17.66    0.62
  -4   0  -5   19.30    0.93
  -4   0  -5   19.21    0.75
  -4   0  -5   19.24    0.92
   4   0   5   19.12    0.70
   4   0   5   18.65    0.90
   4   0   5   19.55    0.66
   4   0   5   19.25    0.66
  -5   0  -5    0.41    0.34
  -5   0  -5    1.11    0.46
  -5   0  -5    0.68    0.42
   5   0   5    0.33    0.27
   5   0   5    0.03    0.26
   5   0   5   -0.27    0.35
   5   0   5    0.83    0.33
  -6   0  -5   61.57    1.83
  -6   0  -5   61.92    1.90
  -6   0  -5   61.31    1.59
   6   0   5   60.14    1.37
   6   0   5   62.12    1.79
   6   0   5   60.92    1.78
   6   0   5   61.25    1.37
  -7   0  -5    3.26    0.58
  -7   0  -5    3.63    0.71
   7   0   5    3.13    0.64
   7   0   5    3.76    0.45
   7   0   5    3.55    0.44
   7   0   5    3.62    0.67
   7   0   5    3.25    0.79
  -8   0  -5   -0.16    0.58
  -8   0  -5   -0.18    0.55
   8   0   5   -0.04    0.44
   8   0   5    1.64    0.87
   8   0   5   -0.27    0.62
   8   0   5    0.48    0.42
   8   0   5    0.28    0.65
  -9   0  -5    0.49    0.74
  -9   0  -5    2.27    0.69
   9   0   5    0.89    0.55
   9   0   5    2.45    0.88
   9   0   5    1.49    0.79
   9  -1  -5    3.51    0.72
   9  -1  -5    1.91    0.78
   9  -1  -5    2.25    0.85
   9  -1  -5    2.73    0.85
  -9   1   5    2.53    0.86
   8  -1  -5    6.19    0.79
   8  -1  -5    5.22    0.93
   8  -1  -5    6.40    0.68
   8  -1  -5    4.52    0.80
   8  -1  -5    5.43    0.73
  -8   1   5    5.41    0.59
  -8   1   5    4.25    0.86
  -8   1   5    3.25    0.69
   7  -1  -5   15.74    0.96
   7  -1  -5   12.74    1.29
   7  -1  -5   14.09    1.09
   7  -1  -5   13.98    0.89
   7  -1  -5   14.12    1.15
  -7   1   5   15.47    0.80
  -7   1   5   14.14    1.18
  -7   1   5   12.70    1.08
   6  -1  -5   41.51    1.43
   6  -1  -5   41.82    1.59
   6  -1  -5   43.48    1.52
   6  -1  -5   41.67    1.27
   6  -1  -5   41.25    1.23
  -6   1   5   41.32    1.10
  -6   1   5   41.33    1.48
  -6   1   5   39.71    1.48
  -6   1   5   42.78    1.04
  -6   1   5   42.98    1.04
   5  -1  -5  134.01    2.58
   5  -1  -5  133.02    2.86
   5  -1  -5  137.95    2.61
   5  -1  -5  133.44    2.77
   5  -1  -5  135.58    2.84
  -5   1   5  135.65    2.44
  -5   1   5  132.48    2.81
  -5   1   5  132.74    2.44
  -5   1   5  133.18    2.42
  -5   1   5  131.83    2.84
   4  -1  -5   44.02    1.33
   4  -1  -5   44.22    1.17
   4  -1  -5   45.72    1.42
   4  -1  -5   44.94    1.27
   4  -1  -5   45.70    1.20
  -4   1   5   45.16    1.04
  -4   1   5   44.92    1.10
  -4   1   5   45.40    1.10
  -4   1   5   44.73    1.33
  -4   1   5   44.54    1.53
   3  -1  -5   46.65    1.17
   3  -1  -5   47.18    1.34
   3  -1  -5   46.97    1.21
   3  -1  -5   46.72    1.16
   3  -1  -5   47.23    1.29
  -3   1   5   47.45    1.29
  -3   1   5   47.26    1.27
  -3   1   5   45.72    1.12
  -3   1   5   47.33    1.13
  -3   1   5   46.62    1.05
   2  -1  -5    1.10    0.35
   2  -1  -5    1.86    0.29
   2  -1  -5    1.83    0.31
   2  -1  -5    2.03    0.35
   2  -1  -5    2.32    0.31
  -2   1   5    2.02    0.30
  -2   1   5    1.81    0.30
  -2   1   5    2.77    0.36
  -2   1   5    2.03    0.34
   1  -1  -5   53.46    1.13
   1  -1  -5   52.51    1.19
   1  -1  -5   51.97    1.18
   1  -1  -5   53.21    1.27
   1  -1  -5   53.11    1.28
  -1   1   5   52.47    1.03
  -1   1   5   51.72    1.18
  -1   1   5   53.36    1.16
  -1   1   5   51.13    1.17
  -1   1   5   52.90    1.27
  -1   1   5   50.57    1.11
   0  -1  -5  264.28    4.23
   0  -1  -5  263.42    4.36
   0  -1  -5  266.28    4.41
   0  -1  -5  269.36    4.36
   0  -1  -5  267.78    4.47
   0   1   5  269.19    4.47
   0   1   5  268.46    4.24
   0   1   5  262.28    4.36
   0   1   5  274.25    4.27
  -1  -1  -5   76.16    1.46
  -1  -1  -5   76.49    1.31
  -1  -1  -5   74.78    1.45
   1   1   5   73.18    1.29
   1   1   5   73.44    1.45
   1   1   5   74.66    1.47
   1   1   5   72.97    1.46
   1   1   5   74.82    1.57
  -2  -1  -5   78.85    1.45
  -2  -1  -5   79.64    1.45
  -2  -1  -5   78.67    1.44
   2   1   5   77.74    1.51
   2   1   5   78.43    1.46
   2   1   5   78.49    1.34
   2   1   5   78.08    1.67
   2   1   5   78.89    1.51
  -3  -1  -5  124.22    2.06
  -3  -1  -5  128.60    2.12
  -3  -1  -5  125.94    2.07
  -3  -1  -5  124.81    2.10
  -3  -1  -5  128.13    2.51
   3   1   5  123.47    2.20
   3   1   5  127.06    2.20
   3   1   5  126.09    2.12
   3   1   5  125.64    2.46
   3   1   5  129.61    2.12
  -4  -1  -5   85.20    1.96
  -4  -1  -5   89.44    1.63
   4   1   5   85.97    1.59
   4   1   5   86.15    1.49
   4   1   5   85.48    1.91
   4   1   5   83.71    1.59
   4   1   5   87.04    1.60
  -5  -1  -5    0.39    0.29
  -5  -1  -5    0.43    0.36
   5   1   5    0.54    0.34
   5   1   5    0.34    0.22
   5   1   5    0.86    0.43
   5   1   5    0.44    0.22
  -6  -1  -5  139.76    3.09
  -6  -1  -5  148.66    2.79
   6   1   5  145.93    3.16
   6   1   5  145.73    3.09
   6   1   5  143.98    2.51
   6   1   5  146.91    2.51
  -7  -1  -5    2.51    0.65
  -7  -1  -5    2.36    0.51
   7   1   5    1.70    0.52
   7   1   5    2.42    0.33
   7   1   5    2.33    0.33
   7   1   5    2.04    0.52
   7   1   5    1.91    0.70
  -8  -1  -5    0.52    0.60
  -8  -1  -5    0.77    0.51
   8   1   5   -0.36    0.53
   8   1   5   -0.06    0.76
   8   1   5    0.51    0.35
   8   1   5    0.27    0.32
   8   1   5   -0.17    0.51
  -9  -1  -5   25.17    1.34
  -9  -1  -5   20.56    1.50
   9   1   5   24.23    0.94
   9   1   5   24.24    1.48
   9   1   5   24.05    0.92
   9   1   5   25.43    1.33
   9   1   5   24.01    1.73
   9   1   5   24.60    1.51
   8  -2  -5    4.24    0.82
   8  -2  -5    4.36    0.65
   8  -2  -5    4.84    0.91
   8  -2  -5    3.60    0.94
   8  -2  -5    4.22    0.79
   8  -2  -5    2.29    0.63
  -8   2   5    2.59    0.73
  -8   2   5    3.06    0.67
   7  -2  -5   75.33    2.31
   7  -2  -5   74.94    1.95
   7  -2  -5   74.06    1.89
   7  -2  -5   71.53    2.17
   7  -2  -5   73.56    1.80
   7  -2  -5   76.25    2.29
  -7   2   5   71.15    2.23
   6  -2  -5    4.80    0.53
   6  -2  -5    5.76    0.61
   6  -2  -5    5.05    0.77
   6  -2  -5    4.78    0.56
   6  -2  -5    4.46    0.62
   6  -2  -5    4.07    0.65
  -6   2   5    3.78    0.64
  -6   2   5    5.12    0.72
  -6   2   5    5.12    0.57
  -6   2   5    5.33    0.56
  -6   2   5    5.46    0.58
   5  -2  -5   81.97    2.11
   5  -2  -5   80.67    1.83
   5  -2  -5   83.14    2.11
   5  -2  -5   85.35    1.88
   5  -2  -5   82.58    2.02
   5  -2  -5   80.04    1.77
  -5   2   5   77.48    2.07
  -5   2   5   81.61    1.69
  -5   2   5   82.84    2.09
  -5   2   5   82.53    1.79
  -5   2   5   83.12    1.71
   4  -2  -5    4.28    0.54
   4  -2  -5    5.35    0.61
   4  -2  -5    4.40    0.56
   4  -2  -5    6.38    0.55
   4  -2  -5    5.23    0.69
  -4   2   5    4.93    0.50
  -4   2   5    5.47    0.70
  -4   2   5    5.76    0.70
  -4   2   5    5.05    0.50
  -4   2   5    4.76    0.54
   3  -2  -5   12.21    0.62
   3  -2  -5   11.39    0.65
   3  -2  -5   11.54    0.74
   3  -2  -5   10.83    0.79
   3  -2  -5   12.37    0.63
  -3   2   5   12.40    0.59
  -3   2   5   11.71    0.60
  -3   2   5   11.30    0.71
  -3   2   5   10.61    0.59
  -3   2   5   12.17    0.74
   2  -2  -5   77.36    1.61
   2  -2  -5   78.11    1.62
   2  -2  -5   76.97    1.72
   2  -2  -5   76.55    1.61
   2  -2  -5   77.75    1.77
  -2   2   5   77.40    1.61
  -2   2   5   76.08    1.58
  -2   2   5   77.43    1.68
  -2   2   5   77.44    1.72
  -2   2   5   77.66    1.59
   1  -2  -5   36.13    1.02
   1  -2  -5   36.47    0.94
   1  -2  -5   35.69    1.06
   1  -2  -5   35.32    0.94
   1  -2  -5   34.19    0.88
  -1   2   5   34.42    0.92
  -1   2   5   35.79    1.02
  -1   2   5   35.31    0.75
  -1   2   5   37.34    0.95
  -1   2   5   34.05    0.93
   0  -2  -5   31.54    0.84
   0  -2  -5   31.19    0.73
   0  -2  -5   31.84    0.93
   0  -2  -5   30.84    0.83
   0  -2  -5   32.05    0.92
   0   2   5   31.02    0.77
   0   2   5   30.24    0.84
   0   2   5   32.44    0.78
   0   2   5   32.14    0.92
   0   2   5   32.50    0.95
   0   2   5   31.03    0.85
  -1  -2  -5    0.24    0.12
  -1  -2  -5   -0.15    0.22
  -1  -2  -5    0.02    0.20
  -1  -2  -5    0.50    0.20
  -1  -2  -5    0.29    0.24
   1   2   5    0.09    0.24
   1   2   5    0.03    0.20
   1   2   5    0.36    0.25
   1   2   5    0.41    0.17
   1   2   5    0.25    0.23
   1   2   5    0.40    0.21
  -2  -2  -5   14.91    0.49
  -2  -2  -5   14.67    0.57
   2   2   5   15.33    0.66
   2   2   5   14.78    0.54
   2   2   5   15.70    0.60
   2   2   5   15.13    0.64
   2   2   5   14.91    0.54
  -3  -2  -5  220.60    3.51
  -3  -2  -5  229.86    3.94
  -3  -2  -5  226.97    3.69
   3   2   5  224.56    3.69
   3   2   5  222.09    3.65
   3   2   5  227.32    3.95
   3   2   5  224.23    3.66
  -4  -2  -5   54.41    1.12
  -4  -2  -5   54.06    1.41
  -4  -2  -5   54.45    1.02
   4   2   5   51.87    1.06
   4   2   5   53.33    1.12
   4   2   5   54.26    1.43
   4   2   5   51.47    1.36
  -5  -2  -5   10.11    0.53
  -5  -2  -5   10.14    0.75
   5   2   5   10.07    0.40
   5   2   5    9.71    0.42
   5   2   5   10.23    0.47
   5   2   5    9.15    0.67
  -6  -2  -5   25.68    0.85
  -6  -2  -5   24.82    1.12
   6   2   5   24.70    1.02
   6   2   5   24.45    1.13
   6   2   5   24.21    0.72
   6   2   5   22.70    0.77
  -7  -2  -5   11.82    0.99
  -7  -2  -5   13.32    0.80
   7   2   5   12.54    0.58
   7   2   5   12.59    0.86
   7   2   5   12.29    1.08
   7   2   5   12.10    0.71
  -8  -2  -5   17.25    1.24
  -8  -2  -5   18.13    0.99
   8   2   5   17.61    1.12
   8   2   5   17.24    0.91
   8   2   5   17.31    1.13
   8   2   5   19.05    1.35
   8   2   5   16.46    0.72
  -9  -2  -5   33.20    1.38
  -9  -2  -5   32.39    1.65
   9   2   5   33.92    1.78
   9   2   5   33.85    1.53
   9   2   5   32.82    1.02
   9   2   5   34.17    1.32
   9   2   5   35.93    1.55
 -10  -2  -5   21.59    1.39
 -10  -2  -5   18.16    1.73
  10   2   5   21.77    1.39
  10   2   5   19.83    1.53
  10   2   5   20.90    1.52
   8  -3  -5   -1.22    1.46
   8  -3  -5   -0.07    0.66
   8  -3  -5   -0.81    0.80
   8  -3  -5   -0.27    0.94
   8  -3  -5    1.37    0.65
  -8   3   5    0.05    0.65
  -8   3   5    0.43    0.79
   7  -3  -5  150.12    3.56
   7  -3  -5  152.95    3.54
   7  -3  -5  149.27    3.21
   7  -3  -5  148.15    3.12
   7  -3  -5  149.51    3.10
   7  -3  -5  148.83    3.41
  -7   3   5  142.74    3.52
  -7   3   5  152.80    3.19
   6  -3  -5    7.28    0.87
   6  -3  -5    5.83    0.67
   6  -3  -5    7.88    0.81
   6  -3  -5    6.84    0.85
   6  -3  -5    6.60    0.71
  -6   3   5    6.57    0.69
  -6   3   5    6.17    0.80
  -6   3   5    6.47    0.73
  -6   3   5    5.21    0.65
   5  -3  -5   21.47    0.97
   5  -3  -5   19.25    1.24
   5  -3  -5   23.15    0.95
   5  -3  -5   21.67    1.01
   5  -3  -5   20.61    1.17
  -5   3   5   20.28    0.84
  -5   3   5   20.66    0.85
  -5   3   5   19.34    1.14
   4  -3  -5    6.61    0.65
   4  -3  -5    5.90    0.34
   4  -3  -5    6.05    0.59
   4  -3  -5    5.54    0.65
   4  -3  -5    6.03    0.65
   4  -3  -5    5.05    0.67
  -4   3   5    5.87    0.76
  -4   3   5    6.14    0.57
  -4   3   5    6.92    0.69
  -4   3   5    6.46    0.80
  -4   3   5    6.05    0.57
   3  -3  -5  100.75    2.57
   3  -3  -5  102.68    2.30
   3  -3  -5  102.29    2.12
   3  -3  -5  107.69    2.16
   3  -3  -5  104.97    1.79
  -3   3   5  106.00    2.31
  -3   3   5  107.63    2.11
  -3   3   5  108.98    2.09
  -3   3   5  102.69    2.28
  -3   3   5  106.90    2.15
   2  -3  -5  189.69    3.47
   2  -3  -5  184.74    3.32
   2  -3  -5  193.21    3.52
   2  -3  -5  188.98    3.34
   2  -3  -5  183.88    3.03
  -2   3   5  186.28    3.31
  -2   3   5  185.93    3.34
  -2   3   5  188.87    3.45
  -2   3   5  188.66    3.41
  -2   3   5  188.30    3.30
   1  -3  -5    0.63    0.30
   1  -3  -5    0.54    0.25
   1  -3  -5    0.68    0.26
   1  -3  -5    0.70    0.29
   1  -3  -5    0.76    0.19
  -1   3   5    0.64    0.29
  -1   3   5    0.95    0.28
  -1   3   5    0.84    0.28
  -1   3   5    0.72    0.32
  -1   3   5    0.97    0.31
  -1   3   5    0.59    0.27
   0  -3  -5    1.65    0.31
   0  -3  -5    1.40    0.27
   0  -3  -5    1.35    0.34
   0  -3  -5    1.10    0.25
   0  -3  -5    1.37    0.24
   0   3   5    1.16    0.25
   0   3   5    1.38    0.28
   0   3   5    1.30    0.27
   0   3   5    1.30    0.29
   0   3   5    0.93    0.26
   0   3   5    1.20    0.35
  -1  -3  -5    1.22    0.25
  -1  -3  -5    1.16    0.30
  -1  -3  -5    0.86    0.23
  -1  -3  -5    0.89    0.25
  -1  -3  -5    1.25    0.28
   1   3   5    1.20    0.26
   1   3   5    1.05    0.22
   1   3   5    1.54    0.29
   1   3   5    0.94    0.30
   1   3   5    1.30    0.28
   1   3   5    0.89    0.24
  -2  -3  -5   85.05    1.57
  -2  -3  -5   85.97    1.76
  -2  -3  -5   87.36    1.73
  -2  -3  -5   87.07    1.60
   2   3   5   85.60    1.63
   2   3   5   85.75    1.68
   2   3   5   85.58    1.74
   2   3   5   86.87    1.65
   2   3   5   84.46    1.74
  -3  -3  -5  210.28    3.53
  -3  -3  -5  205.82    3.30
  -3  -3  -5  211.41    3.67
   3   3   5  206.41    3.42
   3   3   5  208.40    3.50
   3   3   5  207.14    3.41
   3   3   5  204.94    3.65
   3   3   5  207.11    3.53
  -4  -3  -5  184.68    3.14
   4   3   5  181.83    3.15
   4   3   5  185.04    3.37
   4   3   5  178.64    2.99
   4   3   5  180.28    2.98
  -5  -3  -5    0.37    0.23
  -5  -3  -5    0.18    0.32
  -5  -3  -5    0.02    0.21
   5   3   5    0.12    0.15
   5   3   5    0.47    0.37
   5   3   5    0.26    0.17
   5   3   5    0.33    0.22
   5   3   5    0.19    0.16
   5   3   5    0.01    0.27
  -6  -3  -5    0.25    0.37
  -6  -3  -5    0.48    0.29
   6   3   5    0.40    0.21
   6   3   5    0.41    0.24
   6   3   5    0.18    0.34
   6   3   5   -0.03    0.41
  -7  -3  -5   38.17    1.44
  -7  -3  -5   39.53    1.12
   7   3   5   41.32    1.24
   7   3   5   41.16    1.09
   7   3   5   39.35    1.31
   7   3   5   39.45    1.48
   7   3   5   39.82    1.05
  -8  -3  -5   93.80    2.48
  -8  -3  -5   94.96    2.06
   8   3   5   94.69    2.00
   8   3   5   92.75    1.96
   8   3   5   94.46    2.46
   8   3   5   95.00    2.27
   8   3   5   94.02    2.20
  -9  -3  -5    8.56    0.98
  -9  -3  -5    6.20    0.82
   9   3   5    7.59    0.99
   9   3   5    8.54    0.84
   9   3   5    7.80    0.75
   9   3   5   11.53    1.32
   9   3   5    9.55    1.02
 -10  -3  -5   34.90    1.49
 -10  -3  -5   32.65    1.75
  10   3   5   31.68    1.56
  10   3   5   34.70    1.88
  10   3   5   33.52    1.37
  10   3   5   32.05    1.20
  10   3   5   36.05    1.61
   7  -4  -5   63.86    2.05
   7  -4  -5   62.01    1.98
   7  -4  -5   58.04    2.30
   7  -4  -5   63.94    1.95
   7  -4  -5   56.87    2.22
  -7   4   5   62.93    1.85
  -7   4   5   63.58    2.16
   6  -4  -5    1.48    0.56
   6  -4  -5    2.94    0.76
   6  -4  -5    1.86    0.70
   6  -4  -5    1.66    0.59
   6  -4  -5    2.72    0.69
  -6   4   5    2.29    0.51
  -6   4   5    1.75    0.63
  -6   4   5    2.03    0.45
  -6   4   5    2.31    0.70
   5  -4  -5   42.74    1.63
   5  -4  -5   41.49    1.63
   5  -4  -5   40.43    1.42
   5  -4  -5   41.11    1.43
   5  -4  -5   39.46    1.35
  -5   4   5   38.41    1.56
  -5   4   5   42.14    1.51
  -5   4   5   40.93    1.23
  -5   4   5   42.16    1.26
   4  -4  -5   31.27    1.32
   4  -4  -5   30.98    1.12
   4  -4  -5   30.76    1.17
   4  -4  -5   32.21    1.34
   4  -4  -5   31.60    1.18
  -4   4   5   33.98    1.25
  -4   4   5   29.65    1.06
  -4   4   5   31.76    1.06
  -4   4   5   31.17    1.35
  -4   4   5   31.90    1.32
   3  -4  -5   29.94    0.81
   3  -4  -5   30.52    1.08
   3  -4  -5   29.59    1.08
   3  -4  -5   28.57    1.02
   3  -4  -5   31.16    1.24
   3  -4  -5   30.53    1.21
  -3   4   5   28.42    1.17
  -3   4   5   29.62    0.99
  -3   4   5   29.54    1.01
  -3   4   5   29.32    1.21
   2  -4  -5  129.46    2.91
   2  -4  -5  143.89    2.81
   2  -4  -5  141.40    2.71
   2  -4  -5  131.30    2.99
   2  -4  -5  140.85    2.67
   2  -4  -5  138.23    2.44
  -2   4   5  124.62    3.51
  -2   4   5  140.71    2.65
  -2   4   5  144.23    2.74
  -2   4   5  144.94    2.66
  -2   4   5  140.32    2.77
  -2   4   5  141.70    2.84
   1  -4  -5   31.71    0.97
   1  -4  -5   33.28    1.11
   1  -4  -5   31.47    1.02
   1  -4  -5   33.39    0.98
   1  -4  -5   32.35    0.84
  -1   4   5   31.68    1.12
  -1   4   5   32.67    1.01
  -1   4   5   33.11    1.04
  -1   4   5   32.45    1.04
  -1   4   5   32.33    0.97
  -1   4   5   33.64    0.98
   0  -4  -5    7.47    0.65
   0  -4  -5    7.43    0.54
   0  -4  -5    6.50    0.49
   0  -4  -5    7.24    0.46
   0  -4  -5    7.97    0.50
   0   4   5    6.21    0.58
   0   4   5    6.98    0.66
   0   4   5    6.91    0.55
   0   4   5    6.95    0.52
   0   4   5    6.76    0.49
   0   4   5    7.71    0.54
  -1  -4  -5  106.59    2.04
  -1  -4  -5  105.55    2.05
  -1  -4  -5  107.01    2.06
  -1  -4  -5  109.15    2.05
  -1  -4  -5  108.83    2.18
   1   4   5  108.46    2.05
   1   4   5  107.38    2.07
   1   4   5  107.72    2.20
   1   4   5  108.74    2.08
   1   4   5  112.69    1.98
   1   4   5  107.79    2.18
   1   4   5  111.16    2.10
  -2  -4  -5  113.04    2.26
  -2  -4  -5  116.23    2.10
  -2  -4  -5  115.67    2.12
  -2  -4  -5  112.23    2.11
  -2  -4  -5  117.71    1.96
  -2  -4  -5  116.19    2.24
   2   4   5  119.19    1.99
   2   4   5  115.98    2.25
   2   4   5  119.12    2.30
   2   4   5  117.39    2.12
   2   4   5  117.53    2.16
   2   4   5  116.29    2.14
  -3  -4  -5  331.72    5.50
  -3  -4  -5  326.92    5.27
  -3  -4  -5  332.34    5.56
  -3  -4  -5  328.16    5.25
   3   4   5  330.64    5.34
   3   4   5  335.55    5.52
   3   4   5  335.18    5.33
   3   4   5  344.95    5.14
   3   4   5  332.13    5.36
   3   4   5  336.70    5.57
  -4  -4  -5    8.99    0.58
  -4  -4  -5    9.48    0.66
  -4  -4  -5    9.63    0.63
   4   4   5    9.75    0.47
   4   4   5    8.35    0.67
   4   4   5    9.18    0.49
   4   4   5    9.58    0.44
   4   4   5    9.48    0.58
  -5  -4  -5    0.56    0.32
  -5  -4  -5    0.64    0.34
   5   4   5    0.61    0.16
   5   4   5    0.58    0.18
   5   4   5    1.42    0.44
   5   4   5    0.87    0.29
   5   4   5    1.10    0.22
  -6  -4  -5    0.54    0.36
  -6  -4  -5    0.44    0.30
  -6  -4  -5    0.62    0.28
  -6  -4  -5    1.23    0.41
   6   4   5    0.79    0.22
   6   4   5    0.36    0.30
   6   4   5    0.46    0.42
  -7  -4  -5   61.83    1.40
  -7  -4  -5   61.04    1.75
   7   4   5   63.92    1.48
   7   4   5   61.02    1.33
   7   4   5   60.08    1.62
   7   4   5   60.43    1.78
   7   4   5   62.30    1.51
  -8  -4  -5  155.08    3.54
  -8  -4  -5  158.43    3.40
   8   4   5  159.98    3.04
   8   4   5  154.92    3.18
   8   4   5  157.19    3.39
   8   4   5  157.97    3.01
   8   4   5  156.71    2.88
  -9  -4  -5    2.62    0.67
  -9  -4  -5    2.43    0.57
   9   4   5    2.52    0.52
   9   4   5    2.41    0.47
   9   4   5    2.19    0.48
   9   4   5    3.38    0.61
   9   4   5    3.23    0.82
 -10  -4  -5   11.66    1.15
 -10  -4  -5   10.31    1.27
  10   4   5   14.82    1.13
  10   4   5   12.08    1.01
  10   4   5   12.81    1.49
  10   4   5   12.57    1.15
  10   4   5   11.73    1.35
  11   4   5    0.69    0.75
  11   4   5    0.69    0.76
   6  -5  -5    1.23    0.72
   6  -5  -5    0.75    0.64
   6  -5  -5    0.13    0.74
   6  -5  -5   -1.40    0.79
  -6   5   5   -0.25    0.56
  -6   5   5   -0.42    0.60
  -6   5   5    0.15    0.53
   5  -5  -5   11.43    1.00
   5  -5  -5   11.68    1.14
   5  -5  -5    9.85    1.24
   5  -5  -5   11.28    1.25
   5  -5  -5   10.27    1.09
  -5   5   5   14.88    1.30
  -5   5   5   10.07    0.94
  -5   5   5   12.22    1.15
  -5   5   5   11.34    1.32
  -5   5   5   11.16    0.89
   4  -5  -5   36.61    1.54
   4  -5  -5   36.41    1.38
   4  -5  -5   37.35    1.33
   4  -5  -5   38.57    1.42
   4  -5  -5   34.36    1.53
  -4   5   5   36.35    1.47
  -4   5   5   37.39    1.26
  -4   5   5   36.53    1.23
  -4   5   5   36.67    1.58
  -4   5   5   35.40    1.49
   3  -5  -5    0.55    0.46
   3  -5  -5    1.24    0.49
   3  -5  -5    0.39    0.45
   3  -5  -5    0.77    0.50
   3  -5  -5    0.36    0.40
  -3   5   5    0.99    0.42
  -3   5   5    1.28    0.41
  -3   5   5    1.28    0.47
  -3   5   5    0.62    0.51
  -3   5   5    0.86    0.51
   2  -5  -5   49.30    1.50
   2  -5  -5   46.83    1.45
   2  -5  -5   45.99    1.19
   2  -5  -5   45.80    1.41
   2  -5  -5   48.33    1.37
  -2   5   5   46.92    1.52
  -2   5   5   47.36    1.45
  -2   5   5   43.96    1.44
  -2   5   5   48.04    1.32
  -2   5   5   48.78    1.46
  -2   5   5   47.47    1.31
   1  -5  -5   11.51    0.70
   1  -5  -5   11.73    0.74
   1  -5  -5   12.63    0.85
   1  -5  -5   13.18    0.71
   1  -5  -5   13.09    0.63
  -1   5   5   12.59    0.69
  -1   5   5   11.31    0.85
  -1   5   5   12.73    0.71
  -1   5   5   11.24    0.76
  -1   5   5   12.01    0.76
  -1   5   5   11.15    0.82
   0  -5  -5   25.05    0.99
   0  -5  -5   23.39    0.87
   0  -5  -5   23.89    0.81
   0  -5  -5   22.96    0.86
   0  -5  -5   24.32    0.86
   0   5   5   24.69    0.88
   0   5   5   24.90    0.98
   0   5   5   24.68    0.87
   0   5   5   24.12    0.88
   0   5   5   24.86    1.04
   0   5   5   24.29    0.86
  -1  -5  -5  190.37    3.37
  -1  -5  -5  189.96    3.29
  -1  -5  -5  191.09    3.38
  -1  -5  -5  194.05    3.36
  -1  -5  -5  191.61    3.41
  -1  -5  -5  191.39    3.53
   1   5   5  191.80    3.35
   1   5   5  192.51    3.56
   1   5   5  193.16    3.35
   1   5   5  194.43    3.42
   1   5   5  194.32    3.54
   1   5   5  192.70    3.41
  -2  -5  -5   41.21    0.96
  -2  -5  -5   38.93    0.99
  -2  -5  -5   40.15    1.03
  -2  -5  -5   41.26    1.04
  -2  -5  -5   41.47    1.21
  -2  -5  -5   39.71    1.13
   2   5   5   42.21    1.09
   2   5   5   42.39    1.18
   2   5   5   41.62    1.22
   2   5   5   40.78    0.99
   2   5   5   42.54    1.01
   2   5   5   39.55    1.05
   2   5   5   41.75    1.23
  -3  -5  -5  199.13    3.32
  -3  -5  -5  198.42    3.24
  -3  -5  -5  198.56    3.34
  -3  -5  -5  196.03    3.29
  -3  -5  -5  196.74    3.58
  -3  -5  -5  196.12    3.58
   3   5   5  196.63    3.59
   3   5   5  198.26    3.28
   3   5   5  195.93    3.39
   3   5   5  198.30    3.60
   3   5   5  202.71    3.43
  -4  -5  -5    3.43    0.40
  -4  -5  -5    3.27    0.31
  -4  -5  -5    2.93    0.44
  -4  -5  -5    2.96    0.32
  -4  -5  -5    2.75    0.30
  -4  -5  -5    3.28    0.43
   4   5   5    3.23    0.47
   4   5   5    3.12    0.37
   4   5   5    2.92    0.30
   4   5   5    2.92    0.37
   4   5   5    2.46    0.38
   4   5   5    3.61    0.42
  -5  -5  -5    1.00    0.38
  -5  -5  -5    1.28    0.36
  -5  -5  -5    1.14    0.33
  -5  -5  -5    1.58    0.21
   5   5   5    1.41    0.25
   5   5   5    0.83    0.42
   5   5   5    1.31    0.35
   5   5   5    1.20    0.25
   5   5   5    1.49    0.21
   5   5   5    1.40    0.27
  -6  -5  -5   24.22    0.98
  -6  -5  -5   24.25    0.97
  -6  -5  -5   23.48    1.07
   6   5   5   22.60    0.65
   6   5   5   23.96    0.66
   6   5   5   24.32    1.11
   6   5   5   24.13    0.96
   6   5   5   23.17    0.68
  -7  -5  -5   19.73    1.10
  -7  -5  -5   21.77    1.03
   7   5   5   20.32    0.94
   7   5   5   21.37    0.74
   7   5   5   21.05    1.18
   7   5   5   20.68    0.72
  -8  -5  -5  105.83    2.50
  -8  -5  -5  102.50    2.17
   8   5   5  106.29    2.61
   8   5   5  100.05    2.05
   8   5   5  102.01    2.29
   8   5   5  105.15    2.35
   8   5   5  103.54    2.09
  -9  -5  -5    6.52    0.66
  -9  -5  -5    6.94    0.98
   9   5   5    6.66    0.94
   9   5   5    5.93    0.71
   9   5   5    6.50    0.72
   9   5   5    5.63    0.59
 -10  -5  -5    4.06    0.70
 -10  -5  -5    2.35    0.70
  10   5   5    2.49    0.59
  10   5   5    2.83    0.92
  10   5   5    2.52    0.65
  10   5   5    3.53    0.57
  10   5   5    4.10    0.66
 -11  -5  -5    0.34    0.69
 -11  -5  -5    1.23    0.73
  11   5   5    0.34    0.66
  11   5   5    0.08    0.60
  11   5   5    1.39    0.69
  11   5   5    0.23    0.70
   5  -6  -5   -0.45    0.75
   5  -6  -5    0.59    0.65
   5  -6  -5    0.02    0.70
   5  -6  -5   -1.06    0.76
  -5   6   5    0.08    0.57
  -5   6   5    0.57    0.61
  -5   6   5   -0.01    0.77
  -5   6   5   -0.96    0.60
   4  -6  -5   41.00    1.52
   4  -6  -5   41.16    1.60
   4  -6  -5   41.15    1.74
   4  -6  -5   40.82    1.72
   4  -6  -5   41.82    1.66
  -4   6   5   34.69    1.60
  -4   6   5   41.40    1.45
  -4   6   5   42.13    1.44
  -4   6   5   43.52    1.81
   3  -6  -5    1.65    0.60
   3  -6  -5    1.38    0.49
   3  -6  -5    0.97    0.62
   3  -6  -5    1.73    0.61
   3  -6  -5    1.60    0.58
  -3   6   5    0.58    0.61
  -3   6   5    1.37    0.54
  -3   6   5    0.63    0.47
  -3   6   5    1.73    0.52
  -3   6   5    1.74    0.64
   2  -6  -5    7.39    0.87
   2  -6  -5    6.22    0.84
   2  -6  -5    5.28    0.60
   2  -6  -5    6.09    0.70
   2  -6  -5    7.13    0.84
  -2   6   5    5.81    0.73
  -2   6   5    4.91    0.69
  -2   6   5    5.13    0.68
  -2   6   5    4.17    0.60
  -2   6   5    5.48    0.61
  -2   6   5    5.76    0.70
   1  -6  -5   71.89    1.77
   1  -6  -5   73.29    1.89
   1  -6  -5   68.88    1.67
   1  -6  -5   69.30    1.79
   1  -6  -5   69.87    1.88
   1  -6  -5   68.80    1.74
  -1   6   5   70.96    1.93
  -1   6   5   69.51    1.88
  -1   6   5   71.32    1.82
  -1   6   5   69.12    1.83
  -1   6   5   69.75    1.73
   0  -6  -5    4.17    0.48
   0  -6  -5    3.91    0.77
   0  -6  -5    4.12    0.47
   0  -6  -5    4.14    0.50
   0  -6  -5    4.87    0.58
   0  -6  -5    4.37    0.58
   0   6   5    4.17    0.49
   0   6   5    4.34    0.50
   0   6   5    5.11    0.61
   0   6   5    4.89    0.65
   0   6   5    4.17    0.53
   0   6   5    4.17    0.49
  -1  -6  -5  144.21    2.71
  -1  -6  -5  143.05    2.71
  -1  -6  -5  145.98    2.93
  -1  -6  -5  141.82    2.79
  -1  -6  -5  144.93    2.77
  -1  -6  -5  147.93    2.78
   1   6   5  142.10    2.77
   1   6   5  147.59    2.96
   1   6   5  145.77    2.80
   1   6   5  147.90    2.94
   1   6   5  146.54    2.71
   1   6   5  145.10    2.78
  -2  -6  -5   46.62    1.20
  -2  -6  -5   45.82    1.30
  -2  -6  -5   45.03    1.14
  -2  -6  -5   45.73    1.20
  -2  -6  -5   45.67    1.39
  -2  -6  -5   46.44    1.12
   2   6   5   47.13    1.12
   2   6   5   44.27    1.40
   2   6   5   46.32    1.22
   2   6   5   47.12    1.39
   2   6   5   44.56    1.39
  -3  -6  -5   36.57    0.90
  -3  -6  -5   35.89    0.98
  -3  -6  -5   38.33    0.97
  -3  -6  -5   38.04    1.19
  -3  -6  -5   37.05    1.00
  -3  -6  -5   34.94    1.39
   3   6   5   33.13    1.49
   3   6   5   37.53    1.22
   3   6   5   36.74    1.06
   3   6   5   37.36    1.04
   3   6   5   36.19    0.87
  -4  -6  -5   -0.40    0.28
  -4  -6  -5   -0.68    0.31
  -4  -6  -5   -0.08    0.22
  -4  -6  -5    0.19    0.23
  -4  -6  -5   -0.10    0.33
  -4  -6  -5    0.16    0.23
   4   6   5   -0.09    0.24
   4   6   5    1.12    0.40
   4   6   5    0.17    0.41
   4   6   5   -0.15    0.18
   4   6   5   -0.24    0.35
   4   6   5    0.12    0.28
  -5  -6  -5    2.38    0.37
  -5  -6  -5    2.10    0.23
  -5  -6  -5    2.33    0.30
  -5  -6  -5    2.37    0.49
  -5  -6  -5    1.26    0.39
   5   6   5    2.24    0.29
   5   6   5    2.26    0.33
   5   6   5    2.08    0.43
   5   6   5    2.34    0.51
   5   6   5    2.45    0.36
  -6  -6  -5   63.29    1.37
  -6  -6  -5   66.68    1.59
  -6  -6  -5   64.85    1.71
   6   6   5   65.52    1.71
   6   6   5   63.20    1.37
   6   6   5   64.08    1.39
   6   6   5   69.17    1.85
   6   6   5   63.39    1.20
   6   6   5   63.49    1.17
   6   6   5   64.59    1.34
  -7  -6  -5   -0.01    0.40
  -7  -6  -5   -0.69    0.40
  -7  -6  -5    0.43    0.29
  -7  -6  -5   -0.08    0.41
   7   6   5   -0.23    0.38
   7   6   5   -0.19    0.23
   7   6   5   -0.02    0.24
   7   6   5   -0.29    0.26
   7   6   5   -0.16    0.20
   7   6   5   -0.03    0.27
   7   6   5   -0.01    0.55
  -8  -6  -5    6.42    0.81
  -8  -6  -5    6.93    0.88
   8   6   5    7.38    0.52
   8   6   5    7.72    0.49
   8   6   5    7.64    0.83
   8   6   5    7.17    0.87
   8   6   5    6.86    0.64
   8   6   5    7.83    0.54
  -9  -6  -5    9.92    1.18
  -9  -6  -5   10.60    1.04
   9   6   5   10.89    0.78
   9   6   5   11.92    1.04
   9   6   5   10.25    0.70
   9   6   5    9.51    1.38
   9   6   5   11.48    1.36
 -10  -6  -5    1.93    0.67
  10   6   5    1.73    0.60
  10   6   5    1.88    0.63
  10   6   5    2.02    0.97
  10   6   5    2.64    0.53
  10   6   5    1.84    0.49
 -11  -6  -5   10.29    1.24
 -11  -6  -5   10.48    1.36
  11   6   5   13.61    1.10
  11   6   5   14.40    1.14
  11   6   5   12.03    1.39
  11   6   5   11.98    1.26
   4  -7  -5   22.17    1.60
   4  -7  -5   20.65    1.62
   4  -7  -5   21.75    1.55
   4  -7  -5   21.13    1.35
  -4   7   5   19.78    1.43
  -4   7   5   22.05    1.28
   3  -7  -5    4.39    0.79
   3  -7  -5    2.87    0.70
   3  -7  -5    4.29    0.70
   3  -7  -5    4.97    0.82
   3  -7  -5    4.23    0.77
  -3   7   5    4.70    0.69
  -3   7   5    4.46    0.85
  -3   7   5    4.33    0.88
  -3   7   5    3.41    0.75
   2  -7  -5    1.20    0.63
   2  -7  -5    1.25    0.60
   2  -7  -5    1.03    0.57
   2  -7  -5    1.04    0.52
   2  -7  -5    1.29    0.56
  -2   7   5    0.37    0.51
  -2   7   5   -0.49    0.59
  -2   7   5    0.48    0.59
  -2   7   5    1.10    0.53
  -2   7   5    0.87    0.52
   1  -7  -5   83.33    2.20
   1  -7  -5   84.34    2.09
   1  -7  -5   84.54    2.03
   1  -7  -5   88.63    2.17
   1  -7  -5   85.96    2.15
   1  -7  -5   88.54    2.27
  -1   7   5   84.19    2.08
  -1   7   5   84.92    2.28
  -1   7   5   82.99    2.20
  -1   7   5   85.02    2.08
  -1   7   5   83.13    2.15
  -1   7   5   90.06    2.33
   0  -7  -5   63.35    1.68
   0  -7  -5   63.02    1.81
   0  -7  -5   63.39    1.67
   0  -7  -5   61.77    1.67
   0  -7  -5   61.81    1.67
   0  -7  -5   61.79    1.69
   0  -7  -5   63.13    1.84
   0   7   5   62.01    1.85
   0   7   5   62.51    1.85
   0   7   5   62.14    1.66
   0   7   5   61.88    1.74
   0   7   5   62.06    1.67
   0   7   5   61.58    1.68
  -1  -7  -5   86.12    1.91
  -1  -7  -5   85.74    1.99
  -1  -7  -5   89.43    1.99
  -1  -7  -5   84.40    2.05
  -1  -7  -5   88.85    2.16
  -1  -7  -5   85.49    2.02
   1   7   5   88.03    2.04
   1   7   5   78.17    2.36
   1   7   5   87.52    2.17
   1   7   5   90.49    1.93
   1   7   5   87.53    2.00
   1   7   5   87.92    2.02
  -2  -7  -5   21.33    0.92
  -2  -7  -5   20.47    0.79
  -2  -7  -5   22.09    1.08
  -2  -7  -5   21.98    0.91
  -2  -7  -5   19.80    0.96
  -2  -7  -5   21.37    0.89
   2   7   5   21.28    1.28
   2   7   5   21.36    1.10
   2   7   5   21.72    0.91
   2   7   5   21.98    0.79
   2   7   5   21.51    0.96
  -3  -7  -5   14.90    0.89
  -3  -7  -5   16.50    0.78
  -3  -7  -5   15.81    0.78
  -3  -7  -5   15.92    0.75
  -3  -7  -5   16.99    0.97
  -3  -7  -5   16.64    0.64
   3   7   5   14.79    0.96
   3   7   5   16.36    0.79
   3   7   5   15.72    0.61
   3   7   5   17.30    0.85
   3   7   5   16.43    0.98
   3   7   5   17.01    0.79
  -4  -7  -5   78.91    1.69
  -4  -7  -5   78.62    1.65
  -4  -7  -5   81.00    1.56
  -4  -7  -5   78.22    1.44
  -4  -7  -5   77.45    1.66
  -4  -7  -5   78.06    1.96
  -4  -7  -5   78.77    1.98
   4   7   5   73.62    2.21
   4   7   5   74.18    1.86
   4   7   5   81.76    1.98
   4   7   5   77.06    1.40
   4   7   5   76.45    1.73
  -5  -7  -5   -0.25    0.43
  -5  -7  -5    0.15    0.26
  -5  -7  -5   -0.17    0.38
  -5  -7  -5   -0.14    0.30
  -5  -7  -5   -0.14    0.33
  -5  -7  -5   -0.40    0.24
   5   7   5    0.25    0.30
   5   7   5   -0.17    0.33
   5   7   5   -0.15    0.28
   5   7   5   -0.24    0.40
  -6  -7  -5   59.33    1.39
  -6  -7  -5   60.48    1.46
  -6  -7  -5   61.05    1.77
  -6  -7  -5   60.40    1.76
   6   7   5   58.97    1.40
   6   7   5   62.49    1.76
   6   7   5   60.83    1.70
   6   7   5   59.20    1.37
   6   7   5   61.32    1.87
   6   7   5   60.10    1.44
  -7  -7  -5    5.77    0.72
  -7  -7  -5    6.91    0.64
  -7  -7  -5    7.56    0.96
  -7  -7  -5    6.38    0.77
   7   7   5    5.56    0.81
   7   7   5    7.23    0.88
   7   7   5    4.97    0.56
   7   7   5    5.01    0.60
   7   7   5    5.94    0.60
  -8  -7  -5    5.62    0.72
  -8  -7  -5    5.23    0.76
  -8  -7  -5    5.84    0.65
  -8  -7  -5    5.19    0.74
   8   7   5    5.70    0.55
   8   7   5    6.36    0.89
   8   7   5    6.04    0.70
   8   7   5    5.17    0.60
   8   7   5    5.43    0.67
  -9  -7  -5   46.55    1.83
  -9  -7  -5   42.95    1.58
   9   7   5   43.27    1.31
   9   7   5   43.08    1.11
   9   7   5   43.26    1.14
   9   7   5   47.76    1.91
   9   7   5   47.64    1.65
 -10  -7  -5   -0.29    0.61
 -10  -7  -5   -0.85    0.70
  10   7   5    0.93    0.49
  10   7   5    0.36    0.59
  10   7   5   -0.46    0.89
  10   7   5    0.00    0.37
  10   7   5   -0.28    0.64
 -11  -7  -5   52.72    2.01
  11   7   5   53.96    1.69
  11   7   5   53.98    1.84
  11   7   5   49.92    2.01
   3  -8  -5    2.42    0.74
   3  -8  -5    2.07    0.84
   3  -8  -5    1.75    0.87
   3  -8  -5    3.67    0.85
  -3   8   5    2.16    0.75
   2  -8  -5    0.30    0.74
   2  -8  -5   -0.53    0.62
   2  -8  -5    0.48    0.64
   2  -8  -5    0.13    0.57
  -2   8   5   -0.49    0.54
  -2   8   5    0.67    0.66
  -2   8   5   -0.44    0.65
  -2   8   5    1.05    0.61
   1  -8  -5   87.28    2.19
   1  -8  -5   83.77    2.37
   1  -8  -5   86.71    2.40
   1  -8  -5   82.43    2.19
   1  -8  -5   86.67    2.28
  -1   8   5   86.18    2.41
  -1   8   5   71.78    2.36
  -1   8   5   81.17    2.30
  -1   8   5   84.68    2.18
   0  -8  -5   51.04    1.62
   0  -8  -5   49.61    1.56
   0  -8  -5   46.38    1.71
   0  -8  -5   50.03    1.79
   0  -8  -5   49.81    1.62
   0  -8  -5   49.85    1.66
   0   8   5   48.66    1.58
   0   8   5   48.75    1.78
   0   8   5   52.25    1.64
   0   8   5   51.08    1.70
  -1  -8  -5   26.69    1.34
  -1  -8  -5   27.98    1.11
  -1  -8  -5   27.50    1.17
  -1  -8  -5   25.79    1.16
  -1  -8  -5   28.21    1.26
  -1  -8  -5   27.25    1.20
   1   8   5   27.06    1.10
   1   8   5   27.59    1.36
   1   8   5   29.40    1.19
   1   8   5   27.56    1.23
  -2  -8  -5    0.82    0.48
  -2  -8  -5    1.22    0.39
  -2  -8  -5    1.24    0.58
  -2  -8  -5    0.77    0.44
  -2  -8  -5    1.54    0.52
  -2  -8  -5    1.22    0.48
   2   8   5    1.35    0.51
   2   8   5    0.91    0.53
   2   8   5    1.38    0.38
   2   8   5    1.73    0.62
   2   8   5    0.80    0.43
   2   8   5    1.00    0.45
  -3  -8  -5   40.95    1.29
  -3  -8  -5   43.53    1.48
  -3  -8  -5   37.99    1.08
  -3  -8  -5   42.87    1.57
  -3  -8  -5   42.17    1.35
  -3  -8  -5   40.78    1.31
   3   8   5   40.54    1.34
   3   8   5   41.80    1.33
   3   8   5   42.38    1.55
   3   8   5   42.07    1.57
   3   8   5   41.30    1.39
  -4  -8  -5  156.59    2.96
  -4  -8  -5  159.49    3.03
  -4  -8  -5  158.32    3.33
  -4  -8  -5  154.09    2.66
  -4  -8  -5  151.55    3.27
  -4  -8  -5  160.82    2.99
   4   8   5  155.35    3.06
   4   8   5  158.72    3.31
   4   8   5  157.01    3.32
   4   8   5  159.16    3.10
  -5  -8  -5    6.80    0.78
  -5  -8  -5    7.83    0.93
  -5  -8  -5    9.37    0.66
  -5  -8  -5    8.53    0.63
  -5  -8  -5    7.06    0.64
  -5  -8  -5    9.54    1.01
   5   8   5    8.31    1.01
   5   8   5    8.06    0.96
   5   8   5    8.44    0.75
   5   8   5    8.31    0.82
   5   8   5    9.80    0.75
  -6  -8  -5   35.59    0.95
  -6  -8  -5   35.96    1.17
  -6  -8  -5   35.86    1.06
  -6  -8  -5   35.46    0.94
  -6  -8  -5   36.80    1.49
  -6  -8  -5   35.44    1.43
   6   8   5   36.12    1.14
   6   8   5   36.56    1.47
   6   8   5   34.44    1.22
   6   8   5   35.31    1.44
   6   8   5   35.52    1.19
  -7  -8  -5    2.22    0.45
  -7  -8  -5    1.76    0.63
  -7  -8  -5    2.29    0.54
  -7  -8  -5    2.12    0.63
   7   8   5    1.75    0.50
   7   8   5    1.96    0.43
   7   8   5    2.53    0.65
   7   8   5    0.65    0.52
   7   8   5    1.77    0.42
  -8  -8  -5   14.76    0.95
  -8  -8  -5   12.75    1.23
  -8  -8  -5   14.00    1.92
  -8  -8  -5   16.21    1.02
   8   8   5   15.58    1.18
   8   8   5   15.19    1.40
   8   8   5   13.86    0.78
   8   8   5   14.90    1.20
   8   8   5   14.87    0.87
   8   8   5   13.71    0.88
  -9  -8  -5   78.06    2.08
  -9  -8  -5   74.81    1.98
  -9  -8  -5   78.36    2.40
   9   8   5   77.39    1.86
   9   8   5   77.52    1.74
   9   8   5   81.62    2.19
   9   8   5   79.06    2.32
   9   8   5   77.10    1.76
   9   8   5   77.13    2.51
 -10  -8  -5    1.05    0.69
 -10  -8  -5    1.12    0.84
  10   8   5    1.32    0.49
  10   8   5    1.88    0.46
  10   8   5    1.97    0.76
  10   8   5    2.59    0.60
 -11  -8  -5   31.40    1.94
  11   8   5   30.99    1.31
  11   8   5   25.74    1.52
  11   8   5   26.96    1.74
  11   8   5   27.44    1.38
   2  -9  -5   17.00    1.39
   2  -9  -5   14.16    1.61
  -2   9   5   17.29    1.45
  -2   9   5   17.09    1.40
  -2   9   5   19.13    1.71
   1  -9  -5   20.14    1.59
   1  -9  -5   20.94    1.34
   1  -9  -5   18.31    1.52
   1  -9  -5   20.29    1.38
   1  -9  -5   20.99    1.47
  -1   9   5   20.66    1.59
  -1   9   5   19.98    1.38
  -1   9   5   17.75    1.30
   0  -9  -5   16.25    1.45
   0  -9  -5   12.96    1.22
   0  -9  -5   13.57    1.17
   0  -9  -5   15.30    1.36
   0  -9  -5   11.61    1.34
   0  -9  -5   14.33    1.14
   0   9   5   12.53    1.33
   0   9   5   16.21    1.24
   0   9   5   13.71    1.14
  -1  -9  -5    0.41    0.54
  -1  -9  -5   -1.03    0.64
  -1  -9  -5    0.85    0.63
  -1  -9  -5   -0.34    0.77
  -1  -9  -5    0.58    0.86
  -1  -9  -5   -0.08    0.55
   1   9   5   -0.28    0.50
   1   9   5    0.81    0.63
   1   9   5   -0.26    0.49
  -2  -9  -5   50.71    1.71
  -2  -9  -5   52.92    1.64
  -2  -9  -5   50.46    1.45
  -2  -9  -5   50.77    1.87
  -2  -9  -5   53.24    1.76
   2   9   5   51.81    1.86
   2   9   5   50.53    1.63
   2   9   5   49.48    1.68
  -3  -9  -5   -0.40    0.47
  -3  -9  -5    1.06    0.50
  -3  -9  -5    0.85    0.55
  -3  -9  -5    0.74    0.56
  -3  -9  -5    0.05    0.35
  -3  -9  -5    0.95    0.64
   3   9   5    0.46    0.44
   3   9   5   -0.21    0.66
   3   9   5    0.22    0.49
   3   9   5    0.49    0.57
   3   9   5    0.45    0.56
  -4  -9  -5   29.64    1.14
  -4  -9  -5   24.47    1.44
  -4  -9  -5   30.72    1.29
  -4  -9  -5   28.80    1.18
  -4  -9  -5   29.80    0.84
  -4  -9  -5   27.63    1.38
   4   9   5   27.84    1.20
   4   9   5   27.36    1.27
   4   9   5   28.89    1.43
   4   9   5   30.49    1.50
  -5  -9  -5    0.92    0.41
  -5  -9  -5    1.38    0.53
  -5  -9  -5    1.01    0.46
  -5  -9  -5    0.68    0.61
   5   9   5    1.35    0.50
   5   9   5    1.38    0.58
   5   9   5    0.31    0.64
   5   9   5    1.04    0.54
  -6  -9  -5    2.35    0.47
  -6  -9  -5    1.99    0.41
  -6  -9  -5    1.21    0.64
  -6  -9  -5    1.89    0.55
   6   9   5    1.95    0.59
   6   9   5    0.47    0.44
   6   9   5    1.07    0.69
   6   9   5    1.75    0.62
   6   9   5    1.49    0.49
  -7  -9  -5   10.55    1.11
  -7  -9  -5   11.69    1.04
   7   9   5   11.25    0.89
   7   9   5    9.37    1.18
   7   9   5   10.63    0.86
   7   9   5    9.82    0.96
   7   9   5   11.50    1.24
  -8  -9  -5    0.71    0.74
  -8  -9  -5    0.77    0.59
  -8  -9  -5    1.98    0.76
   8   9   5    2.17    0.60
   8   9   5    1.84    0.53
   8   9   5    1.87    0.76
   8   9   5    2.23    0.72
   8   9   5    1.50    0.49
  -9  -9  -5   92.82    2.71
  -9  -9  -5   87.78    2.25
   9   9   5   93.68    2.65
   9   9   5   96.34    2.53
   9   9   5   93.22    2.15
   9   9   5   92.70    2.18
   9   9   5   90.44    2.09
 -10  -9  -5    7.56    1.07
 -10  -9  -5    6.37    0.83
  10   9   5    5.41    0.97
  10   9   5   11.02    1.48
  10   9   5    7.22    0.73
  10   9   5    7.12    0.76
  10   9   5    7.43    0.89
   0 -10  -5   -0.98    0.75
   0 -10  -5   -1.23    0.77
   0 -10  -5    2.07    1.33
   0 -10  -5    0.32    0.75
   0  10   5    0.27    0.71
   0  10   5    0.89    0.81
   0  10   5    0.63    0.74
  -1 -10  -5    0.39    0.65
  -1 -10  -5    1.19    0.73
  -1 -10  -5    0.53    0.65
   1  10   5   -0.32    0.56
   1  10   5    0.05    0.74
   1  10   5    0.83    0.65
  -2 -10  -5   45.94    1.52
  -2 -10  -5   47.94    1.98
  -2 -10  -5   45.21    1.70
  -2 -10  -5   48.03    1.85
   2  10   5   47.85    1.98
   2  10   5   47.09    1.72
   2  10   5   47.08    1.77
  -3 -10  -5   27.84    1.51
  -3 -10  -5   29.45    1.65
  -3 -10  -5   22.74    1.33
  -3 -10  -5   26.77    1.36
  -3 -10  -5   26.84    1.11
  -3 -10  -5   25.56    1.75
   3  10   5   28.59    1.60
   3  10   5   23.30    1.33
   3  10   5   27.02    1.70
   3  10   5   28.47    1.38
  -4 -10  -5    9.39    1.03
  -4 -10  -5    9.32    0.71
  -4 -10  -5   10.77    1.20
  -4 -10  -5    9.73    1.34
  -4 -10  -5   10.32    1.19
   4  10   5    8.90    1.04
   4  10   5    9.34    1.19
   4  10   5   10.77    1.09
   4  10   5   11.16    1.04
   4  10   5   10.21    1.07
  -5 -10  -5   14.17    1.28
  -5 -10  -5   13.48    1.26
  -5 -10  -5   16.89    1.44
  -5 -10  -5   13.58    1.07
  -5 -10  -5   14.67    1.00
   5  10   5   13.65    1.32
   5  10   5   12.96    1.05
   5  10   5   12.65    1.22
   5  10   5   13.83    1.46
  -6 -10  -5    5.39    0.78
  -6 -10  -5    8.22    0.93
  -6 -10  -5    8.18    0.97
  -6 -10  -5    7.16    0.81
   6  10   5    6.64    0.85
   6  10   5    6.28    0.88
   6  10   5    7.33    0.78
   6  10   5    7.27    1.00
  -7 -10  -5   36.32    1.25
  -7 -10  -5   39.27    1.62
  -7 -10  -5   34.92    1.71
  -7 -10  -5   36.81    1.14
   7  10   5   38.89    1.79
   7  10   5   38.79    1.45
   7  10   5   39.14    1.43
   7  10   5   36.31    1.83
   7  10   5   37.36    1.58
  -8 -10  -5   29.05    1.74
  -8 -10  -5   30.92    1.70
   8  10   5   30.92    1.52
   8  10   5   30.73    1.74
   8  10   5   30.71    1.74
   8  10   5   30.96    1.33
   8  10   5   32.08    1.36
  -9 -10  -5   21.50    1.72
  -9 -10  -5   18.22    1.40
   9  10   5   19.51    1.66
   9  10   5   18.54    1.28
   9  10   5   19.71    1.40
   9  10   5   18.44    1.66
   9  10   5   19.12    1.17
 -10 -10  -5    4.05    0.92
  10  10   5    5.13    1.20
  10  10   5    3.92    0.78
  10  10   5    4.15    0.86
  10  10   5    3.73    0.72
  10  10   5    5.23    1.08
  -2 -11  -5   23.51    1.45
  -2 -11  -5   27.16    1.72
  -2 -11  -5   21.40    1.56
   2  11   5   23.04    1.79
   2  11   5   24.46    1.54
  -3 -11  -5   45.78    1.54
  -3 -11  -5   47.44    2.01
  -3 -11  -5   49.80    1.89
   3  11   5   46.11    1.86
   3  11   5   45.34    2.10
   3  11   5   44.70    1.89
  -4 -11  -5    3.92    0.56
  -4 -11  -5    3.01    0.84
  -4 -11  -5    3.59    0.91
  -4 -11  -5    4.35    0.79
   4  11   5    4.08    0.78
   4  11   5    3.10    0.87
   4  11   5    4.96    0.81
  -5 -11  -5    1.05    0.72
  -5 -11  -5    1.02    0.65
  -5 -11  -5   -0.81    0.82
   5  11   5   -0.24    0.70
   5  11   5    0.61    0.80
  -6 -11  -5    9.28    1.06
  -6 -11  -5   11.85    1.20
  -6 -11  -5   10.31    1.19
   6  11   5    9.08    0.94
   6  11   5    7.99    1.05
  -7 -11  -5   41.23    2.01
  -7 -11  -5   40.67    1.41
  -7 -11  -5   38.91    1.95
  -7 -11  -5   39.78    1.47
   7  11   5   39.14    1.65
   7  11   5   39.77    1.98
   7  11   5   38.80    2.02
  -8 -11  -5   26.24    2.83
  -8 -11  -5   27.24    1.76
   8  11   5   23.29    1.81
   8  11   5   27.98    1.46
   8  11   5   24.31    1.61
   8  11   5   24.51    1.43
   8  11   5   28.25    2.86
   7   8  -6   24.28    1.74
  -7  -8   6   24.40    1.45
  -7  -8   6   24.19    1.73
  -7  -8   6   19.99    1.63
   6   8  -6    3.10    1.38
   6   8  -6    4.56    0.96
   6   8  -6    5.74    0.86
   6   8  -6    1.91    0.79
  -6  -8   6    4.20    0.92
  -6  -8   6    4.68    0.86
  -6  -8   6    5.30    0.90
   5   8  -6    9.87    1.33
   5   8  -6   13.07    1.36
   5   8  -6    7.93    1.06
   5   8  -6    9.51    1.21
  -5  -8   6    8.84    1.06
  -5  -8   6   10.27    1.20
  -5  -8   6   10.03    1.00
   4   8  -6    7.29    0.97
   4   8  -6   10.83    1.26
   4   8  -6    6.42    0.89
   4   8  -6   10.63    1.08
  -4  -8   6    9.12    0.99
  -4  -8   6   11.20    1.30
  -4  -8   6    6.96    1.04
   3   8  -6   11.71    1.25
   3   8  -6   12.56    1.45
   3   8  -6   13.26    1.30
   3   8  -6   12.18    1.56
  -3  -8   6   11.96    1.36
  -3  -8   6   13.67    1.49
   2   8  -6   24.87    1.58
   2   8  -6   24.86    1.41
  -2  -8   6   24.14    1.83
  -2  -8   6   25.86    1.79
   8   7  -6    1.65    0.88
   8   7  -6    1.07    0.71
   8   7  -6    1.60    0.82
  -8  -7   6    0.43    0.74
  -8  -7   6    0.65    0.81
  -8  -7   6    1.37    0.80
  -8  -7   6    0.04    0.63
   7   7  -6    0.24    0.67
   7   7  -6    0.64    0.64
   7   7  -6   -0.07    0.72
  -7  -7   6   -0.05    0.61
  -7  -7   6    0.45    0.75
  -7  -7   6   -1.12    0.72
   6   7  -6   -0.01    0.58
   6   7  -6    0.73    0.48
   6   7  -6    1.43    0.67
   6   7  -6    0.58    0.63
  -6  -7   6    1.02    0.51
  -6  -7   6    0.97    0.62
  -6  -7   6   -0.40    0.71
   5   7  -6    3.95    0.63
   5   7  -6    4.83    0.75
   5   7  -6    6.29    0.87
   5   7  -6    4.31    0.71
  -5  -7   6    3.22    0.69
  -5  -7   6    4.14    0.64
  -5  -7   6    3.39    0.83
  -5  -7   6    3.15    0.77
   4   7  -6   55.85    1.82
   4   7  -6   56.78    1.78
   4   7  -6   54.34    1.98
   4   7  -6   53.92    1.79
  -4  -7   6   54.36    1.81
  -4  -7   6   56.64    1.93
  -4  -7   6   55.50    1.83
  -4  -7   6   54.63    1.74
   3   7  -6    2.17    0.60
   3   7  -6    3.32    0.74
   3   7  -6    3.18    0.77
   3   7  -6    2.85    0.68
   3   7  -6    3.85    0.61
  -3  -7   6    3.40    0.73
  -3  -7   6    3.45    0.76
  -3  -7   6    3.30    0.72
   2   7  -6    1.31    0.51
   2   7  -6    0.17    0.52
   2   7  -6    1.59    0.60
   2   7  -6    0.71    0.67
   2   7  -6    0.16    0.76
  -2  -7   6    3.14    1.34
  -2  -7   6    0.19    0.63
  -2  -7   6    1.54    0.68
   1   7  -6    5.89    0.83
   1   7  -6    6.70    0.88
   1   7  -6    7.27    0.90
   1   7  -6    6.58    0.91
   1   7  -6    6.50    1.13
  -1  -7   6    5.31    0.86
  -1  -7   6    5.85    0.90
   0   7  -6   21.31    1.37
   0   7  -6   21.71    1.10
   0   7  -6   23.20    1.23
   0  -7   6   22.08    1.48
   0  -7   6   22.86    1.64
   9   6  -6    5.57    0.81
   9   6  -6    6.36    1.14
   9   6  -6    4.79    1.10
   9   6  -6    4.11    0.98
  -9  -6   6    7.43    0.87
  -9  -6   6    7.00    0.94
   8   6  -6    1.70    0.73
   8   6  -6    0.65    0.74
   8   6  -6    2.09    0.75
   8   6  -6    1.13    0.64
  -8  -6   6    2.25    0.77
  -8  -6   6    0.79    0.51
  -8  -6   6    0.47    0.63
  -8  -6   6    1.34    0.66
   7   6  -6   26.43    1.29
   7   6  -6   26.56    1.55
   7   6  -6   26.92    1.42
   7   6  -6   25.24    1.53
  -7  -6   6   26.97    1.17
  -7  -6   6   27.36    1.39
  -7  -6   6   21.59    1.42
  -7  -6   6   26.05    1.27
   6   6  -6   60.41    2.00
   6   6  -6   60.41    1.97
   6   6  -6   60.40    1.90
   6   6  -6   58.91    1.80
  -6  -6   6   61.16    1.90
  -6  -6   6   60.30    1.40
  -6  -6   6   59.47    1.70
  -6  -6   6   61.47    1.78
   5   6  -6    0.38    0.57
   5   6  -6    1.24    0.53
   5   6  -6    0.51    0.55
   5   6  -6   -0.14    0.60
   5   6  -6    1.10    0.42
  -5  -6   6    0.28    0.61
  -5  -6   6   -0.28    0.51
  -5  -6   6    0.86    0.52
  -5  -6   6    0.61    0.40
  -5  -6   6    0.25    1.05
   4   6  -6   58.40    1.61
   4   6  -6   58.08    1.78
   4   6  -6   59.43    1.90
   4   6  -6   57.33    1.74
  -4  -6   6   57.36    1.93
  -4  -6   6   57.96    1.84
  -4  -6   6   58.74    1.72
  -4  -6   6   58.45    1.59
   3   6  -6    7.80    0.85
   3   6  -6    9.60    0.95
   3   6  -6    9.00    0.92
   3   6  -6    7.86    0.84
  -3  -6   6    7.93    0.86
  -3  -6   6    8.82    0.95
  -3  -6   6    7.35    0.87
  -3  -6   6    8.37    1.10
   2   6  -6    9.14    0.84
   2   6  -6    9.92    0.89
   2   6  -6   10.93    0.95
   2   6  -6    8.01    1.09
   2   6  -6    8.82    1.08
  -2  -6   6    8.13    0.91
  -2  -6   6    8.54    0.98
  -2  -6   6    8.76    1.02
  -2  -6   6   10.04    1.13
   1   6  -6   51.53    1.63
   1   6  -6   48.22    1.48
   1   6  -6   47.92    1.81
   1   6  -6   50.15    1.75
   1   6  -6   49.75    1.41
  -1  -6   6   48.64    1.66
  -1  -6   6   46.16    1.81
  -1  -6   6   49.11    1.77
   0   6  -6    7.57    0.80
   0   6  -6    6.52    0.74
   0   6  -6    8.32    0.75
   0   6  -6    8.07    0.93
   0  -6   6    5.77    0.87
   0  -6   6    7.98    0.85
   0  -6   6    6.60    0.85
   0  -6   6    6.15    1.05
  -1   6  -6   69.11    1.97
  -1   6  -6   66.84    1.94
  -1   6  -6   65.42    1.52
   1  -6   6   71.30    2.31
   1  -6   6   71.65    2.10
  -2   6  -6    1.21    0.63
  -2   6  -6    0.27    0.64
  -2   6  -6   -0.99    0.59
  -2   6  -6    0.34    0.78
   2  -6   6    0.21    0.69
   2  -6   6   -0.79    0.79
   9   5  -6    0.55    0.77
   9   5  -6    1.03    0.62
   9   5  -6    0.45    0.78
   9   5  -6    0.91    0.69
   9   5  -6    0.95    0.66
  -9  -5   6    1.08    0.60
  -9  -5   6    0.80    0.77
   8   5  -6    1.31    0.71
   8   5  -6    0.25    0.55
   8   5  -6    1.09    0.58
   8   5  -6    0.94    0.65
   8   5  -6    0.98    0.65
  -8  -5   6    1.90    0.54
  -8  -5   6    0.83    0.43
  -8  -5   6    1.22    0.52
  -8  -5   6    0.76    0.71
   7   5  -6   40.54    1.70
   7   5  -6   41.83    1.71
   7   5  -6   41.38    1.57
   7   5  -6   40.81    1.45
  -7  -5   6   42.47    1.43
  -7  -5   6   38.14    1.25
  -7  -5   6   40.81    1.58
  -7  -5   6   40.60    1.36
   6   5  -6  251.15    4.87
   6   5  -6  245.86    4.65
   6   5  -6  254.01    4.85
   6   5  -6  248.45    4.65
  -6  -5   6  255.56    4.68
  -6  -5   6  249.55    4.51
  -6  -5   6  255.83    4.52
   5   5  -6   17.15    1.13
   5   5  -6   19.49    1.19
   5   5  -6   18.82    1.14
   5   5  -6   20.20    1.05
  -5  -5   6   18.96    0.98
  -5  -5   6   18.32    0.76
  -5  -5   6   17.49    1.01
  -5  -5   6   16.75    1.12
   4   5  -6   31.31    1.28
   4   5  -6   32.47    1.24
   4   5  -6   31.27    1.04
   4   5  -6   32.23    1.28
   4   5  -6   33.42    1.35
  -4  -5   6   30.18    1.17
  -4  -5   6   31.67    1.22
  -4  -5   6   30.16    1.31
  -4  -5   6   29.93    1.03
  -4  -5   6   32.49    1.38
   3   5  -6    0.49    0.41
   3   5  -6    0.74    0.39
   3   5  -6    0.88    0.50
  -3  -5   6    1.26    0.42
  -3  -5   6    0.95    0.48
  -3  -5   6    0.98    0.46
  -3  -5   6    0.36    0.51
  -3  -5   6   -0.05    0.52
   2   5  -6   24.09    1.12
   2   5  -6   23.03    0.97
   2   5  -6   20.39    1.15
   2   5  -6   24.32    1.07
  -2  -5   6   24.63    1.24
  -2  -5   6   22.75    1.20
  -2  -5   6   23.32    1.09
  -2  -5   6   22.38    1.07
   1   5  -6  178.67    3.50
   1   5  -6  175.76    3.58
   1   5  -6  177.37    3.57
   1   5  -6  173.76    3.40
   1   5  -6  176.97    3.48
   1   5  -6  177.11    3.27
  -1  -5   6  179.57    3.58
  -1  -5   6  181.75    3.59
  -1  -5   6  176.14    3.51
   0   5  -6    3.99    0.63
   0   5  -6    4.26    0.55
   0   5  -6    3.58    0.56
   0   5  -6    3.06    0.67
   0   5  -6    3.37    0.59
   0   5  -6    2.97    0.53
   0  -5   6    2.60    0.63
   0  -5   6    3.82    0.66
   0  -5   6    2.52    0.59
   0  -5   6    2.78    0.63
  -1   5  -6   55.46    1.67
  -1   5  -6   55.32    1.60
  -1   5  -6   55.11    1.93
  -1   5  -6   53.85    1.23
  -1   5  -6   52.46    1.64
   1  -5   6   54.28    1.69
   1  -5   6   51.03    1.79
   1  -5   6   52.75    1.74
   1  -5   6   56.49    1.89
  -2   5  -6    2.54    0.61
  -2   5  -6    4.43    0.85
  -2   5  -6    3.18    0.69
  -2   5  -6    2.56    0.65
  -2   5  -6    2.54    0.60
   2  -5   6    3.42    0.78
   2  -5   6    4.30    0.74
   2  -5   6    3.44    0.64
   2  -5   6    3.95    0.81
  -3   5  -6   25.59    1.32
  -3   5  -6   21.40    1.30
  -3   5  -6   22.73    1.45
  -3   5  -6   22.83    1.17
   3  -5   6   22.10    1.56
   3  -5   6   23.37    1.62
   3  -5   6   23.98    1.34
   3  -5   6   20.33    1.77
  -4   5  -6   29.72    1.63
  -4   5  -6   29.29    1.58
  -4   5  -6   33.64    1.57
   4  -5   6   29.50    1.58
  10   4  -6    5.88    0.98
  10   4  -6    6.66    1.02
 -10  -4   6   -0.20    1.15
 -10  -4   6    3.47    0.87
   9   4  -6    0.60    0.70
   9   4  -6   -0.19    0.72
   9   4  -6   -1.03    0.65
  -9  -4   6   -0.16    0.73
  -9  -4   6    0.04    0.45
  -9  -4   6    0.09    0.59
   8   4  -6   37.49    1.39
   8   4  -6   36.41    1.62
   8   4  -6   36.62    1.49
   8   4  -6   37.44    1.50
  -8  -4   6   39.13    1.60
  -8  -4   6   36.72    1.67
  -8  -4   6   35.33    1.03
  -8  -4   6   34.42    1.14
  -8  -4   6   36.15    1.10
   7   4  -6    4.00    0.65
   7   4  -6    3.10    0.60
   7   4  -6    2.66    0.60
  -7  -4   6    2.63    0.65
  -7  -4   6    2.49    0.51
  -7  -4   6    3.17    0.46
  -7  -4   6    2.57    0.66
  -7  -4   6    3.85    0.51
   6   4  -6  145.28    3.06
   6   4  -6  154.21    3.24
   6   4  -6  149.37    3.04
   6   4  -6  145.72    3.02
  -6  -4   6  144.70    2.88
  -6  -4   6  151.68    2.94
  -6  -4   6  149.07    2.84
  -6  -4   6  149.88    3.10
   5   4  -6    1.71    0.44
   5   4  -6    0.73    0.49
   5   4  -6    1.02    0.48
  -5  -4   6    0.70    0.38
  -5  -4   6    1.18    0.46
  -5  -4   6    0.06    0.46
  -5  -4   6    0.86    0.50
  -5  -4   6    1.31    0.26
   4   4  -6   45.72    1.48
   4   4  -6   43.97    1.36
   4   4  -6   47.48    1.42
  -4  -4   6   46.66    1.37
  -4  -4   6   45.21    1.33
  -4  -4   6   46.63    1.47
  -4  -4   6   47.10    1.15
  -4  -4   6   47.40    1.50
   3   4  -6    5.29    0.60
   3   4  -6    5.33    0.60
   3   4  -6    5.89    0.69
   3   4  -6    5.86    0.67
   3   4  -6    4.85    0.59
  -3  -4   6    5.82    0.62
  -3  -4   6    4.42    0.57
  -3  -4   6    4.57    0.55
  -3  -4   6    5.78    0.79
   2   4  -6    1.83    0.38
   2   4  -6    2.51    0.44
   2   4  -6    3.15    0.50
   2   4  -6    1.93    0.41
  -2  -4   6    1.59    0.45
  -2  -4   6    2.65    0.46
  -2  -4   6    2.87    0.54
  -2  -4   6    2.47    0.54
  -2  -4   6    2.13    0.43
   1   4  -6  114.10    2.40
   1   4  -6  108.82    2.34
   1   4  -6  107.52    2.19
   1   4  -6  108.99    2.40
  -1  -4   6  109.17    2.40
  -1  -4   6  107.66    2.39
  -1  -4   6  110.22    2.39
  -1  -4   6  109.33    2.37
   0   4  -6    4.13    0.56
   0   4  -6    5.33    0.72
   0   4  -6    6.48    0.78
   0   4  -6    5.93    0.51
   0   4  -6    5.12    0.64
   0   4  -6    5.21    0.65
   0  -4   6    4.81    0.64
   0  -4   6    6.45    0.82
   0  -4   6    5.04    0.58
   0  -4   6    5.15    0.63
  -1   4  -6    1.19    0.26
  -1   4  -6    0.31    0.42
  -1   4  -6    1.15    0.56
  -1   4  -6    0.77    0.46
   1  -4   6    1.25    0.48
   1  -4   6    0.68    0.49
   1  -4   6    1.28    0.53
   1  -4   6    0.90    0.53
  -2   4  -6    0.31    0.48
  -2   4  -6    0.34    0.43
  -2   4  -6    0.41    0.45
  -2   4  -6    0.20    0.59
   2  -4   6    1.18    0.56
   2  -4   6    0.12    0.53
   2  -4   6    0.63    0.46
   2  -4   6    1.40    0.60
  -3   4  -6   44.67    1.68
  -3   4  -6   46.37    1.65
  -3   4  -6   48.69    1.46
  -3   4  -6   49.16    1.40
   3  -4   6   47.20    1.83
   3  -4   6   49.07    1.66
   3  -4   6   49.88    1.58
   3  -4   6   45.84    1.70
  -4   4  -6   43.61    1.71
  -4   4  -6   43.93    1.31
  -4   4  -6   45.44    1.42
  -4   4  -6   43.72    1.72
   4  -4   6   44.50    1.90
   4  -4   6   42.11    1.77
   4  -4   6   44.17    1.60
   4  -4   6   43.23    1.69
   4  -4   6   45.30    1.92
  -5   4  -6    0.15    0.64
  -5   4  -6    0.09    0.65
   5  -4   6    1.35    0.98
   5  -4   6   -0.75    0.63
   5  -4   6    0.10    1.05
   5  -4   6   -0.54    0.88
  10   3  -6    0.32    0.84
  10   3  -6    1.59    0.70
  10   3  -6    1.88    0.86
 -10  -3   6    1.41    0.78
 -10  -3   6    1.73    0.94
   9   3  -6    3.24    0.68
   9   3  -6    2.81    0.73
   9   3  -6    4.31    0.79
   9   3  -6    4.27    0.80
  -9  -3   6    4.08    1.11
  -9  -3   6    2.86    0.74
   8   3  -6   53.08    1.81
   8   3  -6   51.93    1.67
   8   3  -6   50.02    1.59
   8   3  -6   51.93    1.83
  -8  -3   6   53.61    1.78
  -8  -3   6   49.63    1.20
  -8  -3   6   52.57    1.89
   7   3  -6   15.92    1.09
   7   3  -6   13.72    1.02
   7   3  -6   14.78    0.93
   7   3  -6   14.52    1.07
  -7  -3   6   13.98    0.67
  -7  -3   6   13.57    0.72
  -7  -3   6   12.47    1.11
  -7  -3   6   14.20    1.14
  -7  -3   6   13.64    0.77
   6   3  -6    9.98    0.92
   6   3  -6   11.95    0.93
   6   3  -6   11.85    0.88
  -6  -3   6   10.45    1.02
  -6  -3   6   10.25    0.64
  -6  -3   6   11.52    0.96
  -6  -3   6    9.89    0.69
  -6  -3   6    9.91    0.99
   5   3  -6   12.01    0.81
   5   3  -6   12.08    0.88
   5   3  -6   11.51    0.86
   5   3  -6   10.74    1.15
  -5  -3   6   11.10    0.93
  -5  -3   6   11.60    0.87
  -5  -3   6   12.68    0.93
  -5  -3   6   11.65    0.74
  -5  -3   6   10.82    0.69
   4   3  -6    0.64    0.34
   4   3  -6    1.07    0.39
   4   3  -6    1.05    0.39
  -4  -3   6    0.89    0.37
  -4  -3   6    0.80    0.45
  -4  -3   6    0.85    0.40
  -4  -3   6    0.85    0.35
  -4  -3   6    0.81    0.24
   3   3  -6   62.48    1.56
   3   3  -6   61.28    1.59
   3   3  -6   63.75    1.58
  -3  -3   6   63.08    1.53
  -3  -3   6   63.85    1.66
  -3  -3   6   62.33    1.60
  -3  -3   6   61.44    1.51
  -3  -3   6   59.94    1.36
   2   3  -6    3.62    0.42
   2   3  -6    2.87    0.44
   2   3  -6    4.43    0.50
   2   3  -6    3.35    0.44
  -2  -3   6    4.76    0.54
  -2  -3   6    4.51    0.57
  -2  -3   6    3.70    0.48
  -2  -3   6    3.82    0.45
  -2  -3   6    4.18    0.49
   1   3  -6   20.89    0.79
   1   3  -6   20.38    0.85
   1   3  -6   21.41    0.93
   1   3  -6   20.74    0.89
   1   3  -6   21.20    0.88
  -1  -3   6   21.38    0.87
  -1  -3   6   20.24    1.00
  -1  -3   6   21.95    0.90
   0   3  -6    0.69    0.35
   0   3  -6    0.13    0.35
   0   3  -6    0.81    0.33
   0   3  -6    0.51    0.36
   0   3  -6    0.61    0.23
   0  -3   6    0.42    0.35
   0  -3   6    0.41    0.35
   0  -3   6    0.50    0.39
   0  -3   6    0.65    0.37
  -1   3  -6    6.63    0.41
  -1   3  -6    7.73    0.73
  -1   3  -6    8.16    0.68
  -1   3  -6    8.31    0.73
  -1   3  -6    6.52    0.61
  -1   3  -6    6.41    0.82
   1  -3   6    6.70    0.71
   1  -3   6    7.63    0.71
   1  -3   6    7.21    0.70
  -2   3  -6   31.79    1.07
  -2   3  -6   29.68    1.02
  -2   3  -6   30.41    1.35
  -2   3  -6   30.01    1.21
   2  -3   6   30.32    1.15
   2  -3   6   30.46    1.29
   2  -3   6   31.59    1.14
   2  -3   6   29.97    1.16
  -3   3  -6    6.37    0.64
  -3   3  -6    5.38    0.68
  -3   3  -6    5.57    0.67
  -3   3  -6    5.79    0.72
   3  -3   6    6.65    0.70
   3  -3   6    6.68    0.78
   3  -3   6    7.06    0.86
   3  -3   6    6.92    0.78
  -4   3  -6   64.19    1.98
  -4   3  -6   63.85    1.91
  -4   3  -6   66.32    1.55
  -4   3  -6   65.81    1.50
   4  -3   6   67.01    2.13
   4  -3   6   64.24    1.75
   4  -3   6   63.89    1.82
   4  -3   6   66.24    1.91
  -5   3  -6    2.75    0.68
  -5   3  -6    2.01    0.68
   5  -3   6    2.65    0.61
   5  -3   6    1.46    0.71
   5  -3   6    3.38    0.76
   5  -3   6    2.37    0.75
   5  -3   6    2.82    0.73
  -6   3  -6    0.64    0.64
  -6   3  -6    0.87    0.65
   6  -3   6    2.55    0.81
   6  -3   6    2.66    0.68
   6  -3   6    2.67    0.87
   6  -3   6    0.89    0.86
   6  -3   6    1.03    0.82
  10   2  -6   19.21    1.70
  10   2  -6   18.21    1.35
  10   2  -6   18.52    1.60
 -10  -2   6   19.11    1.60
   9   2  -6   21.26    1.49
   9   2  -6   24.42    1.56
   9   2  -6   26.18    1.28
   9   2  -6   24.32    1.43
  -9  -2   6   23.39    1.50
   8   2  -6    6.07    0.68
   8   2  -6    5.87    0.81
   8   2  -6    7.08    0.84
   8   2  -6    6.74    0.76
  -8  -2   6    7.53    0.88
  -8  -2   6    7.31    0.90
   7   2  -6   43.54    1.57
   7   2  -6   46.63    1.45
   7   2  -6   42.98    1.37
  -7  -2   6   42.46    1.56
  -7  -2   6   40.96    1.64
  -7  -2   6   46.02    1.15
  -7  -2   6   43.35    1.11
   6   2  -6    0.56    0.43
   6   2  -6   -0.11    0.39
   6   2  -6    0.05    0.41
  -6  -2   6    0.61    0.32
  -6  -2   6    0.25    0.46
  -6  -2   6    0.88    0.25
  -6  -2   6    1.01    0.37
  -6  -2   6    0.32    0.44
  -6  -2   6    0.68    0.47
   5   2  -6   60.10    1.65
   5   2  -6   60.76    1.54
   5   2  -6   61.71    1.55
  -5  -2   6   57.32    1.70
  -5  -2   6   61.58    1.65
  -5  -2   6   58.83    1.28
  -5  -2   6   61.48    1.67
  -5  -2   6   60.05    1.43
  -5  -2   6   59.29    1.44
   4   2  -6   45.92    1.37
   4   2  -6   46.76    1.35
   4   2  -6   44.39    1.26
   4   2  -6   45.55    1.28
  -4  -2   6   47.26    1.38
  -4  -2   6   45.85    1.34
  -4  -2   6   44.79    1.20
  -4  -2   6   47.53    1.24
  -4  -2   6   44.55    0.93
  -4  -2   6   45.18    1.40
   3   2  -6  101.81    2.14
   3   2  -6  102.65    2.18
   3   2  -6  102.18    2.22
  -3  -2   6  104.47    2.24
  -3  -2   6  105.11    2.13
  -3  -2   6  104.86    2.16
  -3  -2   6  104.68    2.11
  -3  -2   6  101.67    1.90
   2   2  -6  105.80    2.15
   2   2  -6  106.66    2.16
   2   2  -6  104.37    2.20
  -2  -2   6  102.24    2.13
  -2  -2   6  107.01    2.25
  -2  -2   6  104.07    2.14
  -2  -2   6  104.48    2.02
  -2  -2   6  107.43    2.15
   1   2  -6   11.67    0.64
   1   2  -6   11.83    0.65
   1   2  -6   11.44    0.63
   1   2  -6   10.08    0.64
  -1  -2   6   11.08    0.66
  -1  -2   6   10.90    0.75
  -1  -2   6   11.14    0.66
  -1  -2   6   10.53    0.62
  -1  -2   6   11.91    0.65
   0   2  -6   13.96    0.71
   0   2  -6   13.71    0.69
   0   2  -6   13.63    0.75
   0   2  -6   14.21    0.67
   0  -2   6   13.16    0.74
   0  -2   6   13.66    0.69
   0  -2   6   13.83    0.69
  -1   2  -6    6.90    0.69
  -1   2  -6    6.17    0.37
  -1   2  -6    4.88    0.58
  -1   2  -6    5.86    0.52
  -1   2  -6    6.22    0.68
  -1   2  -6    6.36    0.57
   1  -2   6    6.33    0.67
   1  -2   6    5.13    0.57
   1  -2   6    6.13    0.90
   1  -2   6    6.17    0.59
  -2   2  -6  165.21    2.98
  -2   2  -6  165.25    3.00
  -2   2  -6  173.45    3.34
  -2   2  -6  157.16    3.24
   2  -2   6  164.71    3.08
   2  -2   6  165.99    3.31
   2  -2   6  165.74    3.09
   2  -2   6  165.95    3.06
  -3   2  -6   27.18    0.87
  -3   2  -6   27.46    0.90
  -3   2  -6   26.73    1.19
  -3   2  -6   26.78    1.07
  -3   2  -6   28.61    1.27
   3  -2   6   26.88    1.06
   3  -2   6   28.81    1.04
   3  -2   6   27.09    1.01
   3  -2   6   27.73    1.21
  -4   2  -6   53.84    1.57
  -4   2  -6   53.21    1.25
  -4   2  -6   51.46    1.70
  -4   2  -6   55.15    1.23
   4  -2   6   53.31    1.76
   4  -2   6   54.57    1.49
   4  -2   6   54.47    1.54
   4  -2   6   53.32    1.46
  -5   2  -6   17.27    1.08
  -5   2  -6   18.34    1.22
   5  -2   6   18.88    1.15
   5  -2   6   18.64    0.97
   5  -2   6   21.94    1.32
   5  -2   6   21.26    1.06
  -6   2  -6    1.29    0.66
  -6   2  -6    2.10    0.64
   6  -2   6    2.23    0.74
   6  -2   6    0.43    0.65
   6  -2   6    3.26    0.60
   6  -2   6    2.61    0.65
   6  -2   6    2.79    0.78
  -7   2  -6   56.95    1.94
  -7   2  -6   53.19    2.15
   7  -2   6   54.49    2.02
   7  -2   6   54.38    2.28
   7  -2   6   56.84    2.27
   7  -2   6   56.97    1.73
   7  -2   6   59.49    1.91
   9   1  -6   48.88    1.65
   9   1  -6   52.77    1.82
   9   1  -6   49.27    1.98
   9   1  -6   50.37    2.00
  -9  -1   6   48.75    2.01
  -9  -1   6   49.48    2.01
   8   1  -6    0.77    0.58
   8   1  -6   -0.86    0.57
   8   1  -6    0.49    0.51
   8   1  -6    0.06    0.52
  -8  -1   6    0.09    0.57
   7   1  -6   38.06    1.50
   7   1  -6   36.70    1.31
   7   1  -6   34.70    1.25
   7   1  -6   36.85    1.46
  -7  -1   6   36.84    1.49
  -7  -1   6   36.28    1.00
  -7  -1   6   35.63    1.54
  -7  -1   6   36.35    0.97
   6   1  -6    0.21    0.41
   6   1  -6   -0.03    0.48
   6   1  -6    0.31    0.36
   6   1  -6   -0.05    0.37
  -6  -1   6    0.11    0.44
  -6  -1   6    0.69    0.33
  -6  -1   6    0.53    0.31
  -6  -1   6   -0.70    0.44
   5   1  -6  163.13    3.11
   5   1  -6  163.15    3.13
   5   1  -6  161.76    3.25
   5   1  -6  168.99    3.28
  -5  -1   6  168.12    3.24
  -5  -1   6  163.08    2.97
  -5  -1   6  163.17    2.96
  -5  -1   6  166.63    3.25
  -5  -1   6  158.79    3.29
   4   1  -6   44.12    1.20
   4   1  -6   43.26    1.32
   4   1  -6   41.84    1.25
   4   1  -6   43.03    1.20
  -4  -1   6   40.66    0.86
  -4  -1   6   42.86    1.13
  -4  -1   6   39.15    1.39
  -4  -1   6   42.25    1.31
  -4  -1   6   41.24    1.13
  -4  -1   6   40.77    1.31
   3   1  -6   45.15    1.33
   3   1  -6   49.67    1.27
   3   1  -6   48.44    1.25
   3   1  -6   47.50    1.26
  -3  -1   6   48.78    1.27
  -3  -1   6   47.81    1.32
  -3  -1   6   47.20    1.02
  -3  -1   6   46.71    1.19
  -3  -1   6   48.09    1.35
  -3  -1   6   47.30    1.22
   2   1  -6   84.49    1.80
   2   1  -6   85.29    1.92
   2   1  -6   86.64    1.82
  -2  -1   6   85.56    1.67
  -2  -1   6   87.04    1.85
  -2  -1   6   84.21    1.78
  -2  -1   6   89.52    1.94
  -2  -1   6   87.68    1.81
  -2  -1   6   87.22    1.80
   1   1  -6   27.82    0.85
   1   1  -6   28.31    0.90
   1   1  -6   28.23    0.88
  -1  -1   6   27.78    0.85
  -1  -1   6   27.05    0.87
  -1  -1   6   27.54    0.99
  -1  -1   6   27.94    0.87
  -1  -1   6   28.16    0.86
   0   1  -6  288.52    4.78
   0   1  -6  294.15    4.84
   0   1  -6  286.81    4.83
   0  -1   6  289.32    4.77
   0  -1   6  293.10    4.99
   0  -1   6  288.09    4.88
   0  -1   6  285.74    4.84
   0  -1   6  293.20    4.86
  -1   1  -6   53.70    1.24
  -1   1  -6   53.74    1.41
  -1   1  -6   55.10    1.27
  -1   1  -6   53.55    1.24
  -1   1  -6   52.90    1.12
   1  -1   6   54.23    1.23
   1  -1   6   53.07    1.30
   1  -1   6   53.53    1.40
  -2   1  -6  288.96    4.67
  -2   1  -6  251.39    5.22
  -2   1  -6  285.22    4.68
  -2   1  -6  285.45    5.00
   2  -1   6  284.48    4.70
   2  -1   6  295.14    4.78
   2  -1   6  288.54    4.98
   2  -1   6  286.18    4.78
  -3   1  -6   33.25    1.21
  -3   1  -6   34.14    1.05
  -3   1  -6   32.06    0.86
  -3   1  -6   31.79    1.21
  -3   1  -6   33.16    0.90
   3  -1   6   32.28    1.19
   3  -1   6   31.36    0.99
   3  -1   6   32.75    1.00
   3  -1   6   31.35    0.98
  -4   1  -6    5.93    0.41
  -4   1  -6    5.40    0.65
  -4   1  -6    4.92    0.66
  -4   1  -6    5.19    0.63
  -4   1  -6    5.74    0.45
   4  -1   6    5.39    0.58
   4  -1   6    5.74    0.61
   4  -1   6    5.75    0.65
   4  -1   6    6.07    0.70
  -5   1  -6   53.02    1.77
  -5   1  -6   52.80    1.51
  -5   1  -6   52.63    1.78
   5  -1   6   54.50    1.49
   5  -1   6   53.83    1.74
   5  -1   6   54.64    1.40
  -6   1  -6    0.74    0.49
  -6   1  -6    1.43    0.59
   6  -1   6    0.67    0.53
   6  -1   6    1.59    0.61
   6  -1   6    1.44    0.62
   6  -1   6    0.98    0.48
  -7   1  -6   54.65    1.82
  -7   1  -6   54.25    2.07
   7  -1   6   57.76    2.06
   7  -1   6   58.61    1.64
   7  -1   6   58.04    1.58
   7  -1   6   56.63    2.06
   7  -1   6   55.30    1.83
  -8   1  -6   19.85    1.36
  -8   1  -6   16.30    1.63
   8  -1   6   20.81    1.34
   8  -1   6   18.91    1.15
   8  -1   6   14.31    1.68
   8  -1   6   19.09    1.67
   8  -1   6   14.40    1.50
   9   0  -6   41.23    1.74
   9   0  -6   41.70    1.90
   9   0  -6   42.19    1.58
   9   0  -6   42.39    1.96
   8   0  -6    4.71    0.74
   8   0  -6    4.83    0.64
   8   0  -6    4.13    0.79
   8   0  -6    4.24    0.77
  -8   0   6    3.49    0.72
   7   0  -6    8.81    0.99
   7   0  -6    9.83    0.94
   7   0  -6    9.29    0.83
   7   0  -6   10.12    1.07
  -7   0   6    8.67    0.58
  -7   0   6    8.73    1.06
  -7   0   6    9.41    0.63
  -7   0   6    9.07    1.12
   6   0  -6    0.84    0.48
   6   0  -6    1.87    0.47
   6   0  -6    0.78    0.49
   6   0  -6    0.99    0.49
  -6   0   6    0.99    0.35
  -6   0   6    1.73    0.53
  -6   0   6    1.07    0.51
  -6   0   6    1.09    0.33
   5   0  -6  159.08    3.08
   5   0  -6  159.77    3.15
   5   0  -6  167.79    3.31
   5   0  -6  154.91    3.47
  -5   0   6  171.74    3.30
  -5   0   6  167.96    2.73
  -5   0   6  156.74    3.27
  -5   0   6  166.14    2.95
  -5   0   6  164.51    2.96
   4   0  -6   89.60    1.90
   4   0  -6   86.48    1.89
   4   0  -6   86.96    2.04
   4   0  -6   87.56    1.96
  -4   0   6   89.76    1.62
  -4   0   6   86.16    1.82
  -4   0   6   88.34    1.82
  -4   0   6   87.25    2.04
  -4   0   6   89.56    2.67
   3   0  -6   29.44    0.95
   3   0  -6   29.33    0.94
   3   0  -6   30.28    1.06
   3   0  -6   29.26    0.95
  -3   0   6   29.78    0.92
  -3   0   6   28.05    0.90
  -3   0   6   30.36    1.06
  -3   0   6   29.71    0.97
  -3   0   6   28.95    1.00
   2   0  -6   16.36    0.71
   2   0  -6   15.76    0.66
   2   0  -6   16.40    0.78
   2   0  -6   15.92    0.69
  -2   0   6   16.42    0.68
  -2   0   6   16.12    0.68
  -2   0   6   15.99    0.73
  -2   0   6   16.39    0.69
  -2   0   6   15.94    0.79
   1   0  -6    4.01    0.47
   1   0  -6    4.02    0.43
   1   0  -6    3.85    0.45
   1   0  -6    4.34    0.46
  -1   0   6    3.79    0.43
  -1   0   6    4.49    0.47
  -1   0   6    3.52    0.44
  -1   0   6    3.94    0.46
  -1   0   6    5.05    0.60
  -1   0   6    4.09    0.49
   0   0  -6  228.78    3.87
   0   0  -6  227.06    3.84
   0   0  -6  223.31    3.86
   0   0  -6  227.27    3.76
   0   0   6  224.04    3.88
   0   0   6  231.76    3.76
   0   0   6  230.82    3.89
   0   0   6  229.12    3.91
   0   0   6  230.33    4.02
  -1   0  -6   95.07    1.84
  -1   0  -6   96.00    1.77
  -1   0  -6   93.87    1.78
  -1   0  -6   95.35    1.85
   1   0   6   93.96    1.88
   1   0   6   96.57    1.89
   1   0   6   94.81    1.74
   1   0   6   97.43    2.03
   1   0   6   94.03    1.96
  -2   0  -6  180.66    3.07
  -2   0  -6  179.03    3.03
  -2   0  -6  181.92    3.08
  -2   0  -6  178.48    2.93
   2   0   6  180.06    3.33
   2   0   6  179.35    3.15
   2   0   6  179.92    3.02
  -3   0  -6   30.18    0.76
  -3   0  -6   29.83    0.78
  -3   0  -6   29.91    1.12
  -3   0  -6   31.81    0.89
   3   0   6   29.40    0.88
   3   0   6   31.14    1.09
   3   0   6   30.27    0.89
   3   0   6   31.46    0.85
  -4   0  -6    5.06    0.63
  -4   0  -6    6.17    0.57
   4   0   6    7.01    0.74
   4   0   6    6.17    0.52
   4   0   6    6.42    0.55
   4   0   6    6.05    0.52
  -5   0  -6   35.59    1.11
  -5   0  -6   34.84    1.39
   5   0   6   35.57    1.07
   5   0   6   36.37    1.35
   5   0   6   36.01    1.02
   5   0   6   35.84    1.02
  -6   0  -6   11.79    0.88
  -6   0  -6   10.53    1.05
   6   0   6   13.09    1.06
   6   0   6   11.03    0.68
   6   0   6   11.48    0.73
  -7   0  -6   13.50    1.21
  -7   0  -6   14.78    1.04
   7   0   6   15.67    1.26
   7   0   6   15.24    0.82
   7   0   6   16.21    1.05
   7   0   6   17.56    1.44
   7   0   6   14.76    1.21
   7   0   6   14.29    0.85
  -8   0  -6    5.85    0.77
  -8   0  -6    4.89    0.84
   8   0   6    6.97    0.92
   8   0   6    7.74    0.88
   8   0   6    9.09    0.90
   9  -1  -6    7.88    1.14
   9  -1  -6    8.19    0.97
   9  -1  -6    9.05    0.91
  -9   1   6    5.02    0.92
   8  -1  -6    5.48    0.77
   8  -1  -6    3.72    0.82
   8  -1  -6    5.31    0.85
   8  -1  -6    6.45    0.71
   8  -1  -6    3.50    0.88
  -8   1   6    3.51    0.76
  -8   1   6    3.86    0.53
   7  -1  -6   40.36    1.61
   7  -1  -6   45.30    1.53
   7  -1  -6   44.99    1.84
   7  -1  -6   44.03    1.72
   7  -1  -6   44.93    1.45
  -7   1   6   42.17    1.69
  -7   1   6   44.51    1.11
  -7   1   6   43.89    1.20
  -7   1   6   46.03    1.13
   6  -1  -6   49.22    1.43
   6  -1  -6   49.12    1.81
   6  -1  -6   49.60    1.61
   6  -1  -6   49.49    1.67
   6  -1  -6   50.11    1.48
  -6   1   6   47.78    1.22
  -6   1   6   48.09    1.23
  -6   1   6   50.17    1.69
  -6   1   6   46.22    1.64
  -6   1   6   48.20    1.21
   5  -1  -6   59.11    1.52
   5  -1  -6   62.21    1.57
   5  -1  -6   58.99    1.73
   5  -1  -6   60.23    1.66
   5  -1  -6   63.37    1.85
  -5   1   6   56.64    1.71
  -5   1   6   61.72    1.43
  -5   1   6   59.54    1.73
  -5   1   6   57.65    1.40
  -5   1   6   62.07    1.34
   4  -1  -6  101.60    2.30
   4  -1  -6  103.11    2.21
   4  -1  -6  104.55    2.14
   4  -1  -6  103.25    2.18
   4  -1  -6  102.39    2.36
  -4   1   6  101.44    1.93
  -4   1   6  101.41    2.28
  -4   1   6  103.00    2.30
  -4   1   6  103.38    2.04
  -4   1   6  100.28    2.03
   3  -1  -6   39.71    1.27
   3  -1  -6   36.95    1.10
   3  -1  -6   37.26    1.07
   3  -1  -6   38.46    1.10
   3  -1  -6   38.09    1.21
  -3   1   6   38.12    1.05
  -3   1   6   38.66    1.20
  -3   1   6   38.88    0.96
  -3   1   6   37.13    1.04
  -3   1   6   38.11    1.17
   2  -1  -6    0.77    0.27
   2  -1  -6    0.91    0.35
   2  -1  -6    0.70    0.27
   2  -1  -6    0.70    0.33
   2  -1  -6    1.40    0.32
  -2   1   6    1.00    0.18
  -2   1   6    1.01    0.34
  -2   1   6    1.27    0.30
  -2   1   6    1.02    0.28
  -2   1   6    1.05    0.32
   1  -1  -6   43.79    1.12
   1  -1  -6   44.74    1.13
   1  -1  -6   45.30    1.23
   1  -1  -6   44.25    1.04
   1  -1  -6   45.45    1.23
  -1   1   6   45.55    1.24
  -1   1   6   44.31    1.12
  -1   1   6   44.49    1.13
  -1   1   6   46.27    1.09
  -1   1   6   45.19    1.05
  -1   1   6   44.39    0.98
   0  -1  -6   25.02    0.80
   0  -1  -6   26.16    0.80
   0  -1  -6   26.78    0.87
   0  -1  -6   25.29    0.68
   0  -1  -6   25.73    0.91
   0   1   6   25.82    0.92
   0   1   6   26.59    0.82
   0   1   6   26.20    0.73
   0   1   6   25.58    0.68
   0   1   6   25.38    0.81
  -1  -1  -6  113.29    2.06
  -1  -1  -6  109.38    2.04
  -1  -1  -6  109.18    2.04
  -1  -1  -6  112.95    1.89
   1   1   6  107.92    2.19
   1   1   6  110.13    1.88
   1   1   6  110.33    2.08
   1   1   6  107.65    2.07
  -2  -1  -6   20.48    0.54
  -2  -1  -6   19.59    0.63
  -2  -1  -6   20.76    0.63
  -2  -1  -6   20.45    0.64
   2   1   6   20.72    0.81
   2   1   6   21.18    0.54
   2   1   6   20.42    0.70
   2   1   6   20.52    0.70
  -3  -1  -6   11.94    0.44
  -3  -1  -6   11.99    0.45
  -3  -1  -6   12.57    0.48
  -3  -1  -6   11.94    0.43
  -3  -1  -6   11.29    0.75
   3   1   6   11.81    0.44
   3   1   6   11.66    0.47
   3   1   6   11.91    0.54
   3   1   6   11.61    0.70
   3   1   6   10.92    0.54
  -4  -1  -6    7.73    0.50
  -4  -1  -6    6.90    0.72
   4   1   6    7.27    0.45
   4   1   6    8.14    0.69
   4   1   6    8.35    0.49
   4   1   6    7.56    0.49
  -5  -1  -6   36.39    1.35
  -5  -1  -6   35.82    1.02
   5   1   6   36.49    1.27
   5   1   6   35.28    0.93
   5   1   6   36.04    1.33
   5   1   6   36.75    0.96
   5   1   6   35.73    0.94
  -6  -1  -6   20.78    1.19
  -6  -1  -6   19.89    1.35
   6   1   6   21.26    0.83
   6   1   6   19.22    0.72
   6   1   6   20.69    0.75
   6   1   6   21.31    1.22
   6   1   6   23.00    1.15
  -7  -1  -6    3.73    0.55
  -7  -1  -6    3.57    0.66
   7   1   6    3.95    0.43
   7   1   6    3.44    0.82
   7   1   6    4.29    0.43
   7   1   6    2.35    0.59
   7   1   6    5.10    0.70
   7   1   6    3.78    0.62
  -8  -1  -6    5.28    0.81
  -8  -1  -6    6.36    0.72
   8   1   6    4.17    0.98
   8   1   6    6.36    0.83
   8   1   6    6.10    0.67
   8   1   6    6.21    0.67
   8   1   6    5.28    0.76
  -9  -1  -6    0.90    0.92
  -9  -1  -6    0.72    0.64
   9   1   6    0.64    0.46
   9   1   6    0.67    0.76
   9   1   6   -1.01    0.70
   9   1   6    0.47    0.62
   8  -2  -6    4.88    0.86
   8  -2  -6    3.47    0.80
   8  -2  -6    4.91    0.88
   8  -2  -6    4.33    0.74
   8  -2  -6    2.69    1.16
  -8   2   6    3.94    0.86
  -8   2   6    5.42    0.71
   7  -2  -6   37.96    1.39
   7  -2  -6   37.55    1.69
   7  -2  -6   36.70    1.62
   7  -2  -6   36.60    1.46
   7  -2  -6   38.61    1.81
  -7   2   6   38.82    1.09
  -7   2   6   36.67    1.30
  -7   2   6   34.92    1.64
  -7   2   6   36.81    1.05
  -7   2   6   37.02    1.72
   6  -2  -6  177.78    3.81
   6  -2  -6  180.50    3.68
   6  -2  -6  179.52    3.80
   6  -2  -6  178.66    3.46
   6  -2  -6  180.75    3.49
  -6   2   6  179.02    3.31
  -6   2   6  182.54    3.22
  -6   2   6  180.21    3.22
  -6   2   6  179.25    3.81
  -6   2   6  173.58    3.78
   5  -2  -6    0.55    0.41
   5  -2  -6    0.38    0.41
   5  -2  -6    0.07    0.41
   5  -2  -6   -0.11    0.43
   5  -2  -6    0.73    0.55
  -5   2   6    0.71    0.46
  -5   2   6    0.30    0.35
  -5   2   6    1.00    0.36
  -5   2   6    0.65    0.33
  -5   2   6    0.77    0.49
   4  -2  -6    2.03    0.46
   4  -2  -6    1.61    0.39
   4  -2  -6    1.63    0.49
   4  -2  -6    1.36    0.39
   4  -2  -6    1.38    0.36
  -4   2   6    1.45    0.35
  -4   2   6    2.05    0.46
  -4   2   6    1.05    0.40
  -4   2   6    1.77    0.36
  -4   2   6    2.00    0.37
   3  -2  -6   38.46    1.10
   3  -2  -6   39.60    1.13
   3  -2  -6   37.10    1.23
   3  -2  -6   38.12    1.14
  -3   2   6   38.36    1.07
  -3   2   6   34.19    1.40
  -3   2   6   37.76    1.20
  -3   2   6   38.50    1.04
  -3   2   6   37.83    1.06
   2  -2  -6   56.87    1.34
   2  -2  -6   57.14    1.47
   2  -2  -6   58.90    1.38
   2  -2  -6   57.93    1.37
  -2   2   6   56.02    1.31
  -2   2   6   55.71    1.42
  -2   2   6   58.03    1.47
  -2   2   6   56.75    1.35
  -2   2   6   56.34    1.34
   1  -2  -6  247.71    4.14
   1  -2  -6  247.20    4.24
   1  -2  -6  256.08    4.26
   1  -2  -6  252.81    4.36
   1  -2  -6  244.35    4.35
  -1   2   6  251.30    4.36
  -1   2   6  250.87    4.02
  -1   2   6  250.91    4.25
  -1   2   6  258.98    4.21
  -1   2   6  247.78    4.24
   0  -2  -6   13.72    0.61
   0  -2  -6   14.95    0.62
   0  -2  -6   14.28    0.74
   0  -2  -6   13.44    0.50
   0  -2  -6   15.20    0.72
   0   2   6   15.66    0.57
   0   2   6   13.41    0.62
   0   2   6   14.45    0.72
   0   2   6   13.62    0.63
   0   2   6   14.96    0.57
   0   2   6   14.49    0.73
  -1  -2  -6    8.92    0.58
  -1  -2  -6    9.14    0.50
  -1  -2  -6    9.41    0.35
  -1  -2  -6    8.78    0.49
   1   2   6    8.82    0.63
   1   2   6    9.21    0.61
   1   2   6    8.94    0.39
   1   2   6    8.11    0.51
   1   2   6    9.94    0.56
   1   2   6    8.51    0.52
  -2  -2  -6   -0.03    0.22
  -2  -2  -6    0.41    0.20
   2   2   6    0.51    0.24
   2   2   6    0.62    0.24
   2   2   6    0.70    0.30
   2   2   6    0.71    0.27
   2   2   6    0.62    0.31
  -3  -2  -6   89.36    1.68
  -3  -2  -6   88.69    1.57
  -3  -2  -6   86.44    1.56
   3   2   6   87.76    1.70
   3   2   6   88.46    1.71
   3   2   6   89.82    1.71
   3   2   6   87.73    1.94
  -4  -2  -6   71.85    1.76
  -4  -2  -6   72.76    1.40
   4   2   6   71.17    1.42
   4   2   6   70.45    1.76
   4   2   6   71.55    1.41
   4   2   6   70.11    1.42
   4   2   6   68.52    1.71
   4   2   6   71.46    1.25
  -5  -2  -6    4.60    0.47
  -5  -2  -6    3.66    0.39
  -5  -2  -6    2.93    0.49
   5   2   6    3.57    0.54
   5   2   6    3.23    0.46
   5   2   6    3.57    0.41
   5   2   6    3.60    0.39
   5   2   6    2.82    0.35
  -6  -2  -6    3.57    0.43
  -6  -2  -6    2.94    0.54
   6   2   6    3.49    0.33
   6   2   6    3.93    0.96
   6   2   6    3.91    0.42
   6   2   6    3.19    0.41
   6   2   6    3.28    0.66
  -7  -2  -6   -0.33    0.45
   7   2   6   -0.08    0.26
   7   2   6   -0.21    0.24
   7   2   6   -0.07    0.33
   7   2   6   -0.19    0.61
   7   2   6    0.51    0.27
   7   2   6    0.66    0.49
   7   2   6    0.18    0.39
  -8  -2  -6   39.96    1.70
  -8  -2  -6   41.90    1.37
   8   2   6   39.90    1.80
   8   2   6   40.05    1.57
   8   2   6   40.49    1.55
   8   2   6   38.86    1.00
   8   2   6   40.71    1.01
   8   2   6   39.62    0.99
   8   2   6   38.94    1.25
  -9  -2  -6   19.86    1.20
  -9  -2  -6   16.27    1.40
   9   2   6   11.90    1.43
   9   2   6   17.74    1.34
   9   2   6   19.45    1.81
   9   2   6   18.80    1.36
   8  -3  -6   33.38    2.08
   8  -3  -6   29.67    1.50
  -8   3   6   30.22    1.72
   7  -3  -6    1.00    0.70
   7  -3  -6    1.53    0.68
   7  -3  -6    2.16    0.87
   7  -3  -6    1.42    0.58
   7  -3  -6    1.92    0.75
  -7   3   6    0.29    0.63
  -7   3   6    2.37    0.49
  -7   3   6    1.46    0.46
  -7   3   6    1.49    0.65
   6  -3  -6   24.92    1.57
   6  -3  -6   26.08    1.45
   6  -3  -6   26.24    1.27
   6  -3  -6   23.67    1.33
   6  -3  -6   25.15    1.17
  -6   3   6   27.53    1.02
  -6   3   6   26.03    1.26
  -6   3   6   24.04    1.35
  -6   3   6   25.75    0.99
   5  -3  -6    3.59    0.66
   5  -3  -6    3.00    0.57
   5  -3  -6    4.10    0.55
   5  -3  -6    2.92    0.69
   5  -3  -6    3.62    0.59
  -5   3   6    4.61    0.51
  -5   3   6    3.69    0.49
  -5   3   6    3.07    0.61
   4  -3  -6    7.44    0.98
   4  -3  -6    8.35    0.73
   4  -3  -6    7.46    0.83
   4  -3  -6    6.79    0.94
  -4   3   6    7.05    0.64
  -4   3   6    8.02    0.66
  -4   3   6    7.77    0.81
  -4   3   6    7.48    0.90
  -4   3   6    7.83    0.73
   3  -3  -6   49.33    1.53
   3  -3  -6   49.66    1.33
   3  -3  -6   48.96    1.31
   3  -3  -6   47.31    1.45
  -3   3   6   46.98    1.41
  -3   3   6   47.87    1.28
  -3   3   6   48.54    1.47
  -3   3   6   46.72    1.27
   2  -3  -6    2.29    0.39
   2  -3  -6    1.76    0.43
   2  -3  -6    1.84    0.40
   2  -3  -6    2.45    0.37
   2  -3  -6    1.91    0.26
  -2   3   6    1.34    0.39
  -2   3   6    2.24    0.39
  -2   3   6    1.85    0.35
  -2   3   6    1.56    0.35
  -2   3   6    1.71    0.36
   1  -3  -6  115.16    2.39
   1  -3  -6  117.68    2.26
   1  -3  -6  113.97    2.02
   1  -3  -6  115.10    2.26
   1  -3  -6  115.96    2.35
  -1   3   6  116.49    2.34
  -1   3   6  117.32    2.26
  -1   3   6  114.89    2.26
  -1   3   6  116.34    2.28
  -1   3   6  120.44    2.26
  -1   3   6  115.69    2.41
   0  -3  -6   56.38    1.20
   0  -3  -6   54.41    1.39
   0  -3  -6   54.37    1.28
   0  -3  -6   54.91    1.37
   0  -3  -6   55.34    1.29
   0  -3  -6   53.97    1.16
   0   3   6   55.47    1.37
   0   3   6   56.61    1.31
   0   3   6   56.88    1.32
   0   3   6   54.96    1.43
   0   3   6   57.13    1.21
   0   3   6   57.82    1.23
  -1  -3  -6    0.42    0.23
  -1  -3  -6    0.48    0.23
  -1  -3  -6    0.59    0.16
  -1  -3  -6    0.30    0.26
  -1  -3  -6    0.33    0.27
  -1  -3  -6    0.00    0.28
   1   3   6    0.56    0.30
   1   3   6    0.53    0.26
   1   3   6    0.37    0.28
   1   3   6    0.33    0.32
   1   3   6    0.69    0.22
   1   3   6    0.20    0.23
  -2  -3  -6   68.39    1.52
  -2  -3  -6   67.95    1.36
  -2  -3  -6   69.43    1.51
  -2  -3  -6   65.98    1.38
   2   3   6   67.80    1.50
   2   3   6   67.95    1.44
   2   3   6   68.26    1.43
   2   3   6   67.42    1.52
   2   3   6   68.56    1.53
  -3  -3  -6  225.44    3.80
  -3  -3  -6  220.84    3.60
   3   3   6  217.14    3.72
   3   3   6  224.61    3.73
   3   3   6  224.46    3.83
   3   3   6  223.73    3.81
   3   3   6  225.68    3.96
  -4  -3  -6  385.14    6.38
  -4  -3  -6  379.41    6.11
   4   3   6  373.58    6.01
   4   3   6  375.05    6.37
   4   3   6  377.86    6.02
   4   3   6  382.33    6.12
  -5  -3  -6    3.12    0.46
  -5  -3  -6    3.59    0.37
   5   3   6    3.65    0.50
   5   3   6    4.71    0.47
   5   3   6    3.67    0.38
   5   3   6    3.98    0.38
   5   3   6    3.89    0.54
  -6  -3  -6    1.68    0.32
  -6  -3  -6    1.41    0.31
  -6  -3  -6    1.16    0.41
   6   3   6    1.08    0.24
   6   3   6    1.15    0.29
   6   3   6    1.41    0.52
   6   3   6    1.32    0.25
   6   3   6    1.02    0.41
   6   3   6    1.62    0.24
  -7  -3  -6    2.17    0.41
  -7  -3  -6    1.69    0.51
   7   3   6    1.27    0.32
   7   3   6    1.67    0.49
   7   3   6    1.07    0.64
   7   3   6    1.92    0.32
  -8  -3  -6   75.37    1.75
  -8  -3  -6   72.68    2.21
   8   3   6   70.85    1.62
   8   3   6   76.47    1.67
   8   3   6   74.06    1.95
   8   3   6   73.96    2.25
   8   3   6   73.62    2.06
  -9  -3  -6   87.16    2.56
  -9  -3  -6   85.23    2.04
   9   3   6   82.86    1.82
   9   3   6   85.16    1.95
   9   3   6   83.79    2.29
   9   3   6   84.39    2.24
   9   3   6   81.21    2.55
 -10  -3  -6    9.28    1.17
 -10  -3  -6    9.37    1.56
  10   3   6   12.37    1.33
  10   3   6   13.43    1.10
  10   3   6   12.85    1.38
  10   3   6    8.99    0.85
   7  -4  -6   12.38    1.50
   7  -4  -6   11.02    1.21
   7  -4  -6   11.38    1.42
   7  -4  -6    8.60    1.20
   7  -4  -6   11.81    1.69
  -7   4   6   12.52    1.14
  -7   4   6    9.61    1.04
  -7   4   6   10.74    1.33
   6  -4  -6    0.78    0.66
   6  -4  -6   -1.00    0.75
   6  -4  -6    1.00    0.68
   6  -4  -6    0.45    0.53
   6  -4  -6    0.08    0.53
  -6   4   6   -0.42    0.67
  -6   4   6    1.29    0.54
  -6   4   6    0.22    0.46
  -6   4   6    0.80    0.59
   5  -4  -6   25.16    1.26
   5  -4  -6   28.57    1.43
   5  -4  -6   24.74    1.13
   5  -4  -6   23.51    1.49
  -5   4   6   24.42    1.25
  -5   4   6   24.45    1.06
  -5   4   6   25.52    1.06
  -5   4   6   24.87    1.33
   4  -4  -6    1.12    0.48
   4  -4  -6    0.45    0.23
   4  -4  -6    0.74    0.51
   4  -4  -6    0.74    0.41
   4  -4  -6    0.82    0.59
  -4   4   6    0.01    0.51
  -4   4   6    0.68    0.49
  -4   4   6    0.84    0.49
  -4   4   6    0.48    0.42
  -4   4   6    1.37    0.41
   3  -4  -6  170.47    3.42
   3  -4  -6  182.20    3.41
   3  -4  -6  179.72    2.98
   3  -4  -6  181.22    3.58
   3  -4  -6  181.81    3.59
  -3   4   6  181.50    3.34
  -3   4   6  163.75    3.66
  -3   4   6  187.87    3.34
  -3   4   6  176.17    3.53
  -3   4   6  186.37    3.60
   2  -4  -6   27.63    0.98
   2  -4  -6   27.38    0.74
   2  -4  -6   26.91    0.99
   2  -4  -6   29.34    1.16
   2  -4  -6   27.53    1.09
  -2   4   6   26.33    0.96
  -2   4   6   27.42    1.10
  -2   4   6   28.18    1.04
  -2   4   6   28.15    0.97
  -2   4   6   27.76    1.15
  -2   4   6   28.86    1.04
   1  -4  -6   28.13    1.01
   1  -4  -6   27.58    0.76
   1  -4  -6   26.48    1.08
   1  -4  -6   28.55    0.93
   1  -4  -6   25.68    1.07
  -1   4   6   27.65    1.01
  -1   4   6   27.89    0.95
  -1   4   6   27.65    0.99
  -1   4   6   26.49    0.92
  -1   4   6   27.17    1.08
  -1   4   6   27.59    0.92
   0  -4  -6    0.15    0.32
   0  -4  -6   -0.10    0.25
   0  -4  -6   -0.11    0.26
   0  -4  -6    0.45    0.23
   0  -4  -6    0.17    0.25
   0   4   6   -0.19    0.29
   0   4   6    0.10    0.32
   0   4   6    0.05    0.26
   0   4   6    1.02    0.30
   0   4   6   -0.02    0.26
   0   4   6   -0.01    0.27
  -1  -4  -6   43.22    1.15
  -1  -4  -6   44.54    1.11
  -1  -4  -6   44.12    1.24
  -1  -4  -6   42.93    1.09
  -1  -4  -6   44.47    1.12
   1   4   6   44.17    1.15
   1   4   6   43.55    1.12
   1   4   6   44.64    1.14
   1   4   6   43.03    1.15
   1   4   6   45.63    1.03
   1   4   6   44.89    1.29
  -2  -4  -6  147.11    2.43
  -2  -4  -6  148.38    2.72
  -2  -4  -6  151.80    2.84
  -2  -4  -6  151.54    2.65
  -2  -4  -6  150.34    2.67
  -2  -4  -6  146.93    2.78
   2   4   6  156.50    2.49
   2   4   6  149.74    2.72
   2   4   6  150.95    2.85
   2   4   6  149.56    2.71
   2   4   6  151.82    2.81
   2   4   6  150.58    2.72
  -3  -4  -6   61.87    1.27
  -3  -4  -6   63.56    1.47
  -3  -4  -6   62.66    1.54
  -3  -4  -6   64.18    1.26
   3   4   6   62.70    1.54
   3   4   6   61.87    1.34
   3   4   6   64.11    1.40
   3   4   6   63.18    1.50
   3   4   6   63.41    1.37
  -4  -4  -6   16.89    0.75
  -4  -4  -6   18.15    0.83
  -4  -4  -6   17.02    0.83
   4   4   6   16.93    0.69
   4   4   6   16.00    0.60
   4   4   6   16.37    0.83
   4   4   6   16.76    0.63
   4   4   6   16.24    0.74
  -5  -4  -6   22.26    0.94
  -5  -4  -6   22.84    0.84
  -5  -4  -6   23.54    1.01
   5   4   6   22.78    1.00
   5   4   6   22.00    0.67
   5   4   6   21.12    0.68
   5   4   6   22.67    0.84
  -6  -4  -6    7.60    0.64
  -6  -4  -6    6.03    0.77
   6   4   6    7.49    0.45
   6   4   6    7.38    0.71
   6   4   6    8.61    0.84
   6   4   6    8.02    0.62
   6   4   6    6.86    0.43
  -7  -4  -6   36.94    1.40
  -7  -4  -6   38.06    1.01
   7   4   6   33.29    1.35
   7   4   6   35.52    1.13
   7   4   6   38.03    1.51
   7   4   6   36.49    0.90
  -8  -4  -6   26.24    1.36
  -8  -4  -6   26.81    1.02
   8   4   6   24.00    1.02
   8   4   6   27.80    1.49
   8   4   6   26.17    0.89
   8   4   6   26.80    1.25
   8   4   6   26.82    1.09
  -9  -4  -6   80.16    1.92
  -9  -4  -6   79.14    2.39
   9   4   6   79.07    2.19
   9   4   6   79.50    2.04
   9   4   6   79.04    2.45
   9   4   6   81.69    1.82
   9   4   6   81.15    1.89
 -10  -4  -6    5.42    0.76
 -10  -4  -6    6.64    0.94
  10   4   6    5.14    0.76
  10   4   6    6.07    0.65
  10   4   6    5.22    0.66
  10   4   6    5.62    0.83
   6  -5  -6    7.80    1.07
   6  -5  -6    6.46    1.05
   6  -5  -6    9.19    1.07
   6  -5  -6   11.14    1.28
   6  -5  -6   11.37    1.18
  -6   5   6   10.24    1.08
  -6   5   6    9.39    0.94
   5  -5  -6   48.53    1.94
   5  -5  -6   48.71    1.19
   5  -5  -6   46.81    1.93
   5  -5  -6   52.44    1.74
   5  -5  -6   48.37    1.64
   5  -5  -6   50.87    1.74
  -5   5   6   49.25    1.87
  -5   5   6   46.92    2.31
  -5   5   6   51.64    1.84
  -5   5   6   48.01    1.59
  -5   5   6   53.63    1.56
   4  -5  -6    3.20    0.60
   4  -5  -6    1.75    0.61
   4  -5  -6    1.91    0.59
   4  -5  -6    1.84    0.51
   4  -5  -6   -0.04    0.63
   4  -5  -6    2.40    0.36
  -4   5   6    3.30    0.70
  -4   5   6    2.83    0.55
  -4   5   6    1.65    0.56
  -4   5   6    1.78    0.63
  -4   5   6    2.36    0.53
   3  -5  -6   73.71    1.55
   3  -5  -6   73.04    2.03
   3  -5  -6   75.11    2.09
   3  -5  -6   73.45    1.91
   3  -5  -6   74.06    1.88
  -3   5   6   76.37    2.00
  -3   5   6   75.56    1.83
  -3   5   6   71.72    2.01
  -3   5   6   74.56    2.06
   2  -5  -6   67.83    1.71
   2  -5  -6   69.49    1.91
   2  -5  -6   67.87    2.52
   2  -5  -6   67.31    1.47
   2  -5  -6   70.19    1.75
  -2   5   6   68.87    1.84
  -2   5   6   67.78    1.68
  -2   5   6   68.00    1.80
  -2   5   6   69.20    1.81
  -2   5   6   68.91    1.70
   1  -5  -6    6.48    0.59
   1  -5  -6    5.17    0.61
   1  -5  -6    5.03    0.56
   1  -5  -6    6.88    0.81
   1  -5  -6    5.95    0.50
  -1   5   6    5.31    0.57
  -1   5   6    5.34    0.60
  -1   5   6    5.07    0.53
  -1   5   6    5.07    0.65
  -1   5   6    5.75    0.79
  -1   5   6    5.14    0.67
   0  -5  -6   72.86    1.68
   0  -5  -6   74.63    1.85
   0  -5  -6   73.91    1.69
   0  -5  -6   73.94    1.72
   0  -5  -6   73.88    1.60
   0   5   6   73.45    1.86
   0   5   6   74.06    1.69
   0   5   6   73.81    1.69
   0   5   6   76.22    1.69
   0   5   6   75.75    1.72
  -1  -5  -6  178.70    3.38
  -1  -5  -6  176.96    3.21
  -1  -5  -6  172.68    3.19
  -1  -5  -6  178.81    3.21
  -1  -5  -6  174.25    3.19
   1   5   6  175.86    3.22
   1   5   6  177.46    3.23
   1   5   6  178.62    3.36
   1   5   6  185.50    3.15
   1   5   6  179.06    3.40
   1   5   6  178.41    3.21
  -2  -5  -6  338.44    5.43
  -2  -5  -6  334.23    5.71
  -2  -5  -6  339.05    5.59
  -2  -5  -6  343.90    5.62
  -2  -5  -6  342.74    5.81
  -2  -5  -6  336.19    5.60
   2   5   6  340.05    5.59
   2   5   6  343.36    5.67
   2   5   6  350.49    5.85
   2   5   6  347.59    5.76
   2   5   6  343.84    5.65
   2   5   6  352.97    5.49
  -3  -5  -6    0.81    0.25
  -3  -5  -6    1.61    0.38
  -3  -5  -6    0.85    0.26
  -3  -5  -6    0.77    0.19
  -3  -5  -6    1.14    0.34
  -3  -5  -6    0.78    0.26
   3   5   6    0.59    0.31
   3   5   6    0.80    0.29
   3   5   6    0.51    0.27
   3   5   6    0.97    0.24
   3   5   6    0.93    0.38
   3   5   6    1.02    0.28
  -4  -5  -6   50.52    1.04
  -4  -5  -6   51.05    1.36
  -4  -5  -6   48.90    1.04
  -4  -5  -6   48.95    1.40
  -4  -5  -6   51.26    1.35
   4   5   6   49.86    1.19
   4   5   6   49.68    1.36
   4   5   6   49.01    1.50
   4   5   6   49.15    1.15
   4   5   6   50.26    1.16
  -5  -5  -6   17.17    0.83
  -5  -5  -6   15.93    0.84
  -5  -5  -6   16.35    0.91
   5   5   6   16.20    0.67
   5   5   6   17.16    0.93
   5   5   6   16.26    0.61
   5   5   6   15.87    0.64
   5   5   6   16.70    0.82
  -6  -5  -6    3.48    0.46
  -6  -5  -6    3.46    0.53
  -6  -5  -6    2.68    0.81
   6   5   6    4.16    0.65
   6   5   6    4.30    0.42
   6   5   6    4.22    0.54
   6   5   6    4.25    0.47
   6   5   6    4.79    0.45
  -7  -5  -6   82.44    2.07
   7   5   6   83.53    2.21
   7   5   6   77.14    1.52
   7   5   6   80.73    1.56
   7   5   6   83.75    1.92
   7   5   6   78.41    1.53
  -8  -5  -6    0.81    0.56
   8   5   6    0.43    0.37
   8   5   6    1.78    0.71
   8   5   6    1.67    0.51
   8   5   6    0.36    0.41
   8   5   6    0.54    0.31
  -9  -5  -6    6.33    0.83
  -9  -5  -6    6.51    0.86
   9   5   6    8.64    0.99
   9   5   6    5.89    0.68
   9   5   6    8.42    1.05
   9   5   6    5.75    0.62
   9   5   6    7.39    0.87
 -10  -5  -6    0.70    0.58
 -10  -5  -6    0.05    0.62
  10   5   6    1.28    0.55
  10   5   6    0.55    0.54
  10   5   6    0.39    0.47
  10   5   6    0.06    0.63
   5  -6  -6   66.93    2.41
   5  -6  -6   71.02    2.22
   5  -6  -6   66.16    1.64
   5  -6  -6   67.92    2.35
   5  -6  -6   67.94    2.07
  -5   6   6   64.84    2.31
  -5   6   6   70.02    2.00
  -5   6   6   65.07    2.30
  -5   6   6   69.34    1.91
   4  -6  -6    0.88    0.65
   4  -6  -6   -0.52    0.72
   4  -6  -6    0.19    0.51
   4  -6  -6    1.12    0.64
   4  -6  -6   -0.58    0.63
   4  -6  -6    0.61    0.43
  -4   6   6   -0.37    0.67
  -4   6   6   -0.30    0.52
  -4   6   6    0.29    0.57
  -4   6   6   -0.47    0.49
   3  -6  -6   65.27    1.89
   3  -6  -6   67.44    2.06
   3  -6  -6   65.26    1.94
   3  -6  -6   64.46    1.57
   3  -6  -6   68.40    2.09
   3  -6  -6   63.24    1.82
  -3   6   6   62.08    2.04
  -3   6   6   67.44    1.78
  -3   6   6   63.08    1.96
  -3   6   6   66.27    1.81
  -3   6   6   67.64    2.04
   2  -6  -6   24.23    1.21
   2  -6  -6   26.34    1.35
   2  -6  -6   24.55    1.10
   2  -6  -6   25.19    1.16
   2  -6  -6   22.58    0.89
  -2   6   6   24.80    1.27
  -2   6   6   24.10    1.08
  -2   6   6   24.81    1.25
  -2   6   6   27.45    1.35
  -2   6   6   24.27    1.10
  -2   6   6   24.25    1.19
   1  -6  -6    3.01    0.50
   1  -6  -6    2.25    0.49
   1  -6  -6    1.84    0.53
   1  -6  -6    3.18    0.46
   1  -6  -6    3.19    0.49
  -1   6   6    3.30    0.54
  -1   6   6    3.32    0.56
  -1   6   6    2.98    0.48
  -1   6   6    2.48    0.55
  -1   6   6    3.06    0.59
  -1   6   6    2.67    0.51
   0  -6  -6  159.82    3.18
   0  -6  -6  146.03    3.23
   0  -6  -6  155.22    3.01
   0  -6  -6  153.89    2.98
   0  -6  -6  155.30    2.92
   0   6   6  156.01    3.15
   0   6   6  149.23    3.23
   0   6   6  155.87    3.00
   0   6   6  154.62    3.02
   0   6   6  154.29    3.01
   0   6   6  147.75    3.26
  -1  -6  -6    0.05    0.29
  -1  -6  -6    0.05    0.28
  -1  -6  -6   -0.15    0.34
  -1  -6  -6   -0.05    0.30
  -1  -6  -6   -0.15    0.28
  -1  -6  -6   -0.21    0.32
   1   6   6   -0.05    0.30
   1   6   6    0.16    0.32
   1   6   6   -0.51    0.36
   1   6   6   -0.06    0.31
   1   6   6   -0.15    0.33
   1   6   6    0.04    0.38
  -2  -6  -6  114.24    2.14
  -2  -6  -6  112.69    2.19
  -2  -6  -6  111.66    2.44
  -2  -6  -6  111.56    2.33
  -2  -6  -6  104.78    2.44
  -2  -6  -6  111.53    2.23
   2   6   6  114.27    2.47
   2   6   6  113.58    2.31
   2   6   6  114.72    2.45
   2   6   6  112.79    2.17
   2   6   6  112.42    2.18
   2   6   6  113.90    2.29
  -3  -6  -6   15.97    0.69
  -3  -6  -6   16.03    0.89
  -3  -6  -6   15.81    0.62
  -3  -6  -6   14.91    0.64
  -3  -6  -6   16.13    0.83
  -3  -6  -6   16.44    0.69
   3   6   6   16.96    0.66
   3   6   6   16.97    0.94
   3   6   6   16.49    0.90
   3   6   6   14.88    0.64
   3   6   6   15.25    1.05
   3   6   6   16.04    0.76
   3   6   6   15.69    0.72
  -4  -6  -6    4.64    0.44
  -4  -6  -6    3.72    0.44
  -4  -6  -6    3.36    0.48
  -4  -6  -6    4.92    0.58
  -4  -6  -6    4.17    0.47
  -4  -6  -6    4.37    0.41
   4   6   6    3.97    0.43
   4   6   6    3.60    0.48
   4   6   6    4.27    0.57
   4   6   6    4.17    0.48
   4   6   6    4.14    0.48
   4   6   6    4.72    0.44
  -5  -6  -6   38.47    0.84
  -5  -6  -6   39.23    1.33
  -5  -6  -6   38.14    1.34
  -5  -6  -6   39.95    0.88
  -5  -6  -6   41.34    1.31
   5   6   6   39.79    0.94
   5   6   6   38.05    1.07
   5   6   6   41.54    1.39
   5   6   6   37.91    1.28
   5   6   6   39.46    1.05
  -6  -6  -6    0.91    0.47
  -6  -6  -6    0.85    0.23
  -6  -6  -6    0.65    0.40
  -6  -6  -6    0.25    0.38
   6   6   6    0.18    0.37
   6   6   6    0.46    0.27
   6   6   6    0.50    0.31
   6   6   6    0.40    0.22
   6   6   6    0.69    0.52
   6   6   6    0.40    0.28
  -7  -6  -6   48.11    1.51
  -7  -6  -6   49.92    1.68
  -7  -6  -6   52.94    1.59
   7   6   6   50.56    1.18
   7   6   6   47.27    1.07
   7   6   6   49.09    1.50
   7   6   6   50.99    1.76
   7   6   6   49.65    1.18
   7   6   6   48.88    1.13
   7   6   6   48.95    1.14
  -8  -6  -6   12.77    1.11
  -8  -6  -6   12.55    1.02
  -8  -6  -6   11.89    1.10
   8   6   6   11.14    0.61
   8   6   6    9.79    1.21
   8   6   6   10.26    0.57
   8   6   6    9.83    0.95
   8   6   6   10.74    0.61
   8   6   6   11.29    0.65
  -9  -6  -6    2.87    0.66
   9   6   6    3.85    0.48
   9   6   6    3.71    0.63
   9   6   6    4.95    0.98
   9   6   6    3.24    0.45
   9   6   6    2.96    0.64
 -10  -6  -6    9.69    1.20
  10   6   6   12.75    1.17
  10   6   6    9.77    0.86
  10   6   6   10.47    0.94
  10   6   6    9.18    1.15
 -11  -6  -6    5.04    0.93
  11   6   6    7.15    0.93
  11   6   6    5.71    0.68
  11   6   6    6.87    0.86
   4  -7  -6   10.70    1.12
   4  -7  -6    7.82    1.06
   4  -7  -6    9.09    1.16
   4  -7  -6   10.17    1.08
   4  -7  -6    8.65    0.97
  -4   7   6   11.08    1.15
  -4   7   6    8.63    1.16
   3  -7  -6   23.05    1.48
   3  -7  -6   21.98    1.07
   3  -7  -6   21.25    1.40
   3  -7  -6   22.32    1.76
   3  -7  -6   20.57    1.56
   3  -7  -6   22.48    1.27
  -3   7   6   20.20    1.33
  -3   7   6   21.84    1.20
  -3   7   6   22.26    1.54
   2  -7  -6    3.08    0.68
   2  -7  -6    1.94    0.57
   2  -7  -6    3.33    0.57
   2  -7  -6    2.31    0.61
   2  -7  -6    1.37    0.70
   2  -7  -6    1.45    0.66
  -2   7   6    2.66    0.73
  -2   7   6    1.78    0.55
  -2   7   6    2.54    0.61
  -2   7   6    2.14    0.67
   1  -7  -6   28.09    1.28
   1  -7  -6   29.04    1.20
   1  -7  -6   27.12    1.39
   1  -7  -6   28.66    1.09
  -1   7   6   28.17    1.18
  -1   7   6   29.16    1.33
  -1   7   6   28.08    1.28
  -1   7   6   27.31    1.41
  -1   7   6   27.74    1.39
  -1   7   6   26.31    1.20
   0  -7  -6   73.10    1.93
   0  -7  -6   73.23    2.03
   0  -7  -6   69.97    1.82
   0  -7  -6   71.45    1.78
   0  -7  -6   71.86    1.84
   0  -7  -6   71.98    1.84
   0   7   6   71.46    1.84
   0   7   6   71.70    1.89
   0   7   6   71.52    2.05
   0   7   6   73.82    1.86
   0   7   6   73.72    1.88
   0   7   6   72.23    2.04
  -1  -7  -6   14.96    0.88
  -1  -7  -6   15.81    1.11
  -1  -7  -6   13.79    0.86
  -1  -7  -6   14.02    0.86
  -1  -7  -6   14.94    0.84
  -1  -7  -6   15.45    0.86
   1   7   6   16.03    0.89
   1   7   6   14.22    0.83
   1   7   6   15.59    1.06
   1   7   6   15.00    0.84
   1   7   6   15.84    0.92
   1   7   6   14.04    1.06
  -2  -7  -6   43.75    1.29
  -2  -7  -6   46.21    1.39
  -2  -7  -6   46.75    1.23
  -2  -7  -6   44.85    1.29
  -2  -7  -6   45.96    1.51
  -2  -7  -6   45.25    1.25
   2   7   6   46.94    1.37
   2   7   6   44.24    1.28
   2   7   6   46.19    1.53
   2   7   6   45.12    1.21
   2   7   6   43.93    1.50
   2   7   6   45.51    1.33
  -3  -7  -6    4.74    0.60
  -3  -7  -6    5.23    0.70
  -3  -7  -6    5.54    0.60
  -3  -7  -6    5.26    0.53
  -3  -7  -6    5.97    0.59
  -3  -7  -6    4.94    0.60
   3   7   6    5.77    0.68
   3   7   6    5.78    0.59
   3   7   6    4.89    0.76
   3   7   6    5.14    0.52
   3   7   6    5.75    0.68
   3   7   6    4.54    0.50
  -4  -7  -6    0.58    0.31
  -4  -7  -6   -0.07    0.41
  -4  -7  -6    0.48    0.30
  -4  -7  -6    0.51    0.46
  -4  -7  -6   -0.07    0.35
  -4  -7  -6    0.54    0.31
   4   7   6    0.48    0.47
   4   7   6    0.15    0.32
   4   7   6    0.12    0.35
   4   7   6   -0.10    0.31
   4   7   6    0.19    0.23
   4   7   6    0.20    0.46
  -5  -7  -6   80.09    1.62
  -5  -7  -6   79.24    1.57
  -5  -7  -6   79.31    2.03
  -5  -7  -6   79.81    2.05
  -5  -7  -6   79.15    1.73
  -5  -7  -6   80.10    1.59
   5   7   6   79.55    2.05
   5   7   6   80.90    2.05
   5   7   6   79.31    2.13
   5   7   6   77.60    1.74
   5   7   6   80.13    1.79
   5   7   6   79.50    1.44
  -6  -7  -6    9.50    0.79
  -6  -7  -6   10.46    0.58
  -6  -7  -6    7.04    0.91
  -6  -7  -6   11.36    0.98
   6   7   6    9.72    1.02
   6   7   6   10.23    0.56
   6   7   6   10.20    0.92
   6   7   6    8.71    0.64
   6   7   6   12.00    0.73
  -7  -7  -6   25.33    1.30
  -7  -7  -6   25.01    0.83
  -7  -7  -6   22.79    1.06
  -7  -7  -6   26.23    1.28
   7   7   6   23.72    1.19
   7   7   6   25.67    0.92
   7   7   6   24.63    0.86
   7   7   6   24.17    0.81
  -8  -7  -6    0.11    0.59
  -8  -7  -6    0.63    0.55
  -8  -7  -6    0.03    0.49
   8   7   6   -0.11    0.28
   8   7   6    0.39    0.51
   8   7   6   -0.36    0.36
   8   7   6    0.12    0.32
   8   7   6    0.57    0.73
   8   7   6   -0.08    0.31
  -9  -7  -6   17.84    1.40
  -9  -7  -6   15.80    1.17
   9   7   6   17.34    1.24
   9   7   6   16.05    0.69
   9   7   6   14.05    1.49
   9   7   6   16.41    0.74
   9   7   6   16.09    0.84
   9   7   6   15.66    0.72
   9   7   6   16.93    0.78
 -10  -7  -6   57.75    1.98
  10   7   6   57.12    1.41
  10   7   6   59.86    1.96
  10   7   6   57.46    1.52
  10   7   6   57.97    1.93
 -11  -7  -6    0.54    0.71
  11   7   6    0.07    0.55
  11   7   6    0.39    0.74
  11   7   6    0.50    0.72
   3  -8  -6   18.54    1.24
   3  -8  -6   16.68    1.89
   3  -8  -6   17.25    1.61
   3  -8  -6   17.37    1.39
   3  -8  -6   19.73    1.58
  -3   8   6   16.38    1.29
   2  -8  -6   35.24    1.56
   2  -8  -6   37.72    1.45
   2  -8  -6   39.55    1.75
   2  -8  -6   36.88    1.72
   2  -8  -6   38.68    1.82
   2  -8  -6   37.80    2.23
  -2   8   6   34.83    1.50
  -2   8   6   37.50    1.56
  -2   8   6   35.85    1.61
  -2   8   6   34.76    1.78
  -2   8   6   37.29    1.82
   1  -8  -6   50.88    1.61
   1  -8  -6   50.71    1.68
   1  -8  -6   50.26    1.95
   1  -8  -6   51.43    1.79
  -1   8   6   50.62    1.90
  -1   8   6   51.07    1.67
  -1   8   6   49.70    1.77
  -1   8   6   47.44    1.80
  -1   8   6   45.44    1.91
   0  -8  -6   25.34    1.27
   0  -8  -6   26.21    1.48
   0  -8  -6   28.67    1.26
   0  -8  -6   26.20    1.19
   0  -8  -6   27.76    1.26
   0   8   6   28.38    1.30
   0   8   6   26.75    1.28
   0   8   6   26.49    1.22
   0   8   6   27.69    1.49
  -1  -8  -6    0.88    0.49
  -1  -8  -6    0.51    0.50
  -1  -8  -6    0.71    0.42
  -1  -8  -6    0.45    0.52
  -1  -8  -6    0.61    0.46
  -1  -8  -6    0.69    0.62
   1   8   6    0.59    0.46
   1   8   6    0.74    0.56
   1   8   6    1.01    0.47
   1   8   6    1.02    0.49
  -2  -8  -6    1.39    0.48
  -2  -8  -6    2.02    0.48
  -2  -8  -6    0.73    0.54
  -2  -8  -6    1.41    0.47
  -2  -8  -6    1.33    0.48
  -2  -8  -6    1.59    0.42
   2   8   6    2.09    0.42
   2   8   6    1.03    0.52
   2   8   6    1.93    0.59
   2   8   6    1.23    0.46
   2   8   6    0.47    0.88
   2   8   6    1.34    0.45
  -3  -8  -6   62.99    1.90
  -3  -8  -6   61.24    1.45
  -3  -8  -6   60.98    1.78
  -3  -8  -6   59.08    1.82
  -3  -8  -6   61.62    1.65
  -3  -8  -6   66.70    1.66
   3   8   6   63.93    1.94
   3   8   6   64.55    1.93
   3   8   6   61.67    1.43
   3   8   6   63.15    1.73
   3   8   6   62.50    1.62
   3   8   6   64.71    1.68
  -4  -8  -6   16.78    0.66
  -4  -8  -6   17.55    1.54
  -4  -8  -6   16.20    0.83
  -4  -8  -6   17.80    0.87
  -4  -8  -6   17.45    0.85
  -4  -8  -6   17.79    0.88
  -4  -8  -6   16.64    1.05
   4   8   6   19.16    1.02
   4   8   6   16.44    1.15
   4   8   6   18.04    0.91
   4   8   6   18.11    1.18
   4   8   6   17.46    0.89
   4   8   6   17.12    0.64
  -5  -8  -6   27.49    0.93
  -5  -8  -6   26.99    0.97
  -5  -8  -6   26.58    1.35
  -5  -8  -6   27.96    1.02
  -5  -8  -6   27.67    0.93
  -5  -8  -6   26.19    1.26
   5   8   6   26.47    1.03
   5   8   6   27.43    1.13
   5   8   6   25.62    1.35
   5   8   6   26.33    1.30
  -6  -8  -6   30.10    1.36
  -6  -8  -6   28.90    0.83
  -6  -8  -6   29.93    1.01
  -6  -8  -6   28.42    0.82
  -6  -8  -6   29.35    1.06
  -6  -8  -6   28.83    1.38
   6   8   6   28.63    1.11
   6   8   6   28.18    0.95
   6   8   6   28.07    1.40
   6   8   6   31.32    1.37
  -7  -8  -6    5.08    0.50
  -7  -8  -6    5.13    0.61
  -7  -8  -6    4.65    0.70
  -7  -8  -6    4.20    0.75
   7   8   6    6.12    0.75
   7   8   6    5.50    0.67
   7   8   6    5.62    0.65
   7   8   6    5.81    0.74
   7   8   6    5.61    0.80
  -8  -8  -6   31.09    1.08
  -8  -8  -6   31.28    1.55
  -8  -8  -6   23.35    2.19
  -8  -8  -6   29.48    1.26
   8   8   6   29.62    1.03
   8   8   6   31.00    1.13
   8   8   6   29.15    1.03
   8   8   6   30.59    1.45
  -9  -8  -6    3.56    0.87
  -9  -8  -6    3.10    0.66
   9   8   6    2.69    0.49
   9   8   6    2.25    0.73
   9   8   6    3.44    1.10
   9   8   6    3.24    0.53
   9   8   6    3.85    0.51
 -10  -8  -6   58.41    2.23
 -10  -8  -6   61.30    2.01
  10   8   6   57.00    1.45
  10   8   6   59.08    2.09
  10   8   6   55.75    1.55
  10   8   6   56.14    1.48
   2  -9  -6   38.96    1.99
   2  -9  -6   37.29    1.67
   2  -9  -6   39.29    2.92
  -2   9   6   41.76    2.13
  -2   9   6   36.39    1.72
  -2   9   6   34.67    1.79
   1  -9  -6   80.56    2.39
   1  -9  -6   75.56    2.18
   1  -9  -6   77.81    2.30
   1  -9  -6   81.18    2.86
  -1   9   6   76.88    2.50
  -1   9   6   78.60    2.25
  -1   9   6   73.41    2.35
   0  -9  -6    7.18    0.82
   0  -9  -6    6.04    0.91
   0  -9  -6    6.31    0.83
   0  -9  -6    7.98    1.02
   0   9   6    7.25    0.94
   0   9   6    8.36    1.07
   0   9   6    6.51    0.77
  -1  -9  -6    1.16    0.57
  -1  -9  -6   -0.20    0.53
  -1  -9  -6    0.24    0.61
  -1  -9  -6   -0.83    0.59
  -1  -9  -6   -0.98    0.47
  -1  -9  -6   -0.48    0.66
   1   9   6    0.42    0.61
   1   9   6    0.39    0.53
   1   9   6    0.30    0.55
   1   9   6    0.19    0.51
  -2  -9  -6    6.64    0.77
  -2  -9  -6    6.50    0.81
  -2  -9  -6    6.97    0.89
  -2  -9  -6    6.30    0.80
  -2  -9  -6    5.76    0.85
   2   9   6    5.89    0.84
   2   9   6    7.19    0.92
   2   9   6    8.93    0.92
   2   9   6    7.59    0.91
  -3  -9  -6   85.10    2.12
  -3  -9  -6   87.01    2.11
  -3  -9  -6   86.26    2.09
  -3  -9  -6   85.92    1.88
  -3  -9  -6   86.53    2.30
  -3  -9  -6   85.21    2.42
   3   9   6   82.54    2.38
   3   9   6   85.08    2.42
   3   9   6   83.60    2.13
   3   9   6   85.84    2.22
   3   9   6   84.78    2.14
  -4  -9  -6   28.98    1.16
  -4  -9  -6   28.04    0.89
  -4  -9  -6   26.50    1.36
  -4  -9  -6   29.01    1.13
  -4  -9  -6   29.67    1.26
   4   9   6   28.70    1.20
   4   9   6   26.63    1.41
   4   9   6   28.88    1.21
   4   9   6   25.99    1.29
   4   9   6   25.82    1.52
  -5  -9  -6   21.55    1.28
  -5  -9  -6   22.17    1.02
  -5  -9  -6   23.97    1.11
  -5  -9  -6   22.31    0.98
   5   9   6   22.03    1.08
   5   9   6   22.45    1.21
   5   9   6   22.33    1.35
   5   9   6   22.07    1.40
  -6  -9  -6    4.13    0.63
  -6  -9  -6    4.85    0.78
  -6  -9  -6    4.58    0.49
  -6  -9  -6    4.92    0.52
  -6  -9  -6    4.60    0.52
   6   9   6    6.65    0.83
   6   9   6    4.85    0.79
   6   9   6    4.22    0.60
   6   9   6    4.38    0.67
  -7  -9  -6    0.95    0.64
  -7  -9  -6    0.11    0.49
  -7  -9  -6   -0.14    0.82
  -7  -9  -6    0.69    0.49
   7   9   6   -0.04    0.71
   7   9   6    0.77    0.45
   7   9   6    0.39    0.40
   7   9   6    0.07    0.54
   7   9   6    1.14    0.61
  -8  -9  -6   81.35    2.48
  -8  -9  -6   80.85    2.43
  -8  -9  -6   80.48    1.92
  -8  -9  -6   80.40    1.97
   8   9   6   82.33    2.00
   8   9   6   82.65    2.41
   8   9   6   79.15    1.91
   8   9   6   80.86    2.38
   8   9   6   80.22    1.86
  -9  -9  -6    1.73    0.92
  -9  -9  -6    3.00    0.72
  -9  -9  -6    3.16    0.93
   9   9   6    3.61    0.91
   9   9   6    2.76    0.64
   9   9   6    2.57    0.56
   9   9   6    2.24    0.55
   9   9   6    2.29    0.79
 -10  -9  -6   35.19    1.98
 -10  -9  -6   35.98    1.63
  10   9   6   32.26    1.30
  10   9   6   32.76    1.88
  10   9   6   36.54    1.28
  10   9   6   32.43    1.88
  10   9   6   32.49    1.33
   0 -10  -6   19.72    1.52
   0 -10  -6   19.34    1.45
   0 -10  -6   20.12    1.69
   0  10   6   19.58    1.43
   0  10   6   18.65    1.40
   0  10   6   18.83    1.70
  -1 -10  -6   10.15    1.27
  -1 -10  -6   12.13    1.24
  -1 -10  -6    8.92    1.06
  -1 -10  -6    9.86    1.21
   1  10   6   10.68    1.18
   1  10   6    9.22    1.06
   1  10   6    9.66    1.20
  -2 -10  -6    0.75    0.67
  -2 -10  -6    0.13    0.65
  -2 -10  -6   -0.34    0.62
   2  10   6    0.21    0.55
   2  10   6    1.07    0.63
   2  10   6    0.13    0.69
  -3 -10  -6  122.57    2.85
  -3 -10  -6  121.77    2.79
  -3 -10  -6  124.91    3.48
  -3 -10  -6  117.34    2.49
  -3 -10  -6  118.98    2.98
   3  10   6  118.07    2.83
   3  10   6  124.84    3.13
   3  10   6  121.32    2.85
  -4 -10  -6   62.38    1.91
  -4 -10  -6   59.64    2.05
  -4 -10  -6   59.92    1.90
  -4 -10  -6   59.10    2.17
  -4 -10  -6   54.94    1.39
   4  10   6   58.70    2.12
   4  10   6   60.88    1.92
   4  10   6   60.49    1.84
   4  10   6   53.13    2.08
   4  10   6   59.60    1.83
  -5 -10  -6    1.46    0.78
  -5 -10  -6    3.20    0.63
  -5 -10  -6    2.28    0.70
  -5 -10  -6    3.03    0.78
  -5 -10  -6    2.96    0.57
   5  10   6    1.31    0.72
   5  10   6    2.65    0.84
   5  10   6    2.45    0.61
   5  10   6    1.47    0.70
   5  10   6    2.23    0.60
  -6 -10  -6    3.14    0.62
  -6 -10  -6    1.82    0.51
  -6 -10  -6    3.32    0.82
  -6 -10  -6    1.74    0.64
   6  10   6    4.49    0.88
   6  10   6    1.53    0.67
   6  10   6    1.27    0.71
   6  10   6    2.06    0.60
  -7 -10  -6    1.06    0.46
  -7 -10  -6    1.12    0.67
  -7 -10  -6    0.80    0.42
  -7 -10  -6    1.74    0.74
   7  10   6    1.77    0.84
   7  10   6    0.51    0.58
   7  10   6    0.91    0.72
   7  10   6    1.38    0.70
  -8 -10  -6   86.14    2.19
  -8 -10  -6   87.72    2.64
   8  10   6   84.94    2.15
   8  10   6   89.25    2.65
   8  10   6   84.43    2.26
   8  10   6   84.40    2.10
   8  10   6   85.10    2.60
  -9 -10  -6   17.99    1.32
  -9 -10  -6   21.83    1.73
   9  10   6   20.02    1.36
   9  10   6   17.90    1.64
   9  10   6   16.43    1.19
   9  10   6   18.22    1.74
  -2 -11  -6    9.12    0.95
  -2 -11  -6   10.56    1.22
  -2 -11  -6    9.51    1.06
   2  11   6    7.81    0.95
   2  11   6   10.31    1.22
  -3 -11  -6   33.69    1.88
  -3 -11  -6   31.99    1.36
  -3 -11  -6   33.25    1.63
  -3 -11  -6   34.17    1.81
   3  11   6   33.66    1.73
   3  11   6   32.20    1.59
   3  11   6   32.76    1.95
  -4 -11  -6   14.55    0.94
  -4 -11  -6   13.89    1.26
  -4 -11  -6   14.10    1.47
   4  11   6   15.52    1.23
   4  11   6   13.05    1.29
   4  11   6   17.17    1.64
  -5 -11  -6   25.16    1.65
  -5 -11  -6   24.93    1.32
  -5 -11  -6   21.32    1.96
   5  11   6   25.65    1.39
   5  11   6   26.00    1.42
   5  11   6   23.73    1.73
  -6 -11  -6    0.20    0.60
  -6 -11  -6   -1.35    0.76
  -6 -11  -6    0.80    0.71
  -6 -11  -6    1.58    0.86
   6  11   6   -1.50    0.73
   6  11   6    0.70    0.64
  -7 -11  -6   19.60    1.59
  -7 -11  -6   17.19    1.17
  -7 -11  -6   19.04    1.09
  -7 -11  -6   19.04    1.64
   7  11   6   20.54    1.79
   7  11   6   17.62    1.32
  -8 -11  -6   11.63    1.04
   8  11   6   10.22    1.83
   8  11   6   14.96    1.28
   8  11   6   12.70    1.48
   7   7  -7    1.42    0.81
   7   7  -7   -0.20    0.75
  -7  -7   7    0.82    0.72
  -7  -7   7    0.52    0.81
  -7  -7   7    0.64    0.92
  -7  -7   7    0.18    0.86
   6   7  -7   -1.45    0.74
   6   7  -7    0.48    0.67
   6   7  -7    1.54    0.74
  -6  -7   7   -0.76    0.53
  -6  -7   7   -0.64    0.65
  -6  -7   7   -0.41    0.81
   5   7  -7   14.67    1.26
   5   7  -7   12.01    1.44
   5   7  -7   12.66    1.16
   5   7  -7   13.11    1.28
  -5  -7   7   16.79    1.58
  -5  -7   7   12.19    1.22
  -5  -7   7   12.88    1.44
   4   7  -7    2.53    0.76
   4   7  -7    1.20    0.65
   4   7  -7    3.11    0.74
   4   7  -7    0.98    0.77
  -4  -7   7    1.71    0.73
  -4  -7   7    2.40    0.70
  -4  -7   7   -0.04    0.85
   3   7  -7    8.39    1.11
   3   7  -7    9.30    1.01
   3   7  -7    9.91    1.17
   3   7  -7    9.45    1.05
   3   7  -7    8.86    1.01
  -3  -7   7   11.24    1.24
  -3  -7   7    7.84    0.93
   2   7  -7    0.01    0.53
   2   7  -7   -0.74    0.80
   2   7  -7    0.65    0.59
   2   7  -7    0.71    0.66
   2   7  -7    1.01    0.73
  -2  -7   7    1.53    0.75
  -2  -7   7    0.56    0.74
  -2  -7   7    0.48    0.89
   1   7  -7   16.36    1.37
   1   7  -7   15.44    1.15
   1   7  -7   14.08    1.10
   1   7  -7   14.98    1.51
  -1  -7   7   12.58    1.51
   8   6  -7    5.47    0.84
   8   6  -7    5.53    0.93
   8   6  -7    5.20    0.96
  -8  -6   7    4.76    0.72
  -8  -6   7    6.19    0.96
  -8  -6   7    5.75    0.87
  -8  -6   7    5.66    0.82
   7   6  -7    0.49    0.72
   7   6  -7    1.32    0.64
   7   6  -7    0.07    0.70
  -7  -6   7    0.53    0.72
  -7  -6   7   -0.32    0.75
  -7  -6   7   -0.48    0.56
  -7  -6   7    0.57    0.69
   6   6  -7   -0.58    0.55
   6   6  -7   -0.54    0.60
   6   6  -7   -0.21    0.70
  -6  -6   7   -0.07    0.41
  -6  -6   7   -0.40    0.73
  -6  -6   7    1.04    0.60
   5   6  -7   44.98    1.81
   5   6  -7   47.82    1.82
   5   6  -7   45.13    1.73
   5   6  -7   45.98    1.41
   5   6  -7   48.47    1.68
  -5  -6   7   47.84    1.62
  -5  -6   7   45.91    1.39
  -5  -6   7   47.77    1.84
  -5  -6   7   46.22    2.14
   4   6  -7    0.17    0.62
   4   6  -7    2.37    0.58
   4   6  -7    2.05    0.59
   4   6  -7    3.15    0.66
   4   6  -7    2.62    0.70
  -4  -6   7    0.93    0.67
  -4  -6   7    3.93    0.79
  -4  -6   7    2.61    0.76
  -4  -6   7    2.70    0.57
  -4  -6   7    2.34    0.65
   3   6  -7   -0.32    0.59
   3   6  -7    1.02    0.62
   3   6  -7   -0.04    0.50
   3   6  -7    0.40    0.47
  -3  -6   7    0.21    0.56
  -3  -6   7    0.71    0.58
  -3  -6   7   -0.33    0.61
  -3  -6   7    0.94    0.67
  -3  -6   7    0.89    0.73
   2   6  -7   11.02    1.05
   2   6  -7    9.88    1.00
   2   6  -7    8.90    0.94
   2   6  -7   11.21    1.30
   2   6  -7   11.49    1.20
  -2  -6   7   13.97    1.15
  -2  -6   7   10.87    1.25
  -2  -6   7   12.90    1.17
  -2  -6   7   11.14    1.34
   1   6  -7   29.32    1.61
   1   6  -7   25.00    1.45
   1   6  -7   27.32    1.34
   1   6  -7   26.81    1.12
   1   6  -7   27.63    1.27
  -1  -6   7   25.19    1.47
  -1  -6   7   26.80    1.42
  -1  -6   7   28.18    1.56
   0   6  -7  110.37    2.62
   0   6  -7  113.97    2.70
   0   6  -7  107.93    2.26
   0  -6   7  113.47    2.95
   0  -6   7  110.50    2.78
  -1   6  -7   -0.08    0.56
  -1   6  -7    0.52    0.65
   1  -6   7    0.73    0.71
   1  -6   7    0.85    0.85
   9   5  -7   -0.44    0.73
   9   5  -7    1.80    0.73
  -9  -5   7   -1.18    0.60
   8   5  -7    1.22    0.78
   8   5  -7    0.33    0.70
   8   5  -7    1.31    0.73
   8   5  -7    2.09    0.66
  -8  -5   7    1.01    0.53
  -8  -5   7    0.50    0.62
  -8  -5   7    2.55    0.62
  -8  -5   7    2.26    0.83
   7   5  -7   42.01    1.68
   7   5  -7   41.35    1.82
   7   5  -7   44.60    1.59
   7   5  -7   46.65    1.85
  -7  -5   7   43.63    1.53
  -7  -5   7   43.76    1.40
  -7  -5   7   45.46    1.53
  -7  -5   7   42.53    1.77
   6   5  -7    0.69    0.60
   6   5  -7    0.38    0.58
   6   5  -7    0.36    0.63
   6   5  -7   -0.29    0.49
  -6  -5   7   -0.96    0.64
  -6  -5   7    0.94    0.67
  -6  -5   7   -0.07    0.54
  -6  -5   7    0.51    0.52
   5   5  -7   55.64    1.73
   5   5  -7   55.98    1.90
   5   5  -7   57.02    1.86
   5   5  -7   59.48    1.83
  -5  -5   7   53.35    1.89
  -5  -5   7   60.11    1.89
  -5  -5   7   55.90    1.38
  -5  -5   7   54.47    1.64
  -5  -5   7   58.47    1.72
   4   5  -7    1.79    0.62
   4   5  -7    3.37    0.61
   4   5  -7    3.96    0.62
   4   5  -7    3.25    0.62
   4   5  -7    3.54    0.53
  -4  -5   7    3.54    0.63
  -4  -5   7    3.04    0.68
  -4  -5   7    4.09    0.72
  -4  -5   7    3.02    0.49
  -4  -5   7    3.91    0.60
   3   5  -7    2.16    0.53
   3   5  -7    2.27    0.52
   3   5  -7    2.41    0.61
   3   5  -7    2.81    0.57
  -3  -5   7    2.03    0.54
  -3  -5   7    2.91    0.54
  -3  -5   7    1.56    0.66
  -3  -5   7    2.28    0.67
   2   5  -7   98.03    2.36
   2   5  -7   97.78    2.22
   2   5  -7   97.69    2.33
   2   5  -7   97.67    2.43
  -2  -5   7   98.03    2.34
  -2  -5   7   96.03    2.43
  -2  -5   7   98.42    2.48
  -2  -5   7   98.71    2.37
   1   5  -7   16.91    0.87
   1   5  -7   17.95    1.05
   1   5  -7   16.22    1.14
   1   5  -7   18.66    1.06
   1   5  -7   16.06    1.21
  -1  -5   7   18.39    1.11
  -1  -5   7   18.16    1.27
  -1  -5   7   16.61    1.15
   0   5  -7  142.72    3.27
   0   5  -7  144.13    3.17
   0   5  -7  140.91    2.68
   0   5  -7  143.66    3.06
   0   5  -7  143.39    3.02
   0  -5   7  141.78    3.15
   0  -5   7  142.45    3.25
   0  -5   7  144.69    3.12
   0  -5   7  142.12    3.17
  -1   5  -7   18.55    1.44
  -1   5  -7   19.52    1.17
  -1   5  -7   17.02    1.10
   1  -5   7   20.33    1.39
   1  -5   7   19.54    1.23
   1  -5   7   18.51    1.39
   1  -5   7   17.97    1.25
  -2   5  -7    9.60    1.07
  -2   5  -7   11.28    1.04
  -2   5  -7    9.34    1.18
   2  -5   7   10.02    1.12
   2  -5   7   11.71    1.19
   2  -5   7    8.25    0.95
  -3   5  -7    2.55    0.70
  -3   5  -7    2.78    0.78
  -3   5  -7    3.28    0.67
   3  -5   7    2.17    0.79
   3  -5   7    1.69    1.00
   9   4  -7   29.61    1.67
   9   4  -7   24.16    1.66
   9   4  -7   28.01    1.64
   9   4  -7   27.25    1.41
  -9  -4   7   29.88    1.62
  -9  -4   7   27.23    1.97
   8   4  -7    0.10    0.58
   8   4  -7   -0.42    0.62
   8   4  -7   -0.52    0.60
   8   4  -7    0.82    0.71
  -8  -4   7    0.22    0.46
  -8  -4   7    0.46    0.53
  -8  -4   7    1.10    0.66
  -8  -4   7    0.18    0.44
  -8  -4   7    0.28    0.72
   7   4  -7  178.36    3.71
   7   4  -7  176.11    3.64
   7   4  -7  180.33    3.64
   7   4  -7  178.18    3.82
  -7  -4   7  179.88    3.42
  -7  -4   7  180.13    3.35
  -7  -4   7  176.77    3.36
  -7  -4   7  182.47    3.75
   6   4  -7   39.95    1.42
   6   4  -7   41.02    1.51
   6   4  -7   39.29    1.59
  -6  -4   7   36.87    1.97
  -6  -4   7   38.60    1.38
  -6  -4   7   41.91    1.60
   5   4  -7   33.36    1.27
   5   4  -7   32.44    1.34
   5   4  -7   30.96    1.37
  -5  -4   7   32.82    1.26
  -5  -4   7   32.33    1.19
  -5  -4   7   32.94    1.42
  -5  -4   7   31.99    0.88
  -5  -4   7   29.39    1.39
   4   4  -7    1.06    0.45
   4   4  -7    0.39    0.47
   4   4  -7    0.89    0.52
  -4  -4   7    0.57    0.44
  -4  -4   7    0.76    0.55
  -4  -4   7    0.45    0.33
  -4  -4   7    0.57    0.48
  -4  -4   7    0.75    0.52
   3   4  -7    6.54    0.70
   3   4  -7    4.50    0.65
   3   4  -7    6.32    0.77
   3   4  -7    5.66    0.72
   3   4  -7    4.48    0.64
  -3  -4   7    4.79    0.60
  -3  -4   7    5.54    0.66
  -3  -4   7    4.94    0.72
  -3  -4   7    5.14    0.62
  -3  -4   7    5.10    0.68
   2   4  -7  146.23    3.01
   2   4  -7  144.07    3.06
   2   4  -7  150.84    3.09
   2   4  -7  146.59    2.92
   2   4  -7  148.12    2.97
  -2  -4   7  151.55    3.04
  -2  -4   7  148.71    3.15
  -2  -4   7  148.38    3.28
  -2  -4   7  148.89    3.09
  -2  -4   7  144.75    2.95
   1   4  -7    0.97    0.34
   1   4  -7    0.21    0.46
   1   4  -7    1.03    0.48
   1   4  -7    0.88    0.47
   1   4  -7    1.07    0.43
  -1  -4   7    0.06    0.44
  -1  -4   7    0.20    0.50
  -1  -4   7    1.72    0.60
  -1  -4   7   -0.34    0.72
   0   4  -7   58.77    1.66
   0   4  -7   58.89    1.62
   0   4  -7   59.56    1.73
   0   4  -7   53.85    1.67
   0   4  -7   60.00    1.81
   0   4  -7   56.49    1.35
   0  -4   7   56.63    1.72
   0  -4   7   58.45    1.73
   0  -4   7   56.66    1.76
   0  -4   7   57.78    1.69
  -1   4  -7   16.69    1.02
  -1   4  -7   16.40    0.94
  -1   4  -7   16.66    1.23
  -1   4  -7   16.31    0.62
  -1   4  -7   15.91    1.05
   1  -4   7   14.44    1.12
   1  -4   7   14.24    1.11
   1  -4   7   16.88    1.21
   1  -4   7   16.45    1.04
  -2   4  -7    1.52    0.69
  -2   4  -7    1.13    0.52
  -2   4  -7    0.19    0.50
  -2   4  -7   -0.21    0.45
   2  -4   7    0.48    0.64
   2  -4   7   -0.30    0.50
   2  -4   7    0.51    0.64
   2  -4   7    0.20    0.60
  -3   4  -7    7.53    1.00
  -3   4  -7    7.05    0.75
  -3   4  -7    5.36    1.03
  -3   4  -7    6.01    0.80
   3  -4   7    8.39    1.03
   3  -4   7    5.97    0.87
   3  -4   7    6.33    0.86
   3  -4   7    7.01    0.96
  -4   4  -7   14.93    1.15
  -4   4  -7   17.34    1.32
  -4   4  -7   17.23    1.01
  -4   4  -7   16.26    1.28
   4  -4   7   16.67    1.29
   4  -4   7   17.52    1.50
   4  -4   7   17.34    1.56
   9   3  -7   29.09    1.67
   9   3  -7   31.28    1.73
   9   3  -7   33.85    1.49
   9   3  -7   27.04    1.65
  -9  -3   7   24.61    2.72
   8   3  -7    2.50    0.74
   8   3  -7    2.50    0.73
   8   3  -7    4.44    0.77
   8   3  -7    3.65    0.65
  -8  -3   7    2.44    0.45
  -8  -3   7    2.36    0.68
  -8  -3   7    5.53    0.83
  -8  -3   7    3.31    0.56
  -8  -3   7    2.68    0.39
   7   3  -7  150.62    3.30
   7   3  -7  152.10    3.36
   7   3  -7  151.39    3.14
   7   3  -7  152.00    3.17
  -7  -3   7  146.04    3.41
  -7  -3   7  145.50    2.70
  -7  -3   7  150.68    2.85
  -7  -3   7  149.54    3.28
  -7  -3   7  151.67    2.90
   6   3  -7   73.76    2.03
   6   3  -7   74.54    1.94
   6   3  -7   72.14    1.99
  -6  -3   7   66.79    2.02
  -6  -3   7   70.72    1.72
  -6  -3   7   70.02    1.76
  -6  -3   7   72.64    2.03
  -6  -3   7   70.42    2.09
  -6  -3   7   69.59    1.61
   5   3  -7    9.44    0.93
   5   3  -7    8.51    0.89
   5   3  -7    8.02    1.04
   5   3  -7    9.80    0.82
  -5  -3   7    7.57    0.74
  -5  -3   7    9.57    0.81
  -5  -3   7    9.38    0.97
  -5  -3   7    9.94    0.99
   4   3  -7   30.33    1.14
   4   3  -7   30.50    1.22
   4   3  -7   29.29    1.16
  -4  -3   7   29.61    1.12
  -4  -3   7   28.47    0.84
  -4  -3   7   30.21    1.08
  -4  -3   7   30.18    1.22
  -4  -3   7   27.93    1.25
   3   3  -7    0.52    0.38
   3   3  -7    0.08    0.40
  -3  -3   7    1.89    0.45
  -3  -3   7    0.38    0.40
  -3  -3   7    0.60    0.46
  -3  -3   7    0.21    0.30
   2   3  -7  126.38    2.66
   2   3  -7  129.60    2.66
   2   3  -7  131.29    2.66
  -2  -3   7  132.86    2.67
  -2  -3   7  129.70    2.55
  -2  -3   7  124.96    2.62
  -2  -3   7  127.09    2.76
   1   3  -7   47.88    1.42
   1   3  -7   46.36    1.40
   1   3  -7   45.46    1.90
   1   3  -7   47.09    1.41
  -1  -3   7   48.18    1.38
  -1  -3   7   47.25    1.39
  -1  -3   7   48.95    1.41
  -1  -3   7   45.66    1.40
  -1  -3   7   47.54    1.54
   0   3  -7    9.20    0.57
   0   3  -7   10.12    0.80
   0   3  -7    9.95    0.87
   0   3  -7    8.89    0.81
   0   3  -7    9.31    0.80
   0  -3   7    9.15    0.84
   0  -3   7    9.92    0.80
   0  -3   7    9.98    0.77
  -1   3  -7    0.72    0.41
  -1   3  -7    0.10    0.21
  -1   3  -7   -0.05    0.33
  -1   3  -7    0.94    0.53
  -1   3  -7    0.13    0.43
  -1   3  -7   -0.40    0.39
   1  -3   7    0.02    0.44
   1  -3   7   -0.03    0.46
   1  -3   7    0.30    0.42
   1  -3   7    0.60    0.46
  -2   3  -7   -0.53    0.41
  -2   3  -7    0.19    0.36
  -2   3  -7   -0.53    0.41
  -2   3  -7   -0.99    0.53
   2  -3   7    0.28    0.52
   2  -3   7    0.29    0.49
   2  -3   7    0.30    0.48
   2  -3   7   -0.45    0.42
  -3   3  -7   41.90    1.24
  -3   3  -7   41.10    1.58
  -3   3  -7   42.24    1.52
  -3   3  -7   43.43    1.32
   3  -3   7   43.48    1.70
   3  -3   7   43.35    1.52
   3  -3   7   39.18    1.47
   3  -3   7   43.39    1.45
  -4   3  -7   11.60    0.79
  -4   3  -7   12.60    0.90
  -4   3  -7   11.41    1.12
  -4   3  -7   12.33    1.09
   4  -3   7   12.42    1.05
   4  -3   7   12.59    1.28
   4  -3   7   12.43    1.17
   4  -3   7    9.37    1.16
  -5   3  -7    1.09    0.62
  -5   3  -7    1.92    0.74
   5  -3   7    2.16    0.83
   5  -3   7    2.14    0.76
   5  -3   7    1.21    0.78
   5  -3   7    0.49    0.63
   5  -3   7    1.11    0.76
   9   2  -7   39.80    1.87
   9   2  -7   42.62    1.91
   9   2  -7   41.94    1.83
   9   2  -7   41.71    1.63
  -9  -2   7   43.26    2.03
  -9  -2   7   41.65    2.68
   8   2  -7    7.62    0.93
   8   2  -7   11.24    1.31
   8   2  -7   10.38    1.02
   8   2  -7   11.31    1.21
  -8  -2   7    9.25    0.68
  -8  -2   7    9.00    0.76
  -8  -2   7    9.18    1.18
   7   2  -7   94.61    2.46
   7   2  -7   97.60    2.50
   7   2  -7   99.28    2.35
   7   2  -7   98.45    2.32
  -7  -2   7   91.80    1.98
  -7  -2   7   95.71    2.56
  -7  -2   7   92.44    2.32
  -7  -2   7   99.45    2.51
   6   2  -7   71.26    1.98
   6   2  -7   67.59    1.80
   6   2  -7   68.10    1.84
   6   2  -7   69.97    1.93
  -6  -2   7   72.21    2.02
  -6  -2   7   72.62    1.99
  -6  -2   7   67.98    1.62
  -6  -2   7   69.53    1.67
  -6  -2   7   66.08    2.00
  -6  -2   7   66.64    1.37
   5   2  -7   14.79    1.19
   5   2  -7   16.21    0.89
   5   2  -7   14.83    0.96
   5   2  -7   15.08    0.92
  -5  -2   7   14.76    1.03
  -5  -2   7   15.90    0.86
  -5  -2   7   15.48    1.03
  -5  -2   7   15.68    1.04
  -5  -2   7   15.89    0.81
   4   2  -7    3.07    0.53
   4   2  -7    2.66    0.45
   4   2  -7    3.13    0.48
  -4  -2   7    3.65    0.57
  -4  -2   7    3.16    0.55
  -4  -2   7    3.44    0.39
  -4  -2   7    3.26    0.46
  -4  -2   7    3.51    0.46
  -4  -2   7    3.08    0.50
   3   2  -7    8.69    0.74
   3   2  -7    7.92    0.70
   3   2  -7    6.80    0.64
  -3  -2   7    8.18    0.83
  -3  -2   7    7.79    0.66
  -3  -2   7    7.94    0.68
  -3  -2   7    7.29    0.71
  -3  -2   7    7.68    0.52
   2   2  -7   64.72    1.60
   2   2  -7   64.23    1.59
   2   2  -7   65.19    1.61
  -2  -2   7   64.22    1.48
  -2  -2   7   65.41    1.59
  -2  -2   7   66.36    1.60
  -2  -2   7   59.06    2.14
  -2  -2   7   66.97    1.74
   1   2  -7   31.09    1.05
   1   2  -7   29.20    1.02
   1   2  -7   29.35    1.02
  -1  -2   7   30.37    1.01
  -1  -2   7   31.30    1.18
  -1  -2   7   30.46    1.03
  -1  -2   7   29.08    1.04
  -1  -2   7   29.12    1.03
   0   2  -7    0.66    0.32
   0   2  -7    0.88    0.44
   0   2  -7    0.43    0.33
   0   2  -7   -0.03    0.29
   0  -2   7   -0.11    0.36
   0  -2   7    0.58    0.32
   0  -2   7   -0.02    0.30
   0  -2   7   -0.12    0.33
   0  -2   7   -0.10    0.34
  -1   2  -7   28.36    0.75
  -1   2  -7   28.97    1.16
  -1   2  -7   26.80    0.79
  -1   2  -7   28.87    0.96
  -1   2  -7   27.31    1.00
  -1   2  -7   27.10    0.99
   1  -2   7   24.92    1.12
   1  -2   7   28.83    1.01
   1  -2   7   28.36    1.04
   1  -2   7   26.85    1.12
  -2   2  -7    0.89    0.35
  -2   2  -7    1.04    0.50
  -2   2  -7    0.80    0.39
  -2   2  -7    0.99    0.45
   2  -2   7    0.67    0.39
   2  -2   7    0.05    0.68
   2  -2   7    1.65    0.46
   2  -2   7    0.70    0.46
  -3   2  -7   67.75    1.75
  -3   2  -7   69.52    1.78
  -3   2  -7   57.55    1.92
  -3   2  -7   68.20    1.54
  -3   2  -7   66.39    1.92
   3  -2   7   68.03    1.74
   3  -2   7   68.78    1.71
   3  -2   7   68.27    1.96
   3  -2   7   69.38    1.70
  -4   2  -7    0.55    0.32
  -4   2  -7    0.12    0.37
  -4   2  -7    0.17    0.49
  -4   2  -7   -0.27    0.46
   4  -2   7    0.11    0.53
   4  -2   7    0.14    0.51
   4  -2   7    0.49    0.45
   4  -2   7   -0.51    0.48
  -5   2  -7    0.45    0.51
  -5   2  -7    0.35    0.54
   5  -2   7    0.39    0.65
   5  -2   7    1.55    0.63
   5  -2   7    0.42    0.62
   5  -2   7    1.08    0.53
  -6   2  -7   59.92    2.14
  -6   2  -7   60.79    1.94
   6  -2   7   58.91    1.77
   6  -2   7   59.01    2.23
   6  -2   7   60.33    1.96
   6  -2   7   58.16    1.89
   6  -2   7   57.46    2.20
   9   1  -7   12.39    1.45
   9   1  -7    9.73    1.17
   9   1  -7    7.75    1.05
   9   1  -7   13.88    1.54
  -9  -1   7    7.77    1.41
   8   1  -7   18.34    1.44
   8   1  -7   20.49    1.38
   8   1  -7   19.83    1.18
   8   1  -7   17.11    1.36
  -8  -1   7   20.05    0.79
  -8  -1   7   19.31    1.38
   7   1  -7    4.40    0.73
   7   1  -7    5.61    0.71
   7   1  -7    5.03    0.74
   7   1  -7    5.03    0.73
  -7  -1   7    4.59    0.73
  -7  -1   7    3.89    0.74
  -7  -1   7    4.80    0.55
  -7  -1   7    4.92    0.50
   6   1  -7    0.53    0.51
   6   1  -7   -0.71    0.48
   6   1  -7   -0.59    0.39
   6   1  -7   -0.21    0.45
  -6  -1   7   -0.04    0.38
  -6  -1   7   -0.05    0.49
  -6  -1   7   -0.09    0.37
  -6  -1   7   -0.49    0.50
   5   1  -7   71.39    1.76
   5   1  -7   56.73    2.63
   5   1  -7   68.04    1.82
   5   1  -7   67.84    1.74
  -5  -1   7   69.34    1.61
  -5  -1   7   70.19    1.86
  -5  -1   7   71.04    1.90
  -5  -1   7   66.43    1.90
  -5  -1   7   70.37    1.63
   4   1  -7    1.83    0.42
   4   1  -7    2.18    0.45
   4   1  -7    2.15    0.50
   4   1  -7    2.26    0.40
  -4  -1   7    1.52    0.46
  -4  -1   7    2.76    0.43
  -4  -1   7    1.95    0.44
  -4  -1   7    2.32    0.40
  -4  -1   7    2.19    0.26
  -4  -1   7    2.98    0.49
   3   1  -7   13.08    0.75
   3   1  -7   15.09    0.77
   3   1  -7   15.01    0.79
   3   1  -7   13.80    0.85
  -3  -1   7   14.06    0.88
  -3  -1   7   14.44    0.72
  -3  -1   7   13.41    0.57
  -3  -1   7   14.36    0.75
  -3  -1   7   13.94    0.82
  -3  -1   7   14.53    0.92
   2   1  -7    1.18    0.36
   2   1  -7    1.09    0.32
   2   1  -7    0.94    0.30
  -2  -1   7    1.01    0.36
  -2  -1   7    1.41    0.34
  -2  -1   7    0.72    0.27
  -2  -1   7    1.05    0.33
   1   1  -7   25.13    0.89
   1   1  -7   25.95    0.88
  -1  -1   7   26.61    0.88
  -1  -1   7   25.00    0.87
  -1  -1   7   24.68    1.21
  -1  -1   7   22.85    1.29
  -1  -1   7   25.95    0.90
   0   1  -7   17.77    0.75
   0   1  -7   16.87    0.77
   0   1  -7   16.97    0.73
   0  -1   7   15.92    1.06
   0  -1   7   16.59    0.71
   0  -1   7   16.37    0.78
   0  -1   7   16.99    0.76
  -1   1  -7  145.73    2.70
  -1   1  -7  148.48    2.73
  -1   1  -7  148.48    2.74
  -1   1  -7  141.27    2.56
   1  -1   7  148.25    2.80
   1  -1   7  146.91    2.68
   1  -1   7  144.65    2.90
  -2   1  -7   48.54    1.23
  -2   1  -7   48.26    1.19
  -2   1  -7   46.34    1.47
   2  -1   7   46.51    1.46
   2  -1   7   47.19    1.21
   2  -1   7   47.62    1.29
   2  -1   7   48.76    1.46
  -3   1  -7   23.99    0.96
  -3   1  -7   25.14    1.17
  -3   1  -7   24.18    0.83
  -3   1  -7   23.82    1.14
  -3   1  -7   24.03    0.79
   3  -1   7   24.76    0.96
   3  -1   7   23.76    0.91
   3  -1   7   23.39    1.12
   3  -1   7   23.42    0.93
  -4   1  -7    2.05    0.47
  -4   1  -7    2.54    0.36
  -4   1  -7    1.95    0.52
  -4   1  -7    2.62    0.33
   4  -1   7    2.19    0.45
   4  -1   7    2.64    0.48
   4  -1   7    2.46    0.57
   4  -1   7    2.38    0.45
  -5   1  -7   -0.62    0.48
  -5   1  -7   -0.31    0.46
   5  -1   7   -1.06    0.44
   5  -1   7    0.43    0.42
   5  -1   7   -0.13    0.45
   5  -1   7    0.09    0.52
  -6   1  -7   83.30    2.15
  -6   1  -7   85.17    2.49
   6  -1   7   87.98    2.49
   6  -1   7   84.23    2.14
   6  -1   7   87.89    2.07
   6  -1   7   85.39    2.01
  -7   1  -7   14.75    1.40
  -7   1  -7   20.47    1.27
   7  -1   7   16.56    1.35
   7  -1   7   19.18    1.53
   7  -1   7   15.41    1.54
   7  -1   7   15.78    1.25
   7  -1   7   16.89    1.10
   9   0  -7    9.97    1.23
   9   0  -7   10.35    1.16
   9   0  -7   15.66    1.48
  -9   0   7   11.16    1.41
   8   0  -7    2.24    0.74
   8   0  -7    2.45    0.60
   8   0  -7    2.70    0.64
   8   0  -7    2.58    0.77
  -8   0   7    2.06    0.73
  -8   0   7    3.09    0.83
   7   0  -7    1.03    0.59
   7   0  -7    2.01    0.65
   7   0  -7    1.08    0.50
   7   0  -7    1.18    0.58
  -7   0   7    1.38    0.58
  -7   0   7    1.14    0.43
  -7   0   7    1.26    0.40
   6   0  -7   19.68    1.15
   6   0  -7   22.40    1.04
   6   0  -7   22.34    1.23
   6   0  -7   22.27    1.15
  -6   0   7   23.25    1.25
  -6   0   7   22.21    0.90
  -6   0   7   20.43    1.16
  -6   0   7   22.34    1.26
   5   0  -7  175.19    3.57
   5   0  -7  175.60    3.48
   5   0  -7  179.71    3.49
   5   0  -7  179.84    3.41
  -5   0   7  180.28    2.97
  -5   0   7  178.31    3.26
  -5   0   7  177.06    3.57
  -5   0   7  173.93    3.58
  -5   0   7  174.84    3.23
   4   0  -7    0.35    0.40
   4   0  -7   -0.08    0.31
   4   0  -7    0.23    0.37
   4   0  -7    0.79    0.34
  -4   0   7    0.30    0.25
  -4   0   7    0.43    0.37
  -4   0   7   -0.10    0.36
  -4   0   7    0.82    0.33
  -4   0   7    0.31    0.40
   3   0  -7    7.77    0.65
   3   0  -7    7.73    0.63
   3   0  -7    7.19    0.59
   3   0  -7    7.29    0.74
  -3   0   7    8.48    0.61
  -3   0   7    7.91    0.66
  -3   0   7    6.63    0.72
  -3   0   7    8.09    0.69
   2   0  -7   10.67    0.66
   2   0  -7   11.91    0.77
   2   0  -7    9.70    0.64
   2   0  -7   11.16    0.64
  -2   0   7   10.80    0.55
  -2   0   7   10.27    0.67
  -2   0   7    9.17    0.62
  -2   0   7   10.16    0.64
  -2   0   7   10.88    0.66
  -2   0   7    9.72    0.77
   1   0  -7  283.55    4.79
   1   0  -7  279.49    4.81
   1   0  -7  283.45    4.80
   1   0  -7  277.30    4.68
  -1   0   7  285.22    4.80
  -1   0   7  283.27    4.69
  -1   0   7  281.75    4.93
  -1   0   7  285.22    4.80
  -1   0   7  279.70    4.73
   0   0  -7  240.58    4.11
   0   0  -7  248.06    4.25
   0   0  -7  250.60    4.26
   0   0  -7  249.00    4.23
   0   0   7  249.34    4.12
   0   0   7  247.09    4.29
   0   0   7  250.00    4.41
   0   0   7  247.69    4.27
   0   0   7  251.99    4.28
  -1   0  -7  224.55    3.76
  -1   0  -7  230.54    3.88
  -1   0  -7  221.85    3.85
  -1   0  -7  222.64    3.78
   1   0   7  224.03    3.91
   1   0   7  223.56    3.74
   1   0   7  225.81    4.09
   1   0   7  227.39    4.03
   1   0   7  224.87    3.92
  -2   0  -7  116.75    2.23
  -2   0  -7  117.86    2.22
  -2   0  -7  118.84    2.18
  -2   0  -7  119.12    2.10
   2   0   7  119.66    2.16
   2   0   7  120.45    2.32
   2   0   7  122.51    2.33
   2   0   7  118.51    2.49
  -3   0  -7    0.57    0.33
  -3   0  -7    1.23    0.44
  -3   0  -7    0.75    0.28
  -3   0  -7    1.32    0.27
   3   0   7    1.12    0.33
   3   0   7    1.03    0.29
   3   0   7    1.35    0.33
   3   0   7    0.91    0.38
  -4   0  -7   34.25    0.83
  -4   0  -7   33.49    0.80
  -4   0  -7   32.36    1.32
  -4   0  -7   35.23    1.04
   4   0   7   35.04    1.05
   4   0   7   34.44    1.00
   4   0   7   35.52    1.34
   4   0   7   34.11    1.05
  -5   0  -7   14.66    1.15
  -5   0  -7   15.90    0.85
   5   0   7   15.47    0.80
   5   0   7   17.92    0.83
   5   0   7   15.77    0.81
   5   0   7   17.46    1.11
  -6   0  -7   76.34    2.31
  -6   0  -7   78.52    1.91
   6   0   7   77.13    2.23
   6   0   7   78.97    1.85
   6   0   7   76.78    1.78
  -7   0  -7   19.96    1.19
  -7   0  -7   19.17    1.40
   7   0   7   20.20    0.99
   7   0   7   21.52    1.16
   7   0   7   21.10    1.40
   7   0   7   21.32    1.77
   7   0   7   20.14    1.05
   7   0   7   21.09    1.42
  -8   0  -7    2.07    0.67
   8   0   7    1.90    0.74
   8   0   7    1.05    0.57
   8   0   7    2.63    0.87
   8   0   7    1.47    0.79
   8   0   7    1.05    0.62
   8  -1  -7    5.10    0.95
   8  -1  -7    3.07    0.69
   8  -1  -7    3.10    0.76
   8  -1  -7    3.62    0.82
  -8   1   7    4.76    0.90
  -8   1   7    4.63    0.56
   7  -1  -7   14.85    1.19
   7  -1  -7   16.08    1.50
   7  -1  -7   17.36    1.07
   7  -1  -7   16.56    1.21
   7  -1  -7   14.31    1.27
  -7   1   7   17.06    0.83
  -7   1   7   17.20    0.82
  -7   1   7   14.30    1.28
  -7   1   7   15.50    0.89
   6  -1  -7   62.11    1.77
   6  -1  -7   65.02    1.74
   6  -1  -7   64.19    2.00
   6  -1  -7   62.65    2.10
   6  -1  -7   63.44    1.88
  -6   1   7   66.10    1.57
  -6   1   7   65.59    2.02
  -6   1   7   64.72    1.44
  -6   1   7   64.17    1.55
  -6   1   7   61.37    1.96
   5  -1  -7  243.85    4.55
   5  -1  -7  251.19    4.70
   5  -1  -7  244.40    4.74
   5  -1  -7  250.78    4.48
   5  -1  -7  249.56    4.45
  -5   1   7  242.43    4.67
  -5   1   7  245.48    4.66
  -5   1   7  250.98    4.32
  -5   1   7  247.16    4.14
  -5   1   7  246.87    4.31
   4  -1  -7    1.05    0.42
   4  -1  -7    0.71    0.36
   4  -1  -7    0.11    0.46
   4  -1  -7    0.74    0.50
   4  -1  -7    1.30    0.36
  -4   1   7    0.84    0.42
  -4   1   7    1.29    0.35
  -4   1   7    1.54    0.44
  -4   1   7    1.10    0.36
  -4   1   7    0.96    0.30
   3  -1  -7    7.69    0.81
   3  -1  -7    8.28    0.63
   3  -1  -7    7.00    0.65
   3  -1  -7   10.01    0.79
   3  -1  -7    8.55    0.63
  -3   1   7    7.22    0.59
  -3   1   7    7.80    0.68
  -3   1   7    6.41    0.71
  -3   1   7    7.45    0.54
  -3   1   7    9.28    0.76
   2  -1  -7   14.60    0.71
   2  -1  -7   14.77    0.83
   2  -1  -7   15.24    0.86
   2  -1  -7   15.83    0.76
   2  -1  -7   15.44    0.69
  -2   1   7   14.65    0.75
  -2   1   7   14.96    0.73
  -2   1   7   16.28    0.52
  -2   1   7   14.15    0.71
  -2   1   7   16.38    0.84
   1  -1  -7  368.35    6.17
   1  -1  -7  365.24    5.96
   1  -1  -7  376.62    6.10
   1  -1  -7  369.23    6.10
   1  -1  -7  362.15    6.21
  -1   1   7  373.55    6.10
  -1   1   7  364.76    5.90
  -1   1   7  374.86    6.24
  -1   1   7  365.19    5.96
  -1   1   7  377.59    6.02
  -1   1   7  371.04    6.10
   0  -1  -7  338.65    5.52
   0  -1  -7  348.37    5.69
   0  -1  -7  342.06    5.72
   0  -1  -7  341.74    5.68
   0   1   7  349.06    5.72
   0   1   7  351.38    5.57
   0   1   7  353.20    5.86
   0   1   7  338.15    5.51
   0   1   7  350.55    5.72
  -1  -1  -7   26.56    0.84
  -1  -1  -7   26.80    0.83
  -1  -1  -7   26.59    0.70
  -1  -1  -7   27.37    0.86
   1   1   7   25.54    0.86
   1   1   7   27.31    0.88
   1   1   7   27.32    1.01
   1   1   7   26.27    0.69
   1   1   7   26.69    0.94
  -2  -1  -7  108.47    2.03
  -2  -1  -7  105.11    2.01
  -2  -1  -7  108.36    2.00
  -2  -1  -7  106.50    1.87
   2   1   7  107.11    2.10
   2   1   7  111.02    2.29
   2   1   7  103.66    2.08
   2   1   7  104.92    2.25
   2   1   7  109.94    1.87
  -3  -1  -7    9.49    0.79
  -3  -1  -7   10.67    0.48
  -3  -1  -7   10.43    0.47
  -3  -1  -7    9.71    0.50
  -3  -1  -7   10.51    0.52
   3   1   7   10.31    0.45
   3   1   7    9.83    0.58
   3   1   7    9.63    0.58
   3   1   7   10.31    0.73
  -4  -1  -7   76.61    2.00
  -4  -1  -7   80.97    1.55
   4   1   7   78.05    1.51
   4   1   7   77.46    1.96
   4   1   7   78.88    1.66
  -5  -1  -7   17.60    1.08
  -5  -1  -7   16.94    0.78
   5   1   7   17.64    0.75
   5   1   7   17.83    0.71
   5   1   7   17.41    1.10
   5   1   7   18.45    1.04
   5   1   7   16.84    0.74
  -6  -1  -7   24.53    1.35
   6   1   7   27.21    1.42
   6   1   7   27.88    0.92
   6   1   7   27.57    0.93
   6   1   7   27.38    1.32
   6   1   7   27.08    0.95
  -7  -1  -7   36.21    1.28
  -7  -1  -7   35.97    1.62
   7   1   7   37.05    1.12
   7   1   7   35.61    1.77
   7   1   7   35.52    1.09
   7   1   7   36.57    1.39
   7   1   7   36.79    1.57
  -8  -1  -7    1.44    0.63
  -8  -1  -7    1.00    0.66
   8   1   7    2.30    0.59
   8   1   7    2.27    0.73
   8   1   7    2.26    0.52
   8   1   7    1.34    0.69
   8   1   7    1.35    0.47
  -9  -1  -7   12.82    1.28
  -9  -1  -7   10.83    1.52
   9   1   7   12.83    0.98
   9   1   7   13.25    1.54
   9   1   7   12.64    1.26
   9   1   7   12.97    1.53
   9   1   7   12.99    1.35
   8  -2  -7   16.58    1.57
   8  -2  -7   14.48    1.25
   8  -2  -7   16.49    1.41
   8  -2  -7   16.94    1.54
  -8   2   7   15.14    1.48
   7  -2  -7   61.90    1.92
   7  -2  -7   57.74    2.24
   7  -2  -7   61.69    2.03
   7  -2  -7   61.77    2.14
   7  -2  -7   62.77    1.85
  -7   2   7   61.31    2.11
  -7   2   7   60.55    1.62
  -7   2   7   62.31    1.51
  -7   2   7   56.65    1.72
   6  -2  -7   32.92    1.41
   6  -2  -7   35.70    1.71
   6  -2  -7   30.39    1.50
   6  -2  -7   31.43    1.27
   6  -2  -7   33.30    1.37
  -6   2   7   33.13    1.14
  -6   2   7   33.79    1.11
  -6   2   7   32.67    1.16
  -6   2   7   30.88    1.46
   5  -2  -7   89.69    2.23
   5  -2  -7   95.35    2.50
   5  -2  -7   93.87    2.16
   5  -2  -7   95.98    2.19
   5  -2  -7   90.52    2.39
  -5   2   7   92.96    2.44
  -5   2   7   90.99    2.35
  -5   2   7   92.76    2.01
  -5   2   7   94.44    2.00
  -5   2   7   94.13    2.02
   4  -2  -7    0.60    0.38
   4  -2  -7    0.39    0.40
   4  -2  -7    0.11    0.39
   4  -2  -7    0.91    0.54
  -4   2   7    0.26    0.32
  -4   2   7    0.64    0.45
  -4   2   7    0.55    0.33
  -4   2   7    0.55    0.35
  -4   2   7    1.05    0.45
   3  -2  -7    2.45    0.44
   3  -2  -7    3.06    0.54
   3  -2  -7    2.54    0.40
   3  -2  -7    3.20    0.49
   3  -2  -7    3.51    0.45
  -3   2   7    2.95    0.44
  -3   2   7    2.99    0.40
  -3   2   7    3.04    0.42
  -3   2   7    2.56    0.48
  -3   2   7    2.85    0.42
   2  -2  -7   10.14    0.63
   2  -2  -7   10.87    0.75
   2  -2  -7    9.69    0.60
  -2   2   7   10.78    0.68
  -2   2   7   10.52    0.64
  -2   2   7   10.34    0.62
  -2   2   7    8.44    1.14
  -2   2   7   11.42    0.65
  -2   2   7   10.03    0.38
   1  -2  -7   50.70    1.40
   1  -2  -7   52.27    1.42
   1  -2  -7   52.40    1.20
   1  -2  -7   49.61    1.30
   1  -2  -7   51.43    1.31
  -1   2   7   50.19    1.30
  -1   2   7   51.86    1.25
  -1   2   7   50.65    1.31
  -1   2   7   51.58    1.41
  -1   2   7   51.01    1.09
   0  -2  -7  221.99    3.89
   0  -2  -7  224.76    3.89
   0  -2  -7  225.16    3.70
   0  -2  -7  221.88    4.01
   0  -2  -7  228.70    3.99
   0   2   7  224.89    3.73
   0   2   7  222.01    3.91
   0   2   7  229.21    4.03
   0   2   7  224.28    3.79
   0   2   7  225.62    3.92
  -1  -2  -7    7.65    0.59
  -1  -2  -7    6.69    0.49
  -1  -2  -7    6.43    0.50
  -1  -2  -7    5.78    0.34
   1   2   7    7.08    0.53
   1   2   7    6.30    0.65
   1   2   7    7.11    0.44
   1   2   7    5.69    0.52
   1   2   7    7.43    0.60
   1   2   7    6.59    0.56
  -2  -2  -7   34.13    0.91
  -2  -2  -7   36.90    0.99
  -2  -2  -7   34.85    0.92
   2   2   7   36.82    1.13
   2   2   7   34.03    0.98
   2   2   7   35.38    1.00
   2   2   7   34.57    1.08
   2   2   7   35.42    0.99
  -3  -2  -7    6.95    0.42
  -3  -2  -7    7.44    0.49
  -3  -2  -7    7.33    0.41
   3   2   7    7.42    0.69
   3   2   7    7.59    0.53
   3   2   7    7.45    0.54
   3   2   7    7.71    0.52
   3   2   7    8.22    0.67
   3   2   7    6.97    0.64
  -4  -2  -7   40.37    0.96
  -4  -2  -7   39.46    1.34
   4   2   7   40.21    1.33
   4   2   7   40.39    1.30
   4   2   7   40.46    1.04
   4   2   7   40.11    1.04
   4   2   7   41.10    1.00
  -5  -2  -7   10.27    0.55
  -5  -2  -7    9.26    0.48
  -5  -2  -7    9.38    0.87
   5   2   7    8.85    0.56
   5   2   7   10.53    0.54
   5   2   7    9.32    0.92
   5   2   7    9.96    0.47
   5   2   7    9.28    0.57
  -6  -2  -7    0.58    0.38
  -6  -2  -7    0.74    0.48
   6   2   7    0.52    0.30
   6   2   7    0.32    0.44
   6   2   7    0.52    0.26
   6   2   7    1.40    0.63
   6   2   7    0.98    0.30
  -7  -2  -7    3.08    0.49
  -7  -2  -7    2.18    0.64
   7   2   7    1.85    0.38
   7   2   7    2.86    0.42
   7   2   7    2.27    0.81
   7   2   7    2.96    0.65
   7   2   7    2.13    0.38
  -8  -2  -7   10.96    0.97
  -8  -2  -7   10.04    1.16
   8   2   7   10.04    0.83
   8   2   7   10.32    0.83
   8   2   7    9.84    1.15
   8   2   7   10.90    0.71
   8   2   7   10.75    1.17
   8   2   7    9.86    0.71
   8   2   7   10.02    1.16
  -9  -2  -7   24.53    1.28
  -9  -2  -7   23.69    1.60
   9   2   7   22.87    1.22
   9   2   7   25.07    1.61
   9   2   7   28.13    1.28
   9   2   7   23.70    1.55
   9   2   7   24.84    0.96
   7  -3  -7   85.02    2.68
   7  -3  -7   83.56    2.33
   7  -3  -7   86.01    2.55
   7  -3  -7   84.62    2.27
  -7   3   7   82.47    1.92
  -7   3   7   84.35    2.19
  -7   3   7   85.80    1.94
  -7   3   7   83.46    2.57
   6  -3  -7    3.38    0.83
   6  -3  -7    2.23    0.75
   6  -3  -7    3.07    0.70
   6  -3  -7    2.89    0.61
   6  -3  -7    2.21    0.64
  -6   3   7    2.26    0.68
  -6   3   7    2.94    0.65
  -6   3   7    4.09    0.59
  -6   3   7    3.13    0.51
   5  -3  -7   14.18    1.06
   5  -3  -7   13.29    1.28
   5  -3  -7   15.63    1.03
   5  -3  -7   14.80    0.94
   5  -3  -7   15.72    1.15
  -5   3   7   13.82    0.89
  -5   3   7   15.39    1.12
  -5   3   7   15.29    0.89
   4  -3  -7    6.42    0.70
   4  -3  -7    7.53    0.89
   4  -3  -7    7.58    0.80
   4  -3  -7    7.17    0.79
   4  -3  -7    7.80    1.05
  -4   3   7    6.44    0.72
  -4   3   7    7.55    0.70
  -4   3   7    7.16    0.94
  -4   3   7    7.10    0.83
  -4   3   7    7.84    0.69
   3  -3  -7    0.23    0.37
   3  -3  -7   -0.11    0.33
   3  -3  -7    0.13    0.38
   3  -3  -7    0.39    0.47
  -3   3   7    0.40    0.37
  -3   3   7    0.09    0.33
  -3   3   7   -0.03    0.42
  -3   3   7    0.71    0.35
  -3   3   7    0.42    0.33
   2  -3  -7  139.08    2.84
   2  -3  -7  140.15    2.90
   2  -3  -7  139.01    2.65
   2  -3  -7  135.78    2.70
   2  -3  -7  141.21    2.71
  -2   3   7  134.80    2.67
  -2   3   7  137.90    2.82
  -2   3   7  137.70    2.67
  -2   3   7  137.24    2.67
  -2   3   7  136.31    2.71
   1  -3  -7    4.26    0.47
   1  -3  -7    4.22    0.52
   1  -3  -7    5.08    0.68
   1  -3  -7    3.51    0.41
   1  -3  -7    4.46    0.61
  -1   3   7    4.09    0.48
  -1   3   7    3.95    0.51
  -1   3   7    3.47    0.38
  -1   3   7    3.68    0.42
  -1   3   7    4.54    0.53
  -1   3   7    4.02    0.44
   0  -3  -7  102.32    2.16
   0  -3  -7  102.15    1.88
   0  -3  -7  101.43    2.05
   0  -3  -7  100.96    2.05
   0  -3  -7   99.82    2.17
   0   3   7  105.08    1.95
   0   3   7  102.46    1.95
   0   3   7   99.93    2.06
   0   3   7   99.68    2.07
   0   3   7  104.18    2.21
   0   3   7  104.93    2.18
  -1  -3  -7   36.42    1.11
  -1  -3  -7   36.22    1.00
  -1  -3  -7   36.37    1.11
  -1  -3  -7   36.39    0.99
  -1  -3  -7   36.03    0.79
   1   3   7   36.33    1.11
   1   3   7   35.30    1.12
   1   3   7   36.64    0.85
   1   3   7   36.18    1.04
   1   3   7   37.13    1.04
   1   3   7   36.37    1.02
  -2  -3  -7   13.99    0.60
  -2  -3  -7   14.36    0.71
  -2  -3  -7   14.03    0.59
   2   3   7   14.67    0.75
   2   3   7   13.73    0.66
   2   3   7   14.64    0.65
   2   3   7   14.29    0.72
   2   3   7   14.30    0.73
  -3  -3  -7   40.28    0.95
  -3  -3  -7   41.11    0.95
  -3  -3  -7   41.49    1.10
   3   3   7   42.11    1.15
   3   3   7   40.86    1.06
   3   3   7   41.27    1.06
   3   3   7   41.28    1.24
   3   3   7   41.76    1.18
  -4  -3  -7   -0.34    0.35
  -4  -3  -7    0.32    0.26
   4   3   7    0.31    0.38
   4   3   7    0.37    0.25
   4   3   7    0.29    0.27
   4   3   7    0.35    0.27
   4   3   7   -0.09    0.32
  -5  -3  -7   17.41    0.99
  -5  -3  -7   16.52    0.70
   5   3   7   18.19    0.73
   5   3   7   16.84    0.66
   5   3   7   15.78    0.96
   5   3   7   16.11    0.65
   5   3   7   16.40    0.93
  -6  -3  -7    2.01    0.54
  -6  -3  -7    2.25    0.35
   6   3   7    1.20    0.47
   6   3   7    2.17    0.61
   6   3   7    2.53    0.37
   6   3   7    2.42    0.34
   6   3   7    1.89    0.23
   6   3   7    2.04    0.32
  -7  -3  -7   17.19    1.20
  -7  -3  -7   18.30    0.80
   7   3   7   19.09    1.14
   7   3   7   19.06    0.68
   7   3   7   19.00    1.34
   7   3   7   17.92    0.76
   7   3   7   17.47    0.70
   7   3   7   18.10    0.70
  -8  -3  -7   51.54    1.89
  -8  -3  -7   51.86    1.39
   8   3   7   49.48    1.27
   8   3   7   52.64    2.02
   8   3   7   52.96    1.69
   8   3   7   51.67    1.30
   8   3   7   55.84    1.83
  -9  -3  -7   18.45    1.11
  -9  -3  -7   17.68    1.41
   9   3   7   20.00    1.44
   9   3   7   20.51    1.35
   9   3   7   20.10    0.99
   9   3   7   18.99    0.84
 -10  -3  -7   11.86    1.47
 -10  -3  -7   17.02    1.24
  10   3   7   16.98    1.57
  10   3   7   12.69    1.45
   7  -4  -7   43.50    1.77
  -7   4   7   47.53    1.83
  -7   4   7   41.90    1.99
  -7   4   7   44.59    1.87
   6  -4  -7    1.11    0.71
   6  -4  -7    0.91    0.72
   6  -4  -7    0.62    0.64
   6  -4  -7    0.02    0.81
   6  -4  -7    1.20    0.59
  -6   4   7    1.66    0.64
  -6   4   7    1.88    0.62
  -6   4   7    0.36    0.70
  -6   4   7    0.57    0.52
   5  -4  -7    3.96    0.62
   5  -4  -7    4.48    0.66
   5  -4  -7    3.53    0.83
   5  -4  -7    3.82    0.73
   5  -4  -7    3.42    0.69
  -5   4   7    3.78    0.60
  -5   4   7    3.54    0.70
  -5   4   7    4.08    0.71
  -5   4   7    3.25    0.68
   4  -4  -7   96.92    2.53
   4  -4  -7   96.48    2.24
   4  -4  -7   96.27    2.26
   4  -4  -7   94.18    2.47
  -4   4   7   97.53    2.26
  -4   4   7   96.81    2.16
  -4   4   7   92.48    2.19
  -4   4   7   89.57    2.36
   3  -4  -7   93.48    2.35
   3  -4  -7   89.83    2.26
   3  -4  -7   90.16    2.11
   3  -4  -7   86.70    1.58
   3  -4  -7   90.38    2.08
  -3   4   7   93.07    2.05
  -3   4   7   91.45    2.22
  -3   4   7   88.55    2.27
  -3   4   7   88.33    2.03
  -3   4   7   95.65    2.13
   2  -4  -7   95.34    1.75
   2  -4  -7   91.97    2.36
   2  -4  -7   99.45    2.14
   2  -4  -7  100.45    2.33
   2  -4  -7   97.90    2.28
  -2   4   7  100.69    2.13
  -2   4   7   95.21    2.26
  -2   4   7   93.27    2.35
  -2   4   7   95.20    2.16
  -2   4   7  100.09    2.12
   1  -4  -7   13.90    0.73
   1  -4  -7   14.56    0.84
   1  -4  -7   14.02    0.75
   1  -4  -7   14.07    0.57
   1  -4  -7   13.37    0.87
  -1   4   7   14.06    0.93
  -1   4   7   16.01    0.78
  -1   4   7   14.83    0.82
  -1   4   7   13.64    0.75
  -1   4   7   14.21    0.74
   0  -4  -7   22.77    1.17
   0  -4  -7   25.73    0.92
   0  -4  -7   25.16    0.96
   0  -4  -7   24.67    0.89
   0  -4  -7   24.54    0.78
   0   4   7   21.75    1.09
   0   4   7   23.90    1.04
   0   4   7   24.21    0.97
   0   4   7   26.17    0.86
   0   4   7   24.93    0.97
   0   4   7   25.01    0.80
   0   4   7   23.95    0.88
  -1  -4  -7  116.36    2.25
  -1  -4  -7  115.49    2.26
  -1  -4  -7  114.37    2.33
  -1  -4  -7  115.59    2.41
  -1  -4  -7  115.50    2.25
   1   4   7  114.02    2.28
   1   4   7  113.55    2.43
   1   4   7  115.58    2.26
   1   4   7  119.07    2.11
   1   4   7  117.33    2.31
   1   4   7  119.74    2.36
  -2  -4  -7    4.61    0.46
  -2  -4  -7    4.91    0.44
  -2  -4  -7    4.31    0.56
  -2  -4  -7    3.97    0.50
  -2  -4  -7    4.24    0.47
   2   4   7    4.30    0.37
   2   4   7    4.51    0.50
   2   4   7    3.10    0.48
   2   4   7    4.24    0.48
   2   4   7    4.39    0.51
   2   4   7    4.33    0.57
  -3  -4  -7  138.53    2.42
  -3  -4  -7  138.30    2.72
  -3  -4  -7  140.83    2.67
  -3  -4  -7  133.93    2.44
   3   4   7  135.27    2.54
   3   4   7  138.94    2.67
   3   4   7  135.28    2.60
   3   4   7  133.85    2.71
   3   4   7  141.17    2.56
  -4  -4  -7    3.27    0.32
  -4  -4  -7    3.31    0.31
  -4  -4  -7    3.69    0.50
  -4  -4  -7    3.73    0.43
   4   4   7    3.09    0.42
   4   4   7    4.07    0.46
   4   4   7    2.87    0.50
   4   4   7    2.53    0.36
   4   4   7    2.13    0.39
  -5  -4  -7   43.89    1.20
  -5  -4  -7   44.19    1.40
   5   4   7   43.20    1.24
   5   4   7   43.72    1.21
   5   4   7   43.57    1.09
   5   4   7   43.23    1.07
  -6  -4  -7   75.22    1.69
  -6  -4  -7   74.56    1.99
   6   4   7   73.95    1.52
   6   4   7   74.65    1.69
   6   4   7   74.89    2.03
   6   4   7   71.94    1.51
  -7  -4  -7   67.41    1.97
  -7  -4  -7   69.01    1.62
   7   4   7   66.25    2.04
   7   4   7   64.33    1.39
   7   4   7   66.25    1.40
   7   4   7   66.11    1.59
   7   4   7   70.14    1.92
  -8  -4  -7  158.08    2.85
  -8  -4  -7  168.32    3.62
   8   4   7  159.46    2.81
   8   4   7  155.66    2.77
   8   4   7  152.99    3.49
   8   4   7  165.59    3.05
   8   4   7  162.96    3.63
   8   4   7  163.97    3.45
  -9  -4  -7    0.15    0.57
   9   4   7    0.43    0.53
   9   4   7    0.77    0.85
   9   4   7    0.08    0.40
   9   4   7    0.16    0.64
   9   4   7    0.30    0.44
 -10  -4  -7    8.74    1.09
 -10  -4  -7    8.53    0.97
  10   4   7   10.38    1.26
  10   4   7    9.63    0.93
  10   4   7    7.55    0.99
  10   4   7    9.70    0.95
   6  -5  -7    0.66    0.68
   6  -5  -7    0.34    0.79
  -6   5   7    1.62    0.65
  -6   5   7    0.79    0.74
  -6   5   7   -0.11    0.66
   5  -5  -7    0.14    0.55
   5  -5  -7    0.91    0.68
   5  -5  -7   -0.77    0.74
   5  -5  -7    1.41    0.69
  -5   5   7    1.30    0.55
  -5   5   7    0.35    0.59
  -5   5   7    0.58    0.68
  -5   5   7    2.22    0.58
   4  -5  -7   52.94    1.95
   4  -5  -7   51.76    1.14
   4  -5  -7   53.58    1.71
   4  -5  -7   53.51    1.88
   4  -5  -7   53.33    1.66
  -4   5   7   52.25    1.57
  -4   5   7   51.90    1.92
  -4   5   7   56.43    1.81
  -4   5   7   54.90    1.60
  -4   5   7   51.31    1.78
   3  -5  -7   10.94    0.56
   3  -5  -7   10.72    0.95
   3  -5  -7   11.79    1.05
   3  -5  -7   10.83    0.86
   3  -5  -7   13.21    1.20
  -3   5   7    9.70    1.08
  -3   5   7   11.42    0.88
  -3   5   7   11.43    1.01
  -3   5   7   11.54    0.97
  -3   5   7   12.32    0.87
   2  -5  -7    5.64    0.68
   2  -5  -7    4.80    0.60
   2  -5  -7    5.45    0.72
   2  -5  -7    5.42    0.49
   2  -5  -7    4.78    0.59
  -2   5   7    5.09    0.68
  -2   5   7    5.09    0.66
  -2   5   7    5.39    0.67
  -2   5   7    4.86    0.58
  -2   5   7    5.46    0.63
  -2   5   7    5.26    0.59
   1  -5  -7    1.40    0.42
   1  -5  -7    1.74    0.34
   1  -5  -7    1.60    0.46
   1  -5  -7    1.41    0.50
  -1   5   7    1.52    0.45
  -1   5   7    1.53    0.41
  -1   5   7    1.35    0.47
  -1   5   7    2.24    0.43
  -1   5   7    1.31    0.43
   0  -5  -7   80.50    1.82
   0  -5  -7   79.51    1.99
   0  -5  -7   81.65    1.89
   0  -5  -7   81.25    1.82
   0  -5  -7   79.53    1.69
   0   5   7   81.58    1.85
   0   5   7   79.45    1.94
   0   5   7   81.65    1.90
   0   5   7   80.07    2.03
   0   5   7   80.83    1.79
   0   5   7   79.43    1.84
  -1  -5  -7  259.89    4.45
  -1  -5  -7  261.42    4.48
  -1  -5  -7  257.69    4.50
  -1  -5  -7  257.84    4.64
   1   5   7  256.80    4.68
   1   5   7  258.71    4.48
   1   5   7  259.86    4.52
   1   5   7  258.44    4.65
   1   5   7  254.94    4.49
   1   5   7  263.33    4.35
   1   5   7  257.61    4.49
  -2  -5  -7    0.28    0.29
  -2  -5  -7    0.24    0.20
  -2  -5  -7    0.76    0.32
  -2  -5  -7    0.83    0.28
  -2  -5  -7    0.20    0.27
   2   5   7    0.20    0.34
   2   5   7    0.89    0.30
   2   5   7    0.53    0.37
   2   5   7    0.53    0.32
   2   5   7   -0.04    0.28
   2   5   7   -0.22    0.27
  -3  -5  -7  184.91    3.21
  -3  -5  -7  185.16    3.48
  -3  -5  -7  184.59    3.24
  -3  -5  -7  186.89    3.48
   3   5   7  189.10    3.01
   3   5   7  186.76    3.50
   3   5   7  188.37    3.52
   3   5   7  181.85    3.30
   3   5   7  186.64    3.32
   3   5   7  185.98    3.34
  -4  -5  -7   32.54    1.11
  -4  -5  -7   30.61    0.80
  -4  -5  -7   31.57    0.80
  -4  -5  -7   30.39    1.14
   4   5   7   31.30    1.17
   4   5   7   31.64    0.96
   4   5   7   30.93    0.93
   4   5   7   31.86    1.11
   4   5   7   30.76    0.97
  -5  -5  -7   67.14    1.71
  -5  -5  -7   66.48    1.64
  -5  -5  -7   65.96    1.79
   5   5   7   64.95    1.46
   5   5   7   65.24    1.51
   5   5   7   65.55    1.65
   5   5   7   64.37    1.43
   5   5   7   66.39    1.81
  -6  -5  -7   96.76    2.29
  -6  -5  -7  102.07    2.17
   6   5   7   98.64    2.05
   6   5   7   95.36    2.13
   6   5   7   95.02    1.88
   6   5   7   98.77    1.92
   6   5   7   96.74    2.40
  -7  -5  -7    7.97    0.95
   7   5   7    8.71    0.80
   7   5   7    8.53    0.89
   7   5   7    9.12    0.56
   7   5   7    9.81    0.62
   7   5   7    9.95    1.08
  -8  -5  -7  161.69    3.51
   8   5   7  156.80    2.79
   8   5   7  161.54    3.61
   8   5   7  159.16    3.09
   8   5   7  165.06    3.17
   8   5   7  153.50    2.78
   8   5   7  164.83    3.44
  -9  -5  -7   10.83    1.19
   9   5   7   11.88    0.96
   9   5   7   13.54    0.97
   9   5   7   12.83    1.16
   9   5   7   13.16    1.44
   9   5   7   11.72    0.72
 -10  -5  -7    0.96    0.66
  10   5   7    1.07    0.46
  10   5   7    1.20    0.63
  10   5   7    1.42    0.73
   5  -6  -7   11.73    1.21
   5  -6  -7   11.49    1.23
  -5   6   7   13.14    1.17
  -5   6   7   11.30    1.20
   4  -6  -7   25.01    0.91
   4  -6  -7   25.65    1.30
   4  -6  -7   26.27    1.56
   4  -6  -7   25.49    1.65
   4  -6  -7   23.79    1.40
  -4   6   7   24.83    1.28
  -4   6   7   24.95    1.43
   3  -6  -7   43.30    1.59
   3  -6  -7   43.49    1.19
   3  -6  -7   43.83    1.80
   3  -6  -7   43.71    1.51
   3  -6  -7   43.58    1.71
  -3   6   7   44.84    1.72
  -3   6   7   43.71    1.49
  -3   6   7   43.19    1.75
  -3   6   7   43.15    1.62
  -3   6   7   42.72    1.48
   2  -6  -7    1.53    0.57
   2  -6  -7    1.83    0.57
   2  -6  -7    1.09    0.61
   2  -6  -7    1.97    0.48
   2  -6  -7    1.93    0.40
  -2   6   7    1.25    0.58
  -2   6   7    1.12    0.50
  -2   6   7    0.81    0.49
  -2   6   7    0.96    0.48
  -2   6   7    1.42    0.59
  -2   6   7    1.33    0.62
   1  -6  -7   19.86    1.02
   1  -6  -7   19.79    1.23
   1  -6  -7   20.01    1.25
   1  -6  -7   21.38    0.99
   1  -6  -7   21.67    0.85
  -1   6   7   20.29    1.01
  -1   6   7   21.73    1.13
  -1   6   7   19.62    1.13
  -1   6   7   18.81    1.23
  -1   6   7   21.46    1.01
  -1   6   7   19.95    1.03
   0  -6  -7    5.91    0.70
   0  -6  -7    6.10    0.67
   0  -6  -7    6.74    0.93
   0  -6  -7    7.36    0.76
   0  -6  -7    5.21    0.62
   0   6   7    6.72    0.69
   0   6   7    8.56    0.93
   0   6   7    6.35    0.72
   0   6   7    6.70    0.73
   0   6   7    6.70    0.75
   0   6   7    5.48    0.72
  -1  -6  -7  302.02    5.33
  -1  -6  -7  303.72    5.13
  -1  -6  -7  297.07    5.09
  -1  -6  -7  301.85    5.13
  -1  -6  -7  302.11    5.13
   1   6   7  280.85    5.43
   1   6   7  252.16    6.13
   1   6   7  302.96    5.12
   1   6   7  304.71    5.18
   1   6   7  308.89    5.34
   1   6   7  307.74    5.06
  -2  -6  -7    0.76    0.35
  -2  -6  -7    1.36    0.36
  -2  -6  -7    0.43    0.32
  -2  -6  -7    0.21    0.38
  -2  -6  -7    0.82    0.29
  -2  -6  -7    0.36    0.31
   2   6   7    0.53    0.41
   2   6   7    0.67    0.34
   2   6   7    0.33    0.31
   2   6   7    0.44    0.33
   2   6   7    0.81    0.38
   2   6   7    0.48    0.40
  -3  -6  -7   61.61    1.26
  -3  -6  -7   62.38    1.42
  -3  -6  -7   63.54    1.68
  -3  -6  -7   61.48    1.61
  -3  -6  -7   59.23    1.42
  -3  -6  -7   60.58    1.42
   3   6   7   60.89    1.67
   3   6   7   61.42    1.42
   3   6   7   64.98    1.71
   3   6   7   61.75    1.30
   3   6   7   60.05    1.48
   3   6   7   54.18    1.74
  -4  -6  -7    6.10    0.70
  -4  -6  -7    6.18    0.77
  -4  -6  -7    5.86    0.49
  -4  -6  -7    6.41    0.50
   4   6   7    5.47    0.74
   4   6   7    5.87    0.61
   4   6   7    6.36    0.79
   4   6   7    5.89    0.56
   4   6   7    6.55    0.56
   4   6   7    5.82    0.47
  -5  -6  -7   17.75    0.97
  -5  -6  -7   14.74    1.04
  -5  -6  -7   16.50    0.53
  -5  -6  -7   16.69    0.90
  -5  -6  -7   16.28    0.54
   5   6   7   15.46    0.72
   5   6   7   18.94    1.09
   5   6   7   16.82    0.72
   5   6   7   17.51    0.96
   5   6   7   17.46    0.78
  -6  -6  -7   93.55    2.18
  -6  -6  -7   91.21    2.14
  -6  -6  -7   91.81    2.32
   6   6   7   91.15    2.16
   6   6   7   92.13    2.36
   6   6   7   90.97    1.87
   6   6   7   90.82    1.88
   6   6   7   90.36    1.85
  -7  -6  -7    3.52    0.60
  -7  -6  -7    3.23    0.70
  -7  -6  -7    4.04    0.59
   7   6   7    3.40    0.55
   7   6   7    3.75    0.47
   7   6   7    2.78    0.40
   7   6   7    3.18    0.39
  -8  -6  -7   56.99    1.82
  -8  -6  -7   59.43    1.78
   8   6   7   58.16    1.32
   8   6   7   57.75    1.51
   8   6   7   59.96    1.37
   8   6   7   62.04    2.10
   8   6   7   59.28    1.45
   8   6   7   57.05    1.74
  -9  -6  -7    5.34    0.76
   9   6   7    4.64    0.44
   9   6   7    3.84    0.96
   9   6   7    5.58    0.59
   9   6   7    5.31    0.58
   9   6   7    5.03    0.75
   9   6   7    5.24    0.63
   9   6   7    3.86    0.62
 -10  -6  -7    0.30    0.65
  10   6   7   -0.61    0.56
  10   6   7    1.51    0.55
  10   6   7   -0.68    0.40
  10   6   7    1.56    0.68
   4  -7  -7   11.99    1.28
   4  -7  -7   11.59    1.23
   4  -7  -7   11.90    0.89
  -4   7   7   12.09    1.27
  -4   7   7   10.36    1.39
  -4   7   7   10.20    1.19
   3  -7  -7   13.62    1.48
   3  -7  -7   13.71    0.88
   3  -7  -7   13.05    1.35
   3  -7  -7   12.97    1.15
  -3   7   7   10.35    1.11
  -3   7   7   12.84    1.13
  -3   7   7   12.60    1.18
  -3   7   7   10.61    1.45
   2  -7  -7    2.53    0.67
   2  -7  -7    3.28    0.78
   2  -7  -7    2.64    0.48
   2  -7  -7    0.99    0.62
   2  -7  -7    2.33    0.62
  -2   7   7    2.36    0.62
  -2   7   7    2.21    0.59
  -2   7   7    2.69    0.76
  -2   7   7    3.26    0.78
   1  -7  -7   77.44    1.87
   1  -7  -7   77.25    2.03
   1  -7  -7   81.80    2.14
   1  -7  -7   77.49    2.27
  -1   7   7   78.14    2.03
  -1   7   7   80.26    2.30
  -1   7   7   79.42    2.12
  -1   7   7   79.07    2.06
  -1   7   7   79.29    2.16
  -1   7   7   78.37    2.22
   0  -7  -7    5.86    0.77
   0  -7  -7    6.52    0.83
   0  -7  -7    6.34    0.66
   0  -7  -7    7.06    0.75
   0  -7  -7    6.64    0.78
   0   7   7    6.16    0.81
   0   7   7    7.23    0.83
   0   7   7    6.47    0.70
   0   7   7    6.42    0.78
   0   7   7    7.86    1.05
  -1  -7  -7  149.93    2.95
  -1  -7  -7  142.29    2.91
  -1  -7  -7  144.17    2.91
  -1  -7  -7  148.14    3.16
  -1  -7  -7  144.82    2.92
   1   7   7  145.84    2.90
   1   7   7  146.52    2.99
   1   7   7  141.19    2.94
   1   7   7  147.49    3.17
   1   7   7  143.37    3.19
  -2  -7  -7   10.86    0.81
  -2  -7  -7   11.72    0.78
  -2  -7  -7   11.66    1.00
  -2  -7  -7   12.23    0.78
  -2  -7  -7   10.24    0.73
  -2  -7  -7   10.91    0.72
   2   7   7   10.86    0.97
   2   7   7   11.92    0.87
   2   7   7   12.41    0.78
   2   7   7   11.07    0.74
   2   7   7   10.36    0.73
   2   7   7   10.59    0.98
  -3  -7  -7    0.46    0.41
  -3  -7  -7   -0.41    0.30
  -3  -7  -7   -0.05    0.31
  -3  -7  -7    0.55    0.34
  -3  -7  -7    0.63    0.46
  -3  -7  -7    0.44    0.36
   3   7   7    0.60    0.42
   3   7   7    0.49    0.38
   3   7   7    0.13    0.33
   3   7   7    0.54    0.48
   3   7   7    0.28    0.38
   3   7   7    0.20    0.40
  -4  -7  -7    4.95    0.65
  -4  -7  -7    4.83    0.56
  -4  -7  -7    4.22    0.59
  -4  -7  -7    5.25    0.54
  -4  -7  -7    6.05    0.59
   4   7   7    4.57    0.69
   4   7   7    5.81    0.55
   4   7   7    5.18    0.60
   4   7   7    4.90    0.56
   4   7   7    6.34    0.84
   4   7   7    5.25    0.57
   4   7   7    5.22    0.74
  -5  -7  -7   16.53    0.67
  -5  -7  -7   15.84    0.65
  -5  -7  -7   18.13    0.90
  -5  -7  -7   16.64    1.07
  -5  -7  -7   15.88    0.62
  -5  -7  -7   15.63    1.04
   5   7   7   17.04    0.67
   5   7   7   16.96    0.71
   5   7   7   17.30    1.06
   5   7   7   17.34    0.82
   5   7   7   19.23    1.18
   5   7   7   17.53    0.91
  -6  -7  -7   33.73    1.41
  -6  -7  -7   35.64    1.42
  -6  -7  -7   35.11    0.84
  -6  -7  -7   36.56    1.26
   6   7   7   36.56    1.39
   6   7   7   36.65    1.14
   6   7   7   36.59    1.52
   6   7   7   34.39    0.92
   6   7   7   34.99    1.08
  -7  -7  -7    1.13    0.55
  -7  -7  -7   -0.44    0.46
  -7  -7  -7    0.54    0.55
   7   7   7    0.38    0.25
   7   7   7   -0.12    0.34
   7   7   7    0.79    0.41
   7   7   7    0.25    0.47
   7   7   7   -0.34    0.30
  -8  -7  -7   14.79    1.26
  -8  -7  -7   14.31    1.20
  -8  -7  -7   14.02    1.06
   8   7   7   14.26    0.80
   8   7   7   14.87    1.11
   8   7   7   12.58    0.72
   8   7   7   14.12    0.66
   8   7   7   12.77    0.73
   8   7   7   13.02    0.61
  -9  -7  -7    2.66    0.83
  -9  -7  -7    2.91    0.70
   9   7   7    4.81    0.64
   9   7   7    4.13    0.42
   9   7   7    3.30    0.45
   9   7   7    4.01    0.49
   9   7   7    3.20    0.68
   9   7   7    4.48    1.06
   9   7   7    3.75    0.51
 -10  -7  -7    2.17    0.71
  10   7   7    2.42    0.46
  10   7   7    1.83    0.75
  10   7   7    1.91    0.56
  10   7   7    2.90    0.53
  10   7   7    2.25    0.73
   3  -8  -7    0.78    0.59
   3  -8  -7   -0.03    0.86
   3  -8  -7   -0.85    1.08
  -3   8   7    0.74    0.76
   2  -8  -7    0.78    0.66
   2  -8  -7   -0.47    0.83
   2  -8  -7    0.60    0.78
   2  -8  -7    0.87    0.73
   2  -8  -7    0.56    0.61
  -2   8   7    0.35    0.75
  -2   8   7    0.65    0.64
  -2   8   7   -0.80    0.54
  -2   8   7    0.14    0.74
   1  -8  -7   97.21    2.66
   1  -8  -7   96.99    2.44
   1  -8  -7  102.26    2.55
   1  -8  -7   89.50    2.53
  -1   8   7  100.59    2.71
  -1   8   7   97.58    2.68
  -1   8   7   97.64    2.60
  -1   8   7   94.05    2.50
  -1   8   7   94.59    2.40
  -1   8   7   92.28    2.41
   0  -8  -7   46.74    1.58
   0  -8  -7   44.04    1.55
   0  -8  -7   39.70    1.69
   0  -8  -7   44.36    1.54
   0  -8  -7   43.47    1.79
   0   8   7   46.59    1.82
   0   8   7   43.75    1.53
   0   8   7   45.38    1.64
   0   8   7   43.41    1.58
  -1  -8  -7   30.78    1.26
  -1  -8  -7   30.81    1.27
  -1  -8  -7   28.70    1.22
  -1  -8  -7   31.92    1.23
  -1  -8  -7   32.00    1.52
  -1  -8  -7   31.16    1.27
   1   8   7   31.88    1.27
   1   8   7   31.91    1.26
   1   8   7   30.64    1.25
   1   8   7   30.64    1.52
  -2  -8  -7    0.66    0.47
  -2  -8  -7    0.63    0.57
  -2  -8  -7   -0.11    0.46
  -2  -8  -7    0.59    0.43
  -2  -8  -7    0.28    0.41
  -2  -8  -7    0.09    0.39
   2   8   7    0.80    0.54
   2   8   7   -0.02    0.42
   2   8   7    1.03    0.53
   2   8   7    0.58    0.41
   2   8   7    0.69    0.44
  -3  -8  -7    3.70    0.55
  -3  -8  -7    4.18    0.63
  -3  -8  -7    3.72    0.52
  -3  -8  -7    5.21    0.52
   3   8   7    5.13    0.76
   3   8   7    4.35    0.65
   3   8   7    3.91    0.46
   3   8   7    3.48    0.50
   3   8   7    4.26    0.67
   3   8   7    3.83    0.57
  -4  -8  -7   23.82    1.18
  -4  -8  -7   23.34    0.95
  -4  -8  -7   23.12    0.97
  -4  -8  -7   21.91    0.83
  -4  -8  -7   23.45    0.94
   4   8   7   21.91    0.91
   4   8   7   23.22    0.80
   4   8   7   23.50    1.27
   4   8   7   22.56    1.02
   4   8   7   22.18    1.31
   4   8   7   23.61    1.12
  -5  -8  -7   60.84    1.77
  -5  -8  -7   66.37    1.50
  -5  -8  -7   65.42    1.51
  -5  -8  -7   65.83    1.50
  -5  -8  -7   65.13    1.92
  -5  -8  -7   64.63    1.97
   5   8   7   63.35    1.30
   5   8   7   65.62    1.97
   5   8   7   67.54    1.75
   5   8   7   66.70    1.67
   5   8   7   63.54    2.00
  -6  -8  -7    8.94    0.66
  -6  -8  -7    9.23    0.86
  -6  -8  -7    7.18    0.55
  -6  -8  -7    5.16    0.72
  -6  -8  -7    7.15    0.84
   6   8   7    8.21    1.42
   6   8   7    7.29    0.87
   6   8   7    6.84    0.85
   6   8   7    8.84    1.03
   6   8   7    6.46    0.73
  -7  -8  -7    0.27    0.49
  -7  -8  -7    0.09    0.58
  -7  -8  -7    0.67    0.62
  -7  -8  -7    0.65    0.35
   7   8   7    1.79    0.50
   7   8   7   -0.68    0.52
  -8  -8  -7    1.63    0.74
  -8  -8  -7    0.46    0.35
  -8  -8  -7    1.66    0.57
   8   8   7    0.94    0.42
   8   8   7    0.95    0.58
   8   8   7    1.02    0.35
   8   8   7    0.06    0.79
  -9  -8  -7   78.54    2.50
  -9  -8  -7   83.06    2.22
   9   8   7   80.12    1.85
   9   8   7   77.73    1.80
   9   8   7   78.57    2.31
   9   8   7   78.15    1.68
 -10  -8  -7    6.39    1.11
 -10  -8  -7    5.21    0.79
  10   8   7    5.70    0.55
  10   8   7    4.07    0.83
  10   8   7    4.81    0.83
  10   8   7    5.37    0.56
   1  -9  -7   15.61    1.31
   1  -9  -7   15.38    1.20
   1  -9  -7   13.31    1.43
  -1   9   7   13.71    1.56
  -1   9   7   12.49    1.26
  -1   9   7   13.19    1.25
  -1   9   7   15.53    1.62
   0  -9  -7    6.76    1.00
   0  -9  -7    9.00    1.10
   0  -9  -7    9.03    1.17
   0  -9  -7    7.28    0.84
   0   9   7    6.68    0.83
   0   9   7    5.91    0.97
   0   9   7    7.20    0.84
   0   9   7    6.39    0.88
  -1  -9  -7    2.63    0.69
  -1  -9  -7    0.85    0.62
  -1  -9  -7    1.60    0.62
  -1  -9  -7    1.64    0.57
  -1  -9  -7    1.59    0.63
  -1  -9  -7    2.20    0.75
   1   9   7    1.31    0.57
   1   9   7    1.99    0.74
   1   9   7    1.79    0.58
   1   9   7    2.18    0.63
  -2  -9  -7    3.81    0.79
  -2  -9  -7    4.25    0.60
  -2  -9  -7    4.68    0.73
  -2  -9  -7    4.19    0.63
  -2  -9  -7    2.89    0.66
   2   9   7    3.92    0.76
   2   9   7    3.25    0.60
   2   9   7    3.70    0.67
   2   9   7    3.50    0.59
  -3  -9  -7   44.88    1.48
  -3  -9  -7   43.30    1.45
  -3  -9  -7   42.55    1.62
  -3  -9  -7   41.64    1.47
  -3  -9  -7   41.89    1.27
   3   9   7   43.42    1.75
   3   9   7   41.09    1.47
   3   9   7   41.86    1.43
   3   9   7   41.41    1.59
   3   9   7   41.45    1.27
  -4  -9  -7   13.11    0.72
  -4  -9  -7   11.07    0.88
  -4  -9  -7   13.10    1.11
  -4  -9  -7   13.07    0.99
  -4  -9  -7   10.06    0.84
  -4  -9  -7   11.06    0.94
   4   9   7   13.30    0.91
   4   9   7   14.30    0.96
   4   9   7   14.94    1.34
   4   9   7   12.45    1.09
   4   9   7   11.42    0.70
   4   9   7   13.02    1.22
  -5  -9  -7   32.23    1.20
  -5  -9  -7   32.39    1.09
  -5  -9  -7   29.84    1.12
  -5  -9  -7   32.57    1.16
  -5  -9  -7   33.74    1.47
   5   9   7   31.25    1.37
   5   9   7   32.02    1.18
   5   9   7   31.61    1.25
   5   9   7   33.85    1.60
   5   9   7   30.37    0.80
   5   9   7   33.03    1.54
  -6  -9  -7    0.83    0.50
  -6  -9  -7    0.49    0.46
  -6  -9  -7    0.65    0.61
  -6  -9  -7    0.52    0.38
  -6  -9  -7    0.45    0.41
   6   9   7    0.62    0.61
   6   9   7    0.53    0.59
   6   9   7   -0.19    0.70
   6   9   7    1.36    0.51
  -7  -9  -7   35.29    1.30
  -7  -9  -7   34.05    1.17
  -7  -9  -7   35.91    1.66
   7   9   7   37.36    1.42
   7   9   7   37.28    1.76
   7   9   7   36.50    1.30
   7   9   7   35.69    1.66
  -8  -9  -7    1.85    0.75
  -8  -9  -7   -0.85    0.72
  -8  -9  -7    0.40    0.44
  -8  -9  -7    0.88    0.59
   8   9   7    0.64    0.83
   8   9   7    0.15    0.40
   8   9   7   -0.35    0.63
   8   9   7    0.06    0.57
   8   9   7    0.72    0.48
  -9  -9  -7   82.45    1.90
  -9  -9  -7   91.36    2.30
  -9  -9  -7   90.56    2.73
   9   9   7   88.68    2.12
   9   9   7   90.53    2.06
   9   9   7   85.31    2.64
   9   9   7   89.63    2.61
   9   9   7   86.62    1.89
 -10  -9  -7   18.35    1.44
 -10  -9  -7   20.51    2.05
  10   9   7   20.14    1.10
  10   9   7   18.32    1.65
  10   9   7   19.88    1.45
   0 -10  -7   -1.01    0.74
   0 -10  -7    1.16    0.76
   0  10   7    1.65    0.78
   0  10   7   -1.27    0.85
   0  10   7   -0.54    0.58
  -1 -10  -7   -0.48    0.78
  -1 -10  -7    0.61    0.70
  -1 -10  -7    0.71    0.69
  -1 -10  -7   -0.40    0.64
   1  10   7   -0.11    0.59
   1  10   7   -0.51    0.76
   1  10   7   -0.50    0.64
  -2 -10  -7   19.15    1.31
  -2 -10  -7   22.52    1.43
  -2 -10  -7   20.72    1.38
   2  10   7   22.06    1.35
   2  10   7   21.07    1.28
   2  10   7   20.93    1.65
  -3 -10  -7   50.36    1.77
  -3 -10  -7   47.70    1.68
  -3 -10  -7   48.23    1.86
  -3 -10  -7   46.09    1.46
  -3 -10  -7   46.29    1.72
   3  10   7   51.60    2.07
   3  10   7   50.33    1.71
   3  10   7   47.85    1.72
  -4 -10  -7    4.61    0.53
  -4 -10  -7    4.10    0.76
  -4 -10  -7    4.95    0.72
  -4 -10  -7    3.44    0.82
   4  10   7    5.11    0.68
   4  10   7    4.44    0.84
   4  10   7    5.15    1.04
   4  10   7    5.59    0.76
   4  10   7    5.21    0.84
  -5 -10  -7   -0.21    0.50
  -5 -10  -7    0.37    0.59
  -5 -10  -7   -0.17    0.63
  -5 -10  -7   -0.77    0.63
   5  10   7    0.77    0.69
   5  10   7    0.16    0.77
   5  10   7    0.94    0.58
   5  10   7   -0.40    0.65
   5  10   7    0.55    0.52
  -6 -10  -7    1.95    0.53
  -6 -10  -7    1.90    0.63
  -6 -10  -7    2.82    0.59
  -6 -10  -7    3.55    0.76
   6  10   7    3.02    0.60
   6  10   7    2.00    0.75
   6  10   7    2.91    0.63
   6  10   7    1.62    0.73
   6  10   7    2.38    0.86
  -7 -10  -7   75.42    2.42
  -7 -10  -7   79.38    1.97
  -7 -10  -7   75.39    1.63
  -7 -10  -7   74.16    1.63
   7  10   7   75.37    2.45
   7  10   7   75.70    2.18
   7  10   7   76.37    2.03
   7  10   7   75.92    2.42
  -8 -10  -7   15.57    1.57
  -8 -10  -7   11.50    1.22
  -8 -10  -7   15.59    1.15
   8  10   7   13.86    1.64
   8  10   7   14.23    1.34
   8  10   7   13.19    1.08
   8  10   7   12.94    1.50
  -9 -10  -7   39.53    2.11
  -9 -10  -7   38.68    1.59
   9  10   7   38.66    2.01
   9  10   7   40.80    1.51
   9  10   7   39.02    1.31
   9  10   7   39.58    1.69
   9  10   7   39.81    2.06
  -3 -11  -7   73.75    2.40
  -3 -11  -7   72.74    2.21
  -3 -11  -7   65.25    1.90
   3  11   7   65.57    2.50
   3  11   7   71.03    3.18
   3  11   7   69.03    2.17
  -4 -11  -7   -0.86    0.76
  -4 -11  -7   -0.33    0.52
  -4 -11  -7   -1.10    0.67
   4  11   7    1.00    0.68
   4  11   7    0.92    0.83
   4  11   7    0.30    0.61
  -5 -11  -7    1.27    0.68
  -5 -11  -7    1.54    0.82
  -5 -11  -7    1.80    0.79
  -5 -11  -7   -0.37    0.80
   5  11   7    0.72    0.57
   5  11   7    0.81    0.87
   5  11   7   -0.86    0.65
  -6 -11  -7   -1.69    0.72
  -6 -11  -7   -0.05    0.60
  -6 -11  -7    0.15    0.70
  -6 -11  -7    0.42    0.80
   6  11   7   -0.47    0.58
   6  11   7   -0.71    0.81
   6  11   7    0.54    0.67
  -7 -11  -7   33.14    1.47
  -7 -11  -7   37.82    1.71
  -7 -11  -7   35.87    1.95
  -7 -11  -7   34.75    1.29
   7  11   7   34.93    2.05
   7  11   7   34.14    1.58
   8  11   7   50.78    1.99
   8  11   7   50.03    1.79
   5   7  -8    9.92    1.36
  -5  -7   8   12.95    1.39
  -5  -7   8   12.21    1.27
   4   7  -8   68.24    2.23
   4   7  -8   63.35    2.11
  -4  -7   8   66.43    2.21
  -4  -7   8   65.48    2.09
   3   7  -8    0.35    0.65
   3   7  -8    0.86    0.87
   3   7  -8   -0.39    1.26
   3   7  -8    1.60    0.68
  -3  -7   8   -0.18    0.78
   7   6  -8    2.71    0.82
   7   6  -8   -1.72    0.93
   7   6  -8    0.45    0.71
  -7  -6   8   -0.60    0.82
  -7  -6   8    0.17    0.67
  -7  -6   8    0.10    0.79
   6   6  -8    0.85    0.66
   6   6  -8    0.92    0.80
   6   6  -8    0.60    0.72
  -6  -6   8    2.07    0.71
  -6  -6   8    2.07    0.81
  -6  -6   8    1.16    0.92
  -6  -6   8    1.73    0.51
   5   6  -8   -0.48    0.69
   5   6  -8    0.00    0.61
   5   6  -8   -0.74    0.61
  -5  -6   8    0.80    0.97
  -5  -6   8   -0.01    0.54
  -5  -6   8   -0.34    0.65
   4   6  -8   14.45    1.19
   4   6  -8   13.39    1.22
   4   6  -8   11.87    1.15
   4   6  -8   12.47    1.35
  -4  -6   8   14.15    1.24
  -4  -6   8   14.89    1.10
   3   6  -8    1.51    0.66
   3   6  -8    0.51    0.72
   3   6  -8    0.33    0.54
   3   6  -8    1.29    0.69
  -3  -6   8    2.69    0.73
  -3  -6   8    0.82    0.65
   2   6  -8    2.34    0.57
   2   6  -8    0.87    0.59
   2   6  -8    1.59    0.80
   2   6  -8    1.74    0.68
   2   6  -8    1.24    0.69
  -2  -6   8    1.52    0.84
  -2  -6   8    1.11    0.73
  -2  -6   8    1.78    0.70
   1   6  -8    6.82    0.92
   1   6  -8    5.73    0.85
   1   6  -8    5.21    0.88
   1   6  -8    5.35    0.78
   1   6  -8    5.43    1.10
  -1  -6   8    5.51    0.89
  -1  -6   8    5.94    0.91
   0   6  -8    6.51    0.88
   0   6  -8    6.69    0.86
   0  -6   8    6.97    1.01
   8   5  -8    0.65    0.71
   8   5  -8   -0.65    0.97
   8   5  -8    0.43    0.85
  -8  -5   8    2.36    0.77
  -8  -5   8    0.19    0.62
  -8  -5   8    2.12    0.72
   7   5  -8    0.51    0.62
   7   5  -8    1.12    0.75
  -7  -5   8   -1.10    0.56
  -7  -5   8    0.01    0.62
  -7  -5   8    1.49    1.15
  -7  -5   8   -1.74    0.82
   6   5  -8   37.85    1.55
   6   5  -8   36.34    1.72
   6   5  -8   37.05    1.72
  -6  -5   8   36.69    1.45
  -6  -5   8   36.38    1.71
   5   5  -8    6.36    0.83
   5   5  -8    7.01    0.84
   5   5  -8    7.31    0.81
   5   5  -8    7.30    0.86
  -5  -5   8    7.29    0.74
  -5  -5   8    7.23    0.93
  -5  -5   8    8.44    1.00
  -5  -5   8    7.86    0.90
   4   5  -8    0.75    0.54
   4   5  -8    1.08    0.53
   4   5  -8    0.55    0.62
   4   5  -8    0.19    0.56
  -4  -5   8    0.06    0.66
  -4  -5   8    0.55    0.59
  -4  -5   8   -0.03    0.45
  -4  -5   8   -0.84    0.66
  -4  -5   8   -0.31    0.60
   3   5  -8   30.13    1.30
   3   5  -8   29.07    1.45
   3   5  -8   30.80    1.33
   3   5  -8   30.03    1.35
  -3  -5   8   27.66    1.33
  -3  -5   8   29.41    1.55
  -3  -5   8   27.46    1.39
  -3  -5   8   28.61    1.27
  -3  -5   8   29.95    1.55
   2   5  -8    1.12    0.49
   2   5  -8    0.69    0.58
   2   5  -8    1.02    0.62
   2   5  -8    1.48    0.66
   2   5  -8    1.77    0.59
  -2  -5   8    1.43    0.61
  -2  -5   8    0.07    0.69
  -2  -5   8    1.28    0.61
   1   5  -8  123.08    2.98
   1   5  -8  121.80    2.87
   1   5  -8  122.20    2.91
   1   5  -8  125.63    2.82
   1   5  -8  123.12    2.54
   1   5  -8  120.26    2.79
  -1  -5   8  125.14    2.89
  -1  -5   8  122.80    2.92
  -1  -5   8  124.42    2.93
   0   5  -8   10.07    1.04
   0   5  -8   10.54    0.77
   0   5  -8   10.92    1.19
   0   5  -8   12.52    1.07
   0   5  -8   10.27    1.18
   0   5  -8    9.83    1.33
   0  -5   8   11.81    1.16
   0  -5   8   10.54    1.29
   0  -5   8    9.34    0.96
  -1   5  -8    4.43    0.77
  -1   5  -8    5.55    0.78
  -1   5  -8    4.39    0.76
   1  -5   8    2.94    0.83
   1  -5   8    5.13    0.98
   1  -5   8    4.85    0.78
  -2   5  -8    0.57    0.61
  -2   5  -8    1.09    0.79
  -2   5  -8    0.25    0.69
  -2   5  -8    1.78    0.65
   2  -5   8   -1.86    0.76
   2  -5   8   -0.60    0.72
   8   4  -8   17.79    1.52
   8   4  -8   18.38    1.33
   8   4  -8   16.60    1.46
  -8  -4   8   17.60    1.18
  -8  -4   8   16.15    0.98
  -8  -4   8   16.25    1.05
   7   4  -8    6.31    0.88
   7   4  -8    6.10    0.87
   7   4  -8    6.62    0.77
  -7  -4   8    8.25    0.84
  -7  -4   8    5.31    0.66
  -7  -4   8    7.70    0.96
  -7  -4   8    7.31    0.77
   6   4  -8   25.21    1.41
   6   4  -8   26.60    1.30
   6   4  -8   28.13    1.49
  -6  -4   8   24.90    1.51
  -6  -4   8   28.55    1.24
  -6  -4   8   26.85    1.30
  -6  -4   8   27.42    1.51
   5   4  -8   15.52    1.18
   5   4  -8   17.51    1.21
   5   4  -8   13.69    1.02
  -5  -4   8   14.61    1.03
  -5  -4   8   13.80    0.70
  -5  -4   8   14.59    1.28
  -5  -4   8   13.65    1.24
  -5  -4   8   12.76    1.03
   4   4  -8   -0.40    0.44
   4   4  -8    0.08    0.51
   4   4  -8    0.04    0.53
  -4  -4   8    0.19    0.49
  -4  -4   8    0.17    0.52
  -4  -4   8   -0.42    0.56
  -4  -4   8    0.81    0.65
  -4  -4   8   -0.08    0.36
   3   4  -8   61.28    1.78
   3   4  -8   60.52    1.75
   3   4  -8   63.19    1.87
  -3  -4   8   60.11    1.62
  -3  -4   8   62.00    1.78
  -3  -4   8   65.66    1.88
  -3  -4   8   60.61    1.88
  -3  -4   8   64.79    1.99
   2   4  -8    0.31    0.41
   2   4  -8   -0.23    0.50
   2   4  -8   -1.16    0.41
   2   4  -8    0.16    0.47
  -2  -4   8   -0.20    0.55
  -2  -4   8    0.29    0.49
  -2  -4   8   -0.46    0.58
  -2  -4   8   -0.91    0.49
   1   4  -8  121.96    2.55
   1   4  -8  131.83    2.90
   1   4  -8  124.54    2.83
   1   4  -8  130.40    2.80
   1   4  -8  129.12    3.20
  -1  -4   8  127.24    2.85
  -1  -4   8  128.81    2.83
  -1  -4   8  128.60    3.01
  -1  -4   8  124.54    2.82
   0   4  -8   55.54    1.77
   0   4  -8   57.25    1.39
   0   4  -8   53.84    1.76
   0   4  -8   58.43    1.69
   0   4  -8   57.47    1.93
   0   4  -8   60.98    2.09
   0  -4   8   56.54    1.82
   0  -4   8   58.41    1.79
   0  -4   8   59.94    1.86
  -1   4  -8   -0.04    0.46
  -1   4  -8    1.38    0.71
  -1   4  -8    1.23    0.57
  -1   4  -8    0.76    0.56
   1  -4   8   -0.36    0.61
   1  -4   8   -0.29    0.60
   1  -4   8    2.00    0.59
   1  -4   8   -1.14    0.58
  -2   4  -8    8.02    0.82
  -2   4  -8    6.24    0.81
  -2   4  -8    7.38    0.73
   2  -4   8    6.47    0.81
   2  -4   8    5.50    0.88
   2  -4   8    8.22    0.93
   2  -4   8    7.22    0.90
  -3   4  -8    3.09    0.68
  -3   4  -8    2.85    0.63
  -3   4  -8    2.62    0.75
  -3   4  -8    4.00    0.76
   3  -4   8    1.69    0.87
   3  -4   8    2.32    0.71
   3  -4   8    2.23    0.79
   9   3  -8   -0.65    0.81
   9   3  -8   -0.56    0.69
  -9  -3   8   -0.31    0.72
   8   3  -8   32.37    1.69
   8   3  -8   32.13    1.65
   8   3  -8   32.58    1.69
   8   3  -8   32.27    1.50
  -8  -3   8   31.93    1.17
  -8  -3   8   30.82    1.27
  -8  -3   8   31.28    1.69
   7   3  -8   38.80    1.68
   7   3  -8   38.84    1.64
   7   3  -8   39.61    1.66
  -7  -3   8   40.04    1.40
  -7  -3   8   38.98    1.10
  -7  -3   8   38.74    1.74
  -7  -3   8   40.40    1.75
  -7  -3   8   39.73    1.32
  -7  -3   8   39.24    1.79
   6   3  -8   32.99    1.47
   6   3  -8   31.27    1.50
   6   3  -8   31.19    1.33
   6   3  -8   31.88    1.45
  -6  -3   8   30.82    1.09
  -6  -3   8   30.54    1.53
  -6  -3   8   30.06    1.51
  -6  -3   8   34.36    1.30
  -6  -3   8   29.32    1.53
  -6  -3   8   32.72    1.21
   5   3  -8   -0.13    0.45
   5   3  -8    0.37    0.56
   5   3  -8    0.09    0.50
  -5  -3   8   -0.19    0.26
  -5  -3   8    0.36    0.50
  -5  -3   8    0.54    0.47
  -5  -3   8   -0.48    0.54
  -5  -3   8   -0.08    0.54
   4   3  -8   10.71    0.99
   4   3  -8   11.14    0.95
   4   3  -8   10.35    0.88
  -4  -3   8   11.51    1.08
  -4  -3   8   10.82    1.01
  -4  -3   8   10.40    0.83
  -4  -3   8   10.55    0.65
  -4  -3   8   11.29    0.92
   3   3  -8  214.86    4.09
   3   3  -8  216.14    4.08
  -3  -3   8  223.27    4.24
  -3  -3   8  211.97    4.00
  -3  -3   8  213.35    4.06
  -3  -3   8  217.68    4.05
  -3  -3   8  210.14    3.82
   2   3  -8   38.09    1.32
   2   3  -8   40.33    1.36
   2   3  -8   37.42    1.35
  -2  -3   8   40.76    1.39
  -2  -3   8   38.80    1.53
  -2  -3   8   39.83    1.46
  -2  -3   8   39.85    1.35
  -2  -3   8   39.15    1.25
   1   3  -8  135.94    2.81
   1   3  -8  132.62    2.78
   1   3  -8  128.43    2.84
  -1  -3   8  132.21    2.79
  -1  -3   8  129.71    2.77
  -1  -3   8  136.27    2.82
  -1  -3   8  136.67    3.00
   0   3  -8   82.49    1.97
   0   3  -8   80.78    2.02
   0   3  -8   81.61    2.14
   0   3  -8   78.34    1.72
   0   3  -8   82.77    2.01
   0  -3   8   81.77    2.09
   0  -3   8   80.88    2.22
   0  -3   8   79.07    2.00
   0  -3   8   82.81    2.01
   0  -3   8   77.81    2.05
  -1   3  -8    1.92    0.51
  -1   3  -8    1.62    0.36
  -1   3  -8    0.98    0.57
  -1   3  -8    1.14    0.43
  -1   3  -8    1.63    0.51
  -1   3  -8    1.01    0.55
  -1   3  -8    1.32    0.28
   1  -3   8    1.36    0.52
   1  -3   8    0.56    0.56
   1  -3   8    0.43    0.52
   1  -3   8    0.54    0.53
  -2   3  -8   19.36    1.40
  -2   3  -8   22.22    1.10
  -2   3  -8   19.76    1.11
  -2   3  -8   19.17    1.22
   2  -3   8   21.92    1.20
   2  -3   8   21.93    1.14
   2  -3   8   19.79    1.32
   2  -3   8   20.46    1.23
  -3   3  -8    0.98    0.57
  -3   3  -8    1.39    0.72
  -3   3  -8    1.60    0.47
  -3   3  -8    0.98    0.57
  -3   3  -8    1.12    0.60
   3  -3   8    1.10    0.65
   3  -3   8    0.61    0.68
   3  -3   8    0.73    0.57
   3  -3   8    1.45    0.69
  -4   3  -8   50.06    1.50
  -4   3  -8   50.16    1.78
  -4   3  -8   46.77    1.37
  -4   3  -8   48.03    1.87
   4  -3   8   47.10    1.80
   4  -3   8   53.02    1.75
   4  -3   8   51.98    2.07
   4  -3   8   49.41    1.84
  -5   3  -8    0.90    0.64
  -5   3  -8   -0.08    0.64
   5  -3   8    0.38    0.83
   5  -3   8    0.24    0.67
   9   2  -8   27.21    1.52
   9   2  -8   30.42    2.69
   9   2  -8   24.94    1.81
  -9  -2   8   26.19    1.74
   8   2  -8   22.37    1.48
   8   2  -8   24.11    1.52
   8   2  -8   25.18    1.35
   8   2  -8   22.54    1.57
  -8  -2   8   22.58    1.01
  -8  -2   8   22.94    1.12
  -8  -2   8   23.71    1.50
   7   2  -8   47.11    1.76
   7   2  -8   49.75    1.79
   7   2  -8   50.56    1.67
   7   2  -8   49.87    1.84
  -7  -2   8   46.40    1.85
  -7  -2   8   49.44    1.43
  -7  -2   8   49.70    1.49
   6   2  -8    4.18    0.70
   6   2  -8    3.30    0.68
   6   2  -8    4.50    0.74
   6   2  -8    4.42    0.62
  -6  -2   8    4.50    0.46
  -6  -2   8    3.82    0.68
  -6  -2   8    3.47    0.55
  -6  -2   8    3.75    0.72
  -6  -2   8    3.77    0.71
  -6  -2   8    3.38    0.59
   5   2  -8   23.64    1.19
   5   2  -8   20.73    1.19
   5   2  -8   23.24    1.10
   5   2  -8   21.84    1.16
  -5  -2   8   22.45    1.24
  -5  -2   8   21.82    1.07
  -5  -2   8   19.51    1.56
  -5  -2   8   24.21    1.29
  -5  -2   8   21.21    1.22
   4   2  -8    1.91    0.48
   4   2  -8    2.74    0.55
   4   2  -8    1.22    0.47
   4   2  -8    2.17    0.54
  -4  -2   8    2.02    0.32
  -4  -2   8    2.34    0.58
  -4  -2   8    2.43    0.55
  -4  -2   8    1.49    0.54
  -4  -2   8    1.25    0.48
   3   2  -8   50.05    1.50
   3   2  -8   48.57    1.45
   3   2  -8   44.24    1.59
  -3  -2   8   49.33    1.63
  -3  -2   8   52.88    1.50
  -3  -2   8   50.96    1.47
  -3  -2   8   49.77    1.25
  -3  -2   8   50.93    1.44
   2   2  -8  136.06    2.76
   2   2  -8  130.09    2.69
   2   2  -8  132.06    2.74
  -2  -2   8  130.62    2.61
  -2  -2   8  132.33    2.74
  -2  -2   8  135.00    2.74
  -2  -2   8  132.56    2.70
  -2  -2   8  138.06    2.93
   1   2  -8   24.94    1.02
   1   2  -8   24.35    1.05
   1   2  -8   22.57    1.14
  -1  -2   8   26.22    1.22
  -1  -2   8   25.87    1.04
  -1  -2   8   25.38    1.02
  -1  -2   8   24.26    0.99
  -1  -2   8   25.06    1.07
   0   2  -8    9.98    0.75
   0   2  -8    8.38    0.78
   0   2  -8    8.50    0.71
   0  -2   8    9.82    0.75
   0  -2   8    8.99    0.83
   0  -2   8    9.96    0.80
   0  -2   8    9.73    0.77
   0  -2   8    7.65    0.97
  -1   2  -8    4.29    0.55
  -1   2  -8    4.28    0.45
  -1   2  -8    4.22    0.56
  -1   2  -8    3.81    0.54
  -1   2  -8    4.13    0.50
   1  -2   8    4.34    0.56
   1  -2   8    2.96    0.49
   1  -2   8    4.19    0.61
   1  -2   8    3.87    0.58
  -2   2  -8   37.99    1.53
  -2   2  -8   36.04    1.46
  -2   2  -8   38.98    1.24
  -2   2  -8   37.86    1.17
   2  -2   8   38.71    1.35
   2  -2   8   36.33    1.29
   2  -2   8   38.10    1.47
   2  -2   8   39.47    1.27
  -3   2  -8   -0.55    0.35
  -3   2  -8    0.23    0.45
  -3   2  -8    0.18    0.50
  -3   2  -8    0.12    0.60
  -3   2  -8    0.10    0.44
   3  -2   8    0.76    0.47
   3  -2   8    0.26    0.45
   3  -2   8    0.77    0.53
   3  -2   8    0.25    0.52
  -4   2  -8   31.04    1.50
  -4   2  -8   30.80    1.33
  -4   2  -8   29.69    0.99
  -4   2  -8   28.72    1.29
   4  -2   8   31.10    1.27
   4  -2   8   29.59    1.34
   4  -2   8   30.65    1.38
   4  -2   8   29.03    1.52
  -5   2  -8    0.21    0.61
  -5   2  -8    0.64    0.58
   5  -2   8    0.51    0.62
   5  -2   8    1.76    0.72
   5  -2   8    0.77    0.73
   5  -2   8    0.39    0.69
  -6   2  -8    1.44    0.72
  -6   2  -8    1.15    0.68
   6  -2   8    1.99    0.84
   6  -2   8    1.18    0.66
   6  -2   8    1.32    0.83
   9   1  -8   65.21    2.41
   9   1  -8   62.38    2.09
  -9  -1   8   60.81    2.36
   8   1  -8    6.11    0.81
   8   1  -8    7.12    0.96
   8   1  -8    6.17    0.87
   8   1  -8    8.37    1.02
  -8  -1   8    5.71    0.99
  -8  -1   8    4.93    0.82
  -8  -1   8    7.54    0.80
  -8  -1   8    6.13    0.74
   7   1  -8   43.40    1.56
   7   1  -8   40.49    1.64
   7   1  -8   42.14    1.67
   7   1  -8   41.48    1.76
  -7  -1   8   42.84    1.76
  -7  -1   8   38.46    1.26
  -7  -1   8   42.77    1.37
   6   1  -8    0.79    0.47
   6   1  -8   -0.56    0.54
   6   1  -8    0.28    0.49
   6   1  -8    0.00    0.54
  -6  -1   8   -0.52    0.45
  -6  -1   8    0.11    0.53
  -6  -1   8   -0.63    0.39
  -6  -1   8    0.27    0.56
   5   1  -8   28.86    1.23
   5   1  -8   27.65    1.31
   5   1  -8   26.83    1.20
   5   1  -8   26.38    1.13
  -5  -1   8   26.62    1.27
  -5  -1   8   26.90    1.09
  -5  -1   8   25.29    1.26
  -5  -1   8   25.19    1.31
  -5  -1   8   29.55    1.08
   4   1  -8  107.45    2.37
   4   1  -8   97.31    2.59
   4   1  -8  105.31    2.34
   4   1  -8  103.91    2.48
  -4  -1   8  103.87    2.36
  -4  -1   8   99.69    2.40
  -4  -1   8  110.38    2.31
  -4  -1   8  106.46    2.26
  -4  -1   8  102.81    1.95
  -4  -1   8  106.65    2.51
   3   1  -8   19.28    0.96
   3   1  -8   20.19    1.22
   3   1  -8   19.47    0.92
   3   1  -8   19.80    0.90
  -3  -1   8   18.99    1.06
  -3  -1   8   19.89    0.92
  -3  -1   8   19.25    0.89
  -3  -1   8   18.82    0.73
  -3  -1   8   18.51    0.94
  -3  -1   8   18.35    0.96
   2   1  -8   60.23    1.53
   2   1  -8   62.21    1.59
   2   1  -8   62.31    1.60
  -2  -1   8   61.24    1.46
  -2  -1   8   59.53    1.75
  -2  -1   8   61.94    1.58
  -2  -1   8   63.42    1.58
  -2  -1   8   62.62    1.75
   1   1  -8    0.22    0.31
   1   1  -8   -0.34    0.29
   1   1  -8    0.07    0.35
  -1  -1   8    0.28    0.34
  -1  -1   8   -0.13    0.34
  -1  -1   8    0.16    0.31
  -1  -1   8   -0.01    0.32
  -1  -1   8    0.13    0.41
   0   1  -8   23.17    0.92
   0   1  -8   22.82    0.89
   0   1  -8   20.44    0.88
   0   1  -8   21.73    0.87
   0  -1   8   21.30    0.91
   0  -1   8   21.90    0.85
   0  -1   8   21.46    0.96
   0  -1   8   23.09    0.97
   0  -1   8   22.42    1.08
  -1   1  -8   18.06    0.80
  -1   1  -8   19.10    0.81
  -1   1  -8   18.04    0.89
  -1   1  -8   18.37    0.85
   1  -1   8   19.22    0.92
   1  -1   8   19.46    1.09
   1  -1   8   19.06    1.28
   1  -1   8   19.13    0.97
   1  -1   8   17.88    0.79
  -2   1  -8   12.64    0.97
  -2   1  -8   13.06    0.54
  -2   1  -8   13.08    0.70
  -2   1  -8   12.22    0.75
   2  -1   8   13.01    0.72
   2  -1   8   12.70    0.94
   2  -1   8   12.60    0.83
   2  -1   8   12.09    0.85
  -3   1  -8    1.29    0.43
  -3   1  -8    2.16    0.55
  -3   1  -8    2.41    0.38
  -3   1  -8    1.71    0.40
   3  -1   8    2.69    0.60
   3  -1   8    1.85    0.46
   3  -1   8    1.12    0.48
   3  -1   8    1.08    0.41
  -4   1  -8    3.10    0.37
  -4   1  -8    3.44    0.44
  -4   1  -8    2.96    0.53
  -4   1  -8    2.26    0.64
   4  -1   8    3.28    0.56
   4  -1   8    3.05    0.64
   4  -1   8    3.23    0.52
   4  -1   8    2.93    0.52
  -5   1  -8   49.91    1.88
  -5   1  -8   48.18    1.54
   5  -1   8   52.23    1.62
   5  -1   8   52.26    1.54
   5  -1   8   50.56    1.53
   5  -1   8   50.08    1.88
  -6   1  -8   38.82    1.50
  -6   1  -8   35.67    1.74
   6  -1   8   37.50    1.51
   6  -1   8   36.81    1.50
   6  -1   8   38.45    1.80
   6  -1   8   39.16    1.41
  -7   1  -8   18.57    1.89
  -7   1  -8   25.49    1.46
   7  -1   8   20.63    1.52
   7  -1   8   24.80    1.32
   7  -1   8   23.55    1.56
   8   0  -8    0.97    0.62
   8   0  -8    0.25    0.79
   8   0  -8   -0.37    0.67
   8   0  -8   -0.13    0.74
  -8   0   8   -0.27    0.62
  -8   0   8    0.25    0.45
   7   0  -8   21.59    1.66
   7   0  -8   22.24    1.22
   7   0  -8   21.58    1.40
   7   0  -8   21.40    1.45
   7   0  -8   23.28    1.38
  -7   0   8   18.95    1.37
  -7   0   8   21.24    1.06
  -7   0   8   20.47    0.98
   6   0  -8    0.88    0.48
   6   0  -8    1.61    0.60
   6   0  -8    1.53    0.60
   6   0  -8    0.73    0.58
  -6   0   8    0.84    0.46
  -6   0   8    0.51    0.54
  -6   0   8    1.45    0.44
  -6   0   8    0.38    0.62
   5   0  -8   23.32    1.16
   5   0  -8   22.73    1.10
   5   0  -8   21.91    1.05
   5   0  -8   21.45    1.20
  -5   0   8   23.10    1.28
  -5   0   8   22.13    0.74
  -5   0   8   21.46    0.97
  -5   0   8   21.09    1.17
  -5   0   8   20.79    0.99
   4   0  -8  101.18    2.41
   4   0  -8  100.11    2.26
   4   0  -8  102.33    2.26
  -4   0   8  100.18    2.17
  -4   0   8   97.74    2.33
  -4   0   8   99.03    2.18
  -4   0   8   98.09    2.40
  -4   0   8  100.37    1.93
   3   0  -8    6.43    0.79
   3   0  -8    7.21    0.93
   3   0  -8    6.80    0.71
   3   0  -8    6.33    0.65
  -3   0   8    7.65    0.71
  -3   0   8    6.35    0.66
  -3   0   8    5.98    0.70
  -3   0   8    6.86    0.65
  -3   0   8    6.36    0.51
  -3   0   8    7.48    0.82
   2   0  -8    5.40    0.64
   2   0  -8    4.52    0.47
   2   0  -8    5.59    0.62
   2   0  -8    5.45    0.59
  -2   0   8    5.40    0.61
  -2   0   8    4.88    0.52
  -2   0   8    4.81    0.60
  -2   0   8    5.74    0.65
  -2   0   8    5.54    0.62
  -2   0   8    4.94    0.52
   1   0  -8    3.57    0.40
   1   0  -8    3.20    0.48
   1   0  -8    3.55    0.46
  -1   0   8    3.26    0.52
  -1   0   8    3.39    0.44
  -1   0   8    4.06    0.53
  -1   0   8    3.13    0.38
  -1   0   8    3.10    0.44
   0   0  -8   76.11    1.72
   0   0  -8   73.85    1.71
   0   0  -8   76.56    1.61
   0   0  -8   77.09    1.75
   0   0   8   75.68    1.60
   0   0   8   76.56    1.76
   0   0   8   75.36    1.76
   0   0   8   77.06    1.77
   0   0   8   75.87    1.90
  -1   0  -8  129.10    2.56
  -1   0  -8  126.65    2.41
  -1   0  -8  128.70    2.38
  -1   0  -8  127.22    2.48
   1   0   8  130.51    2.73
   1   0   8  125.89    2.63
   1   0   8  129.34    2.36
   1   0   8  128.49    2.55
   1   0   8  128.02    2.55
  -2   0  -8   35.01    0.96
  -2   0  -8   33.97    0.90
  -2   0  -8   34.61    0.99
  -2   0  -8   35.34    1.04
   2   0   8   33.63    1.10
   2   0   8   33.21    1.09
   2   0   8   34.63    0.95
   2   0   8   36.03    1.25
  -3   0  -8    0.54    0.31
  -3   0  -8    0.37    0.27
  -3   0  -8    0.20    0.45
   3   0   8    0.09    0.29
   3   0   8    0.51    0.34
   3   0   8    0.36    0.42
   3   0   8    0.33    0.37
  -4   0  -8    1.86    0.30
  -4   0  -8    1.81    0.34
  -4   0  -8    1.71    0.59
   4   0   8    2.61    0.44
   4   0   8    1.86    0.56
   4   0   8    2.11    0.38
  -5   0  -8  110.56    2.79
  -5   0  -8  109.54    2.26
   5   0   8  107.81    2.67
   5   0   8   98.30    2.53
   5   0   8  108.35    2.21
   5   0   8  110.39    2.31
  -6   0  -8   83.19    2.50
  -6   0  -8   86.01    2.05
   6   0   8   87.82    2.47
   6   0   8   85.07    1.97
   6   0   8   88.99    2.05
   6   0   8   85.67    2.00
  -7   0  -8   14.38    1.36
  -7   0  -8   11.31    1.15
   7   0   8   13.02    1.03
   7   0   8   10.57    1.37
   7   0   8   15.19    1.12
   7   0   8   13.10    1.12
   8  -1  -8    3.72    0.86
   8  -1  -8    2.94    0.81
   8  -1  -8    4.24    0.79
   8  -1  -8    2.62    0.86
  -8   1   8    3.01    1.13
  -8   1   8    4.18    0.63
   7  -1  -8    1.50    0.69
   7  -1  -8    1.78    0.60
   7  -1  -8    0.89    0.69
   7  -1  -8    2.47    1.38
   7  -1  -8    1.32    0.66
  -7   1   8    1.72    0.48
  -7   1   8    0.39    0.79
  -7   1   8    1.55    0.66
  -7   1   8    1.80    0.41
  -7   1   8    1.52    0.54
   6  -1  -8   64.87    1.79
   6  -1  -8   62.26    2.16
   6  -1  -8   60.96    1.86
   6  -1  -8   59.61    2.01
   6  -1  -8   60.02    1.89
  -6   1   8   64.15    1.46
  -6   1   8   63.65    1.64
  -6   1   8   62.63    1.62
  -6   1   8   60.73    1.99
   5  -1  -8    6.33    0.76
   5  -1  -8    4.57    0.65
   5  -1  -8    5.21    0.67
   5  -1  -8    5.63    0.72
  -5   1   8    4.96    0.56
  -5   1   8    5.34    0.74
  -5   1   8    6.44    0.77
  -5   1   8    5.53    0.61
  -5   1   8    4.25    0.64
   4  -1  -8    7.45    0.89
   4  -1  -8    5.99    0.66
   4  -1  -8    7.11    0.73
   4  -1  -8    5.88    0.72
  -4   1   8    7.00    0.60
  -4   1   8    7.76    0.71
  -4   1   8    6.61    0.83
  -4   1   8    5.57    0.70
   3  -1  -8   12.23    0.75
   3  -1  -8   11.50    0.81
   3  -1  -8   13.20    1.13
   3  -1  -8   12.95    0.97
   3  -1  -8   10.97    0.88
  -3   1   8   12.30    0.76
  -3   1   8   12.57    0.91
  -3   1   8   12.83    0.83
  -3   1   8   13.84    0.78
   2  -1  -8   32.76    1.22
   2  -1  -8   33.76    1.09
   2  -1  -8   31.92    1.10
   2  -1  -8   30.35    0.99
   2  -1  -8   32.51    1.23
  -2   1   8   32.41    0.84
  -2   1   8   34.02    1.22
  -2   1   8   30.82    1.07
  -2   1   8   32.49    1.07
  -2   1   8   31.78    1.07
   1  -1  -8   51.10    1.49
   1  -1  -8   48.26    1.23
   1  -1  -8   51.17    1.36
   1  -1  -8   52.63    1.44
   1  -1  -8   49.31    1.34
  -1   1   8   49.42    1.33
  -1   1   8   49.98    1.35
  -1   1   8   49.53    1.48
  -1   1   8   50.23    1.19
  -1   1   8   49.19    1.23
  -1   1   8   46.53    1.44
   0  -1  -8   49.10    1.28
   0  -1  -8   48.72    1.13
   0  -1  -8   49.23    1.35
   0  -1  -8   48.65    1.32
   0   1   8   45.99    1.65
   0   1   8   48.53    1.29
   0   1   8   49.68    1.14
  -1  -1  -8  138.48    2.57
  -1  -1  -8  133.13    2.55
  -1  -1  -8  136.98    2.38
  -1  -1  -8  133.68    2.56
   1   1   8  135.51    2.71
   1   1   8  132.13    2.59
   1   1   8  134.36    2.36
   1   1   8  136.13    2.63
   1   1   8  133.90    2.83
  -2  -1  -8    0.54    0.29
  -2  -1  -8    0.52    0.26
  -2  -1  -8    0.05    0.28
  -2  -1  -8    0.49    0.21
   2   1   8    0.01    0.20
   2   1   8    0.51    0.30
   2   1   8    0.50    0.34
   2   1   8    0.38    0.31
   2   1   8    0.21    0.42
  -3  -1  -8   35.29    0.94
  -3  -1  -8   34.58    0.91
  -3  -1  -8   32.43    1.31
  -3  -1  -8   32.81    0.87
   3   1   8   33.58    1.27
   3   1   8   34.57    1.06
   3   1   8   33.08    1.03
   3   1   8   32.54    0.83
  -4  -1  -8   16.29    0.59
  -4  -1  -8   16.58    0.70
  -4  -1  -8   15.61    1.04
  -4  -1  -8   16.42    0.56
   4   1   8   16.78    0.79
   4   1   8   15.52    1.01
   4   1   8   17.01    0.64
   4   1   8   15.62    0.79
  -5  -1  -8   91.42    1.86
  -5  -1  -8   91.43    2.42
   5   1   8   91.29    1.81
   5   1   8   88.65    2.32
   5   1   8   91.01    1.95
  -6  -1  -8  102.99    2.73
   6   1   8  105.51    2.65
   6   1   8  104.62    2.09
   6   1   8  103.67    2.42
   6   1   8  105.41    2.19
  -7  -1  -8    0.29    0.64
  -7  -1  -8    0.44    0.52
   7   1   8   -0.88    0.91
   7   1   8    0.14    0.54
   7   1   8    0.43    0.54
   7   1   8    0.27    0.48
   7   1   8   -0.30    0.59
  -8  -1  -8    4.00    0.71
  -8  -1  -8    3.15    0.83
   8   1   8    4.02    0.60
   8   1   8    5.65    0.67
   8   1   8    2.97    0.82
   8   1   8    3.84    0.90
   8   1   8    4.22    0.69
   8  -2  -8   24.90    1.52
  -8   2   8   26.70    1.72
   7  -2  -8    6.38    0.79
   7  -2  -8    5.09    0.84
   7  -2  -8    7.02    0.90
   7  -2  -8    6.74    0.95
  -7   2   8    5.52    0.92
  -7   2   8    6.53    0.67
  -7   2   8    5.78    0.63
  -7   2   8    6.71    0.70
   6  -2  -8   66.14    2.17
   6  -2  -8   69.91    2.34
   6  -2  -8   67.73    1.98
   6  -2  -8   67.79    1.91
   6  -2  -8   68.55    2.03
  -6   2   8   66.85    1.68
  -6   2   8   66.02    2.12
  -6   2   8   67.51    1.72
  -6   2   8   67.84    1.75
   5  -2  -8   30.28    1.31
   5  -2  -8   30.39    1.28
   5  -2  -8   31.23    1.23
   5  -2  -8   29.26    1.42
   5  -2  -8   30.88    1.60
  -5   2   8   28.97    1.15
  -5   2   8   30.76    1.13
  -5   2   8   28.97    1.07
  -5   2   8   29.68    1.38
   4  -2  -8   17.68    1.22
   4  -2  -8   20.15    1.05
   4  -2  -8   18.64    1.14
   4  -2  -8   20.10    0.97
   4  -2  -8   18.54    0.98
  -4   2   8   19.72    1.07
  -4   2   8   21.09    0.88
  -4   2   8   19.84    0.93
  -4   2   8   19.09    0.95
  -4   2   8   19.64    1.20
   3  -2  -8   11.55    0.90
   3  -2  -8   10.73    0.80
   3  -2  -8   10.65    0.74
   3  -2  -8   11.26    0.84
   3  -2  -8   10.35    0.98
  -3   2   8   11.36    0.76
  -3   2   8    9.48    0.74
  -3   2   8   11.57    0.71
  -3   2   8   11.07    0.83
  -3   2   8   10.84    0.92
   2  -2  -8   56.55    1.60
   2  -2  -8   54.50    1.46
   2  -2  -8   55.73    1.39
   2  -2  -8   54.73    1.46
   2  -2  -8   54.79    1.62
  -2   2   8   56.74    1.61
  -2   2   8   54.39    1.10
  -2   2   8   54.59    1.43
  -2   2   8   54.25    1.44
  -2   2   8   52.38    1.43
   1  -2  -8  281.70    4.99
   1  -2  -8  280.29    4.68
   1  -2  -8  284.00    4.86
   1  -2  -8  281.06    4.84
   1  -2  -8  264.86    5.20
  -1   2   8  284.79    4.61
  -1   2   8  285.15    4.80
  -1   2   8  280.82    4.85
  -1   2   8  281.06    4.85
  -1   2   8  283.86    5.00
   0  -2  -8   17.70    0.61
   0  -2  -8   17.96    0.76
   0  -2  -8   17.50    0.77
   0  -2  -8   17.22    0.90
   0  -2  -8   17.60    0.89
   0   2   8   18.48    0.71
   0   2   8   15.56    0.94
   0   2   8   18.10    0.73
   0   2   8   16.97    0.79
   0   2   8   17.14    1.32
  -1  -2  -8   63.62    1.27
  -1  -2  -8   66.37    1.51
  -1  -2  -8   66.27    1.57
  -1  -2  -8   64.65    1.49
   1   2   8   66.51    1.69
   1   2   8   66.80    1.56
   1   2   8   64.93    1.54
   1   2   8   64.31    1.26
   1   2   8   67.03    1.57
  -2  -2  -8    8.98    0.63
  -2  -2  -8    8.85    0.56
  -2  -2  -8    8.89    0.37
  -2  -2  -8    9.80    0.56
   2   2   8    8.91    0.78
   2   2   8    9.20    0.63
   2   2   8    7.98    0.61
   2   2   8    9.77    0.73
   2   2   8    8.74    0.38
  -3  -2  -8   68.52    1.43
  -3  -2  -8   69.60    1.44
  -3  -2  -8   70.92    1.51
   3   2   8   68.46    1.78
   3   2   8   70.42    1.80
   3   2   8   69.80    1.53
   3   2   8   70.26    1.84
   3   2   8   70.79    1.59
   3   2   8   69.13    1.57
  -4  -2  -8   87.02    1.59
  -4  -2  -8   87.32    2.22
  -4  -2  -8   87.79    1.71
  -4  -2  -8   85.94    1.58
   4   2   8   88.04    1.84
   4   2   8   82.32    2.40
   4   2   8   88.08    1.74
   4   2   8   88.65    1.84
   4   2   8   91.79    2.20
  -5  -2  -8   12.26    0.56
  -5  -2  -8   12.40    1.01
   5   2   8   12.46    0.61
   5   2   8   12.08    0.71
   5   2   8   12.54    0.97
   5   2   8   12.19    0.51
   5   2   8   11.04    0.68
   5   2   8   12.29    1.07
  -6  -2  -8   82.31    1.66
  -6  -2  -8   80.68    2.31
   6   2   8   83.57    2.23
   6   2   8   81.45    1.76
   6   2   8   81.71    1.77
   6   2   8   80.69    1.60
  -7  -2  -8   -0.20    0.57
  -7  -2  -8    0.39    0.45
   7   2   8    1.50    0.63
   7   2   8   -0.27    0.34
   7   2   8   -1.50    0.72
   7   2   8   -0.17    0.38
  -8  -2  -8   -0.16    0.57
  -8  -2  -8    0.47    0.55
   8   2   8    0.42    0.46
   8   2   8    0.05    0.66
   8   2   8   -0.02    0.43
   8   2   8    0.35    0.43
   8   2   8   -0.79    0.60
  -9  -2  -8    1.14    0.68
  -9  -2  -8    0.13    0.69
   9   2   8   -0.37    0.75
   9   2   8    0.32    0.86
   9   2   8    1.28    0.57
   9   2   8    0.35    0.53
   7  -3  -8    0.06    0.68
   7  -3  -8   -0.71    0.76
   7  -3  -8    0.48    0.66
  -7   3   8    0.80    0.56
  -7   3   8   -0.22    0.62
  -7   3   8   -0.35    0.67
   6  -3  -8   35.20    1.44
   6  -3  -8   32.55    1.84
   6  -3  -8   32.65    1.72
   6  -3  -8   36.73    1.55
   6  -3  -8   34.84    1.57
  -6   3   8   35.12    1.61
  -6   3   8   34.41    1.58
  -6   3   8   35.70    1.34
  -6   3   8   35.34    1.41
   5  -3  -8   10.29    1.34
   5  -3  -8   11.15    1.14
   5  -3  -8   10.32    0.91
   5  -3  -8    8.25    0.99
   5  -3  -8    8.20    0.82
  -5   3   8    7.35    0.89
  -5   3   8    7.90    0.94
  -5   3   8    7.10    0.97
   4  -3  -8    7.01    0.95
   4  -3  -8    9.33    0.84
   4  -3  -8   10.37    0.92
   4  -3  -8   10.07    0.89
   4  -3  -8    8.05    0.89
  -4   3   8    7.42    0.81
  -4   3   8    8.69    0.81
  -4   3   8    6.63    0.87
   3  -3  -8   77.09    2.09
   3  -3  -8   79.40    1.93
   3  -3  -8   84.33    1.93
   3  -3  -8   80.82    2.19
   3  -3  -8   80.48    1.97
  -3   3   8   81.28    1.87
  -3   3   8   80.79    2.13
  -3   3   8   79.18    1.88
  -3   3   8   80.74    2.01
  -3   3   8   79.31    1.90
   2  -3  -8   26.07    1.16
   2  -3  -8   25.79    0.95
   2  -3  -8   27.90    1.25
   2  -3  -8   26.27    1.15
   2  -3  -8   28.15    1.05
  -2   3   8   26.27    1.01
  -2   3   8   27.69    1.03
  -2   3   8   26.28    1.01
  -2   3   8   27.33    1.18
  -2   3   8   27.24    1.04
   1  -3  -8  478.16    7.77
   1  -3  -8  472.65    7.75
   1  -3  -8  477.10    7.59
   1  -3  -8  469.95    7.90
   1  -3  -8  478.93    7.93
  -1   3   8  472.17    7.75
  -1   3   8  472.44    7.90
  -1   3   8  474.64    7.77
  -1   3   8  470.74    7.46
  -1   3   8  473.82    7.67
   0  -3  -8   13.57    0.58
   0  -3  -8   12.98    0.82
   0  -3  -8   13.15    0.80
   0  -3  -8   14.04    0.71
   0   3   8   13.80    0.72
   0   3   8   12.66    0.64
   0   3   8   13.54    0.85
   0   3   8   12.82    0.84
   0   3   8   12.48    0.74
   0   3   8   13.59    0.64
  -1  -3  -8   15.11    0.80
  -1  -3  -8   15.34    0.71
  -1  -3  -8   14.64    0.83
  -1  -3  -8   14.70    0.50
  -1  -3  -8   16.05    0.72
   1   3   8   15.05    0.59
   1   3   8   15.72    0.87
   1   3   8   15.85    0.76
   1   3   8   14.81    0.74
   1   3   8   15.23    0.83
   1   3   8   14.51    0.72
  -2  -3  -8   15.23    0.66
  -2  -3  -8   15.02    0.78
  -2  -3  -8   14.39    0.65
   2   3   8   14.82    0.74
   2   3   8   15.16    0.79
   2   3   8   15.67    0.72
   2   3   8   14.93    0.86
   2   3   8   15.72    0.82
  -3  -3  -8   40.69    1.01
  -3  -3  -8   42.12    1.15
  -3  -3  -8   40.05    1.01
   3   3   8   42.68    1.15
   3   3   8   42.57    1.29
   3   3   8   44.31    1.21
   3   3   8   32.58    1.84
   3   3   8   40.51    1.13
  -4  -3  -8  110.13    2.49
  -4  -3  -8  108.35    2.12
  -4  -3  -8  104.33    1.88
  -4  -3  -8  106.68    1.88
   4   3   8  104.84    2.40
   4   3   8  108.59    2.14
   4   3   8  106.42    2.13
   4   3   8  109.02    2.16
   4   3   8  109.41    2.44
   4   3   8  103.02    2.59
  -5  -3  -8   28.96    0.93
  -5  -3  -8   28.35    1.28
   5   3   8   26.61    1.26
   5   3   8   28.46    0.94
   5   3   8   28.59    1.23
   5   3   8   30.04    0.97
   5   3   8   29.11    0.94
  -6  -3  -8    1.37    0.35
  -6  -3  -8    0.08    0.50
   6   3   8    0.82    0.34
   6   3   8    0.46    0.47
   6   3   8    0.94    0.35
   6   3   8    0.69    0.34
  -7  -3  -8    2.03    0.62
   7   3   8    2.12    0.30
   7   3   8    1.28    0.29
   7   3   8    1.02    0.58
   7   3   8    2.15    0.39
   7   3   8    1.72    0.37
   7   3   8    1.47    0.40
   7   3   8    0.73    0.73
  -8  -3  -8   24.72    1.50
   8   3   8   23.96    0.89
   8   3   8   24.03    1.46
   8   3   8   26.08    0.95
   8   3   8   25.00    0.88
   8   3   8   26.91    1.65
   8   3   8   25.13    0.87
   8   3   8   25.48    0.94
  -9  -3  -8   18.08    1.45
   9   3   8   17.94    1.55
   9   3   8   19.69    1.01
   9   3   8   17.63    0.88
   9   3   8   19.76    1.42
   9   3   8   19.38    0.96
   6  -4  -8   20.19    1.57
   6  -4  -8   22.48    1.49
   6  -4  -8   20.98    1.29
  -6   4   8   20.94    1.19
  -6   4   8   21.68    1.46
  -6   4   8   19.22    1.39
  -6   4   8   20.04    1.24
   5  -4  -8    0.49    0.60
   5  -4  -8    0.75    0.54
   5  -4  -8    0.11    0.76
   5  -4  -8    0.30    0.55
   5  -4  -8   -0.07    0.61
  -5   4   8    0.20    0.55
  -5   4   8    1.17    0.56
  -5   4   8    0.40    0.49
  -5   4   8   -0.76    0.61
   4  -4  -8    0.40    0.55
   4  -4  -8    1.08    0.67
   4  -4  -8    0.81    0.48
   4  -4  -8    0.85    0.60
   4  -4  -8    0.32    0.45
  -4   4   8   -0.14    0.61
  -4   4   8    1.01    0.52
  -4   4   8    0.70    0.47
  -4   4   8    1.02    0.49
  -4   4   8    1.21    0.54
   3  -4  -8   84.41    2.00
   3  -4  -8   82.96    2.02
   3  -4  -8   78.11    2.03
   3  -4  -8   81.00    2.27
   3  -4  -8   80.72    2.18
  -3   4   8   81.74    1.97
  -3   4   8   82.29    1.97
  -3   4   8   80.64    2.09
  -3   4   8   81.44    2.00
  -3   4   8   81.43    2.21
   2  -4  -8   15.14    0.81
   2  -4  -8   14.47    0.97
   2  -4  -8   14.83    0.90
   2  -4  -8   13.47    1.06
   2  -4  -8   14.87    0.85
  -2   4   8   15.47    0.90
  -2   4   8   13.49    1.03
  -2   4   8   14.89    0.88
  -2   4   8   14.16    0.90
   1  -4  -8  181.99    3.51
   1  -4  -8  175.09    3.06
   1  -4  -8  182.91    3.38
   1  -4  -8  181.26    3.24
   1  -4  -8  177.09    3.54
   1  -4  -8  178.11    3.37
  -1   4   8  182.74    3.38
  -1   4   8  178.83    3.49
  -1   4   8  166.18    3.67
  -1   4   8  175.01    3.59
  -1   4   8  179.99    3.32
  -1   4   8  181.04    3.39
   0  -4  -8    6.15    0.49
   0  -4  -8    6.31    0.71
   0  -4  -8    5.52    0.51
   0  -4  -8    7.15    0.80
   0  -4  -8    5.65    0.59
   0  -4  -8    6.37    0.61
   0   4   8    6.46    0.63
   0   4   8    6.43    0.64
   0   4   8    6.45    0.79
   0   4   8    5.75    0.57
   0   4   8    6.12    0.55
  -1  -4  -8    6.61    0.68
  -1  -4  -8    5.98    0.41
  -1  -4  -8    7.13    0.70
  -1  -4  -8    4.50    0.57
  -1  -4  -8    7.04    0.58
   1   4   8    6.87    0.60
   1   4   8    6.86    0.64
   1   4   8    6.78    0.70
   1   4   8    7.62    0.54
   1   4   8    5.93    0.55
   1   4   8    6.06    0.73
  -2  -4  -8    3.53    0.40
  -2  -4  -8    3.51    0.39
  -2  -4  -8    2.66    0.45
   2   4   8    3.55    0.47
   2   4   8    3.80    0.43
   2   4   8    3.57    0.49
   2   4   8    3.40    0.41
   2   4   8    3.12    0.44
   2   4   8    2.89    0.47
  -3  -4  -8    0.32    0.24
  -3  -4  -8    0.67    0.26
  -3  -4  -8   -0.04    0.30
   3   4   8   -0.34    0.29
   3   4   8    0.01    0.37
   3   4   8    0.82    0.31
   3   4   8    0.10    0.52
   3   4   8    0.71    0.37
  -4  -4  -8   51.82    1.36
  -4  -4  -8   51.22    1.08
  -4  -4  -8   48.67    1.08
   4   4   8   51.85    1.42
   4   4   8   50.45    1.31
   4   4   8   51.71    1.53
   4   4   8   50.27    1.28
   4   4   8   52.39    1.41
  -5  -4  -8   33.66    1.32
  -5  -4  -8   33.08    1.08
   5   4   8   32.44    1.09
   5   4   8   32.27    1.32
   5   4   8   30.56    0.98
   5   4   8   33.01    1.00
   5   4   8   31.87    1.18
  -6  -4  -8    0.59    0.37
  -6  -4  -8    0.73    0.50
   6   4   8    0.17    0.37
   6   4   8    0.22    0.45
   6   4   8    0.16    0.33
   6   4   8    0.49    0.77
   6   4   8   -0.11    0.30
  -7  -4  -8   40.57    1.22
  -7  -4  -8   37.88    1.59
   7   4   8   38.05    1.57
   7   4   8   39.32    1.10
   7   4   8   38.52    1.21
   7   4   8   38.72    1.08
  -8  -4  -8    5.55    0.82
   8   4   8    5.78    0.62
   8   4   8    5.99    0.66
   8   4   8    7.47    1.05
   8   4   8    5.09    0.80
   8   4   8    5.00    0.54
  -9  -4  -8   25.89    1.55
   9   4   8   26.48    1.06
   9   4   8   28.26    1.57
   9   4   8   26.52    0.96
   9   4   8   27.02    0.94
   9   4   8   27.90    1.39
   9   4   8   24.82    0.93
  10   4   8   -0.40    0.73
  10   4   8   -2.05    0.78
   6  -5  -8    2.94    0.77
   6  -5  -8    4.04    1.13
  -6   5   8    2.33    0.78
  -6   5   8    2.09    0.72
   5  -5  -8   22.67    1.43
   5  -5  -8   22.69    1.31
   5  -5  -8   22.28    1.55
  -5   5   8   21.82    1.23
  -5   5   8   18.96    1.37
  -5   5   8   24.35    1.54
  -5   5   8   22.32    1.50
   4  -5  -8   12.81    1.43
   4  -5  -8   13.41    1.26
   4  -5  -8   13.77    1.05
   4  -5  -8   13.38    1.17
  -4   5   8   12.93    1.37
  -4   5   8   14.57    1.06
  -4   5   8   13.32    1.22
  -4   5   8   12.46    1.10
  -4   5   8   12.95    0.99
   3  -5  -8   77.75    2.19
   3  -5  -8   78.98    2.06
   3  -5  -8   78.25    2.02
   3  -5  -8   73.85    1.47
   3  -5  -8   77.39    2.29
  -3   5   8   75.83    2.11
  -3   5   8   76.35    1.97
  -3   5   8   77.88    1.97
  -3   5   8   79.98    2.09
  -3   5   8   76.99    2.24
   2  -5  -8   25.18    1.14
   2  -5  -8   26.20    0.78
   2  -5  -8   26.27    1.39
   2  -5  -8   26.75    1.12
   2  -5  -8   25.32    1.25
  -2   5   8   25.80    1.12
  -2   5   8   25.27    1.30
  -2   5   8   26.13    1.16
  -2   5   8   26.68    1.23
  -2   5   8   26.94    1.12
   1  -5  -8    8.52    1.02
   1  -5  -8    9.34    0.77
   1  -5  -8    9.24    0.79
   1  -5  -8    7.83    0.55
  -1   5   8    9.80    0.87
  -1   5   8    8.47    0.80
  -1   5   8    8.99    0.91
  -1   5   8    9.27    0.78
  -1   5   8    8.48    0.97
  -1   5   8    8.78    0.78
   0  -5  -8   43.73    1.30
   0  -5  -8   42.88    1.50
   0  -5  -8   43.24    1.16
   0  -5  -8   43.42    1.37
   0  -5  -8   46.63    1.33
   0   5   8   43.67    1.39
   0   5   8   43.13    1.41
   0   5   8   45.71    1.36
   0   5   8   44.89    1.25
  -1  -5  -8    0.53    0.42
  -1  -5  -8    0.64    0.33
  -1  -5  -8    0.04    0.30
  -1  -5  -8    0.41    0.36
  -1  -5  -8    0.54    0.34
   1   5   8    0.62    0.44
   1   5   8   -0.47    0.34
   1   5   8    0.13    0.34
   1   5   8    0.84    0.33
   1   5   8    0.30    0.37
   1   5   8    0.20    0.33
  -2  -5  -8   63.30    1.51
  -2  -5  -8   65.26    1.61
  -2  -5  -8   61.84    1.24
  -2  -5  -8   63.31    1.23
  -2  -5  -8   66.38    1.74
  -2  -5  -8   64.06    1.60
  -2  -5  -8   63.18    1.55
   2   5   8   65.08    1.62
   2   5   8   65.68    1.76
   2   5   8   65.17    1.33
   2   5   8   65.08    1.57
   2   5   8   65.25    1.62
   2   5   8   65.54    1.60
  -3  -5  -8    6.41    0.69
  -3  -5  -8    5.96    0.73
  -3  -5  -8    6.70    0.53
  -3  -5  -8    6.46    0.54
   3   5   8    5.60    0.71
   3   5   8    6.31    0.68
   3   5   8    6.00    0.60
   3   5   8    7.58    0.78
   3   5   8    5.82    0.62
  -4  -5  -8    3.56    0.43
  -4  -5  -8    3.65    0.42
  -4  -5  -8    3.68    0.54
   4   5   8    2.51    0.40
   4   5   8    3.21    0.45
   4   5   8    3.60    0.58
   4   5   8    3.34    0.50
   4   5   8    3.05    0.45
  -5  -5  -8   45.37    1.48
  -5  -5  -8   39.99    1.64
   5   5   8   42.98    1.51
   5   5   8   42.94    1.19
   5   5   8   42.93    1.27
   5   5   8   44.21    1.36
   5   5   8   43.71    1.19
  -6  -5  -8   27.96    1.80
  -6  -5  -8   31.41    1.32
   6   5   8   34.29    1.19
   6   5   8   35.55    1.46
   6   5   8   35.07    1.21
   6   5   8   31.58    0.99
   6   5   8   33.40    1.03
  -7  -5  -8  101.34    2.57
  -7  -5  -8  108.57    2.65
   7   5   8  105.51    2.31
   7   5   8  105.43    2.09
   7   5   8  103.13    2.07
   7   5   8  105.49    2.58
  -8  -5  -8    3.55    0.70
   8   5   8    3.34    0.55
   8   5   8    3.83    0.44
   8   5   8    3.29    0.45
   8   5   8    3.96    0.71
   8   5   8    3.73    0.92
  -9  -5  -8   10.42    1.22
   9   5   8   10.55    1.25
   9   5   8   11.30    0.96
   9   5   8   11.50    1.03
   9   5   8    9.34    0.73
 -10  -5  -8   -0.31    0.61
  10   5   8    1.82    0.68
  10   5   8    1.33    0.80
  10   5   8    0.77    0.60
   5  -6  -8   34.12    2.26
   5  -6  -8   34.32    1.63
  -5   6   8   39.29    1.61
  -5   6   8   33.98    1.92
  -5   6   8   28.41    1.93
   4  -6  -8   34.00    1.49
   4  -6  -8   31.51    0.91
   4  -6  -8   35.07    2.47
   4  -6  -8   32.29    1.74
  -4   6   8   34.42    1.44
  -4   6   8   30.30    1.54
   3  -6  -8    4.65    0.70
   3  -6  -8    4.18    0.73
   3  -6  -8    4.23    0.55
   3  -6  -8    3.81    0.85
   3  -6  -8    4.72    0.78
  -3   6   8    2.24    0.72
  -3   6   8    1.53    0.72
  -3   6   8    3.12    0.65
  -3   6   8    3.61    0.65
   2  -6  -8    0.43    0.64
   2  -6  -8   -0.26    0.69
   2  -6  -8    1.96    0.39
   2  -6  -8    1.73    0.52
   2  -6  -8    0.92    0.56
  -2   6   8    0.34    0.59
  -2   6   8    2.52    0.56
  -2   6   8    1.40    0.56
  -2   6   8    1.11    0.51
  -2   6   8    1.25    0.65
  -2   6   8    1.16    0.60
   1  -6  -8    3.77    0.69
   1  -6  -8    4.00    0.61
   1  -6  -8    3.56    0.47
   1  -6  -8    4.62    0.60
  -1   6   8    4.33    0.61
  -1   6   8    4.38    0.69
  -1   6   8    3.71    0.60
  -1   6   8    4.35    0.72
  -1   6   8    4.03    0.67
  -1   6   8    3.93    0.60
   0  -6  -8  148.98    3.21
   0  -6  -8  148.04    3.05
   0  -6  -8  146.97    2.98
   0  -6  -8  145.12    2.81
   0  -6  -8  148.48    2.99
   0   6   8  147.62    3.14
   0   6   8  147.78    3.01
   0   6   8  147.74    3.23
   0   6   8  151.98    2.96
   0   6   8  150.53    3.06
   0   6   8  146.93    3.00
  -1  -6  -8   32.47    1.34
  -1  -6  -8   30.77    1.14
  -1  -6  -8   31.22    1.10
  -1  -6  -8   28.18    1.10
  -1  -6  -8   28.67    1.06
   1   6   8   29.91    1.28
   1   6   8   29.86    1.32
   1   6   8   29.21    1.01
   1   6   8   30.42    1.17
   1   6   8   30.11    1.11
  -2  -6  -8   29.17    0.84
  -2  -6  -8   28.90    1.02
  -2  -6  -8   27.34    1.01
  -2  -6  -8   29.64    1.24
  -2  -6  -8   30.80    1.09
  -2  -6  -8   27.96    1.07
   2   6   8   30.14    1.07
   2   6   8   28.15    1.61
   2   6   8   30.10    1.12
   2   6   8   26.65    1.68
   2   6   8   30.76    1.28
   2   6   8   30.13    0.93
  -3  -6  -8    0.17    0.22
  -3  -6  -8    0.25    0.31
  -3  -6  -8    0.07    0.38
  -3  -6  -8    0.14    0.33
  -3  -6  -8   -0.20    0.31
  -3  -6  -8    0.14    0.39
   3   6   8    0.42    0.42
   3   6   8    0.06    0.33
   3   6   8    0.33    0.35
   3   6   8    0.38    0.43
   3   6   8    0.89    0.32
   3   6   8   -0.01    0.38
  -4  -6  -8   19.39    1.22
  -4  -6  -8   19.94    0.74
  -4  -6  -8   20.20    0.74
  -4  -6  -8   19.98    1.03
   4   6   8   21.24    1.09
   4   6   8   19.21    1.04
   4   6   8   19.69    0.88
   4   6   8   20.26    0.86
   4   6   8   17.79    0.97
  -5  -6  -8  118.03    2.70
  -5  -6  -8  114.19    2.07
  -5  -6  -8  121.72    2.62
  -5  -6  -8  118.89    2.60
  -5  -6  -8  115.49    2.07
   5   6   8  118.39    2.36
   5   6   8  118.39    2.75
   5   6   8  119.14    2.36
   5   6   8  120.07    2.62
   5   6   8  119.55    2.39
  -6  -6  -8    7.78    0.95
  -6  -6  -8    9.79    0.94
  -6  -6  -8    9.31    0.89
   6   6   8    8.12    0.71
   6   6   8    8.41    0.77
   6   6   8   10.41    1.09
   6   6   8   10.36    0.90
   6   6   8    9.13    0.68
  -7  -6  -8   99.87    2.35
  -7  -6  -8   95.69    2.43
   7   6   8   96.54    1.99
   7   6   8   95.56    2.10
   7   6   8   96.78    2.01
  -8  -6  -8   20.89    1.33
  -8  -6  -8   22.78    1.28
   8   6   8   21.57    0.90
   8   6   8   22.67    0.88
   8   6   8   22.25    1.12
   8   6   8   20.69    1.15
   8   6   8   20.56    1.26
  -9  -6  -8    0.06    0.59
   9   6   8    0.83    0.44
   9   6   8   -0.23    0.52
   9   6   8    0.76    0.40
   9   6   8    0.78    0.65
   9   6   8    0.40    0.48
 -10  -6  -8    5.06    0.88
  10   6   8    5.32    0.76
  10   6   8    4.68    0.87
  10   6   8    6.59    0.82
   4  -7  -8   40.03    2.02
  -4   7   8   39.07    1.70
   3  -7  -8    0.09    0.71
   3  -7  -8    0.38    0.46
   3  -7  -8   -0.08    0.59
  -3   7   8    0.05    0.54
  -3   7   8    1.52    0.83
  -3   7   8   -0.39    0.60
  -3   7   8    0.57    0.65
   2  -7  -8    6.27    0.80
   2  -7  -8    8.92    0.78
   2  -7  -8    9.43    0.97
   2  -7  -8    7.98    1.01
   2  -7  -8    7.37    0.82
  -2   7   8    7.72    0.95
  -2   7   8    6.76    0.88
  -2   7   8    8.24    1.02
  -2   7   8    6.56    0.78
   1  -7  -8   -0.10    0.51
   1  -7  -8   -0.09    0.48
   1  -7  -8   -0.64    0.63
   1  -7  -8   -0.19    0.42
  -1   7   8   -0.81    0.58
  -1   7   8    0.39    0.59
  -1   7   8   -0.10    0.65
  -1   7   8   -0.32    0.46
  -1   7   8   -0.18    0.47
   0  -7  -8  127.74    2.82
   0  -7  -8  134.38    3.07
   0  -7  -8  129.02    2.64
   0  -7  -8  125.54    2.77
   0   7   8  128.76    2.98
   0   7   8  129.14    3.07
   0   7   8  126.11    2.75
   0   7   8  130.24    2.81
   0   7   8  127.55    2.84
  -1  -7  -8   31.01    1.15
  -1  -7  -8   31.25    1.19
  -1  -7  -8   31.00    1.20
  -1  -7  -8   29.99    1.20
  -1  -7  -8   29.59    1.11
   1   7   8   29.76    1.40
   1   7   8   31.69    1.16
   1   7   8   30.54    1.25
   1   7   8   32.92    1.24
   1   7   8   31.74    1.42
   1   7   8   31.12    1.21
  -2  -7  -8    1.37    0.45
  -2  -7  -8    0.42    0.50
  -2  -7  -8    0.30    0.42
  -2  -7  -8    0.74    0.41
  -2  -7  -8    0.31    0.33
   2   7   8    1.21    0.44
   2   7   8    0.99    0.38
   2   7   8    0.15    0.54
   2   7   8    0.81    0.48
   2   7   8   -0.14    0.46
   2   7   8    0.96    0.42
  -3  -7  -8    1.69    0.42
  -3  -7  -8    1.57    0.40
  -3  -7  -8    1.16    0.39
  -3  -7  -8    1.46    0.54
  -3  -7  -8    1.71    0.37
  -3  -7  -8    1.59    0.60
   3   7   8    1.69    0.54
   3   7   8    1.73    0.61
   3   7   8    1.06    0.49
   3   7   8    1.70    0.43
   3   7   8    1.64    0.39
   3   7   8    0.95    0.42
   3   7   8    1.82    0.55
  -4  -7  -8   19.14    0.83
  -4  -7  -8   20.10    0.68
  -4  -7  -8   20.54    0.89
  -4  -7  -8   18.12    1.16
  -4  -7  -8   18.97    1.09
   4   7   8   19.69    1.15
   4   7   8   20.74    0.75
   4   7   8   20.58    1.18
   4   7   8   22.30    1.01
   4   7   8   19.04    0.85
   4   7   8   21.39    0.94
  -5  -7  -8  148.80    3.19
  -5  -7  -8  151.73    3.18
  -5  -7  -8  143.37    2.96
  -5  -7  -8  146.29    2.62
  -5  -7  -8  147.69    2.64
   5   7   8  148.80    3.16
   5   7   8  134.65    2.93
   5   7   8  150.38    3.25
   5   7   8  148.29    2.73
   5   7   8  148.12    2.91
  -6  -7  -8   55.65    1.82
  -6  -7  -8   57.06    1.77
  -6  -7  -8   55.22    1.61
   6   7   8   54.74    1.86
   6   7   8   53.26    1.71
   6   7   8   53.80    1.43
   6   7   8   51.64    1.51
   6   7   8   53.86    1.34
  -7  -7  -8   72.20    2.00
  -7  -7  -8   72.68    2.06
  -7  -7  -8   73.67    2.16
   7   7   8   71.93    1.67
   7   7   8   68.11    1.60
   7   7   8   69.86    2.00
   7   7   8   68.83    1.69
  -8  -7  -8   22.85    1.42
  -8  -7  -8   23.57    1.32
  -8  -7  -8   23.76    1.40
   8   7   8   21.73    0.92
   8   7   8   23.18    0.99
   8   7   8   23.58    1.00
   8   7   8   21.72    1.29
  -9  -7  -8    2.91    0.70
  -9  -7  -8    4.60    0.85
   9   7   8    3.45    0.50
   9   7   8    3.80    0.70
   9   7   8    3.93    0.50
   9   7   8    3.00    0.75
   9   7   8    3.90    0.53
   9   7   8    3.89    0.60
 -10  -7  -8   22.15    1.49
  10   7   8   23.62    1.10
  10   7   8   22.39    1.49
  10   7   8   17.62    1.55
  10   7   8   20.31    0.95
   3  -8  -8    0.58    0.81
   3  -8  -8    0.81    0.60
  -3   8   8    0.56    0.76
   2  -8  -8   25.68    1.61
   2  -8  -8   24.77    1.18
   2  -8  -8   24.86    1.41
  -2   8   8   26.45    1.45
  -2   8   8   23.36    1.42
  -2   8   8   22.65    1.72
  -2   8   8   20.83    2.03
   1  -8  -8    9.01    1.19
   1  -8  -8   10.17    1.06
   1  -8  -8    8.41    0.97
   1  -8  -8    9.99    0.94
  -1   8   8   12.82    1.42
  -1   8   8    9.02    1.08
  -1   8   8    9.30    1.01
  -1   8   8   11.06    1.35
  -1   8   8    9.32    1.04
  -1   8   8    8.85    1.02
   0  -8  -8   60.35    1.82
   0  -8  -8   61.42    1.87
   0  -8  -8   61.15    2.10
   0  -8  -8   51.43    2.31
   0  -8  -8   59.19    1.78
   0   8   8   60.54    1.91
   0   8   8   59.93    1.85
   0   8   8   58.51    1.82
   0   8   8   58.50    2.10
  -1  -8  -8   44.19    1.46
  -1  -8  -8   46.54    1.52
  -1  -8  -8   42.21    1.52
   1   8   8   42.47    1.49
   1   8   8   44.85    1.49
   1   8   8   44.74    1.52
   1   8   8   44.70    1.79
  -2  -8  -8    5.06    0.65
  -2  -8  -8    6.04    0.63
  -2  -8  -8    5.70    0.77
  -2  -8  -8    5.08    0.62
  -2  -8  -8    5.67    0.67
   2   8   8    4.10    0.67
   2   8   8    4.54    0.75
   2   8   8    4.54    0.60
   2   8   8    5.31    0.63
   2   8   8    5.20    0.60
  -3  -8  -8    1.00    0.43
  -3  -8  -8    0.88    0.53
  -3  -8  -8    1.18    0.48
  -3  -8  -8    1.18    0.43
  -3  -8  -8    1.26    0.45
   3   8   8    1.83    0.59
   3   8   8    1.13    0.43
   3   8   8    0.63    0.52
   3   8   8    0.75    0.41
   3   8   8    0.99    0.47
  -4  -8  -8   19.82    1.14
  -4  -8  -8   20.10    1.29
  -4  -8  -8   18.64    0.86
  -4  -8  -8   18.87    0.95
  -4  -8  -8   19.90    0.86
  -4  -8  -8   20.22    0.93
   4   8   8   20.74    1.37
   4   8   8   19.44    1.00
   4   8   8   20.14    1.12
   4   8   8   17.50    0.95
   4   8   8   19.14    1.26
   4   8   8   18.60    0.85
  -5  -8  -8   97.55    2.22
  -5  -8  -8   97.26    2.03
  -5  -8  -8   98.27    2.05
  -5  -8  -8   99.04    1.90
  -5  -8  -8  101.26    2.56
  -5  -8  -8   97.47    2.50
   5   8   8   97.46    2.23
   5   8   8  104.01    2.57
   5   8   8   97.19    1.94
   5   8   8   98.72    2.60
   5   8   8   97.25    1.96
   5   8   8  100.48    2.62
   5   8   8   98.49    2.29
  -6  -8  -8   59.51    1.94
  -6  -8  -8   57.64    1.89
  -6  -8  -8   56.62    1.62
   6   8   8   58.51    1.57
   6   8   8   56.68    1.29
   6   8   8   57.13    1.64
   6   8   8   55.20    1.25
   6   8   8   55.23    1.86
  -7  -8  -8   20.85    1.37
  -7  -8  -8   19.44    1.17
  -7  -8  -8   21.58    1.35
   7   8   8   19.91    1.09
   7   8   8   20.65    0.73
   7   8   8   21.15    0.97
   7   8   8   21.20    1.33
  -8  -8  -8    1.03    0.58
  -8  -8  -8   -0.32    0.72
   8   8   8   -0.29    0.51
   8   8   8    0.57    0.31
   8   8   8    0.10    0.34
   8   8   8    0.00    0.62
   8   8   8    0.89    0.58
  -9  -8  -8   -0.08    0.85
  -9  -8  -8    1.52    0.65
   9   8   8    0.72    0.42
   9   8   8   -0.34    0.60
   9   8   8    0.52    0.74
   9   8   8    1.37    0.71
   9   8   8    1.48    0.36
 -10  -8  -8   16.35    1.35
  10   8   8   14.41    0.96
  10   8   8   13.75    1.52
  10   8   8   15.44    1.45
   1  -9  -8   54.63    1.81
   1  -9  -8   54.06    1.95
   1  -9  -8   51.86    2.06
  -1   9   8   54.03    1.96
  -1   9   8   54.20    2.16
  -1   9   8   53.14    1.95
  -1   9   8   55.14    2.26
   0  -9  -8    6.87    0.85
   0  -9  -8    7.37    0.85
   0  -9  -8    6.13    0.78
   0   9   8    5.61    0.79
   0   9   8    7.22    0.97
   0   9   8    6.02    0.85
   0   9   8    4.50    0.93
  -1  -9  -8   11.01    1.08
  -1  -9  -8   10.51    1.15
  -1  -9  -8   10.28    1.11
  -1  -9  -8    8.41    0.91
  -1  -9  -8    9.95    1.07
  -1  -9  -8   11.40    1.57
   1   9   8    8.67    0.98
   1   9   8   10.93    1.21
   1   9   8   11.09    1.07
   1   9   8    9.36    1.04
  -2  -9  -8   15.57    1.08
  -2  -9  -8   18.38    1.45
  -2  -9  -8   16.93    1.19
  -2  -9  -8   15.60    1.18
  -2  -9  -8   15.66    1.05
   2   9   8   15.38    1.09
   2   9   8   15.47    1.38
   2   9   8   15.76    1.06
   2   9   8   14.97    1.10
   2   9   8   15.75    1.24
  -3  -9  -8   16.67    1.09
  -3  -9  -8   17.73    1.20
  -3  -9  -8   18.25    1.12
  -3  -9  -8   16.82    1.07
  -3  -9  -8   16.46    0.96
   3   9   8   15.54    1.05
   3   9   8   16.01    0.99
   3   9   8   16.98    0.97
   3   9   8   17.37    1.35
   3   9   8   14.99    1.23
  -4  -9  -8   27.16    1.19
  -4  -9  -8   31.08    1.44
  -4  -9  -8   29.63    1.18
  -4  -9  -8   30.01    1.05
  -4  -9  -8   29.28    1.18
   4   9   8   28.12    1.26
   4   9   8   28.40    1.01
   4   9   8   28.52    1.61
   4   9   8   28.95    1.15
   4   9   8   28.72    1.39
   4   9   8   29.13    1.56
  -5  -9  -8    8.48    0.84
  -5  -9  -8    8.53    1.11
  -5  -9  -8    9.97    0.94
  -5  -9  -8    8.97    0.85
  -5  -9  -8    9.57    0.81
   5   9   8    8.39    0.79
   5   9   8    9.02    0.63
   5   9   8   10.38    1.20
   5   9   8   10.02    1.35
   5   9   8    9.35    0.89
   5   9   8    7.91    0.84
  -6  -9  -8    2.29    0.46
  -6  -9  -8    2.05    0.57
  -6  -9  -8    2.76    0.43
  -6  -9  -8    3.43    0.79
  -6  -9  -8    0.72    0.68
  -6  -9  -8    2.88    0.47
   6   9   8    2.12    0.55
   6   9   8    3.31    0.87
   6   9   8    2.00    0.71
   6   9   8    2.39    0.69
   6   9   8    2.31    0.48
  -7  -9  -8    3.82    0.82
  -7  -9  -8    5.08    0.87
  -7  -9  -8    3.02    0.63
  -7  -9  -8    3.78    0.46
   7   9   8    4.20    0.62
   7   9   8    3.57    0.52
   7   9   8    3.23    0.77
   7   9   8    4.01    0.89
   7   9   8    2.14    0.71
   7   9   8    3.23    0.99
  -8  -9  -8   16.64    1.20
  -8  -9  -8   15.70    0.78
  -8  -9  -8   16.03    1.49
  -8  -9  -8   14.38    1.50
   8   9   8   15.05    1.43
   8   9   8   15.66    1.61
   8   9   8   18.26    1.07
   8   9   8   19.06    1.21
  -9  -9  -8   -0.42    0.63
  -9  -9  -8    0.58    0.89
   9   9   8   -0.50    0.53
   9   9   8   -1.65    0.71
   9   9   8    0.60    0.67
  -1 -10  -8    4.04    0.86
  -1 -10  -8    1.24    0.83
  -1 -10  -8    3.58    0.76
  -1 -10  -8    2.40    0.78
   1  10   8    3.17    0.73
   1  10   8    4.40    0.91
   1  10   8    1.80    0.83
   1  10   8    2.97    0.78
  -2 -10  -8   15.75    1.21
  -2 -10  -8   18.03    1.36
  -2 -10  -8   18.66    1.30
  -2 -10  -8   15.74    1.44
   2  10   8   20.43    1.30
   2  10   8   16.45    1.27
   2  10   8   16.56    1.21
   2  10   8   15.45    1.60
  -3 -10  -8   14.04    1.30
  -3 -10  -8   11.93    1.14
  -3 -10  -8   12.57    1.01
  -3 -10  -8   13.07    1.25
  -3 -10  -8   15.18    1.32
   3  10   8   16.41    1.12
   3  10   8   12.99    1.16
   3  10   8   14.02    1.04
   3  10   8   13.30    1.47
  -4 -10  -8   42.00    1.31
  -4 -10  -8   45.72    1.60
  -4 -10  -8   44.89    1.64
  -4 -10  -8   46.95    1.83
   4  10   8   43.70    1.53
   4  10   8   47.24    1.99
   4  10   8   44.58    2.27
   4  10   8   44.08    1.65
   4  10   8   44.67    1.29
  -5 -10  -8    3.57    0.70
  -5 -10  -8    2.96    0.61
  -5 -10  -8    2.62    0.80
  -5 -10  -8    2.38    0.63
   5  10   8    2.54    0.57
   5  10   8    3.04    0.75
   5  10   8    4.34    0.69
   5  10   8    3.18    0.41
   5  10   8    1.63    0.78
  -6 -10  -8   35.82    1.30
  -6 -10  -8   39.19    1.78
  -6 -10  -8   34.29    1.24
  -6 -10  -8   32.60    1.72
   6  10   8   38.33    1.65
   6  10   8   34.43    2.74
   6  10   8   37.37    1.80
   6  10   8   35.13    1.46
   6  10   8   36.43    1.30
  -7 -10  -8   16.65    1.13
  -7 -10  -8   14.81    1.03
  -7 -10  -8   16.11    1.47
   7  10   8   16.61    1.40
   7  10   8   13.45    1.51
   7  10   8   15.31    1.01
   7  10   8   17.82    1.17
  -8 -10  -8   35.35    1.46
  -8 -10  -8   38.46    1.89
   8  10   8   34.91    1.88
   8  10   8   34.67    1.43
   8  10   8   33.30    1.63
  -9 -10  -8   39.91    1.65
   9  10   8   39.32    2.07
   9  10   8   39.58    1.53
   9  10   8   37.82    1.74
  -3 -11  -8   -0.57    0.94
  -3 -11  -8    1.25    0.90
  -3 -11  -8   -0.81    1.14
  -3 -11  -8    0.74    0.78
   3  11   8    1.76    0.64
  -4 -11  -8   11.66    1.12
  -4 -11  -8    9.80    1.05
  -4 -11  -8   10.48    1.21
  -4 -11  -8   11.80    1.28
   4  11   8   10.15    1.25
   4  11   8   12.16    1.15
   4  11   8    8.11    0.98
  -5 -11  -8   -0.12    0.75
  -5 -11  -8    0.20    0.65
  -5 -11  -8   -0.49    0.76
  -5 -11  -8   -0.56    0.82
   5  11   8   -1.06    0.68
   5  11   8   -0.06    0.59
   5  11   8   -0.76    0.83
  -6 -11  -8   25.16    1.38
  -6 -11  -8   24.62    1.72
  -6 -11  -8   27.38    1.51
  -6 -11  -8   26.57    1.32
   6  11   8   26.39    1.45
   6  11   8   27.30    1.33
   6  11   8   23.17    1.83
  -7 -11  -8    8.82    1.41
   7  11   8    7.33    0.78
   7  11   8    5.98    1.37
   7  11   8    6.66    0.88
   5   6  -9   63.50    2.21
   5   6  -9   57.87    2.31
  -5  -6   9   66.23    2.13
  -5  -6   9   57.86    2.34
  -5  -6   9   61.91    2.43
   4   6  -9   15.00    1.59
   4   6  -9   16.01    1.35
   4   6  -9   13.70    1.53
  -4  -6   9   13.40    1.80
  -4  -6   9   14.34    1.25
  -4  -6   9   13.86    1.42
   3   6  -9    4.80    0.76
   3   6  -9    4.42    0.89
   3   6  -9    3.25    0.80
  -3  -6   9    3.33    0.84
  -3  -6   9    3.37    0.83
   2   6  -9    0.98    0.76
   2   6  -9    1.49    0.64
   2   6  -9    1.19    0.68
   2   6  -9    3.41    0.92
   2   6  -9    1.08    0.75
  -2  -6   9    1.59    0.82
   7   5  -9    7.41    1.07
   7   5  -9    6.44    1.02
   7   5  -9    7.79    1.36
  -7  -5   9    7.25    0.88
  -7  -5   9   11.43    1.41
  -7  -5   9    8.31    0.95
   6   5  -9    0.48    0.66
   6   5  -9    0.90    0.75
  -6  -5   9    0.95    0.69
  -6  -5   9   -0.41    0.96
  -6  -5   9    0.93    0.93
   5   5  -9   40.81    1.67
   5   5  -9   39.40    1.85
   5   5  -9   40.47    1.77
  -5  -5   9   38.51    1.61
  -5  -5   9   37.99    1.28
   4   5  -9   31.12    1.59
   4   5  -9   28.46    1.44
   4   5  -9   29.76    1.50
  -4  -5   9   26.89    1.26
  -4  -5   9   28.90    1.48
   3   5  -9   -0.40    0.57
   3   5  -9   -0.12    0.55
   3   5  -9   -0.34    0.66
  -3  -5   9   -0.77    0.78
  -3  -5   9    0.09    0.63
  -3  -5   9   -0.07    0.59
  -3  -5   9    0.39    0.86
   2   5  -9   11.21    1.10
   2   5  -9    8.46    0.95
   2   5  -9   10.52    1.00
  -2  -5   9   11.69    1.20
  -2  -5   9   11.03    1.19
  -2  -5   9    8.06    0.98
  -2  -5   9    7.32    1.03
   1   5  -9    4.24    0.59
   1   5  -9    4.46    0.75
   1   5  -9    3.94    0.86
   1   5  -9    3.90    0.75
   1   5  -9    1.89    0.71
  -1  -5   9    2.78    0.89
  -1  -5   9    4.56    0.83
  -1  -5   9    4.39    0.84
   0   5  -9   39.09    1.62
   0   5  -9   40.03    1.77
   0   5  -9   39.41    1.65
   0   5  -9   38.09    1.23
   0  -5   9   41.83    1.88
   0  -5   9   39.36    1.73
  -1   5  -9    2.86    0.74
  -1   5  -9    2.48    0.73
   1  -5   9    0.63    0.84
   8   4  -9   10.98    1.50
   8   4  -9   12.51    1.34
  -8  -4   9   12.28    1.28
  -8  -4   9   11.16    1.17
   7   4  -9   18.94    1.57
   7   4  -9   17.80    1.31
  -7  -4   9   16.12    1.08
  -7  -4   9   17.59    1.23
   6   4  -9   17.95    1.41
   6   4  -9   14.96    1.19
  -6  -4   9   15.79    1.17
   5   4  -9    6.43    0.79
   5   4  -9    7.69    0.96
   5   4  -9    7.00    0.85
  -5  -4   9    7.73    0.72
  -5  -4   9    6.45    0.77
  -5  -4   9    6.14    0.88
   4   4  -9    0.72    0.54
   4   4  -9    1.28    0.62
   4   4  -9   -0.32    0.59
  -4  -4   9    0.45    0.69
  -4  -4   9    0.99    0.67
  -4  -4   9    1.97    0.62
  -4  -4   9    0.89    0.46
  -4  -4   9    0.12    0.84
   3   4  -9    0.92    0.60
   3   4  -9    1.17    0.54
   3   4  -9   -0.09    0.50
  -3  -4   9   -0.60    0.61
  -3  -4   9    0.27    0.48
  -3  -4   9    1.50    0.69
  -3  -4   9    0.44    0.55
   2   4  -9   51.29    1.77
   2   4  -9   50.21    1.75
   2   4  -9   55.35    1.75
  -2  -4   9   54.43    1.69
  -2  -4   9   54.91    1.78
  -2  -4   9   51.79    1.83
   1   4  -9   -1.22    0.53
   1   4  -9   -0.36    0.38
   1   4  -9   -0.68    0.48
   1   4  -9    0.34    0.62
  -1  -4   9   -0.18    0.68
  -1  -4   9    0.10    0.57
  -1  -4   9    0.72    0.58
   0   4  -9   45.40    1.67
   0   4  -9   46.39    1.28
   0   4  -9   45.88    1.72
   0   4  -9   47.67    1.61
   0   4  -9   48.25    1.88
   0  -4   9   43.90    1.93
   0  -4   9   45.60    1.71
   0  -4   9   47.31    1.71
   0  -4   9   46.66    1.77
  -1   4  -9    0.54    0.65
  -1   4  -9    0.66    0.59
  -1   4  -9    1.85    0.58
  -1   4  -9   -0.32    1.29
   1  -4   9    1.53    0.68
   1  -4   9   -0.04    0.70
   1  -4   9   -1.34    0.72
  -2   4  -9    1.61    0.84
  -2   4  -9    3.80    0.77
  -2   4  -9    3.12    0.70
   2  -4   9    2.37    0.73
   2  -4   9    1.16    0.80
   2  -4   9    1.26    0.83
   8   3  -9   14.64    1.54
   8   3  -9   15.53    1.56
  -8  -3   9   15.98    1.50
  -8  -3   9   15.15    1.16
  -8  -3   9   15.15    1.24
   7   3  -9   17.77    1.38
   7   3  -9   16.89    1.44
   7   3  -9   14.98    1.22
  -7  -3   9   18.06    1.25
  -7  -3   9   16.50    1.39
  -7  -3   9   16.48    1.14
  -7  -3   9   17.08    0.83
   6   3  -9   29.91    1.55
   6   3  -9   30.10    1.52
   6   3  -9   28.48    1.37
   6   3  -9   31.14    1.54
  -6  -3   9   27.30    1.34
  -6  -3   9   29.91    1.31
  -6  -3   9   32.54    1.62
   5   3  -9   -0.89    0.55
   5   3  -9   -0.10    0.49
   5   3  -9    1.00    0.64
  -5  -3   9   -0.17    0.59
  -5  -3   9    0.38    0.65
  -5  -3   9    1.19    0.67
  -5  -3   9   -0.13    0.50
  -5  -3   9   -0.45    0.32
   4   3  -9   97.19    2.43
   4   3  -9   98.88    2.40
  -4  -3   9   97.61    2.58
  -4  -3   9   96.38    2.47
  -4  -3   9   98.01    2.32
  -4  -3   9   99.06    2.75
  -4  -3   9   96.31    2.03
   3   3  -9   34.18    1.42
   3   3  -9   33.51    1.34
  -3  -3   9   33.84    1.18
  -3  -3   9   34.49    1.57
  -3  -3   9   32.46    1.44
  -3  -3   9   34.08    1.34
   2   3  -9   63.52    1.83
   2   3  -9   63.55    1.80
  -2  -3   9   62.02    1.70
  -2  -3   9   64.58    1.81
  -2  -3   9   62.43    1.85
  -2  -3   9   61.40    1.99
   1   3  -9   40.95    1.54
   1   3  -9   39.73    1.42
   1   3  -9   39.71    1.44
  -1  -3   9   40.73    1.51
  -1  -3   9   40.65    1.45
  -1  -3   9   38.84    1.44
  -1  -3   9   42.28    1.72
   0   3  -9    5.34    0.65
   0   3  -9    6.08    0.71
   0   3  -9    6.64    0.83
   0   3  -9    7.54    0.78
   0  -3   9    6.35    0.73
   0  -3   9    5.92    0.78
   0  -3   9    7.38    0.92
   0  -3   9    5.97    0.74
  -1   3  -9   17.40    1.13
  -1   3  -9   19.00    1.11
  -1   3  -9   16.99    1.02
  -1   3  -9   16.94    1.23
  -1   3  -9   17.25    0.82
  -1   3  -9   16.43    0.70
   1  -3   9   18.18    1.26
   1  -3   9   16.44    1.14
   1  -3   9   17.96    1.20
   1  -3   9   15.73    1.24
  -2   3  -9    6.38    0.75
  -2   3  -9    5.03    0.80
  -2   3  -9    5.89    0.70
  -2   3  -9    6.51    0.90
   2  -3   9    4.90    0.79
   2  -3   9    5.84    0.76
   2  -3   9    6.39    0.88
  -3   3  -9   77.35    1.93
  -3   3  -9   78.46    2.05
  -3   3  -9   77.68    2.20
  -3   3  -9   74.74    2.35
   3  -3   9   78.65    2.35
   3  -3   9   75.80    2.18
   3  -3   9   75.34    2.19
   3  -3   9   76.34    2.46
  -4   3  -9   16.50    1.06
  -4   3  -9   18.88    1.53
  -4   3  -9   17.78    1.34
  -4   3  -9   17.73    1.40
   4  -3   9   19.38    1.50
   4  -3   9   20.25    1.40
   8   2  -9   31.47    1.58
   8   2  -9   30.00    1.74
   8   2  -9   31.38    1.84
  -8  -2   9   35.66    1.40
  -8  -2   9   33.35    1.30
  -8  -2   9   25.98    2.45
   7   2  -9   12.87    1.16
   7   2  -9   14.09    1.38
   7   2  -9   16.86    1.39
   7   2  -9   14.42    1.30
  -7  -2   9   16.72    1.15
  -7  -2   9   13.34    1.03
  -7  -2   9   14.72    1.32
   6   2  -9   12.81    1.04
   6   2  -9   11.53    1.23
   6   2  -9   12.50    1.23
   6   2  -9   13.54    1.15
  -6  -2   9   13.59    1.31
  -6  -2   9   12.44    1.04
  -6  -2   9   12.07    0.63
  -6  -2   9   12.50    1.21
  -6  -2   9   10.21    0.97
   5   2  -9    0.59    0.49
   5   2  -9    0.20    0.60
   5   2  -9   -0.47    0.55
  -5  -2   9    0.75    0.61
  -5  -2   9    0.71    0.56
  -5  -2   9    0.94    0.55
  -5  -2   9   -0.16    0.47
  -5  -2   9    0.32    0.59
   4   2  -9  113.85    2.60
   4   2  -9  113.50    2.61
   4   2  -9  111.53    2.57
  -4  -2   9  111.23    2.18
  -4  -2   9  112.01    2.50
  -4  -2   9  109.56    2.51
  -4  -2   9  112.69    2.61
  -4  -2   9  116.56    2.78
   3   2  -9   24.51    1.15
   3   2  -9   25.24    1.15
  -3  -2   9   25.75    1.37
  -3  -2   9   25.21    1.24
  -3  -2   9   26.67    1.17
  -3  -2   9   22.50    1.11
  -3  -2   9   24.38    0.94
   2   2  -9   68.00    2.07
   2   2  -9   67.68    1.84
  -2  -2   9   69.26    1.85
  -2  -2   9   69.05    1.82
  -2  -2   9   71.55    2.06
  -2  -2   9   69.34    1.72
   1   2  -9  107.33    2.42
   1   2  -9  107.39    2.40
   1   2  -9  107.41    2.37
  -1  -2   9  103.88    2.36
  -1  -2   9  106.94    2.61
  -1  -2   9  107.00    2.35
  -1  -2   9  107.60    2.43
   0   2  -9    0.99    0.44
   0   2  -9    0.99    0.49
   0   2  -9    0.04    0.40
   0   2  -9    0.00    0.41
   0  -2   9    0.14    0.43
   0  -2   9    0.51    0.51
   0  -2   9    0.69    0.45
   0  -2   9    0.34    0.57
   0  -2   9    0.52    0.48
  -1   2  -9   37.10    1.04
  -1   2  -9   43.04    1.39
  -1   2  -9   40.79    1.34
  -1   2  -9   39.61    1.14
  -1   2  -9   39.31    1.29
   1  -2   9   37.56    2.50
   1  -2   9   40.55    1.47
   1  -2   9   38.98    1.32
   1  -2   9   41.06    1.41
   1  -2   9   38.80    1.51
  -2   2  -9   11.03    0.96
  -2   2  -9   11.78    1.11
   2  -2   9   11.94    1.14
   2  -2   9   10.78    1.05
   2  -2   9   12.25    0.96
   2  -2   9   11.70    0.96
  -3   2  -9   30.54    1.33
  -3   2  -9   30.51    1.24
  -3   2  -9   33.13    1.13
  -3   2  -9   30.63    1.51
   3  -2   9   30.98    1.54
   3  -2   9   28.55    1.30
   3  -2   9   30.60    1.33
  -4   2  -9   36.56    1.19
  -4   2  -9   38.44    1.29
  -4   2  -9   36.94    1.73
  -4   2  -9   38.13    1.51
   4  -2   9   37.39    1.63
   4  -2   9   36.07    1.50
   4  -2   9   39.01    1.52
   4  -2   9   40.22    1.81
  -5   2  -9    8.71    1.16
  -5   2  -9    9.18    1.25
   5  -2   9    8.43    0.98
   5  -2   9    6.40    0.90
   5  -2   9    8.15    1.17
   5  -2   9    9.80    1.17
   8   1  -9   41.33    1.72
   8   1  -9   42.88    2.04
   8   1  -9   41.65    1.91
  -8  -1   9   41.90    1.39
  -8  -1   9   39.49    1.48
   7   1  -9   10.53    1.08
   7   1  -9   10.00    1.35
   7   1  -9    8.04    0.93
   7   1  -9    8.04    0.89
  -7  -1   9    8.00    0.93
  -7  -1   9    8.21    1.02
  -7  -1   9    9.30    1.03
   6   1  -9   -0.33    0.61
   6   1  -9    0.85    0.62
   6   1  -9    0.84    0.51
   6   1  -9    0.12    0.51
  -6  -1   9   -0.14    0.52
  -6  -1   9   -0.27    0.48
  -6  -1   9    0.45    0.58
   5   1  -9   24.73    1.39
   5   1  -9   26.54    1.33
   5   1  -9   25.53    1.28
   5   1  -9   25.89    1.21
  -5  -1   9   23.59    0.77
  -5  -1   9   26.44    1.43
  -5  -1   9   26.58    1.36
  -5  -1   9   26.06    1.35
  -5  -1   9   27.72    1.15
  -5  -1   9   27.49    1.18
  -5  -1   9   24.23    0.83
   4   1  -9   29.66    1.21
   4   1  -9   31.01    1.31
   4   1  -9   31.45    1.26
   4   1  -9   28.52    1.38
  -4  -1   9   29.97    0.92
  -4  -1   9   28.92    1.31
  -4  -1   9   31.76    1.21
  -4  -1   9   31.58    1.24
  -4  -1   9   31.27    1.33
  -4  -1   9   29.16    1.42
   3   1  -9  157.99    3.21
  -3  -1   9  158.65    3.15
  -3  -1   9  160.88    3.15
  -3  -1   9  159.55    3.38
  -3  -1   9  154.25    2.92
  -3  -1   9  158.49    3.17
   2   1  -9    0.63    0.38
   2   1  -9    0.27    0.44
   2   1  -9    0.11    0.38
  -2  -1   9   -0.01    0.35
  -2  -1   9    0.21    0.41
  -2  -1   9    0.15    0.42
  -2  -1   9   -0.54    0.47
  -2  -1   9    0.18    0.40
   1   1  -9   24.99    1.09
   1   1  -9   25.67    1.00
   1   1  -9   24.73    1.11
   1   1  -9   23.17    1.02
  -1  -1   9   23.24    1.08
  -1  -1   9   24.92    1.01
  -1  -1   9   25.10    1.05
  -1  -1   9   24.21    1.17
  -1  -1   9   26.05    1.30
   0   1  -9    0.84    0.44
   0   1  -9    0.50    0.41
   0   1  -9    0.76    0.38
   0  -1   9    0.34    0.41
   0  -1   9    0.26    0.44
   0  -1   9    1.38    0.43
   0  -1   9    0.06    0.48
   0  -1   9    0.00    0.36
  -1   1  -9   88.92    2.00
  -1   1  -9   80.05    1.86
  -1   1  -9   81.80    1.91
  -1   1  -9   82.17    1.79
   1  -1   9   83.61    2.02
   1  -1   9   86.96    2.07
   1  -1   9   81.53    2.11
   1  -1   9   85.00    1.87
   1  -1   9   83.19    2.32
  -2   1  -9   14.27    0.63
  -2   1  -9   13.41    0.89
  -2   1  -9   13.84    1.10
  -2   1  -9   14.67    0.79
   2  -1   9   14.13    0.94
   2  -1   9   13.09    1.02
   2  -1   9   14.10    0.99
   2  -1   9   14.05    0.82
  -3   1  -9   13.28    0.77
  -3   1  -9   14.61    1.15
  -3   1  -9   14.68    0.87
   3  -1   9   12.46    0.94
   3  -1   9   15.51    1.13
   3  -1   9   12.03    1.02
   3  -1   9   14.36    1.04
  -4   1  -9    9.28    0.93
  -4   1  -9    9.19    1.09
  -4   1  -9    8.31    0.78
  -4   1  -9    8.62    0.68
   4  -1   9    9.09    0.90
   4  -1   9   10.25    1.20
   4  -1   9   10.61    0.94
  -5   1  -9    0.52    0.62
  -5   1  -9   -0.27    0.53
   5  -1   9    0.65    0.69
   5  -1   9    0.99    0.75
   5  -1   9    0.49    0.56
   5  -1   9    0.90    0.57
  -6   1  -9   31.61    1.76
  -6   1  -9   31.91    1.48
   6  -1   9   31.41    1.86
   6  -1   9   29.53    1.51
   6  -1   9   32.39    1.61
   6  -1   9   31.15    1.45
   8   0  -9    6.89    1.02
   8   0  -9    7.65    0.94
   8   0  -9    5.59    0.98
  -8   0   9    6.66    0.70
  -8   0   9    7.58    0.83
  -8   0   9    8.28    1.05
   7   0  -9   16.02    1.31
   7   0  -9   11.87    1.35
   7   0  -9   12.79    1.40
   7   0  -9   13.26    1.19
  -7   0   9   14.96    1.29
  -7   0   9   13.21    1.00
  -7   0   9   14.81    1.10
   6   0  -9    0.54    0.54
   6   0  -9   -0.07    0.48
   6   0  -9    0.38    0.62
   6   0  -9    1.23    0.67
  -6   0   9    0.47    0.56
  -6   0   9    0.99    0.48
  -6   0   9    0.15    0.54
   5   0  -9   74.99    2.00
   5   0  -9   75.97    2.19
   5   0  -9   74.57    2.04
   5   0  -9   73.40    2.04
  -5   0   9   72.50    1.89
  -5   0   9   73.65    1.57
  -5   0   9   73.89    1.53
  -5   0   9   75.28    1.87
  -5   0   9   73.40    2.13
  -5   0   9   74.08    2.19
   4   0  -9    5.67    0.75
   4   0  -9    5.21    0.65
   4   0  -9    4.63    0.70
   4   0  -9    4.41    0.55
   4   0  -9    4.64    0.61
  -4   0   9    5.24    0.62
  -4   0   9    4.81    0.62
  -4   0   9    4.97    0.54
  -4   0   9    4.67    0.65
  -4   0   9    4.77    0.42
  -4   0   9    5.14    0.58
  -4   0   9    5.33    0.73
   3   0  -9   20.98    1.15
   3   0  -9   21.65    1.24
   3   0  -9   21.76    0.98
   3   0  -9   21.09    1.08
   3   0  -9   22.33    1.03
  -3   0   9   21.11    1.03
  -3   0   9   21.24    1.01
  -3   0   9   21.02    0.83
  -3   0   9   21.21    0.99
  -3   0   9   21.89    1.06
  -3   0   9   23.91    1.23
   2   0  -9    0.01    0.40
   2   0  -9    0.27    0.32
   2   0  -9   -0.28    0.39
   2   0  -9   -0.08    0.36
   2   0  -9   -0.30    0.42
  -2   0   9    0.54    0.42
  -2   0   9   -0.05    0.38
  -2   0   9    0.73    0.47
  -2   0   9    0.15    0.38
  -2   0   9   -0.05    0.30
   1   0  -9    5.44    0.82
   1   0  -9    5.29    0.58
   1   0  -9    4.93    0.59
  -1   0   9    6.10    0.67
  -1   0   9    4.92    0.62
  -1   0   9    4.53    0.56
  -1   0   9    4.51    0.46
  -1   0   9    4.29    0.62
   0   0  -9   32.68    1.11
   0   0  -9   32.99    1.13
   0   0  -9   31.86    1.14
   0   0  -9   32.74    1.02
   0   0   9   34.05    1.19
   0   0   9   33.34    1.15
   0   0   9   32.05    1.17
   0   0   9   33.44    1.01
   0   0   9   34.01    1.34
  -1   0  -9   24.52    0.95
  -1   0  -9   24.65    0.88
  -1   0  -9   27.30    1.00
  -1   0  -9   24.40    0.94
   1   0   9   24.00    1.08
   1   0   9   26.92    1.26
   1   0   9   25.89    1.07
   1   0   9   24.41    1.02
   1   0   9   26.07    0.88
  -2   0  -9   39.55    1.04
  -2   0  -9   37.56    1.13
  -2   0  -9   37.59    1.07
  -2   0  -9   39.02    1.17
   2   0   9   38.79    1.41
   2   0   9   39.12    1.52
   2   0   9   38.18    1.28
   2   0   9   39.05    1.08
   2   0   9   39.00    1.25
  -3   0  -9    1.22    0.34
  -3   0  -9    1.21    0.40
  -3   0  -9    0.57    0.52
   3   0   9    1.95    0.50
   3   0   9    0.96    0.36
   3   0   9    0.46    0.40
   3   0   9    1.21    0.53
  -4   0  -9    4.82    0.61
  -4   0  -9    5.16    0.52
  -4   0  -9    5.33    0.58
  -4   0  -9    5.40    0.78
   4   0   9    4.30    0.58
   4   0   9    4.32    0.62
   4   0   9    4.59    0.70
   4   0   9    4.41    0.49
  -5   0  -9   11.20    1.21
  -5   0  -9   12.10    0.93
   5   0   9   11.85    0.96
   5   0   9   10.58    1.20
   5   0   9    9.90    0.84
  -6   0  -9   29.97    1.66
  -6   0  -9   29.64    1.28
   6   0   9   29.16    1.38
   6   0   9   32.54    1.24
   6   0   9   29.35    1.28
   6   0   9   32.98    1.72
  -7   0  -9   15.56    1.22
  -7   0  -9   14.84    1.84
   7   0   9   13.61    1.18
   7   0   9   14.43    1.37
   7   0   9   13.09    1.54
   7   0   9   14.00    1.26
   8  -1  -9    0.38    1.50
   8  -1  -9    1.11    0.76
  -8   1   9   -0.08    0.69
   7  -1  -9   23.12    1.60
   7  -1  -9   26.29    1.53
   7  -1  -9   24.07    1.51
   7  -1  -9   23.50    1.35
  -7   1   9   25.63    1.47
  -7   1   9   25.12    1.52
  -7   1   9   25.93    1.34
   6  -1  -9    3.78    0.66
   6  -1  -9    4.65    0.82
   6  -1  -9    4.20    0.77
   6  -1  -9    4.12    0.71
  -6   1   9    3.69    0.69
  -6   1   9    3.55    0.49
  -6   1   9    2.36    0.60
  -6   1   9    2.69    0.75
  -6   1   9    4.21    0.61
   5  -1  -9  129.94    2.91
   5  -1  -9  133.24    3.09
   5  -1  -9  127.23    2.90
   5  -1  -9  128.74    2.86
  -5   1   9  132.22    2.76
  -5   1   9  130.53    2.49
  -5   1   9  132.41    2.75
  -5   1   9  129.82    3.02
   4  -1  -9   34.10    1.49
   4  -1  -9   36.35    1.28
   4  -1  -9   34.24    1.37
   4  -1  -9   32.19    1.50
   4  -1  -9   35.04    1.29
  -4   1   9   33.55    1.24
  -4   1   9   32.96    1.33
  -4   1   9   35.06    1.08
  -4   1   9   33.91    1.24
  -4   1   9   35.11    1.50
   3  -1  -9    0.18    0.38
   3  -1  -9    0.11    0.34
   3  -1  -9   -0.41    0.48
   3  -1  -9    0.44    0.45
   3  -1  -9   -0.30    0.46
  -3   1   9    0.29    0.41
  -3   1   9   -0.08    0.41
  -3   1   9    0.40    0.44
  -3   1   9    0.42    0.42
  -3   1   9    0.41    0.25
   2  -1  -9    1.33    0.48
   2  -1  -9    0.37    0.45
   2  -1  -9    1.18    0.39
   2  -1  -9    0.53    0.43
   2  -1  -9    0.17    0.33
  -2   1   9    0.28    0.43
  -2   1   9    1.21    0.32
  -2   1   9    0.90    0.37
  -2   1   9    0.78    0.42
  -2   1   9    0.09    0.42
   1  -1  -9   36.01    1.06
   1  -1  -9   38.53    1.23
   1  -1  -9   37.85    1.31
   1  -1  -9   36.05    1.18
  -1   1   9   36.51    1.21
  -1   1   9   37.98    1.07
  -1   1   9   36.47    1.08
  -1   1   9   33.03    1.35
  -1   1   9   37.66    1.38
  -1   1   9   35.25    1.13
   0  -1  -9  172.90    3.08
   0  -1  -9  175.55    3.30
   0  -1  -9  175.13    3.33
   0   1   9  175.25    3.09
   0   1   9  179.56    3.35
   0   1   9  174.82    3.35
   0   1   9  178.46    3.51
   0   1   9  172.00    3.33
  -1  -1  -9   -0.06    0.30
  -1  -1  -9    0.10    0.25
  -1  -1  -9    0.09    0.33
  -1  -1  -9    0.18    0.34
   1   1   9   -0.35    0.35
   1   1   9   -0.11    0.33
   1   1   9   -0.04    0.33
   1   1   9   -0.03    0.43
   1   1   9   -0.02    0.26
  -2  -1  -9    1.47    0.36
  -2  -1  -9    1.32    0.28
  -2  -1  -9    1.31    0.35
  -2  -1  -9    0.84    0.38
   2   1   9    1.44    0.52
   2   1   9    0.41    0.35
   2   1   9    0.82    0.40
   2   1   9    1.26    0.28
  -3  -1  -9   39.79    1.10
  -3  -1  -9   38.38    1.02
  -3  -1  -9   39.42    1.07
   3   1   9   39.94    1.25
   3   1   9   38.72    1.49
   3   1   9   37.97    0.96
   3   1   9   39.29    1.42
   3   1   9   39.08    1.22
  -4  -1  -9   59.98    1.93
  -4  -1  -9   60.87    1.29
  -4  -1  -9   59.70    1.31
  -4  -1  -9   60.26    1.36
   4   1   9   61.27    1.59
   4   1   9   59.32    1.84
   4   1   9   54.83    2.04
   4   1   9   60.65    1.31
  -5  -1  -9   63.34    2.07
  -5  -1  -9   67.52    1.52
   5   1   9   67.47    1.70
   5   1   9   62.87    1.69
   5   1   9   66.31    1.46
   5   1   9   66.39    2.03
  -6  -1  -9    6.70    0.91
   6   1   9    6.57    0.82
   6   1   9    7.44    0.73
   6   1   9    6.88    0.73
   6   1   9    8.30    0.94
  -7  -1  -9   18.81    1.46
  -7  -1  -9   20.08    1.10
   7   1   9   19.33    1.10
   7   1   9   16.81    1.46
   7   1   9   15.97    1.28
  -8  -1  -9    3.85    0.93
   8   1   9    3.76    0.95
   8   1   9    1.94    1.17
   7  -2  -9   55.39    1.89
   7  -2  -9   50.69    2.18
   7  -2  -9   56.22    2.02
  -7   2   9   51.52    2.05
  -7   2   9   54.19    1.67
   6  -2  -9    1.20    0.68
   6  -2  -9    1.55    0.57
   6  -2  -9   -0.21    0.64
   6  -2  -9   -0.42    0.51
  -6   2   9   -0.28    0.58
  -6   2   9   -0.55    0.51
  -6   2   9    1.15    0.56
  -6   2   9   -0.01    0.52
   5  -2  -9   49.26    1.68
   5  -2  -9   51.59    1.73
   5  -2  -9   54.25    1.67
   5  -2  -9   51.38    1.86
  -5   2   9   51.19    1.55
  -5   2   9   50.86    1.45
  -5   2   9   51.24    1.56
  -5   2   9   49.53    1.77
   4  -2  -9   53.31    1.59
   4  -2  -9   52.29    1.78
   4  -2  -9   52.63    1.66
   4  -2  -9   53.22    1.61
  -4   2   9   51.36    1.66
  -4   2   9   51.83    1.44
  -4   2   9   54.63    1.57
  -4   2   9   52.55    1.53
   3  -2  -9   10.75    0.92
   3  -2  -9    9.68    0.98
   3  -2  -9    9.72    1.09
   3  -2  -9   10.47    0.81
   3  -2  -9   10.92    0.79
  -3   2   9   10.98    0.78
  -3   2   9   10.36    1.02
  -3   2   9   10.93    0.82
  -3   2   9   11.37    0.88
  -3   2   9   10.82    0.85
   2  -2  -9   66.02    1.72
   2  -2  -9   66.48    1.61
   2  -2  -9   68.72    1.75
   2  -2  -9   67.86    1.91
   2  -2  -9   69.02    1.90
  -2   2   9   63.50    2.10
  -2   2   9   67.04    1.71
  -2   2   9   66.53    1.71
  -2   2   9   68.50    1.90
  -2   2   9   68.59    1.36
   1  -2  -9   64.60    1.66
   1  -2  -9   64.42    1.88
   1  -2  -9   64.69    1.65
   1  -2  -9   66.21    1.50
   1  -2  -9   67.69    1.80
  -1   2   9   66.87    1.68
  -1   2   9   66.63    1.46
  -1   2   9   64.23    1.71
  -1   2   9   67.31    1.84
  -1   2   9   65.79    1.57
   0  -2  -9  108.71    2.11
   0  -2  -9  111.89    2.34
   0  -2  -9  111.74    2.51
   0  -2  -9  114.24    2.36
   0  -2  -9  109.42    2.67
   0   2   9  111.52    2.17
   0   2   9  116.34    2.55
   0   2   9  115.72    2.27
   0   2   9  113.70    2.40
   0   2   9  111.47    2.37
  -1  -2  -9    2.25    0.28
  -1  -2  -9    2.76    0.44
  -1  -2  -9    1.50    0.39
   1   2   9    2.11    0.47
   1   2   9    2.01    0.40
   1   2   9    1.36    0.47
   1   2   9    2.72    0.29
   1   2   9    2.25    0.45
  -2  -2  -9    4.93    0.63
  -2  -2  -9    5.37    0.55
  -2  -2  -9    6.39    0.59
  -2  -2  -9    4.82    0.37
   2   2   9    5.35    0.39
   2   2   9    4.95    0.63
   2   2   9    6.33    0.63
   2   2   9    4.58    0.52
   2   2   9    5.07    0.59
   2   2   9    4.82    0.59
  -3  -2  -9   64.14    1.49
  -3  -2  -9   64.97    1.44
  -3  -2  -9   62.65    1.41
   3   2   9   66.59    1.81
   3   2   9   63.01    1.78
   3   2   9   62.38    1.63
   3   2   9   61.37    1.57
   3   2   9   67.82    1.83
  -4  -2  -9   56.60    1.22
  -4  -2  -9   57.39    1.30
  -4  -2  -9   55.50    1.19
  -4  -2  -9   56.60    1.81
   4   2   9   51.48    1.98
   4   2   9   56.91    1.73
   4   2   9   55.79    1.44
   4   2   9   55.48    1.78
   4   2   9   58.89    1.76
  -5  -2  -9  158.35    2.72
  -5  -2  -9  157.02    3.52
   5   2   9  160.37    3.02
   5   2   9  157.47    3.39
  -6  -2  -9   10.65    1.16
   6   2   9    9.90    0.58
   6   2   9    8.68    1.10
   6   2   9    7.38    0.78
   6   2   9    9.05    0.97
  -7  -2  -9    1.52    0.64
   7   2   9    2.26    0.42
   7   2   9    2.31    0.74
  -8  -2  -9    0.55    0.70
   8   2   9    1.66    0.47
   8   2   9    0.77    0.58
   8   2   9    1.76    0.77
   8   2   9    1.37    0.59
   8   2   9    0.32    0.53
   7  -3  -9   31.35    1.63
   7  -3  -9   31.90    2.43
  -7   3   9   31.00    1.44
  -7   3   9   30.49    1.40
  -7   3   9   29.49    1.76
   6  -3  -9    2.51    0.72
   6  -3  -9    2.30    0.65
   6  -3  -9    3.02    0.81
   6  -3  -9    1.35    0.88
  -6   3   9    1.77    0.65
  -6   3   9    2.52    0.62
  -6   3   9    1.50    0.66
  -6   3   9    2.01    0.70
   5  -3  -9   10.50    1.08
   5  -3  -9    9.62    0.98
   5  -3  -9   11.59    1.45
   5  -3  -9   11.14    1.23
   5  -3  -9   11.58    1.14
  -5   3   9   10.62    1.00
  -5   3   9    9.24    0.96
  -5   3   9    8.52    1.04
  -5   3   9   10.17    0.96
   4  -3  -9    1.04    0.58
   4  -3  -9   -0.03    0.45
   4  -3  -9    1.02    0.58
   4  -3  -9    0.64    0.46
  -4   3   9    0.38    0.46
  -4   3   9    0.91    0.51
  -4   3   9    0.32    0.49
  -4   3   9    1.69    0.55
   3  -3  -9   16.03    0.95
   3  -3  -9   18.35    1.05
   3  -3  -9   13.69    1.46
   3  -3  -9   18.00    1.14
  -3   3   9   17.92    1.20
  -3   3   9   17.56    0.98
  -3   3   9   18.30    1.04
  -3   3   9   17.74    0.97
   2  -3  -9  177.79    3.44
   2  -3  -9  180.29    3.45
   2  -3  -9  176.43    3.30
   2  -3  -9  179.09    3.61
   2  -3  -9  183.71    3.68
  -2   3   9  181.10    3.63
  -2   3   9  178.13    3.40
  -2   3   9  176.17    3.40
  -2   3   9  162.83    3.78
  -2   3   9  169.02    2.95
  -2   3   9  181.23    3.43
   1  -3  -9   10.24    0.94
   1  -3  -9    9.17    0.63
   1  -3  -9    9.88    0.76
  -1   3   9   10.31    0.77
  -1   3   9    8.43    0.62
  -1   3   9    9.74    0.71
  -1   3   9    9.70    0.92
   0  -3  -9  138.13    2.93
   0  -3  -9  142.96    2.81
   0  -3  -9  144.58    2.79
   0  -3  -9  139.00    2.91
   0  -3  -9  140.00    2.54
   0   3   9  143.47    2.62
   0   3   9  140.92    2.96
   0   3   9  139.11    2.82
   0   3   9  142.14    2.82
   0   3   9  141.31    2.66
  -1  -3  -9    1.19    0.23
  -1  -3  -9    0.78    0.34
  -1  -3  -9    1.42    0.45
  -1  -3  -9    1.70    0.36
   1   3   9    1.67    0.42
   1   3   9    1.58    0.43
   1   3   9    1.54    0.33
   1   3   9    1.13    0.47
   1   3   9    1.40    0.40
  -2  -3  -9    2.32    0.38
  -2  -3  -9    2.46    0.39
  -2  -3  -9    2.70    0.45
   2   3   9    2.97    0.56
   2   3   9    2.49    0.44
   2   3   9    3.08    0.48
   2   3   9    2.55    0.42
   2   3   9    2.88    0.50
  -3  -3  -9   69.24    1.64
  -3  -3  -9   66.71    1.48
  -3  -3  -9   67.38    1.50
   3   3   9   67.80    1.64
   3   3   9   68.25    1.81
   3   3   9   69.45    1.81
   3   3   9   68.28    1.67
  -4  -3  -9    2.20    0.30
  -4  -3  -9    2.33    0.32
  -4  -3  -9    2.14    0.40
  -4  -3  -9    3.33    0.60
   4   3   9    3.13    0.60
   4   3   9    2.72    0.57
   4   3   9    3.06    0.46
   4   3   9    2.52    0.53
   4   3   9    2.52    0.45
   4   3   9    2.46    0.43
  -5  -3  -9   79.03    2.20
  -5  -3  -9   78.72    1.70
   5   3   9   78.88    1.73
   5   3   9   77.68    1.78
   5   3   9   78.57    2.13
   5   3   9   75.46    1.75
   5   3   9   78.57    2.07
   5   3   9   73.76    2.15
  -6  -3  -9   16.48    0.78
  -6  -3  -9   18.67    1.25
   6   3   9   20.52    1.21
   6   3   9   16.44    0.88
   6   3   9   15.60    0.84
   6   3   9   16.69    0.81
  -7  -3  -9    3.89    0.76
   7   3   9    5.38    0.65
   7   3   9    3.82    0.54
   7   3   9    4.91    0.54
   7   3   9    5.59    0.82
  -8  -3  -9    5.34    0.88
   8   3   9    6.60    0.65
   8   3   9    6.55    0.62
   8   3   9    5.44    0.59
   8   3   9    6.05    0.89
  -9  -3  -9   19.29    1.62
   9   3   9   20.71    1.72
   9   3   9   23.31    1.60
   9   3   9   21.24    1.58
   6  -4  -9    2.92    0.75
   6  -4  -9    3.11    0.78
   6  -4  -9    3.11    0.88
  -6   4   9    1.97    0.67
  -6   4   9    2.81    0.82
  -6   4   9    2.13    0.75
   5  -4  -9    0.40    0.65
   5  -4  -9   -0.73    0.57
   5  -4  -9    0.53    0.66
   5  -4  -9   -0.24    0.54
  -5   4   9    0.93    0.59
  -5   4   9   -0.25    0.54
  -5   4   9   -0.52    0.53
  -5   4   9   -0.44    0.65
   4  -4  -9   62.50    2.23
   4  -4  -9   62.95    1.86
   4  -4  -9   64.23    1.89
   4  -4  -9   64.56    1.94
   4  -4  -9   61.69    2.06
  -4   4   9   63.67    1.79
  -4   4   9   63.51    1.97
  -4   4   9   63.63    1.85
  -4   4   9   62.27    1.79
   3  -4  -9   32.70    1.27
   3  -4  -9   31.81    1.45
   3  -4  -9   31.68    1.32
   3  -4  -9   30.72    1.24
  -3   4   9   29.31    1.24
  -3   4   9   30.56    1.32
  -3   4   9   31.19    1.26
  -3   4   9   31.84    1.52
  -3   4   9   30.83    1.28
   2  -4  -9   41.00    1.52
   2  -4  -9   40.18    1.27
   2  -4  -9   39.23    1.34
   2  -4  -9   42.62    1.39
   2  -4  -9   43.40    2.35
  -2   4   9   40.25    1.39
  -2   4   9   40.78    1.37
  -2   4   9   40.04    1.57
  -2   4   9   40.75    1.37
  -2   4   9   42.84    1.37
   1  -4  -9    5.84    0.60
   1  -4  -9    4.16    0.58
   1  -4  -9    5.65    0.61
   1  -4  -9    6.67    0.75
   1  -4  -9    6.20    0.70
  -1   4   9    4.90    0.58
  -1   4   9    5.74    0.63
  -1   4   9    5.32    0.55
  -1   4   9    5.57    0.54
  -1   4   9    5.61    0.63
  -1   4   9    5.85    0.69
   0  -4  -9    9.80    0.73
   0  -4  -9    9.01    0.90
   0  -4  -9    9.91    0.72
   0  -4  -9    8.04    0.54
   0  -4  -9    6.91    0.82
   0   4   9    9.66    0.90
   0   4   9    7.93    0.64
   0   4   9    8.83    0.75
   0   4   9    9.51    0.98
   0   4   9    8.09    0.75
   0   4   9    7.97    0.84
  -1  -4  -9   47.29    1.31
  -1  -4  -9   46.15    1.44
  -1  -4  -9   48.10    1.49
  -1  -4  -9   46.45    1.04
  -1  -4  -9   45.55    1.30
   1   4   9   47.37    1.36
   1   4   9   47.09    1.49
   1   4   9   47.99    1.32
   1   4   9   45.20    1.36
   1   4   9   46.79    1.12
   1   4   9   46.03    1.45
  -2  -4  -9    5.09    0.57
  -2  -4  -9    4.70    0.60
   2   4   9    5.00    0.67
   2   4   9    4.07    0.51
   2   4   9    5.27    0.70
   2   4   9    5.53    0.63
   2   4   9    5.27    0.59
  -3  -4  -9   72.04    1.58
  -3  -4  -9   72.40    1.77
  -3  -4  -9   72.79    1.57
   3   4   9   72.06    1.71
   3   4   9   74.21    1.87
   3   4   9   71.13    2.38
   3   4   9   73.35    1.82
   3   4   9   69.15    1.78
  -4  -4  -9   21.92    0.97
  -4  -4  -9   20.99    0.71
  -4  -4  -9   21.54    0.71
   4   4   9   21.05    0.88
   4   4   9   21.66    1.09
   4   4   9   21.61    1.13
   4   4   9   21.46    0.93
   4   4   9   21.68    1.01
  -5  -4  -9   14.29    1.06
  -5  -4  -9   14.24    0.84
   5   4   9   13.32    0.81
   5   4   9   14.75    0.91
   5   4   9   12.54    0.98
   5   4   9   14.21    0.78
   5   4   9   14.74    1.12
  -6  -4  -9    0.39    0.41
   6   4   9    0.67    0.52
   6   4   9    0.75    0.42
   6   4   9    0.17    0.57
   6   4   9    0.94    0.44
  -7  -4  -9    2.90    0.67
  -7  -4  -9    3.95    0.52
   7   4   9    4.05    0.76
   7   4   9    3.10    0.47
   7   4   9    3.41    0.49
   7   4   9    3.24    0.51
  -8  -4  -9   26.09    1.56
   8   4   9   29.13    1.08
   8   4   9   27.75    1.07
   8   4   9   26.66    1.04
   8   4   9   30.30    1.57
  -9  -4  -9    6.70    0.99
   9   4   9    7.84    0.82
   9   4   9    6.42    0.83
   9   4   9    4.94    0.96
   9   4   9    6.20    0.84
   5  -5  -9    0.83    0.84
   5  -5  -9    2.56    0.73
   5  -5  -9    1.94    0.75
  -5   5   9    1.75    0.87
  -5   5   9    1.19    0.67
  -5   5   9    0.01    0.70
  -5   5   9    3.80    0.73
   4  -5  -9   53.50    2.14
   4  -5  -9   57.69    2.06
   4  -5  -9   59.38    1.88
   4  -5  -9   54.76    1.86
   4  -5  -9   57.76    1.84
  -4   5   9   57.99    1.91
  -4   5   9   56.84    2.74
  -4   5   9   57.25    1.78
  -4   5   9   55.63    1.93
   3  -5  -9   69.44    2.15
   3  -5  -9   67.09    1.98
   3  -5  -9   67.59    1.90
   3  -5  -9   68.13    1.94
   3  -5  -9   67.46    2.23
  -3   5   9   70.11    1.98
  -3   5   9   69.58    2.18
  -3   5   9   68.58    1.91
  -3   5   9   70.33    2.17
  -3   5   9   67.07    2.00
   2  -5  -9   81.05    1.98
   2  -5  -9   80.33    2.23
   2  -5  -9   79.57    1.61
   2  -5  -9   84.39    2.09
  -2   5   9   82.49    2.29
  -2   5   9   84.80    2.18
  -2   5   9   83.49    2.09
  -2   5   9   83.58    2.11
  -2   5   9   83.32    2.07
   1  -5  -9   13.61    0.66
   1  -5  -9   12.41    0.88
   1  -5  -9   13.84    1.04
   1  -5  -9   12.88    1.00
   1  -5  -9   13.45    0.78
  -1   5   9   12.36    0.91
  -1   5   9   12.94    0.86
  -1   5   9   14.63    1.05
  -1   5   9   13.25    1.09
  -1   5   9   11.88    1.09
  -1   5   9   12.79    0.95
   0  -5  -9    2.87    0.54
   0  -5  -9    2.40    0.38
   0  -5  -9    2.19    0.46
   0  -5  -9    2.46    0.49
   0  -5  -9    2.83    0.44
   0  -5  -9    1.71    0.57
   0   5   9    2.73    0.52
   0   5   9    2.11    0.57
   0   5   9    2.30    0.55
   0   5   9    2.70    0.58
   0   5   9    2.20    0.43
   0   5   9    1.77    0.44
   0   5   9    2.99    0.46
  -1  -5  -9  137.06    2.89
  -1  -5  -9  129.15    2.63
  -1  -5  -9  131.19    2.61
  -1  -5  -9  130.21    2.65
  -1  -5  -9  131.58    2.37
  -1  -5  -9  127.22    2.74
   1   5   9  130.30    2.69
   1   5   9  131.60    2.77
   1   5   9  132.54    2.64
   1   5   9  123.51    3.16
   1   5   9  131.97    2.72
   1   5   9  135.14    2.47
  -2  -5  -9   15.76    0.52
  -2  -5  -9   16.26    0.80
  -2  -5  -9   16.10    0.94
  -2  -5  -9   16.64    1.00
  -2  -5  -9   16.61    0.86
  -2  -5  -9   15.71    0.79
   2   5   9   17.00    0.66
   2   5   9   15.48    1.07
   2   5   9   16.85    1.04
   2   5   9   15.74    0.89
  -3  -5  -9   35.41    1.27
  -3  -5  -9   36.08    1.06
  -3  -5  -9   34.34    1.04
   3   5   9   35.73    1.16
   3   5   9   36.99    1.20
   3   5   9   36.18    1.30
   3   5   9   35.61    1.26
   3   5   9   35.26    1.31
  -4  -5  -9   12.39    0.62
  -4  -5  -9   12.29    0.91
   4   5   9   14.78    0.99
   4   5   9   13.22    0.84
   4   5   9   12.62    0.89
   4   5   9   11.14    0.77
   4   5   9   14.00    0.94
  -5  -5  -9   15.52    0.95
  -5  -5  -9   15.39    1.06
   5   5   9   16.43    1.16
   5   5   9   14.42    0.84
   5   5   9   16.31    1.13
   5   5   9   16.18    0.97
   5   5   9   16.39    0.84
  -6  -5  -9  126.68    2.95
  -6  -5  -9  124.79    2.64
   6   5   9  122.89    2.46
   6   5   9  126.31    2.64
   6   5   9  124.03    2.67
   6   5   9  123.29    2.49
  -7  -5  -9    0.46    0.48
  -7  -5  -9    1.52    0.59
   7   5   9    0.40    0.57
   7   5   9    1.38    0.60
   7   5   9    0.29    0.42
   7   5   9   -0.35    0.38
   7   5   9    0.32    0.46
  -8  -5  -9   29.11    1.32
  -8  -5  -9   28.19    1.53
   8   5   9   27.16    1.06
   8   5   9   32.04    1.59
   8   5   9   29.37    1.24
   8   5   9   28.61    1.05
  -9  -5  -9    0.74    0.64
   9   5   9   -0.07    0.44
   9   5   9   -0.36    0.70
   9   5   9   -0.42    0.54
   9   5   9    0.46    0.50
   9   5   9   -0.10    0.58
   4  -6  -9   42.82    1.70
   4  -6  -9   38.92    1.92
  -4   6   9   42.24    1.68
  -4   6   9   39.90    1.72
  -4   6   9   43.20    1.64
   3  -6  -9   39.37    1.74
   3  -6  -9   40.28    1.56
   3  -6  -9   35.38    1.88
   3  -6  -9   37.82    0.99
   3  -6  -9   40.99    2.08
  -3   6   9   36.57    1.58
  -3   6   9   38.52    1.85
  -3   6   9   40.98    1.82
  -3   6   9   39.61    1.52
   2  -6  -9    0.35    0.50
   2  -6  -9   -0.54    0.67
   2  -6  -9    0.38    0.58
   2  -6  -9   -0.13    0.33
  -2   6   9    0.58    0.51
  -2   6   9   -0.90    0.57
  -2   6   9    1.13    0.68
  -2   6   9    1.14    0.57
   1  -6  -9   13.86    0.75
   1  -6  -9   14.66    0.97
   1  -6  -9   13.55    1.07
  -1   6   9   15.66    1.01
  -1   6   9   14.01    1.17
  -1   6   9   11.42    0.93
  -1   6   9   12.50    1.23
  -1   6   9   14.01    1.12
  -1   6   9   12.58    1.03
   0  -6  -9    3.62    0.59
   0  -6  -9    3.41    0.49
   0  -6  -9    3.72    0.59
   0  -6  -9    3.94    0.55
   0   6   9    3.26    0.55
   0   6   9    3.95    0.53
   0   6   9    3.83    0.66
   0   6   9    3.24    0.66
   0   6   9    3.72    0.67
  -1  -6  -9  117.00    2.45
  -1  -6  -9  111.62    2.37
  -1  -6  -9  111.42    2.43
  -1  -6  -9  114.65    2.68
  -1  -6  -9  112.20    2.52
   1   6   9  114.16    2.65
   1   6   9  109.68    2.28
   1   6   9  113.25    2.53
   1   6   9  111.40    2.71
   1   6   9  112.73    2.49
   1   6   9  113.60    2.53
  -2  -6  -9   25.40    0.80
  -2  -6  -9   25.83    1.26
  -2  -6  -9   26.99    1.09
  -2  -6  -9   26.60    1.02
  -2  -6  -9   26.00    1.11
  -2  -6  -9   28.10    1.05
   2   6   9   28.84    1.30
   2   6   9   29.78    0.92
   2   6   9   25.14    1.32
   2   6   9   27.28    1.15
   2   6   9   26.93    1.13
   2   6   9   27.54    1.08
  -3  -6  -9    4.16    0.61
  -3  -6  -9    3.27    0.59
  -3  -6  -9    4.15    0.49
  -3  -6  -9    4.72    0.60
   3   6   9    3.32    0.62
   3   6   9    3.47    0.52
   3   6   9    3.56    0.61
   3   6   9    3.95    0.55
   3   6   9    3.96    0.39
   3   6   9    4.63    0.58
  -4  -6  -9    9.67    0.93
  -4  -6  -9    8.64    0.63
  -4  -6  -9    9.17    0.63
  -4  -6  -9    8.92    0.90
   4   6   9    8.37    1.09
   4   6   9    9.04    0.81
   4   6   9    8.70    0.82
   4   6   9    8.83    0.99
  -5  -6  -9    6.72    0.74
  -5  -6  -9    8.00    0.94
  -5  -6  -9    6.55    0.76
  -5  -6  -9    6.68    0.52
   5   6   9    5.64    0.78
   5   6   9    6.71    0.76
   5   6   9    6.27    0.80
   5   6   9    8.24    0.75
  -6  -6  -9   89.59    2.19
  -6  -6  -9   84.80    2.26
   6   6   9   86.01    1.94
   6   6   9   84.57    2.39
   6   6   9   87.57    2.04
  -7  -6  -9    0.03    0.55
  -7  -6  -9    0.81    0.57
   7   6   9   -0.30    0.61
   7   6   9   -0.38    0.43
   7   6   9   -0.02    0.38
  -8  -6  -9   25.91    1.46
  -8  -6  -9   29.43    1.44
   8   6   9   27.27    1.51
   8   6   9   27.57    1.06
   8   6   9   28.26    1.34
   8   6   9   26.63    1.08
   8   6   9   26.84    1.28
  -9  -6  -9   -0.15    0.62
   9   6   9    1.47    0.73
   9   6   9    2.09    0.57
   9   6   9    0.86    0.49
   9   6   9    1.47    0.76
   9   6   9    0.95    0.51
   9   6   9    0.46    0.59
   3  -7  -9   12.88    1.26
   3  -7  -9   12.74    0.80
   3  -7  -9   12.75    1.48
  -3   7   9   11.57    1.54
  -3   7   9   13.02    1.22
  -3   7   9   12.54    1.23
   2  -7  -9    8.99    1.23
   2  -7  -9    8.19    1.02
   2  -7  -9    7.95    0.74
   2  -7  -9    4.53    1.06
  -2   7   9    6.36    0.78
  -2   7   9    8.21    0.99
  -2   7   9    5.71    0.83
  -2   7   9    7.87    0.88
   1  -7  -9   13.47    0.85
   1  -7  -9   12.06    1.42
   1  -7  -9   13.96    1.18
   1  -7  -9   13.86    1.08
  -1   7   9   12.73    1.37
  -1   7   9   14.18    1.04
  -1   7   9   13.00    1.06
  -1   7   9   14.36    1.35
   0  -7  -9    8.51    0.79
   0  -7  -9    7.52    1.01
   0  -7  -9    9.45    0.92
   0   7   9    9.60    0.89
   0   7   9   10.55    1.21
   0   7   9   10.65    0.95
   0   7   9   10.10    1.14
   0   7   9   10.71    1.11
  -1  -7  -9   39.30    1.37
  -1  -7  -9   37.96    1.36
  -1  -7  -9   37.75    1.20
  -1  -7  -9   37.15    1.29
   1   7   9   38.04    1.59
   1   7   9   37.70    1.43
   1   7   9   36.57    1.63
   1   7   9   36.83    1.26
   1   7   9   37.69    1.38
  -2  -7  -9   14.45    0.93
  -2  -7  -9   15.41    0.92
  -2  -7  -9   14.24    0.90
  -2  -7  -9   15.47    0.77
  -2  -7  -9   14.34    1.13
  -2  -7  -9   13.14    0.92
   2   7   9   12.31    0.90
   2   7   9   15.50    0.84
   2   7   9   13.84    1.25
   2   7   9   14.01    1.17
   2   7   9   14.35    1.03
   2   7   9   13.55    0.98
  -3  -7  -9    1.99    0.61
  -3  -7  -9    2.34    0.50
  -3  -7  -9    1.82    0.52
  -3  -7  -9    2.59    0.36
  -3  -7  -9    1.99    0.47
  -3  -7  -9    2.03    0.45
   3   7   9    2.59    0.58
   3   7   9    1.51    0.62
   3   7   9    2.60    0.61
   3   7   9    2.36    0.41
   3   7   9    2.55    0.50
   3   7   9    1.99    0.49
  -4  -7  -9   43.44    1.53
  -4  -7  -9   43.07    1.22
  -4  -7  -9   41.08    1.56
  -4  -7  -9   41.97    1.21
   4   7   9   43.63    1.60
   4   7   9   42.08    1.42
   4   7   9   43.03    1.36
   4   7   9   42.38    1.03
   4   7   9   42.13    1.29
   4   7   9   41.72    1.56
  -5  -7  -9   12.83    1.14
  -5  -7  -9   11.56    1.07
  -5  -7  -9   12.71    0.69
  -5  -7  -9   12.16    0.67
  -5  -7  -9   13.22    1.03
   5   7   9   11.24    1.08
   5   7   9   12.35    0.88
   5   7   9   13.30    0.95
   5   7   9   13.62    0.87
   5   7   9   12.42    1.20
  -6  -7  -9  119.67    2.75
  -6  -7  -9  124.82    2.84
  -6  -7  -9  120.24    2.93
   6   7   9  122.65    2.82
   6   7   9  121.20    2.47
   6   7   9  119.30    2.54
   6   7   9  124.94    2.58
  -7  -7  -9    9.12    1.08
  -7  -7  -9   10.37    1.17
  -7  -7  -9   11.24    1.19
   7   7   9   10.59    1.12
   7   7   9   10.06    0.88
   7   7   9    9.39    0.91
  -8  -7  -9   10.52    1.25
  -8  -7  -9    8.33    1.13
   8   7   9    8.41    0.96
   8   7   9    9.29    0.84
   8   7   9   10.00    1.12
  -9  -7  -9    4.07    0.90
  -9  -7  -9    4.64    0.80
   9   7   9    4.14    0.81
   9   7   9    4.97    0.64
   9   7   9    4.59    0.62
   9   7   9    5.04    0.81
   9   7   9    3.96    0.59
   9   7   9    5.64    0.93
  10   7   9    2.00    0.86
  10   7   9   -0.26    0.72
  10   7   9   -0.01    0.59
   2  -8  -9    1.26    0.56
   2  -8  -9    1.29    0.72
   2  -8  -9    2.69    0.89
  -2   8   9    1.14    0.73
  -2   8   9    1.45    0.65
   1  -8  -9   56.04    1.90
   1  -8  -9   57.06    1.64
   1  -8  -9   58.18    2.03
  -1   8   9   58.73    2.12
  -1   8   9   57.51    1.91
  -1   8   9   61.32    2.27
  -1   8   9   57.99    1.92
   0  -8  -9   41.29    1.71
   0  -8  -9   41.28    1.61
   0  -8  -9   44.94    1.94
   0  -8  -9   43.82    1.61
   0  -8  -9   42.72    1.67
   0  -8  -9   45.38    1.58
   0   8   9   43.38    1.63
   0   8   9   44.58    1.58
   0   8   9   43.21    1.76
   0   8   9   43.53    1.92
   0   8   9   42.01    1.86
  -1  -8  -9    4.27    0.66
  -1  -8  -9    4.16    0.67
  -1  -8  -9    4.18    0.63
  -1  -8  -9    5.43    0.69
   1   8   9    4.04    0.61
   1   8   9    3.99    0.77
   1   8   9    4.42    0.69
   1   8   9    4.47    0.74
  -2  -8  -9    0.04    0.47
  -2  -8  -9   -0.26    0.47
  -2  -8  -9    0.15    0.50
  -2  -8  -9   -0.49    0.49
  -2  -8  -9    0.15    0.56
   2   8   9    0.41    0.57
   2   8   9    0.37    0.46
   2   8   9   -0.28    0.57
   2   8   9   -0.04    0.44
   2   8   9    0.30    0.50
  -3  -8  -9   20.09    1.18
  -3  -8  -9   20.46    1.02
  -3  -8  -9   21.53    0.94
  -3  -8  -9   20.38    1.05
  -3  -8  -9   18.80    1.04
   3   8   9   17.27    0.93
   3   8   9   22.05    1.23
   3   8   9   19.42    1.35
   3   8   9   20.47    1.09
  -4  -8  -9   49.57    1.70
  -4  -8  -9   50.13    1.42
  -4  -8  -9   49.06    1.22
  -4  -8  -9   48.40    2.66
  -4  -8  -9   47.16    1.41
   4   8   9   48.36    1.27
   4   8   9   49.59    1.54
   4   8   9   47.17    1.79
   4   8   9   51.23    1.79
   4   8   9   50.39    1.66
   4   8   9   47.60    1.39
  -5  -8  -9   53.45    1.65
  -5  -8  -9   56.21    1.85
  -5  -8  -9   52.42    2.21
  -5  -8  -9   56.26    1.41
   5   8   9   54.63    1.99
   5   8   9   55.99    1.62
   5   8   9   53.76    1.99
   5   8   9   54.23    1.27
   5   8   9   52.76    1.87
   5   8   9   57.42    1.74
   5   8   9   53.55    1.42
  -6  -8  -9   23.39    2.04
  -6  -8  -9   21.82    1.38
  -6  -8  -9   22.15    1.21
   6   8   9   22.70    1.38
   6   8   9   22.73    1.21
   6   8   9   22.07    1.09
   6   8   9   22.97    0.95
  -7  -8  -9    6.86    0.92
  -7  -8  -9    8.68    1.04
   7   8   9    7.92    1.11
   7   8   9    7.15    0.76
   7   8   9    9.21    1.17
   7   8   9    9.74    1.03
   7   8   9    7.95    0.84
  -8  -8  -9    0.06    0.77
  -8  -8  -9    0.55    0.59
   8   8   9    0.30    0.46
   8   8   9    0.62    0.59
   8   8   9   -0.10    0.65
   8   8   9    0.26    0.51
  -9  -8  -9   13.10    1.25
   9   8   9   17.18    1.14
   9   8   9   13.31    0.84
   9   8   9   14.80    1.44
   9   8   9   13.87    0.98
   1  -9  -9   19.64    2.29
   1  -9  -9   16.24    1.60
   1  -9  -9   18.38    1.30
  -1   9   9   16.36    1.33
  -1   9   9   18.86    1.83
  -1   9   9   21.33    1.48
   0  -9  -9   29.88    1.41
   0  -9  -9   28.35    1.58
   0  -9  -9   28.57    1.48
   0   9   9   28.46    1.86
   0   9   9   30.02    1.75
   0   9   9   29.31    1.45
   0   9   9   29.98    1.53
  -1  -9  -9    6.38    0.81
  -1  -9  -9    6.93    0.83
  -1  -9  -9    6.93    0.83
  -1  -9  -9    5.98    0.80
   1   9   9    6.79    0.84
   1   9   9    5.35    0.92
   1   9   9    5.68    0.76
   1   9   9    5.42    0.84
  -2  -9  -9   -0.78    0.62
  -2  -9  -9    0.00    0.61
  -2  -9  -9   -0.31    0.55
  -2  -9  -9    0.11    0.54
  -2  -9  -9    1.25    0.62
   2   9   9   -0.09    0.58
   2   9   9    0.28    0.52
   2   9   9    1.34    0.58
   2   9   9    2.08    0.84
   2   9   9    0.02    0.64
  -3  -9  -9   49.82    1.54
  -3  -9  -9   51.58    1.76
  -3  -9  -9   48.28    1.62
  -3  -9  -9   51.54    1.55
   3   9   9   49.11    1.79
   3   9   9   51.35    1.55
   3   9   9   52.50    1.55
   3   9   9   52.27    2.01
   3   9   9   50.81    1.68
  -4  -9  -9   34.86    1.31
  -4  -9  -9   33.77    1.22
  -4  -9  -9   34.02    1.35
  -4  -9  -9   35.40    1.57
  -4  -9  -9   32.93    1.21
  -4  -9  -9   37.89    2.01
   4   9   9   32.22    1.17
   4   9   9   33.19    1.19
   4   9   9   33.68    1.39
   4   9   9   27.67    1.69
   4   9   9   35.01    1.71
   4   9   9   33.94    1.52
  -5  -9  -9   54.44    1.93
  -5  -9  -9   52.76    2.05
  -5  -9  -9   53.78    1.55
  -5  -9  -9   54.91    1.39
  -5  -9  -9   54.36    1.51
  -5  -9  -9   54.79    1.66
   5   9   9   53.58    1.38
   5   9   9   57.05    2.03
   5   9   9   52.82    1.68
   5   9   9   51.76    1.40
   5   9   9   53.75    1.83
   5   9   9   55.08    2.07
  -6  -9  -9    0.69    0.35
  -6  -9  -9    0.85    0.68
  -6  -9  -9    0.67    0.41
  -6  -9  -9    2.17    0.80
  -6  -9  -9    1.18    0.46
  -6  -9  -9    0.33    0.53
   6   9   9    0.55    0.67
   6   9   9    1.21    0.45
   6   9   9    1.28    0.80
   6   9   9    1.23    0.40
   6   9   9    0.16    0.68
   6   9   9    0.42    0.52
   6   9   9    1.47    0.86
  -7  -9  -9    2.39    0.66
  -7  -9  -9    2.76    0.80
  -7  -9  -9    1.58    0.85
   7   9   9    1.47    0.72
   7   9   9    1.30    0.73
   7   9   9    2.50    0.37
   7   9   9    1.04    0.87
   7   9   9    2.07    0.59
  -8  -9  -9    1.06    0.64
  -8  -9  -9   -0.54    0.81
  -8  -9  -9    0.59    0.98
   8   9   9    1.61    0.74
   8   9   9    1.03    0.56
   8   9   9   -0.28    0.73
  -9  -9  -9   36.15    1.65
  -9  -9  -9   35.29    2.67
   9   9   9   33.51    1.56
   9   9   9   30.54    1.81
   9   9   9   32.81    1.37
  -1 -10  -9    5.16    0.90
  -1 -10  -9    3.99    0.88
  -1 -10  -9    2.86    0.85
   1  10   9    4.00    0.78
   1  10   9    4.13    0.98
   1  10   9    4.00    0.96
   1  10   9    2.23    0.98
  -2 -10  -9   16.76    1.38
  -2 -10  -9   14.06    1.30
  -2 -10  -9   14.42    1.24
  -2 -10  -9   12.54    1.38
   2  10   9   16.03    1.66
   2  10   9   15.62    1.40
   2  10   9   13.90    1.26
   2  10   9   13.55    1.17
  -3 -10  -9   51.51    1.88
  -3 -10  -9   55.34    1.70
  -3 -10  -9   56.49    1.98
  -3 -10  -9   57.26    1.86
  -3 -10  -9   54.95    1.84
   3  10   9   56.24    2.27
   3  10   9   57.24    1.73
   3  10   9   55.01    1.75
   3  10   9   53.93    1.90
  -4 -10  -9    3.47    0.71
  -4 -10  -9    2.78    0.56
  -4 -10  -9    2.39    0.79
  -4 -10  -9    2.34    0.69
   4  10   9    2.10    0.81
   4  10   9    3.49    0.58
   4  10   9    2.36    0.59
   4  10   9    2.28    0.70
  -5 -10  -9   17.32    1.13
  -5 -10  -9   15.16    1.38
  -5 -10  -9   18.38    1.14
  -5 -10  -9   17.27    1.20
  -5 -10  -9   20.26    1.85
   5  10   9   14.60    1.53
   5  10   9   16.66    1.03
   5  10   9   16.12    1.40
   5  10   9   16.58    0.88
   5  10   9   16.99    1.20
  -6 -10  -9   -0.32    0.57
  -6 -10  -9    0.49    0.49
  -6 -10  -9    1.18    0.59
  -6 -10  -9   -0.04    0.77
   6  10   9    0.30    0.64
   6  10   9   -0.62    0.71
   6  10   9    0.13    0.76
   6  10   9   -0.27    0.49
  -7 -10  -9   13.96    1.19
  -7 -10  -9   14.13    1.51
   7  10   9   12.77    1.53
   7  10   9   16.46    1.20
   7  10   9   15.36    1.44
  -8 -10  -9   16.03    1.70
  -8 -10  -9   16.82    1.29
   8  10   9   16.31    1.25
   8  10   9   16.18    1.46
   8  10   9   11.80    1.60
  -4 -11  -9    3.26    0.78
  -4 -11  -9    2.83    0.91
  -4 -11  -9    0.73    0.83
   4  11   9    2.01    0.69
  -5 -11  -9   -0.26    0.76
  -5 -11  -9   -0.27    0.66
  -5 -11  -9    1.40    0.89
  -5 -11  -9   -0.35    0.89
   5  11   9    2.25    0.76
   5  11   9    0.46    0.61
  -6 -11  -9    0.78    0.63
  -6 -11  -9    1.29    0.75
  -6 -11  -9    1.64    0.93
   6  11   9    0.22    0.59
   6  11   9    0.53    0.73
   5   5 -10    9.93    1.12
   5   5 -10    7.49    1.07
  -5  -5  10    7.88    0.79
  -5  -5  10    7.47    0.96
   4   5 -10   11.14    1.41
   4   5 -10   11.97    1.37
   4   5 -10   12.46    1.35
  -4  -5  10    9.77    1.04
  -4  -5  10   11.21    1.17
   3   5 -10    2.39    0.68
   3   5 -10    3.69    0.87
   3   5 -10    3.19    0.80
  -3  -5  10    1.86    0.80
  -3  -5  10    3.82    0.79
   2   5 -10   -0.48    0.73
   2   5 -10   -0.18    0.61
   2   5 -10   -0.06    0.70
  -2  -5  10   -0.51    0.71
  -2  -5  10    0.10    0.80
   1   5 -10   11.17    1.28
   1   5 -10   11.63    1.42
   1   5 -10   12.41    1.30
   1   5 -10   10.41    1.08
  -1  -5  10   12.68    1.47
   6   4 -10   10.49    1.07
   6   4 -10   10.38    1.24
  -6  -4  10   11.44    1.63
  -6  -4  10   13.07    1.29
   5   4 -10   18.08    1.33
   5   4 -10   17.10    1.48
  -5  -4  10   16.85    1.30
  -5  -4  10   15.57    0.96
  -5  -4  10   17.53    1.64
   4   4 -10    0.18    0.60
   4   4 -10    0.21    0.69
  -4  -4  10   -0.48    1.25
  -4  -4  10    0.91    0.53
  -4  -4  10    0.02    0.85
  -4  -4  10    1.04    0.70
   3   4 -10   15.80    1.31
   3   4 -10   17.70    1.25
   3   4 -10   15.13    1.21
  -3  -4  10   15.12    1.14
  -3  -4  10   13.34    1.58
  -3  -4  10   14.36    1.23
  -3  -4  10   18.23    1.44
   2   4 -10    4.30    0.77
   2   4 -10    3.91    0.73
   2   4 -10    5.13    0.69
  -2  -4  10    4.85    0.88
  -2  -4  10    3.89    0.77
  -2  -4  10    5.53    0.77
  -2  -4  10    4.87    0.94
   1   4 -10   42.85    1.69
   1   4 -10   42.23    1.41
   1   4 -10   41.43    1.63
  -1  -4  10   44.24    1.82
  -1  -4  10   46.85    1.77
  -1  -4  10   45.73    1.77
   0   4 -10    7.43    0.85
   0   4 -10    6.90    0.82
   0   4 -10    6.45    0.91
   0   4 -10    6.68    0.85
   0   4 -10    7.09    0.75
   0  -4  10    7.26    0.93
   0  -4  10    6.07    0.93
   0  -4  10    6.01    0.90
  -1   4 -10    0.56    0.64
  -1   4 -10    1.74    0.70
   1  -4  10    1.42    0.80
   1  -4  10    1.10    0.82
   1  -4  10    0.02    0.82
   7   3 -10   53.33    1.97
   7   3 -10   53.75    2.14
   7   3 -10   50.57    2.11
  -7  -3  10   51.63    1.80
   6   3 -10    0.75    0.64
   6   3 -10   -0.34    0.68
  -6  -3  10   -0.44    0.80
  -6  -3  10    0.31    0.63
  -6  -3  10   -1.01    0.69
   5   3 -10    2.93    0.73
   5   3 -10    3.30    0.70
  -5  -3  10    3.56    0.79
  -5  -3  10    2.75    0.47
  -5  -3  10    1.83    0.65
  -5  -3  10    1.26    0.73
  -5  -3  10    0.68    0.75
   4   3 -10   15.88    1.15
   4   3 -10   18.24    1.28
  -4  -3  10   18.89    0.95
  -4  -3  10   18.14    1.43
  -4  -3  10   17.72    1.25
  -4  -3  10   19.28    1.20
   3   3 -10   95.70    2.44
   3   3 -10   94.80    2.41
  -3  -3  10   93.45    2.20
  -3  -3  10   95.03    2.38
  -3  -3  10   94.80    2.45
  -3  -3  10   90.90    2.44
   2   3 -10   48.62    1.75
   2   3 -10   49.10    1.67
   2   3 -10   51.30    1.71
  -2  -3  10   49.29    1.60
  -2  -3  10   50.59    1.71
  -2  -3  10   47.97    1.78
   1   3 -10   46.42    1.64
   1   3 -10   48.01    1.62
  -1  -3  10   48.62    1.68
  -1  -3  10   44.78    1.68
  -1  -3  10   47.78    1.66
   0   3 -10    8.96    1.00
   0   3 -10   10.25    1.16
   0   3 -10    8.57    0.80
   0   3 -10   10.28    0.96
   0  -3  10    9.14    1.03
   0  -3  10    8.12    0.95
   0  -3  10    8.78    0.96
   0  -3  10   10.46    1.08
   0  -3  10    9.80    0.92
  -1   3 -10    2.48    0.67
  -1   3 -10    2.18    0.46
  -1   3 -10    2.80    0.60
  -1   3 -10    1.65    0.70
  -1   3 -10    1.51    0.38
   1  -3  10    0.99    0.69
   1  -3  10    1.29    0.76
   1  -3  10    0.36    0.69
  -2   3 -10   55.04    1.72
  -2   3 -10   52.07    2.01
   2  -3  10   53.05    1.86
   2  -3  10   53.90    2.11
   2  -3  10   53.44    1.91
  -3   3 -10   16.63    1.33
  -3   3 -10   19.02    1.23
  -3   3 -10   14.69    1.31
  -3   3 -10   14.36    1.43
   3  -3  10   17.51    1.71
   3  -3  10   15.73    1.39
   3  -3  10   15.15    1.47
   7   2 -10   30.26    1.54
   7   2 -10   28.75    1.65
   7   2 -10   29.51    1.76
  -7  -2  10   27.07    1.37
  -7  -2  10   27.12    1.64
   6   2 -10    0.17    0.60
   6   2 -10    0.29    0.72
  -6  -2  10   -0.29    0.59
  -6  -2  10    0.28    0.39
  -6  -2  10    0.47    0.79
  -6  -2  10   -0.42    0.60
   5   2 -10   15.57    1.26
   5   2 -10   18.22    1.18
   5   2 -10   13.69    1.24
  -5  -2  10   15.44    0.74
  -5  -2  10   15.75    1.37
  -5  -2  10   16.15    1.13
   4   2 -10    8.38    1.04
   4   2 -10    7.07    0.78
  -4  -2  10    7.50    0.70
  -4  -2  10    8.55    0.87
  -4  -2  10    7.81    0.96
   3   2 -10  162.48    3.40
   3   2 -10  162.40    3.36
  -3  -2  10  160.76    3.13
  -3  -2  10  161.81    3.37
  -3  -2  10  163.31    3.38
   2   2 -10   84.49    2.15
   2   2 -10   86.60    2.19
  -2  -2  10   81.18    2.17
  -2  -2  10   86.25    2.86
  -2  -2  10   88.41    2.17
  -2  -2  10   81.96    2.04
   1   2 -10   22.54    1.14
   1   2 -10   21.94    1.13
   1   2 -10   22.96    1.18
  -1  -2  10   22.16    1.15
  -1  -2  10   22.88    1.20
  -1  -2  10   20.94    1.14
   0   2 -10    7.93    0.93
   0   2 -10    8.00    0.99
   0   2 -10    7.56    0.86
   0   2 -10    6.66    0.85
   0  -2  10    7.63    0.74
   0  -2  10    7.16    0.76
   0  -2  10    8.76    0.99
   0  -2  10    6.77    0.80
  -1   2 -10    0.17    0.34
  -1   2 -10    0.80    0.49
  -1   2 -10    0.06    0.43
  -1   2 -10    0.24    0.48
  -1   2 -10    1.31    0.60
   1  -2  10    0.75    0.59
   1  -2  10   -0.28    0.60
   1  -2  10   -0.77    0.95
   1  -2  10    0.29    0.55
   1  -2  10    1.10    0.66
  -2   2 -10   58.27    1.66
  -2   2 -10   61.14    1.77
  -2   2 -10   54.49    2.02
   2  -2  10   58.35    1.82
   2  -2  10   59.72    1.91
   2  -2  10   58.20    2.03
   2  -2  10   58.51    1.76
  -3   2 -10   25.44    1.27
  -3   2 -10   23.29    1.51
  -3   2 -10   25.82    1.33
   3  -2  10   25.59    1.56
   3  -2  10   25.50    1.36
   3  -2  10   25.13    1.45
   3  -2  10   24.16    1.37
  -4   2 -10    9.48    1.07
  -4   2 -10    8.60    0.92
  -4   2 -10    8.43    1.06
  -4   2 -10    8.16    0.88
   4  -2  10    7.36    1.11
   4  -2  10    7.88    0.92
   4  -2  10    8.68    0.95
   7   1 -10   20.47    1.67
   7   1 -10   18.16    1.34
   7   1 -10   17.31    1.43
  -7  -1  10   21.39    1.34
  -7  -1  10   20.70    1.24
  -7  -1  10   19.02    1.42
   6   1 -10    0.58    0.69
   6   1 -10    1.03    0.60
   6   1 -10   -0.14    0.72
   6   1 -10    0.10    0.59
  -6  -1  10    0.18    0.57
  -6  -1  10    0.38    0.75
  -6  -1  10    0.48    0.76
  -6  -1  10    0.22    0.59
   5   1 -10   44.62    1.59
   5   1 -10   45.26    1.70
   5   1 -10   44.03    1.64
   5   1 -10   43.78    1.79
  -5  -1  10   44.24    1.84
  -5  -1  10   44.06    1.54
  -5  -1  10   42.70    1.73
  -5  -1  10   41.97    1.11
  -5  -1  10   41.60    1.69
   4   1 -10   53.30    1.88
   4   1 -10   51.73    1.78
   4   1 -10   53.76    1.70
  -4  -1  10   53.43    1.72
  -4  -1  10   52.51    1.66
  -4  -1  10   52.02    1.34
  -4  -1  10   51.29    1.77
  -4  -1  10   51.52    1.76
   3   1 -10   14.96    0.98
   3   1 -10   14.55    1.01
  -3  -1  10   16.03    1.05
  -3  -1  10   15.98    1.12
  -3  -1  10   14.72    0.83
  -3  -1  10   13.01    1.00
  -3  -1  10   13.16    1.23
   2   1 -10   22.80    1.13
   2   1 -10   22.81    1.27
  -2  -1  10   22.81    1.15
  -2  -1  10   22.78    1.01
  -2  -1  10   23.72    1.10
  -2  -1  10   22.38    1.36
   1   1 -10    1.02    0.44
   1   1 -10    0.55    0.45
   1   1 -10    1.61    0.53
   1   1 -10    0.83    0.51
  -1  -1  10    0.57    0.48
  -1  -1  10    1.28    0.61
  -1  -1  10    0.65    0.45
  -1  -1  10    1.04    0.48
   0   1 -10   -0.11    0.41
   0   1 -10   -0.37    0.45
   0   1 -10    0.63    0.47
   0   1 -10    0.14    0.40
   0  -1  10    0.21    0.43
   0  -1  10    0.28    0.48
   0  -1  10   -0.28    0.44
   0  -1  10    0.51    0.54
  -1   1 -10   27.93    1.21
  -1   1 -10   26.94    1.06
  -1   1 -10   29.83    1.14
  -1   1 -10   27.19    1.06
   1  -1  10   27.81    1.10
   1  -1  10   27.33    1.30
   1  -1  10   26.91    1.22
   1  -1  10   27.07    1.30
  -2   1 -10   19.69    0.79
  -2   1 -10   20.74    1.34
  -2   1 -10   22.09    1.09
   2  -1  10   19.74    1.24
   2  -1  10   20.42    1.22
   2  -1  10   20.45    1.12
   2  -1  10   19.86    1.00
  -3   1 -10   11.28    0.95
  -3   1 -10    7.16    0.90
  -3   1 -10    9.62    0.80
   3  -1  10   11.34    1.14
   3  -1  10   11.21    1.19
   3  -1  10   10.79    1.02
   3  -1  10    9.11    0.92
  -4   1 -10   -0.16    0.52
  -4   1 -10    0.09    0.55
  -4   1 -10    1.16    0.65
  -4   1 -10    0.50    0.43
   4  -1  10   -0.31    0.55
   4  -1  10   -0.25    0.67
   4  -1  10    0.79    0.61
   4  -1  10    0.79    0.68
  -5   1 -10    0.69    0.67
  -5   1 -10    0.67    0.63
   5  -1  10   -0.30    0.63
   5  -1  10    0.79    0.65
   5  -1  10   -0.90    0.76
   7   0 -10    1.43    0.73
   7   0 -10    0.45    0.67
  -7   0  10    0.24    0.72
  -7   0  10   -0.86    0.59
  -7   0  10   -0.62    0.58
   6   0 -10    0.36    0.55
   6   0 -10    0.97    0.72
   6   0 -10    1.94    0.73
   6   0 -10    1.03    0.60
  -6   0  10    1.66    0.65
  -6   0  10    1.33    0.68
  -6   0  10    1.56    0.59
  -6   0  10    0.86    0.89
   5   0 -10   45.88    1.62
   5   0 -10   48.06    1.79
   5   0 -10   48.71    1.86
   5   0 -10   48.85    1.67
  -5   0  10   47.48    1.21
  -5   0  10   47.12    1.27
  -5   0  10   46.22    1.58
  -5   0  10   46.07    1.74
  -5   0  10   47.70    1.55
   4   0 -10  110.02    2.77
   4   0 -10  108.54    2.60
   4   0 -10  108.10    2.52
   4   0 -10  111.40    2.58
   4   0 -10  108.68    2.84
  -4   0  10  109.16    2.19
  -4   0  10  108.78    2.49
  -4   0  10   94.05    3.64
  -4   0  10  107.84    1.98
  -4   0  10  108.26    2.62
  -4   0  10  109.64    2.48
   3   0 -10    0.45    0.52
   3   0 -10   -0.15    0.39
   3   0 -10    0.06    0.56
   3   0 -10    0.13    0.43
  -3   0  10    0.78    0.52
  -3   0  10    0.24    0.46
  -3   0  10   -0.50    0.46
  -3   0  10   -0.68    0.44
  -3   0  10    1.01    0.54
  -3   0  10    0.55    0.37
   2   0 -10   33.72    1.42
   2   0 -10   33.00    1.17
  -2   0  10   33.64    1.50
  -2   0  10   32.70    1.15
  -2   0  10   36.99    1.52
  -2   0  10   34.80    1.23
  -2   0  10   33.54    1.28
   1   0 -10    7.47    0.77
   1   0 -10    7.07    0.93
   1   0 -10    7.94    0.86
   1   0 -10    7.99    0.70
  -1   0  10    7.58    0.80
  -1   0  10    6.14    0.80
  -1   0  10    8.10    0.77
  -1   0  10    6.39    0.81
   0   0 -10    7.11    0.68
   0   0 -10    7.50    0.76
   0   0 -10    7.23    0.83
   0   0 -10    7.25    0.83
   0   0  10    6.34    0.79
   0   0  10    9.26    0.70
   0   0  10    6.11    0.68
  -1   0 -10  100.69    2.09
  -1   0 -10  102.44    2.27
  -1   0 -10   99.91    2.18
   1   0  10   99.38    2.31
   1   0  10   98.44    2.39
   1   0  10  101.49    2.07
   1   0  10  104.53    2.38
  -2   0 -10    1.25    0.38
  -2   0 -10    0.59    0.38
  -2   0 -10    1.24    0.47
  -2   0 -10    0.97    0.38
   2   0  10    1.04    0.46
   2   0  10    0.69    0.52
   2   0  10    0.23    0.50
   2   0  10    0.71    0.39
  -3   0 -10    2.29    0.33
  -3   0 -10    2.19    0.51
  -3   0 -10    2.51    0.68
  -3   0 -10    2.37    0.44
   3   0  10    1.30    0.69
   3   0  10    2.51    0.62
   3   0  10    2.87    0.55
   3   0  10    2.16    0.66
   3   0  10    2.05    0.45
  -4   0 -10   -0.11    0.44
  -4   0 -10    0.25    0.58
  -4   0 -10    0.52    0.48
  -4   0 -10    0.56    0.37
   4   0  10    0.26    0.62
   4   0  10    1.41    0.65
   4   0  10    0.59    0.51
   4   0  10    0.70    0.44
  -5   0 -10   33.97    1.27
  -5   0 -10   32.78    1.70
   5   0  10   30.13    1.66
   5   0  10   32.85    1.38
   5   0  10   32.41    1.50
  -6   0 -10   27.95    1.70
  -6   0 -10   28.34    1.30
   6   0  10   24.70    1.36
   6   0  10   28.55    1.26
   6   0  10   22.70    1.71
   6   0  10   29.73    1.55
   7  -1 -10   -0.19    0.72
   7  -1 -10    1.34    0.71
   7  -1 -10    0.10    0.81
  -7   1  10    1.20    0.65
  -7   1  10   -0.04    0.70
  -7   1  10    1.67    0.72
   6  -1 -10   19.44    1.50
   6  -1 -10   19.06    1.33
   6  -1 -10   19.28    1.25
   6  -1 -10   19.72    1.53
  -6   1  10   19.53    1.19
  -6   1  10   19.69    1.23
  -6   1  10   18.97    0.94
  -6   1  10   18.47    1.33
   5  -1 -10    6.24    0.79
   5  -1 -10    5.10    0.76
   5  -1 -10    7.14    0.87
   5  -1 -10    4.78    0.78
  -5   1  10    7.77    0.98
  -5   1  10    5.07    0.88
  -5   1  10    4.35    0.67
  -5   1  10    5.55    0.59
  -5   1  10    4.08    0.72
   4  -1 -10   50.74    1.73
   4  -1 -10   48.40    1.81
   4  -1 -10   47.72    1.61
   4  -1 -10   50.28    1.60
  -4   1  10   50.15    1.41
  -4   1  10   50.02    1.69
  -4   1  10   51.83    1.60
  -4   1  10   48.53    1.57
   3  -1 -10    1.52    0.54
   3  -1 -10    1.22    0.49
   3  -1 -10    1.33    0.61
   3  -1 -10    0.73    0.71
   3  -1 -10    1.40    0.62
  -3   1  10    2.10    0.34
  -3   1  10    1.87    0.54
  -3   1  10    1.38    0.52
  -3   1  10    1.29    0.50
   2  -1 -10    6.15    0.71
   2  -1 -10    6.60    0.75
   2  -1 -10    7.31    0.97
   2  -1 -10    6.44    1.08
   2  -1 -10    8.46    0.82
  -2   1  10    5.75    0.77
  -2   1  10    7.69    0.85
  -2   1  10    7.77    0.66
  -2   1  10    6.91    0.74
  -2   1  10    5.17    1.02
  -2   1  10    7.44    0.83
   1  -1 -10   43.63    1.30
   1  -1 -10   48.18    1.57
   1  -1 -10   47.93    1.46
   1  -1 -10   47.56    1.48
  -1   1  10   48.26    1.50
  -1   1  10   48.60    1.43
  -1   1  10   46.02    1.31
  -1   1  10   46.13    1.66
  -1   1  10   47.16    1.32
  -1   1  10   46.89    1.46
   0  -1 -10    4.68    0.60
   0  -1 -10    3.96    0.63
   0  -1 -10    4.10    0.55
   0  -1 -10    5.55    0.57
   0   1  10    4.58    0.62
   0   1  10    4.01    0.54
   0   1  10    4.78    0.60
   0   1  10    3.59    0.55
   0   1  10    3.37    0.63
  -1  -1 -10   87.81    1.99
  -1  -1 -10   84.12    1.75
  -1  -1 -10   82.79    1.94
  -1  -1 -10   86.64    2.00
   1   1  10   84.01    1.72
   1   1  10   85.58    2.13
   1   1  10   88.99    2.09
   1   1  10   81.99    2.24
   1   1  10   84.40    2.03
  -2  -1 -10    3.60    0.49
  -2  -1 -10    2.87    0.37
  -2  -1 -10    3.76    0.49
  -2  -1 -10    4.22    0.55
   2   1  10    3.27    0.38
   2   1  10    3.13    0.69
   2   1  10    3.27    0.58
   2   1  10    1.97    0.52
   2   1  10    3.82    0.55
  -3  -1 -10   24.62    1.08
  -3  -1 -10   25.18    0.93
  -3  -1 -10   25.52    0.90
   3   1  10   24.63    1.15
   3   1  10   24.77    1.29
   3   1  10   24.64    1.44
   3   1  10   24.88    0.81
   3   1  10   24.35    1.09
  -4  -1 -10   20.26    1.33
  -4  -1 -10   21.35    0.90
  -4  -1 -10   20.76    0.86
  -4  -1 -10   22.73    0.80
   4   1  10   22.34    0.81
   4   1  10   22.92    1.34
   4   1  10   22.91    1.08
   4   1  10   21.92    1.14
  -5  -1 -10   53.25    2.00
  -5  -1 -10   54.11    1.37
   5   1  10   51.63    1.95
   5   1  10   52.87    1.59
   5   1  10   53.55    1.30
   5   1  10   53.66    1.68
  -6  -1 -10   84.04    2.62
   6   1  10   83.86    2.19
   6   1  10   87.61    2.59
   6   1  10   83.56    2.11
   6   1  10   82.03    1.82
  -7  -1 -10    2.87    0.91
   7   1  10    3.60    0.85
   7   1  10    1.06    0.85
   7   1  10    2.34    0.69
   7  -2 -10   19.77    1.57
   7  -2 -10   23.45    1.52
  -7   2  10   21.96    1.59
  -7   2  10   26.08    1.62
  -7   2  10   25.12    1.37
   6  -2 -10   28.89    1.68
   6  -2 -10   26.61    1.43
   6  -2 -10   30.05    1.52
  -6   2  10   29.15    1.25
  -6   2  10   30.41    1.37
  -6   2  10   26.72    1.66
  -6   2  10   29.15    1.57
   5  -2 -10   35.36    1.50
   5  -2 -10   36.04    1.70
   5  -2 -10   35.25    1.57
   5  -2 -10   34.97    1.45
  -5   2  10   36.13    1.43
  -5   2  10   35.82    1.43
  -5   2  10   37.77    1.30
  -5   2  10   35.47    1.57
   4  -2 -10    1.41    0.63
   4  -2 -10    1.60    0.53
   4  -2 -10    0.95    0.50
   4  -2 -10    0.30    0.59
  -4   2  10    1.11    0.49
  -4   2  10    2.11    0.59
  -4   2  10    1.96    0.60
  -4   2  10    1.89    0.55
   3  -2 -10   20.61    1.26
   3  -2 -10   20.71    1.02
   3  -2 -10   18.58    1.31
   3  -2 -10   20.44    1.08
  -3   2  10   20.33    1.11
  -3   2  10   21.50    1.07
  -3   2  10   20.53    1.09
  -3   2  10   19.73    1.02
   2  -2 -10   11.95    1.10
   2  -2 -10   12.15    1.06
   2  -2 -10   11.69    0.88
   2  -2 -10   11.88    0.78
  -2   2  10   13.42    0.90
  -2   2  10   12.38    0.91
  -2   2  10   12.06    0.86
  -2   2  10   10.70    1.10
  -2   2  10   12.74    0.63
   1  -2 -10  141.11    3.14
   1  -2 -10  147.08    2.98
   1  -2 -10  142.70    2.96
   1  -2 -10  141.21    2.74
   1  -2 -10  146.18    3.09
  -1   2  10  144.54    2.97
  -1   2  10  146.42    2.72
  -1   2  10  147.57    3.18
  -1   2  10  147.57    2.99
  -1   2  10  142.28    2.82
   0  -2 -10    0.01    0.27
   0  -2 -10    0.68    0.47
   0  -2 -10    0.26    0.41
   0   2  10    0.98    0.40
   0   2  10    0.37    0.41
   0   2  10    0.10    0.53
   0   2  10    1.06    0.49
   0   2  10    1.47    0.43
  -1  -2 -10    3.95    0.52
  -1  -2 -10    3.91    0.63
  -1  -2 -10    4.01    0.49
  -1  -2 -10    4.08    0.49
   1   2  10    3.85    0.54
   1   2  10    2.84    0.55
   1   2  10    3.42    0.58
   1   2  10    3.35    0.34
   1   2  10    4.16    0.65
  -2  -2 -10    4.83    0.53
  -2  -2 -10    5.11    0.44
  -2  -2 -10    5.11    0.56
  -2  -2 -10    6.12    0.63
   2   2  10    6.03    0.70
   2   2  10    6.23    0.85
   2   2  10    5.40    0.66
   2   2  10    5.80    0.45
   2   2  10    4.75    0.70
   2   2  10    5.61    0.61
  -3  -2 -10   63.24    1.51
  -3  -2 -10   64.02    1.59
  -3  -2 -10   66.88    1.55
   3   2  10   69.40    2.00
   3   2  10   65.87    1.93
   3   2  10   69.15    1.76
   3   2  10   67.32    1.93
   3   2  10   65.36    1.68
  -4  -2 -10   84.43    1.73
  -4  -2 -10   83.62    2.41
  -4  -2 -10   86.33    1.74
  -4  -2 -10   88.09    1.82
   4   2  10   89.00    2.37
   4   2  10   88.45    2.33
   4   2  10   86.05    2.02
   4   2  10   88.97    2.06
   4   2  10   86.09    2.38
  -5  -2 -10   13.11    0.65
  -5  -2 -10   11.45    1.17
   5   2  10   13.61    1.20
   5   2  10   11.66    0.95
   5   2  10   12.00    0.90
  -6  -2 -10   62.92    2.22
   6   2  10   65.85    1.72
   6   2  10   66.45    2.18
   6   2  10   63.83    1.76
  -7  -2 -10    0.50    0.64
   7   2  10    0.17    0.54
   7   2  10   -1.16    0.57
   7   2  10   -0.17    0.39
   7   2  10   -0.83    0.69
   6  -3 -10   12.71    1.34
   6  -3 -10   12.96    1.23
   6  -3 -10   10.88    1.17
  -6   3  10   11.88    1.28
  -6   3  10   14.54    1.24
  -6   3  10   11.50    1.33
   5  -3 -10   30.43    1.68
   5  -3 -10   35.11    1.48
   5  -3 -10   31.94    1.56
   5  -3 -10   32.97    1.49
  -5   3  10   29.76    1.54
  -5   3  10   32.30    1.39
  -5   3  10   31.80    1.38
   4  -3 -10   28.16    1.28
   4  -3 -10   27.83    1.47
   4  -3 -10   29.07    1.31
   4  -3 -10   28.06    1.40
  -4   3  10   25.56    1.35
  -4   3  10   28.63    1.34
  -4   3  10   29.85    1.27
  -4   3  10   27.01    1.28
   3  -3 -10   91.15    2.16
   3  -3 -10   86.92    2.21
   3  -3 -10   87.46    2.40
  -3   3  10   90.17    2.14
  -3   3  10   89.20    2.20
  -3   3  10   87.13    2.22
  -3   3  10   92.95    2.22
   2  -3 -10    6.07    0.70
   2  -3 -10    3.87    0.57
   2  -3 -10    3.19    0.66
   2  -3 -10    3.90    0.66
  -2   3  10    5.69    0.67
  -2   3  10    5.06    0.61
  -2   3  10    4.68    0.60
  -2   3  10    5.07    0.47
  -2   3  10    3.95    0.69
  -2   3  10    4.37    0.61
   1  -3 -10  163.68    3.26
   1  -3 -10  160.58    3.24
   1  -3 -10  158.87    3.00
   1  -3 -10  167.56    3.44
   1  -3 -10  166.76    3.46
  -1   3  10  157.82    3.24
  -1   3  10  166.47    3.48
  -1   3  10  163.37    3.11
  -1   3  10  163.88    2.95
  -1   3  10  159.92    3.25
   0  -3 -10   22.64    1.02
   0  -3 -10   24.41    1.17
   0  -3 -10   21.76    0.77
   0  -3 -10   22.04    1.16
   0  -3 -10   20.66    1.00
   0   3  10   21.41    0.89
   0   3  10   20.70    0.99
   0   3  10   22.46    1.08
   0   3  10   22.62    0.91
   0   3  10   23.09    1.22
  -1  -3 -10    6.75    0.47
  -1  -3 -10    6.12    0.71
  -1  -3 -10    6.63    0.82
  -1  -3 -10    6.14    0.67
   1   3  10    7.34    0.81
   1   3  10    7.16    0.73
   1   3  10    6.49    0.75
   1   3  10    7.79    0.96
  -2  -3 -10   15.00    0.82
   2   3  10   17.04    1.13
   2   3  10   17.59    0.98
   2   3  10   16.90    0.95
   2   3  10   18.32    0.91
  -3  -3 -10    2.95    0.43
  -3  -3 -10    2.36    0.39
  -3  -3 -10    2.80    0.50
   3   3  10    2.67    0.63
   3   3  10    2.68    0.51
   3   3  10    3.07    0.62
   3   3  10    2.86    0.50
   3   3  10    2.27    0.55
   3   3  10    3.31    0.52
  -4  -3 -10  159.45    2.85
  -4  -3 -10  158.67    3.04
  -4  -3 -10  163.66    3.57
  -4  -3 -10  160.41    2.85
   4   3  10  161.07    3.44
   4   3  10  164.96    3.16
   4   3  10  169.54    3.44
   4   3  10  147.88    3.54
   4   3  10  164.63    3.47
   4   3  10  165.28    3.08
  -5  -3 -10    0.43    0.58
  -5  -3 -10    1.78    0.43
   5   3  10    0.88    0.41
   5   3  10    1.90    0.63
   5   3  10    1.24    0.66
   5   3  10    0.79    0.55
   5   3  10    0.73    0.48
   5   3  10    1.58    0.71
  -6  -3 -10    9.63    1.16
  -6  -3 -10    9.29    0.72
   6   3  10    9.23    0.81
   6   3  10   10.80    1.16
   6   3  10    9.74    0.75
   6   3  10    9.39    0.93
  -7  -3 -10    1.51    0.65
   7   3  10    0.25    0.68
   7   3  10    0.37    0.54
   7   3  10    0.34    0.48
  -8  -3 -10    1.88    1.18
   8   3  10    0.96    0.57
   8   3  10    0.07    0.80
   8   3  10    0.69    0.61
   6  -4 -10    4.46    0.87
  -6   4  10    4.61    0.91
  -6   4  10    3.11    0.98
  -6   4  10    4.40    0.78
   5  -4 -10    5.69    0.87
   5  -4 -10    6.19    0.82
   5  -4 -10    5.68    0.97
  -5   4  10    5.83    0.83
  -5   4  10    7.20    0.89
  -5   4  10    6.83    0.81
   4  -4 -10   25.90    1.33
   4  -4 -10   28.18    1.36
   4  -4 -10   27.50    1.41
   4  -4 -10   27.68    1.77
   4  -4 -10   29.05    1.57
  -4   4  10   29.57    1.40
  -4   4  10   28.46    1.33
  -4   4  10   30.10    1.40
  -4   4  10   29.15    1.68
   3  -4 -10  125.09    3.04
   3  -4 -10  128.58    2.76
   3  -4 -10  126.39    2.83
  -3   4  10  126.24    2.80
  -3   4  10  124.60    3.09
  -3   4  10  125.49    2.79
  -3   4  10  127.71    2.88
   2  -4 -10    2.58    0.53
   2  -4 -10    2.45    0.49
   2  -4 -10    2.96    0.59
  -2   4  10    2.62    0.58
  -2   4  10    1.67    0.66
  -2   4  10    2.44    0.55
  -2   4  10    2.96    0.57
  -2   4  10    2.45    0.59
   1  -4 -10  163.28    3.41
   1  -4 -10  159.83    3.23
   1  -4 -10  161.44    3.01
   1  -4 -10  162.04    3.24
   1  -4 -10  157.20    3.43
  -1   4  10  160.69    3.11
  -1   4  10  159.38    3.24
  -1   4  10  156.99    2.88
  -1   4  10  155.80    3.25
  -1   4  10  162.46    3.44
   0  -4 -10   11.48    0.64
   0  -4 -10   10.54    0.83
   0  -4 -10   10.81    0.81
   0  -4 -10   10.41    0.98
   0  -4 -10   11.56    1.05
   0   4  10   11.23    0.72
   0   4  10   11.55    1.06
   0   4  10   11.91    0.74
   0   4  10   12.00    0.85
   0   4  10   11.95    0.90
  -1  -4 -10    0.63    0.25
  -1  -4 -10    1.78    0.54
  -1  -4 -10    1.11    0.43
  -1  -4 -10    0.85    0.38
   1   4  10    1.08    0.43
   1   4  10    0.86    0.51
   1   4  10    1.77    0.48
   1   4  10    1.25    0.36
   1   4  10    1.58    0.46
  -2  -4 -10   56.27    1.48
  -2  -4 -10   57.48    1.48
  -2  -4 -10   57.25    1.67
   2   4  10   55.64    1.57
   2   4  10   58.69    1.64
   2   4  10   58.35    1.61
   2   4  10   59.48    1.76
   2   4  10   55.37    1.67
  -3  -4 -10    1.89    0.48
  -3  -4 -10    1.19    0.46
   3   4  10    1.50    0.50
   3   4  10    1.32    0.43
   3   4  10    1.82    0.55
   3   4  10    2.62    0.58
   3   4  10    2.03    0.49
  -4  -4 -10   80.74    1.71
  -4  -4 -10   81.45    2.26
  -4  -4 -10   82.86    1.72
   4   4  10   88.15    2.26
   4   4  10   86.72    2.04
   4   4  10   86.31    2.18
   4   4  10   85.69    2.00
  -5  -4 -10    2.13    0.50
  -5  -4 -10    2.19    0.62
   5   4  10    1.87    0.74
   5   4  10    2.96    0.66
   5   4  10    1.83    0.50
   5   4  10    2.89    0.53
   5   4  10    2.23    0.72
   5   4  10    2.76    0.64
  -6  -4 -10   -0.32    0.43
  -6  -4 -10    0.29    0.55
   6   4  10    0.47    0.59
   6   4  10    0.04    0.67
   6   4  10    0.00    0.44
   6   4  10   -0.45    0.45
   6   4  10    0.24    0.67
  -7  -4 -10    4.24    0.81
  -7  -4 -10    4.03    0.55
   7   4  10    4.37    0.84
   7   4  10    2.81    0.74
   7   4  10    4.27    0.55
   7   4  10    4.75    0.60
  -8  -4 -10    0.60    0.67
   8   4  10    0.64    0.49
   8   4  10   -0.33    0.56
   8   4  10    0.05    0.70
   8   4  10   -0.69    0.53
   5  -5 -10    2.50    0.86
   5  -5 -10    4.25    0.88
   5  -5 -10    3.31    1.11
  -5   5  10    3.13    0.98
  -5   5  10    3.47    0.77
  -5   5  10    3.50    0.78
   4  -5 -10    1.90    0.66
   4  -5 -10    1.36    0.76
   4  -5 -10   -0.49    0.60
  -4   5  10    0.09    0.67
  -4   5  10    1.26    0.63
  -4   5  10    1.29    0.72
  -4   5  10    0.55    0.59
   3  -5 -10   73.68    2.02
   3  -5 -10   72.69    2.06
   3  -5 -10   71.04    2.26
   3  -5 -10   70.33    2.08
  -3   5  10   70.56    2.09
  -3   5  10   70.28    2.32
  -3   5  10   71.87    2.02
  -3   5  10   72.69    2.11
   2  -5 -10   37.72    1.42
   2  -5 -10   35.90    1.57
   2  -5 -10   36.46    1.32
  -2   5  10   36.59    1.50
  -2   5  10   35.82    1.41
  -2   5  10   35.76    1.67
  -2   5  10   34.30    1.38
   1  -5 -10   29.22    1.22
   1  -5 -10   29.73    1.38
   1  -5 -10   28.05    1.07
  -1   5  10   28.38    1.33
  -1   5  10   27.20    1.16
  -1   5  10   28.43    1.42
  -1   5  10   29.43    1.23
   0  -5 -10    4.19    0.64
   0  -5 -10    2.20    0.66
   0  -5 -10    3.65    0.55
   0  -5 -10    4.01    0.57
   0  -5 -10    3.66    0.43
   0   5  10    5.05    0.74
   0   5  10    3.31    0.51
   0   5  10    4.20    0.68
   0   5  10    3.67    0.65
   0   5  10    4.26    0.52
   0   5  10    3.69    0.57
  -1  -5 -10    1.77    0.45
  -1  -5 -10    1.37    0.56
  -1  -5 -10    1.57    0.31
  -1  -5 -10    0.87    0.59
  -1  -5 -10    1.19    0.45
   1   5  10    0.19    0.45
   1   5  10    2.22    0.56
   1   5  10    1.43    0.44
   1   5  10    1.22    0.54
   1   5  10    1.61    0.54
   1   5  10    1.01    0.39
  -2  -5 -10   51.76    1.44
  -2  -5 -10   50.89    1.60
  -2  -5 -10   54.04    1.69
  -2  -5 -10   52.74    1.45
   2   5  10   52.50    1.57
   2   5  10   50.29    1.62
   2   5  10   52.59    1.52
   2   5  10   53.47    1.57
   2   5  10   53.85    1.19
   2   5  10   52.41    1.69
  -3  -5 -10   17.32    0.82
  -3  -5 -10   16.63    0.82
  -3  -5 -10   17.05    1.06
   3   5  10   16.80    0.97
   3   5  10   17.01    0.92
   3   5  10   17.66    1.06
   3   5  10   15.59    1.05
   3   5  10   16.67    1.28
  -4  -5 -10   13.19    0.71
  -4  -5 -10   12.75    0.99
   4   5  10   14.72    1.05
   4   5  10   14.22    1.02
   4   5  10   14.33    0.87
   4   5  10   13.73    1.10
   4   5  10   13.80    0.93
  -5  -5 -10    2.00    0.63
  -5  -5 -10    2.43    0.55
   5   5  10    2.33    0.52
   5   5  10    2.04    0.78
   5   5  10    2.28    0.65
   5   5  10    2.01    0.60
   5   5  10    2.02    0.56
  -6  -5 -10    1.35    0.57
  -6  -5 -10    0.42    0.51
   6   5  10   -0.60    0.48
   6   5  10    1.39    0.60
   6   5  10    0.00    0.46
   6   5  10    0.69    0.58
  -7  -5 -10   80.53    2.43
  -7  -5 -10   82.53    2.07
   7   5  10   81.65    2.41
   7   5  10   84.25    2.28
   7   5  10   82.13    2.05
   7   5  10   82.00    1.94
   7   5  10   74.45    2.23
  -8  -5 -10    5.91    0.90
  -8  -5 -10    5.94    0.70
   8   5  10    5.45    0.82
   8   5  10    6.47    0.95
   8   5  10    6.21    0.91
   8   5  10    5.40    0.67
   8   5  10    6.14    0.98
  -9  -5 -10    4.09    1.08
   9   5  10    7.01    1.05
   9   5  10    5.03    0.68
   4  -6 -10   24.57    1.53
   4  -6 -10   23.68    1.50
   4  -6 -10   21.95    1.73
  -4   6  10   21.61    1.43
  -4   6  10   21.76    1.45
   3  -6 -10   19.93    1.28
   3  -6 -10   19.60    1.51
   3  -6 -10   18.69    1.29
  -3   6  10   18.13    1.28
  -3   6  10   18.86    1.59
  -3   6  10   17.00    1.25
   2  -6 -10    0.25    0.77
   2  -6 -10    1.51    0.56
   2  -6 -10    2.18    0.71
   2  -6 -10    2.05    0.57
   2  -6 -10    2.45    0.41
  -2   6  10    3.07    0.73
  -2   6  10    1.90    0.66
  -2   6  10    1.38    0.75
  -2   6  10    2.81    0.60
  -2   6  10    1.08    0.55
   1  -6 -10   54.72    1.81
   1  -6 -10   58.33    1.44
   1  -6 -10   56.44    1.88
   1  -6 -10   58.66    1.78
  -1   6  10   57.17    1.88
  -1   6  10   57.22    1.98
  -1   6  10   59.80    1.79
  -1   6  10   60.20    1.73
  -1   6  10   58.90    2.05
   0  -6 -10   23.67    0.97
   0  -6 -10   22.49    1.26
   0  -6 -10   23.12    0.95
   0  -6 -10   22.01    1.13
   0  -6 -10   23.81    1.15
   0   6  10   23.70    1.31
   0   6  10   23.16    1.40
   0   6  10   21.30    1.03
   0   6  10   22.37    1.39
   0   6  10   25.11    1.18
  -1  -6 -10   62.16    1.96
  -1  -6 -10   60.70    1.70
  -1  -6 -10   61.82    1.82
  -1  -6 -10   61.68    1.62
  -1  -6 -10   62.06    1.43
  -1  -6 -10   60.58    1.69
   1   6  10   60.39    1.52
   1   6  10   59.88    1.78
   1   6  10   63.52    1.86
   1   6  10   58.05    1.92
   1   6  10   63.24    1.99
   1   6  10   59.11    1.74
   1   6  10   62.10    1.93
  -2  -6 -10   -0.12    0.27
  -2  -6 -10    0.26    0.25
  -2  -6 -10   -0.28    0.43
  -2  -6 -10   -0.65    0.42
  -2  -6 -10   -0.14    0.52
  -2  -6 -10   -0.33    0.42
   2   6  10    0.85    0.51
   2   6  10    0.74    0.37
   2   6  10    0.01    0.43
   2   6  10    0.91    0.53
   2   6  10    0.03    0.54
  -3  -6 -10   16.32    0.86
  -3  -6 -10   18.05    1.00
  -3  -6 -10   16.68    1.14
  -3  -6 -10   17.38    0.89
   3   6  10   16.23    0.95
   3   6  10   17.27    1.08
   3   6  10   16.36    1.12
   3   6  10   17.63    1.09
   3   6  10   16.97    1.16
  -4  -6 -10   -0.33    0.50
  -4  -6 -10   -0.15    0.33
  -4  -6 -10   -0.52    0.42
   4   6  10   -0.47    0.46
   4   6  10   -0.71    0.38
   4   6  10   -0.14    0.48
   4   6  10   -0.16    0.52
   4   6  10   -0.19    0.57
  -5  -6 -10   41.27    1.56
  -5  -6 -10   38.56    1.00
  -5  -6 -10   38.41    1.59
  -5  -6 -10   39.61    1.03
   5   6  10   40.11    1.32
   5   6  10   41.20    1.38
   5   6  10   40.83    1.42
   5   6  10   40.31    1.52
   5   6  10   38.46    1.62
  -6  -6 -10    3.70    0.71
  -6  -6 -10    3.97    0.71
   6   6  10    3.93    0.64
   6   6  10    4.92    0.60
   6   6  10    4.56    0.63
   6   6  10    5.08    0.72
  -7  -6 -10   49.62    1.85
  -7  -6 -10   50.04    1.73
   7   6  10   47.73    1.52
   7   6  10   52.09    1.70
   7   6  10   47.84    2.25
   7   6  10   52.05    1.68
   7   6  10   49.54    1.52
  -8  -6 -10    0.15    0.60
  -8  -6 -10   -0.44    0.70
   8   6  10   -0.83    0.66
   8   6  10    0.52    0.58
   8   6  10    0.39    0.55
   8   6  10    0.47    0.86
   8   6  10   -0.10    0.69
  -9  -6 -10    0.01    0.66
   9   6  10   -0.77    0.88
   9   6  10    0.40    0.81
   9   6  10   -0.59    0.63
   3  -7 -10    0.66    0.87
   3  -7 -10    3.52    0.82
  -3   7  10    2.91    0.79
  -3   7  10    1.82    0.67
   2  -7 -10   12.31    0.81
   2  -7 -10   14.04    1.39
   2  -7 -10   14.15    1.19
  -2   7  10   10.38    1.39
  -2   7  10   12.82    1.13
  -2   7  10   13.28    1.22
  -2   7  10   12.40    1.40
   1  -7 -10    2.82    0.69
   1  -7 -10    0.66    0.89
   1  -7 -10    3.15    0.55
   1  -7 -10    2.94    0.69
  -1   7  10    2.76    0.84
  -1   7  10    3.29    0.64
  -1   7  10    1.50    0.73
  -1   7  10    4.06    0.71
  -1   7  10    2.04    0.70
   0  -7 -10   30.72    1.35
   0  -7 -10   31.18    1.17
   0  -7 -10   30.92    1.46
   0   7  10   31.09    1.39
   0   7  10   31.72    1.57
   0   7  10   32.16    1.67
   0   7  10   30.33    1.28
  -1  -7 -10  105.04    2.37
  -1  -7 -10  103.98    2.45
  -1  -7 -10  105.88    2.70
  -1  -7 -10  105.31    2.54
   1   7  10  105.42    2.77
   1   7  10  104.74    2.31
   1   7  10  106.11    2.52
   1   7  10  108.97    2.60
  -2  -7 -10    8.97    0.70
  -2  -7 -10    9.28    1.19
  -2  -7 -10   10.99    0.88
  -2  -7 -10    9.67    0.88
   2   7  10    9.69    1.10
   2   7  10    9.71    1.17
   2   7  10    9.59    0.91
   2   7  10   10.38    1.06
   2   7  10   10.84    1.04
   2   7  10   11.41    0.80
  -3  -7 -10    2.97    0.56
  -3  -7 -10    2.01    0.58
  -3  -7 -10    2.62    0.36
  -3  -7 -10    3.16    0.58
  -3  -7 -10    2.61    0.67
  -3  -7 -10    2.75    0.62
  -3  -7 -10    2.22    0.30
   3   7  10    1.39    0.60
   3   7  10    2.61    0.68
   3   7  10    2.36    0.42
   3   7  10    2.31    0.63
   3   7  10    2.60    0.56
   3   7  10    3.03    0.60
  -4  -7 -10    0.79    0.40
  -4  -7 -10    0.51    0.56
  -4  -7 -10    0.13    0.43
  -4  -7 -10    0.64    0.56
   4   7  10   -0.59    0.44
   4   7  10    0.80    0.56
   4   7  10    1.10    0.53
   4   7  10    0.12    0.61
   4   7  10   -0.40    0.55
  -5  -7 -10  202.04    3.53
  -5  -7 -10  199.49    3.54
  -5  -7 -10  198.87    4.07
  -5  -7 -10  209.00    4.19
  -5  -7 -10  208.93    4.14
   5   7  10  202.45    3.91
   5   7  10  202.41    3.87
   5   7  10  203.27    4.12
   5   7  10  205.57    4.22
  -6  -7 -10   30.67    1.50
  -6  -7 -10   32.65    1.55
  -6  -7 -10   31.04    1.47
   6   7  10   32.01    1.35
   6   7  10   34.31    1.52
   6   7  10   27.70    1.64
   6   7  10   32.09    1.26
  -7  -7 -10   19.45    1.32
  -7  -7 -10   22.88    1.45
   7   7  10   20.53    1.05
   7   7  10   21.15    1.17
   7   7  10   21.30    1.36
   7   7  10   19.18    1.32
   7   7  10   22.54    1.64
  -8  -7 -10    1.04    0.65
  -8  -7 -10    0.05    0.72
   8   7  10    0.45    0.66
   8   7  10    0.77    0.55
   8   7  10    0.70    0.66
   8   7  10    0.79    0.62
  -9  -7 -10    2.09    0.85
  -9  -7 -10    1.13    0.72
   9   7  10    0.97    0.81
   9   7  10   -0.28    0.85
   9   7  10   -0.37    0.71
   9   7  10    0.36    0.75
   9   7  10    0.81    0.59
   2  -8 -10   33.44    1.85
   2  -8 -10   30.98    1.23
  -2   8  10   33.08    1.70
  -2   8  10   27.85    1.54
   1  -8 -10   14.84    1.03
   1  -8 -10   16.89    1.31
   1  -8 -10   16.61    1.46
  -1   8  10   15.81    1.21
  -1   8  10   16.05    1.33
  -1   8  10   16.38    1.59
  -1   8  10   13.21    1.62
   0  -8 -10   24.01    1.32
   0  -8 -10   22.51    1.34
   0  -8 -10   23.26    1.41
   0   8  10   22.10    1.34
   0   8  10   27.13    2.15
   0   8  10   22.26    1.65
   0   8  10   23.12    1.59
   0   8  10   22.08    1.23
  -1  -8 -10   84.67    2.06
  -1  -8 -10   86.11    2.14
  -1  -8 -10   86.84    2.25
  -1  -8 -10   85.50    2.29
  -1  -8 -10   77.29    2.20
   1   8  10   88.80    2.30
   1   8  10   83.60    2.09
   1   8  10   84.33    2.52
   1   8  10   85.43    2.34
   1   8  10   85.55    2.59
  -2  -8 -10    4.47    0.72
  -2  -8 -10    3.72    0.66
  -2  -8 -10    2.74    0.62
  -2  -8 -10    3.11    0.55
   2   8  10    3.24    0.54
   2   8  10    3.43    0.71
   2   8  10    3.31    0.72
   2   8  10    1.29    0.77
   2   8  10    2.40    0.75
   2   8  10    3.24    0.67
  -3  -8 -10   32.58    1.31
  -3  -8 -10   29.63    1.05
  -3  -8 -10   32.25    1.29
  -3  -8 -10   31.26    1.28
  -3  -8 -10   34.24    1.43
   3   8  10   32.28    1.36
   3   8  10   31.92    1.11
   3   8  10   33.34    1.66
   3   8  10   33.99    1.38
   3   8  10   32.40    1.48
  -4  -8 -10   -0.49    0.43
  -4  -8 -10   -0.56    0.51
  -4  -8 -10    0.05    0.58
   4   8  10    0.01    0.61
   4   8  10    0.68    0.71
   4   8  10   -0.21    0.57
   4   8  10    0.25    0.40
   4   8  10    0.40    0.63
   4   8  10   -0.52    0.50
  -5  -8 -10  128.52    2.90
  -5  -8 -10  134.86    2.58
  -5  -8 -10  129.35    3.08
  -5  -8 -10  129.68    2.55
   5   8  10  128.85    2.81
   5   8  10  128.92    2.90
   5   8  10  127.37    2.65
   5   8  10  128.87    3.11
  -6  -8 -10   58.93    1.86
  -6  -8 -10   60.29    2.04
   6   8  10   54.74    2.11
   6   8  10   57.42    1.60
   6   8  10   59.38    2.03
   6   8  10   58.21    1.71
   6   8  10   57.76    1.83
  -7  -8 -10    1.15    0.62
  -7  -8 -10    1.26    0.75
   7   8  10    1.53    0.70
   7   8  10    0.97    0.57
   7   8  10    0.66    0.68
   7   8  10    1.08    0.54
  -8  -8 -10    0.87    0.63
  -8  -8 -10    1.95    1.06
   8   8  10   -0.04    0.67
   8   8  10    0.58    0.74
   8   8  10    0.56    0.58
   8   8  10   -0.36    0.55
  -9  -8 -10    0.68    0.72
  -9  -8 -10   -0.38    0.90
   9   8  10    0.35    0.79
   9   8  10   -0.66    0.64
   9   8  10    1.56    0.83
   0  -9 -10    3.74    0.88
   0  -9 -10    4.75    0.78
   0  -9 -10    4.31    0.84
   0   9  10    4.42    0.87
   0   9  10    2.16    0.90
   0   9  10    4.14    0.98
   0   9  10    3.82    0.73
  -1  -9 -10   35.23    1.52
  -1  -9 -10   37.30    1.60
  -1  -9 -10   36.06    1.56
  -1  -9 -10   34.86    1.62
   1   9  10   33.43    1.75
   1   9  10   35.53    1.99
   1   9  10   39.45    1.52
   1   9  10   33.84    1.63
  -2  -9 -10    0.37    0.66
  -2  -9 -10    0.81    0.65
  -2  -9 -10    1.91    0.66
  -2  -9 -10    1.88    0.65
  -2  -9 -10    1.31    0.65
   2   9  10    0.01    0.69
   2   9  10    0.52    0.62
   2   9  10    0.62    0.54
   2   9  10    0.80    0.74
  -3  -9 -10   22.72    1.24
  -3  -9 -10   24.33    1.38
  -3  -9 -10   21.01    1.46
  -3  -9 -10   17.83    1.73
   3   9  10   22.74    1.29
   3   9  10   22.94    1.28
   3   9  10   25.51    1.55
   3   9  10   23.14    1.62
   3   9  10   21.94    1.12
  -4  -9 -10   22.21    1.40
  -4  -9 -10   21.79    1.20
  -4  -9 -10   21.27    0.99
  -4  -9 -10   21.87    1.16
   4   9  10   19.50    1.38
   4   9  10   22.20    1.02
   4   9  10   21.65    1.15
   4   9  10   19.86    1.55
   4   9  10   20.62    1.24
  -5  -9 -10   27.43    1.22
  -5  -9 -10   23.95    1.12
  -5  -9 -10   25.28    1.35
  -5  -9 -10   26.87    1.85
  -5  -9 -10   24.91    0.86
  -5  -9 -10   25.55    1.49
   5   9  10   25.40    1.49
   5   9  10   27.99    1.61
   5   9  10   24.72    1.14
   5   9  10   25.04    1.31
   5   9  10   25.83    1.03
  -6  -9 -10   25.24    1.97
  -6  -9 -10   24.53    1.07
  -6  -9 -10   26.19    0.99
  -6  -9 -10   26.69    1.38
  -6  -9 -10   25.74    1.58
   6   9  10   27.18    1.32
   6   9  10   26.36    1.08
   6   9  10   25.86    1.63
   6   9  10   27.84    1.51
  -7  -9 -10    7.16    0.85
  -7  -9 -10    8.01    1.09
   7   9  10    9.75    1.07
   7   9  10    8.47    1.07
   7   9  10    7.40    0.83
   7   9  10    8.24    0.96
  -8  -9 -10    0.78    0.69
  -8  -9 -10    0.28    0.84
   8   9  10    0.83    0.83
   8   9  10    0.32    0.81
   8   9  10    0.45    0.65
  -2 -10 -10   39.52    1.74
  -2 -10 -10   37.28    1.69
  -2 -10 -10   37.42    1.70
  -2 -10 -10   36.78    1.69
   2  10  10   38.71    1.82
   2  10  10   39.71    1.59
   2  10  10   39.03    2.20
   2  10  10   39.75    1.81
  -3 -10 -10    4.82    0.92
  -3 -10 -10    4.80    0.79
  -3 -10 -10    4.42    0.75
  -3 -10 -10    3.97    0.79
   3  10  10    3.90    0.76
   3  10  10    4.87    1.00
   3  10  10    3.04    0.80
   3  10  10    3.50    0.70
  -4 -10 -10   32.15    1.44
  -4 -10 -10   28.74    1.34
  -4 -10 -10   29.60    1.36
  -4 -10 -10   28.67    1.66
   4  10  10   30.12    1.29
   4  10  10   29.65    1.49
   4  10  10   29.23    1.86
   4  10  10   30.68    1.36
  -5 -10 -10    2.53    0.74
  -5 -10 -10    3.01    0.61
  -5 -10 -10    3.33    0.65
  -5 -10 -10    2.74    0.85
  -5 -10 -10    2.11    0.71
   5  10  10    2.03    0.55
   5  10  10    3.37    0.73
   5  10  10    3.83    0.61
   5  10  10    2.62    0.91
  -6 -10 -10    0.53    0.52
  -6 -10 -10    0.44    0.63
  -6 -10 -10    0.07    0.62
  -6 -10 -10    0.59    0.84
   6  10  10    1.26    0.88
   6  10  10    1.42    0.71
   6  10  10    0.01    0.79
  -7 -10 -10   17.43    1.64
  -7 -10 -10   17.91    1.37
   7  10  10   13.74    1.69
   7  10  10   16.39    1.57
   7  10  10   17.59    1.32
   8  10  10   -0.79    0.87
   5   4 -11   23.66    1.79
  -5  -4  11   26.79    1.64
   4   4 -11   26.31    1.67
   4   4 -11   31.21    2.07
  -4  -4  11   26.69    1.61
  -4  -4  11   28.53    1.39
   3   4 -11   -0.12    0.73
   3   4 -11   -1.04    0.67
   3   4 -11   -0.22    0.71
  -3  -4  11    1.75    0.80
  -3  -4  11   -0.11    0.69
   2   4 -11    1.81    0.76
   2   4 -11    0.35    0.66
   2   4 -11    1.43    0.75
  -2  -4  11    1.40    0.81
  -2  -4  11    0.40    0.73
   1   4 -11    2.72    0.66
   1   4 -11    1.39    0.78
   1   4 -11    2.89    0.77
  -1  -4  11    2.05    0.85
   6   3 -11    8.15    1.05
  -6  -3  11   13.35    1.39
   5   3 -11    1.57    0.78
   5   3 -11    3.91    0.80
  -5  -3  11    1.75    0.54
  -5  -3  11    1.97    0.73
   4   3 -11    2.28    0.76
   4   3 -11    1.82    0.69
  -4  -3  11    1.03    0.89
  -4  -3  11    2.73    0.73
  -4  -3  11    1.68    0.56
   3   3 -11   11.66    1.27
   3   3 -11   13.06    1.22
  -3  -3  11   12.95    1.36
  -3  -3  11   15.44    1.26
  -3  -3  11   12.42    1.10
   2   3 -11    2.32    0.72
   2   3 -11    2.16    0.65
  -2  -3  11    1.99    0.69
  -2  -3  11    3.29    0.70
  -2  -3  11    2.07    0.76
   1   3 -11    2.64    0.69
   1   3 -11    2.21    0.76
   1   3 -11    5.24    0.77
  -1  -3  11    3.97    0.86
  -1  -3  11    3.68    0.76
  -1  -3  11    3.52    0.74
   0   3 -11    3.12    0.82
   0   3 -11    4.29    0.58
   0   3 -11    5.38    0.76
   0   3 -11    3.79    0.77
   0  -3  11    4.86    0.90
   0  -3  11    4.25    0.80
   0  -3  11    2.96    0.80
  -1   3 -11   24.92    1.62
  -1   3 -11   27.54    1.41
  -1   3 -11   27.81    1.50
   1  -3  11   28.91    1.74
   1  -3  11   25.41    1.58
   1  -3  11   31.23    1.69
   6   2 -11   -0.75    0.69
   6   2 -11    0.80    0.83
   6   2 -11    0.83    0.69
  -6  -2  11   -0.74    0.67
   5   2 -11    2.71    0.72
   5   2 -11    2.47    0.69
  -5  -2  11    2.52    0.48
  -5  -2  11    3.08    0.72
  -5  -2  11    4.10    1.38
   4   2 -11   37.36    1.59
   4   2 -11   36.73    1.55
  -4  -2  11   37.73    1.58
  -4  -2  11   39.55    1.91
  -4  -2  11   35.98    1.83
  -4  -2  11   38.56    1.72
  -4  -2  11   35.55    1.23
   3   2 -11   85.92    2.30
   3   2 -11   85.79    2.26
  -3  -2  11   84.11    2.30
  -3  -2  11   82.00    2.55
  -3  -2  11   81.51    2.26
  -3  -2  11   83.55    2.04
  -3  -2  11   81.27    2.37
   2   2 -11   13.21    1.26
   2   2 -11   11.82    1.09
   2   2 -11   13.65    1.12
   2   2 -11   12.60    1.22
  -2  -2  11   12.96    1.16
  -2  -2  11   13.04    1.19
  -2  -2  11   11.17    1.46
  -2  -2  11   13.36    1.05
   1   2 -11   18.99    1.19
   1   2 -11   18.38    1.18
   1   2 -11   20.80    1.32
   1   2 -11   19.32    1.31
  -1  -2  11   21.38    1.28
  -1  -2  11   19.36    1.25
  -1  -2  11   20.16    1.27
  -1  -2  11   18.54    1.57
   0   2 -11    2.22    0.61
   0   2 -11    1.32    0.57
   0   2 -11   -0.60    0.62
   0  -2  11    1.93    0.67
   0  -2  11    0.80    0.65
   0  -2  11    0.45    0.58
  -1   2 -11   55.89    1.56
  -1   2 -11   61.67    1.82
  -1   2 -11   58.98    1.78
  -1   2 -11   55.34    1.46
   1  -2  11   60.13    1.95
   1  -2  11   62.22    1.87
   1  -2  11   60.40    2.05
  -2   2 -11   36.96    1.80
  -2   2 -11   39.13    1.48
   2  -2  11   40.07    1.65
   2  -2  11   36.47    1.83
   2  -2  11   39.13    1.62
  -3   2 -11   30.42    1.52
  -3   2 -11   25.85    1.68
  -3   2 -11   28.65    1.48
  -3   2 -11   29.64    1.34
   3  -2  11   28.63    1.56
   3  -2  11   29.88    1.57
   3  -2  11   30.04    1.83
   7   1 -11    7.49    1.00
   7   1 -11   13.65    1.74
  -7  -1  11   11.28    1.41
  -7  -1  11    8.85    1.10
   6   1 -11   15.63    1.28
   6   1 -11   13.97    1.37
   6   1 -11   13.00    1.50
  -6  -1  11   13.71    1.25
  -6  -1  11   15.21    1.37
  -6  -1  11   12.82    1.30
   5   1 -11   13.99    1.43
   5   1 -11   14.89    1.24
  -5  -1  11   11.66    1.17
  -5  -1  11   14.13    0.81
  -5  -1  11   11.97    1.25
  -5  -1  11   16.63    1.39
  -5  -1  11   13.65    1.28
   4   1 -11   83.82    2.47
   4   1 -11   88.81    2.34
   4   1 -11   88.03    2.32
  -4  -1  11   78.11    2.25
  -4  -1  11   87.67    1.94
  -4  -1  11   88.04    2.38
  -4  -1  11   85.31    2.57
  -4  -1  11   87.19    2.28
   3   1 -11  114.50    2.72
   3   1 -11  116.74    2.89
   3   1 -11  112.55    2.63
  -3  -1  11  113.48    2.67
  -3  -1  11  112.13    2.69
  -3  -1  11  111.41    2.42
   2   1 -11   14.29    1.06
   2   1 -11   14.82    1.23
   2   1 -11   13.79    1.02
  -2  -1  11   14.87    1.12
  -2  -1  11   14.95    1.12
   1   1 -11    0.45    0.47
   1   1 -11   -0.29    0.50
   1   1 -11   -0.30    0.58
  -1  -1  11    0.66    0.53
  -1  -1  11    0.52    0.52
  -1  -1  11   -0.28    0.53
   0   1 -11    0.81    0.50
   0   1 -11    0.25    0.51
   0   1 -11    0.19    0.55
   0  -1  11    0.31    0.52
   0  -1  11    0.07    0.49
   0  -1  11    1.13    0.66
   0  -1  11   -0.11    0.54
  -1   1 -11   98.11    2.19
  -1   1 -11   96.10    2.31
  -1   1 -11  100.94    2.38
  -1   1 -11   98.20    2.24
   1  -1  11   98.97    2.25
   1  -1  11   96.72    2.45
   1  -1  11  100.28    2.58
   1  -1  11   98.79    2.52
  -2   1 -11  114.63    2.26
  -2   1 -11  120.00    2.64
  -2   1 -11  116.32    2.56
  -2   1 -11  112.61    3.03
   2  -1  11  117.03    2.82
   2  -1  11  118.91    2.54
   2  -1  11  119.27    2.78
   2  -1  11  117.58    2.93
  -3   1 -11    5.87    0.92
  -3   1 -11    7.45    0.80
   3  -1  11    8.34    1.03
   3  -1  11    7.51    0.85
   3  -1  11    6.70    0.96
   3  -1  11    6.29    0.88
  -4   1 -11   33.93    1.38
  -4   1 -11   35.11    1.27
  -4   1 -11   37.58    1.51
  -4   1 -11   37.97    1.84
   4  -1  11   38.37    1.91
   4  -1  11   40.68    1.53
   4  -1  11   39.68    1.66
   7   0 -11    4.46    1.49
   7   0 -11    1.15    0.85
   6   0 -11   16.88    1.60
   6   0 -11   17.30    1.33
   6   0 -11   17.12    1.35
  -6   0  11   14.89    1.33
  -6   0  11   18.36    1.31
   5   0 -11   36.16    1.56
   5   0 -11   37.03    1.58
   5   0 -11   37.58    1.82
  -5   0  11   33.54    1.19
  -5   0  11   38.83    1.53
  -5   0  11   36.39    1.65
  -5   0  11   34.04    1.12
   4   0 -11   22.66    1.25
   4   0 -11   23.39    1.40
   4   0 -11   23.13    1.25
   4   0 -11   23.92    1.50
  -4   0  11   25.22    1.28
  -4   0  11   22.60    0.86
  -4   0  11   24.36    1.00
  -4   0  11   24.42    1.36
  -4   0  11   22.63    1.55
   3   0 -11  146.68    3.17
   3   0 -11  141.48    3.05
   3   0 -11  143.51    3.36
   3   0 -11  146.29    3.34
  -3   0  11  144.95    2.90
  -3   0  11  147.04    3.18
  -3   0  11  147.31    3.11
  -3   0  11  146.81    3.14
   2   0 -11    9.05    0.87
   2   0 -11    9.72    1.16
   2   0 -11    8.24    0.94
  -2   0  11    9.31    0.87
  -2   0  11    8.51    0.95
  -2   0  11    7.77    0.96
   1   0 -11   12.53    0.98
   1   0 -11   12.74    1.06
   1   0 -11   13.02    1.15
   1   0 -11   14.75    0.91
  -1   0  11   13.33    0.91
  -1   0  11   12.06    0.99
  -1   0  11   12.76    0.94
   0   0 -11   20.47    1.15
   0   0 -11   21.77    1.14
   0   0 -11   20.44    0.98
   0   0 -11   22.24    1.09
   0   0  11   21.92    1.17
   0   0  11   20.69    1.12
   0   0  11   19.91    1.21
   0   0  11   20.22    1.02
  -1   0 -11   44.55    1.41
  -1   0 -11   41.40    1.26
  -1   0 -11   39.71    1.43
  -1   0 -11   41.30    1.39
   1   0  11   43.70    1.59
   1   0  11   42.60    1.49
   1   0  11   41.25    1.59
   1   0  11   42.02    1.27
  -2   0 -11   89.13    2.09
  -2   0 -11   89.85    1.98
  -2   0 -11   93.50    2.17
  -2   0 -11   90.07    1.97
   2   0  11   90.79    1.98
   2   0  11   90.68    2.45
   2   0  11   89.96    2.33
   2   0  11   89.58    2.25
  -3   0 -11   -0.32    0.53
  -3   0 -11    0.18    0.60
  -3   0 -11    0.50    0.43
   3   0  11   -0.16    0.75
   3   0  11   -0.42    0.63
   3   0  11    1.44    0.58
   3   0  11    1.06    0.44
   3   0  11    0.26    0.62
  -4   0 -11    1.00    0.45
  -4   0 -11    2.03    0.56
  -4   0 -11    1.71    0.56
  -4   0 -11    2.04    0.72
   4   0  11    0.82    0.71
   4   0  11    1.71    0.60
   4   0  11    1.35    0.64
   4   0  11    1.37    0.73
  -5   0 -11    0.05    0.58
  -5   0 -11    0.00    0.63
   5   0  11    1.15    0.84
   5   0  11   -0.31    0.64
   5   0  11   -0.86    0.55
   5   0  11    1.73    0.83
   6  -1 -11    7.18    0.93
   6  -1 -11    6.00    0.84
   6  -1 -11    7.17    1.04
  -6   1  11    5.62    0.85
  -6   1  11    6.99    0.83
   5  -1 -11   74.61    2.41
   5  -1 -11   71.32    2.14
   5  -1 -11   72.60    2.14
  -5   1  11   69.77    1.76
  -5   1  11   69.07    2.21
  -5   1  11   71.61    2.05
   4  -1 -11    4.26    0.78
   4  -1 -11    4.94    0.68
   4  -1 -11    5.36    0.84
   4  -1 -11    3.75    0.69
   4  -1 -11    2.92    0.84
  -4   1  11    4.33    0.62
  -4   1  11    4.60    0.72
  -4   1  11    3.86    0.69
  -4   1  11    2.56    0.78
   3  -1 -11   82.23    2.19
   3  -1 -11   80.76    2.35
   3  -1 -11   84.21    2.08
   3  -1 -11   83.13    3.00
  -3   1  11   81.02    1.69
  -3   1  11   79.24    1.93
  -3   1  11   81.55    2.16
  -3   1  11   82.81    2.15
   2  -1 -11   13.23    0.89
   2  -1 -11   14.38    1.19
   2  -1 -11   15.44    1.25
   2  -1 -11   12.27    0.98
  -2   1  11   14.48    1.03
  -2   1  11   14.88    1.05
  -2   1  11   13.68    0.91
  -2   1  11   15.62    0.87
   1  -1 -11    1.40    0.60
   1  -1 -11    0.40    0.52
   1  -1 -11   -0.03    0.38
  -1   1  11    0.15    0.48
  -1   1  11   -0.11    0.42
  -1   1  11    0.46    0.46
   0  -1 -11   27.94    1.29
   0  -1 -11   27.94    1.17
   0  -1 -11   29.43    1.25
   0  -1 -11   27.33    1.02
   0   1  11   28.71    1.24
   0   1  11   32.15    1.23
   0   1  11   28.63    1.23
   0   1  11   29.91    1.30
   0   1  11   27.47    1.02
  -1  -1 -11    0.50    0.56
  -1  -1 -11    1.35    0.45
  -1  -1 -11    1.20    0.50
  -1  -1 -11    1.78    0.40
   1   1  11    2.22    0.55
   1   1  11    0.97    0.63
   1   1  11    1.45    0.60
   1   1  11    0.91    0.57
   1   1  11    1.02    0.51
   1   1  11    1.21    0.38
  -2  -1 -11    5.06    0.57
  -2  -1 -11    5.56    0.61
  -2  -1 -11    5.57    0.62
  -2  -1 -11    5.64    0.59
   2   1  11    5.34    0.68
   2   1  11    5.28    0.72
   2   1  11    5.07    0.61
   2   1  11    4.57    0.79
   2   1  11    3.68    0.69
   2   1  11    5.09    0.76
  -3  -1 -11    7.34    0.76
  -3  -1 -11    7.22    0.85
  -3  -1 -11    6.63    0.71
   3   1  11    6.31    0.64
   3   1  11    7.35    0.89
   3   1  11    6.30    0.76
   3   1  11    4.96    0.78
   3   1  11    7.00    0.91
  -4  -1 -11    0.51    0.38
  -4  -1 -11    0.54    0.64
  -4  -1 -11    0.05    0.46
   4   1  11    0.49    0.66
   4   1  11    0.47    0.50
   4   1  11    1.11    0.76
   4   1  11   -0.22    0.35
   4   1  11   -0.91    0.60
   4   1  11    0.98    0.80
  -5  -1 -11    5.05    0.88
   5   1  11    6.05    0.85
   5   1  11    4.60    0.72
   5   1  11    4.82    0.87
   5   1  11    7.87    0.74
   6   1  11    3.75    0.73
   6   1  11    3.13    0.96
   6   1  11    1.34    0.77
   6  -2 -11    5.67    0.88
   6  -2 -11    4.26    0.98
   6  -2 -11    6.23    0.96
  -6   2  11    5.12    0.88
  -6   2  11    5.79    0.82
  -6   2  11    6.12    0.90
   5  -2 -11   56.71    1.92
   5  -2 -11   56.16    1.92
   5  -2 -11   57.54    2.20
  -5   2  11   58.71    1.86
  -5   2  11   54.34    1.98
   4  -2 -11   20.90    1.36
   4  -2 -11   23.63    1.49
   4  -2 -11   22.45    1.28
   4  -2 -11   22.24    1.59
   4  -2 -11   21.61    1.22
  -4   2  11   24.44    1.29
  -4   2  11   22.14    1.18
  -4   2  11   22.66    1.27
   3  -2 -11    4.67    0.78
   3  -2 -11    4.21    0.68
   3  -2 -11    5.14    0.66
  -3   2  11    5.34    0.66
  -3   2  11    3.77    0.62
  -3   2  11    4.47    0.69
   2  -2 -11   64.77    2.03
   2  -2 -11   65.21    1.84
   2  -2 -11   64.02    2.01
   2  -2 -11   61.16    1.64
  -2   2  11   63.62    1.46
  -2   2  11   65.69    1.84
  -2   2  11   61.26    1.76
   1  -2 -11    3.63    0.67
   1  -2 -11    3.97    0.62
   1  -2 -11    3.47    0.58
   1  -2 -11    3.04    0.46
   1  -2 -11    2.41    0.65
  -1   2  11    4.26    0.54
  -1   2  11    5.53    0.75
  -1   2  11    3.14    0.55
   0  -2 -11    8.89    0.66
   0  -2 -11    9.98    1.05
   0  -2 -11   10.55    0.85
   0  -2 -11    9.35    0.91
   0   2  11   10.47    1.15
   0   2  11   10.65    0.89
   0   2  11   10.22    0.97
   0   2  11    9.79    1.23
  -1  -2 -11    2.69    0.37
  -1  -2 -11    2.18    0.55
  -1  -2 -11    2.46    0.49
  -1  -2 -11    1.55    0.53
   1   2  11    2.89    0.72
   1   2  11    2.87    0.60
   1   2  11    2.01    0.54
   1   2  11    2.81    0.54
   1   2  11    2.59    0.38
   1   2  11    2.93    0.62
  -2  -2 -11   11.67    0.59
  -2  -2 -11   12.75    0.90
  -2  -2 -11   11.59    1.13
  -2  -2 -11   12.77    0.81
   2   2  11   13.31    1.02
   2   2  11   14.34    1.25
   2   2  11   10.73    1.09
   2   2  11   12.40    1.06
   2   2  11   12.94    0.92
   2   2  11   12.52    0.60
  -3  -2 -11   68.42    1.63
  -3  -2 -11   68.27    1.71
  -3  -2 -11   68.69    1.67
   3   2  11   67.87    1.33
   3   2  11   66.79    2.04
   3   2  11   69.72    2.09
   3   2  11   67.91    2.16
   3   2  11   67.72    1.91
   3   2  11   68.23    1.84
  -4  -2 -11    2.73    0.70
  -4  -2 -11    3.60    0.45
  -4  -2 -11    4.80    0.52
  -4  -2 -11    4.28    0.52
   4   2  11    3.33    0.61
   4   2  11    4.12    0.71
   4   2  11    3.33    0.70
   4   2  11    3.01    0.76
  -5  -2 -11   94.96    2.77
  -5  -2 -11   94.64    1.86
   5   2  11   97.41    2.68
   5   2  11   93.69    2.75
   5   2  11   97.93    2.74
   5   2  11  101.10    2.40
   5   2  11   97.26    2.31
  -6  -2 -11    2.96    0.80
   6   2  11    3.04    0.82
   6   2  11    3.10    0.77
   6   2  11    3.45    0.66
  -7  -2 -11    1.35    0.86
   7   2  11    1.73    1.46
   7   2  11    2.92    0.71
   7   2  11    1.33    0.82
   6  -3 -11   17.22    1.53
  -6   3  11   18.68    1.49
  -6   3  11   15.29    1.40
   5  -3 -11    7.32    0.86
   5  -3 -11    9.14    1.15
   5  -3 -11    7.26    0.98
  -5   3  11    9.51    1.17
  -5   3  11    7.42    0.85
  -5   3  11    9.11    0.91
   4  -3 -11   -0.41    1.05
   4  -3 -11    0.68    0.61
   4  -3 -11    0.36    0.57
   4  -3 -11    0.21    0.54
  -4   3  11    0.59    0.62
  -4   3  11    1.43    0.58
  -4   3  11    1.69    0.61
  -4   3  11    0.51    0.64
   3  -3 -11   -0.41    0.72
   3  -3 -11    2.31    0.57
   3  -3 -11    1.06    0.51
   3  -3 -11    2.76    0.70
  -3   3  11    2.05    0.59
  -3   3  11    0.96    0.59
  -3   3  11    1.97    0.59
   2  -3 -11   96.19    2.17
   2  -3 -11   94.02    2.75
   2  -3 -11   96.75    2.37
   2  -3 -11   98.77    2.59
  -2   3  11   96.17    2.27
  -2   3  11   99.42    2.38
  -2   3  11   94.59    1.87
   1  -3 -11   10.46    0.95
   1  -3 -11    7.57    0.88
   1  -3 -11    8.89    1.07
   1  -3 -11    9.08    0.69
   1  -3 -11    8.62    0.87
  -1   3  11    9.86    0.74
  -1   3  11    8.96    1.18
  -1   3  11   10.27    0.91
  -1   3  11   10.01    0.83
   0  -3 -11    9.28    0.85
   0  -3 -11   10.60    0.91
   0  -3 -11   11.69    1.10
   0  -3 -11    9.88    0.66
   0  -3 -11   10.67    1.08
   0   3  11    8.58    1.11
   0   3  11   11.26    0.78
   0   3  11    9.91    0.89
   0   3  11    9.79    0.81
   0   3  11   11.32    1.00
  -1  -3 -11    3.19    0.54
  -1  -3 -11    3.15    0.35
  -1  -3 -11    3.54    0.63
  -1  -3 -11    3.49    0.55
   1   3  11    2.62    0.67
   1   3  11    2.44    0.62
   1   3  11    3.93    0.60
   1   3  11    3.47    0.60
  -2  -3 -11   62.33    1.63
  -2  -3 -11   63.43    1.66
  -2  -3 -11   63.08    1.78
   2   3  11   62.64    1.82
   2   3  11   68.61    2.02
   2   3  11   63.36    1.75
   2   3  11   61.97    1.80
  -3  -3 -11  176.56    3.33
  -3  -3 -11  178.62    3.33
   3   3  11  186.72    3.82
   3   3  11  184.06    3.56
   3   3  11  181.87    3.80
   3   3  11  180.41    3.58
   3   3  11  182.26    3.74
  -4  -3 -11    2.49    0.52
  -4  -3 -11    1.69    0.38
  -4  -3 -11    1.92    0.44
   4   3  11    2.88    0.75
   4   3  11    2.72    0.67
   4   3  11    2.35    0.52
   4   3  11    1.39    0.57
   4   3  11    0.76    0.66
  -5  -3 -11   90.36    1.99
  -5  -3 -11   90.62    2.63
   5   3  11   86.36    2.13
   5   3  11   90.21    2.55
   5   3  11   91.25    2.23
   5   3  11   89.69    2.51
  -6  -3 -11   10.90    0.78
  -6  -3 -11   10.92    1.26
   6   3  11    9.33    1.07
   6   3  11   10.48    1.13
   6   3  11   10.95    1.00
   6   3  11   11.55    1.31
  -7  -3 -11   11.42    1.37
   7   3  11   13.67    1.24
   7   3  11   12.58    1.09
   7   3  11   11.62    1.49
   5  -4 -11    1.23    0.70
   5  -4 -11    0.54    0.69
   5  -4 -11   -0.36    0.80
  -5   4  11   -0.48    0.68
  -5   4  11    0.56    0.78
  -5   4  11   -0.41    0.61
   4  -4 -11   36.43    1.81
   4  -4 -11   37.55    1.58
   4  -4 -11   35.89    1.53
  -4   4  11   38.22    1.61
  -4   4  11   35.47    1.60
  -4   4  11   34.87    1.57
  -4   4  11   38.48    1.57
   3  -4 -11   16.32    1.13
   3  -4 -11   15.15    1.31
   3  -4 -11   16.13    1.07
  -3   4  11   15.36    1.14
  -3   4  11   15.95    1.23
  -3   4  11   16.28    1.16
  -3   4  11   15.65    1.50
   2  -4 -11   49.47    1.64
   2  -4 -11   48.83    1.52
   2  -4 -11   49.53    1.85
  -2   4  11   50.11    1.92
  -2   4  11   51.48    1.70
  -2   4  11   47.81    1.57
  -2   4  11   47.93    1.63
   1  -4 -11   12.01    0.95
   1  -4 -11   12.88    0.80
   1  -4 -11   12.25    1.16
   1  -4 -11   11.90    1.19
   1  -4 -11   11.65    1.24
  -1   4  11   12.01    0.97
  -1   4  11   12.70    0.76
  -1   4  11   11.09    1.23
  -1   4  11   11.85    0.89
   0  -4 -11    0.70    0.53
   0  -4 -11    0.19    0.43
   0  -4 -11    0.04    0.47
   0  -4 -11   -0.01    0.55
   0  -4 -11    0.68    0.33
   0   4  11    0.46    0.48
   0   4  11    0.25    0.43
   0   4  11    0.64    0.40
   0   4  11    0.23    0.60
   0   4  11   -0.03    0.58
  -1  -4 -11   11.00    1.11
  -1  -4 -11   11.67    0.87
  -1  -4 -11   10.85    0.58
  -1  -4 -11   10.39    0.86
   1   4  11   12.84    0.95
   1   4  11   11.51    0.99
   1   4  11   11.10    0.89
   1   4  11   12.35    0.73
   1   4  11   12.07    1.15
  -2  -4 -11    2.80    0.50
  -2  -4 -11    3.31    0.62
  -2  -4 -11    3.25    0.57
   2   4  11    3.53    0.57
   2   4  11    3.58    0.72
   2   4  11    5.13    0.69
   2   4  11    2.86    0.70
   2   4  11    3.48    0.63
  -3  -4 -11  154.71    2.97
  -3  -4 -11  156.96    3.19
  -3  -4 -11  149.19    2.96
   3   4  11  159.04    3.31
   3   4  11  153.65    3.17
   3   4  11  158.37    3.22
   3   4  11  155.60    3.21
   3   4  11  156.96    3.38
  -4  -4 -11   12.29    0.98
  -4  -4 -11   12.82    0.70
  -4  -4 -11   14.20    0.78
   4   4  11   12.60    0.93
   4   4  11   14.12    1.06
   4   4  11   12.37    1.20
   4   4  11   13.36    1.02
   4   4  11   12.78    1.27
  -5  -4 -11   40.35    1.73
   5   4  11   39.24    1.43
   5   4  11   37.90    1.67
   5   4  11   39.13    1.38
   5   4  11   35.67    1.68
   5   4  11   36.79    1.35
  -6  -4 -11    5.38    0.85
  -6  -4 -11    5.86    0.67
   6   4  11    7.36    0.93
   6   4  11    4.65    0.94
   6   4  11    6.25    0.74
   6   4  11    7.71    0.97
   6   4  11    7.65    0.92
   6   4  11    7.98    0.89
  -7  -4 -11   11.70    1.35
  -7  -4 -11   11.11    0.95
   7   4  11    8.68    1.11
   7   4  11   10.75    1.38
   7   4  11    9.79    0.98
   7   4  11    8.34    0.83
   7   4  11   10.15    0.93
  -8  -4 -11   29.34    2.03
   8   4  11   29.73    2.32
   8   4  11   28.07    1.34
   8   4  11   27.49    1.83
   8   4  11   30.31    1.44
   4  -5 -11   69.61    2.17
   4  -5 -11   70.16    2.15
   4  -5 -11   66.99    2.42
  -4   5  11   66.79    2.18
  -4   5  11   68.82    2.13
  -4   5  11   68.36    2.27
   3  -5 -11   21.42    1.28
   3  -5 -11   20.28    1.22
   3  -5 -11   19.99    1.49
  -3   5  11   21.53    1.40
  -3   5  11   19.75    1.29
  -3   5  11   22.67    1.44
  -3   5  11   20.31    1.24
   2  -5 -11   22.83    1.42
   2  -5 -11   21.97    1.14
   2  -5 -11   23.81    1.25
  -2   5  11   22.11    1.33
  -2   5  11   21.22    1.17
  -2   5  11   23.84    1.59
  -2   5  11   22.89    1.33
  -2   5  11   20.84    1.24
   1  -5 -11   16.75    1.10
   1  -5 -11   17.37    1.29
   1  -5 -11   17.69    0.93
  -1   5  11   15.62    1.01
  -1   5  11   18.79    1.26
  -1   5  11   15.83    1.37
  -1   5  11   17.12    1.15
   0  -5 -11    8.75    1.06
   0  -5 -11    8.28    0.70
   0  -5 -11    7.00    0.86
   0  -5 -11    8.11    0.90
   0  -5 -11    8.64    0.90
   0   5  11    7.90    0.93
   0   5  11    9.20    0.83
   0   5  11    8.02    0.79
   0   5  11    7.77    0.89
  -1  -5 -11   72.97    1.88
  -1  -5 -11   69.38    1.84
  -1  -5 -11   69.47    1.49
  -1  -5 -11   72.95    2.06
  -1  -5 -11   69.88    2.10
   1   5  11   71.13    1.61
   1   5  11   71.92    1.85
   1   5  11   67.92    1.95
   1   5  11   72.23    2.12
   1   5  11   73.44    2.12
   1   5  11   68.20    1.90
  -2  -5 -11   10.39    0.99
  -2  -5 -11   12.26    1.10
  -2  -5 -11   10.05    0.85
   2   5  11    9.69    1.16
   2   5  11   10.15    0.67
   2   5  11   11.80    1.00
   2   5  11   12.06    0.94
   2   5  11   11.44    1.01
   2   5  11   12.90    1.13
  -3  -5 -11   92.39    2.04
  -3  -5 -11   87.75    2.01
  -3  -5 -11   92.21    2.32
   3   5  11   91.84    2.35
   3   5  11   92.86    2.33
   3   5  11   90.87    2.20
   3   5  11   93.39    2.37
   3   5  11   89.83    2.24
  -4  -5 -11   33.06    1.05
  -4  -5 -11   33.45    1.40
   4   5  11   36.27    1.53
   4   5  11   37.21    1.52
   4   5  11   31.51    1.36
   4   5  11   32.33    1.64
   4   5  11   34.37    1.30
  -5  -5 -11   21.90    0.78
  -5  -5 -11   19.59    1.38
  -5  -5 -11   20.69    1.21
   5   5  11   19.25    1.16
   5   5  11   21.34    1.22
   5   5  11   19.84    1.09
   5   5  11   20.56    1.40
  -6  -5 -11    3.17    0.67
  -6  -5 -11    3.42    0.74
   6   5  11    2.60    0.72
   6   5  11    2.57    0.76
   6   5  11    4.43    0.87
   6   5  11    3.13    0.62
   6   5  11    4.02    0.68
   6   5  11    4.48    0.62
  -7  -5 -11   11.49    1.33
  -7  -5 -11   13.66    1.17
   7   5  11   12.12    0.99
   7   5  11   11.35    1.12
   7   5  11   12.82    1.08
   7   5  11    9.42    1.05
   7   5  11   13.76    1.42
  -8  -5 -11    3.24    0.85
   8   5  11    5.34    0.95
   8   5  11    4.18    0.74
   8   5  11    4.95    0.69
   8   5  11    5.36    1.05
   8   5  11    6.82    0.75
   3  -6 -11   54.12    2.16
   3  -6 -11   53.87    1.94
   3  -6 -11   53.51    1.89
  -3   6  11   56.24    1.94
  -3   6  11   52.62    1.91
   2  -6 -11   10.11    1.08
   2  -6 -11   10.13    1.28
   2  -6 -11    8.54    0.91
  -2   6  11    9.93    1.12
  -2   6  11    7.57    0.83
  -2   6  11    8.03    1.05
   1  -6 -11    7.15    0.94
   1  -6 -11    8.47    1.16
   1  -6 -11    8.06    0.85
   1  -6 -11    7.27    0.87
  -1   6  11    8.98    1.03
  -1   6  11    7.66    1.16
  -1   6  11    7.62    1.00
  -1   6  11    7.87    0.80
   0  -6 -11   16.93    1.25
   0  -6 -11   17.75    1.12
   0  -6 -11   17.47    0.89
   0   6  11   17.63    1.32
   0   6  11   17.14    1.34
   0   6  11   15.74    1.11
   0   6  11   17.12    1.38
   0   6  11   19.39    1.05
  -1  -6 -11   67.62    1.86
  -1  -6 -11   67.12    1.53
  -1  -6 -11   70.42    2.05
  -1  -6 -11   68.06    1.89
   1   6  11   66.45    2.00
   1   6  11   66.74    1.85
   1   6  11   67.70    1.92
   1   6  11   66.02    1.63
   1   6  11   68.23    2.13
   1   6  11   70.57    2.10
   1   6  11   67.66    2.14
  -2  -6 -11   60.01    1.69
  -2  -6 -11   60.97    1.99
  -2  -6 -11   59.78    1.26
  -2  -6 -11   62.08    1.88
  -2  -6 -11   62.12    1.71
   2   6  11   61.80    1.79
   2   6  11   62.41    1.94
   2   6  11   60.32    1.80
   2   6  11   59.76    1.39
   2   6  11   57.36    1.97
   2   6  11   59.53    1.84
  -3  -6 -11   12.43    1.14
  -3  -6 -11   11.17    0.84
  -3  -6 -11    8.26    0.84
   3   6  11   10.83    1.07
   3   6  11   12.10    1.22
   3   6  11   11.65    1.16
   3   6  11   11.60    1.12
   3   6  11   11.11    0.97
  -4  -6 -11    9.85    0.74
  -4  -6 -11    7.61    0.76
  -4  -6 -11    8.86    1.13
   4   6  11    9.07    1.11
   4   6  11    8.09    0.92
   4   6  11   10.44    1.08
   4   6  11    8.47    1.14
   4   6  11    8.43    1.14
  -5  -6 -11    7.58    0.90
  -5  -6 -11    9.28    0.67
  -5  -6 -11    8.94    1.14
  -5  -6 -11    7.63    0.60
   5   6  11    7.72    0.83
   5   6  11    6.57    0.77
   5   6  11    7.14    0.89
   5   6  11    9.63    1.14
  -6  -6 -11   41.48    1.73
  -6  -6 -11   39.50    1.64
   6   6  11   42.15    1.69
   6   6  11   41.98    1.56
   6   6  11   42.35    1.63
   6   6  11   41.10    1.44
   6   6  11   43.51    1.88
  -7  -6 -11    0.17    0.61
  -7  -6 -11    0.62    0.72
   7   6  11    0.31    0.52
   7   6  11   -0.27    0.62
   7   6  11    1.30    0.63
   7   6  11   -0.30    0.70
   7   6  11    0.42    0.74
  -8  -6 -11    7.51    0.91
  -8  -6 -11    5.23    0.91
   8   6  11    7.13    0.81
   8   6  11    6.62    0.76
   8   6  11    6.74    1.04
   8   6  11    6.46    0.80
   8   6  11    4.14    0.94
   2  -7 -11    5.13    0.77
   2  -7 -11    3.71    0.83
   2  -7 -11    4.22    0.90
  -2   7  11    5.52    0.86
  -2   7  11    4.06    0.76
   1  -7 -11    5.74    0.79
   1  -7 -11    5.69    0.85
   1  -7 -11    4.84    0.66
   1  -7 -11    4.25    0.75
  -1   7  11    4.41    0.71
  -1   7  11    3.19    0.73
  -1   7  11    2.51    0.84
  -1   7  11    2.70    0.87
   0  -7 -11   21.21    1.42
   0  -7 -11   22.15    1.30
   0  -7 -11   22.88    1.08
   0  -7 -11   22.37    1.27
   0  -7 -11   19.07    1.70
   0   7  11   22.35    1.16
   0   7  11   22.98    1.30
   0   7  11   20.87    1.59
   0   7  11   21.31    1.56
  -1  -7 -11    8.85    0.97
  -1  -7 -11    8.73    0.91
  -1  -7 -11    7.84    0.98
  -1  -7 -11    8.44    1.14
  -1  -7 -11    7.66    0.76
   1   7  11    7.83    0.93
   1   7  11    6.07    0.85
   1   7  11   10.23    1.32
   1   7  11    8.82    1.00
   1   7  11   10.44    0.89
  -2  -7 -11   14.92    0.73
  -2  -7 -11   14.27    0.77
  -2  -7 -11   13.27    1.02
  -2  -7 -11   14.88    1.17
  -2  -7 -11   14.85    1.06
  -2  -7 -11   15.05    1.05
   2   7  11   14.65    1.24
   2   7  11   14.14    0.86
   2   7  11   14.81    1.22
   2   7  11   14.44    1.35
   2   7  11   14.62    1.28
   2   7  11   14.10    1.07
  -3  -7 -11    0.80    0.57
  -3  -7 -11   -0.20    0.46
  -3  -7 -11   -0.61    0.47
   3   7  11   -0.70    0.59
   3   7  11   -1.35    0.57
   3   7  11    0.72    0.53
   3   7  11   -1.03    0.57
   3   7  11    0.82    0.61
  -4  -7 -11   31.33    1.45
  -4  -7 -11   31.53    1.19
  -4  -7 -11   29.09    1.59
  -4  -7 -11   32.00    1.15
   4   7  11   31.03    1.32
   4   7  11   33.49    1.57
   4   7  11   31.91    1.46
   4   7  11   31.84    1.45
   4   7  11   30.56    1.54
  -5  -7 -11   15.37    1.37
  -5  -7 -11   15.14    0.88
   5   7  11   15.92    1.24
   5   7  11   18.05    1.12
   5   7  11   15.76    1.22
   5   7  11   15.36    1.32
  -6  -7 -11   29.91    1.52
  -6  -7 -11   31.64    1.61
   6   7  11   30.17    1.48
   6   7  11   28.61    1.73
   6   7  11   29.93    1.54
   6   7  11   28.35    1.41
   6   7  11   28.83    1.31
  -7  -7 -11   11.20    1.39
  -7  -7 -11   13.11    1.23
   7   7  11   11.57    1.27
   7   7  11   11.64    1.04
   7   7  11    9.29    1.23
   7   7  11    9.07    0.93
  -8  -7 -11   11.79    1.50
  -8  -7 -11   10.04    1.33
   8   7  11   10.86    1.27
   8   7  11    9.02    1.04
   8   7  11   11.49    1.11
   8   7  11   10.59    1.41
   8   7  11    9.35    0.98
   1  -8 -11    2.96    0.77
   1  -8 -11    1.51    0.80
   1  -8 -11    2.51    0.63
  -1   8  11    2.20    0.90
  -1   8  11    2.43    0.80
  -1   8  11    3.31    0.72
   0  -8 -11   33.71    1.70
   0  -8 -11   35.93    1.61
   0   8  11   35.82    1.89
   0   8  11   37.19    1.52
   0   8  11   38.62    1.67
   0   8  11   38.64    1.96
  -1  -8 -11    4.14    1.00
  -1  -8 -11    5.83    0.71
  -1  -8 -11    6.65    0.82
  -1  -8 -11    6.04    0.79
  -1  -8 -11    5.60    0.83
   1   8  11    6.66    0.96
   1   8  11    5.71    0.80
   1   8  11    4.77    0.92
   1   8  11    7.04    0.74
  -2  -8 -11    0.57    0.60
  -2  -8 -11   -0.44    0.59
  -2  -8 -11    0.18    0.74
  -2  -8 -11    0.59    0.47
  -2  -8 -11   -1.08    0.52
  -2  -8 -11   -0.24    0.92
   2   8  11   -1.13    0.65
   2   8  11    0.24    0.88
   2   8  11    0.99    0.79
   2   8  11    0.15    0.72
   2   8  11   -0.40    0.57
   2   8  11    0.38    0.50
  -3  -8 -11   11.32    1.08
  -3  -8 -11    9.29    1.00
  -3  -8 -11   10.72    1.16
  -3  -8 -11    9.45    0.63
  -3  -8 -11    9.48    0.74
  -3  -8 -11   12.55    1.05
  -3  -8 -11    6.83    0.95
   3   8  11   10.46    1.35
   3   8  11   11.38    1.04
   3   8  11   11.89    1.22
   3   8  11   11.87    1.21
  -4  -8 -11   62.28    2.00
  -4  -8 -11   57.36    1.66
  -4  -8 -11   48.86    2.00
  -4  -8 -11   60.78    1.73
   4   8  11   60.10    1.81
   4   8  11   60.38    1.83
   4   8  11   58.57    2.11
   4   8  11   57.79    1.96
  -5  -8 -11   23.63    1.02
  -5  -8 -11   23.70    1.09
  -5  -8 -11   23.11    1.48
   5   8  11   21.82    1.42
   5   8  11   24.06    1.29
   5   8  11   23.06    1.26
   5   8  11   23.54    1.55
  -6  -8 -11    5.10    0.82
  -6  -8 -11    6.36    0.97
   6   8  11    3.86    0.71
   6   8  11    9.90    1.91
   6   8  11    5.00    0.75
   6   8  11    4.64    0.85
   6   8  11    6.46    0.94
  -7  -8 -11   11.21    1.16
   7   8  11    9.82    1.00
   7   8  11    8.27    0.84
   7   8  11    9.08    1.06
   7   8  11   11.72    1.39
  -8  -8 -11    1.05    0.92
  -8  -8 -11    0.47    0.71
   8   8  11    1.02    0.83
   8   8  11    1.30    0.81
   8   8  11    0.97    0.65
   8   8  11    0.64    0.97
   0  -9 -11   26.08    1.66
   0  -9 -11   26.44    1.73
   0  -9 -11   27.73    1.42
   0   9  11   27.09    1.47
  -1  -9 -11    7.88    0.93
  -1  -9 -11    6.37    0.90
  -1  -9 -11    5.71    0.84
  -1  -9 -11    8.26    0.93
   1   9  11    6.80    1.03
   1   9  11    6.53    0.90
   1   9  11    5.31    1.01
   1   9  11    4.93    0.77
  -2  -9 -11   18.69    1.30
  -2  -9 -11   16.29    1.36
  -2  -9 -11   19.72    1.32
  -2  -9 -11   15.43    1.18
   2   9  11   17.79    1.57
   2   9  11   19.86    1.73
   2   9  11   18.50    1.35
   2   9  11   17.09    1.11
  -3  -9 -11   19.31    1.07
  -3  -9 -11   19.05    1.26
  -3  -9 -11   20.60    1.39
  -3  -9 -11   21.45    1.32
   3   9  11   20.99    1.63
   3   9  11   19.14    1.07
   3   9  11   18.43    1.34
   3   9  11   17.97    1.41
  -4  -9 -11   40.47    1.53
  -4  -9 -11   38.15    1.75
  -4  -9 -11   39.96    1.48
  -4  -9 -11   38.28    1.15
   4   9  11   39.57    1.62
   4   9  11   40.21    1.57
   4   9  11   41.02    1.96
  -5  -9 -11   60.24    1.74
  -5  -9 -11   67.52    2.24
  -5  -9 -11   64.45    2.02
  -5  -9 -11   59.57    2.22
   5   9  11   65.41    2.58
   5   9  11   63.91    1.83
   5   9  11   62.28    1.96
   5   9  11   62.42    2.29
   5   9  11   60.44    2.09
  -6  -9 -11    1.66    0.72
  -6  -9 -11    2.74    0.50
  -6  -9 -11    3.02    0.92
   6   9  11    1.21    0.98
   6   9  11    3.23    0.87
   6   9  11    1.73    0.86
   6   9  11    2.67    0.72
  -7  -9 -11   -1.33    0.83
  -7  -9 -11    0.34    0.66
   7   9  11    0.47    0.65
   7   9  11    1.06    0.84
   7   9  11   -0.18    0.79
  -8  -9 -11    2.96    0.79
   8   9  11    2.88    0.94
   8   9  11    4.08    0.81
   8   9  11    1.26    0.88
  -3 -10 -11   59.90    2.01
  -3 -10 -11   59.83    2.16
  -3 -10 -11   63.05    2.05
   3  10  11   63.28    2.12
   3  10  11   64.99    1.88
  -4 -10 -11   13.61    1.26
  -4 -10 -11   11.05    1.41
  -4 -10 -11   11.22    1.36
   4  10  11   11.38    1.31
   4  10  11   13.84    1.28
   4  10  11   13.58    1.10
   4  10  11   13.75    1.70
  -5 -10 -11   52.81    1.75
  -5 -10 -11   48.08    1.82
  -5 -10 -11   46.22    1.66
  -5 -10 -11   53.74    2.13
   5  10  11   50.82    2.28
   5  10  11   48.44    1.87
  -6 -10 -11   -1.49    0.68
  -6 -10 -11    0.41    0.89
  -6 -10 -11   -0.12    0.59
   6  10  11    0.61    0.73
   6  10  11    0.77    0.88
   4   3 -12    1.36    0.84
  -4  -3  12    1.06    0.67
  -4  -3  12    1.38    0.81
   3   3 -12   12.04    1.43
   3   3 -12   11.06    1.41
  -3  -3  12   13.12    1.40
  -3  -3  12   12.40    1.27
   2   3 -12   22.49    1.67
   2   3 -12   21.20    1.50
   2   3 -12   20.33    1.46
  -2  -3  12   24.39    1.91
  -2  -3  12   20.52    1.47
  -2  -3  12   22.75    1.86
   1   3 -12   10.93    1.19
   1   3 -12   11.46    1.31
   1   3 -12   13.63    1.34
   1   3 -12   17.95    2.16
  -1  -3  12   12.99    1.42
  -1  -3  12   14.08    1.57
   5   2 -12    1.51    0.78
  -5  -2  12    1.65    0.81
   4   2 -12   -0.36    0.68
   4   2 -12    1.26    0.71
  -4  -2  12    0.92    0.73
  -4  -2  12    0.20    0.57
   3   2 -12   11.53    1.29
   3   2 -12   12.93    1.27
  -3  -2  12   12.41    1.28
  -3  -2  12   11.14    1.08
  -3  -2  12   10.45    1.04
   2   2 -12   34.37    1.57
   2   2 -12   34.35    1.56
   2   2 -12   33.49    1.77
  -2  -2  12   33.16    1.49
  -2  -2  12   33.25    1.69
  -2  -2  12   32.33    1.60
   1   2 -12    1.04    0.64
   1   2 -12   -0.51    0.74
   1   2 -12    0.00    0.63
  -1  -2  12   -1.07    0.67
  -1  -2  12   -0.14    0.68
  -1  -2  12    0.22    0.72
   0   2 -12    1.05    0.68
   0   2 -12    0.05    0.62
   0   2 -12    0.45    0.63
   0  -2  12    0.75    0.70
   0  -2  12    0.51    0.71
   0  -2  12   -0.88    0.75
  -1   2 -12    5.54    0.79
  -1   2 -12    4.59    0.76
  -1   2 -12    4.05    0.61
  -1   2 -12    3.63    0.89
   1  -2  12    3.02    0.81
   1  -2  12    3.44    0.90
   1  -2  12    4.89    0.87
   2  -2  12   41.58    2.04
   5   1 -12    1.30    0.74
   5   1 -12    0.75    0.71
  -5  -1  12    0.49    0.50
  -5  -1  12    0.09    0.69
   4   1 -12   24.97    1.42
   4   1 -12   24.10    1.45
  -4  -1  12   22.41    1.56
  -4  -1  12   23.40    1.13
  -4  -1  12   22.30    1.42
   3   1 -12    0.57    0.58
   3   1 -12    1.27    0.66
  -3  -1  12    2.05    0.70
  -3  -1  12    2.43    0.74
  -3  -1  12    0.88    0.73
   2   1 -12    4.93    0.73
   2   1 -12    5.16    0.88
   2   1 -12    4.19    0.71
  -2  -1  12    4.04    0.75
  -2  -1  12    3.94    0.77
  -2  -1  12    3.96    0.70
   1   1 -12   18.56    1.45
   1   1 -12   16.78    1.15
   1   1 -12   18.18    1.38
   1   1 -12   19.34    1.23
  -1  -1  12   17.73    1.24
  -1  -1  12   16.73    1.25
  -1  -1  12   16.65    1.25
   0   1 -12    6.40    0.79
   0   1 -12    6.49    0.73
   0   1 -12    7.43    0.83
   0   1 -12    7.46    0.86
   0  -1  12    6.90    0.87
   0  -1  12    8.40    0.83
   0  -1  12    6.20    0.84
  -1   1 -12   51.59    1.64
  -1   1 -12   52.78    1.65
  -1   1 -12   56.15    1.76
   1  -1  12   55.44    1.92
   1  -1  12   56.45    1.74
   1  -1  12   52.15    1.95
  -2   1 -12   22.91    1.58
  -2   1 -12   20.37    1.22
   2  -1  12   22.87    1.42
   2  -1  12   21.30    1.57
   2  -1  12   20.07    1.28
  -3   1 -12   46.82    2.12
  -3   1 -12   49.46    1.71
  -3   1 -12   50.55    1.78
  -3   1 -12   49.22    1.64
   3  -1  12   47.78    1.69
   3  -1  12   48.23    2.11
   3  -1  12   50.25    1.89
   6   0 -12    9.17    1.13
  -6   0  12    9.31    1.22
  -6   0  12   10.66    1.33
   5   0 -12    3.38    0.93
   5   0 -12    1.72    0.72
   5   0 -12    1.38    0.68
  -5   0  12    2.43    0.74
  -5   0  12    3.27    0.56
  -5   0  12    2.46    0.76
   4   0 -12   94.54    2.55
   4   0 -12   94.94    2.79
   4   0 -12   95.42    2.48
  -4   0  12   93.44    1.95
  -4   0  12   93.48    2.15
  -4   0  12   99.72    2.61
  -4   0  12  100.64    2.54
   3   0 -12    5.08    0.72
  -3   0  12    5.73    0.70
  -3   0  12    6.10    0.83
  -3   0  12    5.90    0.78
  -3   0  12    6.85    0.90
   2   0 -12   -0.21    0.67
   2   0 -12   -0.01    0.57
   2   0 -12   -1.04    0.60
   2   0 -12    0.92    0.52
  -2   0  12    0.59    0.52
  -2   0  12    0.08    0.74
  -2   0  12   -0.20    0.61
  -2   0  12   -0.48    0.59
   1   0 -12    6.56    0.82
   1   0 -12    7.19    0.85
   1   0 -12    6.80    0.78
   1   0 -12    7.50    0.91
  -1   0  12    7.47    0.99
  -1   0  12    8.72    1.01
  -1   0  12    8.78    1.01
   0   0 -12   42.86    1.55
   0   0 -12   41.37    1.38
   0   0 -12   41.49    1.65
   0   0  12   47.34    1.44
   0   0  12   44.97    1.68
   0   0  12   42.31    1.68
   0   0  12   46.23    1.63
  -1   0 -12  151.90    3.18
  -1   0 -12  153.69    2.99
  -1   0 -12  152.59    3.10
   1   0  12  152.80    3.41
   1   0  12  156.39    2.98
   1   0  12  146.24    3.27
   1   0  12  149.69    3.35
  -2   0 -12   -0.12    0.64
  -2   0 -12   -0.18    0.45
  -2   0 -12    0.85    0.51
  -2   0 -12   -0.11    0.53
   2   0  12    0.18    0.61
   2   0  12   -0.62    0.70
   2   0  12    1.14    0.72
   2   0  12    0.27    0.50
  -3   0 -12   23.68    1.57
  -3   0 -12   23.84    1.23
  -3   0 -12   26.82    1.33
  -3   0 -12   24.67    1.14
   3   0  12   22.25    1.40
   3   0  12   24.31    1.72
   3   0  12   26.65    1.65
   3   0  12   21.88    1.34
  -4   0 -12    4.33    0.72
  -4   0 -12    2.67    0.58
  -4   0 -12    1.93    0.84
  -4   0 -12    3.41    0.79
   4   0  12    4.21    0.81
   4   0  12    3.45    0.98
   5  -1 -12    0.23    0.86
   5  -1 -12    0.25    0.67
   5  -1 -12    0.26    0.65
  -5   1  12    0.35    0.68
  -5   1  12   -0.01    0.67
  -5   1  12   -0.42    0.60
  -5   1  12    0.42    0.52
   4  -1 -12   82.80    2.40
   4  -1 -12   86.38    2.64
   4  -1 -12   87.67    2.32
  -4   1  12   87.55    2.07
  -4   1  12   86.25    2.41
  -4   1  12   85.21    2.15
  -4   1  12   87.43    2.37
   3  -1 -12    3.58    0.77
   3  -1 -12    3.57    0.67
   3  -1 -12    4.00    0.66
  -3   1  12    3.32    0.74
  -3   1  12    3.88    0.70
  -3   1  12    4.66    0.74
  -3   1  12    4.55    0.64
  -3   1  12    5.13    0.56
   2  -1 -12   -0.31    0.72
   2  -1 -12    0.59    0.55
   2  -1 -12    0.81    0.71
   2  -1 -12    0.88    0.51
  -2   1  12    0.53    0.54
  -2   1  12    1.08    0.59
  -2   1  12    0.54    0.50
   1  -1 -12   60.74    1.63
   1  -1 -12   60.95    1.85
   1  -1 -12   63.48    1.98
  -1   1  12   60.70    1.67
  -1   1  12   61.28    1.83
  -1   1  12   62.94    1.76
  -1   1  12   58.00    1.85
   0  -1 -12    0.09    0.64
   0  -1 -12    1.26    0.54
   0  -1 -12    1.96    0.45
   0   1  12    1.39    0.57
   0   1  12    1.15    0.55
   0   1  12    1.31    0.67
   0   1  12    0.39    0.64
  -1  -1 -12  118.28    2.66
  -1  -1 -12  116.79    2.33
  -1  -1 -12  116.33    2.61
  -1  -1 -12  117.44    2.60
   1   1  12  114.77    2.31
   1   1  12  114.95    2.73
   1   1  12  111.83    2.69
   1   1  12  112.59    2.75
   1   1  12  113.48    2.78
  -2  -1 -12   22.86    1.21
  -2  -1 -12   23.61    0.92
  -2  -1 -12   24.31    1.33
  -2  -1 -12   23.16    1.11
   2   1  12   25.57    1.41
   2   1  12   24.18    1.41
   2   1  12   24.26    0.92
   2   1  12   23.77    1.26
   2   1  12   24.38    1.69
  -3  -1 -12   -0.18    0.57
  -3  -1 -12    0.37    0.47
  -3  -1 -12    0.64    0.47
   3   1  12    0.01    0.40
   3   1  12    0.07    0.55
   3   1  12   -0.60    0.68
   3   1  12    0.78    0.68
   3   1  12   -0.23    0.73
  -4  -1 -12    1.41    0.70
  -4  -1 -12    1.21    0.55
  -4  -1 -12    0.79    0.46
   4   1  12    1.22    0.44
   4   1  12    3.16    0.79
   4   1  12   -0.28    0.72
   4   1  12    1.92    0.66
   5   1  12    6.64    0.96
   5   1  12    6.65    0.87
   5   1  12    6.46    1.06
   5  -2 -12    9.80    1.01
   5  -2 -12   10.94    1.24
   5  -2 -12   11.01    1.29
  -5   2  12   10.98    1.33
  -5   2  12   10.64    1.25
  -5   2  12   12.36    1.22
   4  -2 -12   46.60    2.02
   4  -2 -12   46.28    1.79
   4  -2 -12   49.36    1.74
  -4   2  12   47.20    1.65
  -4   2  12   45.40    1.76
  -4   2  12   47.28    1.77
   3  -2 -12    4.13    0.91
   3  -2 -12    4.80    0.66
   3  -2 -12    4.73    0.88
   3  -2 -12    6.10    0.76
  -3   2  12    5.97    0.76
  -3   2  12    4.98    0.77
  -3   2  12    6.40    0.56
  -3   2  12    4.57    0.79
   2  -2 -12    1.57    0.49
   2  -2 -12    2.61    0.73
   2  -2 -12    2.31    0.65
  -2   2  12    2.53    0.64
  -2   2  12    1.30    0.46
  -2   2  12    2.36    0.57
   1  -2 -12   50.26    1.89
   1  -2 -12   52.10    1.70
   1  -2 -12   48.84    1.44
  -1   2  12   52.90    1.73
  -1   2  12   51.43    1.51
  -1   2  12   53.42    1.67
   0  -2 -12    1.03    0.75
   0  -2 -12    0.19    0.57
   0  -2 -12    0.50    0.35
   0   2  12    0.97    0.62
   0   2  12    0.62    0.55
   0   2  12    1.09    0.59
   0   2  12    0.79    0.53
   0   2  12    0.97    0.67
  -1  -2 -12   41.72    1.15
  -1  -2 -12   40.66    1.54
  -1  -2 -12   43.91    1.49
  -1  -2 -12   40.93    1.42
   1   2  12   43.20    1.61
   1   2  12   40.61    1.81
   1   2  12   42.11    1.60
   1   2  12   39.52    1.60
   1   2  12   42.62    1.54
  -2  -2 -12   10.35    0.88
  -2  -2 -12    9.78    0.61
  -2  -2 -12   10.86    0.98
  -2  -2 -12    9.35    1.04
   2   2  12   10.33    1.13
   2   2  12    9.57    1.03
   2   2  12    8.60    1.00
   2   2  12    8.89    1.18
   2   2  12    9.20    1.14
   2   2  12    9.40    0.63
  -3  -2 -12    0.83    0.43
  -3  -2 -12   -0.23    0.51
  -3  -2 -12    0.93    0.54
   3   2  12   -0.48    0.62
   3   2  12   -0.65    0.62
   3   2  12   -0.36    0.76
   3   2  12    0.08    0.56
  -4  -2 -12   31.30    1.07
  -4  -2 -12   30.91    1.69
  -4  -2 -12   31.39    1.16
  -4  -2 -12   29.33    1.12
   4   2  12   27.74    1.50
   4   2  12   27.62    1.75
   4   2  12   29.78    1.71
   4   2  12   29.01    1.60
   4   2  12   30.53    1.38
  -5  -2 -12    1.62    0.76
   5   2  12    0.85    0.80
   5   2  12    3.07    0.69
   5   2  12    3.11    0.83
  -6  -2 -12   18.97    1.66
   6   2  12   17.53    1.30
   6   2  12   15.99    1.47
   5  -3 -12   11.48    1.38
  -5   3  12   12.64    1.30
  -5   3  12   13.32    1.37
  -5   3  12   10.70    1.22
   4  -3 -12    4.03    0.74
   4  -3 -12    4.91    0.91
   4  -3 -12    5.15    0.81
  -4   3  12    4.37    0.75
  -4   3  12    4.33    0.82
  -4   3  12    5.54    0.83
   3  -3 -12   16.91    1.15
   3  -3 -12   17.27    1.24
   3  -3 -12   16.39    1.44
  -3   3  12   19.14    1.20
  -3   3  12   18.66    1.25
  -3   3  12   18.24    1.33
  -3   3  12   18.59    1.30
   2  -3 -12    9.57    0.89
   2  -3 -12   10.95    1.29
   2  -3 -12   10.58    1.07
  -2   3  12   11.32    1.00
  -2   3  12   11.51    1.08
  -2   3  12   12.30    1.15
  -2   3  12   10.69    1.39
  -2   3  12    9.94    0.72
   1  -3 -12   42.52    1.58
   1  -3 -12   45.49    1.82
   1  -3 -12   45.03    2.08
   1  -3 -12   45.35    1.32
  -1   3  12   45.05    1.34
  -1   3  12   43.51    1.61
  -1   3  12   44.35    1.45
  -1   3  12   43.57    1.88
   0  -3 -12    1.58    0.94
   0  -3 -12    0.57    0.58
   0  -3 -12    0.85    0.36
   0  -3 -12    1.75    0.53
   0   3  12   -0.19    0.59
   0   3  12    1.53    0.56
   0   3  12    1.51    0.69
   0   3  12    1.08    0.55
   0   3  12    1.24    0.46
  -1  -3 -12    0.26    0.31
  -1  -3 -12   -0.05    0.52
  -1  -3 -12    0.28    0.56
   1   3  12   -0.77    0.54
   1   3  12   -0.34    0.59
   1   3  12   -1.21    0.50
   1   3  12    0.34    0.69
  -2  -3 -12   18.22    1.05
  -2  -3 -12   18.21    0.97
  -2  -3 -12   17.65    1.24
   2   3  12   15.35    1.20
   2   3  12   17.05    1.12
   2   3  12   16.82    1.23
   2   3  12   16.18    1.44
   2   3  12   17.75    1.21
  -3  -3 -12    1.58    0.54
  -3  -3 -12    1.39    0.44
  -3  -3 -12    0.32    0.58
   3   3  12    0.22    0.63
   3   3  12    1.00    0.72
   3   3  12    1.31    0.54
   3   3  12    0.36    0.69
   3   3  12    0.87    0.61
  -4  -3 -12   42.10    1.27
  -4  -3 -12   36.88    2.15
  -4  -3 -12   41.47    1.20
   4   3  12   40.02    1.76
   4   3  12   42.30    1.95
   4   3  12   41.02    1.49
   4   3  12   40.06    1.62
  -5  -3 -12    1.92    0.74
  -5  -3 -12    0.80    0.51
   5   3  12    1.23    0.74
   5   3  12    0.07    0.59
   5   3  12    1.69    0.86
   5   3  12    1.35    0.76
  -6  -3 -12   -0.26    0.64
   6   3  12    0.44    0.76
   6   3  12    0.53    0.80
   6   3  12   -0.21    0.62
   4  -4 -12    0.43    0.64
   4  -4 -12    1.02    0.82
   4  -4 -12   -0.04    0.67
  -4   4  12    0.90    0.64
  -4   4  12    0.58    0.79
  -4   4  12    0.82    0.69
   3  -4 -12   40.79    1.65
   3  -4 -12   40.70    1.90
   3  -4 -12   43.22    1.58
  -3   4  12   44.03    1.70
  -3   4  12   40.72    1.68
  -3   4  12   41.24    1.62
   2  -4 -12   37.85    1.38
   2  -4 -12   39.32    1.56
   2  -4 -12   35.74    1.80
   2  -4 -12   38.59    1.78
  -2   4  12   40.32    1.65
  -2   4  12   39.21    1.48
  -2   4  12   37.06    1.60
  -2   4  12   42.29    1.61
  -2   4  12   39.62    1.83
   1  -4 -12    2.32    0.59
   1  -4 -12    3.06    0.49
   1  -4 -12    2.32    0.72
  -1   4  12    2.39    0.64
  -1   4  12    2.82    0.52
  -1   4  12    2.52    0.82
  -1   4  12    1.93    0.53
   0  -4 -12    0.25    0.33
   0  -4 -12   -0.29    0.62
   0  -4 -12    0.99    0.64
   0  -4 -12   -0.22    0.47
   0   4  12   -0.10    0.64
   0   4  12    1.11    0.55
   0   4  12    0.17    0.89
   0   4  12    0.24    0.46
  -1  -4 -12   12.06    1.25
  -1  -4 -12   11.97    0.65
  -1  -4 -12   13.71    0.99
  -1  -4 -12   13.36    1.00
   1   4  12   13.35    1.35
   1   4  12   12.88    0.81
   1   4  12   14.35    1.05
   1   4  12   14.21    1.06
   1   4  12   13.00    1.13
  -2  -4 -12   50.25    1.56
  -2  -4 -12   48.12    1.74
   2   4  12   48.17    1.71
   2   4  12   49.71    1.91
   2   4  12   53.08    1.67
   2   4  12   50.79    1.71
  -3  -4 -12   15.75    1.01
  -3  -4 -12   18.44    1.26
  -3  -4 -12   17.65    0.95
   3   4  12   18.50    1.13
   3   4  12   16.67    1.48
   3   4  12   15.91    1.27
   3   4  12   15.83    1.26
  -4  -4 -12   35.07    1.18
  -4  -4 -12   34.21    1.11
  -4  -4 -12   33.06    1.43
   4   4  12   35.87    1.40
   4   4  12   34.63    1.78
   4   4  12   34.72    1.52
   4   4  12   34.89    1.66
  -5  -4 -12    2.26    0.73
  -5  -4 -12    1.53    0.64
   5   4  12    0.95    0.81
   5   4  12    2.08    0.63
   5   4  12    2.05    0.86
   5   4  12    3.20    0.77
   5   4  12    4.06    0.79
  -6  -4 -12    0.98    0.65
  -6  -4 -12   -0.64    0.63
   6   4  12    0.02    0.61
   6   4  12   -0.17    0.84
   6   4  12   -0.65    0.72
   6   4  12    0.90    0.72
   7   4  12   47.34    2.22
   7   4  12   53.85    1.91
   7   4  12   53.66    1.77
   4  -5 -12    1.76    0.77
  -4   5  12   -0.14    0.76
  -4   5  12    0.95    0.66
   3  -5 -12   43.73    1.66
   3  -5 -12   45.52    2.05
   3  -5 -12   44.34    1.78
  -3   5  12   44.37    1.74
  -3   5  12   44.64    1.81
   2  -5 -12   37.41    1.79
   2  -5 -12   37.69    1.44
   2  -5 -12   39.04    1.61
  -2   5  12   36.80    1.92
  -2   5  12   40.67    1.62
  -2   5  12   37.97    1.51
   1  -5 -12    5.22    0.85
   1  -5 -12    4.96    0.75
   1  -5 -12    6.24    0.64
   1  -5 -12    6.72    0.78
   1  -5 -12    7.51    0.96
  -1   5  12    7.93    1.00
  -1   5  12    6.52    0.82
  -1   5  12    7.10    0.88
  -1   5  12    6.78    0.90
   0  -5 -12   20.76    0.90
   0  -5 -12   19.36    1.15
   0  -5 -12   18.15    1.32
   0   5  12   17.76    1.48
   0   5  12   19.12    1.11
   0   5  12   20.51    1.21
   0   5  12   18.55    1.02
  -1  -5 -12    0.50    0.63
  -1  -5 -12    0.40    0.59
  -1  -5 -12    0.21    0.76
  -1  -5 -12    1.00    0.51
  -1  -5 -12    1.19    0.33
   1   5  12    0.75    0.58
   1   5  12    1.12    0.64
   1   5  12    1.15    0.72
   1   5  12    1.41    0.52
   1   5  12    1.50    0.57
  -2  -5 -12  170.86    3.61
  -2  -5 -12  165.68    3.34
  -2  -5 -12  163.61    3.30
   2   5  12  168.93    3.61
   2   5  12  163.76    3.46
   2   5  12  165.92    3.50
   2   5  12  166.00    3.64
   2   5  12  167.01    3.48
  -3  -5 -12  107.27    2.34
  -3  -5 -12  107.56    2.63
   3   5  12  107.35    2.74
   3   5  12  104.36    2.52
   3   5  12  101.25    2.56
   3   5  12  106.61    2.63
   3   5  12  105.24    2.64
  -4  -5 -12   22.83    1.03
  -4  -5 -12   21.56    0.94
  -4  -5 -12   23.89    1.35
   4   5  12   23.96    1.33
   4   5  12   20.82    1.52
   4   5  12   22.09    1.22
   4   5  12   22.39    1.34
  -5  -5 -12    2.03    0.70
  -5  -5 -12    1.62    0.42
  -5  -5 -12    1.74    0.70
   5   5  12    0.79    0.78
   5   5  12    1.08    0.59
   5   5  12    1.88    0.81
   5   5  12    2.20    0.65
   5   5  12    0.75    0.68
   5   5  12    3.62    0.73
  -6  -5 -12    3.13    0.75
  -6  -5 -12    1.60    0.73
   6   5  12    1.62    0.76
   6   5  12    1.58    0.73
   6   5  12    1.78    0.62
   6   5  12    3.19    0.92
  -7  -5 -12   64.58    1.95
  -7  -5 -12   67.32    2.41
   7   5  12   65.88    2.42
   7   5  12   65.78    2.06
   7   5  12   65.31    2.41
   7   5  12   66.03    1.96
   7   5  12   68.73    1.95
   3  -6 -12   15.65    1.72
   3  -6 -12   17.17    1.38
  -3   6  12   16.38    1.44
  -3   6  12   15.71    1.30
  -3   6  12   19.15    1.70
   2  -6 -12    3.73    0.88
   2  -6 -12    3.43    0.77
   2  -6 -12    2.92    0.65
  -2   6  12    3.00    0.65
  -2   6  12    4.31    0.83
  -2   6  12    0.78    0.82
   1  -6 -12    5.55    0.66
   1  -6 -12    5.60    0.81
   1  -6 -12    6.46    0.91
  -1   6  12    6.17    0.73
  -1   6  12    7.42    1.03
  -1   6  12    9.29    1.14
   0  -6 -12    0.27    0.42
   0  -6 -12    1.13    0.79
   0  -6 -12    0.83    0.67
   0  -6 -12    1.04    0.65
   0  -6 -12    0.67    0.58
   0   6  12   -0.18    0.56
   0   6  12    0.75    0.77
   0   6  12    0.41    0.53
  -1  -6 -12   27.78    1.47
  -1  -6 -12   26.56    0.93
  -1  -6 -12   26.91    1.28
   1   6  12   23.23    1.27
   1   6  12   28.66    1.47
   1   6  12   25.83    1.59
   1   6  12   24.77    1.03
   1   6  12   28.37    1.59
   1   6  12   24.50    1.28
  -2  -6 -12   73.63    1.94
  -2  -6 -12   73.25    1.96
   2   6  12   70.85    2.03
   2   6  12   70.82    2.13
   2   6  12   75.14    2.28
   2   6  12   74.21    1.59
   2   6  12   73.95    2.08
   2   6  12   72.34    2.25
  -3  -6 -12   44.44    1.76
  -3  -6 -12   42.62    1.42
  -3  -6 -12   41.57    1.41
   3   6  12   42.20    1.78
   3   6  12   43.47    1.68
   3   6  12   46.11    1.69
   3   6  12   42.73    1.54
   3   6  12   39.77    1.76
  -4  -6 -12    4.91    0.62
  -4  -6 -12    4.55    0.76
   4   6  12    6.10    0.83
   4   6  12    6.37    0.88
   4   6  12    6.08    0.84
   4   6  12    5.08    0.72
  -5  -6 -12    1.75    0.47
  -5  -6 -12    2.73    0.43
  -5  -6 -12    1.95    0.77
  -5  -6 -12    0.60    0.69
   5   6  12    2.65    0.64
   5   6  12    1.34    0.68
   5   6  12    1.68    0.81
   5   6  12    0.90    0.71
   5   6  12    0.89    0.83
  -6  -6 -12    0.35    0.73
  -6  -6 -12   -0.28    0.66
   6   6  12   -0.87    0.58
   6   6  12   -0.39    0.71
   6   6  12    0.24    0.66
   6   6  12   -0.18    0.79
  -7  -6 -12   37.03    1.74
  -7  -6 -12   36.14    1.82
   7   6  12   35.65    1.90
   7   6  12   33.55    1.49
   7   6  12   36.22    1.64
   7   6  12   34.56    1.89
   7   6  12   31.77    1.64
   2  -7 -12    1.60    0.71
   2  -7 -12    1.32    0.87
  -2   7  12   -0.29    0.62
  -2   7  12    0.48    0.77
   1  -7 -12   25.94    1.34
   1  -7 -12   18.97    1.37
   1  -7 -12   21.07    1.65
  -1   7  12   22.50    1.31
  -1   7  12   23.46    1.46
   0  -7 -12   32.43    1.51
   0  -7 -12   32.73    1.69
   0  -7 -12   27.82    1.39
   0   7  12   31.59    1.82
   0   7  12   32.13    1.35
   0   7  12   29.15    2.00
   0   7  12   33.20    1.55
   0   7  12   28.70    1.82
  -1  -7 -12   98.88    2.67
  -1  -7 -12  102.85    2.12
  -1  -7 -12   99.24    2.50
  -1  -7 -12   98.28    2.49
   1   7  12   96.97    2.56
   1   7  12  101.48    2.74
   1   7  12   99.29    2.24
   1   7  12  101.12    2.86
   1   7  12  100.15    2.79
  -2  -7 -12    5.18    0.62
  -2  -7 -12    4.77    0.89
  -2  -7 -12    4.12    0.68
  -2  -7 -12    5.59    0.82
  -2  -7 -12    4.74    0.48
   2   7  12    6.32    0.80
   2   7  12    5.05    0.89
   2   7  12    5.45    0.88
   2   7  12    4.55    0.89
   2   7  12    5.27    0.88
   2   7  12    4.67    0.80
  -3  -7 -12    1.43    0.61
  -3  -7 -12    2.19    0.60
   3   7  12    1.49    0.64
   3   7  12    2.20    0.72
   3   7  12    2.67    0.82
   3   7  12    2.79    0.75
   3   7  12    0.98    0.71
  -4  -7 -12    0.98    0.58
  -4  -7 -12    1.98    0.53
   4   7  12    1.14    0.76
   4   7  12   -0.28    0.66
   4   7  12    1.51    0.61
   4   7  12    2.16    0.77
  -5  -7 -12    6.89    0.83
   5   7  12    5.50    0.86
   5   7  12    7.44    1.10
   5   7  12    5.25    0.89
   5   7  12    6.36    0.90
   5   7  12    6.62    0.81
  -6  -7 -12    9.53    1.28
   6   7  12    7.86    0.96
   6   7  12    7.63    0.95
   6   7  12    9.24    1.09
   6   7  12    8.01    0.96
  -7  -7 -12    2.48    0.79
   7   7  12    2.94    0.74
   7   7  12    3.57    0.91
   7   7  12    3.99    0.86
   7   7  12    1.92    0.83
   0  -8 -12    2.60    0.79
   0  -8 -12    3.57    0.89
   0  -8 -12    2.87    0.82
   0  -8 -12    2.83    0.66
   0   8  12    2.76    0.97
   0   8  12    2.16    0.80
   0   8  12    2.97    0.68
  -1  -8 -12   42.44    1.58
  -1  -8 -12   39.62    1.67
  -1  -8 -12   41.88    1.39
  -1  -8 -12   36.55    1.43
  -1  -8 -12   37.65    1.78
   1   8  12   40.81    2.05
   1   8  12   42.18    2.00
   1   8  12   40.21    1.72
   1   8  12   41.57    1.46
  -2  -8 -12    1.83    0.70
  -2  -8 -12    2.26    0.66
  -2  -8 -12    1.30    0.46
  -2  -8 -12    1.46    0.52
  -2  -8 -12    2.26    0.71
  -2  -8 -12    0.94    0.68
   2   8  12    2.24    0.83
   2   8  12    2.06    0.56
   2   8  12    1.99    0.84
   2   8  12    1.61    0.70
  -3  -8 -12   11.01    1.22
  -3  -8 -12   12.13    1.11
   3   8  12   12.16    1.37
   3   8  12   11.02    1.20
   3   8  12   12.83    1.54
   3   8  12   11.15    1.40
  -4  -8 -12   14.01    1.89
  -4  -8 -12   11.38    1.05
  -4  -8 -12   11.69    1.12
  -4  -8 -12   10.90    1.28
   4   8  12   13.12    1.36
   4   8  12   14.23    1.50
   4   8  12   15.48    1.40
   4   8  12   10.95    1.16
  -5  -8 -12   16.11    1.08
  -5  -8 -12   16.39    1.00
  -5  -8 -12   14.62    1.59
   5   8  12   16.68    1.51
   5   8  12   17.34    1.42
   5   8  12   16.60    1.28
   5   8  12   14.71    1.43
   5   8  12   14.75    1.59
  -6  -8 -12   32.91    1.65
  -6  -8 -12   32.97    1.90
   6   8  12   32.65    1.80
   6   8  12   32.83    1.73
   6   8  12   33.04    1.53
   6   8  12   33.62    1.65
  -7  -8 -12   -0.53    0.70
  -7  -8 -12   -1.21    0.93
   7   8  12    1.11    0.71
   7   8  12    2.12    0.83
   7   8  12    1.25    0.87
   7   8  12    0.18    0.85
  -1  -9 -12   14.21    1.35
  -1  -9 -12   11.94    1.16
  -1  -9 -12   12.61    1.40
  -1  -9 -12   16.11    1.63
   1   9  12   12.03    1.18
   1   9  12   14.22    1.74
  -2  -9 -12    0.53    0.55
  -2  -9 -12    1.02    0.78
  -2  -9 -12    1.77    0.76
  -2  -9 -12    0.82    0.76
   2   9  12    0.89    0.93
   2   9  12    1.45    0.87
   2   9  12    1.15    0.59
   2   9  12    3.65    0.97
  -3  -9 -12   22.21    1.48
  -3  -9 -12   22.24    0.98
  -3  -9 -12   25.84    1.57
  -3  -9 -12   21.09    1.45
  -3  -9 -12   25.49    1.42
   3   9  12   19.61    1.46
   3   9  12   22.44    1.67
   3   9  12   22.67    1.84
   3   9  12   22.16    1.12
  -4  -9 -12   27.43    1.66
  -4  -9 -12   29.77    1.40
   4   9  12   27.00    1.63
   4   9  12   27.50    1.83
   4   9  12   25.13    1.49
  -5  -9 -12    1.50    0.99
  -5  -9 -12    0.27    0.85
  -5  -9 -12    2.17    0.69
   5   9  12   -0.28    0.78
   5   9  12    0.73    0.67
   5   9  12    0.14    0.76
  -6  -9 -12    3.53    0.95
  -6  -9 -12    3.34    0.79
   6   9  12    1.85    0.79
   6   9  12    2.17    0.75
   6   9  12    2.15    0.95
   4   1 -13   -0.01    0.73
  -4  -1  13    0.90    0.72
  -4  -1  13    1.12    0.82
   3   1 -13   70.43    2.14
   3   1 -13   71.43    2.28
  -3  -1  13   68.33    2.27
  -3  -1  13   68.69    2.27
  -3  -1  13   69.67    2.04
   2   1 -13   13.32    1.23
   2   1 -13   13.86    1.30
  -2  -1  13   13.74    1.39
  -2  -1  13   11.29    1.06
  -2  -1  13    9.59    1.23
   1   1 -13   -0.89    0.79
   1   1 -13   -0.24    0.61
   1   1 -13    0.03    0.66
  -1  -1  13   -0.25    0.70
  -1  -1  13   -0.08    0.72
  -1  -1  13    1.52    0.75
   0   1 -13   16.96    1.52
   0   1 -13   21.36    1.40
   0   1 -13   20.45    1.28
   0  -1  13   22.32    1.54
   0  -1  13   23.93    1.47
   0  -1  13   21.08    1.54
  -1   1 -13   34.70    1.55
  -1   1 -13   33.40    1.47
   1  -1  13   35.74    1.85
   1  -1  13   30.54    1.61
   4   0 -13   -0.81    0.67
  -4   0  13    1.10    0.81
   3   0 -13   63.56    2.15
   3   0 -13   62.32    1.97
  -3   0  13   62.93    2.11
  -3   0  13   63.41    2.12
  -3   0  13   61.91    1.79
  -3   0  13   62.97    1.88
   2   0 -13   -0.45    0.64
   2   0 -13   -1.59    0.87
   2   0 -13    0.64    0.57
  -2   0  13    1.13    0.67
  -2   0  13   -0.21    0.69
  -2   0  13    1.61    0.72
  -2   0  13    0.39    0.75
   1   0 -13   47.33    1.74
   1   0 -13   46.66    1.60
   1   0 -13   46.27    1.91
  -1   0  13   47.22    1.70
  -1   0  13   44.82    1.76
  -1   0  13   47.60    1.80
   0   0 -13   33.28    1.71
   0   0 -13   32.90    1.49
   0   0 -13   33.84    1.35
   0   0  13   35.26    1.63
   0   0  13   32.97    1.38
   0   0  13   31.33    1.58
  -1   0 -13   20.04    1.32
  -1   0 -13   19.51    1.26
  -1   0 -13   19.45    1.43
  -1   0 -13   17.47    1.24
   1   0  13   22.05    1.42
   1   0  13   20.60    1.17
   1   0  13   18.25    1.50
  -2   0 -13   81.44    2.14
   2   0  13   80.45    1.98
   2   0  13   77.44    2.50
   2   0  13   78.56    2.36
  -3   0 -13    4.25    0.72
  -3   0 -13    3.13    1.07
  -3   0 -13    1.24    0.81
   3   0  13    2.49    0.97
   3   0  13    3.23    0.85
   4  -1 -13   -0.86    0.81
   4  -1 -13    0.98    0.73
   4  -1 -13    0.63    0.65
  -4   1  13    0.39    0.70
  -4   1  13    0.37    0.75
  -4   1  13   -1.19    0.61
  -4   1  13   -0.37    0.65
   3  -1 -13   32.03    1.45
   3  -1 -13   28.83    1.52
  -3   1  13   28.05    1.12
  -3   1  13   29.48    1.46
  -3   1  13   29.15    1.36
  -3   1  13   28.48    1.56
   2  -1 -13   -0.16    0.56
   2  -1 -13   -0.40    0.75
   2  -1 -13    1.21    0.64
  -2   1  13    1.48    0.72
  -2   1  13    1.35    0.65
  -2   1  13    1.11    0.62
   1  -1 -13    3.59    0.60
   1  -1 -13    3.49    1.00
   1  -1 -13    3.68    0.73
  -1   1  13    3.96    0.66
  -1   1  13    3.53    0.80
  -1   1  13    2.79    0.72
  -1   1  13    4.46    0.74
   0  -1 -13   30.18    1.21
   0  -1 -13   30.77    1.53
   0  -1 -13   30.81    1.41
   0  -1 -13   29.09    1.58
   0   1  13   30.24    1.25
   0   1  13   28.05    1.49
   0   1  13   31.70    1.50
   0   1  13   29.61    1.52
  -1  -1 -13    1.45    0.62
  -1  -1 -13    0.93    0.69
  -1  -1 -13    1.65    0.49
  -1  -1 -13    1.60    0.71
   1   1  13    2.09    0.72
   1   1  13    2.94    0.73
  -2  -1 -13   66.85    1.90
  -2  -1 -13   65.34    1.86
  -2  -1 -13   61.78    1.59
   2   1  13   63.52    1.58
   2   1  13   62.27    2.23
   2   1  13   66.94    2.25
   2   1  13   68.92    2.08
  -3  -1 -13    1.60    0.60
  -3  -1 -13    2.19    0.86
  -3  -1 -13    2.49    0.74
   3   1  13    1.91    0.85
   3   1  13    2.74    0.72
   3   1  13    1.85    0.84
  -4  -1 -13    0.54    0.79
  -4  -1 -13    0.97    0.61
   4   1  13    0.47    0.71
   4   1  13   -0.12    1.11
   4  -2 -13    4.09    1.06
   4  -2 -13    2.66    0.83
   4  -2 -13    2.30    0.72
  -4   2  13    3.03    0.82
  -4   2  13    2.15    0.77
  -4   2  13    2.07    0.70
   3  -2 -13   -0.50    0.58
   3  -2 -13    0.33    0.82
   3  -2 -13    0.35    0.67
  -3   2  13   -0.27    0.58
  -3   2  13   -0.19    0.70
  -3   2  13   -0.15    0.56
   2  -2 -13   30.68    1.72
   2  -2 -13   29.41    1.80
   2  -2 -13   31.58    1.51
   2  -2 -13   30.90    1.31
  -2   2  13   31.54    1.44
  -2   2  13   32.58    1.43
  -2   2  13   34.97    1.58
  -2   2  13   30.70    1.18
   1  -2 -13    7.58    1.21
   1  -2 -13    8.96    0.92
  -1   2  13   10.75    1.07
  -1   2  13    8.76    1.10
  -1   2  13   10.75    1.17
   0  -2 -13   50.55    1.71
   0  -2 -13   48.47    1.42
   0  -2 -13   48.74    1.86
   0  -2 -13   47.51    1.77
   0   2  13   50.00    1.79
   0   2  13   50.29    1.79
   0   2  13   50.85    1.75
  -1  -2 -13    6.30    0.83
  -1  -2 -13    7.28    0.74
  -1  -2 -13    7.45    0.80
   1   2  13    7.85    0.97
   1   2  13    7.04    0.83
   1   2  13    8.53    0.95
   1   2  13    7.68    0.91
  -2  -2 -13    6.09    0.65
  -2  -2 -13    6.98    0.83
  -2  -2 -13    5.08    0.71
  -2  -2 -13    5.39    0.82
   2   2  13    6.04    0.85
   2   2  13    6.32    0.83
   2   2  13    7.57    0.96
  -3  -2 -13    6.55    0.79
  -3  -2 -13    6.71    0.69
  -3  -2 -13    6.34    0.75
   3   2  13    6.99    0.93
   3   2  13    5.04    0.79
   3   2  13    7.67    0.95
   3   2  13    4.43    0.99
  -4  -2 -13    0.29    0.48
  -4  -2 -13    1.24    0.62
  -4  -2 -13   -0.47    0.65
   4   2  13    0.02    0.82
   4   2  13    0.88    0.69
   4   2  13   -0.92    0.77
  -5  -2 -13   28.85    1.86
   5   2  13   31.01    1.57
   4  -3 -13   -0.37    0.65
  -4   3  13   -0.05    0.64
  -4   3  13    0.01    0.75
  -4   3  13   -0.03    0.78
   3  -3 -13    6.00    1.02
   3  -3 -13    5.82    0.78
   3  -3 -13    6.79    0.86
  -3   3  13    7.70    0.93
  -3   3  13    7.08    0.92
  -3   3  13    5.47    0.80
   2  -3 -13   47.80    2.07
   2  -3 -13   51.60    1.62
   2  -3 -13   49.64    1.83
  -2   3  13   50.47    1.37
  -2   3  13   51.88    1.72
  -2   3  13   52.48    1.87
   1  -3 -13   45.69    1.40
   1  -3 -13   46.67    1.72
   1  -3 -13   46.10    1.94
  -1   3  13   43.35    1.51
  -1   3  13   44.44    1.68
  -1   3  13   43.91    1.69
   0  -3 -13   11.47    1.18
   0  -3 -13   14.28    0.85
   0  -3 -13   14.25    1.13
   0   3  13   15.53    1.18
   0   3  13   16.08    1.50
   0   3  13   16.38    1.55
   0   3  13   12.79    1.16
  -1  -3 -13   11.91    1.27
  -1  -3 -13   12.77    1.03
  -1  -3 -13   11.13    0.73
   1   3  13   11.91    1.11
   1   3  13   11.65    1.22
   1   3  13   12.65    1.46
   1   3  13   10.72    1.20
   1   3  13   11.26    1.22
  -2  -3 -13    3.57    0.76
  -2  -3 -13    3.13    0.68
  -2  -3 -13    3.48    0.64
   2   3  13    2.58    0.88
   2   3  13    3.94    0.80
   2   3  13    3.90    0.71
   2   3  13    3.57    0.78
   2   3  13    3.42    0.79
  -3  -3 -13   49.73    1.50
  -3  -3 -13   49.42    1.76
  -3  -3 -13   48.46    1.57
   3   3  13   45.41    2.11
   3   3  13   47.98    1.72
   3   3  13   49.96    1.97
   3   3  13   50.29    1.86
  -4  -3 -13    8.89    1.08
  -4  -3 -13    8.96    0.99
  -4  -3 -13    7.58    0.83
  -4  -3 -13    9.06    1.11
   4   3  13   11.02    1.39
   4   3  13    9.27    1.17
   4   3  13   11.98    1.32
   5   3  13   15.90    1.62
   5   3  13   16.36    1.48
   5   3  13   15.81    1.28
   3  -4 -13   20.92    1.76
   3  -4 -13   19.02    1.26
   3  -4 -13   17.05    1.36
  -3   4  13   17.05    1.57
  -3   4  13   19.01    1.42
  -3   4  13   17.90    1.29
   2  -4 -13   29.43    1.31
   2  -4 -13   27.66    1.49
   2  -4 -13   28.84    1.77
  -2   4  13   27.17    1.53
  -2   4  13   28.44    1.63
  -2   4  13   27.11    1.35
   1  -4 -13   42.91    1.95
   1  -4 -13   44.54    1.92
   1  -4 -13   42.09    1.66
   1  -4 -13   43.93    1.38
  -1   4  13   43.98    1.49
  -1   4  13   41.27    1.68
  -1   4  13   41.99    1.35
   0  -4 -13    1.48    0.68
   0  -4 -13    3.44    0.69
   0  -4 -13    1.95    0.45
   0   4  13    2.90    0.80
   0   4  13    2.48    0.55
   0   4  13    1.96    0.66
   0   4  13    1.95    0.67
  -1  -4 -13    1.19    0.57
  -1  -4 -13    1.72    1.02
  -1  -4 -13    1.02    0.35
   1   4  13    0.12    0.65
   1   4  13    1.39    0.68
   1   4  13    2.60    0.81
   1   4  13    2.89    0.65
  -2  -4 -13    3.37    0.78
  -2  -4 -13    4.26    0.69
  -2  -4 -13    3.71    0.64
   2   4  13    3.19    0.67
   2   4  13    3.48    0.86
   2   4  13    4.33    0.81
   2   4  13    2.61    0.75
  -3  -4 -13   74.55    1.93
  -3  -4 -13   71.74    1.86
  -3  -4 -13   77.08    2.18
   3   4  13   69.81    2.42
   3   4  13   69.69    2.17
   3   4  13   73.74    2.31
   3   4  13   72.29    2.09
  -4  -4 -13   11.55    1.03
  -4  -4 -13   11.25    0.86
  -4  -4 -13   10.44    1.26
   4   4  13   11.35    1.18
   4   4  13   11.31    1.48
   4   4  13   12.16    1.16
   4   4  13    9.64    1.05
   4   4  13   14.04    1.38
  -5  -4 -13    8.08    1.07
  -5  -4 -13    7.78    0.86
   5   4  13   11.24    1.18
   5   4  13    9.44    1.04
   5   4  13    7.85    1.01
   5   4  13   11.99    1.67
  -6  -4 -13    2.95    0.98
   6   4  13    4.52    0.82
   6   4  13    5.46    0.97
   3  -5 -13   29.56    1.53
  -3   5  13   32.11    1.56
  -3   5  13   30.08    1.70
   2  -5 -13    2.11    0.65
   2  -5 -13    0.80    0.70
   2  -5 -13    2.09    0.85
  -2   5  13    0.93    0.62
  -2   5  13    3.73    0.80
  -2   5  13   -0.44    0.91
   1  -5 -13   14.42    0.99
   1  -5 -13   14.76    1.48
   1  -5 -13   15.45    1.23
  -1   5  13   15.41    1.27
  -1   5  13   13.75    0.96
  -1   5  13   12.92    1.08
   0  -5 -13    3.63    0.87
   0  -5 -13    1.67    0.83
   0  -5 -13    1.77    0.77
   0  -5 -13    1.63    0.62
   0  -5 -13    1.83    0.45
   0   5  13    2.71    0.89
   0   5  13    3.16    0.59
   0   5  13    3.62    0.68
   0   5  13    1.65    0.63
  -1  -5 -13   42.31    1.60
  -1  -5 -13   40.93    1.13
   1   5  13   43.05    1.65
   1   5  13   43.93    1.98
   1   5  13   44.17    1.64
   1   5  13   47.35    2.60
  -2  -5 -13    8.23    0.81
   2   5  13    8.30    0.91
   2   5  13    6.67    0.84
   2   5  13    8.83    1.18
   2   5  13    8.02    1.00
  -3  -5 -13   56.91    1.64
  -3  -5 -13   58.46    2.00
  -3  -5 -13   53.91    1.67
   3   5  13   53.48    1.82
   3   5  13   54.97    2.01
   3   5  13   53.77    2.16
   3   5  13   53.52    1.92
  -4  -5 -13   12.74    1.36
  -4  -5 -13   14.93    1.07
  -4  -5 -13   13.99    0.91
   4   5  13   14.63    1.19
   4   5  13   13.83    1.37
   4   5  13   14.47    1.61
   4   5  13   15.80    1.32
  -5  -5 -13    5.91    0.87
  -5  -5 -13    6.12    0.96
  -5  -5 -13    7.00    0.77
  -5  -5 -13    6.35    0.73
   5   5  13    8.73    1.06
   5   5  13    7.05    0.82
   5   5  13    7.84    1.08
   5   5  13    8.53    0.89
   5   5  13    8.51    1.00
  -6  -5 -13   21.20    1.64
  -6  -5 -13   24.17    1.52
   6   5  13   21.56    1.58
   6   5  13   24.22    1.80
   6   5  13   20.73    1.38
   6   5  13   23.88    1.40
   6   5  13   22.13    1.87
   2  -6 -13    2.52    0.72
   2  -6 -13    5.62    1.06
  -2   6  13    4.13    0.77
  -2   6  13    3.24    0.85
   1  -6 -13    0.14    0.64
   1  -6 -13   -0.41    0.75
   1  -6 -13   -0.59    0.56
  -1   6  13    1.02    0.60
  -1   6  13   -0.11    0.90
  -1   6  13   -1.16    0.70
   0  -6 -13    1.14    0.66
   0  -6 -13    0.29    0.74
   0  -6 -13    0.84    0.47
   0   6  13    0.84    0.55
   0   6  13    0.28    0.79
   0   6  13    0.61    0.65
  -1  -6 -13   56.46    1.41
  -1  -6 -13   61.44    2.12
  -1  -6 -13   56.24    1.87
  -1  -6 -13   57.47    1.87
  -1  -6 -13   61.79    3.40
   1   6  13   55.17    1.84
   1   6  13   57.23    1.55
   1   6  13   58.26    1.95
   1   6  13   58.48    2.22
  -2  -6 -13   45.54    1.59
   2   6  13   40.78    1.97
   2   6  13   42.36    1.69
   2   6  13   44.33    1.90
   2   6  13   45.03    1.76
  -3  -6 -13   17.77    1.18
  -3  -6 -13   17.39    1.10
   3   6  13   14.90    1.38
   3   6  13   19.41    1.51
   3   6  13   16.52    1.25
   3   6  13   14.29    1.57
   3   6  13   15.62    1.42
  -4  -6 -13    0.07    0.49
  -4  -6 -13    1.10    0.63
   4   6  13    0.18    0.80
   4   6  13   -0.26    0.82
   4   6  13    1.94    0.69
   4   6  13    0.73    0.71
   4   6  13    0.57    0.75
  -5  -6 -13    2.04    0.84
  -5  -6 -13    1.72    0.79
  -5  -6 -13    2.13    0.47
  -5  -6 -13    2.89    0.86
   5   6  13    1.96    0.76
   5   6  13    3.10    0.73
   5   6  13    2.58    0.96
   5   6  13    1.67    0.85
  -6  -6 -13   13.42    1.59
  -6  -6 -13   10.62    1.42
   6   6  13   14.97    1.48
   6   6  13   12.75    1.73
   6   6  13   14.85    1.30
   6   6  13   12.30    1.42
   6   6  13    9.69    1.16
   1  -7 -13    1.32    0.89
   1  -7 -13    1.90    0.97
   1  -7 -13    3.51    0.71
  -1   7  13    1.71    0.67
   0  -7 -13   53.78    2.13
   0  -7 -13   50.61    1.59
   0  -7 -13   56.00    1.97
   0   7  13   53.91    1.70
   0   7  13   52.47    1.99
  -1  -7 -13    8.72    1.02
  -1  -7 -13    8.90    0.94
  -1  -7 -13    7.21    0.84
   1   7  13    7.79    0.96
   1   7  13   12.16    1.52
   1   7  13    8.43    1.07
   1   7  13   10.30    1.23
  -2  -7 -13   43.52    1.67
  -2  -7 -13   44.75    1.15
  -2  -7 -13   46.71    1.72
   2   7  13   47.31    1.87
   2   7  13   48.11    2.08
   2   7  13   45.72    1.76
   2   7  13   47.79    2.08
  -3  -7 -13    1.97    0.61
  -3  -7 -13    3.71    0.94
   3   7  13    3.74    0.74
   3   7  13    2.12    0.93
   3   7  13    3.97    0.91
  -4  -7 -13    7.42    0.95
  -4  -7 -13    7.12    0.80
  -4  -7 -13    6.96    0.98
   4   7  13    6.46    0.85
   4   7  13    7.96    1.10
   4   7  13    7.97    1.01
   4   7  13    8.30    1.20
  -5  -7 -13   11.90    0.90
  -5  -7 -13   10.80    1.00
   5   7  13   16.00    1.46
   5   7  13   13.16    1.64
   5   7  13   13.17    1.24
   5   7  13   11.18    1.13
  -6  -7 -13    3.24    0.84
   6   7  13    3.74    0.89
   6   7  13    6.06    0.84
   6   7  13    4.20    1.01
   6   7  13    3.27    0.90
  -1  -8 -13    9.67    1.01
  -1  -8 -13    8.24    1.06
  -1  -8 -13    8.30    0.98
   1   8  13    9.31    1.54
   1   8  13    9.02    1.08
  -2  -8 -13    8.85    0.97
  -2  -8 -13    5.58    0.59
  -2  -8 -13    7.53    1.01
   2   8  13    7.80    0.82
   2   8  13    6.20    1.04
   2   8  13    5.67    0.89
   2   8  13    6.30    1.08
  -3  -8 -13    4.63    0.79
  -3  -8 -13    3.94    0.83
   3   8  13    3.20    0.96
   3   8  13    4.83    0.83
   3   8  13    3.14    0.92
  -4  -8 -13    7.08    0.77
  -4  -8 -13    5.72    0.90
   4   8  13    6.97    1.04
   4   8  13    5.73    1.03
   4   8  13    6.89    1.06
   4   8  13    6.66    0.89
  -5  -8 -13   28.77    1.33
  -5  -8 -13   24.32    1.22
   5   8  13   27.47    1.55
   5   8  13   26.20    1.81
   5   8  13   27.39    1.88
  -6  -8 -13    0.02    0.70
   6   8  13   -0.54    0.94
   6   8  13    0.23    0.84
   6   8  13    0.36    0.74
   3   9  13   10.66    1.23
  -4  -9 -13    0.83    0.84
  -4  -9 -13    2.07    0.72
  -4  -9 -13    0.08    0.79
   4   9  13    2.30    1.00
   4   9  13    1.53    0.98
   4   9  13    0.11    1.29
   2   0 -14    0.90    0.82
  -2   0  14    0.48    0.99
  -2   0  14   -0.59    0.84
  -2   0  14    1.37    0.78
   1   0 -14   10.00    0.95
   1   0 -14   10.46    1.33
  -1   0  14   10.27    1.08
  -1   0  14    9.52    1.03
   0   0 -14   23.48    1.72
   0   0 -14   25.67    1.39
   0   0 -14   28.28    1.59
   0   0  14   23.41    1.78
   0   0  14   23.01    1.66
   0   0  14   28.33    1.55
   2  -1 -14   23.30    1.36
   2  -1 -14   22.48    1.53
  -2   1  14   22.86    1.59
  -2   1  14   21.90    1.45
   1  -1 -14   36.56    1.51
   1  -1 -14   38.89    1.72
  -1   1  14   37.35    1.70
  -1   1  14   34.92    1.75
  -1   1  14   37.25    1.79
   0  -1 -14   -1.53    0.90
   0  -1 -14    0.01    0.67
   0  -1 -14   -1.13    0.64
   0   1  14    0.53    0.79
   0   1  14    1.91    0.65
   0   1  14    0.02    0.75
  -1  -1 -14   51.55    1.81
  -1  -1 -14   46.88    1.48
  -1  -1 -14   46.73    1.86
   1   1  14   42.76    2.05
   1   1  14   48.73    1.93
   1   1  14   54.11    2.08
  -2  -1 -14    8.35    1.02
  -2  -1 -14   10.93    1.20
   2   1  14    9.27    1.51
   2   1  14   10.65    1.22
   3  -2 -14    4.24    0.76
  -3   2  14    4.21    0.79
  -3   2  14    3.02    0.77
  -3   2  14    3.16    0.92
   2  -2 -14   27.37    1.56
   2  -2 -14   25.34    1.36
  -2   2  14   25.91    1.48
  -2   2  14   28.07    1.62
   1  -2 -14  100.13    2.35
   1  -2 -14  104.52    2.70
   1  -2 -14   97.08    2.86
  -1   2  14  100.95    2.51
  -1   2  14  105.95    2.71
  -1   2  14  101.72    2.76
   0  -2 -14    8.16    0.96
   0  -2 -14    9.50    1.15
   0   2  14    8.30    0.96
   0   2  14    9.25    1.03
   0   2  14    6.79    0.95
  -1  -2 -14   74.14    2.15
  -1  -2 -14   73.91    2.32
  -1  -2 -14   84.69    3.35
  -1  -2 -14   72.37    1.77
   1   2  14   72.83    2.28
   1   2  14   78.28    2.41
  -2  -2 -14   12.83    1.46
  -2  -2 -14   16.23    1.16
  -2  -2 -14   16.03    1.21
   2   2  14   15.25    1.38
   2   2  14   15.43    1.49
   2   2  14   16.64    1.63
  -3  -2 -14    0.84    0.62
   3   2  14   -0.08    0.75
   3   2  14    0.03    0.86
   2  -3 -14    1.41    0.78
   2  -3 -14    1.38    0.62
   2  -3 -14    1.19    0.93
  -2   3  14    1.10    0.79
  -2   3  14    1.20    0.65
   1  -3 -14   57.61    1.68
   1  -3 -14   59.22    2.02
  -1   3  14   56.65    2.08
  -1   3  14   59.69    1.75
   0  -3 -14   12.30    0.93
   0   3  14   14.11    1.34
   0   3  14   14.89    1.37
   0   3  14   14.69    1.31
  -1  -3 -14   20.65    0.97
  -1  -3 -14   22.02    1.39
  -1  -3 -14   23.49    1.35
   1   3  14   22.85    1.56
   1   3  14   21.98    1.46
   1   3  14   23.83    1.56
  -2  -3 -14    0.93    0.75
  -2  -3 -14    4.59    0.74
  -2  -3 -14    3.27    0.90
   2   3  14    1.90    0.87
   2   3  14    3.06    0.77
   2   3  14   -0.14    1.08
  -3  -3 -14    5.09    0.72
  -3  -3 -14    6.55    0.89
  -3  -3 -14    6.24    0.84
   3   3  14    6.79    0.98
   3   3  14    5.89    0.90
  -4  -3 -14   16.61    1.67
  -4  -3 -14   15.84    1.11
  -4  -3 -14   15.83    1.32
   4   3  14   16.79    1.42
   4   3  14   15.67    1.86
   2  -4 -14   38.86    2.52
   2  -4 -14   37.03    1.81
   2  -4 -14   37.79    1.55
  -2   4  14   41.76    1.85
  -2   4  14   40.62    1.62
   1  -4 -14    6.46    1.04
   1  -4 -14    5.15    0.67
   1  -4 -14    5.05    0.85
  -1   4  14    4.95    0.74
  -1   4  14    3.91    0.87
   0  -4 -14    1.71    0.71
   0  -4 -14    1.72    0.49
   0   4  14    0.52    0.73
   0   4  14    0.67    0.71
  -1  -4 -14   13.52    1.37
  -1  -4 -14   10.67    0.82
   1   4  14   14.76    1.35
   1   4  14   14.43    1.35
  -2  -4 -14   10.53    1.11
   2   4  14   11.09    1.28
   2   4  14   11.17    1.39
  -3  -4 -14   11.35    1.48
  -3  -4 -14   13.75    1.07
  -3  -4 -14   11.66    1.20
   3   4  14   12.01    1.51
   3   4  14   13.03    1.28
   3   4  14   10.98    1.19
  -4  -4 -14    7.42    0.94
  -4  -4 -14    8.94    0.95
  -4  -4 -14   10.61    1.13
   4   4  14    8.49    0.97
   4   4  14    9.83    1.17
   1  -5 -14   16.99    1.67
   1  -5 -14   18.53    1.45
   1  -5 -14   14.02    1.10
  -1   5  14   16.56    1.20
  -1   5  14   18.82    1.85
  -1   5  14   16.69    1.44
   0  -5 -14   16.65    1.36
   0  -5 -14   13.63    0.96
   0  -5 -14   16.23    1.57
   0   5  14   15.57    1.10
   0   5  14   15.79    1.25
   0   5  14   12.62    1.32
  -1  -5 -14    8.47    0.75
  -1  -5 -14   10.63    1.21
   1   5  14    9.68    1.22
   1   5  14    9.68    1.03
   2   5  14   53.27    1.91
   2   5  14   54.24    2.02
  -3  -5 -14   46.59    1.62
   3   5  14   47.73    1.83
  -4  -5 -14    6.37    0.97
  -4  -5 -14    5.90    0.78
   4   5  14    6.87    0.90
   4   5  14    6.59    1.04
  -5  -5 -14    6.95    1.00
  -5  -5 -14    5.75    1.21
   5   5  14    5.88    0.88
   0  -6 -14   22.00    1.15
   0  -6 -14   23.05    1.78
   0  -6 -14   23.33    1.54
   0   6  14   23.75    1.26
   0   6  14   21.34    1.77
  -1  -6 -14   11.51    0.84
  -1  -6 -14   14.42    1.31
   1   6  14   14.32    1.36
   1   6  14   12.43    1.37
  -2  -6 -14   51.63    1.81
  -2  -6 -14   51.85    1.83
   2   6  14   49.21    1.94
   2   6  14   51.03    2.00
  -3  -6 -14   54.52    2.16
   3   6  14   56.40    2.67
   3   6  14   54.70    2.01
  -4  -6 -14    1.06    0.69
  -4  -6 -14    2.22    0.61
  -4  -6 -14   -0.86    0.82
   4   6  14    1.81    0.82
   4   6  14    1.35    0.77
   4   6  14    2.65    1.04
  -5  -6 -14    5.28    1.17
   5   6  14    4.41    0.88
   5   6  14    6.20    0.98
  -1  -7 -14   56.94    2.28
  -1  -7 -14   57.17    2.04
   1   7  14   54.93    1.72
   1   7  14   52.62    1.97
  -2  -7 -14    6.53    0.88
   2   7  14    6.19    1.05
   2   7  14    8.63    1.10
   2   7  14    4.10    1.00
  -3  -7 -14   15.19    1.28
   3   7  14   15.72    1.69
   3   7  14   16.41    1.83
   3   7  14   14.03    1.38
  -4  -7 -14    0.77    0.72
   4   7  14   -0.26    0.74
   4   7  14    1.16    0.86
   4   7  14    0.61    0.98
   5   7  14    5.96    1.15
   5   7  14    6.55    0.96
   5   7  14    8.71    1.08
  -1  -4 -15    2.53    0.78
   1   4  15    2.40    0.93
   1   4  15    2.63    1.45
  -2  -4 -15    1.67    0.99
   2   4  15    1.51    1.02
   2   4  15    2.89    0.93
   0   0   0    0.00    0.00
;
_shelx_hkl_checksum              46852
loop_
_space_group_symop_operation_xyz
'x, y, z'
'-x, -y, -z'
loop_
_atom_site_label
_atom_site_type_symbol
_atom_site_fract_x
_atom_site_fract_y
_atom_site_fract_z
_atom_site_U_iso_or_equiv
_atom_site_adp_type
_atom_site_occupancy
_atom_site_site_symmetry_order
_atom_site_calc_flag
_atom_site_refinement_flags_posn
_atom_site_refinement_flags_adp
_atom_site_refinement_flags_occupancy
_atom_site_disorder_assembly
_atom_site_disorder_group
S1 S 0.63654(7) 0.05241(7) 0.08586(5) 0.01829(12) Uani 1 1 d . . . . .
Mo1 Mo 0.80428(2) 0.01036(2) 0.22775(2) 0.01512(6) Uani 1 1 d . . . . .
S2 S 0.73938(7) -0.14260(7) 0.39446(5) 0.02165(13) Uani 1 1 d . . . . .
Mo2 Mo 0.61522(2) -0.14579(2) 0.24615(2) 0.01585(6) Uani 1 1 d . . . . .
S3 S 0.34080(7) -0.02619(8) 0.18854(5) 0.02506(14) Uani 1 1 d . . . . .
S4 S 0.40339(8) -0.13981(9) 0.36367(6) 0.03200(15) Uani 1 1 d . . . . .
O5 O 0.98586(19) -0.1238(2) 0.20189(14) 0.0240(4) Uani 1 1 d . . . . .
O6 O 0.7238(2) -0.33419(19) 0.22924(14) 0.0246(4) Uani 1 1 d . . . . .
N7 N 0.5913(2) 0.2618(2) 0.24440(16) 0.0169(4) Uani 1 1 d . . . . .
C8 C 0.4781(3) 0.2697(3) 0.3182(2) 0.0216(5) Uani 1 1 d . . . . .
H8 H 0.4821 0.1676 0.3681 0.026 Uiso 1 1 calc R U . . .
C9 C 0.3563(3) 0.4197(3) 0.3244(2) 0.0234(5) Uani 1 1 d . . . . .
H9 H 0.2782 0.4204 0.3776 0.028 Uiso 1 1 calc R U . . .
C10 C 0.3492(3) 0.5692(3) 0.2525(2) 0.0231(5) Uani 1 1 d . . . . .
H10 H 0.2668 0.6740 0.2558 0.028 Uiso 1 1 calc R U . . .
C11 C 0.4642(3) 0.5629(3) 0.1758(2) 0.0203(5) Uani 1 1 d . . . . .
H11 H 0.4616 0.6638 0.1251 0.024 Uiso 1 1 calc R U . . .
C12 C 0.5838(3) 0.4079(3) 0.17328(18) 0.0159(4) Uani 1 1 d . . . . .
C13 C 0.7112(3) 0.3913(3) 0.09379(19) 0.0161(4) Uani 1 1 d . . . . .
C14 C 0.7217(3) 0.5291(3) 0.0168(2) 0.0218(5) Uani 1 1 d . . . . .
H14 H 0.6451 0.6399 0.0132 0.026 Uiso 1 1 calc R U . . .
C15 C 0.8447(3) 0.5038(3) -0.0545(2) 0.0254(5) Uani 1 1 d . . . . .
H15 H 0.8526 0.5969 -0.1084 0.031 Uiso 1 1 calc R U . . .
C16 C 0.9559(3) 0.3414(3) -0.0466(2) 0.0253(5) Uani 1 1 d . . . . .
H16 H 1.0422 0.3211 -0.0940 0.030 Uiso 1 1 calc R U . . .
C17 C 0.9395(3) 0.2095(3) 0.0313(2) 0.0215(5) Uani 1 1 d . . . . .
H17 H 1.0162 0.0980 0.0367 0.026 Uiso 1 1 calc R U . . .
N18 N 0.8188(2) 0.2325(2) 0.09999(16) 0.0166(4) Uani 1 1 d . . . . .
O19 O 0.9167(2) 0.0745(2) 0.33114(14) 0.0255(4) Uani 1 1 d . . . . .
C20 C 0.8621(3) 0.1549(3) 0.3979(2) 0.0250(5) Uani 1 1 d . . . . .
H20 H 0.7824 0.1419 0.4451 0.030 Uiso 1 1 calc R U . . .
N21 N 0.9095(2) 0.2571(2) 0.40623(17) 0.0227(4) Uani 1 1 d . . . . .
C22 C 0.8421(3) 0.3471(3) 0.4873(2) 0.0287(6) Uani 1 1 d . . . . .
H22A H 0.9268 0.3147 0.5426 0.043 Uiso 1 1 calc R U . . .
H22B H 0.7621 0.3183 0.5282 0.043 Uiso 1 1 calc R U . . .
H22C H 0.7921 0.4686 0.4454 0.043 Uiso 1 1 calc R U . . .
C23 C 1.0266(3) 0.2879(3) 0.3340(2) 0.0296(6) Uani 1 1 d . . . . .
H23A H 0.9889 0.4093 0.3012 0.044 Uiso 1 1 calc R U . . .
H23B H 1.0425 0.2429 0.2720 0.044 Uiso 1 1 calc R U . . .
H23C H 1.1276 0.2324 0.3802 0.044 Uiso 1 1 calc R U . . .
loop_
_atom_site_aniso_label
_atom_site_aniso_U_11
_atom_site_aniso_U_22
_atom_site_aniso_U_33
_atom_site_aniso_U_23
_atom_site_aniso_U_13
_atom_site_aniso_U_12
S1 0.0216(3) 0.0182(3) 0.0130(3) -0.0031(2) 0.0013(2) -0.0095(2)
Mo1 0.01473(10) 0.01318(10) 0.01461(10) -0.00513(8) 0.00240(7) -0.00466(8)
S2 0.0265(3) 0.0211(3) 0.0138(3) -0.0022(2) 0.0004(2) -0.0111(2)
Mo2 0.01799(10) 0.01338(10) 0.01447(10) -0.00488(8) 0.00399(7) -0.00678(8)
S3 0.0200(3) 0.0267(3) 0.0282(3) -0.0109(3) 0.0046(2) -0.0106(3)
S4 0.0315(3) 0.0476(4) 0.0246(3) -0.0153(3) 0.0142(3) -0.0251(3)
O5 0.0187(8) 0.0204(8) 0.0290(9) -0.0104(7) 0.0029(7) -0.0055(7)
O6 0.0277(9) 0.0161(8) 0.0264(9) -0.0081(7) 0.0035(7) -0.0077(7)
N7 0.0171(9) 0.0162(9) 0.0166(9) -0.0069(8) 0.0042(7) -0.0072(8)
C8 0.0224(12) 0.0211(12) 0.0225(12) -0.0087(10) 0.0083(10) -0.0118(10)
C9 0.0189(12) 0.0275(13) 0.0268(13) -0.0138(11) 0.0097(10) -0.0119(10)
C10 0.0169(11) 0.0214(12) 0.0289(13) -0.0143(10) 0.0038(10) -0.0042(10)
C11 0.0194(11) 0.0171(11) 0.0224(12) -0.0077(10) 0.0017(9) -0.0069(10)
C12 0.0150(10) 0.0177(11) 0.0152(11) -0.0063(9) 0.0002(8) -0.0074(9)
C13 0.0166(11) 0.0179(11) 0.0159(11) -0.0077(9) 0.0021(9) -0.0088(9)
C14 0.0246(12) 0.0201(12) 0.0213(12) -0.0072(10) 0.0030(10) -0.0113(10)
C15 0.0340(14) 0.0302(13) 0.0209(12) -0.0085(10) 0.0085(11) -0.0233(12)
C16 0.0269(13) 0.0344(14) 0.0247(13) -0.0168(11) 0.0134(10) -0.0198(11)
C17 0.0201(12) 0.0253(12) 0.0234(12) -0.0146(10) 0.0084(10) -0.0111(10)
N18 0.0159(9) 0.0184(10) 0.0172(9) -0.0084(8) 0.0046(7) -0.0086(8)
O19 0.0261(9) 0.0263(9) 0.0249(9) -0.0131(8) -0.0001(7) -0.0098(8)
C20 0.0221(12) 0.0287(13) 0.0197(12) -0.0046(11) 0.0025(10) -0.0115(11)
N21 0.0251(11) 0.0221(10) 0.0199(10) -0.0051(8) -0.0006(8) -0.0116(9)
C22 0.0278(13) 0.0301(14) 0.0252(13) -0.0103(11) 0.0052(11) -0.0120(11)
C23 0.0274(13) 0.0325(14) 0.0261(13) -0.0094(11) 0.0057(11) -0.0137(11)
loop_
_atom_type_symbol
_atom_type_description
_atom_type_scat_dispersion_real
_atom_type_scat_dispersion_imag
_atom_type_scat_source
C C 0.0033 0.0016 'International Tables Vol C Tables 4.2.6.8 and 6.1.1.4'
H H 0.0000 0.0000 'International Tables Vol C Tables 4.2.6.8 and 6.1.1.4'
N N 0.0061 0.0033 'International Tables Vol C Tables 4.2.6.8 and 6.1.1.4'
O O 0.0106 0.0060 'International Tables Vol C Tables 4.2.6.8 and 6.1.1.4'
S S 0.1246 0.1234 'International Tables Vol C Tables 4.2.6.8 and 6.1.1.4'
Mo Mo -1.6832 0.6857 'International Tables Vol C Tables 4.2.6.8 and 6.1.1.4'
loop_
_geom_angle_atom_site_label_1
_geom_angle_atom_site_label_2
_geom_angle_atom_site_label_3
_geom_angle
_geom_angle_site_symmetry_1
_geom_angle_site_symmetry_3
Mo2 S1 Mo1 75.475(18) . .
O5 Mo1 O19 89.05(7) . .
O5 Mo1 N18 91.62(7) . .
O19 Mo1 N18 77.29(7) . .
O5 Mo1 S1 103.85(6) . .
O19 Mo1 S1 158.12(5) . .
N18 Mo1 S1 84.64(5) . .
O5 Mo1 S2 106.20(6) . .
O19 Mo1 S2 89.45(5) . .
N18 Mo1 S2 157.69(5) . .
S1 Mo1 S2 103.44(2) . .
O5 Mo1 N7 159.45(7) . .
O19 Mo1 N7 77.56(6) . .
N18 Mo1 N7 70.43(6) . .
S1 Mo1 N7 84.88(5) . .
S2 Mo1 N7 89.38(5) . .
O5 Mo1 Mo2 105.47(6) . .
O19 Mo1 Mo2 141.51(5) . .
N18 Mo1 Mo2 135.90(5) . .
S1 Mo1 Mo2 52.129(15) . .
S2 Mo1 Mo2 52.482(16) . .
N7 Mo1 Mo2 94.60(5) . .
Mo1 S2 Mo2 75.152(18) . .
O6 Mo2 S1 107.28(6) . .
O6 Mo2 S2 108.60(6) . .
S1 Mo2 S2 103.58(2) . .
O6 Mo2 S4 111.28(6) . .
S1 Mo2 S4 132.92(2) . .
S2 Mo2 S4 88.84(2) . .
O6 Mo2 S3 111.06(6) . .
S1 Mo2 S3 89.98(2) . .
S2 Mo2 S3 131.66(2) . .
S4 Mo2 S3 51.54(2) . .
O6 Mo2 Mo1 110.58(6) . .
S1 Mo2 Mo1 52.396(15) . .
S2 Mo2 Mo1 52.365(15) . .
S4 Mo2 Mo1 130.005(19) . .
S3 Mo2 Mo1 130.380(17) . .
S4 S3 Mo2 63.96(3) . .
S3 S4 Mo2 64.49(2) . .
C8 N7 C12 118.15(19) . .
C8 N7 Mo1 125.01(15) . .
C12 N7 Mo1 116.84(14) . .
N7 C8 C9 122.7(2) . .
C8 C9 C10 119.3(2) . .
C11 C10 C9 118.6(2) . .
C10 C11 C12 119.5(2) . .
N7 C12 C11 121.8(2) . .
N7 C12 C13 115.69(19) . .
C11 C12 C13 122.6(2) . .
N18 C13 C14 121.2(2) . .
N18 C13 C12 116.10(19) . .
C14 C13 C12 122.7(2) . .
C15 C14 C13 119.4(2) . .
C16 C15 C14 119.2(2) . .
C17 C16 C15 118.9(2) . .
N18 C17 C16 122.6(2) . .
C17 N18 C13 118.73(19) . .
C17 N18 Mo1 120.29(15) . .
C13 N18 Mo1 120.92(14) . .
C20 O19 Mo1 131.66(16) . .
O19 C20 N21 123.0(2) . .
C20 N21 C23 121.6(2) . .
C20 N21 C22 120.6(2) . .
C23 N21 C22 117.9(2) . .
loop_
_geom_bond_atom_site_label_1
_geom_bond_atom_site_label_2
_geom_bond_distance
_geom_bond_site_symmetry_2
S1 Mo2 2.3094(6) .
S1 Mo1 2.3178(6) .
Mo1 O5 1.6817(16) .
Mo1 O19 2.1760(16) .
Mo1 N18 2.2436(18) .
Mo1 S2 2.3202(6) .
Mo1 N7 2.3670(18) .
Mo1 Mo2 2.8320(3) .
S2 Mo2 2.3239(6) .
Mo2 O6 1.6851(15) .
Mo2 S4 2.3776(6) .
Mo2 S3 2.3883(6) .
S3 S4 2.0722(9) .
N7 C8 1.344(3) .
N7 C12 1.352(3) .
C8 C9 1.379(3) .
C9 C10 1.382(3) .
C10 C11 1.381(3) .
C11 C12 1.389(3) .
C12 C13 1.479(3) .
C13 N18 1.353(3) .
C13 C14 1.388(3) .
C14 C15 1.382(3) .
C15 C16 1.381(4) .
C16 C17 1.377(3) .
C17 N18 1.347(3) .
O19 C20 1.243(3) .
C20 N21 1.313(3) .
N21 C23 1.451(3) .
N21 C22 1.462(3) .
