#------------------------------------------------------------------------------
#$Date: 2022-01-01 07:13:54 +0200 (Sat, 01 Jan 2022) $
#$Revision: 271676 $
#$URL: file:///home/coder/svn-repositories/cod/cif/1/56/58/1565890.cif $
#------------------------------------------------------------------------------
#
# This file is available in the Crystallography Open Database (COD),
# http://www.crystallography.net/. The original data for this entry
# were provided by IUCr Journals, http://journals.iucr.org/.
#
# The file may be used within the scientific community so long as
# proper attribution is given to the journal article from which the
# data were obtained.
#
data_1565890
loop_
_publ_author_name
'Olejniczak, Anna'
'Katrusiak, Anna'
'Podsiad\/lo, Marcin'
'Katrusiak, Andrzej'
_publ_section_title
;
 Stochastic hydration of a high-nitrogen-content molecular compound
 recrystallized under pressure
;
_journal_issue                   1
_journal_name_full               IUCrJ
_journal_page_first              49
_journal_page_last               54
_journal_paper_doi               10.1107/S2052252521010381
_journal_volume                  9
_journal_year                    2022
_chemical_formula_moiety         'C4 H2 Cl N5'
_chemical_formula_sum            'C4 H2 Cl N5'
_chemical_formula_weight         155.56
_chemical_name_systematic        6-chloro-1,2,3,4-tetrazolo[1,5-b]pyridazine
_space_group_crystal_system      monoclinic
_space_group_IT_number           14
_space_group_name_Hall           '-P 2ybc'
_space_group_name_H-M_alt        'P 1 21/c 1'
_atom_sites_solution_hydrogens   geom
_atom_sites_solution_primary     direct
_audit_creation_date             2020-07-14
_audit_creation_method
;
Olex2 1.3
(compiled 2020.06.28 svn.raecde09e for OlexSys, GUI svn.r6132)
;
_cell_angle_alpha                90
_cell_angle_beta                 100.542(16)
_cell_angle_gamma                90
_cell_formula_units_Z            4
_cell_length_a                   7.836(2)
_cell_length_b                   12.9703(12)
_cell_length_c                   5.5885(5)
_cell_measurement_reflns_used    675
_cell_measurement_temperature    296(2)
_cell_measurement_theta_max      22.9620
_cell_measurement_theta_min      4.0220
_cell_volume                     558.40(16)
_computing_cell_refinement       'CrysAlisPro 1.171.40.67a (Rigaku OD, 2019)'
_computing_data_collection       'CrysAlisPro 1.171.40.67a (Rigaku OD, 2019)'
_computing_data_reduction        'CrysAlisPro 1.171.40.67a (Rigaku OD, 2019)'
_computing_molecular_graphics    'Olex2 1.3 (Dolomanov et al., 2009)'
_computing_publication_material  'Olex2 1.3 (Dolomanov et al., 2009)'
_computing_structure_refinement  'SHELXL 2018/3 (Sheldrick, 2015)'
_computing_structure_solution    'SHELXT 2018/2 (Sheldrick, 2018)'
_diffrn_ambient_environment      'diamond-anvil cell'
_diffrn_ambient_pressure         480000
_diffrn_ambient_temperature      296
_diffrn_detector                 'CCD plate'
_diffrn_detector_area_resol_mean 16.2413
_diffrn_detector_type            Eos
_diffrn_measured_fraction_theta_full 0.2874
_diffrn_measured_fraction_theta_max 0.2874
_diffrn_measurement_details
;
List of Runs (angles in degrees, time in seconds):

  # Type    Start    End  Width  t~exp~   \w     \q     \k     \f   Frames
--------------------------------------------------------------------------
  1  \f    -35.00  19.75   0.75   20.00   0.00 -30.00   0.00    --    73
  2  \f    140.00 200.00   0.75   20.00   0.00 -30.00   0.00    --    80
  3  \f    160.00 217.00   0.75   20.00   0.00  30.00   0.00    --    76
  4  \f    -20.00  34.75   0.75   20.00   0.00  30.00   0.00    --    73
  5  \w    -24.00  24.00   0.75   20.00    --   30.00  39.46 -12.90   64
  6  \w    -24.00  24.00   0.75   20.00    --   30.00  39.46 167.10   64
  7  \w    -50.00  10.00   0.75   20.00    --  -30.00  39.46 167.10   80
  8  \w    -50.00  10.00   0.75   20.00    --  -30.00  39.46 -12.90   80
  9  \w    -64.00  -8.50   0.75   20.00    --  -30.00  81.40 -28.90   74
 10  \w    -64.00  -8.50   0.75   20.00    --  -30.00  81.40 151.10   74
 11  \w    -19.00   8.00   0.75   20.00    --   30.00  81.40 151.10   36
 12  \w    -19.00   8.00   0.75   20.00    --   30.00  81.40 -28.90   36
 13  \w    -43.00 -21.25   0.75   20.00    --   30.00 134.60 -56.90   29
 14  \w    -43.00 -21.25   0.75   20.00    --   30.00 134.60 123.10   29
 15  \w    -90.00 -36.00   0.75   20.00    --  -30.00 134.60 123.10   72
 16  \w    -90.00 -36.00   0.75   20.00    --  -30.00 134.60 -56.90   72
;
_diffrn_measurement_device       'four-circle diffractometer'
_diffrn_measurement_device_type  'KM-4 CCD'
_diffrn_measurement_method
;
HP omega scans - for more details see:
A. Budzianowski, A. Katrusiak in High-Pressure Crystallography
(Eds.: A. Katrusiak, P. F. McMillan),
Dordrecht: Kluwer Acad. Publ., 2004 pp.157-168
;
_diffrn_orient_matrix_type
'CrysAlisPro convention (1999,Acta A55,543-557)'
_diffrn_orient_matrix_UB_11      0.0919885572
_diffrn_orient_matrix_UB_12      -0.0021515031
_diffrn_orient_matrix_UB_13      0.0234601336
_diffrn_orient_matrix_UB_21      -0.0038111748
_diffrn_orient_matrix_UB_22      -0.0546439433
_diffrn_orient_matrix_UB_23      -0.0006464932
_diffrn_orient_matrix_UB_31      -0.0001111709
_diffrn_orient_matrix_UB_32      -0.0001768466
_diffrn_orient_matrix_UB_33      -0.1269488436
_diffrn_radiation_monochromator  graphite
_diffrn_radiation_probe          x-ray
_diffrn_radiation_type           'Mo K\a'
_diffrn_radiation_wavelength     0.71073
_diffrn_reflns_av_R_equivalents  0.0415
_diffrn_reflns_av_unetI/netI     0.0331
_diffrn_reflns_Laue_measured_fraction_full 0.321
_diffrn_reflns_Laue_measured_fraction_max 0.289
_diffrn_reflns_limit_h_max       3
_diffrn_reflns_limit_h_min       -3
_diffrn_reflns_limit_k_max       16
_diffrn_reflns_limit_k_min       -16
_diffrn_reflns_limit_l_max       6
_diffrn_reflns_limit_l_min       -7
_diffrn_reflns_number            3109
_diffrn_reflns_point_group_measured_fraction_full 0.321
_diffrn_reflns_point_group_measured_fraction_max 0.289
_diffrn_reflns_theta_full        25.242
_diffrn_reflns_theta_max         27.198
_diffrn_reflns_theta_min         4.028
_diffrn_source                   'fine-focus sealed X-ray tube'
_diffrn_source_type              'Enhance (Mo) X-ray Source'
_exptl_absorpt_coefficient_mu    0.590
_exptl_absorpt_correction_T_max  1.00000
_exptl_absorpt_correction_T_min  0.54388
_exptl_absorpt_correction_type   multi-scan
_exptl_absorpt_process_details
;
CrysAlisPro 1.171.39.46 (Rigaku Oxford Diffraction, 2018)
Empirical absorption correction using spherical harmonics,
 implemented in SCALE3 ABSPACK scaling algorithm.
;
_exptl_crystal_colour            colourless
_exptl_crystal_density_diffrn    1.850
_exptl_crystal_description       plate
_exptl_crystal_F_000             312
_exptl_crystal_size_max          0.34
_exptl_crystal_size_mid          0.30
_exptl_crystal_size_min          0.26
_refine_diff_density_max         0.283
_refine_diff_density_min         -0.258
_refine_diff_density_rms         0.049
_refine_ls_extinction_method     none
_refine_ls_goodness_of_fit_ref   1.043
_refine_ls_hydrogen_treatment    constr
_refine_ls_matrix_type           full
_refine_ls_number_parameters     41
_refine_ls_number_reflns         359
_refine_ls_number_restraints     0
_refine_ls_restrained_S_all      1.043
_refine_ls_R_factor_all          0.0932
_refine_ls_R_factor_gt           0.0544
_refine_ls_shift/su_max          0.000
_refine_ls_shift/su_mean         0.000
_refine_ls_structure_factor_coef Fsqd
_refine_ls_weighting_details
'w=1/[\s^2^(Fo^2^)+(0.0190P)^2^+1.8498P] where P=(Fo^2^+2Fc^2^)/3'
_refine_ls_weighting_scheme      calc
_refine_ls_wR_factor_gt          0.0953
_refine_ls_wR_factor_ref         0.1117
_reflns_Friedel_coverage         0.000
_reflns_number_gt                240
_reflns_number_total             359
_reflns_threshold_expression     'I > 2\s(I)'
_cod_data_source_file            lt5042.cif
_cod_data_source_block           C4H2N5Cl1@0_48GPa_phase_beta
_cod_original_cell_volume        558.43(18)
_cod_database_code               1565890
_shelx_shelxl_version_number     2018/3
_chemical_oxdiff_formula         C4H2N5Cl1
_shelx_space_group_comment
;
The symmetry employed for this shelxl refinement is uniquely defined
by the following loop, which should always be used as a source of
symmetry information in preference to the above space-group names.
They are only intended as comments.
;
_reflns_odcompleteness_completeness 28.74
_reflns_odcompleteness_theta     27.14
_reflns_odcompleteness_iscentric 1
_olex2_refinement_description
;
1. Fixed Uiso
 At 1.2 times of:
  All C(H) groups
2.a Aromatic/amide H refined with riding coordinates:
 C8(H8), C7(H7)
;
_shelx_res_file
;
TITL a in P21/c #14
    a.res
    created by SHELXL-2018/3 at 13:34:37 on 14-Jul-2020
REM reset to P21/c #14
CELL 0.71073 7.8364 12.9703 5.5885 90 100.542 90
ZERR 4 0.0023 0.0012 0.0005 0 0.016 0
LATT 1
SYMM -X,0.5+Y,0.5-Z
SFAC C H Cl N
UNIT 16 8 4 20

L.S. 44
PLAN  1
CONF
BOND
fmap 2 53
acta
MORE -1
BOND $H
REM <olex2.extras>
REM <HklSrc "%.\\a.hkl">
REM </olex2.extras>

WGHT    0.019000    1.849800
FVAR       0.21964
CL1   3    1.031656    0.340420    0.850671    11.00000    0.05166
N4    4    0.539570    0.351610    0.539493    11.00000    0.03260
N5    4    0.706757    0.330402    0.713838    11.00000    0.03387
N1    4    0.384994    0.414358    0.229347    11.00000    0.04078
N3    4    0.400789    0.334414    0.586517    11.00000    0.04640
N2    4    0.294431    0.372900    0.390058    11.00000    0.04914
C8    1    0.710026    0.426128    0.258415    11.00000    0.03102
AFIX  43
H8    2    0.714611    0.458760    0.111546    11.00000   -1.20000
AFIX   0
C6    1    0.829877    0.357206    0.633273    11.00000    0.02634
C9    1    0.544358    0.400861    0.324182    11.00000    0.02913
C7    1    0.853220    0.402285    0.409073    11.00000    0.03125
AFIX  43
H7    2    0.962580    0.413998    0.372121    11.00000   -1.20000
AFIX   0
HKLF 4




REM  a in P21/c #14
REM wR2 = 0.1117, GooF = S = 1.043, Restrained GooF = 1.043 for all data
REM R1 = 0.0544 for 240 Fo > 4sig(Fo) and 0.0932 for all 359 data
REM 41 parameters refined using 0 restraints

END

WGHT      0.0190      1.8499

REM Highest difference peak  0.283,  deepest hole -0.258,  1-sigma level  0.049
Q1    1   0.9877  0.3822  0.8629  11.00000  0.05    0.28
;
_shelx_res_checksum              58242
_shelx_hkl_file
;
   0   0   2   69.55    1.96
   0   0   2   71.54    1.84
   0   0  -2   71.45    2.02
   0   0  -2   66.60    2.14
   0   0  -2   64.83    1.94
   0   0  -2   72.48    1.92
   0   0   3    0.20    0.32
   0   0  -3   -0.11    0.22
   0   0  -3    0.03    0.26
   0   0  -3   -0.19    0.19
   0   0   3   -0.01    0.24
   0   0  -3    0.32    0.25
   0   0  -3   -0.09    0.30
   0   0   3    0.01    0.17
   0   0   4   18.10    1.39
   0   0  -4   18.56    1.58
   0   0   4   20.28    1.56
   0   0  -4   19.01    1.72
   0   0  -4   19.60    1.61
   0   0  -4   18.85    1.44
   0   0  -5    0.64    0.62
   0   0  -5   -0.32    0.57
   0   0  -5   -0.90    0.71
   0   0  -5    0.28    0.58
   0   0   5   -0.28    0.43
   0   0   5   -0.52    0.53
   0   0  -6   -0.07    0.74
   0   0   6   -0.31    0.76
   0   0  -6    0.67    0.65
   0   1   1   99.02    1.64
   0   1   1  103.98    1.65
   0  -1   2   25.42    1.05
   0   1  -2   23.97    1.06
   0   1  -2   25.99    1.07
   0  -1  -2   25.65    1.23
   0   1  -2   26.40    1.23
   0  -1  -2   25.44    1.23
   0   1   2   25.58    1.18
   0   1   2   24.98    1.14
   0  -1  -2   25.53    1.15
   0   1   2   27.10    1.09
   0  -1  -2   26.42    1.04
   0   1  -2   25.70    1.32
   0   1  -2   25.26    1.27
   0  -1  -2   24.04    1.28
   0  -1   2   25.58    1.00
   0  -1   2   23.96    1.18
   0   1   3    0.20    0.26
   0  -1  -3    0.38    0.33
   0  -1   3    0.60    0.30
   0  -1  -3    0.70    0.28
   0   1   3    0.42    0.35
   0  -1  -3    0.26    0.28
   0   1  -3    0.56    0.33
   0  -1   3    0.37    0.22
   0  -1  -3    0.21    0.29
   0  -1  -3    0.33    0.26
   0  -1   3    0.04    0.27
   0   1  -3    0.11    0.26
   0   1  -3    0.41    0.23
   0   1  -3    0.62    0.39
   0  -1   4    6.77    0.86
   0   1  -4    6.37    0.80
   0   1   4    6.84    0.95
   0  -1  -4    6.54    0.92
   0   1  -4    6.45    0.96
   0  -1   4    6.72    0.96
   0  -1  -4    6.90    1.01
   0  -1  -4    6.09    1.03
   0   1  -4    7.20    1.07
   0   1   4    6.27    0.84
   0   1  -4    7.22    1.05
   0  -1  -4    6.41    0.90
   0   1  -5    1.34    0.73
   0  -1   5    0.53    0.48
   0  -1  -5    0.36    0.49
   0   1  -5    0.13    0.41
   0  -1   5   -0.12    0.51
   0   1   5    0.87    0.54
   0  -1  -5    0.89    0.71
   0   1  -5    0.23    0.56
   0  -1  -5    0.43    0.58
   0   1   5    1.01    0.52
   0   1  -6    4.62    1.13
   0  -1  -6    6.09    1.31
   0  -1  -6    6.44    1.34
   0   1  -6    6.34    1.41
   0  -1   6    6.87    1.43
   0  -1   6    4.85    1.09
   0   1   6    6.95    1.47
   0   2   1    7.22    0.48
   0   2   1    7.70    0.46
   0  -2   1    8.01    0.53
   0   2   1    7.51    0.49
   0  -2  -2    4.09    0.53
   0   2   2    4.06    0.48
   0   2  -2    4.11    0.51
   0  -2   2    3.89    0.47
   0   2  -2    4.18    0.56
   0   2   2    4.11    0.51
   0   2  -2    4.22    0.60
   0  -2   2    4.28    0.53
   0   2  -2    3.96    0.47
   0  -2   2    3.98    0.41
   0  -2  -2    4.41    0.49
   0  -2  -2    3.85    0.55
   0  -2  -2    4.17    0.56
   0   2  -2    4.02    0.34
   0   2   2    3.70    0.47
   0   2   3   23.98    1.44
   0   2   3   22.96    1.35
   0   2   3   24.03    1.40
   0  -2  -3   23.85    1.54
   0  -2   3   22.44    1.43
   0   2  -3   21.77    1.56
   0  -2  -3   23.68    1.50
   0  -2   3   23.27    1.24
   0   2  -3   24.01    1.50
   0  -2  -3   22.63    1.29
   0  -2   3   21.47    1.20
   0   2  -3   23.45    1.59
   0   2  -3   23.02    1.41
   0  -2  -3   21.88    1.34
   0   2  -3   21.97    1.21
   0  -2  -3   20.76    1.55
   0   2   4    4.74    0.81
   0  -2   4    5.51    0.86
   0   2   4    6.02    0.86
   0  -2  -4    6.40    0.99
   0   2  -4    5.69    1.00
   0  -2  -4    4.88    0.90
   0   2  -4    5.22    0.92
   0   2  -4    5.21    0.98
   0  -2  -4    4.52    0.89
   0  -2  -5    8.72    1.36
   0   2  -5   10.26    1.44
   0  -2  -5    8.52    1.29
   0   2   5    9.55    1.26
   0  -2  -5    7.34    1.20
   0  -2   5    9.93    1.43
   0   2  -5   10.09    1.54
   0  -2   5    8.79    1.24
   0   2   5    7.79    1.12
   0   2  -5   10.59    1.59
   0  -2  -6    0.89    0.71
   0   2  -6    1.88    0.89
   0   2  -6    1.01    0.67
   0  -2  -6    0.79    0.77
   0   2   6    1.83    0.95
   0  -2  -6    0.85    0.69
   0  -2   6    2.65    1.12
   0  -2   6    1.88    0.90
   0  -3   0   -0.15    0.13
   0  -3   0    0.00    0.11
   0   3   0   -0.07    0.11
   0   3   0    0.03    0.09
   0  -3   1   78.77    1.59
   0  -3  -1   79.10    1.72
   0   3  -1   77.21    1.65
   0   3   1   77.30    1.69
   0   3   1   77.51    1.49
   0  -3  -1   76.82    1.79
   0   3   1   76.12    1.57
   0   3  -1   79.33    1.90
   0  -3  -1   76.81    1.89
   0   3   1   79.65    1.76
   0   3  -1   76.46    1.82
   0   3   1   79.53    1.62
   0  -3   1   79.09    1.84
   0  -3  -2   30.32    1.36
   0   3  -2   31.44    1.34
   0   3   2   28.92    1.33
   0   3  -2   31.73    1.51
   0   3   2   27.58    0.99
   0   3  -2   30.69    1.42
   0  -3   2   30.03    1.03
   0  -3  -2   31.38    1.34
   0   3  -2   29.42    1.51
   0  -3   2   31.19    1.19
   0   3   2   29.66    1.30
   0   3   2   31.64    1.22
   0  -3  -2   29.64    1.45
   0  -3   2   29.86    1.36
   0  -3  -2   30.06    1.42
   0   3   2   31.32    1.36
   0   3  -2   28.30    1.05
   0  -3  -2   30.38    1.45
   0  -3   2   30.02    1.36
   0  -3  -3   10.92    1.01
   0  -3   3   10.51    1.00
   0  -3   3   11.44    0.96
   0   3   3    9.31    0.91
   0   3  -3   10.71    1.00
   0  -3  -3    9.77    1.00
   0  -3  -3   12.01    1.15
   0   3  -3   10.69    1.13
   0   3  -3   10.00    0.77
   0  -3  -3   11.08    1.13
   0   3   3   10.76    0.95
   0   3  -3   10.75    1.02
   0   3  -3   10.44    1.07
   0   3   3   10.95    0.96
   0   3  -4    0.70    0.48
   0  -3  -4   -0.38    0.51
   0   3   4   -0.26    0.46
   0   3   4   -0.04    0.36
   0  -3  -4   -0.23    0.42
   0   3  -4   -0.36    0.51
   0   3  -4    0.13    0.48
   0  -3  -4   -0.15    0.39
   0  -3   4    0.24    0.41
   0   3   5   -0.42    0.51
   0   3  -5   -0.16    0.62
   0  -3  -5   -0.06    0.58
   0   3   5   -1.10    0.62
   0  -3  -5   -0.20    0.51
   0  -3  -5    0.05    0.53
   0  -3   5    0.57    0.62
   0   3  -5   -0.54    0.47
   0   3  -5    0.40    0.56
   0  -3   5   -0.06    0.46
   0   3  -6    0.93    0.88
   0  -3   6    2.11    1.03
   0  -3  -6    1.10    0.69
   0  -3  -6    0.77    0.86
   0  -3  -6    2.02    0.95
   0  -3   6    0.95    0.78
   0   3   6   -0.47    0.81
   0   3  -6    0.53    0.75
   0   4   0  981.33    6.58
   0  -4   0  985.11    6.27
   0   4   0  947.41    6.38
   0  -4   0  971.96    6.14
   0  -4   0  980.23    6.69
   0  -4   0  980.85    6.61
   0   4   0 1000.00    6.08
   0   4  -1  509.00    5.31
   0   4   1  512.17    4.70
   0  -4  -1  509.02    5.32
   0   4  -1  517.52    5.27
   0  -4  -1  511.57    5.08
   0   4  -1  501.99    4.83
   0  -4   1  507.86    4.74
   0   4  -1  512.40    3.71
   0   4   1  513.52    4.71
   0  -4  -1  509.51    4.17
   0   4   1  513.50    4.98
   0  -4  -1  510.20    4.95
   0   4   1  508.75    4.02
   0  -4   1  516.41    4.77
   0   4  -1  499.49    4.88
   0  -4   1  508.61    5.21
   0   4   1  515.31    4.68
   0  -4  -1  506.34    5.04
   0  -4  -2    4.38    0.60
   0  -4   2    4.51    0.63
   0   4  -2    4.34    0.60
   0   4   2    4.47    0.59
   0  -4   2    4.37    0.54
   0  -4  -2    4.27    0.63
   0   4   2    4.42    0.58
   0  -4  -2    3.88    0.57
   0   4   2    3.97    0.55
   0  -4   2    4.59    0.57
   0   4  -2    4.56    0.52
   0   4  -2    3.37    0.59
   0  -4  -2    4.63    0.60
   0   4   2    3.61    0.47
   0  -4   2    4.03    0.58
   0   4  -2    4.48    0.56
   0  -4  -2    3.73    0.52
   0   4   2    4.04    0.47
   0   4  -2    4.23    0.53
   0   4  -2    4.53    0.65
   0  -4  -2    4.65    0.56
   0  -4  -3    0.12    0.35
   0   4  -3    0.79    0.40
   0   4  -3    0.33    0.32
   0  -4  -3    0.25    0.27
   0  -4   3    0.00    0.37
   0  -4   3    0.83    0.46
   0   4   3    0.55    0.40
   0   4  -3    0.05    0.27
   0   4   3    0.69    0.39
   0  -4  -3   -0.11    0.39
   0   4  -3    0.52    0.41
   0   4   3    0.58    0.31
   0  -4  -3    1.13    0.54
   0  -4  -4   12.21    1.21
   0  -4  -4   13.94    1.51
   0  -4   4   13.73    1.41
   0  -4   4   13.47    1.27
   0  -4  -4   12.66    1.37
   0   4  -4   12.71    1.34
   0  -4  -4   12.51    1.42
   0   4  -4   13.32    1.50
   0   4   4   12.08    1.25
   0   4  -4   14.85    1.58
   0   4   4   15.53    1.41
   0   4  -4   13.23    1.40
   0   4   4   14.20    1.38
   0   4   5    0.87    0.52
   0   4  -5    0.20    0.58
   0   4  -5    0.64    0.65
   0  -4  -5    1.33    0.72
   0  -4   5   -0.06    0.58
   0   4  -5    0.27    0.65
   0  -4   5    0.28    0.57
   0  -4  -5   -1.10    0.66
   0   4   5   -0.02    0.59
   0  -4  -5    0.23    0.61
   0  -4   6   -0.72    0.85
   0  -4  -6   -1.14    0.91
   0   4  -6   -0.07    0.80
   0  -4  -6   -0.90    0.75
   0   4   6   -0.05    0.68
   0  -4   6    0.39    0.72
   0   5   0    0.16    0.21
   0   5   0   -0.11    0.12
   0  -5   0    0.01    0.19
   0  -5   0    0.19    0.20
   0  -5   0    0.29    0.23
   0   5   0    0.03    0.16
   0  -5   0   -0.02    0.19
   0   5   0   -0.04    0.16
   0   5   0   -0.04    0.14
   0  -5   0    0.06    0.12
   0   5   1   28.74    1.31
   0  -5   1   26.86    1.08
   0   5  -1   30.69    1.36
   0  -5   1   28.81    1.29
   0  -5  -1   28.74    1.28
   0  -5   1   28.71    1.38
   0  -5  -1   29.19    1.16
   0  -5  -1   30.47    1.45
   0   5  -1   30.19    1.37
   0   5  -1   28.86    1.39
   0   5   1   27.86    1.06
   0  -5  -1   29.23    1.39
   0   5   1   28.85    1.29
   0   5   1   29.57    1.21
   0   5  -1   29.49    1.38
   0   5   1   29.35    1.00
   0  -5  -1   29.12    1.38
   0   5   1   29.31    1.27
   0   5  -1   30.18    1.07
   0  -5   1   28.07    1.28
   0   5  -2    3.42    0.60
   0  -5   2    3.65    0.52
   0  -5   2    3.45    0.56
   0   5  -2    4.09    0.63
   0  -5   2    3.85    0.54
   0  -5  -2    4.14    0.64
   0  -5  -2    3.45    0.51
   0   5   2    3.69    0.53
   0  -5  -2    3.92    0.52
   0  -5   2    3.48    0.52
   0   5   2    3.29    0.47
   0   5   2    3.41    0.48
   0  -5  -2    3.82    0.57
   0  -5  -2    4.18    0.62
   0   5  -2    3.69    0.52
   0   5   2    4.20    0.56
   0   5   2    3.82    0.56
   0   5  -2    4.07    0.57
   0   5  -2    3.15    0.55
   0   5  -2    4.24    0.50
   0  -5  -2    3.15    0.52
   0   5  -3    8.81    1.07
   0   5  -3    7.96    1.04
   0   5  -3    8.59    0.93
   0  -5  -3    8.78    1.06
   0  -5  -3    8.00    0.97
   0  -5   3    8.69    0.98
   0   5  -3    9.19    1.13
   0   5   3    8.62    0.92
   0  -5   3    7.87    0.96
   0  -5  -3    6.90    0.91
   0  -5  -3    8.78    0.97
   0   5   3    9.50    0.97
   0   5   3    9.26    0.94
   0  -5   4    6.63    0.97
   0  -5  -4    0.73    1.12
   0  -5  -4    6.95    1.06
   0   5  -4    6.52    1.10
   0   5  -4    8.01    1.20
   0   5   4    8.28    1.15
   0   5  -4    6.48    1.18
   0  -5  -4    0.95    0.90
   0   5   4    6.97    0.98
   0  -5  -4    6.22    1.04
   0  -5   4    7.50    1.14
   0   5  -4    7.55    1.05
   0   5   4    6.16    0.91
   0  -5   5    2.13    1.06
   0   5   5    2.55    0.90
   0   5  -5    3.26    1.62
   0  -5  -5    1.68    0.79
   0  -5  -5    0.65    0.55
   0   5  -5    1.65    0.76
   0   5  -5    0.59    0.79
   0   5   5    1.04    0.72
   0   5   5    2.35    0.69
   0  -5  -5   -0.09    0.58
   0  -5   6    4.20    1.21
   0  -5  -6    3.85    1.03
   0   5  -6    3.94    1.19
   0   5  -6    3.16    1.08
   0  -5  -6    0.40    1.10
   0   5   6    3.92    1.11
   0  -5   6    5.13    1.31
   0   6   0   58.55    1.63
   0  -6   0   60.18    1.58
   0  -6   0   60.07    1.93
   0   6   0   64.36    2.10
   0  -6   0   55.57    2.06
   0  -6   0   55.79    1.46
   0   6   0   61.96    1.89
   0  -6   0   59.79    1.95
   0   6   0   59.83    1.48
   0   6   0   60.97    1.95
   0   6   0   60.89    2.01
   0  -6   0   59.34    2.08
   0   6   1   -0.05    0.19
   0  -6  -1   -0.54    0.28
   0  -6  -1   -0.98    0.36
   0   6   1   -0.06    0.26
   0  -6   1    0.05    0.24
   0   6  -1   -0.09    0.31
   0   6   1    0.05    0.29
   0   6   1    0.13    0.19
   0  -6  -1    0.43    0.35
   0  -6   1   -0.41    0.39
   0   6  -1    0.14    0.21
   0  -6  -1   -0.36    0.31
   0  -6   1    0.08    0.30
   0   6  -1    0.11    0.18
   0  -6  -1    0.33    0.24
   0   6  -1   -0.16    0.22
   0  -6   1    0.10    0.16
   0  -6   1   -0.07    0.18
   0   6   1   -0.11    0.17
   0   6  -1    0.25    0.32
   0  -6  -2    7.38    0.82
   0  -6   2    6.83    0.76
   0  -6   2    7.06    0.80
   0  -6  -2    6.14    0.67
   0   6   2    7.28    0.80
   0   6  -2    8.05    0.82
   0   6  -2    7.49    0.89
   0  -6   2    7.26    0.76
   0   6   2    7.19    0.75
   0  -6  -2    7.22    0.66
   0   6   2    6.83    0.76
   0   6  -2    7.26    0.81
   0  -6  -2    7.61    0.92
   0  -6   2    8.03    0.92
   0   6   2    6.93    0.73
   0   6  -2    6.94    0.63
   0  -6  -2    6.95    0.81
   0   6   2    7.06    0.71
   0   6  -2    7.53    0.89
   0  -6  -2    7.20    0.88
   0   6  -2    6.71    0.75
   0  -6  -3    0.35    0.39
   0  -6  -3    0.49    0.47
   0   6  -3    0.24    0.31
   0   6  -3    0.84    0.46
   0   6  -3   -0.21    0.37
   0  -6   3   -0.23    0.37
   0  -6  -3    0.15    0.30
   0  -6  -3    0.20    0.47
   0   6  -3    0.08    0.35
   0   6   3   -0.01    0.25
   0   6   3   -0.21    0.33
   0  -6   3   -0.43    0.42
   0   6   3    0.13    0.37
   0   6   4   14.92    1.42
   0  -6  -4   13.61    1.46
   0   6  -4   16.86    1.60
   0   6   4   17.83    1.64
   0   6   4   15.46    1.46
   0   6  -4   16.68    1.87
   0  -6  -4   13.56    1.51
   0  -6   4   14.68    1.58
   0   6  -4   12.83    1.48
   0   6  -4   15.90    1.68
   0   6  -5    0.01    0.78
   0  -6   5    0.20    0.58
   0  -6  -5   -0.35    0.65
   0   6  -5    0.47    0.65
   0  -6  -5    0.04    0.60
   0   6   5   -0.72    0.61
   0   6  -5    0.81    0.78
   0  -6  -5    0.04    0.71
   0   6   5   -0.42    0.47
   0  -6   5    1.29    0.75
   0  -6  -6    4.03    1.22
   0  -6   6    2.17    1.08
   0   6   6    2.79    0.99
   0   6  -6    0.66    0.69
   0  -6  -6    0.43    1.10
   0   7   0    0.31    0.26
   0  -7   0    0.32    0.28
   0  -7   0    0.06    0.21
   0   7   0    0.44    0.34
   0   7   0   -0.11    0.22
   0   7   0    0.01    0.16
   0   7   0   -0.17    0.18
   0  -7   0   -0.16    0.26
   0   7   0   -0.12    0.23
   0  -7   0    0.82    0.41
   0  -7   0    0.16    0.21
   0  -7   0   -0.10    0.30
   0  -7  -1    6.78    0.74
   0   7   1    7.13    0.68
   0  -7   1    6.46    0.83
   0   7  -1    7.08    0.87
   0   7   1    7.20    0.78
   0  -7  -1    6.60    0.86
   0   7   1    5.96    0.71
   0  -7  -1    7.49    0.88
   0  -7   1    6.67    0.78
   0   7  -1    6.93    0.78
   0   7   1    6.81    0.68
   0  -7   1    6.41    0.66
   0   7  -1    6.49    0.77
   0  -7   1    6.28    0.73
   0   7   1    7.72    0.80
   0  -7   1    6.98    0.83
   0  -7  -1    6.95    0.74
   0   7  -1    6.78    0.68
   0   7  -1    7.06    0.81
   0  -7  -1    7.50    0.89
   0  -7  -2    6.71    0.85
   0   7   2    6.50    0.84
   0  -7   2    7.43    0.85
   0   7  -2    8.01    0.99
   0  -7  -2    6.91    0.87
   0   7  -2    8.45    1.04
   0  -7  -2    7.50    0.98
   0   7  -2    8.24    0.91
   0  -7  -2    8.13    1.02
   0   7   2    8.04    0.86
   0  -7   2    7.39    0.88
   0   7   2    7.56    0.83
   0   7   2    7.33    0.85
   0  -7   2    6.95    0.92
   0   7  -2    7.42    0.91
   0   7  -3    6.03    1.06
   0   7   3    6.06    0.91
   0   7  -3    5.78    0.96
   0   7   3    7.13    0.95
   0  -7   3    4.34    0.83
   0  -7  -3    5.07    1.05
   0   7  -4    2.76    0.81
   0   7  -4    2.89    0.97
   0  -7   4    3.33    0.95
   0  -7  -4    1.04    0.96
   0   7   4    3.11    0.78
   0   7   4    2.64    0.71
   0  -7   4    2.14    0.78
   0  -7  -4    0.25    0.88
   0  -7  -5   -0.09    0.72
   0  -7   5    1.52    0.86
   0   7  -5    0.08    0.60
   0   7   5    0.64    0.57
   0  -7  -6    0.03    0.99
   0  -8   0    1.06    0.45
   0  -8   0    0.50    0.44
   0   8   0    0.56    0.34
   0   8   0    0.85    0.40
   0  -8   0    0.56    0.36
   0   8   0    0.39    0.28
   0   8   0    1.14    0.42
   0  -8   0    0.06    0.27
   0   8  -1  167.32    4.24
   0  -8  -1  171.40    3.72
   0  -8  -1  167.37    4.31
   0   8  -1  164.36    4.33
   0  -8   1  168.49    3.63
   0  -8  -1  162.04    4.27
   0   8  -1  171.79    3.60
   0   8   1  174.11    3.99
   0   8   1  168.41    3.56
   0   8   1  171.00    3.93
   0  -8   1  174.14    3.79
   0   8  -1  168.94    4.10
   0  -8   1  164.16    4.04
   0   8   1  168.45    4.00
   0   8  -1  167.23    4.18
   0  -8  -1  172.61    3.87
   0  -8   1  171.34    4.15
   0   8   1  170.46    3.64
   0  -8   1  172.09    4.19
   0  -8  -1  168.51    4.29
   0  -8   2   11.22    1.29
   0   8   2   11.32    1.06
   0  -8  -2   11.75    1.21
   0   8  -2   10.73    1.20
   0  -8  -2   12.45    1.28
   0   8   2   11.13    1.11
   0  -8  -2   11.94    1.31
   0  -8  -2   12.26    1.23
   0   8   2   11.40    1.13
   0  -8   2   12.06    1.20
   0   8   2   12.54    1.12
   0   8  -2   13.10    1.36
   0   8  -2   12.74    1.23
   0  -8   2   11.41    1.13
   0   8  -2   12.86    1.23
   0  -8   2   11.09    1.20
   0   8   3    3.44    0.73
   0  -8   3    4.48    0.91
   0   8   3    3.73    0.69
   0   8  -3    2.39    0.69
   0  -8  -3    2.36    0.88
   0  -8   3    3.16    0.79
   0   8  -3    3.19    0.86
   0  -8  -3    0.80    0.70
   0  -8  -4    0.92    0.92
   0  -8   4    4.19    0.96
   0   8  -4    4.32    1.06
   0   8   4    3.44    0.77
   0   8   4    3.56    0.83
   0  -8   4    3.02    0.96
   0   8  -4    3.66    0.99
   0  -8  -4    0.56    1.11
   0  -8  -5    1.51    0.74
   0   8   5    0.97    0.69
   0   8  -5    1.64    0.94
   0  -8   5    0.17    0.67
   0  -8   5   -0.57    0.75
   0  -9   0   -0.44    0.45
   0  -9   0    0.01    0.38
   0   9   0   -0.16    0.33
   0   9   0   -0.06    0.30
   0  -9   0   -0.14    0.38
   0   9   0    0.16    0.35
   0  -9   0   -0.91    0.54
   0   9   0    0.46    0.39
   0   9   1    3.00    0.64
   0  -9   1    2.98    0.82
   0   9   1    3.90    0.66
   0   9   1    2.90    0.60
   0   9  -1    3.35    0.63
   0  -9  -1    2.55    0.56
   0   9  -1    4.00    0.74
   0  -9  -1    3.14    0.66
   0   9  -1    2.90    0.62
   0   9   1    4.10    0.76
   0  -9  -1    2.09    0.67
   0  -9   1    1.73    0.58
   0   9  -1    2.89    0.71
   0   9  -1    3.08    0.64
   0  -9  -1    2.50    0.70
   0  -9  -1    2.59    0.67
   0  -9   1    3.16    0.71
   0  -9   1    2.92    0.59
   0  -9   2    0.52    0.52
   0   9  -2    0.21    0.45
   0   9  -2    0.71    0.68
   0  -9  -2    0.92    0.59
   0   9   2    0.07    0.32
   0   9  -2   -0.01    0.36
   0  -9   2    0.85    0.59
   0   9   2    0.40    0.38
   0   9   2    0.93    0.50
   0  -9  -2   -0.24    0.53
   0   9   2    0.12    0.47
   0  -9   2    1.07    0.57
   0   9  -2    0.41    0.47
   0  -9  -2    0.64    0.57
   0  -9   2    0.54    0.53
   0  -9  -2    0.72    0.57
   0  -9  -3    7.19    1.48
   0   9  -3   12.80    1.63
   0  -9  -3    7.09    1.54
   0   9  -3   12.17    1.56
   0  -9   3   11.64    1.46
   0   9   3   13.20    1.40
   0   9   3   13.25    1.37
   0  -9   3   10.91    1.45
   0   9  -4    0.90    0.69
   0  -9  -4    0.82    0.92
   0  -9   4    1.36    0.80
   0  -9  -4    0.19    0.95
   0   9   4    1.58    0.72
   0   9   4    0.54    0.52
   0   9  -4    1.90    0.91
   0  -9   4    0.97    0.76
   0   9  -5    1.75    0.97
   0  -9   5    0.46    0.79
   0  -9   5    1.37    0.93
   0  -9  -5    0.82    0.93
   0  -9  -5    0.50    0.94
   0   9   5    0.43    0.50
   0 -10   0   15.37    1.45
   0  10   0   17.55    1.45
   0  10   0   17.00    1.50
   0  10   0   17.04    1.50
   0 -10   0   16.71    1.60
   0 -10   0   17.34    1.51
   0 -10   0   15.48    1.52
   0  10   1    2.54    0.67
   0 -10   1    2.85    0.85
   0  10  -1    2.82    0.77
   0 -10   1    2.03    0.80
   0  10   1    0.31    0.58
   0 -10  -1    1.77    0.71
   0  10  -1    2.66    0.80
   0 -10  -1    2.88    0.86
   0 -10  -1    1.90    0.68
   0  10   1    2.20    0.63
   0 -10   1    4.40    0.99
   0  10  -1    3.53    0.84
   0 -10   2    1.55    0.70
   0 -10  -2    1.38    0.73
   0  10   2    1.13    0.50
   0 -10   2    2.36    0.73
   0  10  -2    1.65    0.61
   0 -10   2    1.54    0.72
   0 -10  -2    2.19    0.67
   0  10   2    0.84    0.56
   0  10  -2    1.73    0.68
   0  10   2    1.27    0.51
   0 -10  -2    0.86    0.65
   0 -10   2    1.64    0.60
   0 -10  -2    0.72    0.56
   0  10   2    0.58    0.40
   0  10  -2    1.91    0.68
   0  10  -2    1.43    0.70
   0  10  -3    2.87    0.81
   0  10  -3    3.64    1.03
   0 -10  -3    3.12    1.02
   0 -10   3    2.85    0.99
   0  10   3    4.70    1.00
   0 -10   3    3.44    0.93
   0  10   3    4.55    0.90
   0 -10  -3    1.84    1.06
   0  10  -4    1.90    0.71
   0  10   4    0.97    0.58
   0 -10   4    2.27    0.88
   0  10   4    1.32    0.49
   0  10  -4    1.62    0.86
   0 -10  -4    0.65    0.91
   0 -10   4    3.23    1.10
   0 -10  -4   -0.23    0.82
   0 -10   5    0.72    0.78
   0 -10  -5    0.09    0.78
   0  10  -5    1.11    0.95
   0  10   5    1.06    0.60
   0 -10   5    2.29    1.11
   0 -10  -5    0.34    1.17
   0  11   0    0.77    0.63
   0 -11   0    0.33    0.56
   0 -11   0    0.38    0.58
   0 -11   0   -0.47    0.61
   0  11   0   -0.23    0.39
   0  11   0    0.22    0.49
   0  11   0    0.15    0.48
   0 -11   0    0.03    0.43
   0  11   1    1.06    0.84
   0  11  -1    1.43    0.65
   0  11  -1    0.31    0.68
   0 -11  -1   -0.78    0.55
   0 -11   1   -0.44    0.61
   0 -11  -1   -0.46    0.73
   0  11   1    0.01    0.42
   0 -11   1    1.07    0.70
   0 -11   1    0.05    0.62
   0  11  -1    0.41    0.55
   0 -11  -1   -0.07    0.60
   0  11   1   -0.25    0.78
   0 -11   2    0.27    0.56
   0 -11   2    0.75    0.58
   0  11  -2   -0.07    0.52
   0 -11   2   -0.81    0.81
   0  11  -2    0.29    0.52
   0 -11  -2   -0.21    0.80
   0  11   2   -0.02    0.49
   0  11   2    0.06    0.45
   0  11   2   -0.09    0.48
   0 -11  -2   -1.62    0.89
   0  11  -2    0.74    0.60
   0 -11  -2    0.61    0.74
   0  11  -3    0.64    0.71
   0  11  -3    0.73    0.66
   0 -11   3   -1.27    0.66
   0 -11   3    0.21    0.66
   0  11   3    0.43    0.57
   0  11   3    0.69    0.55
   0 -11  -3    0.00    0.78
   0 -11  -3   -0.32    0.87
   0 -11   4    2.26    0.98
   0 -11  -4   -0.18    0.91
   0  11  -4    1.63    0.90
   0  11   4    1.28    0.61
   0  11  -4    0.05    0.68
   0 -11  -4    0.21    0.91
   0 -11   4    1.61    0.88
   0  11   4    1.89    0.69
   0 -11  -5    0.15    0.92
   0 -11  -5   -0.05    0.78
   0  12   0   39.15    2.55
   0  12   0   34.23    2.44
   0 -12   0   31.90    2.56
   0  12   0   36.53    2.47
   0 -12   0   33.01    2.55
   0 -12   0   32.77    2.38
   0 -12   0   30.66    2.36
   0  12   1    6.28    1.03
   0  12  -1    6.31    1.18
   0  12  -1    5.96    1.13
   0 -12  -1    5.27    1.11
   0 -12  -1    5.08    1.11
   0 -12   1    5.56    1.26
   0 -12   1    4.57    1.05
   0 -12   1    6.15    1.25
   0 -12  -1    5.89    1.12
   0  12   1    1.29    1.11
   0  12  -1    7.17    1.24
   0  12   1    6.42    1.07
   0  12  -2    8.00    1.46
   0  12  -2    6.84    1.29
   0 -12   2    4.25    0.93
   0  12   2    7.13    1.27
   0  12  -2    6.32    1.31
   0 -12   2    5.17    1.11
   0 -12  -2    5.15    1.19
   0  12   2    6.33    1.11
   0 -12  -2    4.79    1.22
   0 -12   2    6.07    1.19
   0  12   2    2.40    1.11
   0 -12  -2    6.32    1.26
   0  12  -3    6.42    1.38
   0  12   3    6.46    1.30
   0 -12   3    4.21    1.16
   0 -12  -4    0.34    0.91
   0 -12   4    1.55    0.91
   0 -12  -4    0.33    0.75
   0  12  -4    1.21    0.86
   0  12   4   -0.56    0.71
   0  12   4    0.79    0.59
   0 -12   4   -0.54    0.78
   0  12  -4    0.17    0.76
   0  13   0    0.74    0.72
   0  13   0   -0.05    0.60
   0 -13   0    0.29    0.65
   0  13   0   -0.33    0.53
   0 -13   0   -1.80    0.90
   0 -13   0    0.17    0.58
   0  13   0   -0.61    0.57
   0 -13   0   -0.42    0.71
   0  13   1    0.36    0.68
   0 -13   1    1.82    0.86
   0 -13   1   -0.91    0.77
   0 -13  -1   -0.57    0.76
   0  13  -1    0.43    0.60
   0  13  -1    0.00    0.56
   0  13   1   -0.02    0.59
   0  13  -1    0.28    0.63
   0 -13   1   -0.46    0.86
   0 -13  -1   -0.65    0.78
   0 -13  -1    0.16    0.63
   0  13   1   -0.13    0.58
   0  13  -2    1.50    0.97
   0 -13  -2    1.53    1.01
   0 -13   2    3.74    1.24
   0 -13   2    2.50    1.03
   0 -13   2    1.48    0.86
   0 -13  -2    1.60    0.91
   0 -13  -2    0.95    0.96
   0  13  -2    3.01    1.03
   0  13   2    1.59    0.80
   0  13  -2    1.98    0.70
   0  13   2    3.02    0.91
   0  13   2    0.67    0.86
   0  13   3    3.97    1.07
   0 -13   3    3.02    1.01
   0 -13  -3    1.95    1.32
   0  13  -3    4.94    1.33
   0  13   4    0.48    0.73
   0 -13   4   -0.01    0.87
   0 -13  -4   -0.21    0.82
   0  13  -4   -0.95    0.84
   0 -13  -4    0.23    0.93
   0  14   0    0.35    0.64
   0 -14   0    0.52    0.79
   0  14   0    0.08    0.72
   0 -14   0    0.40    0.84
   0  14  -1    0.68    0.69
   0  14  -1    0.07    0.87
   0 -14   1    1.68    1.04
   0  14  -1    1.22    0.76
   0  14   1    0.26    0.87
   0 -14  -1    2.55    1.14
   0 -14   1    1.59    0.93
   0 -14  -1    1.16    0.88
   0  14   1    2.15    0.97
   0 -14   1    2.67    0.99
   0  14   1    3.27    1.11
   0 -14  -1    2.34    1.11
   0  14  -2    0.71    0.74
   0  14   2   -0.03    0.50
   0 -14   2   -0.79    1.03
   0 -14   2    1.08    1.04
   0  14   2   -0.93    0.76
   0  14  -2    0.36    0.87
   0 -14  -2   -0.42    0.98
   0  14  -2   -1.20    0.76
   0 -14  -2    2.08    1.09
   0 -14   2   -0.44    0.79
   0  14   2    0.14    0.63
   0 -14  -2    1.17    0.93
   0  14  -3    3.31    1.27
   0 -14  -3   -0.25    0.86
   0  15   0   -0.06    0.88
   0 -15   0   -3.05    1.37
   0  15   0   -0.98    0.89
   0 -15  -1    1.09    1.14
   0  15  -1   -0.03    0.75
   0 -15   1   -0.34    0.87
   0  15  -1    0.32    0.87
   0 -15   1    0.50    0.85
   0  15   1    0.08    0.68
   0 -15  -1   -1.12    0.85
   0 -15  -1   -1.86    0.97
   0  15  -1   -0.94    0.70
   0  15   1   -0.09    0.82
   0  15   1    1.44    0.72
   0 -15   1   -0.12    0.92
   0 -15  -2    0.34    0.94
   0 -15   2    0.10    0.92
   0  15   2   -0.08    0.66
   0  15  -2   -0.04    0.79
   0  15  -2   -0.49    0.69
   0 -15  -2   -2.61    1.49
   0 -15   2    0.67    0.94
   0 -15  -2   -2.74    1.44
   0  15   2   -2.31    1.07
   0 -16   0    4.15    1.37
   0  16   0    1.51    1.77
   0  16  -1    1.63    0.95
   0 -16  -1   -1.11    1.20
   0 -16  -1    0.25    0.92
   0  16  -1    0.24    0.76
   0 -16  -2   -0.45    1.51
   1   0  -6    6.14    1.25
   1   0  -6    8.42    1.62
  -1   0   6    8.14    1.39
  -1   0   6    6.96    1.61
  -1   0   5    0.14    0.50
   1   0  -5    0.52    0.49
   1   0  -5   -0.67    0.64
  -1   0   5    0.52    0.47
  -1   0   5   -0.31    0.42
   1   0  -5    0.29    0.45
   1   0  -5   -0.41    0.55
  -1   0   5    0.80    0.86
   1   0  -4   20.04    1.55
  -1   0   4   23.30    1.83
  -1   0   4   22.49    1.67
  -1   0   4   20.91    1.63
   1   0  -4   23.75    1.87
  -1   0   4   21.16    1.47
   1   0  -4   22.83    1.66
   1   0  -4   21.52    1.52
   1   0  -3   -0.35    0.28
  -1   0   3    0.01    0.26
  -1   0   3   -0.22    0.25
   1   0  -3    0.27    0.25
  -1   0   3    0.37    0.25
   1   0  -3    0.12    0.15
  -1   0   3    0.01    0.28
   1   0  -3    0.01    0.18
  -1   0   3    0.07    0.20
   1   0  -3   -0.07    0.17
   1   0  -3   -0.36    0.25
   1   0  -2   29.40    1.23
  -1   0   2   30.15    1.39
  -1   0   2   31.55    1.36
   1   0  -2   31.05    1.33
   1   0  -2   32.36    1.26
   1   0  -2   32.25    1.19
  -1   0   1   -0.11    0.10
  -1   0  -3    0.10    0.36
  -1   0  -3   -0.15    0.29
  -1   0  -4   46.07    2.56
  -1   0  -4   42.26    2.26
   1   1  -6   -0.58    0.77
   1  -1  -6    1.30    0.93
  -1   1   6    0.16    0.70
   1   1  -6    2.19    0.91
  -1   1   6   -1.32    0.75
  -1  -1   6   -0.61    0.80
  -1  -1   6   -0.05    0.67
  -1  -1   6   -0.79    0.77
  -1   1   6   -0.25    0.56
   1  -1  -6    0.62    0.70
   1   1  -5   -0.61    0.53
  -1   1   5    0.82    0.56
   1  -1  -5   -0.42    0.63
   1   1  -5   -0.18    0.50
  -1  -1   5    0.05    0.53
  -1  -1   5    0.30    0.55
   1  -1  -5    0.08    0.59
  -1   1   5   -0.45    0.74
  -1  -1   5   -0.51    0.57
  -1   1   5   -0.01    0.47
   1   1  -5    0.28    0.57
   1  -1  -5    0.53    0.54
  -1   1   4    2.08    0.60
  -1   1   4    2.17    0.61
   1   1  -4    1.77    0.55
   1  -1  -4    1.24    0.40
   1  -1  -4    2.07    0.59
   1   1  -4    2.27    0.70
  -1  -1   4    1.97    0.57
  -1   1   4    1.28    0.50
  -1  -1   4    1.85    0.61
  -1  -1   4    2.28    0.72
  -1  -1   4    2.52    0.56
  -1   1   4    2.04    0.53
   1  -1  -4    2.34    0.65
   1   1  -4    1.76    0.54
   1  -1  -4    1.59    0.58
   1   1  -4    1.54    0.40
  -1  -1   3   11.68    0.88
   1   1  -3   11.92    1.10
   1  -1  -3   11.76    1.07
   1  -1  -3   12.66    1.01
   1   1  -3   12.25    1.00
   1   1  -3   12.66    0.80
   1   1  -3   12.90    0.94
   1  -1  -3   12.70    0.95
  -1  -1   3   13.43    1.14
   1   1  -3   12.08    1.06
   1  -1  -3   12.49    0.84
  -1   1   3   12.55    1.03
  -1   1   3   13.42    1.17
  -1  -1   3   13.66    1.19
  -1  -1   3   12.72    0.90
  -1   1   3   12.80    0.79
   1  -1  -3   12.45    0.97
   1  -1  -2  171.41    2.70
   1   1  -2  175.15    3.08
   1   1  -2  173.92    2.89
   1  -1  -2  167.19    3.09
  -1  -1   2  171.84    2.90
   1   1  -2  176.99    3.14
   1  -1  -2  175.16    2.94
   1   1  -2  170.78    2.59
  -1   1   2  172.86    3.02
  -1  -1   2  170.12    3.28
  -1  -1   2  168.49    3.27
   1   1  -2  176.82    2.53
  -1   1   2  169.13    3.34
   1  -1  -2  173.47    2.93
  -1   1   2  173.83    2.42
  -1  -1   1   69.59    1.86
  -1  -1   1   67.51    1.80
  -1   1  -3    4.74    0.75
  -1  -1  -3    3.96    0.64
  -1  -1  -3    4.34    0.73
  -1   1  -4    3.35    0.81
  -1  -1  -4    1.86    0.59
  -1  -1  -4    2.11    0.65
   1   2  -6    0.31    0.69
   1   2  -6    0.26    0.57
   1  -2  -6    0.16    0.73
  -1   2   6   -0.08    0.65
  -1   2   6    0.48    0.84
  -1  -2   6    0.86    0.76
  -1  -2   6   -0.21    0.69
   1  -2  -6   -1.06    0.74
  -1  -2   6    1.19    0.88
  -1   2   6    0.22    0.52
   1  -2  -6    3.01    1.17
   1   2  -6    1.80    0.93
   1  -2  -5   10.41    1.42
   1  -2  -5   11.92    1.63
   1   2  -5   11.68    1.41
   1   2  -5   11.69    1.54
   1  -2  -5   10.42    1.42
  -1  -2   5   12.37    1.67
   1   2  -5   10.42    1.49
  -1  -2   5   12.46    1.63
  -1   2   5   11.92    1.42
  -1  -2   5   10.58    1.31
  -1   2   5   12.23    1.58
  -1   2   5   10.91    1.29
   1   2  -4    0.72    0.44
   1  -2  -4    0.14    0.54
  -1  -2   4   -0.03    0.33
   1  -2  -4    0.28    0.28
   1   2  -4    0.77    0.35
   1  -2  -4    0.48    0.37
   1   2  -4   -0.51    0.46
  -1   2   4   -0.16    0.39
  -1  -2   4   -0.20    0.44
  -1   2   4   -0.87    0.65
  -1  -2   4    0.81    0.52
  -1   2   4    0.23    0.37
  -1   2   4   -0.13    0.36
   1  -2  -4   -2.03    0.71
  -1  -2   3   45.29    1.84
   1  -2  -3   46.10    1.74
   1  -2  -3   47.04    2.10
   1   2  -3   45.98    2.12
   1   2  -3   45.93    1.67
   1   2  -3   44.83    1.87
   1  -2  -3   47.00    1.75
  -1  -2   3   45.13    1.61
   1  -2  -3   46.30    1.96
   1   2  -3   48.68    2.10
  -1  -2   3   43.58    2.14
  -1   2   3   41.85    1.80
  -1  -2   3   48.54    2.19
  -1   2   3   48.31    2.18
   1   2  -3   45.33    1.65
  -1   2   3   44.49    1.64
   1  -2  -3   47.39    1.99
  -1  -2   2   53.42    1.75
   1   2  -2   54.45    1.82
   1  -2  -2   51.95    1.64
   1  -2  -2   49.04    1.69
   1   2  -2   52.13    1.56
   1  -2  -2   52.51    1.57
   1   2  -2   49.12    1.72
   1   2  -2   54.35    1.60
  -1   2   2   53.48    1.86
  -1   2   2   52.67    1.69
  -1  -2   2   53.07    1.85
  -1  -2   2   51.30    1.88
  -1   2   2   50.90    1.51
   1  -2  -2   53.66    1.73
   1   2  -1  244.88    3.27
   1   2  -1  244.29    3.33
  -1  -2   1  242.62    3.51
  -1  -2   1  246.73    3.55
   1  -2  -1  246.81    3.08
  -1  -2  -2    2.66    0.44
  -1  -2  -3    0.69    0.46
  -1  -2  -3   -0.53    0.41
  -1   2  -3    0.14    0.31
  -1  -2  -3    0.72    0.33
  -1  -2  -4    4.75    0.87
  -1  -2  -4    6.55    1.04
   1  -3  -7   -0.41    0.81
   1   3  -7   -1.04    0.81
  -1  -3   6   -1.33    0.78
   1   3  -6   -0.30    0.64
  -1  -3   6   -1.30    0.99
  -1   3   6   -1.05    0.56
   1  -3  -6   -0.25    0.65
   1  -3  -6   -0.72    0.83
   1  -3  -6    0.19    0.67
  -1   3   6   -0.09    0.72
  -1  -3   6   -0.01    0.57
   1   3  -6    0.68    0.66
  -1   3   6    0.04    0.53
   1   3  -6    0.34    0.66
  -1   3   5   -0.83    0.60
   1   3  -5    1.46    0.69
   1  -3  -5    0.69    0.54
   1  -3  -5    0.03    0.54
  -1  -3   5    0.18    0.57
   1  -3  -5   -1.18    0.65
   1   3  -5   -0.46    0.68
   1   3  -5   -0.15    0.46
  -1   3   5    0.73    0.58
  -1  -3   5   -0.53    0.64
  -1  -3   5    0.64    0.60
  -1   3   5    0.50    0.68
   1   3  -4    2.19    0.64
  -1  -3   4    1.69    0.59
   1   3  -4    1.40    0.53
   1   3  -4    2.65    0.64
   1  -3  -4    2.51    0.65
  -1  -3   4    3.01    0.69
  -1   3   4    1.31    0.45
   1  -3  -4    1.92    0.69
  -1   3   4    2.33    0.66
  -1  -3   4    2.33    0.73
  -1   3   4    2.16    0.60
   1  -3  -4    0.61    0.56
  -1  -3   3   35.06    1.76
  -1   3   3   34.63    1.87
   1  -3  -3   34.94    1.45
   1  -3  -3   34.76    1.73
  -1   3   3   34.87    1.54
   1   3  -3   33.33    1.83
   1   3  -3   35.22    1.66
   1   3  -3   36.39    1.64
  -1  -3   3   35.03    1.88
   1  -3  -3   35.17    1.82
   1  -3  -3   35.90    1.66
  -1   3   3   34.46    1.59
  -1  -3   3   35.14    1.96
  -1  -3   3   35.48    1.40
   1  -3  -3   35.78    1.81
   1   3  -3   34.36    1.43
   1   3  -3   37.67    1.95
  -1  -3   2    0.62    0.26
   1   3  -2    1.22    0.34
   1  -3  -2    0.77    0.21
  -1   3   2    0.79    0.24
  -1   3   2    0.85    0.33
  -1  -3   2    0.84    0.28
  -1   3   2    1.17    0.24
   1   3  -2    0.78    0.26
   1   3  -2    0.93    0.27
  -1  -3   2    1.04    0.29
   1  -3  -2    0.90    0.29
  -1  -3   2    1.13    0.27
   1  -3  -2    0.74    0.19
   1  -3  -2    1.12    0.31
   1   3  -2    0.98    0.28
  -1  -3   2    0.96    0.35
   1   3  -2    0.75    0.22
  -1   3   2    1.13    0.32
   1  -3  -2    0.94    0.30
   1   3  -1  347.73    3.79
   1   3  -1  347.76    4.06
  -1   3   1  348.10    3.92
   1   3  -1  343.67    4.17
  -1  -3   1  349.56    4.02
  -1  -3   1  339.95    4.30
   1  -3  -1  346.79    3.67
   1  -3  -1  345.92    4.02
  -1  -3   1  348.11    4.43
   1  -3  -1  352.43    3.94
  -1   3   1  346.80    4.28
   1   3  -1  348.00    4.05
  -1  -3   1  347.72    4.45
   1  -3  -1  348.78    3.88
   1   3   0   11.14    0.80
  -1  -3  -2    0.68    0.25
  -1   3  -2    0.71    0.31
  -1  -3  -2    0.50    0.27
   1   3   2    0.63    0.27
  -1  -3  -2    0.97    0.30
  -1  -3  -3    7.98    0.92
  -1   3  -3    9.87    1.15
  -1   3  -3    9.28    1.04
  -1  -3  -3    7.94    0.93
  -1  -3  -3   10.00    1.12
   1   3   3    9.80    0.97
  -1  -3  -4    0.94    0.47
  -1  -3  -4    1.96    0.63
   1  -4  -6    0.63    0.63
   1   4  -6    3.59    1.26
   1   4  -6    2.94    1.04
  -1  -4   6    2.43    0.95
  -1   4   6    3.00    1.19
   1   4  -6    1.43    0.79
   1  -4  -6    1.75    0.83
  -1  -4   6   -0.17    0.85
  -1   4   6    1.93    0.82
  -1  -4   6    2.82    1.23
  -1   4   6    2.11    0.84
   1  -4  -6    0.88    0.77
   1  -4  -5    5.74    1.10
   1   4  -5    6.40    1.23
  -1  -4   5    5.36    1.07
   1   4  -5    7.21    1.29
   1  -4  -5    7.37    1.33
  -1  -4   5    5.96    1.08
  -1   4   5    6.69    1.06
  -1   4   5    7.77    1.32
  -1  -4   5    6.23    1.30
  -1   4   5    6.85    1.07
   1   4  -5    6.58    1.10
   1  -4  -5    7.60    1.24
  -1  -4   4   10.62    1.22
   1   4  -4    8.77    1.22
   1   4  -4    8.49    1.21
   1   4  -4    8.81    1.06
   1   4  -4    8.98    1.09
  -1   4   4    8.06    1.12
   1  -4  -4   10.70    1.21
   1  -4  -4    9.41    1.19
   1  -4  -4    9.49    1.08
  -1  -4   4    9.22    1.14
  -1   4   4    8.86    1.08
  -1   4   4    9.52    1.08
  -1  -4   4    9.60    1.24
  -1  -4   4    9.44    1.26
  -1   4   4    8.63    1.04
   1  -4  -4    9.44    1.21
   1   4  -3    0.43    0.32
   1   4  -3    0.75    0.29
  -1  -4   3    1.23    0.45
   1   4  -3    0.78    0.39
   1   4  -3    0.75    0.35
   1  -4  -3    1.11    0.38
   1  -4  -3    1.13    0.39
  -1   4   3    0.94    0.43
  -1  -4   3    0.54    0.35
   1  -4  -3    1.26    0.44
  -1  -4   3    0.83    0.50
  -1   4   3    0.91    0.37
  -1   4   3    0.48    0.26
   1  -4  -3    0.45    0.35
  -1  -4   2   19.93    1.33
   1   4  -2   20.58    1.27
   1   4  -2   19.50    1.13
   1  -4  -2   18.76    1.06
   1   4  -2   19.67    1.17
  -1  -4   2   21.40    1.21
  -1  -4   2   21.76    1.07
  -1   4   2   19.67    1.21
   1  -4  -2   19.92    1.19
   1   4  -2   20.33    0.97
   1  -4  -2   20.26    1.10
  -1  -4   2   21.22    1.23
  -1  -4   2   19.76    1.34
   1   4  -2   19.17    1.06
  -1   4   2   19.74    1.13
  -1   4   2   19.24    1.11
  -1   4   2   21.15    1.02
   1  -4  -2   20.94    1.02
   1  -4  -2   19.67    1.20
   1   4  -2   20.63    1.02
   1  -4  -2   19.44    1.07
   1   4  -1    1.21    0.28
   1  -4  -1    1.30    0.34
   1  -4  -1    0.91    0.28
   1  -4  -1    0.86    0.23
  -1  -4   1    1.03    0.34
  -1   4   1    1.12    0.30
   1   4  -1    0.80    0.25
   1   4  -1    1.11    0.29
  -1  -4   1    0.97    0.33
   1  -4  -1    1.16    0.25
  -1  -4   1    1.34    0.33
  -1   4   1    1.11    0.32
  -1   4   1    1.58    0.36
   1   4  -1    0.93    0.24
  -1  -4   1    1.10    0.31
  -1  -4   0    1.43    0.36
   1  -4   0    0.75    0.26
   1  -4   0    0.65    0.22
  -1   4   0    0.79    0.25
  -1   4   0    1.36    0.39
   1   4   0    0.68    0.26
  -1  -4   0    1.17    0.31
  -1  -4   0    1.09    0.39
  -1   4   0    0.85    0.26
  -1  -4   0    0.84    0.34
   1  -4   0    0.88    0.27
   1   4   0    0.91    0.28
   1   4   0    0.89    0.28
   1   4   0    0.83    0.28
  -1  -4  -1    0.66    0.33
  -1   4  -1    0.08    0.23
  -1  -4  -1    0.11    0.27
   1   4   1    0.20    0.23
  -1  -4  -1    0.26    0.25
  -1  -4  -2    3.52    0.53
  -1   4  -2    2.83    0.55
   1   4   2    3.79    0.49
  -1   4  -2    2.90    0.46
  -1  -4  -2    3.44    0.53
   1   4   2    4.29    0.61
   1   4   2    4.12    0.58
  -1  -4  -2    2.96    0.53
  -1  -4  -2    4.03    0.61
   1  -4   3   12.10    1.14
  -1   4  -3   10.69    1.24
  -1  -4  -3   10.27    1.08
  -1  -4  -3   10.85    1.09
   1   4   3   11.49    1.08
  -1  -4  -3    9.84    1.09
  -1   4  -3   10.45    1.08
  -1  -4  -4   10.44    1.19
  -1  -4  -4   14.30    1.50
  -1  -4  -4   14.78    1.47
  -1  -5   6    0.27    0.66
   1   5  -6    0.21    0.68
   1   5  -6    0.62    0.65
  -1  -5   6   -0.14    0.63
  -1   5   6    1.50    0.71
  -1   5   6   -0.37    0.79
   1   5  -6    1.00    0.87
  -1  -5   6    1.46    0.97
  -1   5   6    0.94    0.76
   1  -5  -6    2.21    1.17
   1  -5  -6   -0.23    0.80
   1  -5  -6   -0.11    0.74
   1  -5  -5    0.07    0.60
   1   5  -5    0.37    0.55
   1  -5  -5    0.90    0.56
   1   5  -5    0.05    0.56
  -1  -5   5   -0.77    0.51
  -1   5   5   -0.14    0.45
  -1  -5   5   -0.18    0.73
  -1   5   5   -0.08    0.55
   1   5  -5    0.60    0.50
  -1  -5   5   -0.67    0.67
  -1   5   5   -0.10    0.46
   1  -5  -5   -0.05    0.65
  -1  -5   4    2.00    0.62
  -1   5   4    2.34    0.67
   1   5  -4    2.52    0.77
  -1  -5   4    2.61    0.73
   1  -5  -4    2.24    0.67
  -1   5   4    2.78    0.70
   1   5  -4    1.86    0.51
  -1   5   4    2.23    0.78
   1   5  -4    2.63    0.69
   1  -5  -4    2.17    0.66
  -1  -5   4    2.13    0.65
   1  -5  -4    0.24    0.58
   1   5  -4    3.55    0.82
  -1  -5   4    1.37    0.59
  -1   5   4    2.15    0.61
   1  -5  -4    0.11    0.67
   1  -5  -3    5.27    0.79
   1   5  -3    5.03    0.81
  -1   5   3    5.40    0.75
  -1  -5   3    5.31    0.89
   1   5  -3    5.23    0.75
   1   5  -3    6.11    0.73
   1   5  -3    5.16    0.79
   1  -5  -3    4.98    0.72
  -1   5   3    5.47    0.73
  -1  -5   3    4.61    0.69
   1  -5  -3    5.58    0.77
  -1   5   3    5.42    0.84
  -1  -5   3    4.72    0.78
  -1  -5   3    5.46    0.87
  -1   5   3    5.61    0.78
   1  -5  -3    5.04    0.80
  -1  -5   2   74.78    2.57
   1   5  -2   71.14    2.46
   1  -5  -2   72.43    2.05
   1   5  -2   73.33    1.97
   1   5  -2   71.09    2.43
  -1  -5   2   77.34    2.45
   1  -5  -2   74.62    2.15
   1   5  -2   73.77    2.17
  -1  -5   2   71.60    2.13
   1  -5  -2   75.62    2.14
  -1   5   2   72.41    2.37
   1  -5  -2   75.09    2.27
   1  -5  -2   70.50    2.43
  -1  -5   2   68.87    2.56
  -1   5   2   75.10    2.12
  -1  -5   2   70.76    2.28
   1   5  -2   74.47    2.26
   1   5  -2   77.02    2.10
  -1   5   2   75.05    2.36
  -1   5   2   70.24    2.29
   1  -5  -2   70.31    2.39
  -1  -5   1   13.00    1.04
   1   5  -1   12.46    0.87
   1  -5  -1   13.34    0.77
   1   5  -1   13.70    0.96
  -1  -5   1   13.50    0.99
  -1  -5   1   12.49    1.03
   1   5  -1   12.53    0.88
   1  -5  -1   13.09    0.95
  -1   5   1   12.62    0.93
   1  -5  -1   12.89    0.93
  -1  -5   1   13.20    0.98
   1   5  -1   13.69    0.85
   1   5  -1   13.75    0.95
  -1   5   1   13.36    0.98
  -1   5   1   13.44    0.95
   1  -5  -1   12.87    0.88
   1  -5  -1   13.08    0.89
  -1  -5   1   13.63    0.81
  -1  -5   0    1.35    0.37
   1  -5   0    1.12    0.36
  -1   5   0    1.81    0.39
  -1   5   0    1.51    0.38
   1   5   0    1.64    0.36
  -1   5   0    1.22    0.34
   1  -5   0    1.48    0.36
  -1  -5   0    1.12    0.35
  -1  -5   0    1.37    0.39
   1  -5   0    1.45    0.34
  -1  -5   0    1.15    0.34
   1   5   0    1.73    0.38
   1   5   0    1.28    0.30
   1   5   0    1.45    0.34
  -1  -5  -1    3.45    0.62
   1   5   1    3.17    0.45
  -1   5  -1    3.52    0.54
   1  -5   1    3.02    0.54
   1   5   1    3.23    0.51
   1  -5   1    3.67    0.57
  -1  -5  -1    2.95    0.60
  -1   5  -1    3.61    0.64
  -1  -5  -1    3.10    0.56
  -1  -5  -1    2.41    0.44
   1   5   1    3.18    0.52
  -1   5  -1    3.05    0.56
   1   5   1    3.35    0.57
   1  -5   2   30.51    1.64
  -1   5  -2   24.89    1.75
  -1   5  -2   31.17    1.90
  -1  -5  -2   27.06    1.55
   1   5   2   33.23    1.79
   1  -5   2   30.57    1.45
  -1   5  -2   28.39    1.48
  -1  -5  -2   26.31    1.42
   1   5   2   28.97    1.41
   1   5   2   30.82    1.58
  -1   5  -2   29.26    1.64
  -1  -5  -2   28.36    1.69
  -1  -5  -2   26.12    1.68
  -1   5  -3   -0.12    0.39
  -1  -5  -3   -0.41    0.42
  -1   5  -3    0.47    0.44
   1  -5   3    0.29    0.37
  -1  -5  -3    0.01    0.39
   1   5   3   -0.36    0.33
  -1  -5  -3    0.73    0.57
  -1  -5  -4    1.04    0.54
  -1  -5  -4    0.37    0.48
  -1  -5  -4    0.28    0.69
  -1  -6   6    3.19    1.07
   1   6  -6    3.02    1.06
   1  -6  -6    4.07    1.27
   1   6  -6    1.62    0.71
   1  -6  -6    1.15    0.76
  -1   6   6    3.21    1.12
  -1  -6   6    3.83    1.19
  -1  -6   6    1.05    0.75
   1  -6  -6    0.16    0.95
  -1   6   6    3.84    1.08
  -1   6   6    3.50    1.07
  -1   6   5    4.00    0.96
   1   6  -5    4.21    1.13
   1  -6  -5    3.99    1.06
   1   6  -5    3.84    0.97
   1   6  -5    3.52    0.90
   1  -6  -5    3.70    1.04
  -1  -6   5    3.71    0.86
  -1   6   5    3.86    0.85
  -1  -6   5    3.79    1.04
  -1  -6   5    5.13    1.20
  -1   6   5    3.60    1.00
   1  -6  -5    0.43    1.04
   1   6  -4   -0.20    0.44
   1   6  -4    0.23    0.44
  -1  -6   4    0.64    0.58
   1  -6  -4    0.17    0.41
  -1   6   4    0.46    0.57
   1   6  -4   -0.11    0.49
   1   6  -4    0.05    0.47
   1  -6  -4   -0.30    0.49
  -1  -6   4    0.47    0.58
  -1   6   4    0.18    0.42
   1  -6  -4   -0.12    0.65
  -1  -6   4   -0.11    0.43
  -1  -6   4   -0.77    0.65
  -1   6   4   -0.15    0.58
  -1   6   4    0.11    0.51
   1  -6  -4   -0.04    0.56
   1   6  -3    0.33    0.35
  -1  -6   3    0.35    0.44
  -1  -6   3    0.53    0.40
  -1  -6   3   -0.08    0.32
   1  -6  -3    0.56    0.36
   1   6  -3    0.07    0.30
  -1   6   3   -0.05    0.41
   1   6  -3   -0.07    0.27
   1  -6  -3    0.09    0.38
  -1   6   3    0.63    0.34
   1  -6  -3    0.37    0.36
  -1   6   3    0.01    0.34
   1   6  -3   -0.20    0.36
  -1  -6   3    0.18    0.38
  -1   6   3    0.26    0.40
   1  -6  -3    1.05    0.53
   1   6  -2  134.67    3.03
  -1  -6   2  132.92    3.64
   1   6  -2  129.20    3.22
   1   6  -2  125.02    3.42
   1   6  -2  132.08    3.44
  -1   6   2  134.59    3.46
   1   6  -2  126.02    2.73
   1  -6  -2  130.04    2.80
  -1  -6   2  134.29    3.61
  -1  -6   2  133.31    3.19
   1   6  -2  134.38    2.94
   1  -6  -2  131.40    3.27
   1  -6  -2  132.59    3.47
   1  -6  -2  134.71    3.17
   1  -6  -2  131.21    3.02
  -1  -6   2  136.43    3.66
  -1   6   2  136.18    3.43
  -1  -6   2  131.81    3.28
  -1   6   2  125.09    3.27
  -1   6   2  136.91    3.17
   1  -6  -2  134.37    3.41
  -1  -6   1   13.75    1.13
   1   6  -1   11.95    0.90
   1  -6  -1   12.40    0.83
   1   6  -1   11.41    0.99
  -1   6   1   11.89    0.95
  -1  -6   1   13.04    1.12
  -1  -6   1   12.33    1.13
   1  -6  -1   11.74    0.96
   1  -6  -1   12.63    1.03
   1   6  -1   12.29    0.97
  -1  -6   1   12.63    0.85
   1  -6  -1   12.49    0.99
   1  -6  -1   12.63    0.94
  -1  -6   1   12.85    1.03
  -1   6   1   13.99    1.09
   1   6  -1   13.87    0.97
   1   6  -1   12.58    0.97
  -1   6   1   12.34    0.99
  -1   6   1   12.64    1.00
   1   6   0   29.20    1.16
   1  -6   0   29.28    1.48
  -1  -6   0   30.36    1.73
  -1  -6   0   31.55    1.70
   1   6   0   28.36    1.45
  -1   6   0   29.85    1.66
  -1  -6   0   29.84    1.71
   1   6   0   27.34    1.45
   1  -6   0   31.50    1.56
   1  -6   0   30.63    1.58
  -1  -6   0   31.41    1.64
   1  -6   0   28.96    1.46
  -1   6   0   28.65    1.60
   1   6   0   27.35    1.44
   1   6   0   33.19    1.57
  -1   6   0   27.54    1.60
  -1   6   0   29.16    1.47
  -1  -6   0   32.46    1.28
  -1  -6  -1    3.58    0.62
   1   6   1    3.62    0.50
   1  -6   1    3.60    0.62
  -1   6  -1    4.42    0.68
   1  -6   1    3.78    0.60
  -1   6  -1    4.01    0.69
  -1  -6  -1    3.06    0.66
  -1  -6  -1    3.06    0.38
   1  -6   1    4.11    0.61
  -1   6  -1    4.39    0.76
   1   6   1    3.26    0.55
   1   6   1    3.34    0.56
  -1  -6  -1    4.02    0.60
   1   6   1    4.31    0.63
  -1  -6  -1    3.52    0.65
  -1  -6  -2    5.22    0.82
  -1   6  -2    4.22    0.78
  -1   6  -2    5.43    0.81
   1  -6   2    4.86    0.81
   1   6   2    4.65    0.63
  -1  -6  -2    5.63    0.71
  -1   6  -2    5.15    0.86
  -1   6  -2    5.49    0.64
  -1  -6  -2    4.38    0.81
   1  -6   2    4.88    0.64
   1   6   2    5.39    0.73
   1   6   2    5.86    0.81
  -1  -6  -2    4.83    0.77
  -1   6  -3    0.18    0.39
  -1  -6  -3    0.01    0.45
   1  -6   3    0.59    0.47
  -1   6  -3   -0.17    0.44
  -1  -6  -3   -0.08    0.41
   1   6   3    0.35    0.37
  -1  -6  -3   -0.84    0.64
  -1  -6  -4   14.09    1.59
  -1  -6  -4   12.60    1.36
   1  -7  -6    0.60    0.79
   1   7  -6   -1.11    0.96
   1   7  -5    0.03    0.61
  -1  -7   5    0.07    0.67
  -1   7   5    0.77    0.58
   1  -7  -5    0.20    0.65
  -1   7   4   12.18    1.35
   1   7  -4    9.76    1.40
  -1  -7   4   10.99    1.50
   1   7  -4   11.27    1.44
  -1  -7   4   10.91    1.47
  -1   7   4    9.90    1.26
   1  -7  -4    1.66    1.48
   1  -7  -3    0.63    0.45
   1   7  -3    0.65    0.53
  -1  -7   3    0.06    0.50
   1   7  -3    0.78    0.50
  -1  -7   3    0.70    0.42
  -1   7   3    1.10    0.38
  -1   7   3   -0.23    0.49
   1  -7  -3    1.58    0.61
  -1  -7   2   56.35    2.62
   1   7  -2   56.61    2.42
  -1  -7   2   55.87    2.48
   1   7  -2   50.19    2.40
   1   7  -2   56.28    2.29
   1  -7  -2   56.49    2.29
   1  -7  -2   56.66    2.36
   1  -7  -2   56.23    2.48
   1   7  -2   58.08    2.20
  -1   7   2   58.16    2.45
  -1  -7   2   57.36    2.53
  -1   7   2   55.88    2.35
  -1   7   2   59.55    2.27
  -1  -7   2   55.11    2.27
   1  -7  -2   53.59    2.30
  -1  -7   1   87.40    3.01
   1  -7  -1   86.25    2.38
   1   7  -1   85.60    2.54
   1   7  -1   83.29    2.49
   1   7  -1   87.53    2.78
  -1   7   1   82.22    2.76
  -1  -7   1   92.92    3.11
  -1  -7   1   88.78    2.96
   1  -7  -1   90.84    2.77
   1  -7  -1   86.31    2.80
   1   7  -1   92.01    2.74
  -1  -7   1   89.10    2.49
   1  -7  -1   80.44    2.69
  -1   7   1   88.31    2.96
  -1  -7   1   86.93    2.84
   1   7  -1   88.13    2.75
  -1   7   1   83.59    2.73
  -1   7   1   87.21    2.82
   1  -7  -1   83.97    2.54
   1   7   0    0.77    0.34
   1  -7   0    0.47    0.30
   1   7   0    0.61    0.23
  -1  -7   0    0.59    0.37
  -1   7   0    1.13    0.47
   1   7   0    0.50    0.29
   1  -7   0    0.38    0.30
  -1   7   0    0.25    0.29
  -1  -7   0    1.29    0.46
  -1  -7   0    1.02    0.44
  -1  -7   0    0.65    0.43
   1  -7   0    0.59    0.28
   1  -7   0    0.49    0.35
  -1   7   0    0.50    0.33
   1   7   0    0.97    0.35
   1   7   0    0.80    0.35
  -1  -7   0    0.86    0.28
  -1   7   0    0.87    0.34
   1   7   1    4.95    0.61
  -1   7  -1    6.00    0.86
  -1  -7  -1    5.70    0.86
   1  -7   1    4.98    0.74
  -1   7  -1    5.85    0.88
   1   7   1    4.24    0.67
  -1  -7  -1    5.09    0.80
   1  -7   1    5.46    0.78
  -1  -7  -1    5.17    0.76
   1  -7   1    5.03    0.75
   1   7   1    6.28    0.78
   1   7   1    5.71    0.76
  -1   7  -1    5.88    0.86
  -1  -7  -1    6.02    0.77
  -1   7  -1    5.12    0.69
   1  -7   2    7.74    1.01
  -1   7  -2    7.36    1.06
  -1   7  -2    8.83    1.07
  -1   7  -2    8.35    1.16
   1  -7   2    8.26    0.88
   1   7   2    7.37    0.81
  -1  -7  -2    7.91    1.12
  -1  -7  -2    8.10    1.02
   1   7   2    9.26    1.02
   1   7   2    7.11    0.83
  -1  -7  -2    7.39    1.00
  -1   7  -3    3.78    0.90
   1  -7   3    3.51    0.78
  -1  -7  -3    1.29    0.80
   1   7   3    3.34    0.66
   1   7   3    3.22    0.68
  -1  -7  -3    0.62    0.79
   1  -8  -6   -0.08    0.98
   1   8  -6   -0.38    0.95
  -1  -8   5    6.27    1.31
   1   8  -5    6.24    1.45
  -1  -8   5    4.76    1.32
  -1   8   5    5.86    1.25
  -1   8   5    5.56    1.15
   1  -8  -4    0.28    0.56
   1   8  -4    0.20    0.49
  -1  -8   4   -0.42    0.63
   1   8  -4   -0.31    0.54
  -1  -8   4    0.12    0.59
  -1   8   4    0.62    0.57
  -1   8   4    0.59    0.65
   1  -8  -4    0.07    0.64
   1   8  -3    1.23    0.53
  -1  -8   3    0.75    0.66
   1   8  -3    1.00    0.50
   1  -8  -3    0.53    0.59
  -1  -8   3   -0.16    0.52
  -1   8   3    0.53    0.41
  -1   8   3    0.79    0.43
   1  -8  -3    0.30    0.51
   1   8  -2    7.55    0.99
   1  -8  -2    7.51    0.97
  -1  -8   2    7.62    1.09
   1   8  -2    8.17    1.01
  -1  -8   2    7.75    1.15
   1  -8  -2    7.64    1.03
   1   8  -2    8.65    0.95
  -1   8   2    6.95    0.96
  -1   8   2    7.66    0.98
  -1  -8   2    6.64    0.90
  -1  -8   2    7.81    1.03
   1   8  -2    7.57    0.93
  -1   8   2    8.92    1.01
  -1   8   2    6.31    0.83
   1  -8  -2    6.88    0.96
   1  -8  -2    8.23    1.00
   1  -8  -1   -0.33    0.39
   1   8  -1    0.13    0.31
   1   8  -1    0.20    0.24
   1   8  -1    0.28    0.25
  -1  -8   1   -0.15    0.42
  -1   8   1   -0.27    0.42
  -1   8   1    0.38    0.40
   1  -8  -1    0.18    0.29
   1   8  -1    0.14    0.25
  -1  -8   1   -0.08    0.51
  -1   8   1    0.05    0.28
   1  -8  -1    0.22    0.31
  -1  -8   1    0.41    0.29
  -1  -8   1    0.49    0.49
   1  -8  -1    0.86    0.50
  -1  -8   1    0.05    0.31
   1   8  -1    0.39    0.36
  -1   8   1    0.57    0.34
   1  -8  -1    0.73    0.44
   1   8   0    0.46    0.37
   1  -8   0    0.21    0.34
  -1  -8   0    0.76    0.47
  -1  -8   0   -0.02    0.38
  -1   8   0   -0.27    0.47
   1  -8   0    0.43    0.34
   1   8   0    0.15    0.28
  -1   8   0   -0.42    0.37
  -1  -8   0   -0.87    0.53
  -1  -8   0    0.55    0.51
  -1   8   0   -0.24    0.32
   1  -8   0   -0.13    0.33
   1  -8   0    0.41    0.35
   1   8   0   -0.27    0.35
  -1   8   0    0.14    0.33
   1   8   0   -0.36    0.37
   1  -8   1    1.01    0.35
  -1   8  -1    1.69    0.64
   1   8   1    0.77    0.30
   1  -8   1    1.54    0.51
  -1   8  -1    1.66    0.52
  -1  -8  -1    2.06    0.72
  -1  -8  -1    0.90    0.57
  -1  -8  -1    1.32    0.52
   1  -8   1    2.14    0.57
  -1   8  -1    0.49    0.39
   1   8   1    1.48    0.55
  -1  -8  -1    1.46    0.49
   1   8   1    1.44    0.49
   1   8   1    0.84    0.34
  -1   8  -1    1.80    0.47
  -1   8  -2    0.53    0.53
   1  -8   2    0.39    0.44
  -1   8  -2    1.16    0.57
  -1  -8  -2    0.94    0.56
  -1  -8  -2    0.30    0.52
   1  -8   2    0.57    0.37
   1   8   2    1.11    0.51
   1   8   2    0.54    0.43
   1   8   2    1.64    0.57
  -1  -8  -2    2.07    0.64
   1   8   2    1.02    0.42
   1  -8   3    8.92    1.25
  -1  -8  -3    5.24    1.20
   1   8   3    9.70    1.26
   1   8   3    6.63    0.94
  -1   8  -3    7.99    1.36
  -1  -8  -4    0.38    0.69
  -1  -8  -4    0.11    0.70
   1  -9  -5   -0.06    0.91
  -1  -9   5    0.43    0.83
   1   9  -5   -1.14    0.87
   1   9  -5   -0.87    0.83
   1  -9  -5    0.05    0.73
  -1  -9   5    0.33    0.77
  -1   9   5    0.13    0.72
  -1   9   5    0.13    0.62
   1  -9  -4    0.11    0.68
   1   9  -4   -0.57    0.64
  -1  -9   4   -1.44    1.02
   1   9  -4    0.67    0.62
  -1   9   4    0.03    0.58
   1  -9  -4    0.05    0.65
  -1  -9   4    0.24    0.77
  -1   9   4    1.07    0.70
   1  -9  -3    4.30    1.10
   1   9  -3    6.20    1.11
  -1  -9   3    3.71    1.24
   1   9  -3    6.39    1.09
   1  -9  -3    4.92    1.13
  -1  -9   3    5.26    1.03
  -1   9   3    5.90    0.99
  -1   9   3    5.46    0.93
   1  -9  -2    1.41    0.57
   1  -9  -2    0.61    0.47
   1   9  -2    0.93    0.51
  -1  -9   2    0.98    0.64
  -1   9   2    0.95    0.51
   1   9  -2    0.73    0.47
  -1  -9   2    0.46    0.54
  -1   9   2    0.79    0.35
   1   9  -2    0.97    0.49
   1   9  -2    0.84    0.42
   1  -9  -2    0.09    0.44
  -1  -9   2    0.39    0.44
   1  -9  -2    0.40    0.43
  -1  -9   2    0.85    0.50
  -1   9   2    0.64    0.52
  -1   9   2    0.18    0.48
  -1  -9   1   14.24    1.40
   1  -9  -1   15.33    1.24
   1   9  -1   14.31    1.18
   1   9  -1   16.33    1.38
  -1   9   1   15.21    1.42
  -1  -9   1   15.40    1.55
   1  -9  -1   14.42    1.43
  -1  -9   1   15.24    1.27
   1  -9  -1   15.25    1.38
   1   9  -1   16.33    1.37
   1  -9  -1   14.82    1.38
   1   9  -1   15.77    1.28
   1   9  -1   16.74    1.40
  -1   9   1   15.56    1.45
  -1   9   1   15.64    1.35
  -1   9   1   15.78    1.41
  -1  -9   1   14.53    1.49
   1  -9  -1   16.15    1.36
   1   9   0    1.78    0.52
   1   9   0    1.67    0.47
   1  -9   0    1.79    0.56
  -1  -9   0    1.87    0.61
  -1   9   0    1.56    0.63
   1  -9   0    1.37    0.53
   1   9   0    1.81    0.51
  -1   9   0    1.58    0.57
  -1  -9   0    0.81    0.49
  -1  -9   0    1.50    0.56
  -1  -9   0    1.09    0.52
   1  -9   0    0.88    0.39
   1  -9   0    2.01    0.57
  -1   9   0    1.45    0.60
   1   9   0    1.31    0.51
  -1   9   0    1.57    0.53
   1  -9   1   15.89    1.43
  -1  -9  -1   14.35    1.54
   1   9   1   15.41    1.19
  -1   9  -1   15.91    1.62
  -1  -9  -1   15.09    1.59
   1  -9   1   16.59    1.42
   1  -9   1   16.24    1.45
  -1  -9  -1   15.11    1.58
   1   9   1   17.91    1.55
  -1   9  -1   15.98    1.33
  -1   9  -1   16.97    1.62
  -1   9  -1   16.92    1.64
  -1  -9  -1   16.98    1.42
   1   9   2    0.97    0.44
  -1   9  -2    0.70    0.63
   1  -9   2    1.78    0.70
  -1   9  -2    1.71    0.71
  -1  -9  -2    0.35    0.51
  -1  -9  -2    1.58    0.68
   1  -9   2    1.37    0.54
   1   9   2    2.10    0.63
   1   9   2    1.71    0.54
  -1  -9  -2    1.83    0.76
   1  -9   3    1.04    0.54
  -1   9  -3    0.82    0.58
  -1  -9  -3    0.82    0.80
   1   9   3    0.48    0.53
  -1  -9  -3    0.03    0.62
  -1  -9  -4   -0.55    0.62
  -1  -9  -4   -0.11    0.73
   1 -10  -5   -0.16    1.10
  -1 -10   5   -0.68    0.89
   1  10  -5    0.21    0.72
   1  10  -5    0.95    0.92
   1 -10  -5    0.73    0.90
  -1 -10   5   -0.59    0.80
  -1  10   5   -0.25    0.60
  -1  10   5   -0.07    0.72
   1 -10  -4    0.58    0.99
  -1 -10   4    3.20    1.42
   1  10  -4    1.86    0.82
   1 -10  -4   -0.05    0.70
   1  10  -4    0.70    0.52
  -1 -10   4    3.29    1.14
  -1  10   4    2.15    0.94
  -1  10   4    2.02    0.88
   1 -10  -3    2.77    1.06
   1 -10  -3    2.27    1.20
   1  10  -3    6.76    1.21
  -1 -10   3    4.92    1.13
   1  10  -3    4.93    1.03
  -1 -10   3    5.61    1.14
  -1  10   3    5.63    1.02
  -1  10   3    6.29    1.12
  -1 -10   2   36.95    2.63
   1  10  -2   38.10    2.36
   1  10  -2   39.13    2.47
  -1 -10   2   39.14    2.61
   1 -10  -2   38.26    2.42
  -1 -10   2   37.34    2.36
   1 -10  -2   37.29    2.48
   1 -10  -2   36.69    2.44
   1  10  -2   39.79    2.34
  -1 -10   2   39.67    2.46
   1  10  -2   38.49    2.34
  -1  10   2   37.89    2.36
  -1  10   2   35.74    2.20
  -1  10   2   34.97    2.13
   1 -10  -2   36.03    2.32
   1  10  -1    5.15    0.82
   1 -10  -1    4.31    0.90
   1  10  -1    5.41    0.87
  -1 -10   1    5.99    1.13
  -1  10   1    5.28    0.93
   1  10  -1    4.38    0.80
  -1  10   1    7.09    1.08
  -1 -10   1    4.32    0.97
   1 -10  -1    5.37    0.97
   1 -10  -1    5.08    0.96
  -1 -10   1    4.29    0.95
  -1  10   1    6.45    1.00
   1 -10   0    5.74    1.05
   1 -10   0    6.16    1.04
   1  10   0    2.99    0.91
  -1 -10   0    5.23    1.02
  -1  10   0    6.14    1.05
   1 -10   0    6.34    0.98
   1  10   0    5.85    0.88
  -1  10   0    6.94    1.09
  -1 -10   0    5.78    1.10
  -1 -10   0    5.87    1.00
  -1 -10   0    6.13    1.15
   1 -10   0    6.35    1.00
   1  10   0    6.43    0.91
  -1  10   0    4.31    1.10
  -1  10   0    7.08    1.09
   1  10   0    5.59    0.90
   1  10   1    0.16    0.46
  -1  10  -1    0.32    0.53
   1 -10   1    0.90    0.52
   1 -10   1    0.09    0.45
  -1 -10  -1   -0.24    0.65
  -1  10  -1    0.26    0.43
  -1 -10  -1    0.08    0.57
   1 -10   1    0.78    0.56
  -1 -10  -1    0.64    0.65
   1  10   1    0.91    0.50
  -1  10  -1   -0.02    0.47
   1  10   1    0.12    0.44
   1  10   2    0.08    0.37
  -1  10  -2    0.91    0.63
   1 -10   2    0.55    0.58
  -1  10  -2    1.44    0.78
  -1 -10  -2   -0.83    0.75
  -1 -10  -2    0.45    0.63
   1 -10   2    0.23    0.48
   1  10   2    0.16    0.43
   1  10   2    1.05    0.58
  -1 -10  -2    0.89    0.60
   1 -10   3   -0.64    0.63
  -1  10  -3   -0.21    0.54
  -1 -10  -3   -0.03    0.61
   1  10   3   -0.18    0.49
  -1 -10  -3    0.16    0.65
  -1 -10  -4    0.93    0.99
  -1 -10  -4    0.68    1.17
   1 -11  -5    0.09    1.03
   1  11  -5    0.81    0.75
   1  11  -5    1.30    0.70
   1 -11  -5    0.45    1.02
   1 -11  -4    0.18    1.17
  -1 -11   4    2.26    1.08
   1  11  -4    4.92    1.30
   1  11  -4    4.34    1.24
   1 -11  -4    1.74    1.51
  -1 -11   4    3.06    1.06
  -1  11   4    3.28    0.94
  -1  11   4    3.92    1.09
   1  11  -3   13.95    1.77
  -1 -11   3   12.38    1.80
   1  11  -3   14.11    1.80
  -1 -11   3   13.13    1.80
  -1  11   3   12.01    1.56
  -1  11   3   11.81    1.51
   1 -11  -3    8.27    1.76
  -1 -11   2   26.56    2.27
   1  11  -2   27.65    2.28
   1 -11  -2   23.54    2.11
  -1 -11   2   28.37    2.46
   1  11  -2   28.01    2.13
  -1 -11   2   25.62    2.20
   1 -11  -2   27.02    2.25
   1 -11  -2   25.49    2.22
   1  11  -2   29.60    2.22
  -1  11   2   26.19    2.13
  -1  11   2   24.33    1.97
   1  11  -1    1.62    0.58
   1 -11  -1    2.23    0.93
  -1  11   1    1.85    0.74
  -1 -11   1    2.37    0.85
   1  11  -1    1.20    0.52
   1  11  -1    1.03    0.55
  -1 -11   1    1.27    0.72
   1 -11  -1    2.18    0.72
   1 -11  -1    3.19    0.80
  -1  11   1    0.58    0.53
  -1 -11   1    0.84    0.66
  -1  11   1    1.97    0.75
  -1 -11   0    0.86    0.57
   1 -11   0   -1.56    1.00
   1  11   0    0.03    0.40
   1 -11   0    0.94    0.62
   1  11   0   -0.36    0.52
  -1 -11   0    0.92    0.57
  -1 -11   0    0.90    0.60
   1 -11   0    2.09    0.93
   1 -11   0   -0.41    0.93
  -1 -11   0   -0.04    0.68
   1  11   0    0.62    0.43
   1  11   0    0.47    0.44
  -1  11  -1    0.05    0.63
   1  11   1    0.03    0.46
  -1  11  -1    0.84    0.75
   1 -11   1    0.57    0.59
   1 -11   1    0.14    0.53
  -1  11  -1    0.20    0.50
  -1 -11  -1   -0.62    0.61
  -1 -11  -1   -0.42    0.78
   1 -11   1    0.56    0.49
  -1 -11  -1   -0.41    0.73
   1  11   1   -0.80    0.54
   1  11   1    0.17    0.48
  -1  11  -2    5.48    1.18
   1  11   2    1.66    0.89
   1 -11   2    6.02    1.14
  -1  11  -2    5.78    1.33
  -1 -11  -2    4.70    1.15
   1 -11   2    4.70    1.00
  -1 -11  -2    5.48    1.22
   1  11   2    8.03    1.23
   1  11   2    7.83    1.17
  -1 -11  -3    0.79    0.92
   1  11   3    1.20    0.57
  -1 -11  -3   -0.14    0.68
  -1 -11  -4    0.35    0.73
  -1 -11  -4    0.28    0.79
   1 -12  -4    0.01    1.03
  -1 -12   4    0.91    1.04
   1  12  -4   -0.21    0.62
   1  12  -4    1.51    0.66
   1 -12  -4    0.46    0.86
  -1 -12   4    1.43    0.96
  -1  12   4    1.30    0.94
  -1  12   4    0.17    0.76
   1  12  -3   -0.77    0.77
   1 -12  -3   -0.19    0.70
  -1  12   3   -0.72    0.64
  -1  12   2    0.09    0.69
  -1  12   2    2.33    0.61
   1 -12  -2    1.45    0.99
  -1 -12   2    0.77    0.70
  -1 -12   2    2.50    0.95
   1  12  -2    1.35    0.68
   1 -12  -2    1.25    0.73
   1 -12  -2    1.13    0.75
  -1  12   2    1.44    0.82
   1  12  -2    2.04    0.76
  -1 -12   2    1.18    0.81
   1  12  -2    1.49    0.64
   1 -12  -1   -0.06    0.66
   1 -12  -1    0.75    0.81
  -1  12   1    1.27    0.77
  -1 -12   1    0.74    0.83
   1  12  -1    0.12    0.43
  -1 -12   1   -0.99    0.73
   1  12  -1    0.59    0.53
   1 -12  -1    0.49    0.50
  -1 -12   1    0.72    0.73
  -1  12   1    0.31    0.74
  -1  12   1   -0.05    0.50
   1  12  -1    1.08    0.69
  -1 -12   0   -0.31    0.83
  -1  12   0    0.15    0.63
   1 -12   0    1.23    0.70
   1 -12   0   -0.10    0.52
   1  12   0   -0.03    0.42
  -1  12   0    0.12    0.53
   1  12   0    0.60    0.51
  -1  12   0   -0.29    0.59
  -1 -12   0   -0.98    0.82
  -1 -12   0    0.32    0.69
   1 -12   0   -0.48    0.72
   1 -12   0   -0.05    0.44
  -1 -12   0   -0.50    0.86
   1  12   0   -0.61    0.53
  -1  12   0   -0.50    0.60
   1  12   0   -0.14    0.49
  -1  12  -1   -0.06    0.80
   1 -12   1    0.62    0.59
   1 -12   1    0.96    0.74
   1  12   1    0.06    0.54
  -1  12  -1   -0.44    0.62
  -1 -12  -1   -0.28    0.68
  -1 -12  -1    1.44    0.90
   1 -12   1    0.98    0.77
  -1  12  -1    0.08    0.61
  -1 -12  -1   -1.54    0.96
   1  12   1    0.29    0.48
   1  12   1    0.89    0.61
  -1  12  -2    1.33    0.98
   1 -12   2   -0.10    0.64
   1  12   2    0.08    0.49
  -1  12  -2    0.51    0.62
  -1 -12  -2    0.64    0.70
   1 -12   2   -1.27    0.77
  -1 -12  -2    0.89    1.02
   1  12   2    0.56    0.51
   1  12   2    0.94    0.66
  -1 -12  -3    0.14    0.88
   1  12   3    1.89    0.77
   1 -13  -4    0.15    0.96
   1  13  -4    0.58    0.69
   1  13  -4    0.26    0.85
   1 -13  -4    0.34    0.95
  -1 -13   4    0.79    1.13
  -1  13   4    0.51    0.78
  -1 -13   3    0.73    0.94
   1  13  -3    0.07    0.71
   1 -13  -3   -0.10    0.81
  -1  13   3    1.06    0.85
   1  13  -2    1.13    0.75
  -1  13   2    1.65    0.72
  -1 -13   2   -0.61    0.90
   1 -13  -2    4.11    1.28
  -1  13   2    0.84    0.92
   1  13  -2    1.55    0.76
  -1 -13   2    2.39    1.03
   1 -13  -2    0.45    0.73
   1 -13  -2    1.19    0.79
  -1  13   2    2.50    0.90
  -1 -13   2    2.02    0.96
   1  13  -2    2.69    0.97
  -1  13   1    2.56    0.98
  -1 -13   1    4.18    1.36
   1 -13  -1    1.96    0.85
  -1  13   1    0.19    0.92
   1  13  -1    2.89    0.87
  -1 -13   1    2.31    1.02
   1 -13  -1    2.53    0.83
   1 -13  -1    1.26    0.78
   1  13  -1    0.45    0.83
  -1 -13   1    0.50    0.85
  -1  13   1    1.70    0.91
   1  13  -1    2.95    0.95
  -1 -13   0    0.25    0.77
  -1  13   0    0.73    0.80
   1 -13   0   -0.72    0.85
   1 -13   0    0.17    0.61
  -1  13   0    0.22    0.50
  -1 -13   0    0.83    0.69
   1  13   0    0.03    0.55
   1  13   0   -0.07    0.42
   1 -13   0    0.81    0.86
  -1  13   0    0.04    0.68
  -1 -13   0    0.45    0.74
   1 -13   0    0.47    0.57
  -1 -13   0    1.39    0.91
   1  13   0    1.44    0.76
  -1  13   0    0.18    0.62
   1  13   0    1.51    0.75
  -1  13  -1    4.71    1.26
   1 -13   1    4.10    1.15
   1 -13   1    4.24    1.09
   1  13   1    0.36    0.96
  -1 -13  -1    5.09    1.53
  -1  13  -1    4.18    1.13
   1 -13   1    3.86    1.07
  -1  13  -1    1.03    1.14
  -1 -13  -1    4.65    1.34
  -1 -13  -1    5.03    1.41
   1  13   1    4.83    1.01
   1  13   1    4.38    1.02
  -1  13  -2    1.98    1.09
   1 -13   2    1.73    1.00
  -1  13  -2    0.56    0.62
   1  13   2    0.19    0.82
  -1 -13  -2    1.79    0.99
   1 -13   2    3.66    1.00
  -1 -13  -2    2.33    1.13
   1  13   2    1.77    0.84
   1  13   2    1.73    0.71
  -1 -13  -3    0.49    1.02
   1  14  -3    3.36    1.18
   1 -14  -3    0.25    1.05
  -1  14   2    3.79    1.24
  -1 -14   2    3.78    1.49
   1  14  -2    3.74    1.21
   1 -14  -2    3.24    1.17
   1  14  -2    3.53    1.10
  -1 -14   2    3.24    1.27
   1 -14  -2    2.17    1.12
  -1  14   2    0.41    0.96
   1 -14  -2    3.12    1.22
  -1  14   2    3.00    1.20
   1  14  -2    3.66    1.22
  -1 -14   2    4.10    1.40
  -1  14   1    7.16    1.41
  -1 -14   1    6.76    1.47
   1 -14  -1    5.05    1.37
   1  14  -1    6.37    1.21
  -1 -14   1    7.45    1.64
   1 -14  -1    4.15    1.18
   1 -14  -1    2.90    1.00
   1  14  -1    0.78    1.40
  -1  14   1    7.61    1.50
  -1 -14   1    6.25    1.61
   1  14  -1    6.63    1.34
  -1  14   1    0.47    1.38
  -1  14   0    0.04    0.87
  -1  14   0    0.06    0.62
   1 -14   0   -0.37    0.73
   1 -14   0   -0.73    0.82
   1  14   0    0.12    0.61
  -1 -14   0   -0.41    0.88
  -1 -14   0   -0.12    0.94
   1  14   0   -0.25    0.58
  -1  14  -1   -0.79    0.99
   1 -14   1    0.44    0.81
   1 -14   1   -1.15    1.11
  -1 -14  -1   -0.75    1.29
  -1  14  -1    0.29    0.66
   1 -14   1    0.25    0.82
   1  14   1   -0.05    0.50
  -1 -14  -1    0.92    0.91
  -1  14  -1    0.02    0.63
   1  14   1    1.75    0.78
  -1 -14  -1   -1.08    1.59
   1  14   1    0.06    0.65
  -1 -14  -2    0.01    0.89
   1  14   2    0.35    0.84
   1  14   2   -1.06    0.70
  -1 -14  -2   -0.31    0.85
  -1 -14  -3   -0.68    1.14
  -1  15   2    0.34    0.82
  -1 -15   2    0.62    1.10
   1 -15  -2   -0.60    0.93
   1 -15  -2   -1.40    1.15
   1  15  -2    0.72    0.76
   1  15  -2    0.41    0.75
  -1 -15   2    3.65    1.31
  -1  15   2   -0.09    1.00
   1 -15  -2    0.14    0.81
   1  15  -2   -1.50    1.05
   1  15  -1    0.14    0.71
  -1  15   1   -0.58    0.80
  -1 -15   1    0.59    0.90
   1 -15  -1   -0.92    1.11
  -1  15   1    0.10    0.68
   1  15  -1    1.06    0.78
  -1 -15   1    0.52    0.98
   1 -15  -1    0.49    0.90
   1 -15  -1    1.72    1.01
  -1  15   1   -0.47    1.04
   1  15  -1    0.26    0.78
  -1 -15   1    0.35    1.11
  -1  15   0    1.48    0.87
   1 -15   0    0.59    1.04
  -1  15   0    0.08    0.76
  -1 -15   0   -1.62    1.00
   1 -15   0   -0.03    0.89
   1  15   0    0.11    0.92
  -1 -15   0    0.18    1.05
   1  15   0   -0.39    0.74
  -1  15  -1    0.41    0.92
   1 -15   1    1.06    1.07
   1 -15   1    1.59    0.90
  -1  15  -1    0.10    1.06
  -1 -15  -1    0.72    1.08
   1 -15   1    0.45    0.83
  -1 -15  -1    0.33    1.01
   1  15   1   -0.01    0.53
   1  15   1    2.72    1.05
  -1 -15  -1    1.60    1.22
   1  15   1    0.16    0.71
  -1 -15  -2   -0.35    0.98
   1  15   2    0.44    0.95
   1 -16  -2   -0.04    1.15
   1  16  -1    0.25    1.02
   1 -16  -1   -0.85    1.04
   1  16  -1    1.92    1.07
   1 -16  -1   -1.77    1.17
   1  16   0    0.13    1.02
   1 -16   0   -0.09    1.04
  -1  16   0   -0.12    0.95
  -1 -16   0    3.11    1.49
  -1 -16  -1   -1.42    1.03
   2   0  -6   17.94    2.18
   2   0  -6   17.46    2.03
  -2   0   6   17.28    1.98
  -2   0   6   14.18    2.07
   2   0  -5   -0.37    0.56
   2   0  -5   -0.57    0.46
   2   0  -5   -0.36    0.53
   2   0  -5   -0.32    0.47
  -2   0   5    0.69    0.58
  -2   0   5   -0.01    0.71
  -2   0   5   -0.37    0.61
  -2   0   5    0.27    0.50
   2   0  -4   -0.99    0.44
   2   0  -4   -0.03    0.30
   2   0  -4    0.05    0.35
   2   0  -4    0.51    0.39
  -2   0   4    0.33    0.51
  -2   0   4   -0.09    0.41
   2   0  -3    0.19    0.27
   2   0  -3   -0.04    0.19
   2   0  -3   -0.09    0.13
   2   0  -3   -0.37    0.30
   2   0  -3   -0.06    0.22
  -2   0   3   -0.17    0.30
  -2   0   3    0.05    0.46
  -2   0   3    0.00    0.24
   2   1  -6    0.05    0.54
   2  -1  -6   -0.04    0.74
   2   1  -6    0.16    0.60
   2   1  -6    0.42    0.63
   2  -1  -6    0.20    0.59
  -2  -1   6   -0.65    0.74
  -2   1   6    1.00    0.77
  -2   1   6    0.99    0.85
  -2  -1   6   -0.28    0.72
  -2  -1   6   -0.03    0.69
  -2   1   6   -0.48    0.68
   2  -1  -5    1.94    0.73
   2   1  -5    2.06    0.67
   2  -1  -5    1.38    0.65
   2   1  -5    1.63    0.69
   2   1  -5    2.58    0.83
   2  -1  -5    2.28    0.76
  -2  -1   5    1.78    0.68
  -2   1   5    2.42    0.86
  -2   1   5    1.85    0.84
  -2  -1   5    1.37    0.64
  -2  -1   5    1.51    0.73
  -2   1   5    1.10    0.48
   2   1  -4   13.65    1.34
   2  -1  -4   14.49    1.24
   2  -1  -4   13.17    1.39
   2   1  -4   14.70    1.43
   2   1  -4   15.91    1.39
   2  -1  -4   13.80    1.33
  -2   1   4   13.15    1.49
  -2  -1   4   12.97    1.44
  -2   1   4   13.27    1.46
  -2  -1   4   15.22    1.54
   2  -1  -4   14.19    1.33
   2   1  -4   14.40    1.31
   2  -1  -3   19.83    1.25
   2   1  -3   21.27    1.36
   2   1  -3   20.18    1.42
   2   1  -3   21.85    1.16
   2  -1  -3   22.02    1.45
  -2   1   3   21.65    1.69
   2   1  -3   22.12    1.37
   2  -1  -3   21.44    1.34
  -2  -1   3   21.77    1.63
  -2  -1   3   21.02    1.61
  -2   1   3   21.14    1.14
   2  -1  -3   23.62    1.40
   2  -2  -6    0.20    0.62
   2   2  -6    0.89    0.79
   2   2  -6    0.84    0.65
   2  -2  -6    1.51    0.82
   2   2  -6    0.82    0.65
   2  -2  -6    1.20    0.73
  -2  -2   6    0.46    0.62
  -2   2   6    2.43    1.01
  -2   2   6    0.85    0.98
  -2  -2   6    1.08    0.90
  -2  -2   6    0.66    0.85
  -2   2   6    0.68    0.59
   2   2  -5   21.47    1.94
   2  -2  -5   19.99    2.03
   2   2  -5   20.61    2.02
   2   2  -5   19.82    1.86
   2  -2  -5   20.16    1.90
  -2  -2   5   19.67    1.88
  -2   2   5   19.26    1.85
  -2   2   5   19.01    2.07
  -2  -2   5   17.53    1.96
  -2  -2   5   19.43    2.08
  -2   2   5   17.60    1.69
   2  -2  -5   19.45    1.84
   2  -2  -4    4.18    0.83
   2   2  -4    3.87    0.79
   2  -2  -4    3.66    0.66
   2  -2  -4    4.23    0.81
   2   2  -4    4.36    0.82
   2   2  -4    3.86    0.71
   2  -2  -4    3.60    0.71
  -2   2   4    4.73    0.99
  -2  -2   4    3.67    0.84
  -2  -2   4    4.28    0.91
   2  -2  -3    7.47    0.74
   2   2  -3    7.27    0.87
   2   2  -3    7.88    0.76
   2  -2  -3    6.99    0.88
   2   2  -3    6.87    0.85
   2   2  -3    7.79    0.84
   2  -2  -3    8.01    0.88
  -2   2   3    6.62    0.96
  -2  -2   3    6.60    0.93
  -2  -2   3    6.93    0.99
  -2   2   3    7.19    0.74
   2  -2  -3    6.98    0.84
   2   2  -2    3.48    0.58
   2  -3  -7   -0.58    0.88
   2   3  -7    1.89    1.09
   2  -3  -6    1.25    0.88
   2  -3  -6    0.05    0.76
   2   3  -6    0.36    0.57
   2  -3  -6    0.35    0.60
   2   3  -6    1.37    0.90
   2   3  -6    1.52    0.90
  -2  -3   6    1.08    0.81
  -2   3   6    1.03    0.64
  -2   3   6    0.14    0.87
  -2  -3   6    1.79    1.04
  -2  -3   6    0.43    0.68
  -2   3   6   -1.01    0.82
   2  -3  -5   -0.33    0.61
   2   3  -5   -0.38    0.39
   2  -3  -5    0.26    0.45
   2   3  -5    0.18    0.45
   2   3  -5    0.02    0.60
   2  -3  -5   -0.46    0.50
  -2  -3   5   -0.32    0.68
  -2   3   5    0.09    0.51
  -2   3   5    0.50    0.67
  -2  -3   5   -1.07    0.95
  -2  -3   5   -1.15    0.74
  -2   3   5    0.40    0.51
   2  -3  -4    0.57    0.44
   2   3  -4    0.26    0.31
   2  -3  -4    1.59    0.55
   2   3  -4    0.75    0.38
   2   3  -4    1.09    0.40
   2  -3  -4    0.20    0.47
  -2   3   4    0.55    0.63
  -2  -3   4    0.20    0.45
  -2  -3   4    0.38    0.59
   2  -3  -3   52.39    1.86
   2   3  -3   52.87    2.36
   2   3  -3   53.29    2.08
   2  -3  -3   54.81    2.28
   2   3  -3   53.74    2.25
   2   3  -3   50.59    2.07
   2  -3  -3   53.89    2.23
  -2   3   3   50.47    2.59
  -2  -3   3   53.35    2.59
  -2  -3   3   48.20    2.49
  -2   3   3   49.16    2.06
   2  -3  -3   48.45    2.20
  -2  -3   3   50.28    2.53
   2  -3  -2    0.34    0.23
   2   3  -2    0.51    0.24
   2   3  -2    0.97    0.31
   2   3  -2    0.44    0.21
  -2  -3   2    0.95    0.42
   2  -4  -6    6.39    1.45
   2   4  -6    5.40    1.37
   2  -4  -6    6.88    1.53
   2   4  -6    5.24    1.28
   2   4  -6    4.71    1.23
   2  -4  -6    4.65    1.26
  -2  -4   6    5.41    1.32
  -2   4   6    4.36    1.01
  -2   4   6    5.49    1.38
  -2  -4   6    5.25    1.43
  -2  -4   6    5.10    1.31
  -2   4   6    5.85    1.37
   2  -4  -5    8.93    1.36
   2   4  -5    7.66    1.35
   2  -4  -5    6.67    1.25
   2   4  -5    7.90    1.33
   2   4  -5    8.36    1.27
   2  -4  -5    7.95    1.33
  -2  -4   5    7.93    1.32
  -2   4   5    7.35    1.27
  -2   4   5    7.26    1.41
  -2  -4   5    8.32    1.38
  -2  -4   5    8.45    1.62
  -2   4   5    7.23    1.23
   2  -4  -4    1.45    0.57
  -2  -4   4    2.73    0.89
   2   4  -4    1.25    0.53
   2   4  -4    1.56    0.44
   2  -4  -4    1.95    0.56
   2   4  -4    1.39    0.60
   2   4  -4    1.05    0.45
   2  -4  -4    2.30    0.65
  -2   4   4    1.32    0.74
  -2  -4   4    2.51    0.74
   2  -4  -4    2.26    0.63
  -2  -4   4    1.85    0.70
  -2   4   4    2.05    0.56
   2  -4  -3    1.46    0.47
  -2  -4   3    2.09    0.70
   2   4  -3    1.17    0.42
   2  -4  -3    1.20    0.44
   2   4  -3    1.66    0.46
   2   4  -3    1.09    0.40
   2   4  -3    1.67    0.44
   2  -4  -3    1.57    0.48
  -2   4   3    1.33    0.55
  -2  -4   3    0.95    0.48
   2  -4  -3    1.14    0.44
  -2  -4   3    1.57    0.59
  -2   4   3    1.30    0.45
   2  -4  -2    1.49    0.44
  -2  -4   2    1.33    0.38
   2   4  -2    1.69    0.45
   2   4  -2    1.71    0.45
   2  -4  -2    1.34    0.35
   2   4  -2    1.51    0.37
  -2  -4   2    0.96    0.37
  -2  -4   2    2.20    0.59
   2   4  -2    1.40    0.31
   2  -5  -6   -0.09    0.74
   2   5  -6   -0.44    0.60
   2  -5  -6    0.85    0.74
   2   5  -6    0.47    0.71
   2   5  -6   -0.98    0.77
   2  -5  -6   -0.25    0.77
  -2  -5   6   -0.44    0.65
  -2   5   6    2.49    0.97
  -2   5   6    0.63    0.91
  -2  -5   6    0.70    0.96
  -2  -5   6   -0.44    0.95
  -2   5   6   -0.12    0.76
   2   5  -5    8.48    1.37
   2  -5  -5   10.64    1.57
   2   5  -5    8.26    1.35
   2   5  -5    8.36    1.19
   2  -5  -5    8.05    1.28
  -2  -5   5    8.47    1.35
  -2   5   5    8.15    1.29
  -2   5   5    8.40    1.49
  -2  -5   5    8.62    1.50
  -2  -5   5    8.30    1.59
  -2   5   5    7.85    1.23
   2   5  -4    9.28    1.24
  -2  -5   4   10.45    1.44
   2   5  -4    7.83    0.98
   2  -5  -4   11.83    1.44
   2   5  -4    8.96    1.20
   2   5  -4   10.05    1.16
  -2  -5   4    9.30    1.30
  -2  -5   4    8.04    1.25
   2  -5  -3    0.28    0.42
  -2  -5   3   -0.46    0.53
   2   5  -3    0.28    0.40
   2   5  -3    0.20    0.28
   2   5  -3   -0.26    0.27
   2  -5  -3    0.32    0.33
   2   5  -3    0.40    0.33
   2  -5  -3   -0.46    0.40
   2  -5  -3    0.31    0.33
  -2  -5   3    0.78    0.52
  -2   5   3   -0.14    0.43
   2  -5  -2    4.98    0.73
   2   5  -2    5.95    0.82
  -2  -5   2    6.52    0.94
   2   5  -2    5.46    0.69
   2   5  -2    6.69    0.85
  -2   5   2    5.32    0.69
  -2  -5   2    7.02    0.89
   2  -5  -2    5.42    0.72
   2   5  -2    5.27    0.67
   2  -5  -2    5.74    0.75
   2  -5  -2    4.88    0.60
  -2  -5   2    5.27    0.82
  -2   5   2    4.47    0.69
   2   5  -1    2.92    0.66
   2  -6  -6    0.62    1.39
   2   6  -6    3.70    1.20
   2  -6  -6    5.89    1.43
   2   6  -6    4.38    1.20
   2  -6  -6    4.16    1.16
  -2  -6   6    4.19    1.24
  -2   6   6    3.93    1.18
  -2   6   6    5.65    1.60
  -2  -6   6    5.01    1.56
  -2  -6   6    5.99    1.55
  -2   6   6    4.29    1.15
   2  -6  -5   -0.01    0.61
   2   6  -5    1.61    0.65
   2  -6  -5    1.07    0.63
   2   6  -5    0.99    0.61
   2   6  -5    1.42    0.83
   2  -6  -5    2.84    0.96
  -2  -6   5    0.49    0.65
  -2   6   5    1.25    0.75
  -2   6   5    1.29    0.81
  -2  -6   5    0.95    0.86
  -2  -6   5    0.58    0.89
  -2   6   5    0.77    0.72
   2   6  -4   11.46    1.44
  -2  -6   4   12.05    1.60
   2   6  -4   10.70    1.23
   2  -6  -4   10.52    1.27
   2   6  -4   11.96    1.36
   2   6  -4   10.65    1.20
   2  -6  -4   11.10    1.32
   2  -6  -4    4.92    1.40
  -2   6   4    9.62    1.45
  -2  -6   4    9.91    1.41
  -2  -6   4    9.41    1.41
  -2   6   4   10.25    1.26
   2  -6  -3    0.16    0.37
   2   6  -3    0.08    0.32
  -2  -6   3    0.46    0.47
   2   6  -3    0.56    0.37
   2  -6  -3    1.54    0.46
   2   6  -3    0.29    0.27
   2  -6  -3    0.00    0.32
  -2  -6   3    0.58    0.58
  -2   6   3    0.24    0.39
   2  -6  -2    4.73    0.75
   2   6  -2    5.20    0.80
  -2  -6   2    6.05    1.02
   2   6  -2    6.45    0.86
  -2   6   2    5.85    0.77
   2  -6  -2    5.26    0.64
   2   6  -2    5.31    0.65
   2   6  -2    6.11    0.76
   2  -6  -2    6.00    0.74
   2  -6  -2    6.28    0.82
  -2  -6   2    5.50    0.87
  -2  -6   2    4.42    0.78
  -2   6   2    5.60    0.83
   2   6  -1    9.53    1.00
   2   6  -1    9.91    1.07
  -2  -6   1    8.88    1.12
   2   6  -1    9.39    0.99
  -2  -6   1    8.08    0.92
   2  -7  -6   -0.06    0.85
   2   7  -6   -0.51    0.73
   2  -7  -5   -0.06    0.67
   2   7  -5    0.40    0.70
  -2  -7   5    1.54    0.98
  -2   7   5    0.74    0.79
   2  -7  -4    0.34    0.89
  -2  -7   4    1.94    0.89
   2   7  -4    1.72    0.73
   2   7  -4    1.69    0.59
   2  -7  -4    0.59    0.68
  -2  -7   4    2.68    1.03
  -2   7   4    3.13    0.85
  -2   7   4    2.58    0.82
   2   7  -3   19.24    1.68
   2   7  -3   19.51    1.64
  -2  -7   3   21.22    1.96
  -2   7   3   20.38    1.72
  -2  -7   3   22.07    1.95
   2  -7  -2    3.91    0.72
   2   7  -2    3.94    0.69
  -2  -7   2    3.42    0.80
  -2   7   2    3.29    0.67
   2   7  -2    3.73    0.70
  -2  -7   2    3.58    0.75
   2  -7  -2    3.40    0.67
   2  -7  -2    2.73    0.61
  -2  -7   2    2.81    0.77
   2   7  -2    3.66    0.66
  -2   7   2    3.53    0.80
   2   7  -1    5.32    0.77
  -2  -7   1    6.93    1.18
   2   7  -1    4.89    0.82
   2   7  -1    5.12    0.78
  -2  -7   1    5.27    0.95
  -2  -7   1    5.04    0.78
  -2  -7   0   13.95    1.51
   2   7   0   15.35    1.35
   2   8  -6   -0.99    0.99
   2  -8  -6   -0.34    2.60
   2  -8  -5    0.07    1.06
  -2  -8   5    2.38    1.30
   2   8  -5    4.56    1.19
  -2  -8   5    2.45    1.06
  -2   8   5    2.80    1.01
  -2   8   5    2.60    0.95
   2  -8  -4    1.55    1.38
   2   8  -4   10.33    1.51
  -2  -8   4   10.39    1.59
   2   8  -4   10.09    1.39
   2  -8  -4    3.85    1.35
  -2  -8   4    8.54    1.48
  -2   8   4    8.77    1.36
  -2   8   4    9.42    1.33
   2  -8  -3    0.03    0.45
   2   8  -3    0.27    0.36
  -2  -8   3   -1.20    0.78
   2   8  -3   -0.43    0.40
   2  -8  -3    1.01    0.57
  -2  -8   3   -0.30    0.56
  -2   8   3   -0.86    0.66
   2  -8  -2    0.41    0.47
   2   8  -2    0.55    0.39
  -2  -8   2    0.39    0.57
  -2   8   2    0.45    0.49
   2   8  -2    0.18    0.32
  -2  -8   2    0.23    0.62
   2  -8  -2    0.77    0.46
   2  -8  -2    0.26    0.38
  -2  -8   2    1.22    0.74
   2   8  -2    0.53    0.45
   2   8  -2   -0.06    0.36
  -2   8   2    0.11    0.46
   2   8  -1   20.35    1.44
   2   8  -1   21.71    1.71
  -2  -8   1   18.39    1.74
   2   8  -1   20.65    1.59
   2  -8  -1   21.99    1.59
  -2  -8   1   20.85    1.62
   2   8  -1   19.97    1.59
  -2   8   1   17.86    1.60
  -2   8   1   21.80    1.81
  -2  -8   1   21.90    1.95
   2   8   0   -0.04    0.29
  -2  -8   0    0.44    0.54
  -2  -8   0    0.67    0.57
   2   8   0   -0.27    0.25
   2  -9  -5    0.70    1.18
  -2  -9   5    7.07    1.92
   2   9  -5    5.22    1.34
   2   9  -5    2.93    0.87
   2  -9  -5    2.33    1.32
  -2  -9   5    5.53    1.43
  -2   9   5    4.14    1.17
  -2   9   5    3.46    0.98
   2  -9  -4    0.02    0.56
  -2  -9   4   -0.37    0.78
   2   9  -4    0.12    0.53
   2   9  -4    0.70    0.61
   2  -9  -4    0.12    0.78
  -2  -9   4    1.50    0.89
  -2   9   4   -0.37    0.57
  -2   9   4   -0.14    0.65
   2   9  -3    7.45    1.19
  -2  -9   3    4.76    1.23
   2   9  -3    5.55    1.05
   2  -9  -3    3.87    1.02
  -2  -9   3    5.40    1.09
  -2   9   3    5.28    1.15
   2   9  -2    0.86    0.48
   2   9  -2    0.17    0.37
  -2  -9   2   -0.30    0.59
  -2   9   2    0.35    0.57
   2   9  -2   -0.20    0.35
  -2  -9   2   -0.15    0.67
   2  -9  -2   -0.10    0.43
   2  -9  -2    0.63    0.45
  -2  -9   2    0.32    0.51
   2   9  -2    0.91    0.62
  -2   9   2    0.35    0.53
  -2  -9   1   -0.36    0.56
   2   9  -1    0.23    0.32
  -2   9   1    0.17    0.58
   2   9  -1    0.15    0.37
   2  -9  -1    0.28    0.34
  -2  -9   1    0.70    0.59
  -2  -9   1   -0.40    0.72
   2  -9  -1    0.45    0.46
   2   9  -1    0.84    0.54
   2   9  -1    0.26    0.38
  -2   9   1    0.06    0.50
   2   9   0    0.98    0.49
  -2  -9   0    1.08    0.64
  -2  -9   0    0.68    0.60
   2   9   0    0.50    0.37
   2   9   0    0.11    0.30
  -2  -9  -1    0.98    0.60
  -2  -9  -1    1.51    0.81
   2 -10  -5    0.08    0.86
  -2 -10   5    1.62    1.45
   2  10  -5    1.16    1.12
   2  10  -5    0.41    0.58
   2 -10  -5    0.55    0.84
  -2 -10   5    2.69    1.25
  -2  10   5    0.86    0.82
  -2  10   5    2.13    1.12
   2 -10  -4    0.42    0.96
  -2 -10   4    2.17    1.27
   2  10  -4    1.60    0.76
   2  10  -4    1.73    0.81
   2 -10  -4    0.47    0.95
  -2 -10   4    1.62    0.93
  -2  10   4    0.71    0.58
  -2  10   4    2.06    0.92
   2 -10  -3    0.54    0.64
  -2 -10   3   -0.04    0.73
   2  10  -3    0.44    0.50
   2  10  -3    1.18    0.60
   2 -10  -3    0.15    0.59
  -2 -10   3    0.59    0.66
  -2  10   3   -0.50    0.63
  -2  10   3    0.17    0.72
  -2 -10   2    0.67    0.76
   2  10  -2    0.62    0.44
   2  10  -2    0.21    0.41
  -2  10   2    0.10    0.58
   2  10  -2    0.59    0.52
   2 -10  -2   -0.15    0.56
  -2 -10   2    0.27    0.62
   2 -10  -2   -0.06    0.50
   2  10  -2   -0.21    0.48
  -2  10   2    0.35    0.59
  -2 -10   1    1.48    0.91
  -2  10   1    1.33    0.75
   2  10  -1    1.15    0.47
  -2 -10   1    2.64    1.02
  -2 -10   1    2.74    0.93
   2 -10  -1    1.37    0.57
   2  10  -1    2.21    0.67
  -2  10   1    1.71    0.84
   2  10  -1    2.29    0.70
   2  10   0    4.00    0.81
  -2 -10   0    3.78    0.97
  -2 -10   0    3.80    0.95
   2  10   0    4.98    0.98
   2  10   0    3.02    0.85
  -2 -10  -1    0.30    0.68
  -2 -10  -1   -0.57    0.71
   2  10   1    0.13    0.42
   2 -11  -5    0.09    0.86
   2  11  -5    0.91    1.14
   2  11  -5    1.26    0.78
   2 -11  -5   -0.64    1.14
   2 -11  -4    0.22    0.67
  -2 -11   4   -0.64    0.92
   2  11  -4    2.15    0.96
   2  11  -4    1.94    0.90
   2 -11  -4    1.79    1.34
  -2 -11   4    3.49    1.29
  -2  11   4    1.87    1.03
  -2  11   4    2.72    1.06
   2 -11  -3    0.49    0.57
  -2 -11   3    3.48    1.06
   2  11  -3    1.64    0.85
   2  11  -3    2.87    0.88
   2 -11  -3    0.26    0.70
  -2 -11   3    3.34    1.18
  -2  11   3    0.20    0.70
  -2  11   3    2.38    0.91
  -2 -11   2    4.74    1.28
  -2  11   2    3.89    0.97
   2  11  -2    5.34    0.98
   2  11  -2    4.55    1.08
   2 -11  -2    2.51    0.79
  -2 -11   2    3.92    1.13
   2 -11  -2    4.73    1.00
   2  11  -2    4.21    0.91
  -2  11   2    2.91    0.84
   2  11  -1    1.43    0.66
  -2 -11   1    2.80    0.98
  -2  11   1    2.76    0.97
   2  11  -1    2.82    0.83
  -2 -11   1    1.19    0.88
  -2 -11   1    3.06    1.02
   2 -11  -1    2.33    0.80
   2  11  -1    2.85    0.84
  -2  11   1    3.47    0.95
   2  11   0    0.13    0.58
   2  11   0    1.13    0.47
  -2 -11   0    1.05    0.79
  -2 -11   0    1.53    0.94
   2  11   0    1.60    0.62
   2 -12  -4    0.07    1.07
   2  12  -4    2.95    1.21
   2  12  -4    3.15    1.05
   2 -12  -4    0.90    1.00
  -2 -12   4    2.00    1.20
  -2  12   4    2.03    1.10
  -2  12   4    0.53    1.02
  -2 -12   3    0.31    0.88
   2  12  -3    2.09    0.82
   2 -12  -3    0.40    0.90
  -2  12   3    3.04    1.16
  -2  12   3    1.88    0.88
  -2 -12   2    0.10    0.79
  -2  12   2    1.53    0.98
   2  12  -2    0.30    0.50
   2  12  -2    1.19    0.66
   2 -12  -2    0.23    0.57
   2 -12  -2    0.76    0.71
  -2 -12   2   -0.15    0.77
   2  12  -2    0.98    0.59
  -2  12   2    1.27    0.91
  -2 -12   1    6.20    1.49
   2  12  -1    4.85    1.02
  -2  12   1    3.53    1.05
   2  12  -1    4.39    1.00
   2 -12  -1    4.14    1.04
  -2 -12   1    3.61    1.20
   2  12  -1    5.38    1.09
  -2  12   1    5.79    1.25
   2  12   0    5.94    1.04
  -2 -12   0    4.42    1.20
  -2 -12   0    4.39    1.21
   2  12   0    5.88    1.11
   2  12   1    0.95    0.93
  -2 -12  -1    2.50    0.98
  -2 -12  -1    4.07    1.24
   2  13  -4    2.29    1.24
   2  13  -4    1.63    1.05
  -2 -13   4    2.60    1.25
   2 -13  -4    1.15    1.03
  -2  13   4   -0.60    1.03
  -2 -13   3    3.48    1.37
   2  13  -3    3.47    1.19
   2 -13  -3    0.20    0.87
  -2  13   3    2.41    0.89
  -2 -13   2    1.02    1.07
  -2  13   2    0.26    0.79
   2  13  -2    0.00    0.50
   2  13  -2    0.10    0.66
   2 -13  -2    0.24    0.71
   2 -13  -2    0.54    0.60
  -2 -13   2    0.97    1.20
   2  13  -2   -0.86    0.73
  -2  13   2   -0.80    0.95
   2  13  -1    0.04    0.63
   2  13  -1   -0.11    0.53
  -2 -13   1   -0.44    0.88
   2  13  -1    0.79    0.53
  -2 -13   0    0.01    0.83
  -2 -13   0   -1.69    1.04
  -2 -13  -1    2.47    1.26
   2  14  -3    1.72    1.01
   2 -14  -3    0.69    0.91
  -2 -14   2    0.46    0.88
   2  14  -2   -0.74    0.81
   2  14  -2    0.28    0.57
  -2 -14   2    1.99    1.29
   2  14  -2   -0.97    1.00
   2  14  -1    0.04    0.59
  -2 -14   1    0.34    0.99
   2  14  -1    1.08    0.62
   2  14   0    0.12    0.82
  -2 -14   0   -0.03    1.11
   2  15  -2    1.60    0.95
   2  15  -2    1.20    1.14
  -2 -15   2    0.75    1.24
   2  15  -1    0.96    0.88
   2  15  -1    0.12    0.96
  -2 -15   1   -1.11    1.56
   2  15   0    0.03    0.59
  -2 -15   0   -0.72    1.47
   2  16  -1    0.16    0.71
   3   0  -6    1.06    0.85
   3   0  -6    0.56    0.67
  -3   0   6    1.29    0.81
   3   0  -5   -0.49    0.54
   3   0  -5   -0.40    0.55
   3   0  -5   -0.51    0.53
   3   0  -4    0.45    0.37
   3   0  -4    0.15    0.39
   3   1  -6    5.53    1.26
   3  -1  -6    4.35    1.32
   3   1  -6    5.14    1.28
   3   1  -6    2.95    0.99
   3  -1  -6    5.53    1.25
  -3  -1   6    4.97    1.32
  -3   1   6    5.44    1.36
   3   1  -5    5.09    1.03
   3  -1  -5    5.50    1.24
   3   1  -5    4.72    1.03
   3   1  -5    5.16    1.06
   3  -1  -5    5.55    1.01
   3  -1  -4    0.50    0.37
   3   1  -4    1.27    0.53
   3  -1  -4    1.09    0.51
   3   1  -4    0.75    0.47
   3   2  -6   -0.31    0.64
   3  -2  -6    1.39    0.86
   3   2  -6    0.25    0.59
   3   2  -6    1.15    0.72
   3  -2  -6    0.07    0.65
  -3  -2   6    1.36    0.86
  -3   2   6    1.65    1.05
  -3   2   6   -0.03    0.79
   3   2  -5    5.08    0.98
   3  -2  -5    7.19    1.25
   3   2  -5    4.73    1.03
   3   2  -5    4.98    0.93
   3  -2  -5    6.07    1.12
   3  -2  -4    0.96    0.44
   3   2  -4    0.99    0.50
   3  -2  -4    1.30    0.51
   3   2  -4    1.20    0.53
   3   3  -7    8.20    1.83
   3  -3  -6    0.74    0.58
   3   3  -6    1.68    0.83
   3  -3  -6    3.33    1.18
   3   3  -6    2.09    1.06
   3   3  -6    1.52    0.71
   3  -3  -6    3.59    1.07
  -3  -3   6    2.34    1.09
  -3   3   6    1.12    0.85
  -3   3   6    3.63    1.28
   3  -3  -5    2.99    0.93
   3   3  -5    1.85    0.74
   3  -3  -5    2.35    0.82
   3   3  -5    1.97    0.78
   3   3  -5    1.55    0.72
   3  -3  -5    1.83    0.72
   3   3  -4    4.91    0.91
   3  -3  -4    6.09    1.00
   3   3  -4    6.19    1.03
   3  -4  -6   -0.44    0.65
   3   4  -6   -0.28    0.71
   3  -4  -6    0.15    0.62
   3   4  -6    0.34    0.74
  -3  -4   6   -1.48    0.95
  -3   4   6    0.30    1.09
  -3  -4   6    0.83    0.99
  -3   4   6    0.23    0.99
   3  -4  -5    1.46    0.77
   3   4  -5   -1.17    0.65
   3  -4  -5    0.45    0.61
   3   4  -5   -0.68    0.68
  -3  -4   5   -0.71    0.74
   3   4  -4    0.41    0.37
   3   4  -4    0.04    0.31
   3   4  -4    0.33    0.43
   3  -5  -6   -0.12    0.74
   3   5  -6    0.24    0.72
   3  -5  -6    0.35    0.79
   3   5  -6   -0.39    0.80
  -3  -5   6    1.33    1.01
  -3   5   6   -0.92    1.02
  -3  -5   6    3.00    1.28
  -3   5   6   -0.67    1.06
   3  -5  -5    0.38    0.74
   3   5  -5    1.21    0.65
   3  -5  -5    1.85    0.78
   3   5  -5    1.69    0.79
  -3  -5   5    1.56    0.83
   3   5  -4    9.73    1.40
   3   5  -4   10.19    1.25
   3   5  -4   10.46    1.33
   3  -6  -6    0.29    1.20
   3   6  -6    0.36    0.82
   3   6  -6    2.39    1.06
  -3  -6   6    2.23    1.17
  -3   6   6    0.42    0.87
  -3  -6   6    3.33    1.66
  -3   6   6    1.39    1.11
   3  -6  -5    0.12    0.70
   3   6  -5    0.01    0.68
   3  -6  -5    0.07    0.69
   3   6  -5    0.22    0.54
  -3  -6   5   -1.00    0.99
   3   6  -4    2.76    0.79
   3   6  -4    3.45    0.79
   3   6  -4    3.28    0.80
   3  -7  -6   -0.07    1.16
   3   7  -6   -0.59    0.76
   3  -7  -5   -0.09    0.67
   3   7  -5   -0.40    0.64
  -3  -7   5    0.97    1.04
  -3   7   5   -1.55    0.96
   3   7  -4    8.22    1.37
   3   7  -4    8.54    1.28
   3   8  -5    0.50    0.71
  -3  -8   5    1.02    0.85
   3   8  -4    0.81    0.59
   3   8  -4    1.06    0.64
   3   8  -3    3.19    0.88
   3   8  -3    2.44    0.72
   3   9  -5   -1.05    0.83
   3   9  -5   -0.53    0.57
   3   9  -4    3.93    1.05
   3   9  -4    4.03    1.07
   3  10  -5    1.31    0.81
   3  10  -5    0.87    0.83
   3  10  -4    0.51    0.82
   3  10  -4   -0.02    0.50
   3  10  -3    2.83    0.90
   3  10  -3    1.18    0.63
   3  11  -5    0.17    0.82
   3  11  -5   -0.59    0.91
   3  11  -4    2.51    1.07
   3  11  -4    3.45    1.11
   3  11  -3    1.78    0.81
   3  12  -4    2.00    1.06
   0   0   0    0.00    0.00
;
_shelx_hkl_checksum              77360
_olex2_submission_special_instructions 'No special instructions were received'
loop_
_space_group_symop_operation_xyz
'x, y, z'
'-x, y+1/2, -z+1/2'
'-x, -y, -z'
'x, -y-1/2, z-1/2'
loop_
_atom_site_label
_atom_site_type_symbol
_atom_site_fract_x
_atom_site_fract_y
_atom_site_fract_z
_atom_site_U_iso_or_equiv
_atom_site_adp_type
_atom_site_occupancy
_atom_site_site_symmetry_order
_atom_site_calc_flag
_atom_site_refinement_flags_posn
_atom_site_refinement_flags_adp
_atom_site_refinement_flags_occupancy
_atom_site_disorder_assembly
_atom_site_disorder_group
Cl1 Cl 1.0317(9) 0.34042(14) 0.8507(4) 0.0517(7) Uiso 1 1 d . . . . .
N4 N 0.540(4) 0.3516(4) 0.5395(15) 0.0326(17) Uiso 1 1 d . . . . .
N5 N 0.707(3) 0.3304(4) 0.7138(13) 0.0339(15) Uiso 1 1 d . . . . .
N1 N 0.385(3) 0.4144(5) 0.2293(14) 0.041(2) Uiso 1 1 d . . . . .
N3 N 0.401(3) 0.3344(5) 0.5865(16) 0.046(2) Uiso 1 1 d . . . . .
N2 N 0.294(3) 0.3729(4) 0.3901(14) 0.0491(19) Uiso 1 1 d . . . . .
C8 C 0.710(3) 0.4261(5) 0.2584(15) 0.0310(18) Uiso 1 1 d . . . . .
H8 H 0.714611 0.458760 0.111546 0.037 Uiso 1 1 calc R U . . .
C6 C 0.830(3) 0.3572(4) 0.6333(16) 0.0263(18) Uiso 1 1 d . . . . .
C9 C 0.544(5) 0.4009(5) 0.3242(18) 0.0291(19) Uiso 1 1 d . . . . .
C7 C 0.853(3) 0.4023(4) 0.4091(13) 0.0312(19) Uiso 1 1 d . . . . .
H7 H 0.962580 0.413998 0.372121 0.037 Uiso 1 1 calc R U . . .
loop_
_atom_type_symbol
_atom_type_description
_atom_type_scat_dispersion_real
_atom_type_scat_dispersion_imag
_atom_type_scat_source
C C 0.0033 0.0016 'International Tables Vol C Tables 4.2.6.8 and 6.1.1.4'
H H 0.0000 0.0000 'International Tables Vol C Tables 4.2.6.8 and 6.1.1.4'
Cl Cl 0.1484 0.1585 'International Tables Vol C Tables 4.2.6.8 and 6.1.1.4'
N N 0.0061 0.0033 'International Tables Vol C Tables 4.2.6.8 and 6.1.1.4'
loop_
_geom_angle_atom_site_label_1
_geom_angle_atom_site_label_2
_geom_angle_atom_site_label_3
_geom_angle
_geom_angle_site_symmetry_1
_geom_angle_site_symmetry_3
_geom_angle_publ_flag
N3 N4 N5 123.1(9) . . ?
N3 N4 C9 117(3) . . ?
C9 N4 N5 120(3) . . ?
C6 N5 N4 111.8(8) . . ?
C9 N1 N2 105.2(11) . . ?
N4 N3 N2 101.9(12) . . ?
N3 N2 N1 111.5(19) . . ?
C9 C8 H8 120.5 . . ?
C7 C8 H8 120.5 . . ?
C7 C8 C9 119.0(8) . . ?
N5 C6 Cl1 112.2(10) . . ?
N5 C6 C7 134(2) . . ?
C7 C6 Cl1 113.6(18) . . ?
N4 C9 C8 120(3) . . ?
N1 C9 N4 104(3) . . ?
N1 C9 C8 135.8(9) . . ?
C8 C7 C6 115(2) . . ?
C8 C7 H7 122.3 . . ?
C6 C7 H7 122.3 . . ?
loop_
_geom_bond_atom_site_label_1
_geom_bond_atom_site_label_2
_geom_bond_distance
_geom_bond_site_symmetry_2
_geom_bond_publ_flag
Cl1 C6 1.82(3) . ?
N4 N5 1.51(4) . ?
N4 N3 1.19(4) . ?
N4 C9 1.369(11) . ?
N5 C6 1.19(3) . ?
N1 N2 1.354(18) . ?
N1 C9 1.28(4) . ?
N3 N2 1.35(2) . ?
C8 H8 0.9300 . ?
C8 C9 1.45(4) . ?
C8 C7 1.31(3) . ?
C6 C7 1.424(10) . ?
C7 H7 0.9300 . ?
loop_
_geom_torsion_atom_site_label_1
_geom_torsion_atom_site_label_2
_geom_torsion_atom_site_label_3
_geom_torsion_atom_site_label_4
_geom_torsion
_geom_torsion_site_symmetry_1
_geom_torsion_site_symmetry_2
_geom_torsion_site_symmetry_3
_geom_torsion_site_symmetry_4
_geom_torsion_publ_flag
Cl1 C6 C7 C8 -172.8(5) . . . . ?
N4 N5 C6 Cl1 175.9(4) . . . . ?
N4 N5 C6 C7 -1.6(10) . . . . ?
N4 N3 N2 N1 -0.7(7) . . . . ?
N5 N4 N3 N2 175.1(5) . . . . ?
N5 N4 C9 N1 -175.0(6) . . . . ?
N5 N4 C9 C8 4.0(9) . . . . ?
N5 C6 C7 C8 4.7(10) . . . . ?
N3 N4 N5 C6 -177.2(7) . . . . ?
N3 N4 C9 N1 -0.3(9) . . . . ?
N3 N4 C9 C8 178.7(6) . . . . ?
N2 N1 C9 N4 -0.1(7) . . . . ?
N2 N1 C9 C8 -178.9(7) . . . . ?
C9 N4 N5 C6 -2.9(8) . . . . ?
C9 N4 N3 N2 0.6(8) . . . . ?
C9 N1 N2 N3 0.5(7) . . . . ?
C9 C8 C7 C6 -3.0(9) . . . . ?
C7 C8 C9 N4 -0.9(9) . . . . ?
C7 C8 C9 N1 177.8(7) . . . . ?
