#------------------------------------------------------------------------------
#$Date: 2022-01-01 07:13:54 +0200 (Sat, 01 Jan 2022) $
#$Revision: 271676 $
#$URL: file:///home/coder/svn-repositories/cod/cif/1/56/58/1565885.cif $
#------------------------------------------------------------------------------
#
# This file is available in the Crystallography Open Database (COD),
# http://www.crystallography.net/. The original data for this entry
# were provided by IUCr Journals, http://journals.iucr.org/.
#
# The file may be used within the scientific community so long as
# proper attribution is given to the journal article from which the
# data were obtained.
#
data_1565885
loop_
_publ_author_name
'Olejniczak, Anna'
'Katrusiak, Anna'
'Podsiad\/lo, Marcin'
'Katrusiak, Andrzej'
_publ_section_title
;
 Stochastic hydration of a high-nitrogen-content molecular compound
 recrystallized under pressure
;
_journal_issue                   1
_journal_name_full               IUCrJ
_journal_page_first              49
_journal_page_last               54
_journal_paper_doi               10.1107/S2052252521010381
_journal_volume                  9
_journal_year                    2022
_chemical_formula_moiety         'C4 H2 Cl N5'
_chemical_formula_sum            'C4 H2 Cl N5'
_chemical_formula_weight         155.56
_chemical_name_systematic        6-chloro-1,2,3,4-tetrazolo[1,5-b]pyridazine
_space_group_crystal_system      monoclinic
_space_group_IT_number           14
_space_group_name_Hall           '-P 2ybc'
_space_group_name_H-M_alt        'P 1 21/c 1'
_atom_sites_solution_hydrogens   geom
_atom_sites_solution_primary     direct
_audit_creation_date             2020-07-14
_audit_creation_method
;
Olex2 1.3
(compiled 2020.06.28 svn.raecde09e for OlexSys, GUI svn.r6132)
;
_cell_angle_alpha                90
_cell_angle_beta                 101.14(6)
_cell_angle_gamma                90
_cell_formula_units_Z            4
_cell_length_a                   7.878(12)
_cell_length_b                   13.2446(15)
_cell_length_c                   5.7134(11)
_cell_measurement_reflns_used    734
_cell_measurement_temperature    296(2)
_cell_measurement_theta_max      21.8570
_cell_measurement_theta_min      3.9270
_cell_volume                     584.9(9)
_computing_cell_refinement       'CrysAlisPro 1.171.40.67a (Rigaku OD, 2019)'
_computing_data_collection       'CrysAlisPro 1.171.40.67a (Rigaku OD, 2019)'
_computing_data_reduction        'CrysAlisPro 1.171.40.67a (Rigaku OD, 2019)'
_computing_molecular_graphics    'Olex2 1.3 (Dolomanov et al., 2009)'
_computing_publication_material  'Olex2 1.3 (Dolomanov et al., 2009)'
_computing_structure_refinement  'SHELXL 2018/3 (Sheldrick, 2015)'
_computing_structure_solution    'SHELXT 2018/2 (Sheldrick, 2018)''
_diffrn_ambient_environment      'diamond-anvil cell'
_diffrn_ambient_pressure         170000
_diffrn_ambient_temperature      296
_diffrn_detector                 'CCD plate'
_diffrn_detector_area_resol_mean 16.2413
_diffrn_detector_type            Eos
_diffrn_measured_fraction_theta_full 0.354
_diffrn_measured_fraction_theta_max 0.317
_diffrn_measurement_details
;
List of Runs (angles in degrees, time in seconds):

  # Type    Start    End  Width  t~exp~   \w     \q     \k     \f   Frames
--------------------------------------------------------------------------
  1  \f    -35.00  19.75   0.75   20.00   0.00 -30.00   0.00    --    73
  2  \f    140.00 200.00   0.75   20.00   0.00 -30.00   0.00    --    80
  3  \f    160.00 217.00   0.75   20.00   0.00  30.00   0.00    --    76
  4  \f    -20.00  34.75   0.75   20.00   0.00  30.00   0.00    --    73
  5  \w    -24.00  24.00   0.75   20.00    --   30.00  39.46 -12.90   64
  6  \w    -24.00  24.00   0.75   20.00    --   30.00  39.46 167.10   64
  7  \w    -50.00  10.00   0.75   20.00    --  -30.00  39.46 167.10   80
  8  \w    -50.00  10.00   0.75   20.00    --  -30.00  39.46 -12.90   80
  9  \w    -64.00  -8.50   0.75   20.00    --  -30.00  81.40 -28.90   74
 10  \w    -64.00  -8.50   0.75   20.00    --  -30.00  81.40 151.10   74
 11  \w    -19.00   8.00   0.75   20.00    --   30.00  81.40 151.10   36
 12  \w    -19.00   8.00   0.75   20.00    --   30.00  81.40 -28.90   36
 13  \w    -43.00 -21.25   0.75   20.00    --   30.00 134.60 -56.90   29
 14  \w    -43.00 -21.25   0.75   20.00    --   30.00 134.60 123.10   29
 15  \w    -90.00 -36.00   0.75   20.00    --  -30.00 134.60 123.10   72
 16  \w    -90.00 -36.00   0.75   20.00    --  -30.00 134.60 -56.90   72
;
_diffrn_measurement_device       'four-circle diffractometer'
_diffrn_measurement_device_type  'KM-4 CCD'
_diffrn_measurement_method
;
HP omega scans - for more details see:
A. Budzianowski, A. Katrusiak in High-Pressure Crystallography
(Eds.: A. Katrusiak, P. F. McMillan),
Dordrecht: Kluwer Acad. Publ., 2004 pp.157-168
;
_diffrn_orient_matrix_type
'CrysAlisPro convention (1999,Acta A55,543-557)'
_diffrn_orient_matrix_UB_11      -0.0913395000
_diffrn_orient_matrix_UB_12      -0.0045564000
_diffrn_orient_matrix_UB_13      -0.0273895000
_diffrn_orient_matrix_UB_21      -0.0077748000
_diffrn_orient_matrix_UB_22      0.0533786000
_diffrn_orient_matrix_UB_23      -0.0049534000
_diffrn_orient_matrix_UB_31      0.0024071000
_diffrn_orient_matrix_UB_32      -0.0011037000
_diffrn_orient_matrix_UB_33      -0.1234523000
_diffrn_radiation_monochromator  graphite
_diffrn_radiation_probe          x-ray
_diffrn_radiation_type           'Mo K\a'
_diffrn_radiation_wavelength     0.71073
_diffrn_reflns_av_R_equivalents  0.0423
_diffrn_reflns_av_unetI/netI     0.0349
_diffrn_reflns_Laue_measured_fraction_full 0.354
_diffrn_reflns_Laue_measured_fraction_max 0.317
_diffrn_reflns_limit_h_max       3
_diffrn_reflns_limit_h_min       -4
_diffrn_reflns_limit_k_max       17
_diffrn_reflns_limit_k_min       -16
_diffrn_reflns_limit_l_max       7
_diffrn_reflns_limit_l_min       -7
_diffrn_reflns_number            3430
_diffrn_reflns_point_group_measured_fraction_full 0.354
_diffrn_reflns_point_group_measured_fraction_max 0.317
_diffrn_reflns_theta_full        25.242
_diffrn_reflns_theta_max         27.420
_diffrn_reflns_theta_min         3.947
_diffrn_source                   'fine-focus sealed X-ray tube'
_diffrn_source_type              'Enhance (Mo) X-ray Source'
_exptl_absorpt_coefficient_mu    0.563
_exptl_absorpt_correction_T_max  1.00000
_exptl_absorpt_correction_T_min  0.33792
_exptl_absorpt_correction_type   multi-scan
_exptl_absorpt_process_details
;
CrysAlisPro 1.171.39.46 (Rigaku Oxford Diffraction, 2018)
Empirical absorption correction using spherical harmonics,
 implemented in SCALE3 ABSPACK scaling algorithm.
;
_exptl_crystal_colour            colorless
_exptl_crystal_density_diffrn    1.766
_exptl_crystal_description       plate
_exptl_crystal_F_000             312
_exptl_crystal_size_max          0.39
_exptl_crystal_size_mid          0.28
_exptl_crystal_size_min          0.16
_refine_diff_density_max         0.096
_refine_diff_density_min         -0.108
_refine_diff_density_rms         0.026
_refine_ls_extinction_method     none
_refine_ls_goodness_of_fit_ref   1.129
_refine_ls_hydrogen_treatment    constr
_refine_ls_matrix_type           full
_refine_ls_number_parameters     91
_refine_ls_number_reflns         424
_refine_ls_number_restraints     0
_refine_ls_restrained_S_all      1.129
_refine_ls_R_factor_all          0.0768
_refine_ls_R_factor_gt           0.0349
_refine_ls_shift/su_max          0.000
_refine_ls_shift/su_mean         0.000
_refine_ls_structure_factor_coef Fsqd
_refine_ls_weighting_details
'w=1/[\s^2^(Fo^2^)+(0.0358P)^2^] where P=(Fo^2^+2Fc^2^)/3'
_refine_ls_weighting_scheme      calc
_refine_ls_wR_factor_gt          0.0713
_refine_ls_wR_factor_ref         0.0844
_reflns_Friedel_coverage         0.000
_reflns_number_gt                290
_reflns_number_total             424
_reflns_threshold_expression     'I > 2\s(I)'
_cod_data_source_file            lt5042.cif
_cod_data_source_block           C4H2N5Cl1@0_17GPa_phase_beta
_cod_database_code               1565885
_shelx_shelxl_version_number     2018/3
_chemical_oxdiff_formula         C4H2N5Cl1
_shelx_space_group_comment
;
The symmetry employed for this shelxl refinement is uniquely defined
by the following loop, which should always be used as a source of
symmetry information in preference to the above space-group names.
They are only intended as comments.
;
_reflns_odcompleteness_completeness 31.41
_reflns_odcompleteness_iscentric 1
_reflns_odcompleteness_theta     27.36
_olex2_refinement_description
;
1. Fixed Uiso
 At 1.2 times of:
  All C(H) groups
2.a Aromatic/amide H refined with riding coordinates:
 C8(H8), C7(H7)
;
_shelx_res_file
;
TITL 1a_a.res in P2(1)/c
    1a.res
    created by SHELXL-2018/3 at 13:29:23 on 14-Jul-2020
REM Old TITL 1a in P2(1)/c
REM SHELXT solution in P2(1)/c
REM R1 0.150, Rweak 0.271, Alpha 0.046, Orientation as input
REM Formula found by SHELXT: C7 N4 Cl
CELL 0.71073 7.8779 13.2446 5.7134 90 101.14 90
ZERR 4 0.0119 0.0015 0.0011 0 0.06 0
LATT 1
SYMM -X,0.5+Y,0.5-Z
SFAC C H Cl N
UNIT 16 8 4 20

L.S. 44
PLAN  1
CONF
BOND $H
list 4
fmap 2 53
acta
MORE -1
REM <olex2.extras>
REM <HklSrc "%.\\1a.hkl">
REM </olex2.extras>

WGHT    0.035800
FVAR       0.96903
CL1   3    1.027175    0.339000    0.838730    11.00000    0.12920    0.06511 =
         0.05145    0.00878    0.01702    0.00421
N4    4    0.563043    0.354061    0.536225    11.00000    0.13347    0.03389 =
         0.04443    0.00153    0.04000    0.00287
N5    4    0.692814    0.331648    0.697366    11.00000    0.01161    0.04036 =
         0.03652   -0.00113   -0.00558   -0.00595
N1    4    0.390236    0.416018    0.227121    11.00000    0.12767    0.03885 =
         0.05231    0.00381    0.01592    0.01299
N3    4    0.397659    0.338089    0.570313    11.00000    0.04811    0.04992 =
         0.05069   -0.00513    0.00395   -0.00316
N2    4    0.292285    0.375158    0.382104    11.00000    0.08543    0.05054 =
         0.06460   -0.00730    0.01105    0.00536
C8    1    0.711504    0.424208    0.257428    11.00000    0.06296    0.03815 =
         0.03658    0.00066    0.02126   -0.00317
AFIX  43
H8    2    0.715217    0.455216    0.112459    11.00000   -1.20000
AFIX   0
C6    1    0.849504    0.357304    0.635549    11.00000    0.07018    0.03459 =
         0.04751    0.00005    0.02320   -0.00049
C9    1    0.548508    0.400201    0.322417    11.00000    0.12351    0.02669 =
         0.03916    0.00332    0.02652    0.01428
C7    1    0.857482    0.400996    0.409845    11.00000    0.08914    0.04028 =
         0.03475    0.00085    0.01426    0.00598
AFIX  43
H7    2    0.964161    0.413346    0.368643    11.00000   -1.20000
AFIX   0
HKLF 4




REM  1a_a.res in P2(1)/c
REM wR2 = 0.0844, GooF = S = 1.129, Restrained GooF = 1.129 for all data
REM R1 = 0.0349 for 290 Fo > 4sig(Fo) and 0.0768 for all 424 data
REM 91 parameters refined using 0 restraints

END

WGHT      0.0358      0.0000

REM Highest difference peak  0.096,  deepest hole -0.108,  1-sigma level  0.026
Q1    1   0.7536  0.3403  0.8797  11.00000  0.05    0.10
;
_shelx_res_checksum              31527
_shelx_hkl_file
;
   0  -3   0   -0.08    1.05
   0   3   0    0.49    0.99
   0   3   0   -1.24    1.44
   0  -3   0    0.52    1.27
  -1   3   0  221.83   12.18
   1  -3   0  191.76   13.02
   1  -3   0  199.23   13.26
   1  -3   0  212.95   13.62
  -1   3   0  204.24   11.80
  -1   4   0   54.94    6.92
   1  -4   0   50.25    6.52
  -1   4   0   50.06    6.62
  -1   4   0   56.35    6.75
  -1   4   0   52.05    6.50
   1  -4   0   58.81    7.83
   1  -4   0   42.11    6.99
   0   5   0   -0.93    2.03
   0  -5   0   -0.34    1.13
   0  -5   0    0.06    2.09
   0   5   0    1.74    2.24
   0   5   0    0.60    2.09
   0  -5   0    0.96    3.11
   0   5   0   -0.28    2.00
   0  -5   0    1.96    2.79
   0   5   0    2.81    2.09
   0  -5   0    3.46    3.20
   1  -5   0   18.34    5.27
  -1  -5   0   12.32    3.50
  -1  -5   0    9.23    3.83
   1  -5   0    5.99    2.94
  -1   5   0   14.23    4.43
   1   5   0   10.77    3.16
   1  -5   0    8.34    3.69
  -1   5   0    8.36    3.51
   1   5   0    6.93    2.61
   1  -5   0   10.41    3.84
  -1   5   0   10.53    2.90
  -1  -5   0    8.09    3.69
  -1   5   0    8.84    3.59
   0  -6   0 1013.02   34.63
   0  -6   0 1128.57   33.06
   0   6   0 1096.03   35.79
   0   6   0 1063.64   33.70
   0   6   0 1084.39   35.54
   0   6   0 1094.76   30.17
   0  -6   0 1097.34   24.74
   0  -6   0 1087.68   26.42
   0   6   0 1072.55   32.90
   0  -6   0 1079.90   34.23
   0  -6   0  975.35   33.99
   1   6   0  671.56   25.65
   1  -6   0  703.00   31.69
   1  -6   0  633.19   25.43
   1   6   0  662.72   29.75
   1  -6   0  667.72   27.22
   1   6   0  736.27   31.20
  -1  -6   0  695.56   29.27
  -1   6   0  647.48   27.62
   1  -6   0  705.97   31.41
   1   6   0  687.03   29.69
  -1   6   0  714.42   30.24
  -1  -6   0  683.58   29.92
  -1   6   0  661.81   29.27
   1  -6   0  702.78   28.45
  -1   6   0  647.27   27.03
  -1  -6   0  657.14   29.64
  -2   6   0  500.51   24.74
   2  -6   0  455.10   30.96
  -2   6   0  461.82   23.42
   0  -7   0    3.17    2.41
   0   7   0   -1.29    3.79
   0   7   0    0.43    2.14
   0  -7   0   -5.47    5.52
   0   7   0    0.18    3.51
   0  -7   0   -2.88    2.17
   0  -7   0    2.62    4.06
   0   7   0    0.24    4.38
   0  -7   0    2.15    3.91
   0   7   0    1.33    3.41
   0  -7   0   -1.74    2.89
   0   7   0   -1.32    2.82
  -1  -7   0   12.73    4.60
   1   7   0   14.00    4.84
   1  -7   0   24.46    6.47
  -1  -7   0   14.42    6.11
  -1   7   0   25.83    7.65
   1   7   0   13.54    5.17
  -1  -7   0   14.38    4.44
   1   7   0   13.58    6.46
   1  -7   0    7.26    3.99
  -1  -7   0   10.72    4.36
   1  -7   0   22.26    6.75
   1  -7   0   15.34    4.92
   1   7   0    8.62    3.12
   1   7   0   10.68    5.01
  -1  -7   0    8.35    4.66
  -1   7   0   10.37    5.03
  -1   7   0   13.60    5.24
   1  -7   0    9.08    5.04
  -1   7   0    8.77    5.93
  -2   7   0  249.90   18.23
   2  -7   0  253.82   24.24
   2  -7   0  261.85   23.56
   2  -7   0  216.23   21.87
  -2   7   0  273.15   19.89
   2  -7   0  254.04   22.64
   0  -8   0    7.13    5.00
   0  -8   0    2.32    5.08
   0   8   0    4.52    3.98
   0  -8   0   -1.64    4.72
   0   8   0    4.89    5.15
   0   8   0    4.53    4.29
   0   8   0    0.99    3.40
   0  -8   0   -0.28    3.51
  -1  -8   0   -0.82    3.39
   1  -8   0    5.79    4.58
   1   8   0    5.31    5.71
   1  -8   0    5.05    6.13
  -1   8   0    0.19    5.70
  -1  -8   0   -0.58    3.52
  -1   8   0    1.16    5.35
  -1  -8   0   -0.87    3.57
   1   8   0    6.68    4.07
   1  -8   0   -8.55    6.56
   1   8   0    3.07    3.79
  -1  -8   0   -0.42    6.00
   1   8   0    1.07    6.62
   1  -8   0    9.88    5.58
  -1   8   0    1.76    4.17
  -1  -8   0    1.13    4.34
  -1   8   0    4.72    4.14
  -2   8   0    1.59    3.79
  -2   8   0   -0.04    3.82
   2  -8   0    8.56    7.52
   2  -8   0   18.98    9.58
   2  -8   0    7.96    7.50
   2  -8   0   -3.12    5.75
  -2   8   0   -1.39    3.86
  -2   8   0   -8.66    6.15
   0   9   0    1.07    4.95
   0  -9   0   -3.88    5.63
   0  -9   0   -3.64    4.61
   0   9   0    1.79    4.39
   0  -9   0    7.17    5.29
   0  -9   0    7.60    5.32
   0   9   0   -5.31    5.30
   0   9   0   -1.11    6.23
   1  -9   0   30.64    9.41
   1   9   0   20.25    8.74
  -1   9   0    9.76    5.88
  -1   9   0   12.30    8.48
   1   9   0    9.43    8.31
   1  -9   0    7.98    5.56
  -1  -9   0   24.50    8.41
  -1  -9   0   25.59    8.29
   1   9   0   30.56    8.84
   1  -9   0   26.97    9.01
   1   9   0   16.14    6.42
  -1   9   0   28.60    8.22
  -1   9   0   15.69    6.19
  -1  -9   0   21.69    6.52
   1  -9   0   24.65    7.46
  -2   9   0    0.09    4.61
   2  -9   0   -1.87    6.89
   2  -9   0   13.15    7.11
  -2   9   0   10.21    4.81
   2  -9   0    7.99    7.65
  -2   9   0   10.39    5.09
  -2   9   0    0.48    4.58
   2  -9   0   -2.46    6.91
   0 -10   0  281.43   24.68
   0 -10   0  281.70   24.72
   0  10   0  274.08   22.15
   0 -10   0  236.57   21.81
   0  10   0  270.16   23.15
   0  10   0  283.63   23.70
   0 -10   0  295.07   23.65
  -1 -10   0  102.98   16.31
   1 -10   0   85.75   13.49
   1 -10   0   80.09   14.50
   1  10   0   95.29   15.34
   1 -10   0   84.81   13.77
  -1  10   0   82.14   13.51
   1 -10   0   84.93   14.87
  -1  10   0   71.85   13.41
   1  10   0   66.33   11.94
  -1 -10   0   85.51   15.05
   1  10   0    1.13   14.81
  -1  10   0    0.59   13.11
  -1 -10   0   81.53   14.32
  -1  10   0   78.60   13.27
   2 -10   0   67.15   13.72
   2 -10   0   51.81   15.15
  -2  10   0   77.16   13.69
   2 -10   0   44.13   12.70
  -2  10   0   52.22   10.46
   2 -10   0   40.07   10.40
  -2  10   0   62.77   12.59
   0  11   0   -0.99    5.34
   0 -11   0    6.12    6.96
   0 -11   0    0.08    8.16
   0  11   0   -0.03    7.30
   0 -11   0    1.02    6.49
   0 -11   0    2.89    6.91
   0  11   0  -12.00    7.25
   0  11   0   -1.73    5.58
   1  11   0   10.70    8.61
   1 -11   0   25.88    7.96
   1  11   0   22.74    8.67
  -1  11   0   10.89    7.48
   1 -11   0   26.88   11.14
  -1 -11   0   19.53    9.18
   1  11   0   33.41   10.41
  -1 -11   0   17.35    8.34
  -1  11   0   28.73    8.96
  -1  11   0    0.18    9.55
  -1  11   0   24.78    9.75
  -1 -11   0   12.62    6.63
   1 -11   0   33.64    9.39
   1 -11   0   28.38    8.26
   2 -11   0   20.20    9.99
   2 -11   0   34.49   11.98
  -2  11   0   20.19    7.66
  -2  11   0   35.30   10.09
  -2  11   0    0.18   10.54
   2 -11   0    9.42    8.52
  -2  11   0   34.45   11.22
   2 -11   0   31.22   11.59
   0  12   0  564.36   36.59
   0  12   0  519.36   37.28
   0 -12   0  587.94   37.38
   0  12   0  590.75   39.96
   0 -12   0  566.24   38.92
   0 -12   0  553.12   36.64
   0 -12   0  589.34   40.37
   1 -12   0    2.72    6.70
   1  12   0    7.28    8.94
  -1  12   0    5.56    6.31
   1  12   0    8.96    6.98
   1 -12   0    8.06    9.94
  -1  12   0    6.90    8.55
  -1 -12   0   19.81    8.86
  -1 -12   0    6.87    9.17
  -1 -12   0   11.87    8.76
   1 -12   0   10.18    8.97
  -1  12   0    0.00    7.23
   1 -12   0    2.00    7.81
  -1  12   0    6.46    7.03
   2 -12   0   61.23   15.91
  -2  12   0   62.18   12.90
  -2  12   0   54.22   11.16
  -2  12   0   75.92   15.37
   2 -12   0   71.43   17.07
   2 -12   0   90.70   20.35
   2 -12   0   56.47   13.38
  -2  12   0   29.48   18.45
   0 -13   0   13.15   12.76
   0 -13   0   -6.62    6.40
   0 -13   0  -10.54    9.15
   0  13   0   -2.74    6.63
   0  13   0  -12.39    9.89
   0  13   0    5.45    8.84
   0  13   0    0.01    7.06
   0 -13   0    6.61    6.85
   1  13   0   -1.15    8.73
  -1  13   0    4.55    6.59
   1 -13   0    3.53    8.39
  -1  13   0   20.94    8.06
  -1  13   0   -9.63    8.06
  -1 -13   0   14.28   11.43
  -1 -13   0    2.05    8.27
  -1  13   0   -1.18    7.04
  -1 -13   0    7.23    8.44
   1 -13   0   -2.81    8.00
   1  13   0    0.20    7.62
   1 -13   0    5.57    9.19
   1 -13   0    0.94    7.80
   2 -13   0   10.57   11.77
  -2  13   0   -2.87    5.42
   2 -13   0   12.61   12.81
  -2  13   0    0.24    7.15
   2 -13   0   -4.60   10.06
   2 -13   0   14.58   10.51
  -2  13   0    4.59    6.56
  -2  13   0   -0.01    6.60
   0  14   0    6.62    8.51
   0 -14   0    7.08   10.03
   0 -14   0    5.66    9.28
   0  14   0    7.31    8.65
   0 -14   0    7.15    8.32
   0  14   0    1.47   12.54
   1  14   0   -3.15    8.09
   1 -14   0    1.66    8.24
  -1 -14   0  -55.98   20.70
  -1 -14   0  -49.86   25.97
  -1  14   0    0.57    6.73
   1 -14   0    5.80   11.38
   1 -14   0    6.21    8.12
  -1  14   0    7.78    8.27
  -1  14   0    0.00    7.88
   2 -14   0   22.83   15.46
  -2  14   0   -2.47    7.36
   2 -14   0   -1.68   10.78
   2 -14   0   -1.82    9.02
  -2  14   0    5.71   10.04
  -2  14   0   -0.08    8.65
   0  15   0   -1.57   13.31
   0 -15   0   12.85   14.51
   0 -15   0  -24.49   14.71
   0  15   0    7.02    7.30
   1 -15   0   19.52   15.40
  -1  15   0   -0.35   10.88
  -1 -15   0   24.44   14.20
   1 -15   0   14.45   12.17
  -1  15   0    8.85    9.65
   1  15   0    0.03   10.16
  -2  15   0   -1.58    8.07
  -2  15   0   -0.08    8.15
   2 -15   0   -8.35   13.81
   2 -15   0   -8.18   16.69
   0  16   0    0.18   24.71
   0 -16   0  120.78   24.87
  -1 -16   0   -3.94   10.06
   1  16   0    0.06   16.06
   1 -16   0   -9.47   12.43
  -1  16   0    0.03    9.68
   2 -16   0   26.06   14.39
  -2  16   0    0.21   17.61
  -1   0   1    1.12    1.20
  -1  -1   1 1221.30   24.68
  -1   1   1 1171.28   23.37
   0   1   1 2372.28   36.79
   0   1   1 2346.97   37.80
  -1  -2   1 5446.46   56.79
   1  -2  -1 5415.16   60.01
  -1  -2   1 5315.40   56.35
  -1   2   1 5357.50   49.00
   0  -2   1   98.12    7.54
   0   2   1   93.77    8.04
   0   2   1   96.06    8.43
   0   2   1   99.60    7.63
  -1  -3   1 6138.92   64.78
  -1   3   1 6108.36   68.67
   1   3  -1 6147.58   67.78
   1  -3  -1 6129.84   68.04
  -1  -3   1 5877.95   69.30
  -1  -3   1 6104.07   67.27
  -1   3   1 6152.43   51.31
   1   3  -1 6070.81   65.16
  -1   3   1 6118.06   65.56
   1  -3  -1 6101.76   61.58
   1  -3  -1 6183.19   67.86
  -1   3   1 6117.96   61.09
   0  -3  -1 1830.25   32.67
   0   3  -1 1900.49   33.60
   0   3  -1 1858.50   35.79
   0   3   1 1898.31   39.83
   0  -3   1 1801.38   35.89
   0   3   1 1839.88   37.25
   0  -3  -1 1894.94   37.44
   0   3  -1 1836.47   33.74
   0   3   1 1818.71   32.82
   0  -3   1 1884.26   34.63
   0   3   1 1857.27   37.29
   0  -3  -1 1913.42   37.59
   0  -3   1 1862.73   33.18
  -1   3  -1  650.74   23.85
  -1   3  -1  650.37   23.26
   2  -4  -1  236.84   20.01
   1  -4  -1    0.11    2.66
   1  -4  -1    0.43    2.06
   1   4  -1    1.72    2.20
   1  -4  -1   -1.56    1.48
  -1  -4   1    1.77    3.10
   1  -4  -1    2.18    2.02
  -1  -4   1   -0.24    2.14
   1  -4  -1    0.59    1.97
   1   4  -1   -1.80    3.02
   1   4  -1   -2.32    2.52
  -1   4   1   -1.09    2.47
  -1   4   1    3.57    2.89
  -1   4   1    0.52    0.99
  -1  -4   1    0.49    1.79
  -1   4   1    1.07    2.08
  -1  -4   1    1.35    2.85
   1   4  -1   -0.54    1.71
   0  -4  -1 9757.87   91.44
   0   4   1 9917.72   87.66
   0   4   1 9871.58   98.64
   0   4   1 9858.57   96.19
   0   4  -1 9841.03   91.88
   0   4  -1 9991.07   88.65
   0   4  -1 9883.32   83.84
   0  -4  -1 9817.65   96.00
   0   4  -1 9786.86   70.20
   0  -4   1 9773.96   89.95
   0   4   1 9757.33   90.23
   0   4  -1 9785.50   87.42
   0  -4   1 9738.06   87.77
   0  -4  -1 9991.49   87.56
   0  -4  -1 9957.06   85.92
   0  -4   1 9999.00   93.33
  -1   4  -1    6.57    3.23
  -1   4  -1    6.41    2.94
   1  -4   1    6.12    4.47
  -1   4  -1    4.58    2.04
   1  -4   1   10.82    4.87
  -1   4  -1    6.63    3.52
  -2   5   1   38.62    6.54
   2  -5  -1   29.27    7.36
  -2   5   1   45.57    7.17
   2  -5  -1   34.93    7.11
   2  -5  -1   39.45    7.90
   1   5  -1  207.24   14.97
   1  -5  -1  228.50   15.19
   1  -5  -1  225.93   11.49
  -1  -5   1  209.59   15.32
  -1   5   1  230.52   13.33
  -1  -5   1  239.70   16.73
   1   5  -1  224.57   14.28
  -1   5   1  222.07   14.74
  -1  -5   1  217.77   14.11
   1   5  -1  231.91   16.14
  -1  -5   1  205.20   15.11
  -1  -5   1  222.98   13.27
   1  -5  -1  229.63   15.87
   1   5  -1  217.90   15.28
  -1   5   1  210.71   15.62
   1  -5  -1  235.30   15.03
   1  -5  -1  216.32   15.77
  -1   5   1  204.43   14.76
   0  -5   1  608.54   24.91
   0  -5  -1  618.83   26.16
   0   5  -1  608.87   22.18
   0  -5   1  613.01   25.16
   0   5   1  631.23   20.03
   0   5  -1  604.58   25.07
   0   5   1  643.56   25.34
   0  -5  -1  563.92   24.55
   0   5   1  658.56   27.01
   0  -5   1  609.74   25.51
   0  -5  -1  605.37   19.03
   0   5   1  633.27   26.69
   0  -5  -1  615.81   24.78
   0  -5   1  607.10   20.25
   0   5  -1  643.29   20.90
   0  -5   1  602.53   22.25
   0   5  -1  639.34   25.27
   0   5  -1  608.86   24.47
   0   5   1  679.48   26.44
   0  -5  -1  647.55   25.16
  -1   5  -1   53.51    7.84
  -1   5  -1   44.81    7.17
  -1   5  -1   45.45    7.30
   1  -5   1   45.02    8.67
   1  -5   1   61.61   10.18
  -1  -5  -1   46.66    8.26
  -1   5  -1   45.33    6.79
   1  -5   1   41.50    8.52
   2  -6  -1  136.54   14.56
   2  -6  -1  154.73   16.80
   2  -6  -1  137.36   16.96
  -2   6   1  157.71   14.57
  -2   6   1  165.42   15.89
  -2   6   1  141.12   14.15
   2  -6  -1  162.22   16.68
  -1  -6   1  213.16   14.69
  -1   6   1  199.35   16.41
   1  -6  -1  198.30   12.30
   1  -6  -1  216.60   16.37
  -1   6   1  202.79   14.63
  -1  -6   1  207.49   16.77
  -1  -6   1  200.47   14.16
  -1   6   1  208.20   15.86
   1   6  -1  216.39   16.46
  -1  -6   1  224.29   17.09
   1  -6  -1  219.05   15.76
  -1   6   1  213.60   16.06
   1   6  -1  229.50   16.93
   1  -6  -1  217.91   16.80
   1   6  -1  207.85   14.63
  -1   6   1  218.12   11.06
   1  -6  -1  207.20   16.41
   1   6  -1  215.78   16.74
  -1  -6   1  230.54   17.84
   0  -6  -1    4.52    4.25
   0  -6   1    6.18    4.29
   0  -6   1    5.27    3.63
   0  -6  -1    8.54    4.92
   0  -6   1   -5.28    4.62
   0   6   1    5.76    4.29
   0   6  -1   10.64    5.02
   0   6   1    3.51    3.66
   0   6   1    3.44    4.90
   0  -6  -1    3.48    4.27
   0   6  -1    8.48    4.80
   0   6   1    8.06    4.41
   0  -6  -1   12.07    5.43
   0  -6  -1   10.33    5.78
   0  -6   1    0.50    3.08
   0   6   1    6.75    4.04
   0  -6   1    7.20    4.72
   0   6  -1    3.66    4.39
   0   6  -1   10.49    5.22
   0   6  -1    2.74    3.07
  -1   6  -1   42.84    8.30
  -1   6  -1   44.99    8.44
   1  -6   1   44.49    9.31
  -1   6  -1   35.07    6.19
   1  -6   1   30.14    7.37
  -1  -6  -1   41.29    8.01
  -1   6  -1   34.20    6.24
   1  -6   1   38.18    7.58
  -1   6  -1   37.87    7.34
   1  -6   1   40.27    8.63
   1   6   1   37.28    8.11
  -1  -6  -1   42.03    7.94
  -1  -6  -1   36.89    7.57
   2  -7  -1   48.19   10.08
   2  -7  -1   61.73    9.92
  -2   7   1   57.16   10.14
  -2   7   1   57.25   10.16
   2  -7  -1   54.52   10.90
  -2   7   1   55.10    9.73
   2  -7  -1   72.13   11.33
   2  -7  -1   53.30   10.14
  -1  -7   1 1629.43   49.12
  -1   7   1 1605.69   47.44
  -1   7   1 1609.27   45.55
  -1  -7   1 1589.06   42.40
  -1  -7   1 1642.98   43.45
   1   7  -1 1586.42   41.61
   1   7  -1 1639.44   48.48
   1  -7  -1 1481.93   42.74
  -1   7   1 1632.72   48.56
  -1   7   1 1587.89   48.67
   1  -7  -1 1668.66   49.60
   1  -7  -1 1622.63   46.63
  -1  -7   1 1667.33   49.69
  -1  -7   1 1740.20   52.18
   1  -7  -1 1579.19   38.27
   1   7  -1 1559.94   48.07
   1   7  -1 1661.19   49.13
   1  -7  -1 1597.11   48.31
  -1   7   1 1573.68   41.75
   0  -7   1  236.97   18.31
   0  -7   1  236.87   15.63
   0   7   1  252.58   18.45
   0  -7  -1  235.86   18.77
   0   7  -1  235.73   18.48
   0  -7   1  243.80   18.91
   0   7  -1  243.32   15.53
   0  -7  -1  228.98   18.13
   0   7   1  227.03   18.76
   0  -7  -1  220.94   16.64
   0   7  -1  227.59   18.24
   0  -7  -1  246.99   15.98
   0   7   1  241.65   19.19
   0  -7   1  243.84   15.68
   0  -7  -1  234.24   17.95
   0   7  -1  255.35   19.17
   0   7  -1  231.61   16.13
   0  -7   1  244.25   18.65
   0   7   1  237.39   15.51
   0   7   1  239.00   19.32
   1   7   1   71.74    9.19
   1   7   1   89.13   13.02
  -1  -7  -1   76.13   11.92
   1  -7   1   84.47   13.26
  -1   7  -1   84.36   11.43
  -1  -7  -1   77.98   11.17
  -1   7  -1   72.06    9.56
  -1   7  -1   82.52   11.42
  -1   7  -1   82.43   12.47
   1  -7   1   85.51   12.81
   1   7   1   77.64   12.31
  -1  -7  -1   75.78   10.52
   1  -7   1   76.08   11.49
   1  -7   1   63.11   10.39
  -1   7  -1   79.69    9.51
   2  -7   1   44.48   12.55
   2  -7   1   32.68   11.24
  -2   7  -1   41.81    8.52
  -2   8   1  293.37   23.13
   2  -8  -1  277.37   24.58
   2  -8  -1  293.89   23.80
   2  -8  -1  304.48   24.04
   2  -8  -1  269.06   19.20
  -2   8   1  334.90   25.22
   2  -8  -1  255.94   24.90
  -1  -8   1   -0.50    4.74
  -1  -8   1    6.76    3.67
   1   8  -1    1.33    4.46
   1   8  -1    2.92    3.79
  -1  -8   1    6.74    5.56
  -1   8   1    1.26    4.06
  -1  -8   1    8.31    5.59
   1  -8  -1   14.95    6.34
   1  -8  -1    9.48    6.35
  -1   8   1    8.49    4.76
   1   8  -1    6.10    3.48
   1  -8  -1   16.43    6.76
   1  -8  -1   10.33    4.85
  -1   8   1   10.20    5.62
   1  -8  -1    6.06    4.39
  -1   8   1   -0.31    5.17
   1   8  -1    2.82    4.63
  -1   8   1    0.34    4.52
   0  -8   1 3149.13   62.17
   0   8  -1 3263.86   73.09
   0  -8  -1 3293.39   72.53
   0  -8  -1 3185.46   70.97
   0  -8   1 3270.39   60.21
   0  -8  -1 3280.15   62.42
   0   8   1 3181.35   61.62
   0  -8  -1 3184.37   64.53
   0  -8  -1 3045.37   72.71
   0   8  -1 3188.50   60.47
   0   8   1 3133.71   75.24
   0  -8   1 3199.07   71.07
   0   8   1 3156.12   74.33
   0  -8   1 3350.03   75.66
   0   8  -1 3271.16   66.23
   0  -8   1 3160.43   72.35
   0   8   1 3249.46   72.67
   0   8  -1 3126.93   71.34
   0   8  -1 3193.89   70.69
   1  -8   1   29.97   10.86
   1   8   1   29.38    7.40
  -1   8  -1   23.18    5.98
   1   8   1   22.42    8.14
  -1  -8  -1   16.10    6.52
   1  -8   1   15.49    5.80
  -1  -8  -1   24.16    7.57
  -1   8  -1   14.02    6.36
  -1   8  -1   23.66    7.60
  -1   8  -1   16.89    5.22
  -1   8  -1   29.31    8.19
  -1  -8  -1   15.82    5.89
   1  -8   1   14.74    6.62
   1   8   1    0.19    6.90
   1  -8   1   26.46    8.68
  -2   8  -1   45.93    9.45
   2  -8   1   30.04   10.20
  -2   8  -1   45.17    8.60
   2  -8   1   37.48   14.41
   2  -8   1   43.55   13.18
  -2   8  -1   47.99    9.12
  -2   8  -1   42.30    7.94
   2  -9  -1   10.69    8.69
  -2   9   1    0.09    7.18
  -2   9   1    5.61    5.05
   2  -9  -1   -4.07    6.01
   2  -9  -1    3.03    6.85
  -2   9   1    8.82    6.55
  -1  -9   1  268.03   21.04
   1   9  -1  260.45   22.96
   1  -9  -1  254.74   22.59
   1   9  -1  268.26   22.56
  -1  -9   1  252.39   22.77
   1  -9  -1  273.45   19.67
  -1  -9   1  258.28   22.38
   1   9  -1  254.22   17.89
   1  -9  -1  251.69   21.82
  -1   9   1  271.73   21.25
  -1  -9   1  229.06   21.19
   1  -9  -1  253.31   18.27
   1  -9  -1  253.07   22.50
   1   9  -1  248.17   21.76
  -1   9   1  259.14   19.65
  -1   9   1  275.86   23.00
  -1   9   1  240.64   21.70
   0  -9   1   42.07    9.78
   0  -9  -1   42.01    8.74
   0   9   1   43.92    9.81
   0   9   1   44.94    8.33
   0   9   1   51.78   11.21
   0  -9  -1   43.27    9.97
   0   9  -1   43.50    9.35
   0  -9   1   37.63    7.60
   0   9   1   56.53   11.04
   0  -9  -1   40.91   10.34
   0   9   1   42.25    9.66
   0  -9  -1   45.46   11.04
   0  -9  -1   48.25    9.22
   0   9  -1   56.85    9.60
   0  -9   1   49.24   10.49
   0   9  -1   59.69   11.22
   0  -9   1   41.19   10.39
   0   9  -1   44.33    9.96
   0   9  -1   49.57    9.52
  -1  -9  -1  209.23   21.61
   1  -9   1  200.54   19.89
  -1  -9  -1  200.13   20.86
  -1   9  -1  216.46   20.83
  -1   9  -1  246.85   22.85
   1  -9   1  217.10   24.33
  -1  -9  -1  212.81   19.39
   1   9   1  220.01   19.38
   1  -9   1  230.54   22.77
   1  -9   1  221.87   22.78
  -1   9  -1  238.16   22.65
  -1   9  -1  205.09   18.13
   1   9   1  200.45   21.87
   2  -9   1   42.52   15.61
  -2   9  -1   40.62    8.77
  -2   9  -1   45.31    9.79
   2  -9   1   33.60   12.27
  -2   9  -1   47.09   10.42
   2  -9   1   33.92   10.81
  -2   9  -1   38.78    8.89
  -3  10   1   12.97    6.30
  -3  10   1   13.75    6.49
   2 -10  -1   18.44    8.93
   2 -10  -1   23.98    8.11
  -2  10   1   22.54    8.43
  -2  10   1   23.45    8.55
  -2  10   1    1.53   11.69
   2 -10  -1    5.48    7.17
   1  10  -1  131.23   16.93
  -1 -10   1  141.80   18.66
  -1 -10   1  133.61   16.58
   1  10  -1  141.71   18.72
   1  10  -1  124.94   15.90
  -1 -10   1  123.38   16.74
  -1 -10   1  125.74   17.25
   0  10   1    0.25   12.95
   0  10  -1   25.28    7.53
   0  10   1   42.70    9.15
   0 -10   1   46.63   10.70
   0 -10   1   37.65   11.75
   0 -10  -1   52.64   11.90
   0 -10  -1   40.43   11.32
   0  10  -1   39.45    8.77
   0 -10   1   50.96   12.09
   0  10  -1   42.24    9.61
   0 -10  -1   45.37   10.76
   0  10  -1   51.22   10.92
   0 -10   1   48.24    9.57
   0  10   1   47.10   12.23
  -1  10  -1   19.93    8.10
   1 -10   1   24.04   10.12
   1 -10   1   25.67    9.79
  -1  10  -1   28.15    9.38
  -1  10  -1   37.13    9.79
  -1 -10  -1   26.75    8.86
  -1 -10  -1   26.95    9.79
   1 -10   1   11.76    5.72
  -1  10  -1   14.51    8.20
   1 -10   1   22.18   10.30
   1  10   1    3.09   11.96
  -2  10  -1    5.47    4.39
  -2  10  -1   12.07    5.97
   2 -10   1    8.71    8.07
  -2  10  -1   10.30    6.42
   2 -10   1    5.04   10.28
  -2  10  -1   12.06    6.08
   2 -10   1    8.56   11.07
   3 -11  -1   -3.88    8.03
  -3  11   1    6.37    5.75
  -3  11   1   -2.64    5.98
   2 -11  -1   45.59   13.84
  -2  11   1   28.72   11.23
  -2  11   1   18.78   11.94
  -2  11   1    0.21   10.18
   2 -11  -1   26.00   11.86
   2 -11  -1   30.19   10.16
  -1  11   1   58.42   15.44
   1 -11  -1   40.81    9.52
  -1  11   1   51.80   12.83
   1  11  -1   39.00   10.26
  -1 -11   1   47.34   11.90
  -1  11   1   31.84   17.80
   1 -11  -1   38.00   13.63
   1  11  -1   38.07   11.09
   1 -11  -1   43.62   12.43
  -1 -11   1   30.87    9.21
  -1 -11   1   41.79   11.87
   1  11  -1   35.79   10.58
   0  11  -1    4.94    7.60
   0 -11   1    2.55    8.05
   0  11   1    7.96    5.90
   0  11  -1   16.97    7.80
   0  11   1    7.90    9.68
   0  11   1   20.32    8.96
   0  11  -1    9.67    6.21
   0 -11  -1   12.45    7.96
   0 -11   1   22.01    9.61
   0 -11  -1   19.77   10.13
   0 -11  -1    9.38    7.25
   0 -11   1    2.63    6.76
  -1  11  -1    7.37    7.11
  -1 -11  -1   18.16    9.46
   1 -11   1   -2.62    7.73
  -1 -11  -1    3.72    5.90
  -1  11  -1   13.99    8.52
  -1  11  -1    3.62    6.85
   1 -11   1   15.63   11.89
   1  11   1    0.01    8.71
   1 -11   1  -11.60    8.01
   2 -11   1    8.94    9.04
  -2  11  -1   28.87    8.33
  -2  11  -1   24.02    8.68
   2 -11   1   29.10   11.70
  -2  11  -1   31.10   11.67
   2 -11   1    0.48   17.11
  -3  12   1    2.42    6.31
   3 -12  -1    4.63    8.32
  -3  12   1   -2.30    5.18
   2 -12  -1   54.62   15.44
  -2  12   1    0.43   12.37
   2 -12  -1   49.81   15.46
  -2  12   1   29.86   11.15
  -2  12   1   39.63   12.49
   2 -12  -1   36.32   11.34
  -1 -12   1   -3.43    5.68
  -1 -12   1   -8.62    8.23
  -1 -12   1    1.72    6.76
   1 -12  -1    3.80    8.15
  -1  12   1   -1.33    7.61
  -1  12   1   -0.03    7.75
  -1  12   1    6.76    7.09
   1  12  -1   16.05    9.83
   1 -12  -1   20.42   10.84
   1 -12  -1   -4.66    6.81
   1  12  -1    6.62    6.67
   1  12  -1    4.96    6.30
   0 -12   1  107.89   18.56
   0  12   1   98.93   18.30
   0 -12  -1  100.23   17.45
   0  12  -1  135.47   19.16
   0 -12   1  111.75   19.90
   0 -12  -1  110.34   18.54
   0  12  -1  120.47   18.63
   0  12   1   93.92   16.88
   0 -12   1  114.78   18.33
   0  12  -1  128.45   19.59
   0 -12  -1  104.98   18.08
  -1 -12  -1  -15.84   10.44
  -1  12  -1    3.40    7.34
  -1  12  -1   -0.01    6.90
  -1  12  -1    2.60    8.18
  -1 -12  -1  -18.41   12.37
   1 -12   1    1.29    7.72
   1 -12   1    5.27    9.28
   1 -12   1   -3.49   11.25
   1  12   1   -0.28    7.63
   2 -12   1   39.30   18.27
  -2  12  -1   16.72   11.66
  -2  12  -1   36.44   12.79
  -2  12  -1   39.16    9.95
   2 -12   1   50.37   16.31
   2 -12   1    9.62    8.89
  -3  13   1   32.48    9.86
  -3  13   1   29.46    9.53
   3 -13  -1    8.00    9.66
  -2  13   1   14.69    9.05
   2 -13  -1    4.33    9.24
  -2  13   1   -5.74    9.86
   2 -13  -1  -10.18    8.43
  -2  13   1   -0.06    6.44
   2 -13  -1  -18.51   11.85
  -1  13   1   39.95   13.57
  -1 -13   1    8.87    8.18
   1 -13  -1   27.81   11.74
   1 -13  -1   19.33    8.79
   1  13  -1   38.20   13.01
  -1 -13   1   26.86   12.74
   1  13  -1    0.07    7.70
   1 -13  -1   22.51   10.53
  -1  13   1    0.46   11.45
  -1 -13   1    6.46    7.39
   1  13  -1   27.61   11.05
  -1  13   1   25.38    9.79
   0  13  -1    8.50    7.22
   0  13  -1   12.16    7.48
   0 -13   1   -6.04    8.91
   0 -13  -1   13.50    7.29
   0  13   1   11.87   12.27
   0  13   1   -0.01    9.63
   0  13   1   -6.05    7.05
   0 -13  -1    2.23    7.01
   0 -13   1   -4.31    6.60
   0  13  -1   -0.04    8.91
   0 -13  -1   14.18    9.35
   0 -13   1   -6.89   11.14
   1 -13   1   74.56   19.77
  -1 -13  -1   49.10   14.75
  -1 -13  -1   41.64   13.62
   1 -13   1   47.12   14.96
  -1  13  -1    1.34   16.00
   1  13   1   -0.56   14.36
   1 -13   1   58.90   13.05
  -1  13  -1   49.93   13.01
  -1  13  -1   54.33   14.79
   2 -13   1   -0.41   11.15
  -2  13  -1   15.15   10.69
   2 -13   1   22.20   16.05
  -2  13  -1    4.21    7.14
   2 -13   1   18.99   16.88
  -2  13  -1   -0.41   11.07
  -3  14   1   34.64   11.16
  -3  14   1   33.21   10.85
   3 -14  -1   55.73   18.94
  -2  14   1   20.00   10.32
  -2  14   1   17.97   10.79
  -2  14   1   -0.18    8.96
   2 -14  -1   -4.73    9.77
   2 -14  -1   12.79   10.21
   2 -14  -1    9.37    9.88
  -1  14   1   88.76   17.51
   1  14  -1  108.09   18.88
  -1  14   1    0.19   19.31
   1 -14  -1   97.13   19.17
   1 -14  -1   84.87   19.28
  -1 -14   1   96.99   21.43
  -1 -14   1  102.40   21.34
   1 -14  -1   77.24   19.66
  -1  14   1   85.09   19.36
   1  14  -1    0.14   17.96
   0 -14   1   26.51   14.20
   0 -14  -1   11.69   10.40
   0 -14  -1   -9.04   10.33
   0  14  -1   15.33    7.85
   0 -14   1   31.17   11.85
   0  14   1    0.16    8.37
   0 -14  -1   12.23   10.48
   0 -14   1   34.30   13.08
   0  14  -1   27.83   12.83
   0  14   1   14.68    6.94
   0  14   1    4.98    7.48
   0  14  -1    0.01   13.70
   1 -14   1    8.80   11.15
  -1  14  -1   18.18   10.53
  -1 -14  -1   10.66    9.39
  -1  14  -1    0.90    8.69
   1 -14   1    2.60   11.61
  -1 -14  -1   -7.12    9.49
  -1  14  -1    3.32   10.15
   1 -14   1    2.66    9.60
   1  14   1   -0.34    7.91
  -2  14  -1   -6.96    6.08
   2 -14   1   11.57   11.41
  -2  14  -1   -0.01   10.00
  -2  14  -1   -1.84    8.16
   2 -14   1   19.74   16.26
   2 -14   1    1.35   16.87
   2 -15  -1   -3.60   14.61
  -2  15   1   28.20   13.61
   2 -15  -1    2.06   11.61
  -2  15   1    0.05    9.96
   2 -15  -1   10.38   10.06
  -2  15   1    9.99    9.08
  -1 -15   1   10.36    9.65
   1 -15  -1   14.67   13.24
  -1  15   1   10.52   11.48
   1 -15  -1   -7.86   10.45
   1  15  -1   -0.75    8.70
   1 -15  -1   -4.68    9.51
  -1  15   1   -0.08   10.25
   1  15  -1   17.94   12.05
  -1 -15   1  -16.77   13.47
  -1  15   1   18.26   10.91
   0 -15   1  -11.64   12.50
   0  15  -1   11.04   12.08
   0  15  -1    5.72   11.40
   0  15   1   -3.05    8.43
   0 -15   1   19.22   15.55
   0 -15  -1   19.89   13.04
   0  15  -1    0.05   11.44
   0 -15   1    3.00   10.47
   0 -15  -1   19.15   11.97
   0  15   1   -0.12   10.45
   0  15   1    4.30   11.51
   0 -15  -1    0.35    9.93
   1 -15   1    5.81   11.64
  -1  15  -1    4.31   10.52
   1 -15   1   15.20   11.57
  -1  15  -1   38.05   14.23
  -1  15  -1   -0.01    9.44
   1 -15   1   -0.01   13.06
   2 -15   1   12.50   12.55
  -2  15  -1    7.03    7.94
   2 -15   1   32.15   15.24
   2 -15   1   23.54   22.36
  -2  15  -1    0.00    6.30
  -2  15  -1   11.34    9.57
   2 -16  -1   -4.66   12.44
   2 -16  -1   -8.86   15.58
  -2  16   1   -0.01    9.17
  -1 -16   1  -19.53   14.04
   1  16  -1   -0.06    8.36
  -1  16   1    2.46   12.40
   1 -16  -1    3.85    8.93
   1  16  -1  -10.18   10.74
   1 -16  -1    1.57   14.33
  -1  16   1   20.99   14.42
   0 -16   1  -15.61   14.07
   0  16   1   -3.19    9.95
   0 -16  -1  -14.89   15.39
   0 -16   1   30.92   14.60
   0 -16  -1   17.87   12.85
   0  16  -1   19.82   12.40
   0  16  -1    0.06   12.82
  -1  16  -1   -0.85    9.13
   1 -16   1   15.78   16.84
  -1  16  -1   -1.64    8.93
   0  17  -1  -31.68   18.05
  -1   0   2 1063.50   30.14
   1   0  -2 1089.58   29.00
   1   0  -2 1115.75   29.98
   1   0  -2 1085.50   27.87
  -1   0   2 1125.22   28.88
   1   0  -2 1041.54   31.59
   0   0   2 1524.25   30.00
   0   0   2 1513.82   38.49
   0   0  -2 1586.00   36.16
   0   0  -2 1614.19   35.68
   0   0  -2 1573.52   38.09
   0   0  -2 1625.02   37.13
   0   0   2 1521.00   42.93
   2  -1  -2  137.24   12.85
   2  -1  -2  148.36   13.60
   2  -1  -2  140.49   14.32
   1   1  -2 2687.37   43.72
  -1   1   2 2804.96   42.48
   1   1  -2 2722.34   47.50
   1   1  -2 2712.57   47.41
   1  -1  -2 2807.18   50.69
  -1   1   2 2609.86   46.98
   1   1  -2 2723.12   49.74
  -1  -1   2 2736.23   41.89
   1  -1  -2 2773.05   40.85
  -1  -1   2 2773.23   48.24
  -1  -1   2 2764.81   47.44
   1   1  -2 2637.67   40.02
   1  -1  -2 2761.44   49.44
   1  -1  -2 2766.38   46.88
  -1   1   2 2723.40   40.83
   0  -1  -2  364.95   19.09
   0  -1   2  401.95   17.49
   0  -1  -2  408.85   18.79
   0   1  -2  365.50   17.69
   0   1  -2  424.66   19.34
   0  -1   2  384.14   21.59
   0   1   2  374.25   22.25
   0   1   2  376.04   16.85
   0   1  -2  388.99   18.90
   0   1   2  394.14   20.70
   0  -1  -2  377.20   17.12
   0   1  -2  394.26   16.21
   0  -1  -2  408.66   19.62
   0   1  -2  410.86   17.22
   0  -1   2  376.96   18.00
   2  -2  -2   90.45   11.50
   2  -2  -2   70.78    9.25
   2  -2  -2   91.78    9.56
   1  -2  -2 1289.97   31.71
   1   2  -2 1302.11   32.76
  -1   2   2 1280.36   26.31
   1   2  -2 1315.14   34.93
   1  -2  -2 1307.49   32.09
  -1   2   2 1265.07   32.39
  -1  -2   2 1291.75   32.59
  -1  -2   2 1293.34   32.21
  -1  -2   2 1268.07   34.91
   1  -2  -2 1281.42   34.63
   1   2  -2 1303.82   31.72
  -1   2   2 1302.04   32.26
   1   2  -2 1289.48   34.05
   1  -2  -2 1227.46   35.44
   0  -2   2   51.05    6.42
   0  -2  -2   54.07    7.26
   0   2   2   58.56    9.07
   0  -2  -2   62.97    7.98
   0   2  -2   56.93    7.28
   0   2  -2   59.97    8.40
   0   2  -2   70.23    8.04
   0  -2  -2   60.42    7.34
   0   2   2   55.70    9.78
   0  -2   2   62.94    7.89
   0   2  -2   63.38    7.32
   0   2  -2   51.98    4.94
   0   2   2   57.77    7.54
   0  -2  -2   54.90    6.46
   0  -2  -2   57.20    8.26
   0  -2   2   62.17    9.56
  -1   2  -2  123.04   12.11
   2  -3  -2    4.63    2.84
   2  -3  -2   -0.35    2.45
   2   3  -2    4.12    3.04
   2  -3  -2    2.71    2.55
  -2   3   2    5.59    2.79
   2   3  -2    4.71    3.30
   2  -3  -2    1.42    3.23
   2  -3  -2    5.85    3.23
   1  -3  -2   16.85    4.31
   1  -3  -2   16.50    4.49
   1   3  -2   17.60    4.45
  -1   3   2   17.82    3.63
  -1  -3   2   17.15    4.34
  -1   3   2   17.19    3.03
  -1   3   2   24.73    5.31
  -1   3   2   11.39    3.77
   1   3  -2   26.24    5.65
   1   3  -2   19.43    4.91
   1  -3  -2   15.44    4.24
  -1  -3   2   12.50    4.86
   1   3  -2   16.57    5.89
  -1  -3   2   16.96    4.19
  -1  -3   2   14.41    3.17
   1  -3  -2   16.15    3.73
  -1  -3   2    9.96    5.03
   1  -3  -2   11.79    5.04
   0  -3  -2  491.89   22.11
   0   3   2  480.50   25.81
   0  -3  -2  477.22   21.50
   0   3  -2  496.13   21.33
   0  -3   2  438.47   20.01
   0  -3  -2  474.23   21.23
   0   3  -2  483.67   20.06
   0   3  -2  497.67   21.50
   0  -3   2  473.17   24.16
   0   3   2  488.22   18.38
   0  -3   2  481.60   19.11
   0   3  -2  474.58   22.47
   0   3  -2  470.25   17.87
   0  -3   2  470.35   22.61
   0   3   2  480.57   22.44
   0   3   2  483.29   26.30
   0  -3  -2  481.27   23.88
  -1   3  -2   16.10    3.97
  -1   3  -2   12.74    3.98
  -1   3  -2   20.55    5.55
   2  -4  -2   20.59    6.00
   2  -4  -2   22.91    5.56
  -2   4   2   31.41    5.96
  -2   4   2   17.86    5.49
   2  -4  -2   18.03    5.61
   2  -4  -2   25.09    5.11
   2   4  -2   19.03    4.93
   2   4  -2   27.95    6.67
  -1  -4   2  476.40   20.04
   1   4  -2  467.35   20.60
   1   4  -2  499.90   20.57
  -1   4   2  519.82   21.80
  -1   4   2  513.43   20.01
   1  -4  -2  534.16   24.72
   1  -4  -2  497.81   21.56
   1   4  -2  535.82   21.33
   1  -4  -2  486.34   24.69
  -1  -4   2  509.73   24.26
   1   4  -2  478.96   23.63
  -1  -4   2  497.68   20.23
  -1  -4   2  486.63   21.19
   1  -4  -2  505.16   21.38
   1  -4  -2  502.21   20.10
  -1   4   2  517.97   20.68
   1   4  -2  487.61   23.53
  -1  -4   2  512.75   24.25
   1  -4  -2  530.04   20.30
  -1   4   2  494.75   23.98
   1   4  -2  478.87   21.55
   0  -4  -2   95.13   10.78
   0   4   2  100.77    9.64
   0  -4  -2   96.61    9.71
   0   4  -2   95.11    8.87
   0   4  -2   93.39    9.56
   0   4  -2   94.37   10.72
   0   4  -2   93.44    8.88
   0  -4  -2   89.54    9.43
   0  -4   2   81.55    9.01
   0   4   2   91.36   11.98
   0  -4   2   84.08   10.17
   0   4   2   93.96   12.40
   0   4  -2   93.85   10.78
   0  -4   2   78.73   11.63
   0   4   2   96.19   11.08
   0   4  -2   99.78    9.75
   0  -4   2   93.68    9.76
   0  -4  -2   96.01   11.45
   0  -4  -2   82.94    8.51
   1  -4   2   26.55    6.76
  -1   4  -2   33.24    5.82
  -1   4  -2   27.88    5.74
   1  -4   2   28.45    7.36
  -1   4  -2   41.94    7.71
  -1   4  -2   31.81    6.02
   2   5  -2   75.80   10.85
   2   5  -2   40.52    6.15
   2   5  -2   64.87   10.39
   2  -5  -2   62.70   10.71
   2   5  -2   69.23    9.84
  -2   5   2   80.42   10.65
   2  -5  -2   74.14   10.21
   2  -5  -2   73.04   11.05
  -2  -5   2   43.25    6.88
  -2   5   2   82.42   13.26
   2  -5  -2   78.34   11.67
  -2   5   2   56.68    8.53
   2  -5  -2   61.63   11.03
  -1  -5   2 1020.68   33.14
   1  -5  -2 1110.89   38.04
   1   5  -2 1063.79   33.51
   1  -5  -2 1105.64   33.60
  -1   5   2 1015.07   33.11
  -1   5   2 1074.80   32.39
   1   5  -2 1031.28   35.33
  -1  -5   2 1071.84   30.37
   1   5  -2 1064.52   33.83
  -1   5   2 1097.75   35.12
  -1   5   2 1093.91   30.11
   1   5  -2 1072.83   30.23
   1  -5  -2 1093.72   38.39
  -1  -5   2 1114.25   35.19
   1  -5  -2 1076.72   32.53
   1   5  -2 1082.43   33.67
  -1  -5   2 1101.08   38.71
  -1  -5   2 1083.58   36.52
   1   5  -2 1088.40   37.24
   1  -5  -2 1080.11   31.93
  -1   5   2 1061.81   37.73
   1  -5  -2 1106.20   30.14
  -1   5   2 1065.05   39.63
   0  -5  -2   49.30   11.32
   0   5   2   40.04    8.39
   0  -5  -2   46.17    9.86
   0   5   2   44.20   12.09
   0  -5   2   43.16    8.47
   0  -5  -2   35.74    7.64
   0  -5  -2   38.89    8.19
   0   5  -2   36.44    7.44
   0   5  -2   39.75    6.88
   0   5   2   33.47   10.86
   0  -5   2   40.60    8.09
   0   5   2   43.17    7.46
   0   5  -2   41.59    6.76
   0  -5  -2   43.46    9.29
   0   5  -2   44.02    6.53
   0  -5  -2   36.64    7.54
   0  -5   2   48.22   12.38
   0   5  -2   41.36    6.97
   0   5  -2   49.58    9.99
   0  -5   2   46.54    9.79
   0   5   2   41.10   10.34
  -1   5  -2  511.15   23.93
   1  -5   2  492.29   28.41
   1  -5   2  455.35   29.56
  -1   5  -2  520.95   26.97
  -1   5  -2  511.48   25.61
  -1   5  -2  522.56   22.67
   2   6  -2  115.97   13.34
  -2   6   2  122.28   13.84
   2   6  -2  101.99   10.96
   2  -6  -2  137.99   16.07
  -2  -6   2   94.86   10.67
   2   6  -2  125.24   12.49
   2  -6  -2  143.82   11.86
   2  -6  -2  128.95   13.31
   2  -6  -2  123.37   16.26
   2   6  -2  129.50   14.00
  -2   6   2  139.79   14.11
  -2   6   2  150.13   17.01
   2  -6  -2  143.71   16.09
  -1  -6   2 2935.29   60.53
   1  -6  -2 2927.68   66.05
   1   6  -2 2956.38   60.58
   1  -6  -2 3043.97   60.94
   1   6  -2 2828.24   59.58
  -1   6   2 2827.98   60.64
  -1   6   2 2805.29   57.75
   1  -6  -2 2959.86   53.20
   1   6  -2 3063.17   66.77
   1   6  -2 2835.69   49.24
   1  -6  -2 2761.14   50.80
   1  -6  -2 2951.92   58.30
  -1   6   2 2935.30   50.02
  -1   6   2 3048.82   61.69
  -1   6   2 3025.04   69.67
  -1  -6   2 2842.65   61.28
   1   6  -2 2972.09   62.51
  -1  -6   2 2948.95   66.73
  -1   6   2 2931.08   66.88
   1  -6  -2 2903.82   65.09
  -1  -6   2 2828.39   61.34
   0  -6  -2  151.88   16.35
   0   6   2  127.50   13.72
   0   6  -2  128.48   14.17
   0   6  -2   84.80   11.30
   0  -6   2  116.80   12.47
   0   6   2  180.34   19.79
   0   6  -2  111.13   12.12
   0  -6  -2  124.26   14.57
   0  -6   2  140.70   14.57
   0  -6   2  111.18   12.68
   0  -6   2  126.89   11.44
  -1  -6  -2  176.29   18.36
  -1   6  -2  178.25   15.84
  -1   6  -2  179.97   17.72
  -1   6  -2  165.17   12.84
   1  -6   2  177.19   20.06
   1  -6   2  177.09   18.87
   1  -6   2  147.86   17.51
  -1   6  -2  157.02   13.74
  -1   6  -2  165.97   15.59
  -1  -6  -2  181.72   18.08
   3  -7  -2   26.70    9.82
  -3   7   2   52.08   12.27
   3  -7  -2   36.50    9.83
  -3   7   2   37.25    9.07
   2  -7  -2   70.71   11.44
   2  -7  -2   85.27   13.77
  -2   7   2   93.39   14.62
   2   7  -2   63.90    9.40
   2   7  -2   55.32    9.57
  -2   7   2   71.99   10.98
  -2  -7   2   70.53   11.21
   2   7  -2   64.59   10.43
  -2   7   2   72.36   11.62
   2  -7  -2   69.08   12.49
  -2  -7   2   53.01    8.94
   2  -7  -2   70.93   11.98
  -1   7   2  873.84   39.03
  -1  -7   2  917.72   36.97
   1  -7  -2  875.73   38.88
   1  -7  -2  879.41   35.50
   1   7  -2  919.74   36.71
   1   7  -2  848.93   35.70
  -1   7   2  862.97   35.84
  -1   7   2  903.67   35.23
  -1  -7   2  840.45   36.58
   1  -7  -2  816.03   33.30
  -1  -7   2  925.33   40.11
  -1  -7   2  845.88   34.69
   1   7  -2  882.51   35.84
  -1   7   2  911.24   39.55
   1  -7  -2  857.91   36.85
   1   7  -2  926.20   39.10
   0  -7  -2  157.98   17.84
   0  -7  -2  151.80   16.64
   0  -7  -2  151.07   17.99
   0   7   2  166.83   16.50
   0   7   2  164.04   15.52
   0   7  -2  148.97   16.56
   0   7  -2  167.94   16.13
   0   7  -2  159.57   17.19
   0  -7   2  156.78   16.90
   0   7   2  154.15   19.39
   0  -7  -2  156.76   17.91
   0  -7   2  142.95   18.16
   0  -7   2  139.36   16.00
   0  -7   2  163.99   16.52
   0   7  -2  166.77   16.43
   0   7   2  175.42   18.96
   1  -7   2  140.77   18.27
  -1  -7  -2  109.46   15.09
   1   7   2  105.99   14.41
  -1   7  -2  143.47   14.53
  -1   7  -2  148.84   16.12
  -1   7  -2  154.31   17.28
  -1  -7  -2  115.01   14.19
   1  -7   2  112.44   16.49
  -1   7  -2  128.25   13.95
   1  -7   2  158.87   21.02
  -1  -7  -2  139.36   16.84
   3  -8  -2   63.74   13.85
  -3   8   2   74.14   13.37
  -3   8   2   55.29   10.46
   3  -8  -2   59.64   15.24
   2   8  -2   -0.49    3.58
  -2  -8   2    4.77    5.09
   2  -8  -2   -3.46    4.64
  -2   8   2    6.30    7.53
   2  -8  -2    4.05    6.00
   2  -8  -2   12.11    7.61
  -2  -8   2    6.20    4.55
  -2   8   2    3.47    5.38
   2   8  -2    4.41    4.69
  -2   8   2    0.47    5.81
   2   8  -2   -0.81    4.08
   2  -8  -2    2.98    5.52
  -1   8   2   95.45   14.67
   1   8  -2  100.34   14.67
   1   8  -2  116.35   14.61
   1  -8  -2  102.06   14.76
  -1   8   2  111.64   14.49
  -1   8   2   88.10   12.73
  -1  -8   2  120.02   15.92
   1  -8  -2  113.07   13.70
  -1  -8   2   94.21   13.56
  -1  -8   2  103.07   15.94
   1   8  -2  100.34   12.89
   1   8  -2   93.00   14.73
   1  -8  -2  106.19   14.19
   1  -8  -2  106.87   13.67
  -1  -8   2   89.18   13.96
  -1   8   2  115.52   15.77
   0  -8  -2  205.42   19.10
   0  -8  -2  250.77   22.88
   0   8   2  258.73   21.24
   0   8  -2  240.71   20.33
   0   8  -2  246.85   21.13
   0  -8   2  270.65   22.68
   0   8  -2  247.66   22.38
   0   8   2  256.25   25.13
   0  -8  -2  259.73   21.49
   0  -8   2  245.57   23.07
   0  -8   2  259.51   22.68
   0  -8   2  284.78   21.71
   0   8  -2  251.98   20.22
   0  -8  -2  256.18   22.11
   0   8   2  243.93   22.31
   1   8   2    3.88    6.90
  -1  -8  -2   19.65    7.76
  -1  -8  -2   15.15    6.23
  -1   8  -2   18.62    7.32
  -1   8  -2   30.97    9.28
   1  -8   2   18.51    9.73
   1  -8   2    6.16    5.76
  -1   8  -2   20.72    6.66
  -1   8  -2   21.39    7.35
  -1  -8  -2   10.27    4.04
   1  -8   2   32.40   12.00
   2  -9  -2    3.72    8.33
  -2   9   2    3.23    6.97
   2  -9  -2    9.07    8.43
   2   9  -2    4.89    5.22
  -2   9   2   19.54    7.84
   2   9  -2   12.96    7.58
  -2  -9   2    7.23    4.84
   2  -9  -2    9.16    6.62
  -2  -9   2   -5.57    5.99
  -2   9   2    0.89    5.35
   2   9  -2   14.06    6.31
   2  -9  -2    7.04    6.82
  -2   9   2    0.35    6.80
   1  -9  -2    9.81    6.72
  -1   9   2   -2.66    7.41
   1  -9  -2    1.17    5.34
   1  -9  -2   -8.99    6.77
   1   9  -2    2.27    6.19
   1   9  -2   10.26    7.14
  -1   9   2    0.08    5.48
   1   9  -2    6.98    5.96
  -1  -9   2    8.31    6.66
  -1  -9   2   -3.64    6.92
  -1  -9   2    6.68    4.10
  -1   9   2   -3.21    5.42
  -1  -9   2    3.16    5.48
  -1   9   2    2.92    4.43
   1   9  -2    7.16    4.60
   1  -9  -2    7.44    6.19
   0   9  -2   23.53    7.96
   0  -9   2   21.19    7.97
   0   9  -2   21.88    7.37
   0   9  -2   13.27    7.70
   0   9   2   15.60    8.25
   0  -9   2   11.33    5.77
   0  -9  -2   32.21    9.80
   0  -9   2   26.03   10.02
   0   9  -2    8.68    6.29
   0  -9   2   13.45    6.01
   0   9   2   18.69    7.33
  -1  -9  -2   29.51   10.47
  -1   9  -2   17.03    7.45
  -1  -9  -2   27.40    8.56
  -1   9  -2   18.75    8.45
   1  -9   2   34.34   11.50
   1  -9   2   19.27   11.62
  -1   9  -2   20.74    8.89
  -1   9  -2   20.87    6.95
   1   9   2    0.68    9.01
  -1  -9  -2   15.54    7.82
   1  -9   2   23.23   10.56
   2  -9   2   -8.43    8.35
  -2   9  -2   -0.04    3.99
  -2   9  -2    2.80    7.65
   2  -9   2   -9.99   10.19
  -3  10   2  149.65   20.14
   3 -10  -2  128.60   22.27
  -3  10   2  161.69   22.13
   3 -10  -2  141.24   22.39
   2 -10  -2   29.55   10.32
  -2  10   2   32.00   11.76
   2 -10  -2    9.56    7.20
   2  10  -2   14.00    6.63
  -2 -10   2    6.71    6.61
   2  10  -2   14.00    6.89
  -2  10   2   17.93    9.70
  -2  10   2   21.42    9.53
  -2  10   2    1.27    7.83
   2  10  -2   10.55    5.41
   2 -10  -2    7.68    6.89
   2 -10  -2    2.41    6.94
  -1 -10   2  696.34   40.72
   1 -10  -2  685.48   40.30
   1  10  -2  692.79   38.98
   1  10  -2  690.82   39.41
  -1  10   2  690.92   38.64
   1 -10  -2  706.53   40.59
   1  10  -2  658.04   39.28
  -1  10   2  700.65   41.08
  -1 -10   2  741.89   42.27
  -1 -10   2  724.19   42.20
   1 -10  -2  692.80   37.72
  -1 -10   2  666.64   34.81
   1  10  -2  711.84   35.35
  -1  10   2  682.20   41.33
   1 -10  -2  685.23   36.76
   0 -10  -2   20.19   12.96
   0  10  -2   50.66   14.04
   0 -10   2   21.41   10.74
   0  10  -2   34.27   12.45
   0  10  -2   38.87   10.16
   0  10   2   58.54   14.34
   0 -10  -2   28.61   12.36
   0 -10  -2   47.12   11.64
   0  10   2    2.94   14.11
   0 -10   2   65.88   15.62
   0 -10   2   25.50   11.21
   0 -10   2   30.58   13.03
   0  10  -2   45.79   12.13
   0  10   2   58.31   11.97
   0  10   2   59.96   13.81
   0 -10  -2   32.61   13.34
   1 -10   2   31.65   12.44
  -1 -10  -2   12.24    6.97
  -1  10  -2   19.72    8.16
   1 -10   2   28.67   10.04
   1  10   2    2.51    9.01
   1 -10   2   21.88    8.99
  -1  10  -2    7.39    6.36
  -1 -10  -2   21.39    9.01
  -1  10  -2   26.89    9.60
  -1  10  -2   19.83    7.66
   1 -10   2   32.05   12.04
  -1 -10  -2   10.66    6.30
   2 -10   2   79.02   20.72
  -2  10  -2  114.87   15.62
  -2  10  -2   88.74   13.71
   2 -10   2   57.29   13.93
  -3  11   2   15.62    9.56
   3 -11  -2    9.99   10.00
  -3  11   2   13.82    7.37
   3 -11  -2    0.02    9.04
  -2  11   2   90.52   17.87
   2 -11  -2   58.22   14.47
   2  11  -2   41.26    9.56
   2  11  -2   47.06   10.50
  -2  11   2   80.27   16.07
  -2 -11   2   45.59   10.64
  -2  11   2    7.64   13.86
   2 -11  -2   44.14   11.47
   2 -11  -2   64.51   14.37
  -1 -11   2  387.07   32.63
   1 -11  -2  399.11   32.86
   1  11  -2  360.47   30.11
   1  11  -2  377.70   30.25
  -1  11   2  410.56   31.33
   1  11  -2  333.53   28.90
   1 -11  -2  400.17   32.61
  -1 -11   2  360.36   32.48
   1 -11  -2  349.97   28.61
  -1  11   2  368.65   31.84
   1 -11  -2  367.63   28.76
  -1 -11   2  381.87   32.15
   0  11  -2   17.50    7.61
   0 -11  -2   24.97   10.02
   0  11   2   45.68   12.05
   0  11   2    0.11   10.87
   0  11  -2   23.25   10.69
   0  11  -2   31.42   10.96
   0 -11  -2   37.01   11.45
   0 -11   2   12.82   14.72
   0 -11  -2   21.66    9.29
   0 -11   2    9.39    9.64
   0  11   2   28.83   14.48
   0 -11  -2   16.24    9.70
   0 -11   2    2.16    6.52
  -1 -11  -2   86.18   17.82
   1 -11   2  100.71   22.37
  -1  11  -2  116.94   19.22
  -1  11  -2   89.53   17.49
  -1 -11  -2   78.06   16.20
   1 -11   2   65.71   16.15
  -1  11  -2   85.05   15.24
   1 -11   2   95.30   20.45
  -1 -11  -2   76.65   15.32
  -2  11  -2  107.22   16.84
  -2  11  -2   94.37   15.23
   2 -11   2   74.07   21.88
   2 -11   2  111.83   24.53
  -3  12   2   47.39   12.21
   3 -12  -2   34.12   15.37
  -3  12   2   82.43   17.16
   3 -12  -2   50.53   16.03
  -2  12   2    4.14    9.43
   2  12  -2    2.72    5.25
   2  12  -2    5.82    5.63
   2 -12  -2   14.94    9.00
  -2  12   2   17.16   10.28
   2 -12  -2   15.17   12.65
  -2 -12   2    7.27    6.96
  -2  12   2   -0.03    8.36
   2 -12  -2    2.48    7.76
   1 -12  -2    0.69    6.72
   1  12  -2   20.48   11.23
   1  12  -2   10.16    7.64
  -1  12   2   15.76   10.82
   1  12  -2   12.41    9.97
  -1  12   2    0.85   10.48
   1 -12  -2   19.11   11.69
  -1 -12   2   22.52   12.36
  -1 -12   2   25.45   13.54
   1 -12  -2   28.85    9.72
  -1 -12   2   13.21   10.53
  -1  12   2   -2.36    9.06
   0 -12  -2  119.32   19.94
   0 -12   2  154.56   23.23
   0 -12   2  170.24   24.69
   0 -12  -2  112.31   17.91
   0 -12  -2  119.86   19.46
   0 -12   2  148.01   25.57
   0  12   2  160.95   23.53
  -1  12  -2   12.02    9.72
  -1  12  -2   25.68   10.62
   1 -12   2   -2.88    8.78
   1 -12   2    4.44   11.37
  -1  12  -2   26.84   11.32
   1 -12   2    8.71   10.02
  -2  12  -2   26.28    8.78
  -2  12  -2   15.55    7.36
   2 -12   2   34.95   19.42
  -3  13   2   23.72   10.43
  -3  13   2   44.30   12.97
   3 -13  -2   47.65   17.58
   3 -13  -2   36.92   15.68
  -2  13   2    9.21    7.93
   2 -13  -2   27.16   13.63
   2 -13  -2  -11.57   12.14
  -2  13   2  -15.71    9.97
  -2 -13   2    2.14    5.39
  -2  13   2    0.35    7.39
   2 -13  -2   -0.80    8.29
   2  13  -2   -5.54    7.02
   2  13  -2    1.34    4.44
   1 -13  -2   31.49   14.22
   1  13  -2   35.68   12.40
  -1  13   2   51.65   11.38
   1  13  -2   32.57   12.23
   1  13  -2   14.05    6.95
   1 -13  -2   43.89   14.44
  -1  13   2    0.15   13.94
  -1 -13   2   39.25   13.98
  -1 -13   2   48.78   15.96
   1 -13  -2   22.53   12.48
  -1 -13   2   34.73   12.65
  -1  13   2   39.05   13.87
   0 -13  -2   41.65   13.78
   0 -13  -2   43.10   15.18
   0  13   2    0.11    8.93
   0  13  -2   26.41   12.47
   0 -13   2   65.27   17.86
   0  13  -2   49.32   13.29
   0 -13   2   38.21   13.48
   0  13  -2   29.09   11.44
   0 -13   2   45.97   16.39
   0 -13  -2   49.38   15.16
   0  13   2   58.97   16.74
  -1  13  -2   41.18   14.22
  -1  13  -2   22.08   10.25
  -1  13  -2   26.56   11.04
   1 -13   2   -8.04   11.14
   1 -13   2   27.28   16.42
   1 -13   2   41.71   16.62
  -2  13  -2   90.92   16.89
  -2  13  -2   88.12   16.16
   2 -13   2  113.69   31.24
   2 -13   2   75.65   23.95
  -3  14   2   17.74   10.75
   3 -14  -2    1.32   11.50
  -3  14   2   -7.84    7.91
   3 -14  -2   22.88   13.14
  -2  14   2   -0.54   10.30
  -2  14   2    1.49   12.38
   2 -14  -2   12.65   12.70
   2 -14  -2  -28.21   16.10
  -2  14   2   11.46   11.69
   2 -14  -2    0.80    8.63
  -1 -14   2   50.54   15.86
   1 -14  -2   36.86   12.18
  -1  14   2   26.72   10.43
   1  14  -2    3.23    8.72
   1  14  -2   22.99   10.93
   1 -14  -2   38.02   14.57
  -1  14   2    0.13   15.59
  -1 -14   2   40.14   14.37
  -1 -14   2   25.32   11.93
   1 -14  -2   49.24   14.14
  -1  14   2   51.38   15.77
   0  14  -2   -8.93    9.26
   0 -14  -2   -1.30    9.77
   0  14  -2    4.86    8.96
   0 -14   2    9.09   15.57
   0  14   2    8.14   14.81
   0  14  -2   -1.30    7.85
   0 -14   2  -21.85   11.88
   0 -14   2    9.30   13.20
   0 -14  -2   -1.99    7.37
   0  14   2   -5.11    8.44
   0 -14  -2   -2.25    8.15
   1 -14   2    5.36   11.07
  -1  14  -2    1.33    9.42
   1 -14   2   26.40   20.89
   1 -14   2  -10.80   14.24
  -1  14  -2    4.59    6.55
  -1  14  -2   15.26   10.87
  -2  14  -2    8.55    8.05
   2 -14   2   50.65   30.81
   2 -14   2   52.29   20.95
   3 -15  -2   -6.05   12.84
  -3  15   2   -1.47    8.21
   2 -15  -2   50.17   19.40
   2 -15  -2   11.20   16.85
  -2  15   2   18.13   10.65
   2 -15  -2   18.23   15.88
  -2  15   2    0.04   12.96
  -2  15   2   11.50    8.60
  -1 -15   2   -1.23    9.54
   1 -15  -2   13.58   13.01
  -1  15   2  -16.83   12.58
   1  15  -2   12.89   12.61
  -1 -15   2   15.14    7.48
   1  15  -2   -0.61    9.70
  -1  15   2    0.20   10.95
   1 -15  -2   15.20   11.37
  -1 -15   2  -13.92   15.70
   1 -15  -2   20.75   13.70
  -1  15   2    9.22    9.03
   0 -15  -2   -7.11   12.17
   0 -15  -2    7.97   11.30
   0  15  -2    7.44   10.36
   0  15   2   -0.03   10.48
   0  15  -2    1.66   10.36
   0 -15   2   21.57   17.88
   0  15  -2   -0.02    8.06
   0 -15   2   -7.55   15.02
   0 -15   2   -5.04   12.58
   0  15   2   -5.98   10.97
  -1  15  -2   19.19    9.67
   1 -15   2   11.95   11.61
  -1  15  -2   17.47   12.23
   1 -15   2   10.46   16.13
   1 -15   2   11.30   15.46
  -1  15  -2    0.17   10.81
   2 -16  -2    5.49   14.19
   1  16  -2    9.68    8.82
  -1  16   2   -0.67   13.99
   1  16  -2   -1.60    7.93
   1 -16  -2   21.30   10.77
   0 -16  -2  -24.99   14.03
   0  16  -2   15.63   11.08
   0  16   2    1.16   18.31
   0  16  -2   -0.59    8.70
  -1  16  -2    0.02    8.61
   2   0  -3   -0.84    2.92
  -2   0   3   -4.67    2.68
   2   0  -3    1.41    4.21
   2   0  -3   -0.58    3.55
  -2   0   3   -0.61    3.30
   2   0  -3    5.98    3.15
   2   0  -3   -1.98    3.46
  -2   0   3    4.41    3.37
   1   0  -3    0.79    1.99
  -1   0   3    9.49    5.25
  -1   0   3    3.25    3.02
  -1   0   3    0.24    2.39
   1   0  -3   -0.50    3.68
  -1   0   3    4.29    4.63
   1   0  -3   -3.52    2.94
  -1   0   3   -1.19    1.85
   1   0  -3   -3.38    4.18
   1   0  -3    2.40    3.48
   0   0  -3    1.36    2.19
   0   0   3   -1.44    6.39
   0   0   3   -2.56    3.20
   0   0  -3    5.39    4.19
   0   0  -3    1.39    3.89
   0   0   3   -3.39    3.43
   0   0  -3    1.04    2.77
   0   0  -3    1.34    3.36
  -1   0  -3    0.34    3.43
   2  -1  -3  439.04   26.06
   2   1  -3  418.26   25.68
   2   1  -3  455.56   19.57
   2   1  -3  447.70   24.58
   2  -1  -3  431.60   24.22
  -2  -1   3  434.98   24.64
  -2   1   3  436.12   24.93
  -2   1   3  443.30   22.20
  -2  -1   3  451.88   24.56
   2   1  -3  452.41   23.50
   2  -1  -3  449.16   22.34
  -2   1   3  406.32   19.55
   2  -1  -3  424.50   25.41
   2   1  -3  408.36   25.93
   1  -1  -3  164.56   11.80
   1   1  -3  139.66   14.57
   1   1  -3  162.12   11.25
   1   1  -3  162.81   14.29
   1  -1  -3  155.77   15.03
  -1  -1   3  161.19   12.02
  -1  -1   3  158.99   14.21
  -1   1   3  147.10   15.46
  -1  -1   3  160.90   15.03
  -1   1   3  161.90   13.29
  -1  -1   3  151.40   14.70
   1   1  -3  163.27   14.26
   1  -1  -3  155.92   12.42
  -1   1   3  154.92   11.64
   1  -1  -3  138.31   13.78
   1  -1  -3  149.73   14.62
   1   1  -3  143.98   13.18
   0  -1  -3   16.86    4.36
   0   1  -3   12.83    5.30
   0  -1  -3   13.63    4.33
   0   1  -3   13.69    4.49
   0   1   3   13.19    6.13
   0  -1   3   20.62    8.23
   0   1  -3   10.12    3.06
   0   1   3    7.15    4.63
   0  -1   3   18.35    5.04
   0   1   3   13.49    3.80
   0  -1   3   15.37    5.48
   0   1  -3   20.48    5.90
   0  -1  -3   14.91    5.07
   0  -1  -3   10.30    4.29
   0  -1  -3   18.95    6.68
   0   1  -3   13.54    4.29
  -1   1  -3   98.18   12.18
   2  -2  -3   38.42    9.02
  -2   2   3   35.49    6.54
   2  -2  -3   32.78    7.11
   2  -2  -3   30.64    6.87
   2   2  -3   44.15    8.98
   2   2  -3   44.73    8.11
  -2  -2   3   35.17    7.56
  -2   2   3   48.70    9.60
   2  -2  -3   45.52    7.83
   2   2  -3   45.25    7.18
  -2  -2   3   49.30    8.89
   2   2  -3   39.12    8.34
   2  -2  -3   47.76    7.26
   1  -2  -3 1269.81   35.75
   1  -2  -3 1163.24   40.69
   1   2  -3 1221.85   39.47
   1  -2  -3 1239.78   38.80
   1   2  -3 1218.37   40.96
  -1  -2   3 1237.22   40.00
  -1  -2   3 1188.86   36.57
  -1   2   3 1204.05   44.89
  -1  -2   3 1235.80   36.19
  -1   2   3 1262.47   34.69
  -1  -2   3 1238.60   41.21
   1   2  -3 1231.90   39.86
   1  -2  -3 1213.31   33.15
   1   2  -3 1251.16   34.53
  -1   2   3 1184.60   35.47
   1  -2  -3 1281.50   42.79
   1   2  -3 1250.62   34.89
   0  -2  -3  300.54   17.70
   0  -2  -3  296.08   21.21
   0   2  -3  274.31   20.73
   0   2   3  274.30   23.87
   0  -2   3  267.36   23.77
   0  -2  -3  283.66   19.32
   0  -2   3  263.30   18.87
   0   2   3  292.93   23.13
   0  -2   3  276.78   18.97
   0   2  -3  300.59   20.09
   0   2  -3  302.44   20.18
   0  -2  -3  269.43   18.19
   0  -2  -3  285.28   21.65
   0   2  -3  298.67   18.11
   0   2  -3  280.69   17.13
  -1   2  -3    8.51    4.91
  -1   2  -3   -5.44    4.01
   3  -3  -3  275.49   21.88
   3  -3  -3  297.11   27.62
   2  -3  -3  911.78   38.68
   2  -3  -3 1019.25   39.68
   2   3  -3  974.81   39.28
   2   3  -3 1044.54   35.54
   2   3  -3  991.08   35.84
   2  -3  -3  959.23   35.43
  -2  -3   3 1008.89   36.88
  -2   3   3 1071.36   38.88
  -2  -3   3 1023.53   39.68
   2   3  -3  981.17   37.34
   2  -3  -3 1006.99   29.02
  -2   3   3 1058.95   37.47
   2  -3  -3 1051.31   41.87
   1  -3  -3  531.12   25.05
   1   3  -3  462.25   26.07
   1   3  -3  517.45   24.53
   1   3  -3  493.82   25.37
   1  -3  -3  546.73   25.19
  -1  -3   3  532.87   26.54
  -1   3   3  497.62   29.42
  -1  -3   3  513.37   22.62
  -1   3   3  481.54   29.53
  -1  -3   3  508.27   24.97
   1  -3  -3  531.14   27.69
  -1   3   3  558.93   21.68
  -1  -3   3  525.02   28.03
   1   3  -3  526.44   27.20
   1  -3  -3  512.83   20.92
  -1   3   3  495.39   24.72
   1  -3  -3  525.49   29.01
   1   3  -3  503.86   21.78
   0  -3  -3  249.46   17.99
   0  -3  -3  245.89   19.36
   0   3  -3  271.63   20.16
   0  -3   3  261.71   19.75
   0  -3  -3  257.35   18.41
   0   3   3  236.51   23.27
   0   3  -3  250.27   17.56
   0  -3   3  254.55   22.84
   0   3   3  247.80   22.29
   0   3  -3  261.98   18.75
   0   3  -3  258.13   19.50
   0   3   3  255.61   19.34
   0  -3  -3  262.74   21.13
   0   3  -3  258.76   15.45
  -1   3  -3  224.66   18.26
  -1   3  -3  248.12   19.47
  -1   3  -3  237.20   15.57
   3  -4  -3  104.94   16.29
   3  -4  -3   88.86   12.43
  -3   4   3   92.00   12.70
   2  -4  -3    8.22    6.01
  -2   4   3    4.14    3.89
   2  -4  -3   -1.88    3.43
   2  -4  -3    0.61    4.70
   2   4  -3    4.01    3.73
   2   4  -3   -6.67    4.93
   2   4  -3   -0.59    3.95
   2  -4  -3   -2.05    8.03
  -2   4   3   -2.05    4.19
  -2  -4   3   -2.18    3.68
  -2  -4   3    1.63    4.03
   2   4  -3    2.54    3.72
  -1   4   3    3.48    3.69
   1  -4  -3   -0.80    3.66
   1  -4  -3    1.99    3.77
   1   4  -3    0.65    3.34
   1   4  -3    1.24    3.74
  -1  -4   3   -2.78    4.56
  -1   4   3    1.10    4.10
   1   4  -3    0.22    4.67
  -1   4   3   -6.67    6.15
  -1  -4   3   -3.75    3.92
  -1  -4   3   -8.02    6.28
   1   4  -3    4.16    5.71
   1  -4  -3    7.37    5.42
   0  -4  -3    7.61    6.29
   0  -4  -3    4.44    4.78
   0  -4  -3    0.36    3.15
   0   4   3   -6.20    6.20
   0   4  -3    0.01    3.78
   0   4  -3    2.57    3.67
   0  -4   3   -0.27    4.45
   0   4   3   10.36    5.56
   0  -4   3   -7.99    6.06
   0   4  -3    0.37    4.56
   0   4   3   -0.08    3.45
   0  -4  -3    4.18    5.16
   0   4  -3    3.96    3.38
  -1   4  -3  151.86   15.35
  -1   4  -3  165.68   16.35
   1  -4   3  127.82   17.11
   3  -5  -3  109.25   17.39
  -3   5   3   85.10   13.39
   3  -5  -3   98.49   13.71
   2  -5  -3    3.50    4.90
  -2   5   3    6.77    5.37
   2   5  -3    1.20    3.72
   2  -5  -3    2.34    4.18
   2  -5  -3   -2.43    3.76
   2  -5  -3   -6.64    4.84
   2   5  -3    2.11    3.80
  -2   5   3   -1.62    4.14
  -2  -5   3   -3.98    4.22
  -2  -5   3    3.16    4.29
   2   5  -3   -2.37    4.48
   1  -5  -3  109.02   13.42
   1  -5  -3  114.45   13.51
   1   5  -3   95.52   11.60
   1   5  -3  108.64   13.29
   1  -5  -3  103.41   12.26
   1   5  -3   93.29   10.98
  -1  -5   3  117.22   12.52
  -1   5   3  102.44   12.39
  -1   5   3  100.76   14.87
  -1   5   3   91.81   13.85
  -1  -5   3   90.20   12.61
  -1  -5   3   96.94   13.26
   1   5  -3  104.55   13.78
  -1   5   3  110.91   13.73
   1  -5  -3   95.54   14.07
   0  -5  -3  178.45   18.67
   0  -5  -3  176.48   16.53
   0   5  -3  165.59   16.52
   0   5  -3  188.75   16.09
   0  -5  -3  193.80   16.82
   0   5  -3  170.19   16.38
   0   5   3  191.59   21.55
   0  -5   3  177.59   18.39
   0   5   3  176.15   20.14
   0  -5   3  205.25   19.91
   0   5   3  188.23   19.38
   0  -5  -3  190.84   19.09
   0   5  -3  198.72   18.70
  -1   5  -3   -5.09    3.99
  -1   5  -3   -2.18    3.55
   1  -5   3   -0.78    7.24
  -1   5  -3   -0.09    3.91
   3  -6  -3   67.07   13.76
  -3   6   3   52.37   11.79
   3  -6  -3   51.80   11.81
   3  -6  -3   49.97   12.29
   2  -6  -3   -2.97    5.62
  -2   6   3    2.64    5.93
   2  -6  -3   -0.22    5.42
   2  -6  -3   -1.75    3.64
   2   6  -3   12.01    5.78
   2  -6  -3   -1.83    5.27
   2   6  -3    7.13    4.94
  -2   6   3    3.71    4.59
  -2  -6   3    2.83    3.24
  -2  -6   3   -1.79    4.95
  -2  -6   3   -2.45    4.35
   2   6  -3   -1.03    4.54
  -1   6   3   -0.48    4.50
   1  -6  -3    4.63    4.75
  -1  -6   3   -0.57    3.74
   1   6  -3   -1.05    3.55
   1   6  -3   20.39    6.31
   1  -6  -3   10.66    5.85
   1   6  -3    2.12    4.29
  -1   6   3    7.60    5.06
  -1   6   3    0.29    5.27
   1  -6  -3    3.26    5.02
  -1  -6   3    9.36    7.26
  -1   6   3    4.31    5.84
  -1  -6   3    6.03    5.56
  -1  -6   3    3.00    5.88
   1   6  -3   -0.49    6.06
  -1  -6   3   15.27    6.46
   1  -6  -3    9.53    7.49
   0  -6  -3   -6.44    6.38
   0  -6  -3   -0.14    3.76
   0   6  -3   -8.60    4.82
   0   6  -3    0.64    3.85
   0   6  -3  -11.63    6.95
   0  -6   3   -2.14    5.83
   0   6   3   -3.69    5.14
   0  -6   3  -14.95   10.48
   0  -6   3   11.43    8.25
   0  -6   3    0.43    4.25
   0   6  -3    1.33    4.17
   0   6   3    2.35    5.18
   0  -6  -3    0.90    4.66
  -1   6  -3  -10.59    5.11
  -1   6  -3    6.95    4.58
  -1   6  -3    5.80    5.18
   1  -6   3   -7.54    8.29
  -1   6  -3    3.65    5.01
   3  -7  -3    2.00    7.13
  -3   7   3    2.63    6.14
   3  -7  -3   -3.08    6.82
  -2  -7   3  304.28   21.99
   2  -7  -3  319.96   26.47
   2   7  -3  303.91   24.98
  -2  -7   3  297.94   25.03
  -2   7   3  318.60   28.32
  -2  -7   3  308.58   24.72
   2   7  -3  282.39   23.33
  -2   7   3  331.38   26.97
   2  -7  -3  332.09   26.93
  -1   7   3   14.06    5.50
   1  -7  -3   -1.54    5.49
   1  -7  -3   15.95    6.18
   1   7  -3    6.94    4.44
   1   7  -3    6.62    6.81
  -1   7   3   11.62    8.01
  -1  -7   3    6.03    7.15
  -1  -7   3    5.73    7.33
   1   7  -3    4.73    5.79
  -1  -7   3   17.44    7.17
   1  -7  -3    6.47    6.07
   0  -7   3  107.20   15.61
   0  -7  -3   99.84   15.41
   0   7  -3  111.52   14.08
   0  -7  -3   95.62   12.90
   0   7  -3  104.34   15.04
   0   7   3  116.84   18.56
   0  -7   3  135.12   19.50
   0  -7   3  117.43   18.60
   0   7  -3  111.32   15.10
   0   7   3  100.17   16.39
   0  -7  -3  103.85   15.83
  -1   7  -3   54.96   10.07
  -1   7  -3   58.48   11.44
  -1   7  -3   51.88   11.14
   3  -8  -3   69.46   15.86
  -3   8   3   54.26   13.08
   3  -8  -3   37.64   11.24
   2  -8  -3    3.84    5.84
  -2   8   3    3.10    6.03
   2  -8  -3   26.89    9.00
  -2  -8   3   11.88    7.07
  -2  -8   3   10.83    8.16
  -2   8   3   14.61    8.44
  -2  -8   3    0.35    5.56
   2   8  -3    3.59    5.09
   2   8  -3   18.35    8.54
   1  -8  -3   -6.93    7.77
   1   8  -3   -2.23    4.52
   1   8  -3    7.38    5.96
  -1   8   3   -2.60    6.34
  -1  -8   3   10.17    9.99
  -1  -8   3    5.35    6.68
   1   8  -3   -2.14    7.89
  -1  -8   3    6.09    5.35
   1  -8  -3  -10.92    6.93
  -1   8   3   -2.87    6.89
   0  -8  -3   32.06   10.11
   0   8  -3   37.94    9.48
   0   8  -3   22.50    9.48
   0   8   3   31.21   11.23
   0  -8   3   39.62   13.13
   0  -8   3   45.11   13.62
   0   8  -3   30.02    9.96
   0   8   3    8.38    7.24
   0  -8  -3   22.60    8.69
   0  -8   3   19.02    8.74
  -1   8  -3   80.75   13.09
  -1   8  -3   78.96   13.80
   1  -8   3   93.46   18.24
  -1   8  -3   92.56   14.27
   3  -9  -3   23.01    9.85
  -3   9   3   21.90    8.19
   3  -9  -3   17.50   10.38
   2  -9  -3   87.68   14.84
  -2   9   3   87.16   15.25
   2  -9  -3   77.10   15.04
   2   9  -3   83.36   14.95
  -2  -9   3   82.58   13.24
  -2  -9   3   71.76   13.98
  -2   9   3   73.99   14.35
  -2  -9   3   92.33   15.54
   2   9  -3   75.11   13.50
  -1  -9   3   85.65   13.04
   1  -9  -3   87.77   15.26
   1   9  -3   98.33   14.89
   1   9  -3   93.90   15.96
  -1   9   3   98.16   17.36
  -1  -9   3   88.34   16.36
  -1  -9   3   94.47   15.24
   1   9  -3   82.21   14.51
  -1   9   3   97.76   16.46
   1  -9  -3   99.44   15.24
   0  -9  -3  229.59   25.42
   0   9  -3  250.80   23.21
   0  -9   3  225.49   23.91
   0   9  -3  241.64   25.64
   0   9   3  212.52   26.79
   0  -9   3  249.16   27.98
   0  -9   3  253.19   26.61
   0   9  -3  227.91   22.79
   0   9   3  238.36   26.23
   0  -9  -3  256.94   25.85
  -1   9  -3   34.06    9.92
  -1   9  -3   20.87    8.44
   1  -9   3   25.20   14.79
  -1   9  -3   27.19    8.34
   3 -10  -3    6.90    7.18
  -3  10   3    2.00    8.63
   3 -10  -3    1.37    7.86
  -3  10   3   15.18    8.86
  -2  10   3    2.45    6.96
   2 -10  -3   13.34    9.53
   2 -10  -3   -5.89    6.66
   2  10  -3   -1.10    7.11
  -2 -10   3  -11.88    7.62
  -2  10   3   19.95    9.23
  -2 -10   3    1.35    5.50
   2  10  -3   13.69    6.68
   1  10  -3  140.57   18.68
  -1 -10   3  162.83   20.31
   1 -10  -3  148.00   20.93
   1  10  -3  171.51   22.26
  -1  10   3  148.86   21.72
  -1 -10   3  154.22   20.02
  -1 -10   3  187.35   24.55
   1  10  -3  169.78   21.02
  -1  10   3  181.50   23.23
   1 -10  -3  154.51   20.28
   0 -10  -3   39.11   13.20
   0  10  -3   40.00    9.81
   0  10  -3   33.79   11.32
   0  10   3   54.28   14.63
   0 -10   3   47.00   13.25
   0 -10   3   53.47   13.24
   0  10  -3   41.38   10.48
   0 -10   3   34.63    9.64
   0  10   3   47.36   13.58
   0 -10  -3   41.86   11.50
  -1  10  -3   15.14    7.73
  -1  10  -3    3.60    6.57
   1 -10   3   14.37   10.68
   1 -10   3    7.13   10.24
  -1  10  -3    0.20    5.17
   1 -10   3    0.35    8.86
  -3  11   3   28.03   11.51
   3 -11  -3   37.24   13.31
   3 -11  -3   25.94   10.95
  -3  11   3   42.48   12.99
  -2  11   3   17.99   10.32
   2 -11  -3    9.35    9.37
   2 -11  -3   14.87    8.44
   2  11  -3   18.84    9.43
  -2 -11   3   16.87    9.05
  -2  11   3   13.72    8.15
  -2 -11   3   17.51    8.53
   2  11  -3    6.01    5.95
   1 -11  -3  203.19   25.38
   1  11  -3  183.39   22.18
  -1 -11   3  189.63   23.77
   1  11  -3  216.65   25.21
  -1 -11   3  249.18   29.74
  -1  11   3  185.65   25.26
  -1 -11   3  190.02   21.68
   1  11  -3  172.30   20.85
   1 -11  -3  202.24   23.79
  -1  11   3  185.24   24.95
   0 -11  -3    8.73    7.47
   0  11  -3    5.41    7.69
   0  11  -3   17.98    8.27
   0 -11   3   -9.36   11.81
   0 -11   3   19.97   13.52
   0  11  -3    0.00    6.79
   0 -11   3   15.75   11.98
   0 -11  -3    3.98    7.21
   1 -11   3   16.13   12.88
  -1  11  -3   -2.88    6.43
  -1  11  -3    4.47    8.00
   1 -11   3   -1.33   13.00
   1 -11   3   13.20   15.77
  -1  11  -3   -7.83    8.47
  -3  12   3   -3.31   10.90
   3 -12  -3   16.41   13.94
  -3  12   3   10.22    9.47
  -2  12   3   61.58   16.71
   2 -12  -3   43.00   14.06
   2 -12  -3   23.75   11.83
   2  12  -3   40.78   12.51
  -2  12   3   52.47   16.43
  -2 -12   3   33.10   10.11
   2  12  -3   28.97    9.78
   1 -12  -3    6.55    6.91
  -1 -12   3   10.27    9.07
   1 -12  -3   -2.28    8.48
   1  12  -3   -5.99    8.65
  -1  12   3   -7.00    8.04
  -1 -12   3   23.61   16.20
   1  12  -3   -5.26    7.39
  -1  12   3    8.54    8.66
   0 -12   3   48.93   14.52
   0 -12  -3   68.32   16.96
   0  12  -3  100.17   18.14
   0  12  -3   68.33   14.93
   0 -12   3  112.26   25.26
   0  12   3   93.32   19.49
   0 -12  -3   64.33   13.94
  -1  12  -3    2.00    7.21
   1 -12   3  -17.16   10.91
   1 -12   3  -12.33   15.97
  -1  12  -3  -11.65    9.96
  -3  13   3   51.95   16.65
   3 -13  -3   44.18   17.04
   2 -13  -3   30.96   13.56
   2  13  -3   16.76   10.28
  -2 -13   3   25.09   11.34
  -2  13   3    6.48   10.66
  -1 -13   3   22.72   12.24
   1  13  -3   -3.57    7.91
  -1 -13   3    8.39   11.78
  -1  13   3    3.87    9.82
   0 -13   3   80.92   21.24
   0 -13  -3   58.62   16.73
   0  13  -3   56.32   16.93
   0  13  -3   49.54   15.43
   0 -13   3  113.32   27.55
   0  13   3   68.53   18.27
  -1  13  -3    1.20    7.26
  -1  13  -3   16.76    9.09
   1 -13   3   12.52   13.09
   1 -13   3  -15.51   14.53
   3 -14  -3  -36.78   19.37
   2  14  -3   13.66    8.34
   2 -14  -3    4.52    8.89
  -2 -14   3   14.37    8.13
  -2  14   3   17.60   13.44
   1 -14  -3   63.57   17.03
   1  14  -3   24.01   10.38
  -1 -14   3   56.10   16.23
  -1 -14   3   48.07   16.45
  -1  14   3   47.10   17.48
   0 -14  -3   17.21   12.79
   0  14  -3   10.40   10.50
   0 -14   3    5.02   10.21
   0  14  -3   18.43   11.82
   1 -14   3   -4.41   13.53
  -1  14  -3    0.85    8.04
  -1  14  -3  -19.88    9.35
  -1 -15   3  137.09   24.95
   0 -15   3  -11.85   12.28
   1 -15   3   23.45   20.89
   3   0  -4    3.01    7.07
   3   0  -4    7.15    7.04
   3   0  -4    5.20    5.63
   2   0  -4   21.51    6.34
   2   0  -4   14.79    6.18
   2   0  -4    4.39    4.78
  -2   0   4   20.54    7.51
  -2   0   4   22.85    7.55
   2   0  -4   19.41    7.56
   1   0  -4  268.98   22.45
   1   0  -4  229.48   22.08
  -1   0   4  290.61   27.52
  -1   0   4  231.60   21.22
  -1   0   4  225.09   22.10
  -1   0   4  249.91   21.10
   1   0  -4  249.68   19.71
   1   0  -4  258.23   21.50
   0   0  -4  164.64   18.55
   0   0  -4  183.06   18.37
   0   0   4  173.48   22.95
   0   0   4  165.94   19.63
   0   0  -4  185.41   16.93
   0   0  -4  179.45   18.14
   3  -1  -4   14.09    7.68
   3  -1  -4   25.04    9.50
   3   1  -4   10.83    6.99
   3   1  -4   20.41    8.70
   3  -1  -4   28.50   10.11
   3   1  -4   24.66    7.62
   3  -1  -4   24.52    8.02
   2  -1  -4  292.47   24.99
   2   1  -4  280.50   24.62
   2   1  -4  304.12   23.21
   2  -1  -4  301.82   23.02
  -2  -1   4  303.94   24.41
  -2   1   4  322.79   24.64
  -2   1   4  318.79   21.79
  -2  -1   4  311.25   23.40
   2   1  -4  318.26   23.26
   2  -1  -4  311.24   21.33
   2  -1  -4  280.95   23.67
   2   1  -4  295.40   24.11
   1   1  -4   68.02   10.75
   1  -1  -4   52.56   12.02
   1   1  -4   39.84    9.79
   1   1  -4   65.44   11.77
  -1  -1   4   61.50   12.44
  -1  -1   4   44.02   11.73
  -1  -1   4   55.57   10.77
  -1   1   4   45.07    9.94
   1  -1  -4   43.06    9.34
  -1   1   4   63.87   10.47
  -1  -1   4   48.88    9.84
   1   1  -4   55.77    9.92
   1  -1  -4   56.58    9.45
  -1   1   4   51.01   12.06
   1  -1  -4   54.35   11.17
   0  -1  -4  194.69   19.94
   0   1  -4  208.43   20.60
   0   1  -4  218.76   20.36
   0  -1  -4  221.45   20.21
   0   1   4  206.36   26.00
   0  -1   4  218.96   25.86
   0   1   4  200.03   22.25
   0   1  -4  198.94   18.02
   0  -1  -4  202.20   17.25
   0  -1  -4  205.47   20.27
   0   1  -4  210.64   18.56
   3  -2  -4   -0.67    5.43
   3  -2  -4   -1.74    5.09
   3   2  -4   17.58    7.44
   3  -2  -4   10.54    7.03
   3   2  -4    7.22    5.71
   2  -2  -4   38.31    9.63
   2   2  -4   36.96    8.85
   2  -2  -4   34.97    9.73
   2   2  -4   53.03   11.23
   2   2  -4   39.16    9.29
   2  -2  -4   37.15    9.34
  -2  -2   4   40.85   10.17
  -2   2   4   48.92   10.81
  -2   2   4   49.88   11.30
  -2   2   4   43.06    8.68
  -2  -2   4   28.90    8.33
   2   2  -4   37.45    9.10
   2  -2  -4   39.16    7.47
   1   2  -4    6.62    5.89
   1  -2  -4   15.10    5.96
   1   2  -4   15.68    7.68
   1  -2  -4   11.50    5.82
   1   2  -4   16.57    6.60
  -1  -2   4   14.01    7.52
  -1   2   4   16.23    9.39
  -1  -2   4   11.50    8.57
  -1   2   4   26.68    9.24
  -1   2   4   21.74    7.06
  -1  -2   4    9.73    6.23
   1   2  -4    9.51    6.03
   1  -2  -4   11.26    5.35
   1  -2  -4    8.30    5.45
   0  -2  -4   61.90   12.66
   0   2  -4   51.45   11.33
   0   2  -4   59.44   11.14
   0  -2  -4   67.37   11.85
   0   2   4   54.91   13.44
   0  -2   4   65.59   15.26
   0   2   4   60.26   13.74
   0   2  -4   68.96   11.75
   0  -2  -4   66.00   11.94
  -1   2  -4   72.34   12.77
   3  -3  -4   99.31   16.72
   3  -3  -4   97.71   16.96
   3   3  -4   70.97   12.76
   3  -3  -4   90.42   14.72
   3   3  -4   78.72   12.78
   2  -3  -4    2.08    4.82
   2  -3  -4    5.08    4.52
   2   3  -4    2.58    4.33
   2   3  -4   -1.42    5.42
   2  -3  -4    0.91    4.64
  -2  -3   4    7.24    5.57
  -2   3   4    5.58    5.80
  -2   3   4   -2.54    5.19
  -2  -3   4   -2.80    5.75
   2   3  -4    6.00    5.66
   1  -3  -4   22.48    7.27
   1   3  -4   35.65   10.08
   1  -3  -4   33.89    8.19
   1   3  -4   24.76    9.16
   1   3  -4   35.43    9.05
  -1  -3   4   35.09   10.56
  -1   3   4   33.88   10.75
  -1  -3   4   38.87   13.34
  -1   3   4   36.55   10.42
  -1  -3   4   34.92    9.13
  -1  -3   4   25.04    8.80
   1   3  -4   22.29    6.42
   1  -3  -4   26.14    8.07
   0  -3  -4    7.59    5.41
   0   3  -4    1.40    5.25
   0   3  -4    8.07    6.23
   0   3   4    2.45    7.28
   0  -3   4    8.29    7.65
   0   3  -4    4.88    4.22
   0   3   4   -9.26    8.67
   0  -3  -4    5.68    4.39
   0  -3   4   -6.82    6.92
   0   3  -4    1.47    5.57
   0  -3  -4   -4.05    5.29
  -1   3  -4   44.44    9.93
   1  -3   4   45.63   13.11
  -1   3  -4   58.45   11.33
   3  -4  -4   -0.63    7.76
  -3   4   4    5.01    6.26
   3  -4  -4    5.76    6.75
   3   4  -4    0.25    4.93
   3  -4  -4  -12.14    6.87
   3   4  -4   10.71    5.92
   3   4  -4    5.12    7.11
   2  -4  -4   63.76   14.16
  -2   4   4   42.77    8.61
   2  -4  -4   66.37   12.42
   2  -4  -4   53.25   11.13
   2   4  -4   63.51   12.19
   2   4  -4   56.13   11.12
   2  -4  -4   59.26   11.17
   2   4  -4   69.43   11.13
  -2  -4   4   52.56   11.42
  -2   4   4   56.72   11.81
  -2  -4   4   62.46   11.53
  -2   4   4   54.79   12.81
  -2  -4   4   54.36   11.07
   2   4  -4   62.52   11.51
   1  -4  -4  110.70   14.33
   1  -4  -4  128.78   16.96
   1   4  -4   99.29   14.90
   1   4  -4  126.01   15.46
   1   4  -4  117.31   14.95
   1  -4  -4  106.31   14.48
  -1  -4   4  111.78   15.33
  -1   4   4   79.86   12.86
  -1   4   4   98.14   17.20
  -1  -4   4   98.13   17.37
  -1   4   4  131.94   18.92
  -1  -4   4  112.00   14.84
  -1  -4   4  113.45   16.50
   1   4  -4  103.43   15.28
  -1   4   4  110.06   14.16
   1  -4  -4  110.00   16.01
   0  -4  -4  160.07   17.83
   0  -4  -4  139.76   17.98
   0   4  -4  170.77   19.70
   0   4  -4  155.20   16.56
   0  -4  -4  147.64   16.34
   0   4  -4  138.18   14.97
   0   4   4  127.70   21.49
   0  -4   4  151.29   21.93
   0   4   4  141.22   20.96
   0  -4   4  157.92   19.45
   0   4  -4  156.98   18.55
   0  -4  -4  141.44   18.53
  -1   4  -4  277.47   24.17
   1  -4   4  238.20   25.42
  -1   4  -4  308.80   24.35
   3  -5  -4  159.52   19.66
   3   5  -4  165.92   19.85
   3   5  -4  152.53   18.36
   3  -5  -4  179.54   20.60
   3   5  -4  161.45   20.87
  -3   5   4  164.74   18.41
   3  -5  -4  196.73   24.32
   2  -5  -4  172.66   20.13
   2  -5  -4  163.20   19.42
   2   5  -4  168.61   18.84
   2   5  -4  190.07   20.35
   2   5  -4  209.95   21.05
   2  -5  -4  186.97   18.53
  -2   5   4  182.51   19.22
  -2  -5   4  110.57   13.71
  -2   5   4  183.18   22.19
  -2   5   4  195.22   24.07
  -2  -5   4  143.61   14.71
  -2  -5   4  110.57   12.95
   2   5  -4  243.39   24.05
  -2   5   4  186.92   19.89
   2  -5  -4  185.03   21.01
   1  -5  -4   52.90   10.91
   1  -5  -4   55.43   11.62
   1   5  -4   64.37   12.35
   1   5  -4   51.45   10.01
   1  -5  -4   41.13    9.51
   1   5  -4   62.43   11.68
  -1  -5   4   48.28   10.65
  -1   5   4   55.09   12.55
  -1   5   4   43.13   10.92
  -1  -5   4   45.24   11.69
  -1   5   4   47.66   12.33
  -1  -5   4   57.49   10.88
  -1  -5   4   43.27   10.31
   1   5  -4   40.89   10.81
  -1   5   4   42.48   10.58
   1  -5  -4   57.97   12.50
   0  -5  -4  222.76   21.86
   0  -5  -4  199.98   20.44
   0   5  -4  225.73   21.52
   0   5  -4  218.01   19.27
   0  -5  -4  196.84   18.93
   0   5  -4  221.15   19.73
   0  -5   4  191.92   24.60
   0   5   4  195.77   25.05
   0  -5   4  167.97   19.68
   0   5  -4  206.65   21.32
   0  -5  -4  231.23   25.15
  -1   5  -4   15.31    7.49
   1  -5   4   18.26   11.38
  -1   5  -4    7.79    6.87
   3  -6  -4   20.94    9.97
  -3   6   4   -3.10    5.47
   3  -6  -4   18.79   11.65
   3   6  -4   -9.10    6.86
   3  -6  -4    5.90    7.90
   3   6  -4   19.19   12.11
   3   6  -4   29.02   11.55
   2  -6  -4  100.81   16.78
  -2   6   4  114.64   17.33
   2  -6  -4  128.00   18.45
   2  -6  -4   94.03   14.18
   2   6  -4  106.76   16.02
   2   6  -4  108.02   14.44
   2  -6  -4  118.48   16.00
   2   6  -4  109.84   15.48
  -2   6   4  102.77   14.45
  -2   6   4  116.62   19.54
  -2   6   4  105.13   18.76
  -2  -6   4   92.88   15.58
  -2  -6   4  114.80   18.02
   2   6  -4  107.75   15.15
   1  -6  -4   11.70    8.99
   1  -6  -4    0.50    5.97
   1   6  -4    3.80    5.64
   1   6  -4   13.39    7.01
   1  -6  -4    6.86    5.25
   1   6  -4    1.98    5.77
  -1  -6   4   16.33    8.17
  -1   6   4    5.39    6.95
  -1   6   4    3.38    7.72
  -1  -6   4    2.18    7.38
  -1   6   4    8.81    8.26
  -1  -6   4   -3.58    7.99
  -1  -6   4    0.56    7.46
   1   6  -4   -0.52    6.49
  -1   6   4   11.69    7.58
   1  -6  -4   -2.24    6.00
   0  -6  -4  157.83   19.73
   0  -6  -4  147.92   18.83
   0   6  -4  181.27   19.32
   0   6  -4  171.61   17.26
   0   6  -4  168.46   19.91
   0  -6   4  167.57   20.58
   0  -6   4  132.04   21.60
   0   6   4  161.45   24.42
   0  -6   4  163.66   24.52
   0  -6   4  177.01   23.00
   0   6  -4  176.94   20.44
   0  -6  -4  160.64   21.15
  -1   6  -4  251.21   21.65
  -1   6  -4  260.65   23.88
   3  -7  -4  144.34   21.81
  -3   7   4  119.08   18.71
   3  -7  -4  124.20   22.07
   3   7  -4   99.54   15.53
   3   7  -4  102.30   17.96
   3   7  -4  118.59   20.64
   2  -7  -4   91.66   15.89
  -2   7   4   78.19   15.43
   2  -7  -4   87.27   14.66
   2   7  -4   94.23   15.07
  -2   7   4   72.20   15.88
  -2  -7   4   59.75   13.68
  -2  -7   4   79.73   16.19
   2   7  -4  103.90   16.63
   1  -7  -4  193.63   21.15
   1  -7  -4  208.76   21.04
   1   7  -4  204.96   22.12
  -1   7   4  171.74   23.67
  -1   7   4  175.39   24.12
  -1  -7   4  189.05   22.87
  -1  -7   4  180.97   23.43
   1   7  -4  165.33   19.88
  -1   7   4  208.14   23.69
   1  -7  -4  197.23   23.59
   0  -7  -4   58.06   14.03
   0   7  -4   60.03   13.15
   0   7   4   64.50   15.44
   0  -7  -4   60.04   12.86
   0  -7   4   58.67   14.43
   0  -7   4   84.15   19.38
   0   7  -4   55.39   13.30
   0  -7  -4   63.65   15.39
  -1   7  -4   50.20   11.02
   1  -7   4   59.33   20.45
  -1   7  -4   59.45   12.53
   3  -8  -4   19.21   10.01
  -3   8   4   22.61    8.62
   3  -8  -4    7.88    9.89
  -3   8   4   17.26   10.27
  -2   8   4  135.41   20.22
   2  -8  -4  115.96   19.70
   2  -8  -4  118.58   19.18
   2   8  -4  109.35   17.28
  -2   8   4  116.10   21.28
  -2  -8   4  125.57   19.06
  -2  -8   4  109.94   18.01
   2   8  -4  109.86   17.59
   1  -8  -4   12.24    9.06
   1   8  -4    7.93    9.09
  -1   8   4    0.70    7.41
  -1  -8   4    1.90    9.22
  -1  -8   4   17.70    8.81
   1   8  -4    6.15    6.94
  -1   8   4    6.90    6.78
   1  -8  -4    5.44    6.59
   0  -8  -4   62.42   14.58
   0   8  -4   63.84   14.19
   0   8   4   54.10   15.07
   0  -8   4   93.14   20.94
   0  -8   4   63.55   17.38
   0   8  -4   67.79   14.00
   0  -8  -4   75.91   16.13
  -1   8  -4    3.52    5.70
   1  -8   4    5.91   10.23
  -1   8  -4    8.38    6.53
  -3   9   4   54.81   13.63
   3  -9  -4   55.19   15.68
   3  -9  -4   47.92   14.76
  -3   9   4   49.48   14.03
   2  -9  -4    5.86    6.84
   2  -9  -4    5.25    6.96
   2   9  -4   19.54   10.08
  -2   9   4   -5.93    8.93
  -2  -9   4   -1.23    7.20
  -2  -9   4   -7.89    8.62
   2   9  -4   17.52    9.44
  -2   9   4   -6.74    9.37
   1  -9  -4  -11.97   10.47
   1   9  -4    2.43    7.72
  -1   9   4   -7.72   11.29
  -1  -9   4   21.75   15.27
  -1  -9   4    3.38    8.08
   1   9  -4    9.60    7.45
  -1   9   4   11.51   10.73
   1  -9  -4   10.31    7.75
   0  -9  -4   18.41    9.12
   0   9  -4   40.59   12.65
   0   9   4   30.66   12.52
   0  -9   4   15.03   13.79
   0  -9   4   24.98   10.52
   0   9  -4   20.14    7.53
   0  -9  -4   33.87   12.03
  -1   9  -4   -8.72    7.30
   1  -9   4   11.20   15.23
   1  -9   4  -14.34   11.92
  -1   9  -4   -4.65    6.85
  -3  10   4   12.52   11.03
   3 -10  -4    4.58    7.48
   3 -10  -4    2.35   11.55
  -3  10   4   -0.85   10.27
   2 -10  -4   31.59   12.47
   2 -10  -4   26.09   12.96
   2  10  -4   29.84   14.29
  -2  10   4   26.60   13.72
  -2 -10   4    9.05    8.52
  -2 -10   4   19.49    9.23
   2  10  -4   12.12    7.96
  -2  10   4   32.10   14.65
   1 -10  -4   -1.42    8.10
   1  10  -4   21.00    9.32
  -1  10   4   15.07   10.88
  -1 -10   4   28.34   16.35
  -1 -10   4   27.09   11.27
   1  10  -4   18.02    9.96
  -1  10   4   11.18   10.94
   1 -10  -4   28.20   11.86
   0 -10  -4    6.91    7.70
   0  10  -4    6.19    7.46
   0 -10   4    4.42   10.57
   0 -10   4    2.25   11.64
   0  10  -4   20.75   11.40
   0 -10  -4    6.15    8.62
  -1  10  -4   37.81    9.80
   1 -10   4   41.41   15.33
   1 -10   4   63.05   18.62
  -1  10  -4   71.26   14.92
  -3  11   4   17.47   11.72
   3 -11  -4   35.97   14.05
   3 -11  -4   23.28   13.95
  -3  11   4   12.00    8.66
   2 -11  -4   27.29   10.92
   2 -11  -4   34.53   14.12
   2  11  -4   35.99   12.04
  -2  11   4   56.87   18.57
  -2 -11   4   45.27   15.02
   2  11  -4   30.51   10.69
  -2  11   4   82.00   19.76
   1 -11  -4   51.01   13.95
   1 -11  -4   64.27   17.10
   1  11  -4   88.98   19.25
  -1  11   4   36.92   12.15
  -1 -11   4   69.33   19.82
  -1 -11   4   63.61   17.34
   1  11  -4   57.37   14.52
  -1  11   4   69.21   17.57
   0 -11  -4   37.36   12.60
   0  11  -4   30.71   13.08
   0 -11   4   48.02   18.00
   0 -11   4    8.26   10.88
   0  11  -4   36.32   13.59
   0 -11  -4   27.09   12.47
  -1  11  -4    3.16    6.88
   1 -11   4   12.90   13.11
   1 -11   4   -0.82   12.02
  -1  11  -4    1.06    7.45
  -3  12   4   -3.92    9.62
   3 -12  -4   12.89   16.71
   3 -12  -4   -8.22   12.04
  -3  12   4   -1.15    9.08
   2 -12  -4   43.42   15.17
   2 -12  -4   40.50   15.20
   2  12  -4   28.99   12.14
  -2  12   4   22.77   13.24
  -2 -12   4   25.32   12.30
   2  12  -4   25.46   10.43
  -2  12   4   47.46   17.51
   1 -12  -4   20.69   10.88
   1 -12  -4   -9.82   12.33
   1  12  -4    6.40    8.85
  -1  12   4    2.44   10.40
  -1 -12   4  -11.45   15.84
  -1 -12   4   16.29   13.32
   1  12  -4   -1.31    7.74
  -1  12   4   26.15   12.31
   0 -12  -4    1.08    8.47
   0  12  -4    7.55    9.09
   0 -12   4  -16.95   13.66
   0 -12   4  -14.41   18.06
   0  12  -4   -9.86   11.27
   0 -12  -4   11.13   10.13
  -1  12  -4   65.77   15.72
   1 -12   4   49.21   19.51
   1 -12   4   29.89   15.58
   3 -13  -4    6.73   14.53
   3 -13  -4    1.21   12.65
  -3  13   4    0.47    8.89
   2 -13  -4   64.19   17.55
   2 -13  -4   68.75   19.08
   2  13  -4   31.15   10.75
  -2  13   4   44.08   17.51
   2  13  -4   34.97   10.94
   1 -13  -4   15.64    9.89
   1 -13  -4  -11.26   11.51
   1  13  -4   11.45   10.20
  -1  13   4   18.75   16.29
  -1 -13   4   27.95   15.71
   0 -13  -4  -12.19    9.47
   0  13  -4    4.03    9.46
  -1  13  -4   19.91    9.78
   3   0  -5    2.87    5.23
   3   0  -5  -13.34    9.92
  -3   0   5   -0.51    6.08
   3   0  -5   -5.49    8.11
   2   0  -5    7.61    6.41
   2   0  -5   -5.91    8.48
   2   0  -5   12.03    8.36
  -2   0   5    5.23    7.93
  -2   0   5    9.32    8.74
  -2   0   5   -1.73    5.74
  -2   0   5   -0.68    6.51
   2   0  -5    6.78    5.73
   1   0  -5    4.35    8.07
   1   0  -5    4.59    6.12
  -1   0   5  -15.23   10.38
  -1   0   5  -10.33   11.69
  -1   0   5    3.04    6.26
  -1   0   5    6.11    6.68
   1   0  -5   -3.18    5.40
   1   0  -5    0.22    5.44
   0   0  -5  -11.84    8.90
   0   0  -5    4.81    6.05
   0   0   5   -3.35    9.15
   0   0  -5    6.84    6.58
   0   0  -5   -4.17    6.80
   3  -1  -5   88.66   17.96
   3  -1  -5   95.96   17.10
   3   1  -5  107.63   18.44
   3   1  -5   91.68   15.61
   3  -1  -5   90.41   16.46
  -3  -1   5  109.22   17.69
  -3   1   5   82.32   14.60
   3   1  -5   83.84   14.55
   2  -1  -5    3.14    7.21
   2  -1  -5    4.37    6.48
   2   1  -5   -1.89    6.82
   2   1  -5   -3.05    6.94
   2  -1  -5   12.13   10.23
  -2  -1   5  -13.67    9.12
  -2   1   5    9.10    8.05
  -2   1   5    0.15    7.52
  -2  -1   5    4.49    7.10
  -2   1   5   -2.16    6.26
  -2  -1   5    8.30    8.38
   2   1  -5   22.03    8.70
   1  -1  -5    7.05    5.93
   1   1  -5    0.00    6.48
   1   1  -5    6.07    6.49
   1  -1  -5   19.00   10.46
  -1  -1   5    9.23    8.17
  -1   1   5   24.50   11.59
  -1   1   5   -4.70    9.26
  -1  -1   5  -14.95   10.71
  -1   1   5   16.54    9.85
  -1   1   5    7.80    7.38
  -1  -1   5   11.18    8.54
   1   1  -5    7.12    4.96
   1  -1  -5   10.64    6.38
   1  -1  -5   12.80    7.14
   0  -1  -5   19.67    8.78
   0   1  -5   35.62   11.28
   0   1  -5   21.14    9.46
   0  -1  -5   28.96    9.80
   0   1   5    7.39   12.01
   0  -1   5   29.31   13.48
   0   1  -5   21.00    8.26
   0  -1  -5   15.44    7.62
   3  -2  -5   50.30   13.40
   3  -2  -5   47.74   13.44
   3   2  -5   38.38   11.38
   3   2  -5   25.74    9.74
   3  -2  -5   42.34   10.91
  -3  -2   5   37.87   11.13
  -3   2   5   29.44    8.83
   3   2  -5   30.90    9.83
   2  -2  -5  270.10   27.50
   2   2  -5  280.74   27.79
   2   2  -5  273.69   25.97
   2  -2  -5  267.98   25.79
  -2  -2   5  281.46   27.99
  -2   2   5  253.05   25.72
  -2   2   5  268.36   30.55
  -2  -2   5  247.19   29.28
  -2   2   5  257.90   27.83
  -2  -2   5  257.43   25.37
   2   2  -5  298.37   26.92
   2  -2  -5  302.30   28.38
   1  -2  -5  150.76   20.78
   1   2  -5  130.36   19.98
   1   2  -5  160.10   20.14
   1  -2  -5  140.35   18.25
  -1  -2   5  136.59   20.98
  -1   2   5  136.19   19.82
  -1   2   5  157.75   25.62
  -1  -2   5  159.12   24.90
  -1   2   5  153.40   22.62
  -1  -2   5  159.93   22.14
   1   2  -5  163.60   19.05
   1  -2  -5  157.42   19.97
   0  -2  -5  116.67   18.45
   0   2  -5  115.13   17.72
   0   2  -5  122.22   17.05
   0  -2  -5  121.36   17.21
   0   2   5  143.48   27.07
   0  -2   5  124.98   23.86
   0   2  -5  119.33   16.27
   0  -2  -5  103.57   17.17
   3  -3  -5   59.33   15.42
   3  -3  -5   41.07   10.43
   3   3  -5   58.40   14.22
   3   3  -5   50.77   11.95
   3  -3  -5   49.34   12.75
  -3   3   5   43.06   12.58
  -3   3   5   40.15   13.37
  -3  -3   5   68.26   14.35
   3   3  -5   40.46   10.31
   2  -3  -5    5.19    7.37
   2  -3  -5   12.05    7.03
   2   3  -5   27.96   10.76
   2   3  -5   18.23    8.21
   2  -3  -5   27.78    9.70
  -2  -3   5    7.02    9.57
  -2   3   5    3.79    7.23
  -2   3   5   -0.41   10.63
  -2  -3   5   -0.74    7.24
  -2   3   5   11.56    9.44
  -2  -3   5   20.85    8.67
   2   3  -5   -0.17    7.23
   1  -3  -5   49.44   12.73
   1   3  -5   45.75   12.53
   1   3  -5   39.54   11.40
   1  -3  -5   45.16   10.50
  -1  -3   5   38.36   13.55
  -1   3   5   57.42   13.48
  -1   3   5   52.18   16.46
  -1  -3   5   37.85   13.86
  -1   3   5   46.26   13.69
  -1  -3   5   41.26   14.36
   1   3  -5   47.51   12.67
   1  -3  -5   35.98   10.96
   0  -3  -5    8.63    7.19
   0   3  -5   14.23    6.82
   0   3  -5   22.90    9.54
   0  -3  -5   22.48    8.43
   0  -3   5   24.55   12.28
   0  -3   5    9.36    9.41
   0   3  -5   25.99    9.30
   0  -3  -5   17.25   10.50
   3  -4  -5    2.62    7.51
   3  -4  -5   -9.25    8.45
   3   4  -5   -6.49    7.39
   3  -4  -5    7.11    8.18
  -3   4   5    9.12    9.23
  -3   4   5   -7.04    9.32
  -3  -4   5   14.62    9.63
   3   4  -5   13.26    7.34
   2  -4  -5   74.82   14.99
   2  -4  -5   62.99   13.97
   2   4  -5   54.10   13.91
   2   4  -5   44.24   11.50
   2  -4  -5   75.26   14.15
  -2  -4   5   47.96   13.42
  -2   4   5   70.23   14.53
  -2   4   5   56.03   16.37
  -2  -4   5   51.30   14.10
  -2   4   5   72.62   17.25
  -2  -4   5   49.99   13.15
   2   4  -5   63.74   13.88
   1  -4  -5   88.01   16.64
   1   4  -5   80.74   16.92
   1   4  -5   94.50   15.64
   1  -4  -5   97.70   15.75
  -1  -4   5   93.30   17.55
  -1   4   5   85.67   16.24
  -1   4   5   81.68   19.21
  -1  -4   5   79.86   18.61
  -1   4   5   68.07   15.76
  -1  -4   5  105.31   19.04
   1   4  -5   98.69   16.24
   1  -4  -5   85.54   16.09
   0  -4  -5    1.80    8.42
   0   4  -5    4.80    6.83
   0   4  -5    7.39    6.64
   0  -4   5   24.45   13.90
   0   4   5    9.01    8.61
   0  -4   5    2.98    8.98
   0   4  -5  -11.55    7.62
   0  -4  -5    8.94    9.72
   3  -5  -5   -0.25    8.67
   3  -5  -5   28.94   11.67
   3   5  -5   32.45   10.30
  -3   5   5   26.42   10.75
  -3   5   5   31.13   16.16
  -3   5   5   18.04   13.29
   3   5  -5   30.49   12.68
   2  -5  -5  144.29   21.65
   2  -5  -5  162.57   22.29
   2   5  -5  172.20   22.65
   2   5  -5  172.18   21.29
   2  -5  -5  183.97   22.48
  -2  -5   5  160.57   22.40
  -2   5   5  162.54   19.86
  -2   5   5  159.59   24.50
  -2  -5   5  150.57   23.09
  -2   5   5  177.25   26.30
  -2  -5   5  187.30   24.55
   2   5  -5  145.96   19.22
   1   5  -5   39.23   21.89
   1  -5  -5   13.44    8.15
   1  -5  -5    6.71    6.76
  -1  -5   5    6.20    8.48
  -1   5   5    7.83    8.48
  -1   5   5   15.62   12.47
  -1  -5   5   57.32   18.59
  -1   5   5    0.31    8.56
  -1  -5   5   29.51   14.91
   1   5  -5   26.39   21.84
   1  -5  -5    1.40    7.36
   0  -5  -5   11.50    8.08
   0   5  -5    8.30    7.00
   0   5  -5    1.29    7.31
   0  -5   5   26.47   12.44
   0  -5   5   12.94   14.66
   0   5   5   22.88   12.55
   0  -5   5    8.18   10.36
   0   5  -5    2.26    5.49
   0  -5  -5   11.63    9.07
   3  -6  -5   -5.69    6.96
   3  -6  -5   -5.31    6.09
   3   6  -5   -3.70    8.20
   3  -6  -5  -14.96   12.68
  -3   6   5  -10.92   11.98
  -3   6   5    8.47   10.95
   3   6  -5    9.68    8.56
   2  -6  -5   30.39   10.94
   2  -6  -5   27.60    9.52
   2   6  -5   21.00    6.80
   2   6  -5   35.60    9.49
   2  -6  -5   36.94   11.69
  -2  -6   5   13.22    7.09
  -2   6   5   19.26    8.09
  -2   6   5   48.58   16.17
  -2  -6   5   21.59   12.08
  -2   6   5   45.84   15.66
  -2  -6   5   35.33   12.46
   2   6  -5   35.00   12.58
   1  -6  -5   65.03   15.39
   1   6  -5   80.18   15.71
   1   6  -5   81.83   15.43
   1  -6  -5   71.04   14.12
  -1  -6   5   66.31   15.17
  -1   6   5   49.78   13.36
  -1   6   5   75.92   18.21
  -1  -6   5   74.65   19.58
  -1   6   5   66.47   17.36
  -1  -6   5   73.42   17.43
   1   6  -5   65.86   15.50
   1  -6  -5   63.77   15.26
   0  -6  -5   -3.02    6.30
   0   6  -5   10.10    7.31
   0  -6   5   -2.84    9.22
   0  -6   5    0.88   12.14
   0   6  -5   -3.48    7.92
   0  -6  -5   -5.15    9.08
  -3   7   5    8.61    9.35
   3   7  -5    6.73   10.63
   2  -7  -5    6.90    8.50
   2  -7  -5   -8.30    7.43
  -2   7   5   -5.78    9.94
  -2   7   5  -16.53   11.28
  -2  -7   5   -1.99    8.19
   2   7  -5    9.33    7.17
   1  -7  -5   13.66    9.11
  -1   7   5   17.05   14.63
  -1   7   5    4.54   11.99
  -1  -7   5    1.51    9.78
  -1  -7   5    6.13   10.12
   1   7  -5   -8.66    8.20
   1  -7  -5   -3.30    8.93
   0  -7  -5    4.25    6.94
   0   7  -5    0.05    5.74
   0  -7   5  -16.16   13.34
   0  -7   5   -5.24   10.66
   0   7  -5    3.81    6.07
   0  -7  -5   -3.82    8.71
  -3   8   5   -3.30    7.29
   3  -8  -5    9.26    9.21
   3   8  -5    7.51    9.52
  -3   8   5   15.15   10.49
   3   8  -5    1.89    9.44
   2   8  -5   85.72   20.12
  -2   8   5   29.67   15.33
  -2  -8   5   41.16   23.93
  -2  -8   5   23.22   12.02
   2   8  -5   95.11   29.52
   1   8  -5   62.80   14.25
  -1   8   5   45.21   14.81
  -1  -8   5   56.98   16.67
  -1  -8   5   73.15   19.83
   1   8  -5   36.28   10.62
   1  -8  -5   63.48   17.00
   0   8  -5   26.30   11.31
   0  -8   5   -2.42   12.17
   0  -8   5    2.23   13.22
   0   8  -5   15.71    8.89
   0  -8  -5   15.99    8.82
  -3   9   5   27.27   11.06
   3  -9  -5   17.74   13.60
   3  -9  -5   22.94   13.02
   3   9  -5   18.89   14.86
  -3   9   5  -12.60   12.56
   3   9  -5  -14.58   11.54
   2  -9  -5  131.66   23.62
   2  -9  -5  105.23   19.23
   2   9  -5  125.24   19.50
  -2   9   5  118.75   23.76
  -2  -9   5  132.89   23.57
  -2  -9   5  105.97   21.43
   2   9  -5  121.58   20.31
  -2   9   5  142.03   24.19
   1  -9  -5   -5.97    9.06
   1   9  -5   -0.88    7.64
  -1   9   5    0.51   11.29
  -1  -9   5   32.38   15.99
  -1  -9   5    1.59   11.17
   1   9  -5   14.94   10.77
  -1   9   5   -7.53   10.64
   1  -9  -5   -1.53    9.49
   0  -9  -5    4.12   12.57
   0   9  -5   -7.96    9.62
   0  -9   5  -22.46   16.02
   0  -9   5   -6.92   13.84
   0   9  -5   14.08   10.21
   0  -9  -5   20.06   14.21
   3 -10  -5   25.41   17.00
   3 -10  -5    8.87   11.71
  -3  10   5    8.52   13.27
  -3  10   5   11.16   10.08
   2 -10  -5    8.74    9.64
   2 -10  -5   12.16   10.02
   2  10  -5   19.07   12.64
  -2  10   5   36.56   18.85
  -2 -10   5   -2.22   11.13
  -2 -10   5    6.06    9.25
   2  10  -5   27.40   11.96
  -2  10   5   13.71   10.44
   1 -10  -5   -2.41    9.78
   1 -10  -5   18.01   13.40
   1  10  -5  -11.53   11.01
  -1  10   5   -9.66   12.68
  -1 -10   5   -7.08   11.88
  -1 -10   5    2.62   13.25
   1  10  -5   -2.77    9.07
  -1  10   5    8.39    9.37
   0  10  -5   30.37   12.38
   0 -10   5   40.04   17.98
   0 -10   5   36.47   14.57
   0  10  -5   57.47   14.52
   3 -11  -5    2.30   12.39
   3 -11  -5   -7.19   10.67
  -3  11   5   -1.19    9.74
   2 -11  -5    6.51    8.24
   2 -11  -5   18.84   13.55
   2  11  -5   10.42   12.37
  -2 -11   5   36.32   17.18
   2  11  -5  -26.90   12.28
  -2  11   5   14.06   13.44
   1 -11  -5   -7.77    9.16
   1 -11  -5   24.30   15.38
   1  11  -5   28.26   14.21
  -1 -11   5  -18.76   17.11
   1  11  -5    0.64    9.63
  -1  11   5  -16.08   14.75
   0  11  -5   -4.14    7.73
   0 -11   5    8.38   12.71
   0  11  -5   -4.36    8.17
   3 -12  -5   21.83   18.28
   2 -12  -5  -19.85   15.74
   2  12  -5   -5.28   12.40
   2  12  -5   -9.72    7.25
   1 -12  -5  -10.19   10.12
   1  12  -5    2.07   10.74
   1  12  -5   -1.15    8.00
   3   0  -6   17.66   12.40
   3   0  -6   43.72   13.43
  -3   0   6   25.56   12.22
  -3   0   6    9.68   10.74
   2   0  -6  200.29   26.82
   2   0  -6  202.17   25.29
  -2   0   6  174.89   26.15
  -2   0   6  192.46   30.23
   1   0  -6   88.29   18.17
   1   0  -6  123.08   20.22
  -1   0   6   91.80   17.87
  -1   0   6  132.48   28.32
   0   0  -6   23.85   10.33
   3  -1  -6   51.77   13.65
   3  -1  -6   25.95   11.58
   3   1  -6   10.62    7.71
   3   1  -6   39.42   12.91
   3  -1  -6   45.89   14.06
  -3  -1   6   26.19   11.00
  -3   1   6   45.27   13.84
  -3   1   6   74.76   19.56
  -3  -1   6   55.93   16.28
  -3   1   6   21.42   11.25
   3   1  -6   32.00   13.26
   2  -1  -6   35.21   13.50
   2   1  -6   48.46   14.12
   2   1  -6   44.10   12.48
   2  -1  -6   35.23   12.20
  -2  -1   6   41.67   14.63
  -2   1   6   17.85   10.16
  -2   1   6   27.95   10.91
  -2  -1   6   50.29   17.18
  -2   1   6   49.62   14.00
  -2  -1   6   48.43   15.21
   2   1  -6   29.62   11.11
   1  -1  -6    3.18    7.02
   1   1  -6   16.26    9.05
   1   1  -6   29.78   12.40
   1  -1  -6    6.59    8.41
  -1  -1   6   16.50   10.59
  -1   1   6   24.04   14.90
  -1   1   6   17.70   13.96
  -1  -1   6    4.78   11.98
  -1  -1   6  -14.13   13.16
   1   1  -6   17.19    8.65
   0  -1  -6   46.56   13.67
   0   1  -6   38.97   13.64
   0   1  -6   51.50   13.32
   0  -1   6   58.42   17.72
   3  -2  -6   19.15    8.19
   3  -2  -6   12.02    6.92
   3   2  -6   30.86   11.78
   3   2  -6   12.87    7.48
   3  -2  -6   42.56   18.04
  -3  -2   6   18.28    9.95
  -3   2   6   10.88   10.24
  -3   2   6   40.01   16.64
  -3  -2   6    5.72   11.57
  -3   2   6   11.49    9.60
   3   2  -6   31.55   13.09
   2  -2  -6    2.84    7.32
   2  -2  -6   12.95   10.40
   2   2  -6   18.32   10.29
   2   2  -6    8.59    9.57
   2  -2  -6    9.84    7.01
  -2  -2   6   16.81   12.51
  -2   2   6   12.49    8.33
  -2   2   6   17.90   11.48
  -2  -2   6    4.80   11.19
  -2   2   6   22.12   11.21
  -2  -2   6   15.81    9.91
   2   2  -6   17.43    8.85
   1  -2  -6  -15.63    6.35
   1  -2  -6    6.52    8.35
   1   2  -6    6.65    7.64
   1   2  -6   -2.55    6.58
   1  -2  -6    8.42    8.29
  -1  -2   6   26.14   18.21
  -1   2   6    2.26    9.11
  -1   2   6   -3.01   11.59
  -1  -2   6    9.58   13.16
  -1   2   6   15.92   13.70
  -1  -2   6    5.39   10.35
   1   2  -6    7.89    6.69
   0  -2  -6   43.45   14.60
   0   2  -6   61.66   15.11
   0   2  -6   36.40   10.94
   0  -2   6   40.12   15.54
   0  -2  -6   32.34    6.93
  -4   3   6   21.42   10.68
   3  -3  -6   33.83   14.35
   3  -3  -6   45.31   14.10
   3   3  -6   43.49   13.89
   3   3  -6   28.86   11.46
   3  -3  -6   40.16   10.58
  -3   3   6   36.71   13.42
  -3   3   6   14.33   11.64
  -3  -3   6   34.04   14.12
  -3   3   6   51.41   17.11
  -3  -3   6   34.14   13.29
   3   3  -6   44.96   14.50
   2  -3  -6   -1.20    7.02
   2  -3  -6    1.65    8.18
   2   3  -6   18.64    9.61
   2   3  -6   13.46    7.66
   2  -3  -6   14.00    7.25
  -2  -3   6    4.43    9.49
  -2   3   6    5.92    8.34
  -2   3   6    4.65    9.89
  -2  -3   6   -2.64   10.85
  -2   3   6   30.92   14.99
  -2  -3   6   13.89    8.01
   2   3  -6   16.41    9.35
   1  -3  -6    6.34    8.12
   1  -3  -6    7.74    7.84
   1   3  -6   11.43    8.29
   1   3  -6    1.51    7.47
   1  -3  -6   19.11   11.52
  -1  -3   6    2.40    9.60
  -1   3   6   13.25   12.52
  -1   3   6   16.16   16.22
  -1  -3   6    4.56   10.92
  -1   3   6  -15.71   11.58
  -1  -3   6   15.07   14.07
   1   3  -6    6.54    9.55
   0  -3  -6   19.60   12.25
   0   3  -6   -1.17    7.09
   0  -3   6   16.28   12.36
   0  -3   6   -8.79   11.82
   0   3  -6   15.14    8.15
   0  -3  -6    4.63    9.00
  -4   4   6   24.64   11.80
   3  -4  -6    0.05    8.54
   3  -4  -6    2.99    8.11
   3   4  -6   14.19    9.34
   3   4  -6   19.05   11.89
   3  -4  -6   -6.26   10.40
  -3   4   6   -1.56   10.19
  -3   4   6   14.71   13.81
  -3  -4   6    3.48   11.09
  -3   4   6   -5.49   12.43
  -3  -4   6   22.80   11.33
   3   4  -6    1.91    7.81
   2  -4  -6   71.23   17.50
   2  -4  -6   66.70   17.00
   2   4  -6   79.59   17.24
   2   4  -6   71.50   16.36
   2  -4  -6   61.78   14.56
  -2  -4   6  109.26   23.50
  -2   4   6   56.14   16.00
  -2   4   6   68.57   19.65
  -2  -4   6   74.88   20.95
  -2   4   6   75.78   19.22
  -2  -4   6   75.55   17.62
   2   4  -6   79.78   17.29
   1  -4  -6   37.29   12.77
   1  -4  -6   17.65   12.03
   1   4  -6   32.62   11.87
   1   4  -6   39.61   12.57
   1  -4  -6   28.43   11.92
  -1  -4   6   35.53   14.97
  -1   4   6   17.36   12.14
  -1   4   6   21.11   13.91
  -1  -4   6   26.83   13.65
  -1   4   6   13.44   10.04
  -1  -4   6   54.93   17.48
   1   4  -6   34.20   10.04
   0  -4  -6   16.57   10.77
   0   4  -6   13.57    8.28
   0  -4   6    3.26   10.14
   0  -4   6   22.68   13.59
   0   4  -6   13.73    8.14
   0  -4  -6   -3.78    8.78
  -4   5   6  -13.67   10.19
   3  -5  -6   15.43   11.10
   3  -5  -6    9.44    8.88
   3   5  -6   -7.99   10.46
   3  -5  -6    0.94   11.48
  -3   5   6   -5.92    9.88
  -3   5   6   18.52   12.93
  -3  -5   6   21.20   14.12
  -3   5   6    7.19   10.51
  -3  -5   6  -15.14   12.42
   3   5  -6    8.44   10.62
   2  -5  -6    6.53    8.11
   2  -5  -6    9.57    8.52
   2   5  -6  -13.42   11.27
   2   5  -6    7.62    7.59
   2  -5  -6   23.57    9.66
  -2  -5   6   -6.81   10.95
  -2   5   6  -12.83   14.42
  -2   5   6   -0.49   11.93
  -2  -5   6    6.70   14.43
  -2   5   6   -9.46    9.12
  -2  -5   6   -1.40   10.19
   2   5  -6    1.25    8.41
   1  -5  -6   -0.34    7.66
   1  -5  -6   -0.03    7.12
   1   5  -6    5.64    8.41
   1   5  -6    8.29    9.19
   1  -5  -6   -1.07    8.14
  -1  -5   6   -8.24   10.79
  -1   5   6   14.39   11.13
  -1   5   6   -2.14   11.74
  -1  -5   6   -5.00   16.56
  -1   5   6   -8.35   10.28
  -1  -5   6  -15.10   11.87
   1   5  -6   11.07    9.39
   0   5  -6   43.42   13.24
   0  -5   6   38.85   14.56
   0   5  -6   32.22   11.57
  -4   6   6   -1.40    6.73
   3  -6  -6   33.78   13.55
   3  -6  -6   16.62   10.47
   3   6  -6   33.26   13.28
   3  -6  -6   40.39   16.27
  -3   6   6   16.80    9.60
  -3   6   6   35.47   15.39
  -3  -6   6    3.43   14.18
  -3   6   6   66.02   19.24
   3   6  -6   42.05   15.33
   2  -6  -6   62.46   17.78
   2  -6  -6   68.22   16.56
   2   6  -6   58.81   16.17
   2   6  -6   60.87   15.18
   2  -6  -6   46.49   13.55
  -2  -6   6   67.78   20.30
  -2   6   6   37.42   14.46
  -2   6   6   62.38   20.87
  -2  -6   6   68.17   22.86
  -2   6   6   47.99   18.11
  -2  -6   6   55.45   18.36
   2   6  -6   68.78   15.50
   1  -6  -6   29.47   12.05
   1  -6  -6   44.68   16.63
   1   6  -6   31.97   10.14
   1  -6  -6   41.97   11.03
  -1  -6   6   54.03   19.19
  -1   6   6   34.98   13.10
  -1   6   6   61.73   20.71
  -1  -6   6   44.69   19.04
   1   6  -6   33.95   11.50
   0  -6   6   62.65   19.31
   0  -6   6   91.62   23.84
   0   6  -6  115.42   19.75
   3  -7  -6   22.65   13.44
  -3   7   6   16.67   12.14
   3   7  -6    0.79    9.92
   2  -7  -6  -21.09   12.46
   2  -7  -6   31.66   14.07
  -2   7   6   -2.67   15.19
  -2   7   6   26.18   17.06
  -2  -7   6    4.32    9.99
   2   7  -6    9.39    9.64
   1  -7  -6  -16.38   10.07
   1  -7  -6   -7.61    8.03
  -1   7   6   -3.15   11.46
  -1  -7   6    0.08   14.00
   1   7  -6   -0.42    7.93
   0   7  -6   -1.31    8.77
   3  -8  -6  -14.48   13.30
   3   8  -6    2.42    9.96
   2  -8  -6   30.13   15.82
   2   8  -6   10.99   12.35
   1  -8  -6    7.32   15.41
   1   8  -6   11.29   10.77
   0   8  -6   -3.15    8.05
   3   0  -7   11.84    8.93
   3   0  -7   -5.60   11.12
   2   0  -7   -6.58   10.35
   2   0  -7   -7.53    9.55
   1   0  -7   -9.97   10.26
   1   0  -7   -3.53    9.70
   3  -1  -7  -10.59   10.49
   3   1  -7    5.90    9.66
   3   1  -7   15.96   12.20
   3  -1  -7   -5.59   11.08
   2  -1  -7   -3.57    7.65
   2   1  -7  -13.48   11.23
   2   1  -7   -4.02    9.50
   2  -1  -7   23.34   13.02
   1  -1  -7   13.03    8.54
   1   1  -7   23.78   13.48
   1   1  -7   22.21   11.72
   1  -1  -7   11.16   10.17
   3  -2  -7   76.25   19.10
   3   2  -7   63.32   18.58
   3   2  -7   80.47   17.27
   3  -2  -7   81.87   21.17
   2  -2  -7  -21.33   15.19
   2   2  -7   19.22   11.02
   2   2  -7    7.66   12.09
   2  -2  -7  -18.89   10.89
  -2  -2   7    8.49   13.59
   1  -2  -7   -2.64   11.20
   1   2  -7   -9.34    8.92
   1   2  -7   -8.56   10.34
   1  -2  -7    2.87    7.29
  -1  -2   7   -7.15   15.46
   3  -3  -7   39.90   17.23
   3   3  -7   19.52   13.11
   3  -3  -7   23.72   13.32
   3   3  -7   35.80   15.51
   2  -3  -7    1.01   10.10
   2   3  -7   -9.25    8.17
   2   3  -7  -16.01   12.03
   2  -3  -7  -20.28    9.39
  -2   3   7  -12.01   12.37
   2   3  -7    1.22   13.19
   1   3  -7    3.37    9.73
   1   3  -7   -0.94    6.91
   1  -3  -7  -10.07   10.59
   1   3  -7    2.04    7.58
   3  -4  -7   43.13   17.23
   3   4  -7   25.53   14.22
   2  -4  -7   42.77   17.01
   2   4  -7   26.81   11.99
   2  -4  -7   49.48   14.93
   2   4  -7   50.41   16.12
   1  -4  -7   -5.31   11.85
   1   4  -7    4.12    9.38
   1   4  -7    0.07    9.20
   2   5  -7    2.51    8.63
   1   5  -7  -20.69   13.07
   0   0   0    0.00    0.00


TITL 1a in P2(1)/c
REM P2(1)/c (#14 in standard setting)
CELL 0.71073   7.877879  13.244585   5.713393  90.0000 101.1403  90.0000
ZERR   16.00   0.011949   0.001537   0.001108   0.0000   0.0604   0.0000
LATT  1
SYMM -x, y+1/2,-z+1/2
SFAC C H N Cl
UNIT 64.00 32.00 80.00 16.00
TREF
HKLF 4
END
_computing_structure_solution     'SHELXT 2014/5 (Sheldrick, 2014)'
;
_shelx_hkl_checksum              84058
_olex2_submission_special_instructions 'No special instructions were received'
_oxdiff_exptl_absorpt_empirical_details
;
Empirical correction (ABSPACK) includes:
- Absorption correction using spherical harmonics
- Frame scaling
;
_oxdiff_exptl_absorpt_empirical_full_max 1.768
_oxdiff_exptl_absorpt_empirical_full_min 0.619
loop_
_space_group_symop_operation_xyz
'x, y, z'
'-x, y+1/2, -z+1/2'
'-x, -y, -z'
'x, -y-1/2, z-1/2'
loop_
_atom_site_label
_atom_site_type_symbol
_atom_site_fract_x
_atom_site_fract_y
_atom_site_fract_z
_atom_site_U_iso_or_equiv
_atom_site_adp_type
_atom_site_occupancy
_atom_site_site_symmetry_order
_atom_site_calc_flag
_atom_site_refinement_flags_posn
_atom_site_refinement_flags_adp
_atom_site_refinement_flags_occupancy
_atom_site_disorder_assembly
_atom_site_disorder_group
Cl1 Cl 1.0272(7) 0.33900(8) 0.8387(3) 0.082(3) Uani 1 1 d . . . . .
N4 N 0.563(6) 0.3541(4) 0.536(3) 0.068(19) Uani 1 1 d . . . . .
N5 N 0.693(4) 0.3316(3) 0.6974(14) 0.031(11) Uani 1 1 d . . . . .
N1 N 0.390(4) 0.4160(6) 0.2271(14) 0.073(14) Uani 1 1 d . . . . .
N3 N 0.398(4) 0.3381(5) 0.570(3) 0.050(15) Uani 1 1 d . . . . .
N2 N 0.292(2) 0.3752(3) 0.3821(11) 0.067(10) Uani 1 1 d . . . . .
C8 C 0.712(3) 0.4242(3) 0.2574(17) 0.044(11) Uani 1 1 d . . . . .
H8 H 0.715217 0.455216 0.112459 0.053 Uiso 1 1 calc R U . . .
C6 C 0.850(3) 0.3573(4) 0.636(2) 0.049(13) Uani 1 1 d . . . . .
C9 C 0.549(6) 0.4002(6) 0.322(2) 0.062(19) Uani 1 1 d . . . . .
C7 C 0.857(3) 0.4010(3) 0.4098(10) 0.054(13) Uani 1 1 d . . . . .
H7 H 0.964161 0.413346 0.368643 0.065 Uiso 1 1 calc R U . . .
loop_
_atom_site_aniso_label
_atom_site_aniso_U_11
_atom_site_aniso_U_22
_atom_site_aniso_U_33
_atom_site_aniso_U_23
_atom_site_aniso_U_13
_atom_site_aniso_U_12
Cl1 0.129(10) 0.0651(7) 0.0515(10) 0.0088(7) 0.017(3) 0.0042(14)
N4 0.13(6) 0.034(2) 0.044(8) 0.002(3) 0.040(16) 0.003(8)
N5 0.01(4) 0.040(2) 0.037(4) -0.001(2) -0.006(10) -0.006(5)
N1 0.13(4) 0.039(3) 0.052(5) 0.004(3) 0.016(12) 0.013(5)
N3 0.05(5) 0.050(2) 0.051(5) -0.005(3) 0.004(15) -0.003(6)
N2 0.09(3) 0.051(2) 0.065(4) -0.007(3) 0.011(10) 0.005(5)
C8 0.06(3) 0.038(2) 0.037(4) 0.001(2) 0.021(11) -0.003(5)
C6 0.07(4) 0.035(2) 0.048(6) 0.000(2) 0.023(14) 0.000(6)
C9 0.12(6) 0.027(3) 0.039(7) 0.003(3) 0.027(19) 0.014(9)
C7 0.09(4) 0.040(2) 0.035(4) 0.001(2) 0.014(10) 0.006(5)
loop_
_atom_type_symbol
_atom_type_description
_atom_type_scat_dispersion_real
_atom_type_scat_dispersion_imag
_atom_type_scat_source
C C 0.0033 0.0016 'International Tables Vol C Tables 4.2.6.8 and 6.1.1.4'
H H 0.0000 0.0000 'International Tables Vol C Tables 4.2.6.8 and 6.1.1.4'
Cl Cl 0.1484 0.1585 'International Tables Vol C Tables 4.2.6.8 and 6.1.1.4'
N N 0.0061 0.0033 'International Tables Vol C Tables 4.2.6.8 and 6.1.1.4'
loop_
_geom_angle_atom_site_label_1
_geom_angle_atom_site_label_2
_geom_angle_atom_site_label_3
_geom_angle
_geom_angle_site_symmetry_1
_geom_angle_site_symmetry_3
_geom_angle_publ_flag
N5 N4 N3 121.0(11) . . ?
N5 N4 C9 133(5) . . ?
C9 N4 N3 106(4) . . ?
N4 N5 C6 112.8(14) . . ?
C9 N1 N2 106.3(12) . . ?
N2 N3 N4 107.0(16) . . ?
N3 N2 N1 108.9(18) . . ?
C9 C8 H8 120.7 . . ?
C7 C8 H8 120.7 . . ?
C7 C8 C9 118.6(9) . . ?
N5 C6 Cl1 117.3(10) . . ?
N5 C6 C7 122(3) . . ?
C7 C6 Cl1 121.0(19) . . ?
N4 C9 C8 114(4) . . ?
N1 C9 N4 111(4) . . ?
N1 C9 C8 134.4(13) . . ?
C8 C7 C6 120(2) . . ?
C8 C7 H7 120.0 . . ?
C6 C7 H7 120.0 . . ?
loop_
_geom_bond_atom_site_label_1
_geom_bond_atom_site_label_2
_geom_bond_distance
_geom_bond_site_symmetry_2
_geom_bond_publ_flag
Cl1 C6 1.65(2) . ?
N4 N5 1.27(6) . ?
N4 N3 1.37(6) . ?
N4 C9 1.351(14) . ?
N5 C6 1.39(4) . ?
N1 N2 1.39(3) . ?
N1 C9 1.28(6) . ?
N3 N2 1.32(3) . ?
C8 H8 0.9300 . ?
C8 C9 1.44(6) . ?
C8 C7 1.34(4) . ?
C6 C7 1.426(12) . ?
C7 H7 0.9300 . ?
loop_
_geom_torsion_atom_site_label_1
_geom_torsion_atom_site_label_2
_geom_torsion_atom_site_label_3
_geom_torsion_atom_site_label_4
_geom_torsion
_geom_torsion_site_symmetry_1
_geom_torsion_site_symmetry_2
_geom_torsion_site_symmetry_3
_geom_torsion_site_symmetry_4
_geom_torsion_publ_flag
Cl1 C6 C7 C8 -173.5(4) . . . . ?
N4 N5 C6 Cl1 175.9(3) . . . . ?
N4 N5 C6 C7 -1.9(7) . . . . ?
N4 N3 N2 N1 -0.5(6) . . . . ?
N5 N4 N3 N2 175.5(3) . . . . ?
N5 N4 C9 N1 -173.7(9) . . . . ?
N5 N4 C9 C8 3.8(9) . . . . ?
N5 C6 C7 C8 4.3(6) . . . . ?
N3 N4 N5 C6 -177.3(4) . . . . ?
N3 N4 C9 N1 1.7(11) . . . . ?
N3 N4 C9 C8 179.3(5) . . . . ?
N2 N1 C9 N4 -2.0(12) . . . . ?
N2 N1 C9 C8 -178.9(7) . . . . ?
C9 N4 N5 C6 -2.3(8) . . . . ?
C9 N4 N3 N2 -0.6(7) . . . . ?
C9 N1 N2 N3 1.6(9) . . . . ?
C9 C8 C7 C6 -2.6(7) . . . . ?
C7 C8 C9 N4 -0.9(8) . . . . ?
C7 C8 C9 N1 175.9(11) . . . . ?
