#------------------------------------------------------------------------------
#$Date: 2022-02-04 21:11:20 +0200 (Fri, 04 Feb 2022) $
#$Revision: 272574 $
#$URL: file:///home/coder/svn-repositories/cod/cif/1/56/55/1565590.cif $
#------------------------------------------------------------------------------
#
# This file is available in the Crystallography Open Database (COD),
# http://www.crystallography.net/
#
# All data on this site have been placed in the public domain by the
# contributors.
#
data_1565590
loop_
_publ_author_name
'Xu, Xiao'
'Bao, Longzhu'
'Ran, Lu'
'Yang, Zhenyan'
'Yan, Dingce'
'Wang, Chun-Jiang'
'Teng, Huailong'
_publ_section_title
;
 Synthesis of bioactive fluoropyrrolidines via copper(i)-catalysed
 asymmetric 1,3-dipolar cycloaddition of azomethine ylides
;
_journal_issue                   5
_journal_name_full               'Chemical Science'
_journal_page_first              1398
_journal_page_last               1407
_journal_paper_doi               10.1039/D1SC04595D
_journal_volume                  13
_journal_year                    2022
_chemical_absolute_configuration ad
_chemical_formula_moiety         'C18 H15 Br Cl F2 N O2'
_chemical_formula_sum            'C18 H15 Br Cl F2 N O2'
_chemical_formula_weight         430.67
_space_group_crystal_system      monoclinic
_space_group_IT_number           4
_space_group_name_Hall           'P 2yb'
_space_group_name_H-M_alt        'P 1 21 1'
_atom_sites_solution_hydrogens   mixed
_atom_sites_solution_primary     dual
_audit_creation_date             2020-12-15
_audit_creation_method
;
Olex2 1.3
(compiled Nov 21 2019 18:26:39 for OlexSys, GUI svn.r6003)
;
_audit_update_record
;
2021-02-23 deposited with the CCDC.	2021-12-06 downloaded from the CCDC.
;
_cell_angle_alpha                90
_cell_angle_beta                 101.3848(7)
_cell_angle_gamma                90
_cell_formula_units_Z            2
_cell_length_a                   11.04668(8)
_cell_length_b                   5.51936(5)
_cell_length_c                   14.34857(10)
_cell_measurement_reflns_used    8163
_cell_measurement_temperature    100.00(10)
_cell_measurement_theta_max      73.4030
_cell_measurement_theta_min      4.0760
_cell_volume                     857.627(12)
_computing_cell_refinement       'CrysAlisPro 1.171.39.28b (Rigaku OD, 2015)'
_computing_data_collection       'CrysAlisPro 1.171.39.28b (Rigaku OD, 2015)'
_computing_data_reduction        'CrysAlisPro 1.171.39.28b (Rigaku OD, 2015)'
_computing_molecular_graphics    'Olex2 1.3 (Dolomanov et al., 2009)'
_computing_publication_material  'Olex2 1.3 (Dolomanov et al., 2009)'
_computing_structure_refinement  'SHELXL 2018/3 (Sheldrick, 2015)'
_computing_structure_solution    'SHELXT 2014/5 (Sheldrick, 2014)'
_diffrn_ambient_environment      N~2~
_diffrn_ambient_temperature      100.00(10)
_diffrn_detector                 'CCD plate'
_diffrn_measured_fraction_theta_full 0.998
_diffrn_measured_fraction_theta_max 0.982
_diffrn_measurement_details
;
List of Runs (angles in degrees, time in seconds):

  # Type    Start    End  Width  t~exp~   \w     \q     \k     \f   Frames
#--------------------------------------------------------------------------
  1  \w    141.00 176.00   0.50    0.50    --   94.60  18.00 -53.00   70
  2  \w     21.00  60.00   0.50    0.50    --   94.60 -18.00 137.00   78
  3  \w     71.00 104.00   0.50    0.50    --   94.60 -18.00 137.00   66
  4  \w     88.00 131.00   0.50    0.50    --   94.60  18.00 -53.00   86
  5  \w     28.00  54.00   0.50    0.50    --    0.00  18.00 -53.00   52
  6  \w    -20.00  22.00   0.50    0.50    --    0.00 -16.00  25.47   84
  7  \w    -27.00  27.00   0.50    0.50    --    0.00 -77.00-180.00  108
  8  \w    -17.00  37.00   0.50    0.50    --    0.00  38.00  60.00  108
  9  \w     50.00  76.00   0.50    0.50    --    0.00  38.00  60.00   52
 10  \w    -29.00  28.00   0.50    0.50    --    0.00 -82.00 -90.00  114
 11  \w    -35.00 -10.00   0.50    0.50    --    0.00 -18.00 137.00   50
 12  \w    146.00 172.00   0.50    0.50    --   94.60  61.00 -30.00   52
 13  \w     71.00  96.00   0.50    0.50    --   94.60  61.00 -30.00   50
 14  \w      9.00  35.00   0.50    0.50    --   94.60 -61.00   0.00   52
 15  \w     71.00 106.00   0.50    0.50    --   94.60  60.00  69.66   70
 16  \w     72.00 138.00   0.50    0.50    --   94.60  61.00   0.00  132
 17  \w    143.00 184.00   0.50    0.50    --   94.60  61.00   0.00   82
 18  \w     71.00 102.00   0.50    0.50    --   94.60  61.00  30.00   62
 19  \w      7.00 107.00   0.50    0.50    --   94.60 -77.00 -60.00  200
 20  \w     68.00  93.00   0.50    0.50    --   94.60  69.00  38.05   50
 21  \w     80.00 129.00   0.50    0.50    --   94.60  30.00 120.00   98
 22  \w     69.00  94.00   0.50    0.50    --   94.60  67.00   7.57   50
 23  \w     71.00  98.00   0.50    0.50    --   94.60  61.00  90.00   54
 24  \w     79.00 105.00   0.50    0.50    --   94.60  45.00   0.00   52
 25  \w     72.00  98.00   0.50    0.50    --   94.60  61.00  60.00   52
 26  \w     74.00 118.00   0.50    0.50    --   94.60 -61.00 -90.00   88
 27  \w     79.00 179.00   0.50    0.50    --   94.60  30.00   0.00  200
 28  \w     76.00 110.00   0.50    0.50    --   94.60  45.00  60.00   68
 29  \w     72.00  97.00   0.50    0.50    --   94.60  61.00 120.00   50
 30  \w    131.00 176.00   0.50    0.50    --   94.60  61.00 120.00   90
 31  \w    153.00 179.00   0.50    0.50    --   94.60  61.00  30.00   52
 32  \w     78.00 126.00   0.50    0.50    --   94.60  30.00  90.00   96
 33  \w     76.00 102.00   0.50    0.50    --   94.60  45.00 -30.00   52
 34  \w     21.00 113.00   0.50    0.50    --   94.60 -45.00   0.00  184
 35  \w     50.00  91.00   0.50    0.50    --   94.60 -61.00   0.00   82
;
_diffrn_measurement_device       'four-circle diffractometer'
_diffrn_measurement_device_type  'XtaLAB AFC12 (RINC): Kappa single'
_diffrn_measurement_method       '\w scans'
_diffrn_orient_matrix_type
'CrysAlisPro convention (1999,Acta A55,543-557)'
_diffrn_orient_matrix_UB_11      0.1131900000
_diffrn_orient_matrix_UB_12      0.0491405000
_diffrn_orient_matrix_UB_13      -0.0450081000
_diffrn_orient_matrix_UB_21      -0.0858844000
_diffrn_orient_matrix_UB_22      0.0439012000
_diffrn_orient_matrix_UB_23      -0.0969385000
_diffrn_orient_matrix_UB_31      -0.0066230000
_diffrn_orient_matrix_UB_32      0.2712839000
_diffrn_orient_matrix_UB_33      0.0238819000
_diffrn_radiation_monochromator  graphite
_diffrn_radiation_probe          x-ray
_diffrn_radiation_type           'Cu K\a'
_diffrn_radiation_wavelength     1.54184
_diffrn_reflns_av_R_equivalents  0.0161
_diffrn_reflns_av_unetI/netI     0.0135
_diffrn_reflns_Laue_measured_fraction_full 0.998
_diffrn_reflns_Laue_measured_fraction_max 0.982
_diffrn_reflns_limit_h_max       13
_diffrn_reflns_limit_h_min       -13
_diffrn_reflns_limit_k_max       6
_diffrn_reflns_limit_k_min       -6
_diffrn_reflns_limit_l_max       17
_diffrn_reflns_limit_l_min       -16
_diffrn_reflns_number            8948
_diffrn_reflns_point_group_measured_fraction_full 0.956
_diffrn_reflns_point_group_measured_fraction_max 0.930
_diffrn_reflns_theta_full        67.684
_diffrn_reflns_theta_max         73.909
_diffrn_reflns_theta_min         3.142
_diffrn_source                   'fine-focus sealed X-ray tube'
_diffrn_source_type              'Enhance (Cu) X-ray Source'
_exptl_absorpt_coefficient_mu    5.001
_exptl_absorpt_correction_T_max  1.00000
_exptl_absorpt_correction_T_min  0.47477
_exptl_absorpt_correction_type   multi-scan
_exptl_absorpt_process_details
;
CrysAlisPro 1.171.39.28b (Rigaku Oxford Diffraction, 2015)
Empirical absorption correction using spherical harmonics,
 implemented in SCALE3 ABSPACK scaling algorithm.
;
_exptl_crystal_colour            'clear colourless'
_exptl_crystal_colour_lustre     clear
_exptl_crystal_colour_primary    colourless
_exptl_crystal_density_diffrn    1.668
_exptl_crystal_description       prism
_exptl_crystal_F_000             432
_exptl_crystal_size_max          0.4
_exptl_crystal_size_mid          0.15
_exptl_crystal_size_min          0.08
_refine_diff_density_max         0.198
_refine_diff_density_min         -0.342
_refine_diff_density_rms         0.044
_refine_ls_abs_structure_details
;
 Flack x determined using 1332 quotients [(I+)-(I-)]/[(I+)+(I-)]
 (Parsons, Flack and Wagner, Acta Cryst. B69 (2013) 249-259).
;
_refine_ls_abs_structure_Flack   -0.006(7)
_refine_ls_extinction_coef       0.0075(4)
_refine_ls_extinction_expression Fc^*^=kFc[1+0.001xFc^2^\l^3^/sin(2\q)]^-1/4^
_refine_ls_extinction_method     'SHELXL-2018/3 (Sheldrick 2018)'
_refine_ls_goodness_of_fit_ref   1.047
_refine_ls_hydrogen_treatment    mixed
_refine_ls_matrix_type           full
_refine_ls_number_parameters     232
_refine_ls_number_reflns         3235
_refine_ls_number_restraints     1
_refine_ls_restrained_S_all      1.046
_refine_ls_R_factor_all          0.0176
_refine_ls_R_factor_gt           0.0176
_refine_ls_shift/su_max          0.001
_refine_ls_shift/su_mean         0.000
_refine_ls_structure_factor_coef Fsqd
_refine_ls_weighting_details
'w=1/[\s^2^(Fo^2^)+(0.0306P)^2^+0.2243P] where P=(Fo^2^+2Fc^2^)/3'
_refine_ls_weighting_scheme      calc
_refine_ls_wR_factor_gt          0.0465
_refine_ls_wR_factor_ref         0.0466
_reflns_Friedel_coverage         0.708
_reflns_Friedel_fraction_full    0.904
_reflns_Friedel_fraction_max     0.865
_reflns_number_gt                3233
_reflns_number_total             3235
_reflns_threshold_expression     'I > 2\s(I)'
_cod_data_source_file            d1sc04595d4.cif
_cod_data_source_block           20201214_1
_cod_depositor_comments          'Adding full bibliography for 1565590.cif.'
_cod_original_cell_volume        857.627(11)
_cod_database_code               1565590
_shelx_shelxl_version_number     2018/3
_shelx_space_group_comment
;
The symmetry employed for this shelxl refinement is uniquely defined
by the following loop, which should always be used as a source of
symmetry information in preference to the above space-group names.
They are only intended as comments.
;
_shelx_estimated_absorpt_t_max   0.690
_shelx_estimated_absorpt_t_min   0.240
_reflns_odcompleteness_completeness 99.94
_reflns_odcompleteness_iscentric 1
_reflns_odcompleteness_theta     66.97
_olex2_refinement_description
;
1. Fixed Uiso
 At 1.2 times of:
  All C(H) groups
 At 1.5 times of:
  All C(H,H,H) groups
2.a Ternary CH refined with riding coordinates:
 C00A(H00A), C00H(H00H), C00N(H00N)
2.b Aromatic/amide H refined with riding coordinates:
 C00B(H00B), C00C(H00C), C00D(H00D), C00F(H00F), C00J(H00J), C00K(H00K),
 C00L(H00L), C00P(H00P)
2.c Idealised Me refined as rotating group:
 C00M(H00E,H00G,H00I)
;
_shelx_res_file
;
TITL 20201214_1_a.res in P2(1)
    20201214_1.res
    created by SHELXL-2018/3 at 10:53:15 on 15-Dec-2020
REM Old TITL 20201214_1 in P2(1)
REM SHELXT solution in P2(1)
REM R1 0.169, Rweak 0.062, Alpha 0.003, Orientation as input
REM Flack x = 0.208 ( 0.011 ) from Parsons' quotients
REM Formula found by SHELXT: C18 N O5 Br
CELL 1.54184 11.04668 5.519364 14.348567 90 101.3848 90
ZERR 2 0.00008 0.000045 0.000102 0 0.0007 0
LATT -1
SYMM -X,0.5+Y,-Z
SFAC C H Br Cl F N O
UNIT 36 30 2 2 4 2 4

L.S. 4 0 0
PLAN  5
SIZE 0.08 0.15 0.4
CONF
BOND $H
list 4
fmap 2 53
MORE -1
ACTA
REM <olex2.extras>
REM <HklSrc "%.\\20201214_1.hkl">
REM </olex2.extras>

WGHT    0.030600    0.224300
EXTI    0.007453
FVAR       0.90878
BR01  3    0.266960    0.662749   -0.015660    11.00000    0.02344    0.04533 =
         0.01864   -0.00833   -0.00483    0.01319
CL00  4    1.106734    0.068854    0.115900    11.00000    0.02207    0.02840 =
         0.02020   -0.00452    0.00701   -0.00047
F003  5    0.554876    0.585547    0.453515    11.00000    0.01732    0.03768 =
         0.01841    0.00390    0.00580   -0.00015
F004  5    0.617680    0.927670    0.403627    11.00000    0.03196    0.02084 =
         0.01973   -0.00014    0.00297    0.00923
O005  7    0.824609    0.269081    0.542694    11.00000    0.02813    0.02226 =
         0.02394    0.00308    0.00669    0.00248
O006  7    0.715847    0.486454    0.630125    11.00000    0.02064    0.03091 =
         0.01436    0.00278    0.00538   -0.00271
N007  6    0.868625    0.686206    0.443944    11.00000    0.01659    0.02303 =
         0.01411   -0.00117    0.00256   -0.00611
C008  1    0.775627    0.454551    0.558685    11.00000    0.01409    0.02337 =
         0.01481   -0.00072    0.00054   -0.00227
C009  1    0.400453    0.626007    0.089907    11.00000    0.01795    0.03048 =
         0.01368   -0.00680    0.00005    0.00796
C00A  1    0.814927    0.679538    0.340836    11.00000    0.01683    0.01653 =
         0.01328   -0.00041    0.00084   -0.00344
AFIX  13
H00A  2    0.805935    0.844790    0.315425    11.00000   -1.20000
AFIX   0
C00B  1    0.910257    0.607522    0.197253    11.00000    0.01952    0.01804 =
         0.01414    0.00188    0.00137   -0.00282
AFIX  43
H00B  2    0.877366    0.754650    0.172716    11.00000   -1.20000
AFIX   0
C00C  1    0.977628    0.467861    0.145236    11.00000    0.02074    0.02582 =
         0.01272    0.00177    0.00241   -0.00507
AFIX  43
H00C  2    0.990590    0.521009    0.086483    11.00000   -1.20000
AFIX   0
C00D  1    1.007294    0.166407    0.270008    11.00000    0.01467    0.02104 =
         0.01732    0.00366   -0.00091   -0.00115
AFIX  43
H00D  2    1.039159    0.017700    0.293572    11.00000   -1.20000
AFIX   0
C00E  1    0.891093    0.530520    0.285881    11.00000    0.01495    0.01869 =
         0.01414    0.00007    0.00083   -0.00381
C00F  1    0.405447    0.424799    0.148579    11.00000    0.01895    0.02341 =
         0.02809   -0.00680   -0.00073    0.00001
AFIX  43
H00F  2    0.345944    0.303783    0.135389    11.00000   -1.20000
AFIX   0
C00G  1    0.652171    0.691482    0.424604    11.00000    0.01847    0.01862 =
         0.01767    0.00164    0.00394    0.00181
C00H  1    0.771714    0.686629    0.500186    11.00000    0.01908    0.01944 =
         0.01326   -0.00035    0.00298   -0.00017
AFIX  13
H00H  2    0.778012    0.830187    0.541054    11.00000   -1.20000
AFIX   0
C00I  1    0.589993    0.589386    0.248423    11.00000    0.01483    0.01686 =
         0.01461   -0.00175    0.00208    0.00206
C00J  1    0.941324    0.309505    0.321886    11.00000    0.01533    0.02036 =
         0.01245    0.00199   -0.00028   -0.00280
AFIX  43
H00J  2    0.930412    0.257665    0.381347    11.00000   -1.20000
AFIX   0
C00K  1    0.500448    0.407658    0.226926    11.00000    0.02025    0.01727 =
         0.02201   -0.00080    0.00176    0.00046
AFIX  43
H00K  2    0.505004    0.272568    0.266205    11.00000   -1.20000
AFIX   0
C00L  1    0.488357    0.806701    0.107817    11.00000    0.02410    0.02656 =
         0.01594    0.00364    0.00512    0.00435
AFIX  43
H00L  2    0.484343    0.939535    0.067446    11.00000   -1.20000
AFIX   0
C00M  1    0.704583    0.270050    0.685396    11.00000    0.02638    0.03842 =
         0.01981    0.00784    0.00427   -0.00927
AFIX 137
H00E  2    0.662422    0.146349    0.644352    11.00000   -1.50000
H00G  2    0.658527    0.307264    0.733744    11.00000   -1.50000
H00I  2    0.785354    0.213519    0.714621    11.00000   -1.50000
AFIX   0
C00N  1    0.686280    0.567624    0.338688    11.00000    0.01557    0.01556 =
         0.01498    0.00120    0.00232   -0.00089
AFIX  13
H00N  2    0.697931    0.394861    0.353543    11.00000   -1.20000
AFIX   0
C00O  1    1.025016    0.249416    0.181874    11.00000    0.01494    0.02466 =
         0.01609   -0.00431    0.00262   -0.00427
C00P  1    0.583131    0.786782    0.187328    11.00000    0.01902    0.02298 =
         0.01828    0.00162    0.00377   -0.00195
AFIX  43
H00P  2    0.642871    0.907505    0.199809    11.00000   -1.20000
AFIX   0
H007  2    0.920766    0.796710    0.462082    11.00000    0.01403
HKLF 4




REM  20201214_1_a.res in P2(1)
REM wR2 = 0.0466, GooF = S = 1.047, Restrained GooF = 1.046 for all data
REM R1 = 0.0176 for 3233 Fo > 4sig(Fo) and 0.0176 for all 3235 data
REM 232 parameters refined using 1 restraints

END

WGHT      0.0306      0.2243

REM Highest difference peak  0.198,  deepest hole -0.342,  1-sigma level  0.044
Q1    1   0.7155  0.6735  0.4720  11.00000  0.05    0.20
Q2    1   0.7501  0.6522  0.3383  11.00000  0.05    0.20
Q3    1   0.8181  0.6694  0.4760  11.00000  0.05    0.18
Q4    1   0.7741  0.5715  0.5243  11.00000  0.05    0.18
Q5    1   0.3537  0.6661  0.0684  11.00000  0.05    0.17
;
_shelx_res_checksum              47221
_shelx_hkl_file
;
   0  -6   8   35.95    1.55
   0  -5   4   28.17    1.90
   0  -5   5  435.92    7.42
   0  -5   6  209.59    5.26
   0  -5   6  222.75    5.01
   0  -5   7  288.26    6.11
   0  -5   7  291.52    5.49
   0  -5   7  281.99    6.08
   0  -5   8  152.74    3.70
   0  -5   8  155.59    4.36
   0  -5   8  148.75    4.21
   0  -5   9  135.26    3.75
   0  -5   9  128.18    3.75
   0  -5  10   22.29    1.44
   0  -5  10   22.72    1.48
   0  -5  11   50.09    1.94
   0  -5  11   49.10    2.02
   0  -4   5 1433.31   14.80
   0  -4   6   88.77    3.41
   0  -4   6   84.90    3.42
   0  -4   7  170.72    4.88
   0  -4   7  170.01    4.86
   0  -4   7  163.65    4.03
   0  -4   8  246.87    5.01
   0  -4   8  258.43    6.34
   0  -4   8  245.66    5.94
   0  -4   8  251.80    5.82
   0  -4   8  248.29    6.25
   0  -4   9  271.26    6.39
   0  -4   9  261.88    6.13
   0  -4   9  277.70    5.86
   0  -4   9  266.71    6.57
   0  -4   9  274.57    6.31
   0  -4  10   92.50    3.59
   0  -4  10   93.27    3.82
   0  -4  10   91.10    3.57
   0  -4  10   91.27    3.57
   0  -4  11   25.13    1.93
   0  -4  11   23.69    1.76
   0  -4  11   24.68    1.82
   0  -4  11   20.79    1.70
   0  -4  12  300.97    6.26
   0  -4  12  297.20    5.74
   0  -4  12  289.63    5.59
   0  -4  13   46.98    1.92
   0  -4  13   50.42    2.28
   0  -4  14  303.43    4.36
   0  -4  14  296.05    4.70
   0  -3   0    1.21    0.36
   0  -3   0    0.39    0.33
   0  -3   0    0.40    0.24
   0  -3  -1   16.79    1.16
   0  -3   1   25.15    1.14
   0  -3  -1   15.97    1.26
   0  -3   1   23.45    1.62
   0  -3   1   18.63    1.07
   0  -3  -2 1545.96   11.76
   0  -3  -2 1561.78   14.12
   0  -3  -2 1569.19   14.68
   0  -3  -3  222.17    4.72
   0  -3   3  229.05    4.31
   0  -3  -4  270.36    5.06
   0  -3   4  316.82    5.49
   0  -3   5  435.86    6.63
   0  -3   6  512.20    7.37
   0  -3   7  343.03    6.77
   0  -3   7  351.42    6.90
   0  -3   7  348.94    6.12
   0  -3   8  961.71   11.06
   0  -3   8  938.73   12.51
   0  -3   8  951.86   12.08
   0  -3   9  487.35    8.78
   0  -3   9  498.45    8.38
   0  -3   9  496.30    9.03
   0  -3   9  500.95    7.85
   0  -3  10  292.56    7.35
   0  -3  10  293.21    6.97
   0  -3  10  289.14    6.75
   0  -3  10  298.25    6.41
   0  -3  11  600.69   10.23
   0  -3  11  620.02   10.91
   0  -3  11  591.26    9.52
   0  -3  12  203.61    5.15
   0  -3  12  206.35    5.69
   0  -3  12  206.25    5.91
   0  -3  12  201.93    5.18
   0  -3  13  320.53    6.98
   0  -3  13  324.41    6.25
   0  -3  14  160.52    3.91
   0  -3  14  147.79    3.42
   0  -3  15  310.81    5.10
   0  -2   0 4530.07   26.47
   0  -2   0 4533.45   28.33
   0  -2  -1 1278.54    9.96
   0  -2   1 1243.99    8.71
   0  -2  -1 1230.28   10.66
   0  -2  -1 1265.83    9.40
   0  -2  -2 2409.24   16.61
   0  -2   2 2414.36   16.16
   0  -2  -2 2330.58   13.52
   0  -2  -2 2353.66   16.47
   0  -2   2 2405.19   13.60
   0  -2  -3  986.66    7.44
   0  -2  -3  994.57    9.04
   0  -2  -4 3317.27   20.29
   0  -2   4 3277.59   22.12
   0  -2  -4 3143.11   21.13
   0  -2  -4 3105.68   22.17
   0  -2   5  141.65    3.23
   0  -2  -5  137.97    2.97
   0  -2   6 1171.18   10.99
   0  -2  -6 1032.27   11.28
   0  -2  -6 1078.01   10.72
   0  -2  -6 1133.61    9.93
   0  -2   6 1149.04   11.65
   0  -2   7  454.39    7.13
   0  -2   7  450.44    7.40
   0  -2  -7  429.85    6.80
   0  -2   7  452.76    6.59
   0  -2   8  963.24   10.81
   0  -2   8  960.10   11.35
   0  -2   8  998.67   12.17
   0  -2   8  970.62   10.72
   0  -2   9 1109.53   13.63
   0  -2   9 1072.98   12.49
   0  -2   9 1063.13   12.11
   0  -2   9 1085.60   12.67
   0  -2  10  217.73    5.43
   0  -2  10  208.05    5.47
   0  -2  10  221.89    5.91
   0  -2  10  210.45    5.18
   0  -2  10  211.89    5.25
   0  -2  11  755.89   11.76
   0  -2  11  728.79   10.54
   0  -2  11  764.49   11.14
   0  -2  11  757.20   10.67
   0  -2  11  762.18   10.96
   0  -2  12  248.32    6.15
   0  -2  12  237.05    5.48
   0  -2  12  249.08    5.85
   0  -2  12  253.83    6.28
   0  -2  12  258.37    7.01
   0  -2  13  109.84    3.99
   0  -2  13   97.45    3.28
   0  -2  13  109.11    4.33
   0  -2  13  101.20    3.61
   0  -2  14   57.50    2.25
   0  -2  14   62.41    3.10
   0  -2  14   62.22    2.71
   0  -2  14   62.18    2.84
   0  -2  15   14.37    1.37
   0  -2  15   13.78    1.27
   0  -2  16   15.84    0.97
   0  -2  16   19.44    1.29
   0  -2 -16   17.94    1.07
   0  -1   0    4.07    0.31
   0  -1   0    3.34    0.26
   0  -1  -1  805.13    5.62
   0  -1  -1  803.82    6.32
   0  -1  -1  823.43    5.00
   0  -1   1  807.42    5.02
   0  -1  -2 2334.47   14.55
   0  -1  -2 2328.01   12.70
   0  -1  -2 2329.39   13.72
   0  -1   3 2308.48   15.02
   0  -1  -3 2350.30   14.34
   0  -1   4 1724.89   12.73
   0  -1  -4 1706.88   12.60
   0  -1  -5   84.59    2.28
   0  -1  -5   79.59    2.18
   0  -1  -5   81.26    1.98
   0  -1  -5   87.02    2.04
   0  -1  -6 1190.81   10.35
   0  -1   6 1241.55   11.14
   0  -1  -6 1169.51   10.82
   0  -1  -6 1293.00   10.90
   0  -1  -6 1253.59   11.64
   0  -1  -7  409.40    6.02
   0  -1   7  425.92    6.20
   0  -1  -7  420.38    6.00
   0  -1   7  403.92    5.33
   0  -1   7  428.88    5.91
   0  -1  -7  384.62    5.92
   0  -1  -7  418.44    6.63
   0  -1   7  401.76    6.10
   0  -1   7  425.45    6.12
   0  -1   7  426.25    6.27
   0  -1   8 1936.46   16.44
   0  -1   8 1981.76   16.77
   0  -1   8 1934.68   16.33
   0  -1   8 1983.43   17.00
   0  -1  -8 1904.75   17.73
   0  -1  -8 1939.98   17.09
   0  -1  -8 2037.62   17.02
   0  -1   8 1942.80   15.45
   0  -1   8 1970.78   16.70
   0  -1  -8 1941.16   16.62
   0  -1   9 1073.97   11.76
   0  -1   9 1050.07   10.98
   0  -1   9 1082.91   12.21
   0  -1   9 1088.98   12.67
   0  -1   9 1090.00   12.46
   0  -1  10  715.23    9.93
   0  -1  10  708.72   10.32
   0  -1  10  689.97    9.24
   0  -1  10  700.11   10.73
   0  -1  10  687.27    9.51
   0  -1  11 2036.24   18.06
   0  -1  11 1880.18   19.32
   0  -1  11 1911.11   20.16
   0  -1  11 1914.36   18.70
   0  -1  11 1843.16   19.56
   0  -1  11 1787.93   17.04
   0  -1  11 1923.35   17.99
   0  -1  12  619.28   10.66
   0  -1  12  620.72    9.37
   0  -1  12  628.24   10.39
   0  -1  12  594.98    9.11
   0  -1  12  600.26    8.57
   0  -1  12  616.15   10.74
   0  -1  13  531.27    8.54
   0  -1  13  545.30    8.85
   0  -1  13  546.54    9.89
   0  -1  14  198.23    5.58
   0  -1  14  187.09    5.45
   0  -1  14  199.83    4.80
   0  -1  15  336.29    6.69
   0  -1  15  328.12    5.68
   0  -1  15  339.52    6.86
   0  -1  16   98.88    2.96
   0  -1  16  101.55    3.28
   0  -1  17  289.81    4.64
   0   0  -1   59.73    0.71
   0   0  -2 1176.40    7.22
   0   0  -3   82.21    1.39
   0   0  -3   68.60    1.44
   0   0  -4   85.72    1.63
   0   0  -4   95.97    2.01
   0   0  -5  348.25    4.62
   0   0  -5  307.81    3.66
   0   0  -6  889.58    8.85
   0   0  -6  810.61    7.31
   0   0  -7 2532.77   19.74
   0   0   7 2534.43   19.46
   0   0  -7 2452.34   19.07
   0   0   7 2516.84   18.46
   0   0   7 2466.83   19.12
   0   0   7 2470.14   17.96
   0   0  -7 2446.24   17.28
   0   0   7 2538.79   18.81
   0   0   7 2504.45   18.06
   0   0   8  450.23    7.17
   0   0   8  427.75    6.95
   0   0  -8  389.79    5.36
   0   0   8  410.00    6.54
   0   0   8  434.49    6.54
   0   0  -8  458.54    7.56
   0   0  -8  425.49    6.93
   0   0   8  434.26    6.22
   0   0   8  419.83    6.56
   0   0   9 2672.12   21.84
   0   0   9 2662.47   20.82
   0   0   9 2623.88   22.25
   0   0   9 2703.46   21.96
   0   0  10  268.96    6.23
   0   0  10  262.17    6.01
   0   0  10  245.30    5.71
   0   0  10  245.34    5.32
   0   0  10  257.10    5.55
   0   0  11  622.28    9.87
   0   0  11  643.65    9.32
   0   0  11  624.29    9.70
   0   0  11  637.91   10.61
   0   0  12    8.37    1.23
   0   0  12   10.73    1.32
   0   0  12    8.31    1.33
   0   0  13   21.62    1.88
   0   0  13   23.75    1.93
   0   0  14   40.82    2.38
   0   0  14   37.62    2.39
   0   0  15    6.60    0.97
   0   0  15    5.48    0.82
   0   0  16   56.62    2.23
   0   1   0    2.34    0.16
   0   1   0    4.98    0.32
   0   1  -1  785.36    6.09
   0   1  -1  773.20    4.77
   0   1  -2 2450.17   15.64
   0   1  -2 2444.27   14.49
   0   1   3 2219.61   14.54
   0   1  -3 1958.92   13.32
   0   1   4 1816.30   13.71
   0   1  -4 1759.06   12.81
   0   1  -5   93.96    2.40
   0   1   5  101.04    2.80
   0   1   6 1151.68   10.57
   0   1   6 1164.11   12.29
   0   1  -6 1155.29   11.13
   0   1   7  498.74    8.29
   0   1   7  425.97    6.23
   0   1   7  473.48    6.81
   0   1   7  461.87    6.35
   0   1  -7  441.51    6.74
   0   1  -7  465.87    7.03
   0   1  -8 1889.82   17.40
   0   1   8 1844.70   16.90
   0   1  -8 1888.16   16.91
   0   1   8 1893.76   16.16
   0   1  -9 1130.79   12.92
   0   1   9 1109.98   13.03
   0   1   9 1113.17   12.52
   0   1  10  741.70   10.60
   0   1 -10  758.27   10.60
   0   1 -11 1893.10   18.64
   0   1  11 1838.03   19.34
   0   1  12  554.28    9.79
   0   1  12  575.42   10.22
   0   1  13  585.16   10.35
   0   1  13  571.75   10.12
   0   1  14  197.36    5.62
   0   1  14  194.33    5.67
   0   1  15  355.17    7.08
   0   1  15  361.31    7.29
   0   1  16  116.24    3.44
   0   1  16  118.14    3.55
   0   1  16  124.13    4.01
   0   1  17  317.41    5.34
   0   1  17  295.07    4.60
   0   2   0 4558.02   24.51
   0   2  -1 1261.85    8.76
   0   2  -1 1189.80    9.69
   0   2  -2 2345.57   17.00
   0   2  -2 2345.95   15.37
   0   2  -3  959.73    8.80
   0   2  -3  887.44    9.35
   0   2  -4 3101.01   19.65
   0   2  -4 3109.01   22.78
   0   2  -4 3104.74   22.88
   0   2   4 3153.28   23.64
   0   2  -4 3171.14   22.48
   0   2   5  141.41    4.11
   0   2  -5  141.08    3.80
   0   2   5  144.05    3.37
   0   2  -5  144.88    3.36
   0   2  -5  149.40    3.81
   0   2  -5  136.40    2.89
   0   2  -5  146.14    3.74
   0   2  -6 1215.50   12.93
   0   2  -6 1156.14   11.49
   0   2   6 1204.74   11.92
   0   2  -6 1143.06   12.69
   0   2  -6 1136.81   11.00
   0   2  -6 1129.89   12.63
   0   2   6 1238.41   14.56
   0   2   6 1143.73   13.40
   0   2  -6 1271.81   12.76
   0   2   7  439.50    8.18
   0   2  -7  427.87    7.63
   0   2   7  448.06    7.14
   0   2  -8  825.00   11.60
   0   2   8  839.19   11.04
   0   2  -9 1133.15   14.42
   0   2  -9 1137.51   14.10
   0   2   9 1163.90   13.97
   0   2 -10  259.63    6.24
   0   2  10  251.37    5.66
   0   2 -10  257.80    6.67
   0   2 -11  763.70   11.99
   0   2  11  738.09   10.76
   0   2 -11  767.17   10.80
   0   2  12  235.17    5.99
   0   2 -12  244.59    6.40
   0   2  13  126.81    4.23
   0   2  13  124.78    5.29
   0   2  14   59.73    2.74
   0   2  14   59.84    3.36
   0   2 -14   60.89    2.52
   0   2  14   63.21    3.21
   0   2  15   13.88    1.49
   0   2  15   15.22    1.29
   0   2  16   28.92    1.68
   0   3   0   11.33    1.15
   0   3   1    7.95    1.03
   0   3  -1    9.77    1.13
   0   3  -1    6.55    0.76
   0   3  -2 1603.44   14.41
   0   3  -2 1577.22   15.81
   0   3  -2 1660.55   12.04
   0   3  -2 1672.98   13.94
   0   3   2 1579.49   15.84
   0   3  -2 1518.06   14.07
   0   3  -3  177.89    4.29
   0   3   3  176.88    4.68
   0   3  -3  185.84    4.86
   0   3  -3  178.17    4.35
   0   3  -3  185.60    3.62
   0   3  -3  178.49    4.12
   0   3   4  317.04    6.23
   0   3  -4  314.98    6.51
   0   3   4  284.87    6.14
   0   3  -4  285.60    6.12
   0   3  -4  290.24    5.46
   0   3  -4  301.94    6.12
   0   3  -4  310.64    5.39
   0   3  -5  424.40    6.69
   0   3  -5  394.91    7.57
   0   3  -5  414.83    7.70
   0   3   5  427.79    7.60
   0   3   5  393.70    7.53
   0   3   5  442.20    7.01
   0   3  -6  524.70    9.19
   0   3  -6  519.28    7.77
   0   3   6  498.86    8.73
   0   3   6  517.80    9.07
   0   3   7  327.19    6.82
   0   3  -7  315.67    6.12
   0   3   7  313.15    7.50
   0   3  -7  333.71    7.14
   0   3   8  856.77   13.71
   0   3  -8  875.87   13.34
   0   3   9  475.93    9.26
   0   3  -9  474.91    9.62
   0   3   9  461.16   10.36
   0   3  -9  457.29    9.64
   0   3  10  270.42    7.16
   0   3 -10  262.60    7.23
   0   3 -10  267.53    6.89
   0   3  10  245.53    7.79
   0   3 -11  657.23   10.74
   0   3  11  649.39   11.53
   0   3 -11  652.66   11.41
   0   3 -12  242.04    6.39
   0   3  12  237.70    6.66
   0   3 -12  245.44    5.74
   0   3  12  238.94    7.20
   0   3  13  364.16    8.04
   0   3 -13  363.68    7.30
   0   3  14  146.18    4.32
   0   3 -14  148.24    3.80
   0   4   0  342.86    7.52
   0   4   0  324.49    6.31
   0   4   0  347.75    6.71
   0   4  -1  363.67    6.54
   0   4  -1  365.16    7.25
   0   4   1  362.49    7.78
   0   4  -1  381.96    8.06
   0   4  -2  871.81   10.62
   0   4  -2  907.40   11.12
   0   4  -2  868.98   12.63
   0   4  -2  883.09   12.27
   0   4  -3  509.34    9.40
   0   4  -3  507.97    8.52
   0   4  -3  498.14    9.30
   0   4  -4  668.73   10.87
   0   4  -4  668.27   10.38
   0   4  -4  676.51   11.31
   0   4   5 1256.59   15.27
   0   4  -5 1559.23   17.55
   0   4  -5 1440.59   16.65
   0   4  -5 1431.13   17.65
   0   4  -5 1303.60   13.97
   0   4  -6  102.87    4.18
   0   4  -6   99.23    3.46
   0   4  -6  103.11    4.26
   0   4  -7  189.00    6.02
   0   4  -8  284.42    7.60
   0   4  -8  265.62    7.22
   0   4  -9  249.86    7.02
   0   4  -9  263.79    7.13
   0   4 -10   87.48    3.90
   0   4 -11   15.03    1.66
   0   4 -11   15.09    1.54
   0   4 -12  299.22    5.72
   0   4 -12  305.09    6.48
   0   4 -13   51.98    2.27
   0   5   0    0.35    0.66
   0   5   0    1.87    0.61
   0   5  -1   51.54    2.76
   0   5   1   47.97    2.85
   0   5  -1   49.63    3.01
   0   5  -2  418.71    8.79
   0   5   2  409.48    8.37
   0   5  -2  410.74    8.41
   0   5  -3   51.34    2.98
   0   5  -3   55.45    3.23
   0   5  -3   52.43    2.56
   0   5   3   48.61    2.74
   0   5   4   22.39    1.80
   0   5  -4   25.12    2.16
   0   5  -4   22.23    1.83
   0   5  -4   20.67    1.44
   0   5  -4   20.39    2.02
   0   5  -5  396.18    8.71
   0   5  -5  415.18    8.14
   0   5  -6  230.36    6.53
   0   5  -6  238.81    6.21
   0   5  -7  270.65    6.60
   0   5  -7  274.35    7.04
   0   5  -8  126.06    4.36
   0   5  -9  142.10    4.52
   0   5  -9  141.53    4.58
   0   5 -10   20.98    1.64
   0   5 -10   21.07    1.65
   0   5 -11   56.76    2.36
   0   5 -11   58.37    2.23
   0   6   0   30.08    1.81
   0   6  -1   30.03    1.86
   0   6   1   29.73    1.72
   0   6  -2  153.59    4.28
   0   6  -3  405.30    6.72
   0   6  -4  182.35    4.56
   0   6  -5   66.01    2.75
   0   6  -6  121.00    3.61
   0   6  -7   32.11    1.77
   0   6  -8   36.34    1.71
  -1  -6   7   51.57    1.84
  -1  -6   6    3.87    0.63
  -1  -6   5  104.68    2.91
   1  -6   5   25.50    1.40
   1  -6   6   85.98    2.48
   1  -6   7  114.02    2.74
  -1  -5  12   30.03    1.31
  -1  -5  12   30.32    1.32
  -1  -5  11    1.19    0.45
  -1  -5  11    2.54    0.61
  -1  -5  11    1.71    0.51
  -1  -5  10   49.29    2.16
  -1  -5  10   52.12    2.31
  -1  -5  10   51.20    2.29
  -1  -5   9   41.52    2.02
  -1  -5   9   42.73    2.13
  -1  -5   9   41.28    2.00
  -1  -5   9   39.86    2.21
  -1  -5   9   40.77    2.25
  -1  -5   8  386.64    7.46
  -1  -5   8  392.13    6.82
  -1  -5   8  401.53    6.79
  -1  -5   7  167.01    4.35
  -1  -5   7  171.42    4.70
  -1  -5   6  174.82    5.00
   1  -5   4   90.25    3.04
   1  -5   5    9.63    1.06
   1  -5   6  121.10    3.56
   1  -5   6  122.83    3.68
   1  -5   7  136.49    3.75
   1  -5   7  138.99    3.90
   1  -5   8  220.73    4.65
   1  -5   8  223.39    4.81
   1  -5   9  154.58    3.77
   1  -5   9  153.84    3.65
   1  -5  10  363.98    6.07
   1  -5  10  376.40    5.68
   1  -5  10  361.17    5.68
   1  -5  11   48.05    1.77
  -1  -4  14   90.64    2.34
  -1  -4  14   87.56    2.63
  -1  -4  13  273.02    5.65
  -1  -4  13  273.09    4.68
  -1  -4  13  285.97    4.99
  -1  -4  12  164.17    4.33
  -1  -4  12  159.20    4.42
  -1  -4  12  162.14    4.77
  -1  -4  11  107.61    4.17
  -1  -4  11  105.40    3.77
  -1  -4  11  106.16    3.83
  -1  -4  10  995.67   13.12
  -1  -4  10  994.17   12.95
  -1  -4  10 1034.04   13.94
  -1  -4  10  989.30   12.09
  -1  -4   9  329.78    6.91
  -1  -4   9  326.00    6.29
  -1  -4   9  313.93    7.24
  -1  -4   8  283.32    6.78
  -1  -4   8  272.30    6.48
  -1  -4   8  268.20    5.75
  -1  -4   7  268.22    6.56
  -1  -4   7  290.00    6.77
  -1  -4   7  281.43    5.99
  -1  -4   6   39.77    2.25
  -1  -4   5  157.58    4.56
   1  -4   5   96.15    3.29
   1  -4   5   94.93    3.27
   1  -4   6   93.33    3.45
   1  -4   6   91.91    3.19
   1  -4   6   96.31    3.28
   1  -4   7   52.73    2.67
   1  -4   7   47.83    2.39
   1  -4   7   53.56    2.71
   1  -4   8   30.98    2.12
   1  -4   8   29.08    1.79
   1  -4   8   30.40    1.96
   1  -4   8   30.43    2.06
   1  -4   8   32.00    2.12
   1  -4   9  159.08    4.80
   1  -4   9  168.66    4.78
   1  -4   9  169.38    4.77
   1  -4   9  156.98    4.43
   1  -4  10  206.53    5.14
   1  -4  10  194.35    5.25
   1  -4  10  202.67    4.96
   1  -4  10  207.43    5.15
   1  -4  11  774.80   10.00
   1  -4  11  788.67   10.72
   1  -4  11  771.29   10.04
   1  -4  11  772.42   10.38
   1  -4  12  237.83    4.96
   1  -4  12  242.10    4.91
   1  -4  12  251.49    5.39
   1  -4  13  144.52    3.65
   1  -4  13  143.96    3.36
   1  -4  13  136.05    3.23
   1  -4  13  144.60    3.58
  -1  -3  15  144.27    3.78
  -1  -3  15  152.61    3.23
  -1  -3  14  129.60    3.45
  -1  -3  14  123.65    3.01
  -1  -3  13   34.39    2.10
  -1  -3  13   30.16    1.76
  -1  -3  13   32.45    2.19
  -1  -3  13   31.37    1.92
  -1  -3  12  165.43    5.45
  -1  -3  12  158.83    4.75
  -1  -3  12  164.34    4.66
  -1  -3  12  165.32    5.24
  -1  -3  11  226.50    6.52
  -1  -3  11  223.66    5.76
  -1  -3  11  230.95    6.22
  -1  -3  11  227.32    5.66
  -1  -3  10   53.78    2.78
  -1  -3  10   53.49    2.65
  -1  -3  10   55.32    3.10
  -1  -3   9  223.19    5.40
  -1  -3   9  216.57    5.66
  -1  -3   9  230.94    6.23
  -1  -3   8 1063.84   13.67
  -1  -3   8 1028.70   13.07
  -1  -3   8 1050.66   12.30
  -1  -3   7  379.12    6.19
  -1  -3   7  380.45    6.91
  -1  -3   6  533.28    8.24
  -1  -3   6  551.92    7.54
  -1  -3   5 1624.72   14.60
   1  -3  -4  380.52    5.65
  -1  -3   4  440.58    7.16
   1  -3  -3 1827.07   16.12
  -1  -3   3 1856.55   16.08
   1  -3  -2  398.99    6.16
  -1  -3   2  397.40    6.28
  -1  -3   1 1863.78   13.92
   1  -3  -1 1874.36   15.71
  -1  -3   1 1834.91   17.80
  -1  -3   0 1364.86   14.60
  -1  -3   0 1361.71   11.96
   1  -3   0 1386.57   11.79
   1  -3   0 1364.88   13.34
   1  -3   1 1939.07   16.98
  -1  -3  -1 1907.39   17.52
  -1  -3  -1 2017.50   16.25
  -1  -3  -1 1974.32   15.99
  -1  -3  -2 1045.20   12.00
  -1  -3  -2 1068.96   11.20
  -1  -3  -3 1929.90   17.09
   1  -3   4  443.93    6.39
   1  -3   5  384.99    6.32
   1  -3   5  372.41    6.35
   1  -3   6  990.55   11.47
   1  -3   6  970.41    9.90
   1  -3   6  990.95   11.32
   1  -3   7  889.57   11.45
   1  -3   7  907.78    9.86
   1  -3   8  274.48    6.20
   1  -3   8  270.63    6.50
   1  -3   8  275.66    6.09
   1  -3   8  271.19    5.71
   1  -3   8  258.98    6.03
   1  -3   9  364.45    7.35
   1  -3   9  356.68    7.79
   1  -3   9  363.60    7.25
   1  -3   9  355.39    7.32
   1  -3  10  597.79   10.37
   1  -3  10  609.39    9.78
   1  -3  11  528.73    9.06
   1  -3  11  533.06    9.37
   1  -3  11  531.41    9.04
   1  -3  11  515.10    9.70
   1  -3  12   61.28    3.14
   1  -3  12   61.99    2.83
   1  -3  13  125.72    3.66
   1  -3  13  131.48    3.90
   1  -3  14  174.22    4.06
   1  -3  14  178.42    4.53
   1  -3  14  163.33    3.66
   1  -3  15   74.84    2.27
  -1  -2  16  319.54    5.43
  -1  -2  16  322.72    4.72
  -1  -2  16  330.57    5.17
  -1  -2  15  239.98    5.23
  -1  -2  15  244.67    5.61
  -1  -2  14  538.27    7.95
  -1  -2  14  537.23    9.40
  -1  -2  14  550.03    8.97
  -1  -2  13  608.19    8.44
  -1  -2  13  656.00    9.90
  -1  -2  13  639.33   10.80
  -1  -2  13  705.01   10.79
  -1  -2  13  667.82   11.30
  -1  -2  13  653.90    9.34
  -1  -2  12 1075.80   15.30
  -1  -2  12 1119.21   13.70
  -1  -2  12 1132.65   14.05
  -1  -2  12 1105.86   13.87
  -1  -2  12 1087.45   12.51
  -1  -2  12 1124.33   13.12
  -1  -2  11  168.96    4.75
  -1  -2  11  167.21    4.94
  -1  -2  11  172.34    5.00
  -1  -2  10  831.74    9.89
  -1  -2  10  810.01   10.85
  -1  -2  10  818.38   11.09
  -1  -2  10  807.13   10.82
  -1  -2  10  819.21   11.29
  -1  -2  10  818.87   10.94
  -1  -2   9 1189.74   11.81
  -1  -2   9 1225.03   13.23
  -1  -2   9 1191.78   13.66
  -1  -2   9 1189.13   13.34
  -1  -2   9 1236.05   13.24
  -1  -2   8  373.01    5.71
  -1  -2   8  364.55    6.46
  -1  -2   8  361.41    6.76
  -1  -2   8  356.11    6.02
  -1  -2   8  382.10    6.44
  -1  -2   8  382.80    7.25
  -1  -2   7 1472.05   14.41
  -1  -2   7 1484.46   14.01
  -1  -2   7 1496.07   13.05
   1  -2  -7 1458.18   13.87
   1  -2  -7 1447.40   13.99
  -1  -2   7 1465.36   13.26
  -1  -2   7 1464.41   12.48
  -1  -2   6  695.38    8.53
   1  -2  -6  677.07    6.54
   1  -2  -6  676.60    7.99
  -1  -2   6  678.19    7.91
   1  -2  -6  677.65    8.02
  -1  -2   6  675.79    8.95
   1  -2  -5  962.60    9.01
  -1  -2   5  961.72   10.44
   1  -2  -5  962.69    9.00
   1  -2  -4  417.93    5.92
   1  -2  -4  393.23    3.51
   1  -2  -4  363.61    4.06
   1  -2  -4  409.62    4.81
   1  -2  -4  412.67    4.68
  -1  -2   4  446.60    6.25
   1  -2  -4  354.52    4.45
   1  -2  -3  804.23    5.77
   1  -2  -3  770.22    7.18
   1  -2  -3  799.46    8.34
  -1  -2   3  757.70    5.06
   1  -2  -3  797.72    6.39
   1  -2  -2  113.40    1.35
   1  -2  -2  111.51    1.52
   1  -2  -2  112.01    2.61
   1  -2  -2  108.30    2.36
  -1  -2   2  111.72    1.81
   1  -2  -1 1619.04   12.13
  -1  -2   1 1617.72   12.78
   1  -2   0  521.63    4.29
  -1  -2   0  503.30    6.03
   1  -2   0  498.08    5.23
   1  -2   0  532.09    5.93
  -1  -2   0  505.39    6.51
   1  -2   1 1442.99    9.73
  -1  -2  -1 1456.55   12.17
  -1  -2  -2 1258.46   10.93
  -1  -2  -2 1261.08   11.16
  -1  -2  -3  822.28    8.51
  -1  -2  -3  825.76    8.44
  -1  -2  -3  800.47    8.31
  -1  -2  -4  321.67    5.19
  -1  -2  -4  325.08    4.92
   1  -2   5  822.58    8.85
   1  -2   5  839.45    8.94
   1  -2   6  269.40    4.52
   1  -2   6  266.97    4.87
   1  -2   6  271.65    5.14
   1  -2   6  272.90    4.42
   1  -2   7 1406.89   13.92
   1  -2   7 1401.31   14.09
   1  -2   7 1401.39   12.54
   1  -2   7 1434.92   13.08
   1  -2   7 1411.44   13.30
   1  -2   8  604.29    8.47
   1  -2   8  620.08    9.11
   1  -2   8  613.42    8.43
   1  -2   8  633.43    8.98
   1  -2   8  613.01    9.54
   1  -2   9  653.35    9.95
   1  -2   9  635.57   10.27
   1  -2   9  646.44    9.66
   1  -2   9  652.26    9.28
   1  -2  10 1060.23   12.93
   1  -2  10 1074.69   13.81
   1  -2  10 1065.43   12.97
   1  -2  11  154.60    4.67
   1  -2  11  146.08    4.54
   1  -2  11  162.45    5.21
   1  -2  11  150.85    4.58
   1  -2  12  719.25   11.88
   1  -2  12  839.48   11.44
   1  -2  12  759.89   10.80
   1  -2  12  813.58   11.37
   1  -2  13  119.38    4.07
   1  -2  13  114.72    3.95
   1  -2  13  124.50    4.55
   1  -2  13  109.63    3.58
   1  -2  14  405.30    7.90
   1  -2  14  368.63    6.17
   1  -2  15  365.20    6.04
   1  -2  15  352.28    5.88
   1  -2  15  346.44    6.52
   1  -2  16  303.81    4.94
  -1  -1  17   35.30    1.65
  -1  -1  16  200.79    4.28
  -1  -1  16  209.35    4.83
  -1  -1  15   89.45    3.09
  -1  -1  15   84.39    3.27
  -1  -1  15   83.93    3.52
  -1  -1  14  107.53    3.73
  -1  -1  14  106.41    4.04
  -1  -1  14  105.59    4.18
  -1  -1  14   99.78    3.28
  -1  -1  13  979.14   11.75
  -1  -1  13 1014.03   14.18
  -1  -1  13 1000.89   12.71
  -1  -1  13 1001.47   13.88
  -1  -1  13 1012.16   13.71
  -1  -1  12  558.45    9.19
  -1  -1  12  558.18    9.02
  -1  -1  12  569.42   10.23
  -1  -1  12  552.65   10.08
  -1  -1  12  565.09    8.59
  -1  -1  12  553.76    9.92
  -1  -1  11  244.47    5.02
  -1  -1  11  256.19    6.37
  -1  -1  11  251.52    5.44
  -1  -1  11  242.52    6.40
  -1  -1  11  251.96    5.79
  -1  -1  11  247.22    6.33
  -1  -1  10  813.24   11.39
  -1  -1  10  780.93   10.85
  -1  -1  10  815.94   10.50
  -1  -1  10  790.81    9.99
  -1  -1  10  812.49   10.20
  -1  -1  10  812.69   11.29
  -1  -1   9  108.86    3.65
  -1  -1   9  111.23    3.24
  -1  -1   9  109.69    3.50
  -1  -1   9  106.33    3.38
  -1  -1   9  119.86    3.87
  -1  -1   9  106.11    3.26
  -1  -1   9  109.69    3.44
  -1  -1   9  100.71    3.35
  -1  -1   8  392.53    6.20
  -1  -1   8  395.13    6.58
  -1  -1   8  387.76    6.29
   1  -1  -8  391.52    7.00
  -1  -1   8  389.65    5.85
  -1  -1   8  395.33    6.80
  -1  -1   8  382.99    6.21
  -1  -1   8  375.17    6.27
  -1  -1   7  234.46    4.50
   1  -1  -7  235.33    4.91
   1  -1  -7  217.80    4.38
   1  -1  -7  243.56    4.31
  -1  -1   7  233.61    4.38
  -1  -1   7  225.77    4.67
  -1  -1   7  224.28    4.04
  -1  -1   7  210.80    4.31
  -1  -1   7  234.54    4.40
   1  -1  -6  321.59    5.04
   1  -1  -6  316.97    4.43
   1  -1  -5 2651.90   17.25
   1  -1  -5 2709.84   18.72
  -1  -1   4 3189.25   17.18
   1  -1  -4 3103.89   20.16
   1  -1  -3 4566.60   27.56
  -1  -1   3 4897.29   25.78
   1  -1  -2 4379.31   22.69
   1  -1  -2 4359.49   23.88
   1  -1  -1 7827.40   41.73
   1  -1  -1 7869.58   42.77
   1  -1  -1 7948.08   42.14
  -1  -1   1 7976.46   41.94
   1  -1   0 1030.47    7.10
   1  -1   0 1036.07    7.00
   1  -1   1 1673.33   10.25
   1  -1   2  957.31    7.11
  -1  -1  -3 2605.83   15.54
  -1  -1  -4 2166.40   14.01
  -1  -1  -4 2102.94   14.88
  -1  -1  -5 1407.78   11.78
  -1  -1  -5 1433.53   11.08
  -1  -1  -5 1434.54   11.91
   1  -1   6 2558.25   18.85
  -1  -1  -6 2601.60   18.19
  -1  -1  -6 2440.47   18.57
  -1  -1  -6 2506.56   19.09
   1  -1   6 2501.03   18.11
   1  -1   6 2602.14   18.05
  -1  -1  -7 2206.94   17.11
   1  -1   7 2171.55   17.15
   1  -1   7 2148.31   16.95
  -1  -1  -7 2102.23   17.03
  -1  -1  -7 2154.10   18.07
   1  -1   7 2149.65   17.42
  -1  -1  -8  984.07   11.03
   1  -1   8 1105.70   11.66
   1  -1   8  972.45    9.96
  -1  -1  -8 1092.14   11.57
   1  -1   8 1139.57   11.41
   1  -1   8 1111.13   12.41
   1  -1   8 1077.81   11.51
   1  -1   9 1147.08   12.34
   1  -1   9 1102.40   12.68
   1  -1   9 1130.29   12.66
   1  -1   9 1135.79   11.21
   1  -1   9 1117.93   13.41
   1  -1  10  331.82    7.20
   1  -1  10  344.26    6.80
   1  -1  10  326.05    6.88
   1  -1  10  336.08    6.47
   1  -1  10  319.76    6.32
   1  -1  10  330.60    5.85
   1  -1  10  335.32    6.87
   1  -1  11  142.29    4.70
   1  -1  11  130.96    4.07
   1  -1  11  131.76    3.83
   1  -1  11  142.64    4.86
   1  -1  11  147.75    4.46
   1  -1  12  123.40    4.69
   1  -1  12  129.98    4.33
   1  -1  12  131.57    4.64
   1  -1  12  125.59    3.81
   1  -1  12  120.49    3.88
   1  -1  13  310.42    7.16
   1  -1  13  327.98    7.58
   1  -1  14   38.23    2.46
   1  -1  14   35.83    2.12
   1  -1  14   37.83    2.41
   1  -1  15  307.44    6.29
   1  -1  15  304.46    5.29
   1  -1  16   10.72    1.05
   1  -1  16   10.15    0.95
  -1   0  17  130.79    2.86
  -1   0  16  253.89    5.26
  -1   0  15  597.21    9.49
  -1   0  14  133.33    4.61
  -1   0  14  117.37    3.95
  -1   0  13 1920.66   21.44
  -1   0  13 1873.06   19.21
  -1   0  12 1345.92   16.68
  -1   0  12 1322.38   15.49
  -1   0  12 1274.67   13.29
  -1   0  12 1281.47   15.19
  -1   0  11   77.47    2.87
  -1   0  11   80.76    3.38
  -1   0  11   86.74    3.77
  -1   0  11   76.25    3.35
  -1   0  10  807.19    9.57
  -1   0  10  788.04   11.51
  -1   0  10  826.19   10.92
  -1   0  10  810.93   10.11
  -1   0   9  218.15    4.78
  -1   0   9  219.60    4.61
  -1   0   9  200.38    5.03
  -1   0   9  205.18    4.83
  -1   0   9  201.64    4.21
  -1   0   9  205.43    4.54
   1   0  -8 1497.70   12.82
  -1   0   8 1405.99   14.44
  -1   0   8 1641.60   13.77
  -1   0   8 1594.79   14.40
  -1   0   8 1751.35   15.39
  -1   0   8 1580.39   13.33
  -1   0   8 1625.11   14.02
  -1   0   8 1603.41   14.02
  -1   0   7  679.97    7.52
  -1   0   7  674.54    7.92
   1   0  -6  595.31    6.05
   1   0  -5 3691.86   22.39
   1   0  -4  240.29    3.05
  -1   0   4  244.83    3.33
  -1   0   3    1.57    0.24
  -1   0   3    2.32    0.32
  -1   0   2   17.07    0.61
   1   0  -2   18.86    0.62
   1   0  -2   10.64    0.51
   1   0  -1   85.10    1.23
  -1   0   1   77.48    1.13
  -1   0   0    5.57    0.21
   1   0   0    4.34    0.19
   1   0   1  320.89    2.92
   1   0   1  320.83    2.55
  -1   0  -2 1822.75   11.63
   1   0   2 1817.46   11.06
   1   0   3  336.08    3.63
  -1   0  -3  351.02    4.07
   1   0   4    2.20    0.36
  -1   0  -4    4.48    0.51
  -1   0  -5    3.22    0.47
  -1   0  -5    4.70    0.46
   1   0   5    4.06    0.51
  -1   0  -5    5.02    0.60
  -1   0  -6 3700.62   25.07
  -1   0  -6 3735.83   23.67
   1   0   6 3839.08   25.12
  -1   0  -6 3838.89   25.87
   1   0   7 2345.00   18.28
  -1   0  -7 2498.73   19.88
  -1   0  -7 2253.36   16.59
   1   0   7 2374.43   17.55
  -1   0  -7 2413.23   19.18
   1   0   7 2424.03   17.66
   1   0   7 2364.49   17.78
   1   0   7 2539.30   19.43
   1   0   7 2362.47   18.43
   1   0   7 2366.36   18.69
  -1   0  -8 1004.23   11.91
   1   0   8  971.75   11.02
   1   0   8  950.43   10.75
   1   0   8  959.12   10.23
   1   0   8  927.95   10.64
   1   0   8  979.73   10.40
   1   0   8  975.77   10.14
   1   0   9  140.12    4.03
   1   0   9  132.74    3.65
   1   0   9  138.00    3.86
   1   0   9  129.01    3.63
   1   0   9  141.55    4.22
   1   0  10  997.61   11.61
   1   0  10  997.00   13.00
   1   0  10  995.38   12.50
   1   0  10  986.26   11.73
   1   0  11  198.76    5.28
   1   0  11  208.36    5.65
   1   0  12  119.18    4.41
   1   0  12  119.50    4.16
   1   0  13  289.56    6.93
   1   0  13  295.54    6.63
   1   0  14  142.03    4.49
   1   0  14  147.83    4.42
   1   0  15 1021.05   11.67
   1   0  15 1123.11   11.90
   1   0  16  903.53   11.53
   1   0  17  152.32    3.49
  -1   1  17   32.78    1.69
  -1   1  17   37.16    1.68
  -1   1  16  219.26    5.07
  -1   1  16  224.76    5.52
  -1   1  16  214.49    4.87
  -1   1  15   97.64    3.78
  -1   1  15  101.27    3.86
  -1   1  14  103.94    4.25
  -1   1  14  103.47    4.12
  -1   1  13 1065.14   14.86
  -1   1  12  547.42   10.00
   1   1 -12  558.95    9.25
  -1   1  12  559.93   10.49
  -1   1  11  323.91    7.57
  -1   1  11  334.61    7.32
   1   1 -11  341.33    7.18
   1   1 -10  745.25   10.67
  -1   1  10  745.92   10.99
  -1   1  10  730.58   10.38
   1   1  -9   86.74    3.27
  -1   1   9   93.09    3.26
  -1   1   9   95.12    3.48
  -1   1   9   91.69    3.22
   1   1  -8  397.47    6.96
   1   1  -8  396.49    6.88
  -1   1   8  399.88    6.79
  -1   1   8  403.44    6.47
  -1   1   8  397.04    6.38
  -1   1   7  205.90    4.10
   1   1  -7  213.46    4.63
  -1   1   7  201.32    4.30
  -1   1   7  204.88    4.17
  -1   1   7  216.35    5.30
   1   1  -6  368.47    5.27
  -1   1   6  375.99    6.31
  -1   1   5 2444.40   18.37
   1   1  -4 2954.92   20.48
  -1   1   4 3273.41   20.60
  -1   1   3 5129.85   29.04
   1   1  -3 5058.58   29.79
   1   1  -2 4300.70   24.58
   1   1  -2 4343.33   26.03
   1   1  -1 7865.05   42.70
  -1   1   1 7965.42   41.99
  -1   1   0 1155.02    7.59
  -1   1   0 1154.63    6.96
   1   1   1 1663.48    9.42
  -1   1  -1 1662.30   10.74
  -1   1  -1 1657.61    9.86
   1   1   2  939.00    6.89
  -1   1  -2  932.29    5.73
  -1   1  -3 2500.43   16.74
  -1   1  -3 2570.39   17.11
  -1   1  -4 2018.34   11.31
  -1   1  -4 2142.98   15.52
  -1   1  -4 2164.06   15.26
  -1   1  -4 2030.39   14.34
  -1   1  -5 1564.14    9.19
  -1   1  -5 1569.40   13.30
  -1   1  -6 2459.94   18.58
  -1   1  -6 2510.75   19.48
   1   1   6 2512.66   18.70
  -1   1  -6 2379.52   13.97
  -1   1  -6 2399.19   18.63
   1   1   6 2509.18   18.15
   1   1   7 2189.96   16.86
  -1   1  -7 2138.65   17.16
   1   1   7 2107.02   17.22
  -1   1  -7 2120.16   17.81
   1   1   7 2178.33   17.94
  -1   1  -7 2115.36   18.03
  -1   1  -8 1021.80   11.51
   1   1   8 1026.30   11.47
   1   1   8 1024.68   11.85
  -1   1  -9 1180.37   13.03
   1   1   9 1160.70   13.08
   1   1   9 1141.75   12.48
   1   1  10  310.46    6.65
  -1   1 -10  299.56    6.30
   1   1  10  286.21    6.19
   1   1  10  297.62    6.42
   1   1  11  120.82    4.15
   1   1  11  137.02    4.60
  -1   1 -11  134.56    4.22
   1   1  11  132.70    4.51
   1   1  12   91.01    3.66
   1   1  12  100.13    4.05
   1   1  12  101.17    4.07
   1   1  13  306.90    7.19
   1   1  13  319.11    7.30
   1   1  14   59.05    3.02
   1   1  14   59.43    3.01
   1   1  15  340.87    6.76
   1   1  15  340.23    6.53
   1   1  16   14.05    1.19
   1   1  16   14.07    1.37
   1   1  17   25.72    1.36
  -1   2  16  311.47    5.55
  -1   2  16  320.71    4.85
  -1   2  15  231.10    4.95
  -1   2  15  234.83    5.73
  -1   2  14  663.14   11.18
   1   2 -14  642.04    9.23
  -1   2  13  622.51   10.06
   1   2 -13  630.85   10.24
  -1   2  12 1111.14   15.57
  -1   2  12 1100.88   13.79
  -1   2  11  166.12    5.49
   1   2 -11  163.02    4.98
   1   2 -11  160.75    5.42
   1   2 -10  857.56   12.84
  -1   2  10  851.01   12.43
   1   2  -9 1083.45   14.13
  -1   2   9 1094.03   13.60
  -1   2   9 1057.13   13.11
   1   2  -8  411.98    6.90
  -1   2   8  390.24    6.25
   1   2  -8  406.76    7.87
  -1   2   8  404.14    7.24
  -1   2   8  411.69    7.04
  -1   2   7 1417.92   12.65
  -1   2   7 1396.75   13.52
  -1   2   7 1440.74   17.41
   1   2  -7 1462.26   13.82
   1   2  -7 1420.67   13.51
   1   2  -7 1452.16   14.55
  -1   2   7 1426.22   13.99
   1   2  -7 1428.28   15.43
   1   2  -7 1383.60   13.43
   1   2  -6  743.43    8.41
  -1   2   6  746.31    8.93
  -1   2   6  784.80    9.03
  -1   2   6  763.47   11.08
   1   2  -6  749.05    8.96
  -1   2   6  742.23    8.37
   1   2  -6  759.30    8.48
   1   2  -6  737.31    9.36
   1   2  -6  755.16   10.02
   1   2  -5  834.10    9.62
  -1   2   5  835.49    8.75
   1   2  -5  836.78    9.28
  -1   2   5  855.09   10.68
  -1   2   5  849.13    9.02
   1   2  -5  844.84   10.23
   1   2  -5  810.71    8.08
   1   2  -5  859.49    9.96
   1   2  -5  851.88    8.21
   1   2  -4  308.41    5.25
   1   2  -4  346.89    4.27
   1   2  -4  327.50    5.66
  -1   2   4  342.03    5.90
   1   2  -4  327.83    5.77
   1   2  -4  321.71    5.70
   1   2  -4  327.46    4.32
   1   2  -3  782.41    9.01
   1   2  -3  823.42    6.46
   1   2  -2   97.05    1.38
   1   2  -2   90.73    2.54
   1   2  -1 1591.86   12.35
  -1   2   0  586.80    4.74
   1   2   0  580.68    4.06
  -1   2  -1 1521.39   10.10
  -1   2  -1 1207.05   10.02
  -1   2  -2 1306.97   11.03
  -1   2  -2 1350.52   10.46
  -1   2  -3  791.40    8.35
  -1   2  -3  843.41    8.28
  -1   2  -4  370.06    5.91
  -1   2  -4  371.48    5.93
  -1   2  -4  371.30    5.63
   1   2   4  362.14    6.42
  -1   2  -4  391.95    6.04
   1   2   4  384.22    5.91
   1   2   4  371.54    5.43
   1   2   5  761.38   10.45
  -1   2  -5  777.53    9.59
  -1   2  -5  793.62    9.44
   1   2   5  770.99    8.79
   1   2   5  767.93    9.42
   1   2   5  756.82   11.42
  -1   2  -5  747.08    8.15
  -1   2  -6  313.06    6.13
   1   2   6  314.32    6.97
  -1   2  -6  315.44    6.19
  -1   2  -6  303.93    6.19
  -1   2  -6  302.06    6.11
   1   2   6  317.02    5.73
   1   2   6  323.37    7.63
   1   2   6  316.84    4.88
   1   2   7 1369.36   12.61
   1   2   7 1372.73   17.62
   1   2   7 1363.53   14.04
  -1   2  -7 1322.86   14.65
  -1   2  -7 1350.26   14.58
  -1   2  -8  586.78    9.24
  -1   2  -8  584.09    9.49
   1   2   8  593.60    8.15
   1   2   8  605.32   11.60
  -1   2  -9  671.86   10.63
  -1   2  -9  679.67   10.19
   1   2   9  679.78   12.56
   1   2   9  662.63    9.37
   1   2  10  967.42   12.16
  -1   2 -10  984.87   13.42
   1   2  10  950.35   14.75
   1   2  11  168.48    5.51
  -1   2 -11  179.24    5.45
   1   2  11  166.76    4.83
   1   2  11  166.38    5.57
   1   2  12  869.55   13.08
   1   2  12  807.85   11.36
  -1   2 -12  854.23   12.17
   1   2  12  816.11   14.44
   1   2  13  160.20    5.21
   1   2  13  147.45    4.50
  -1   2 -13  157.26    4.49
   1   2  13  158.42    5.93
   1   2  14  380.82    8.64
   1   2  14  399.35    7.23
   1   2  15  365.90    5.92
  -1   2 -15  386.99    6.11
   1   2  16  327.12    5.62
   1   3 -15  146.30    2.96
  -1   3  14  126.17    3.78
   1   3 -14  138.29    3.90
  -1   3  13   36.85    2.51
   1   3 -13   39.48    2.47
  -1   3  13   40.74    2.53
   1   3 -12  140.87    4.50
   1   3 -12  135.64    4.96
  -1   3  12  144.78    5.24
  -1   3  12  143.89    5.31
  -1   3  11  262.27    7.29
   1   3 -11  258.49    6.73
  -1   3  11  254.33    7.56
   1   3 -11  260.70    7.22
   1   3 -10   41.73    2.83
   1   3 -10   40.65    2.88
  -1   3  10   38.23    2.71
  -1   3  10   39.48    3.01
   1   3  -9  198.22    6.21
  -1   3   9  196.88    5.86
   1   3  -8 1028.38   12.49
  -1   3   8  991.49   13.25
   1   3  -7  436.93    8.13
   1   3  -7  440.19    7.48
  -1   3   7  440.71    7.83
  -1   3   7  445.35    8.74
  -1   3   6  607.53    9.56
   1   3  -6  593.06    8.75
   1   3  -6  621.23    9.81
  -1   3   6  613.73    8.79
   1   3  -6  579.72    9.73
   1   3  -5 1554.93   16.47
   1   3  -5 1528.90   15.17
   1   3  -4  424.55    7.04
   1   3  -4  397.87    7.40
   1   3  -4  419.74    7.31
   1   3  -4  413.26    7.33
  -1   3   4  425.40    6.18
   1   3  -3 1774.22   17.59
   1   3  -3 1757.34   16.69
   1   3  -3 1789.84   16.37
   1   3  -3 1765.64   16.36
   1   3  -3 1738.43   16.21
   1   3  -2  416.37    6.65
   1   3  -2  398.32    6.86
   1   3  -2  417.62    6.57
   1   3  -2  429.27    7.73
  -1   3   2  389.97    6.31
   1   3  -1 1836.82   15.23
   1   3  -1 1836.55   15.74
  -1   3   1 1832.21   15.03
   1   3  -1 1871.22   17.94
  -1   3   0 1364.59   13.51
   1   3   0 1377.63   12.46
   1   3   0 1413.55   13.63
  -1   3   0 1361.19   12.91
   1   3   0 1418.26   15.35
  -1   3  -1 1705.07   15.68
  -1   3  -1 1772.63   16.07
   1   3   1 1763.07   18.20
   1   3   1 1717.76   15.17
  -1   3  -1 1729.01   14.52
   1   3   2  890.30   12.29
  -1   3  -2  806.15    8.61
  -1   3  -2  851.11   10.39
  -1   3  -2  849.76    9.65
  -1   3  -2  841.59    8.62
   1   3   3 2206.95   21.40
  -1   3  -3 2104.85   18.62
  -1   3  -3 2180.38   16.48
  -1   3  -3 2118.10   18.15
  -1   3  -4  392.82    5.92
   1   3   4  421.95    7.56
  -1   3  -4  423.13    7.35
  -1   3  -4  415.38    7.66
   1   3   4  413.34    8.67
   1   3   5  420.10    8.96
  -1   3  -5  393.54    6.26
   1   3   5  411.74    7.74
  -1   3  -5  415.69    7.74
   1   3   6  951.95   11.83
   1   3   6  900.84   12.72
   1   3   6  942.98   14.37
  -1   3  -6  943.47   13.07
  -1   3  -6  934.67   12.71
   1   3   7  911.10   13.57
   1   3   7  910.01   14.45
  -1   3  -7  925.51   13.18
   1   3   7  907.42   12.19
  -1   3  -8  237.56    6.55
   1   3   8  240.38    7.16
  -1   3  -8  230.14    6.46
   1   3   8  240.21    6.19
   1   3   8  247.00    7.28
  -1   3  -9  412.77    8.86
  -1   3  -9  423.49    8.63
   1   3   9  424.40   10.03
   1   3   9  407.02    8.52
   1   3   9  400.47    9.12
  -1   3 -10  546.39   10.22
  -1   3 -10  562.80    9.87
   1   3  10  542.07   10.16
   1   3  10  557.14   11.85
  -1   3 -11  468.60    9.33
  -1   3 -11  482.34    8.66
   1   3  11  468.53   10.79
  -1   3 -12   49.86    2.38
  -1   3 -12   49.84    2.80
   1   3  12   46.77    3.21
  -1   3 -13  153.24    4.30
   1   3  13  150.15    5.23
  -1   3 -14  178.54    3.86
   1   4 -14  100.37    2.61
   1   4 -13  311.99    6.04
   1   4 -13  289.14    4.66
   1   4 -12  174.64    5.16
   1   4 -12  170.37    4.50
   1   4 -11   90.52    3.79
   1   4 -11   78.48    3.84
   1   4 -10 1111.03   15.41
   1   4  -9  299.72    8.01
   1   4  -9  284.82    7.80
   1   4  -8  306.47    7.81
   1   4  -8  305.69    8.16
   1   4  -7  253.20    7.08
   1   4  -7  257.61    5.99
   1   4  -6   41.60    2.79
   1   4  -6   40.54    2.35
   1   4  -5  175.65    5.50
   1   4  -5  174.63    4.89
   1   4  -5  168.07    5.52
   1   4  -4   28.07    1.99
   1   4  -4   30.39    2.42
   1   4  -4   28.11    2.13
   1   4  -3  545.14    8.98
   1   4  -3  539.77    8.98
   1   4  -2  164.10    5.55
   1   4  -2  150.64    4.29
   1   4  -2  153.26    4.67
   1   4  -1  170.07    5.69
  -1   4   1  160.48    4.09
  -1   4   1  161.84    4.69
   1   4  -1  163.77    4.93
  -1   4   0  191.62    5.19
  -1   4   0  191.20    4.74
   1   4   0  202.24    6.18
  -1   4  -1  107.54    3.76
   1   4   1  110.78    4.61
  -1   4  -1  104.37    3.87
  -1   4  -1  111.56    3.33
  -1   4  -2  187.05    5.23
  -1   4  -2  183.93    4.61
  -1   4  -2  184.57    5.26
   1   4   2  195.57    6.20
   1   4   3  397.24    9.02
  -1   4  -3  403.02    8.21
  -1   4  -3  398.98    7.81
  -1   4  -3  400.36    7.40
  -1   4  -4  212.10    4.50
   1   4   4  218.32    6.67
  -1   4  -4  238.38    6.14
  -1   4  -4  229.30    6.32
  -1   4  -4  225.58    5.79
   1   4   5   85.69    4.20
  -1   4  -5   77.35    2.78
  -1   4  -5   79.31    3.52
  -1   4  -5   83.43    3.94
  -1   4  -5   84.54    3.66
  -1   4  -6   81.70    3.79
   1   4   6   87.01    4.18
  -1   4  -7   54.35    3.14
   1   4   7   51.63    3.13
  -1   4  -7   51.12    3.16
  -1   4  -8   38.41    2.71
  -1   4  -8   39.63    2.70
  -1   4  -9  166.70    5.42
  -1   4 -10  186.35    5.39
  -1   4 -11  808.79   10.65
  -1   4 -11  775.53   11.17
  -1   4 -12  240.57    4.73
  -1   4 -12  255.01    5.51
  -1   4 -13  185.86    4.00
   1   5 -12   37.03    1.64
   1   5 -11    0.94    0.52
   1   5 -11    1.86    0.59
   1   5 -10   49.85    2.62
   1   5 -10   53.81    2.74
   1   5  -9   34.96    2.36
   1   5  -9   33.60    2.40
   1   5  -8  427.93    8.61
   1   5  -7  156.27    5.52
   1   5  -7  155.17    5.13
   1   5  -6  207.61    5.88
   1   5  -6  197.95    4.89
   1   5  -6  203.14    6.45
   1   5  -6  205.31    6.10
   1   5  -5  331.45    8.20
   1   5  -5  327.58    7.36
   1   5  -5  331.03    8.16
   1   5  -5  325.57    6.46
   1   5  -4  135.25    4.48
   1   5  -4  135.54    4.14
   1   5  -4  148.24    5.60
   1   5  -4  138.27    5.23
   1   5  -3   33.78    2.55
   1   5  -3   33.79    2.14
   1   5  -3   36.23    2.78
   1   5  -2   71.30    3.07
   1   5  -2   73.57    3.58
  -1   5   2   68.94    2.96
   1   5  -2   81.12    4.15
   1   5  -1  371.55    7.68
   1   5  -1  382.43    7.40
  -1   5   0  250.18    5.60
   1   5   0  266.54    6.12
  -1   5   0  252.19    6.03
  -1   5  -1 1885.79   19.10
   1   5   1 1943.88   22.07
  -1   5  -1 1931.57   18.69
  -1   5  -2  234.59    6.12
   1   5   2  243.12    7.07
  -1   5  -2  250.89    6.31
   1   5   3  477.48    9.86
  -1   5  -3  496.96    8.04
  -1   5  -3  488.34    9.19
  -1   5  -3  476.43    8.79
  -1   5  -4  117.12    4.26
  -1   5  -4  120.41    4.05
  -1   5  -4  111.58    4.43
   1   5   4  111.23    4.50
  -1   5  -5   13.01    1.42
  -1   5  -5   14.11    1.68
   1   5   5   12.85    1.51
  -1   5  -6  119.62    4.19
  -1   5  -6  117.92    4.47
  -1   5  -7  134.31    4.66
  -1   5  -7  137.23    4.45
  -1   5  -8  189.83    5.11
  -1   5  -9  189.78    4.93
  -1   5  -9  178.06    4.74
  -1   5 -10  390.54    6.50
  -1   5 -10  364.77    6.42
  -1   5 -11   48.43    1.87
  -1   5 -11   48.48    2.05
   1   6  -8   42.70    1.95
   1   6  -7   61.90    2.57
   1   6  -6    5.24    0.89
   1   6  -5  104.78    3.66
   1   6  -4   23.65    1.72
   1   6  -3   50.39    2.36
   1   6  -3   52.61    2.76
   1   6  -2  217.13    5.61
   1   6  -1  156.63    4.81
   1   6   0   38.31    2.34
   1   6   1   64.40    2.89
  -1   6  -2   50.55    2.08
   1   6   2   47.75    2.36
  -1   6  -3  135.65    3.65
  -1   6  -4  114.11    3.42
  -1   6  -5   28.04    1.70
  -1   6  -6   82.99    2.80
  -1   6  -7  106.04    3.01
  -2  -6   7   10.86    0.90
  -2  -6   7   12.68    1.02
  -2  -6   6   10.37    1.00
  -2  -6   6    9.79    1.00
  -2  -6   5  163.66    4.04
  -2  -6   5  158.77    3.73
  -2  -6   4  140.30    3.75
  -2  -6   3  173.41    4.43
  -2  -5  12  215.49    3.48
  -2  -5  11  231.12    4.33
  -2  -5  11  188.41    4.03
  -2  -5  11  223.98    4.36
  -2  -5  11  190.83    3.90
  -2  -5  10   70.52    2.72
  -2  -5  10   63.36    2.60
  -2  -5  10   68.38    2.70
  -2  -5  10   64.67    2.56
  -2  -5   9  117.92    3.71
  -2  -5   9  126.70    3.71
  -2  -5   9  118.77    3.84
  -2  -5   9  119.93    3.98
  -2  -5   9  115.21    3.84
  -2  -5   8   12.84    1.36
  -2  -5   8   12.04    1.10
  -2  -5   8   15.21    1.46
  -2  -5   8   12.74    1.35
  -2  -5   7  121.25    4.20
  -2  -5   7  116.75    3.59
  -2  -5   7  126.69    4.23
  -2  -5   6  177.95    4.74
  -2  -5   6  185.90    5.22
  -2  -5   5  177.41    4.95
  -2  -5   4  569.42    9.67
   2  -5   5   86.01    2.77
   2  -5   6   21.01    1.40
   2  -5   7  158.42    3.73
   2  -5   8  226.59    4.49
   2  -5   8  220.85    4.31
   2  -5   9   85.38    2.52
   2  -5   9   85.66    2.91
   2  -5   9   84.37    2.58
   2  -5  10  470.89    5.92
   2  -5  10  482.41    6.66
   2  -5  11   39.15    1.61
  -2  -4  14   55.55    1.76
  -2  -4  14   57.35    2.16
  -2  -4  13  124.47    3.04
  -2  -4  13  128.71    3.23
  -2  -4  13  126.61    3.60
  -2  -4  13  124.75    3.83
  -2  -4  12  187.55    4.95
  -2  -4  12  194.40    4.57
  -2  -4  12  190.27    5.32
  -2  -4  11   23.96    2.08
  -2  -4  11   21.99    1.82
  -2  -4  11   23.39    1.79
  -2  -4  11   22.44    1.70
  -2  -4  10  180.63    4.72
  -2  -4  10  183.99    5.51
  -2  -4  10  180.46    4.98
  -2  -4   9  643.17   11.01
  -2  -4   9  647.82   10.35
  -2  -4   9  648.66    9.66
  -2  -4   8   98.49    3.69
  -2  -4   8  101.83    4.26
  -2  -4   8   95.92    3.97
  -2  -4   7  363.53    6.53
  -2  -4   7  363.94    7.40
  -2  -4   6  382.20    7.84
  -2  -4   6  382.28    7.01
  -2  -4   5  159.33    4.55
   2  -4   4  452.10    7.09
   2  -4   5  467.64    7.46
   2  -4   6 1001.60   11.76
   2  -4   6 1009.92   11.94
   2  -4   6  996.19   11.68
   2  -4   7  177.82    4.75
   2  -4   7  181.94    4.72
   2  -4   7  181.86    4.79
   2  -4   8  759.95   10.56
   2  -4   8  786.41   10.36
   2  -4   9   80.95    3.12
   2  -4   9   78.94    3.07
   2  -4   9   75.59    3.18
   2  -4  10  243.18    5.30
   2  -4  10  226.36    5.38
   2  -4  11  129.48    3.65
   2  -4  11  127.56    3.81
   2  -4  11  131.63    3.88
   2  -4  12   59.16    2.45
   2  -4  12   56.04    2.31
   2  -4  12   58.19    2.25
   2  -4  12   53.99    2.28
   2  -4  13    1.13    0.37
   2  -4  13    1.24    0.43
   2  -4  13    1.79    0.48
  -2  -3  16  254.80    4.01
  -2  -3  15  169.60    3.32
  -2  -3  15  179.30    4.23
  -2  -3  14  155.13    4.60
  -2  -3  14  186.17    4.05
  -2  -3  13  597.42    8.80
  -2  -3  13  572.90    7.88
  -2  -3  13  596.89    8.42
  -2  -3  12  313.42    6.69
  -2  -3  12  312.43    6.46
  -2  -3  12  311.63    7.28
  -2  -3  11  884.02   11.66
  -2  -3  11  875.66   12.12
  -2  -3  11  856.86   13.01
  -2  -3  11  868.51   11.64
  -2  -3  10  444.98    8.21
  -2  -3  10  435.06    7.98
  -2  -3  10  427.75    8.36
  -2  -3  10  460.25    9.20
  -2  -3   9  326.97    7.67
  -2  -3   9  345.44    6.95
  -2  -3   9  323.05    7.23
  -2  -3   8  127.66    4.16
  -2  -3   8  119.89    4.25
  -2  -3   7  252.54    5.38
  -2  -3   7  260.11    5.93
  -2  -3   6  835.77    9.51
  -2  -3   6  878.34   10.82
  -2  -3   5  656.32    8.89
  -2  -3   5  660.25    8.20
  -2  -3   4  604.01    9.18
  -2  -3   4  599.93    7.75
   2  -3  -3  217.35    4.86
   2  -3  -3  190.42    3.58
  -2  -3   2  450.80    8.54
   2  -3  -2  446.60    6.70
  -2  -3   1  460.34    6.05
   2  -3  -1  461.08    6.45
  -2  -3   1  468.32    7.73
  -2  -3   1  426.33    8.01
   2  -3  -1  437.65    5.83
   2  -3   0  157.46    3.62
  -2  -3   0  152.11    3.57
  -2  -3   0  151.94    4.59
   2  -3   1  435.39    6.55
  -2  -3  -1  447.38    6.78
  -2  -3  -2  110.32    3.41
  -2  -3  -2   98.40    3.63
  -2  -3  -3  110.49    3.90
   2  -3   4   92.65    2.88
   2  -3   5  720.55    8.62
   2  -3   5  716.97    8.97
   2  -3   5  725.57    9.41
   2  -3   5  718.18    8.42
   2  -3   6   11.41    1.05
   2  -3   6   10.71    1.13
   2  -3   6   10.27    1.06
   2  -3   6   14.09    1.36
   2  -3   7 1226.63   13.43
   2  -3   7 1270.42   14.54
   2  -3   7 1261.59   13.55
   2  -3   7 1230.26   12.47
   2  -3   7 1249.11   13.48
   2  -3   8  328.22    6.60
   2  -3   8  338.02    6.71
   2  -3   8  317.18    6.46
   2  -3   8  318.50    7.03
   2  -3   9  193.40    5.57
   2  -3   9  192.49    5.22
   2  -3   9  194.74    5.19
   2  -3   9  200.11    5.18
   2  -3  10  950.24   12.24
   2  -3  10  972.64   12.90
   2  -3  10  938.20   12.05
   2  -3  11  137.44    4.73
   2  -3  11  142.14    4.42
   2  -3  11  141.44    4.51
   2  -3  12  194.18    4.97
   2  -3  12  191.36    5.34
   2  -3  13  516.20    7.64
   2  -3  13  524.90    8.18
   2  -3  13  527.95    8.41
   2  -3  14  294.99    5.29
   2  -3  14  307.52    5.64
   2  -3  15   80.93    2.29
  -2  -2  16   44.64    1.83
  -2  -2  16   48.81    2.03
  -2  -2  15  128.06    3.17
  -2  -2  15  125.17    3.77
  -2  -2  15  130.96    4.00
  -2  -2  14   51.41    2.74
  -2  -2  14   48.54    2.78
  -2  -2  14   51.71    2.74
  -2  -2  14   49.13    2.19
  -2  -2  13  100.81    4.05
  -2  -2  13  108.63    4.10
  -2  -2  13  116.32    3.68
  -2  -2  13  101.63    3.64
  -2  -2  13  113.19    4.17
  -2  -2  13  102.41    3.40
  -2  -2  13  108.37    4.39
  -2  -2  12  217.91    5.96
  -2  -2  12  224.73    6.22
  -2  -2  12  207.43    5.07
  -2  -2  12  223.92    5.57
  -2  -2  12  218.30    5.27
  -2  -2  11  172.81    4.55
  -2  -2  11  173.45    5.18
  -2  -2  11  174.41    4.93
  -2  -2  11  179.89    5.57
  -2  -2  11  166.94    4.62
  -2  -2  11  169.84    4.91
  -2  -2  10  264.24    6.21
  -2  -2  10  261.21    5.92
  -2  -2  10  241.79    6.39
  -2  -2  10  258.08    5.45
  -2  -2  10  251.75    5.92
  -2  -2  10  263.53    5.91
  -2  -2   9   82.60    3.19
  -2  -2   9   81.52    3.20
  -2  -2   9   82.10    3.09
  -2  -2   9   83.81    2.92
  -2  -2   8  546.41    7.44
  -2  -2   8  551.09    8.26
  -2  -2   8  551.09    7.83
  -2  -2   8  552.25    8.07
  -2  -2   7  253.66    4.94
  -2  -2   7  252.51    4.71
  -2  -2   7  260.10    5.00
  -2  -2   7  253.07    4.71
  -2  -2   7  255.50    5.27
   2  -2  -7  256.36    5.30
   2  -2  -6 3404.78   24.04
  -2  -2   6 3328.37   23.37
  -2  -2   6 3319.99   23.22
  -2  -2   6 3368.73   24.45
  -2  -2   6 3305.06   22.61
  -2  -2   6 3338.71   26.13
  -2  -2   5 1194.64   11.56
   2  -2  -5 1157.53   11.66
   2  -2  -5 1181.35    7.47
  -2  -2   5 1221.49   11.08
  -2  -2   5 1229.94   12.75
   2  -2  -4 1274.54   11.78
  -2  -2   4 1272.01    8.51
   2  -2  -3 1383.77    9.54
   2  -2  -3 1379.34    9.96
   2  -2  -2  639.59    5.47
   2  -2  -2  620.80    5.81
  -2  -2   2  621.86    7.73
   2  -2  -2  612.78    6.87
   2  -2  -1 1542.03   10.67
  -2  -2   1 1518.62   13.32
   2  -2   0 1844.91   12.96
  -2  -2   0 1858.23   12.15
  -2  -2   0 1823.99   15.16
   2  -2   0 1862.39   11.49
   2  -2   1 2206.70   13.78
  -2  -2  -1 2223.85   17.21
  -2  -2  -2 2882.76   21.02
  -2  -2  -3 1465.83   12.93
   2  -2   4 1542.98   13.09
   2  -2   5  660.57    8.17
   2  -2   5  648.87    7.56
   2  -2   5  669.28    7.21
   2  -2   5  661.29    7.72
   2  -2   5  647.54    7.14
   2  -2   6 1101.35   11.89
   2  -2   6 1062.17   10.28
   2  -2   6 1077.48   11.01
   2  -2   6 1066.92   10.45
   2  -2   6 1056.56   10.89
   2  -2   6 1072.24   11.04
   2  -2   7  995.97   10.67
   2  -2   7 1007.50   11.15
   2  -2   7 1008.62   11.06
   2  -2   7  994.14   11.92
   2  -2   8 1026.60   12.96
   2  -2   8 1078.21   12.42
   2  -2   8 1025.22   11.90
   2  -2   8 1084.99   12.21
   2  -2   8 1042.59   11.66
   2  -2   9 1377.77   15.37
   2  -2   9 1430.72   15.16
   2  -2   9 1393.18   16.02
   2  -2   9 1374.82   14.52
   2  -2  10 1132.08   14.78
   2  -2  10 1240.62   14.21
   2  -2  10 1167.11   13.70
   2  -2  10 1176.31   14.11
   2  -2  10 1202.45   14.64
   2  -2  11   59.65    2.91
   2  -2  11   59.48    2.92
   2  -2  11   53.52    2.84
   2  -2  12  416.80    7.96
   2  -2  12  395.85    7.62
   2  -2  12  415.05    7.96
   2  -2  13   83.11    3.64
   2  -2  13   89.10    3.49
   2  -2  13   90.99    3.48
   2  -2  13   86.24    3.25
   2  -2  14  176.23    4.53
  -2  -2 -14  182.77    4.59
   2  -2  14  176.53    4.95
   2  -2  15  131.10    3.68
   2  -2  15  134.19    3.31
  -2  -1  17  379.47    5.63
  -2  -1  16  303.72    5.27
  -2  -1  16  313.49    6.10
  -2  -1  15  283.21    6.53
  -2  -1  15  281.62    6.00
  -2  -1  15  273.33    5.81
  -2  -1  14  953.20   12.75
  -2  -1  14  963.85   13.68
  -2  -1  14  989.00   12.44
  -2  -1  13  186.18    5.64
  -2  -1  13  189.83    5.53
  -2  -1  13  199.09    5.44
  -2  -1  13  178.85    4.35
  -2  -1  13  188.81    5.85
  -2  -1  12  404.97    8.19
  -2  -1  12  402.82    7.25
  -2  -1  12  410.95    8.75
  -2  -1  12  377.19    6.54
  -2  -1  12  401.58    8.20
  -2  -1  12  402.43    8.38
  -2  -1  11 1110.79   13.84
  -2  -1  11 1117.02   13.90
  -2  -1  11 1091.77   13.15
  -2  -1  11 1112.87   14.51
  -2  -1  11 1071.79   12.51
  -2  -1  11 1056.83   11.73
  -2  -1  10 1707.66   16.35
  -2  -1  10 1689.73   16.10
  -2  -1  10 1685.35   17.64
  -2  -1  10 1662.49   15.36
  -2  -1  10 1727.88   17.39
  -2  -1  10 1684.21   16.25
  -2  -1   9 1598.52   16.23
  -2  -1   9 1536.31   15.02
  -2  -1   9 1608.33   16.26
  -2  -1   9 1580.26   15.02
  -2  -1   9 1555.93   13.65
  -2  -1   9 1604.37   15.60
  -2  -1   9 1604.70   14.94
  -2  -1   8 1103.04   11.70
   2  -1  -8 1047.74   12.05
  -2  -1   8 1114.58   12.09
  -2  -1   8 1088.76   11.11
   2  -1  -8 1095.11   10.92
  -2  -1   8 1114.96   11.54
  -2  -1   8 1088.90   10.34
   2  -1  -8 1041.04   11.50
   2  -1  -7 1504.21   14.01
  -2  -1   7 1493.62   13.68
  -2  -1   7 1491.50   14.47
  -2  -1   7 1480.77   12.79
  -2  -1   7 1478.13   13.32
  -2  -1   7 1456.87   12.87
  -2  -1   6 1116.14   10.53
  -2  -1   6 1157.90    8.49
   2  -1  -6 1114.77   10.77
  -2  -1   6 1065.57   11.29
   2  -1  -6 1094.92   10.55
   2  -1  -5  206.85    3.75
   2  -1  -5  192.84    3.60
   2  -1  -5  193.53    2.98
  -2  -1   5  205.40    2.75
  -2  -1   4 1821.27   11.94
   2  -1  -4 1848.09   11.69
   2  -1  -3 1464.08    8.90
   2  -1  -3 1441.13   11.14
   2  -1  -2 1324.30   10.09
  -2  -1   2 1366.20    9.98
   2  -1  -1 2519.61   14.05
  -2  -1   1 2664.09   16.17
  -2  -1   0 2884.08   18.44
  -2  -1   0 2997.08   18.61
  -2  -1  -1 3035.91   19.67
   2  -1   1 3103.29   19.56
  -2  -1  -2  742.16    6.97
   2  -1   2  734.79    6.56
   2  -1   2  752.36    7.21
   2  -1   3 1099.43    9.20
  -2  -1  -3 1045.67    8.88
  -2  -1  -4  174.14    2.93
   2  -1   5 1783.22   14.45
   2  -1   5 1730.66   13.42
   2  -1   5 1753.85   13.54
  -2  -1  -5 1771.81   13.49
   2  -1   6  468.47    6.35
   2  -1   6  469.11    6.41
  -2  -1  -6  466.55    6.25
   2  -1   6  454.00    6.08
  -2  -1  -7  113.74    3.21
   2  -1   7  112.63    3.26
   2  -1   7  120.83    3.23
  -2  -1  -7   99.37    3.06
   2  -1   7  108.35    3.10
   2  -1   7  105.60    3.17
  -2  -1  -7  107.58    3.28
   2  -1   8   99.25    3.32
   2  -1   8   90.68    3.31
   2  -1   8   96.55    3.32
   2  -1   8   97.36    3.14
   2  -1   8   91.27    3.02
   2  -1   9  338.48    6.94
   2  -1   9  334.89    6.40
   2  -1   9  337.72    6.46
   2  -1   9  352.88    6.91
   2  -1  10  146.12    4.78
   2  -1  10  150.62    4.47
   2  -1  10  159.27    4.78
   2  -1  11  564.44    9.24
   2  -1  11  561.67    9.81
   2  -1  11  583.63   10.30
   2  -1  12  703.79   11.09
   2  -1  12  681.04   10.38
   2  -1  13  615.90   10.17
   2  -1  13  623.48   10.51
   2  -1  14  889.76   12.22
   2  -1  14  854.80   10.74
   2  -1  15  394.90    5.88
   2  -1  15  409.18    7.14
   2  -1  16  286.12    4.96
  -2  -1 -16  313.73    5.19
  -2   0  17   39.19    1.72
  -2   0  16   68.10    2.79
  -2   0  15   46.75    2.60
  -2   0  14  496.90    9.13
  -2   0  14  471.96    9.68
  -2   0  14  479.58    7.94
  -2   0  13   45.26    2.76
  -2   0  13   49.02    2.62
  -2   0  12    2.61    0.75
  -2   0  12    7.63    1.13
  -2   0  11   23.99    1.86
  -2   0  11   26.97    1.96
  -2   0  11   22.88    1.73
  -2   0  11   25.07    1.90
  -2   0  10   52.80    2.27
  -2   0  10   54.09    2.58
  -2   0  10   50.46    2.53
  -2   0  10   55.12    2.51
  -2   0  10   52.42    2.03
  -2   0   9   93.16    3.20
  -2   0   9   98.55    3.23
  -2   0   9   95.52    2.67
  -2   0   9   92.97    2.86
  -2   0   9   95.76    3.05
  -2   0   8  514.12    6.98
  -2   0   8  508.47    7.15
   2   0  -8  516.86    7.50
  -2   0   8  492.27    6.64
  -2   0   8  503.08    7.30
  -2   0   7  837.20    8.79
   2   0  -7  870.18    9.42
  -2   0   7  854.64    8.99
  -2   0   7  852.77    9.11
  -2   0   6 3531.80   22.70
   2   0  -6 3435.30   23.41
   2   0  -5  227.74    3.70
  -2   0   5  233.02    3.57
  -2   0   4 4829.89   28.43
  -2   0   4 4793.52   28.79
   2   0  -4 4826.48   28.55
   2   0  -3 2764.78   17.02
  -2   0   3 2595.53   17.15
  -2   0   2 5733.97   32.39
   2   0  -2 5838.98   32.01
  -2   0   1  202.94    2.44
  -2   0   0  614.27    4.30
   2   0   1   12.00    0.67
   2   0   1   15.24    0.59
   2   0   2 6593.83   37.47
  -2   0  -2 6533.55   37.22
  -2   0  -3 9928.15   55.17
   2   0   3 9999.00   55.37
   2   0   3 9992.51   54.38
   2   0   4  132.09    2.62
  -2   0  -4  127.05    2.81
   2   0   5 3946.84   25.13
  -2   0  -5 3772.27   25.57
   2   0   6 2145.35   16.06
   2   0   6 2125.10   16.26
   2   0   6 2142.05   16.64
   2   0   6 2144.53   16.93
  -2   0  -6 2150.07   17.38
  -2   0  -7    5.87    0.78
   2   0   7    7.57    0.86
   2   0   7    9.05    0.99
  -2   0  -7    6.84    0.68
   2   0   7    6.94    0.73
  -2   0  -7    6.61    0.86
   2   0   7    8.44    0.90
   2   0   7    7.84    0.86
   2   0   8  753.20    9.41
   2   0   8  726.01    8.75
   2   0   8  748.04    9.43
   2   0   8  742.09    9.56
   2   0   9  976.25   11.83
   2   0   9  985.78   11.16
   2   0   9  964.92   11.77
   2   0   9  948.27   11.88
   2   0  10  794.29   11.27
   2   0  10  803.99   11.35
   2   0  10  833.38   10.65
   2   0  11  545.49    8.72
   2   0  11  525.30    8.50
   2   0  11  519.21    9.32
   2   0  12  622.66    9.60
   2   0  12  603.09    9.22
   2   0  13  330.29    6.35
   2   0  13  339.88    7.61
   2   0  14   29.85    2.08
   2   0  15  162.15    4.88
   2   0  16    1.95    0.55
  -2   1  17  362.11    5.66
  -2   1  17  351.97    5.52
  -2   1  17  367.80    5.44
  -2   1  16  323.28    6.28
  -2   1  16  317.29    6.09
  -2   1  15  278.07    6.60
  -2   1  15  273.05    6.35
  -2   1  14  952.20   13.55
  -2   1  13  209.90    6.26
  -2   1  13  214.74    6.47
  -2   1  12  406.45    8.93
   2   1 -12  430.31    8.29
  -2   1  12  422.14    8.47
  -2   1  11 1130.18   14.90
  -2   1  11 1125.82   14.30
   2   1 -11 1148.41   14.31
  -2   1  11 1171.51   14.24
  -2   1  10 1652.58   17.01
  -2   1  10 1660.59   17.12
   2   1 -10 1663.74   17.59
  -2   1  10 1658.32   17.85
  -2   1   9 1585.30   16.50
  -2   1   9 1635.02   15.91
  -2   1   9 1623.49   15.92
   2   1  -8 1121.77   12.53
  -2   1   8 1186.90   12.81
  -2   1   8 1160.94   12.10
  -2   1   8 1115.70   12.05
  -2   1   8 1180.80   12.24
   2   1  -8 1143.12   11.73
   2   1  -7 1275.03   12.65
  -2   1   7 1259.93   12.11
  -2   1   7 1296.65   12.56
  -2   1   7 1236.35   11.74
  -2   1   7 1300.93   12.21
   2   1  -7 1251.83   12.06
   2   1  -7 1276.10   13.13
  -2   1   7 1225.81   13.76
   2   1  -6 1132.08   10.81
   2   1  -6 1198.59   11.79
   2   1  -6 1179.03   10.64
  -2   1   6 1072.90   11.64
  -2   1   6 1124.21   10.49
  -2   1   5  163.00    3.48
  -2   1   5  173.62    3.56
   2   1  -5  163.58    3.26
  -2   1   4 1848.22   13.11
   2   1  -4 1863.81   13.49
   2   1  -3 1433.92   10.94
  -2   1   3 1354.75    9.92
  -2   1   2 1422.82   10.46
  -2   1   2 1450.33   10.90
  -2   1   1 2486.70   15.45
  -2   1   1 2465.68   16.01
  -2   1   0 2804.40   17.55
  -2   1   0 2831.95   15.82
  -2   1  -1 3247.64   18.98
  -2   1  -1 3209.76   19.75
   2   1   1 3272.40   18.97
   2   1   2  670.46    7.01
  -2   1  -2  724.41    6.90
  -2   1  -2  690.99    6.14
   2   1   2  690.64    6.24
   2   1   2  710.41    5.86
  -2   1  -3 1067.28    9.00
   2   1   3 1081.38    9.11
   2   1   3 1079.05   10.04
  -2   1  -4  165.88    3.44
   2   1   4  161.13    3.54
  -2   1  -4  164.93    3.39
   2   1   5 1756.19   14.16
  -2   1  -5 1807.89   15.15
   2   1   6  466.35    6.46
   2   1   6  462.81    7.44
  -2   1  -6  453.94    6.95
   2   1   6  440.82    6.19
  -2   1  -6  455.91    6.59
  -2   1  -6  460.71    6.32
   2   1   6  469.93    6.33
   2   1   7  131.51    3.55
  -2   1  -7  131.16    3.35
   2   1   7  127.41    3.44
  -2   1  -7  127.68    3.55
   2   1   7  127.96    3.44
   2   1   8   81.66    3.01
  -2   1  -8   82.51    3.00
   2   1   8   76.51    2.86
   2   1   8   80.09    2.99
   2   1   9  296.97    6.22
   2   1   9  307.95    6.32
   2   1   9  287.31    6.06
  -2   1  -9  295.32    6.07
  -2   1 -10  180.90    4.76
   2   1  10  175.84    5.00
   2   1  10  179.16    5.03
   2   1  10  184.93    5.12
   2   1  11  573.52    9.78
   2   1  11  573.25    9.76
  -2   1 -11  577.23    8.84
   2   1  12  751.06   11.53
   2   1  12  737.87   11.40
   2   1  12  725.54   11.16
   2   1  13  667.77   10.47
   2   1  13  662.61   10.69
   2   1  14  730.38   10.79
   2   1  14  941.52   12.43
   2   1  15  481.31    7.73
   2   1  15  433.18    8.32
   2   1  16  271.14    5.47
  -2   1 -16  264.47    4.67
  -2   2  16   42.32    1.86
  -2   2  16   43.70    1.74
  -2   2  15  122.84    3.86
  -2   2  15  126.62    3.65
  -2   2  14   62.30    2.91
   2   2 -14   64.65    2.88
  -2   2  14   62.90    3.29
  -2   2  14   64.19    3.17
  -2   2  13  128.08    5.02
   2   2 -13  127.25    4.59
  -2   2  13  123.36    4.29
  -2   2  12  225.36    6.65
   2   2 -12  215.74    6.39
   2   2 -11  211.03    6.31
  -2   2  11  220.82    6.40
  -2   2  10  242.77    5.70
  -2   2  10  248.40    6.57
  -2   2  10  247.76    6.26
   2   2 -10  254.92    6.78
  -2   2   9  100.21    3.80
  -2   2   9   98.73    3.37
  -2   2   9   92.16    3.63
  -2   2   9   97.21    3.64
   2   2  -9  105.88    4.26
  -2   2   8  509.88    8.29
  -2   2   8  513.32    8.38
  -2   2   8  506.33    7.44
   2   2  -8  517.01    8.52
  -2   2   8  515.13    8.02
  -2   2   7  286.49    5.00
  -2   2   7  284.87    5.63
  -2   2   7  287.97    5.39
  -2   2   7  300.44    5.75
  -2   2   7  281.69    6.90
   2   2  -7  289.57    5.55
   2   2  -7  293.98    6.01
   2   2  -7  285.33    5.49
  -2   2   6 3360.85   24.03
   2   2  -6 3384.06   26.37
  -2   2   6 3310.72   23.35
   2   2  -6 3309.88   23.79
  -2   2   6 3266.58   26.64
  -2   2   6 3320.22   24.09
   2   2  -6 3423.48   24.93
   2   2  -6 3318.76   25.39
  -2   2   5 1151.32   10.72
   2   2  -5 1229.86   12.46
   2   2  -5 1195.66   11.08
   2   2  -5 1137.74   12.02
   2   2  -5 1220.12   13.02
   2   2  -5 1145.97   12.45
  -2   2   5 1161.11   11.07
  -2   2   5 1165.58   12.45
   2   2  -4 1504.68   13.98
   2   2  -4 1466.72   13.80
   2   2  -4 1434.07   13.30
   2   2  -4 1406.98   13.63
   2   2  -3 1379.36   12.87
  -2   2   2  631.00    6.98
   2   2  -2  632.91    7.65
  -2   2   1 1507.87   11.73
  -2   2   0 1849.44   10.79
  -2   2   0 1843.11   13.01
   2   2   0 1850.17   11.47
   2   2   1 2189.28   13.49
   2   2   1 2155.43   12.38
  -2   2  -1 2162.70   13.97
  -2   2  -2 3141.34   21.30
  -2   2  -2 3206.43   18.74
   2   2   3 1489.13   13.66
  -2   2  -3 1460.70   13.07
  -2   2  -3 1474.36   12.84
   2   2   4 1566.18   17.44
   2   2   4 1551.78   14.51
   2   2   4 1523.39   13.38
  -2   2  -4 1568.75   13.96
  -2   2  -4 1505.95   14.12
  -2   2  -5  566.86    8.13
   2   2   5  560.81    8.38
  -2   2  -5  535.69    7.90
   2   2   5  572.53   10.49
  -2   2  -5  604.69    8.43
   2   2   5  578.17    7.80
  -2   2  -6 1009.95   11.89
  -2   2  -6 1008.56   11.86
   2   2   6 1019.66   12.39
   2   2   6  999.70   15.36
   2   2   6 1010.10   10.02
   2   2   7 1003.15   16.22
  -2   2  -7  989.69   12.32
  -2   2  -7  993.02   12.08
   2   2   7 1000.50   10.62
   2   2   8 1000.97   13.72
   2   2   8  966.93   11.10
  -2   2  -8 1001.20   12.28
  -2   2  -8  973.54   12.61
   2   2   9 1299.23   15.69
   2   2   9 1358.36   20.00
  -2   2  -9 1373.55   15.17
   2   2   9 1305.56   14.02
  -2   2  -9 1340.86   15.72
   2   2  10 1060.45   14.25
   2   2  10 1059.69   15.71
  -2   2 -10 1119.95   13.01
   2   2  10 1038.23   12.78
  -2   2 -10 1093.95   14.18
   2   2  10 1086.32   17.21
   2   2  11   20.96    2.24
   2   2  11   23.42    2.05
  -2   2 -11   20.34    1.82
   2   2  11   20.12    2.16
   2   2  11   20.37    1.73
   2   2  12  464.32   10.35
   2   2  12  415.28    8.57
   2   2  12  439.33    8.11
  -2   2 -12  432.48    7.95
   2   2  12  394.27    8.76
  -2   2 -13   92.60    3.23
   2   2  13   90.80    3.43
   2   2  13  101.74    4.64
   2   2  14  193.87    5.86
  -2   2 -14  183.69    4.45
   2   2  15  142.90    4.28
  -2   2 -15  145.60    3.29
   2   3 -15  205.68    3.83
  -2   3  14  187.73    5.02
   2   3 -14  187.36    4.75
   2   3 -13  585.98    8.47
  -2   3  13  598.26   10.35
   2   3 -13  603.26   10.14
  -2   3  12  361.43    7.80
  -2   3  12  350.17    8.24
   2   3 -12  366.18    7.63
  -2   3  11  826.63   13.20
   2   3 -11  847.67   13.18
  -2   3  11  849.76   13.22
   2   3 -11  852.60   13.87
  -2   3  10  453.91    9.58
  -2   3  10  446.60    9.35
   2   3 -10  432.73    9.81
  -2   3   9  379.96    8.28
   2   3  -9  388.03    7.47
  -2   3   8  143.96    4.74
   2   3  -8  149.15    4.66
   2   3  -8  142.13    4.37
   2   3  -7  231.84    6.54
   2   3  -7  242.92    5.64
   2   3  -7  230.50    6.22
  -2   3   7  234.74    5.62
  -2   3   6  855.00   10.48
   2   3  -6  880.21   11.26
   2   3  -6  886.48   12.17
   2   3  -5  649.86    9.45
   2   3  -5  639.85   10.03
   2   3  -4  583.75    9.64
   2   3  -4  601.46    9.01
   2   3  -4  569.96    8.91
   2   3  -3  237.82    5.52
   2   3  -3  222.13    5.29
   2   3  -3  237.76    5.32
   2   3  -3  229.52    5.56
   2   3  -2  459.29    7.77
   2   3  -2  470.38    7.37
  -2   3   1  400.17    5.97
   2   3  -1  387.25    6.86
   2   3  -1  416.11    8.18
   2   3  -1  404.81    6.65
  -2   3   1  403.29    6.11
  -2   3   0  179.51    4.02
   2   3   0  192.22    5.75
   2   3   0  173.19    4.33
   2   3   0  184.01    4.12
  -2   3   0  179.84    4.10
  -2   3   0  186.52    3.70
  -2   3  -1  449.78    6.99
   2   3   1  427.67    6.85
  -2   3  -1  445.19    6.70
  -2   3  -1  452.66    6.46
  -2   3  -2  109.33    3.49
  -2   3  -2  116.21    3.30
   2   3   2  117.72    4.69
  -2   3  -2  116.20    3.43
  -2   3  -3  122.57    3.62
   2   3   3  125.97    5.05
  -2   3  -3  115.53    3.77
  -2   3  -3  119.50    3.57
   2   3   4  114.04    5.01
  -2   3  -4  111.92    3.71
  -2   3  -5  694.63   10.20
  -2   3  -5  642.58   10.27
   2   3   5  726.13   13.58
   2   3   5  676.11   10.65
   2   3   6   18.12    1.77
  -2   3  -6   17.18    1.68
   2   3   6   19.71    2.37
  -2   3  -6   17.92    1.73
  -2   3  -7 1143.24   14.70
   2   3   7 1169.48   15.85
   2   3   7 1183.83   18.80
   2   3   8  287.84    8.94
  -2   3  -8  288.83    6.99
   2   3   8  287.72    7.86
  -2   3  -8  294.85    7.16
   2   3   9  249.03    7.55
   2   3   9  245.65    7.93
  -2   3  -9  251.80    6.66
  -2   3  -9  243.55    6.39
  -2   3 -10  959.62   13.64
  -2   3 -10  967.09   12.84
   2   3  10  995.19   15.90
  -2   3 -11  159.60    4.98
  -2   3 -11  167.51    4.59
   2   3  11  165.48    6.15
  -2   3 -12  155.49    4.58
   2   3  12  158.15    5.79
  -2   3 -13  532.18    7.79
   2   3  13  518.31    9.82
  -2   3 -14  304.74    4.52
   2   4 -14   58.24    2.06
   2   4 -13  122.44    3.13
   2   4 -13  135.59    4.05
   2   4 -12  207.16    5.22
   2   4 -12  206.14    5.76
   2   4 -11   23.26    2.07
   2   4 -10  188.63    6.28
   2   4  -9  747.29   13.55
   2   4  -9  755.39   13.12
   2   4  -8   75.87    3.34
   2   4  -8   74.59    4.03
   2   4  -8   71.90    3.49
   2   4  -7  409.84    7.95
   2   4  -7  391.81    9.19
   2   4  -6  429.90    8.91
   2   4  -6  412.38    8.04
   2   4  -5  155.64    4.89
   2   4  -5  149.89    5.17
   2   4  -4  104.14    4.13
   2   4  -4  102.52    4.07
   2   4  -3  517.36    9.46
   2   4  -3  527.70   10.56
   2   4  -3  495.42    8.76
   2   4  -2 2141.84   23.35
   2   4  -2 2065.19   21.17
  -2   4   1  718.22    9.26
  -2   4   1  718.20    9.59
  -2   4   0  843.38   10.81
  -2   4   0  869.11   10.80
  -2   4  -1  550.45    8.59
  -2   4  -1  554.26    8.85
  -2   4  -1  563.04    7.86
  -2   4  -2  188.66    5.21
  -2   4  -2  187.67    4.97
  -2   4  -2  180.00    4.58
  -2   4  -3  128.92    4.15
   2   4   3  131.84    5.83
  -2   4  -3  126.04    4.11
  -2   4  -3  125.18    4.43
   2   4   4  486.12   11.46
  -2   4  -4  463.82    8.37
  -2   4  -4  470.51    9.06
  -2   4  -5  455.43    9.25
  -2   4  -5  454.85    8.82
   2   4   6  999.45   16.82
  -2   4  -6  969.63   13.56
  -2   4  -7  173.22    5.60
   2   4   7  179.30    6.65
  -2   4  -7  170.09    5.50
  -2   4  -8  682.84   11.26
  -2   4  -8  678.98   11.51
  -2   4  -9   60.87    3.11
   2   4   9   57.35    3.15
  -2   4 -10  240.34    5.74
  -2   4 -11  153.37    4.06
  -2   4 -11  149.83    4.37
  -2   4 -12   59.04    2.44
  -2   4 -13    1.57    0.41
   2   5 -12  218.88    4.15
   2   5 -11  266.64    5.59
   2   5 -11  269.73    5.43
   2   5 -10   60.26    2.99
   2   5 -10   53.45    2.80
   2   5  -9  133.82    4.71
   2   5  -8   14.86    1.74
   2   5  -7  125.54    4.01
   2   5  -7  130.01    5.27
   2   5  -7  127.13    4.78
   2   5  -6  197.43    5.22
   2   5  -6  204.40    6.06
   2   5  -6  202.09    6.67
   2   5  -5  142.26    5.40
   2   5  -5  139.05    4.49
   2   5  -5  135.69    5.44
   2   5  -5  137.05    4.83
   2   5  -4  659.87   10.53
   2   5  -4  648.73   12.08
   2   5  -4  655.36   10.39
   2   5  -3  299.80    7.86
   2   5  -3  312.50    7.15
   2   5  -2  167.23    5.36
   2   5  -2  159.22    5.47
   2   5  -1   70.50    3.35
   2   5  -1   79.91    4.45
   2   5  -1   74.44    3.63
   2   5   0   56.31    3.23
   2   5   0   57.85    3.85
  -2   5   0   48.52    2.36
  -2   5   0   47.72    2.36
  -2   5  -1  208.95    5.09
  -2   5  -1  207.42    5.35
   2   5   1  228.13    6.53
   2   5   1  230.93    7.66
   2   5   2   16.93    2.19
   2   5   2   15.25    1.80
  -2   5  -2   14.81    1.52
  -2   5  -2   17.55    1.56
   2   5   3   58.90    3.80
  -2   5  -3   54.36    2.53
  -2   5  -3   58.53    3.07
  -2   5  -4   48.32    2.50
  -2   5  -4   47.80    2.80
   2   5   4   47.42    3.27
  -2   5  -5   84.69    3.38
   2   5   5   86.30    4.20
  -2   5  -5   80.90    3.62
  -2   5  -6   18.51    1.63
   2   5   6   18.88    1.87
  -2   5  -6   17.09    1.69
  -2   5  -7  156.59    4.49
  -2   5  -8  232.72    5.34
  -2   5  -9   82.50    3.00
  -2   5  -9   81.31    2.97
  -2   5 -10  496.88    6.84
  -2   5 -10  455.28    6.73
  -2   5 -11   32.76    1.50
   2   6  -8    3.11    0.63
   2   6  -7   14.69    1.31
   2   6  -6   12.72    1.31
   2   6  -5  184.70    4.87
   2   6  -4  143.52    4.22
   2   6  -4  156.40    4.75
   2   6  -3  189.27    5.40
   2   6  -3  165.67    4.26
   2   6  -2  141.27    4.86
   2   6  -1  383.33    8.15
   2   6   0  279.75    6.78
   2   6   1   14.74    1.62
   2   6   2  194.27    5.31
  -2   6  -3   12.88    1.12
   2   6   3   12.03    1.28
  -2   6  -4   74.92    2.61
  -2   6  -5  273.88    5.02
  -3  -6   7  128.39    3.13
  -3  -6   7  131.87    3.18
  -3  -6   6   37.56    1.72
  -3  -6   6   36.44    1.84
  -3  -6   5  180.93    4.22
  -3  -6   4   38.99    2.10
  -3  -5  12   26.83    1.20
  -3  -5  12   25.16    1.13
  -3  -5  11   40.26    1.77
  -3  -5  11   34.59    1.72
  -3  -5  10   35.51    1.76
  -3  -5  10   32.15    1.85
  -3  -5  10   29.99    1.86
  -3  -5  10   35.05    1.92
  -3  -5   9   44.89    2.43
  -3  -5   9   46.32    2.08
  -3  -5   9   48.27    2.30
  -3  -5   9   46.85    2.47
  -3  -5   9   42.58    2.38
  -3  -5   8   65.57    3.15
  -3  -5   8   64.51    2.66
  -3  -5   8   70.49    3.07
  -3  -5   7  144.42    4.29
  -3  -5   7  143.53    4.80
  -3  -5   7  144.25    4.73
  -3  -5   6  114.49    4.03
  -3  -5   5  513.43    9.37
  -3  -5   4  232.33    5.77
   3  -5   5  227.43    5.03
   3  -5   6  297.59    5.71
   3  -5   7  141.54    3.77
   3  -5   8   27.30    1.33
   3  -5   8   29.70    1.69
   3  -5   9   61.42    2.28
   3  -5  10  113.99    2.84
  -3  -4  14  239.41    3.59
  -3  -4  14  239.59    4.42
  -3  -4  13   97.05    3.39
  -3  -4  13  101.71    3.19
  -3  -4  13   99.68    2.91
  -3  -4  13   90.61    2.47
  -3  -4  13  103.14    2.78
  -3  -4  12   83.27    3.26
  -3  -4  12   85.57    3.56
  -3  -4  12   87.72    3.10
  -3  -4  12   86.81    2.98
  -3  -4  11  218.67    5.03
  -3  -4  11  222.96    5.14
  -3  -4  11  210.28    5.72
  -3  -4  11  216.40    5.20
  -3  -4  10   96.83    3.66
  -3  -4  10   92.86    4.00
  -3  -4  10   95.78    3.49
  -3  -4   9  140.41    4.49
  -3  -4   9  139.04    5.06
  -3  -4   9  134.52    4.75
  -3  -4   8  567.75    9.55
  -3  -4   8  527.41    9.71
  -3  -4   7 1995.67   20.29
  -3  -4   7 1914.56   18.54
  -3  -4   6   55.52    2.85
  -3  -4   5  257.60    6.18
  -3  -4   4  406.36    7.29
   3  -4   4  121.30    3.40
   3  -4   5   46.43    2.09
   3  -4   5   48.49    2.23
   3  -4   6  461.80    7.10
   3  -4   6  458.36    7.30
   3  -4   7   71.80    2.85
   3  -4   7   70.13    2.72
   3  -4   7   70.32    2.88
   3  -4   8   23.21    1.69
   3  -4   8   21.62    1.86
   3  -4   8   21.43    1.59
   3  -4   9  161.73    4.23
   3  -4   9  169.64    4.69
   3  -4   9  155.37    4.28
   3  -4  10   63.54    2.54
   3  -4  10   65.42    2.79
   3  -4  10   57.45    2.51
   3  -4  11    6.99    0.87
   3  -4  11    7.36    0.88
   3  -4  11    8.22    1.00
   3  -4  12  161.66    3.67
   3  -4  12  157.98    3.69
   3  -4  12  156.70    3.46
  -3  -3  16   66.18    1.93
  -3  -3  15   16.93    1.29
  -3  -3  15   14.62    0.90
  -3  -3  14   24.99    1.86
  -3  -3  14   20.59    1.60
  -3  -3  14   24.01    1.49
  -3  -3  14   22.55    1.34
  -3  -3  13   54.38    2.50
  -3  -3  13   53.91    2.33
  -3  -3  12    3.23    0.77
  -3  -3  12    3.23    0.81
  -3  -3  11  144.76    4.48
  -3  -3  11  143.38    4.63
  -3  -3  11  130.26    3.73
  -3  -3  10  103.71    3.39
  -3  -3  10  108.42    3.92
  -3  -3   9  235.97    5.90
  -3  -3   9  224.80    5.06
  -3  -3   8   90.58    3.13
  -3  -3   8   89.07    3.30
  -3  -3   8   89.48    3.62
  -3  -3   7  160.55    4.57
  -3  -3   7  153.82    4.07
  -3  -3   6  308.57    6.27
  -3  -3   6  315.58    5.91
  -3  -3   5  946.48   10.85
  -3  -3   5  914.68   10.49
  -3  -3   4  361.73    6.14
  -3  -3   3 1481.30   13.96
  -3  -3   2  658.32   10.31
  -3  -3   1  333.58    6.93
  -3  -3   0 2004.46   19.92
  -3  -3  -1  635.70   10.16
  -3  -3  -2 1072.14   13.89
   3  -3   3 1091.02   10.31
   3  -3   4  733.55    8.70
   3  -3   4  740.42    8.37
   3  -3   4  735.75    8.53
   3  -3   5 1518.89   14.67
   3  -3   5 1523.98   14.09
   3  -3   5 1557.26   13.98
   3  -3   6  431.67    7.41
   3  -3   6  428.83    6.76
   3  -3   6  427.65    6.87
   3  -3   6  430.91    6.96
   3  -3   7 1159.16   13.64
   3  -3   7 1125.32   12.55
   3  -3   7 1147.33   12.64
   3  -3   8  873.98   11.11
   3  -3   8  850.19   11.00
   3  -3   8  872.04   12.04
   3  -3   9  922.33   11.71
   3  -3   9  926.85   12.77
   3  -3  10  122.71    4.01
   3  -3  10  118.76    4.31
   3  -3  10  122.18    4.25
   3  -3  11  141.56    4.33
   3  -3  11  140.82    4.45
   3  -3  11  137.23    4.52
   3  -3  12  182.83    4.79
   3  -3  12  189.96    4.77
   3  -3  12  174.45    4.88
   3  -3  13  172.26    4.21
   3  -3  13  164.32    4.15
   3  -3  13  180.21    4.50
   3  -3  14   14.31    1.10
   3  -3  14   13.05    1.02
  -3  -2  16  184.23    3.70
  -3  -2  16  188.57    3.97
  -3  -2  15  225.38    5.20
  -3  -2  15  217.56    5.05
  -3  -2  14  310.35    6.64
  -3  -2  14  278.88    5.07
  -3  -2  14  283.09    6.46
  -3  -2  14  283.24    6.38
  -3  -2  14  301.12    5.87
  -3  -2  14  289.09    6.79
  -3  -2  13  600.94   10.18
  -3  -2  13  597.29    8.90
  -3  -2  13  581.59    8.20
  -3  -2  13  614.06   10.14
  -3  -2  12  703.89   11.37
  -3  -2  12  685.49   11.13
  -3  -2  12  693.45   10.07
  -3  -2  12  704.69   10.14
  -3  -2  12  714.22    9.60
  -3  -2  11  980.45   12.26
  -3  -2  11  989.16   13.52
  -3  -2  11 1025.54   13.37
  -3  -2  11  980.37   13.72
  -3  -2  11  991.35   12.06
  -3  -2  11  988.27   12.34
  -3  -2  10  816.03   11.62
  -3  -2  10  795.45   12.07
  -3  -2  10  830.08   10.64
  -3  -2  10  802.35   11.06
  -3  -2   9  425.16    7.77
  -3  -2   9  408.76    6.90
  -3  -2   9  424.49    7.66
  -3  -2   9  448.98    7.70
  -3  -2   9  395.62    7.26
  -3  -2   8  503.23    8.05
  -3  -2   8  510.52    7.82
  -3  -2   8  512.75    7.53
  -3  -2   8  526.95    8.00
  -3  -2   8  489.01    8.01
  -3  -2   7  260.35    5.33
  -3  -2   7  258.65    5.32
  -3  -2   7  256.65    5.00
  -3  -2   7  253.42    4.86
  -3  -2   6  542.42    8.77
  -3  -2   6  561.41    7.58
  -3  -2   6  570.88    7.80
  -3  -2   6  558.24    7.64
  -3  -2   6  566.01    7.86
  -3  -2   6  564.24    7.21
  -3  -2   5  561.21    7.50
  -3  -2   5  557.56    7.29
  -3  -2   5  557.43    5.45
  -3  -2   5  568.67    7.48
  -3  -2   4 2526.64   19.05
   3  -2  -4 2563.30   19.65
   3  -2  -3 1800.74   13.55
  -3  -2   3 1892.24   16.56
  -3  -2   2  761.59    9.08
   3  -2  -2  742.71    7.12
  -3  -2   1 1065.38    9.20
   3  -2  -1 1074.75    7.49
   3  -2  -1 1089.68    9.60
  -3  -2   1 1107.18   11.54
  -3  -2   1 1055.57   11.48
   3  -2   0   28.90    1.37
  -3  -2   0   31.11    1.70
  -3  -2   0   27.34    1.62
   3  -2   0   25.07    0.91
  -3  -2  -1  426.81    6.56
   3  -2   1  419.00    5.87
   3  -2   1  426.56    4.92
  -3  -2  -1  416.87    6.45
  -3  -2  -2  156.61    3.91
   3  -2   2  158.23    3.04
  -3  -2  -2  153.45    3.82
  -3  -2  -3  220.38    4.59
  -3  -2  -3  227.02    4.82
   3  -2   3  238.90    3.77
   3  -2   3  234.70    4.04
   3  -2   4  324.43    4.76
   3  -2   4  323.67    4.81
   3  -2   4  326.03    4.76
   3  -2   4  325.39    5.21
  -3  -2  -4  320.44    4.83
   3  -2   4  320.87    4.81
   3  -2   5  316.98    5.14
   3  -2   5  309.08    5.50
   3  -2   5  305.61    5.03
   3  -2   5  315.66    5.10
   3  -2   5  313.84    5.13
   3  -2   6  576.71    8.43
   3  -2   6  606.51    7.99
   3  -2   6  591.50    7.76
   3  -2   6  595.55    7.73
   3  -2   7   25.64    1.66
   3  -2   7   27.29    1.67
   3  -2   7   24.90    1.81
   3  -2   7   22.77    1.57
   3  -2   7   26.69    1.73
   3  -2   8  422.44    7.14
   3  -2   8  408.97    7.77
   3  -2   8  424.12    7.26
   3  -2   8  438.14    7.64
   3  -2   8  445.52    7.59
   3  -2   9  135.14    4.35
   3  -2   9  131.93    4.17
   3  -2   9  139.59    4.42
   3  -2   9  127.04    4.55
   3  -2  10  680.68   10.44
   3  -2  10  640.50    9.89
   3  -2  10  683.77   10.32
   3  -2  10  647.43   10.93
   3  -2  11  402.30    8.02
   3  -2  11  396.91    7.67
   3  -2  12  233.94    5.82
  -3  -2 -12  228.09    5.70
   3  -2  12  235.06    5.67
   3  -2  12  241.61    6.01
  -3  -2 -13  581.77    8.88
   3  -2  13  578.99    9.04
  -3  -2 -14  255.59    4.95
   3  -2  14  250.42    5.51
   3  -2  14  249.05    5.10
   3  -2  15  409.47    5.46
   3  -2  15  412.52    6.20
  -3  -1  17   84.72    2.53
  -3  -1  16   37.80    2.13
  -3  -1  16   38.98    1.92
  -3  -1  16   34.75    1.64
  -3  -1  15   17.69    1.45
  -3  -1  15   18.70    1.54
  -3  -1  15   18.28    1.72
  -3  -1  14  295.73    6.64
  -3  -1  14  281.56    6.34
  -3  -1  14  303.30    7.32
  -3  -1  14  306.57    6.78
  -3  -1  13   19.89    1.86
  -3  -1  13   26.69    2.19
  -3  -1  13   20.83    1.83
  -3  -1  13   21.50    2.06
  -3  -1  13   22.45    1.44
  -3  -1  12  484.95    8.74
  -3  -1  12  475.05    9.51
  -3  -1  12  439.64    8.95
  -3  -1  12  456.57    7.43
  -3  -1  12  448.63    6.82
  -3  -1  11  174.47    5.46
  -3  -1  11  171.88    5.10
  -3  -1  11  168.19    4.76
  -3  -1  11  166.05    5.18
  -3  -1  11  167.01    4.34
  -3  -1  11  175.13    4.41
  -3  -1  11  169.69    4.11
  -3  -1  10  465.15    7.18
  -3  -1  10  439.34    7.25
  -3  -1  10  468.15    7.67
  -3  -1  10  460.22    8.28
  -3  -1  10  455.44    8.47
  -3  -1  10  442.15    7.15
  -3  -1  10  453.06    8.24
  -3  -1  10  444.56    6.75
  -3  -1  10  452.50    7.66
  -3  -1   9  819.02   10.16
  -3  -1   9  794.85   10.61
  -3  -1   9  811.97   10.99
  -3  -1   9  801.21   10.01
  -3  -1   9  805.20   10.53
  -3  -1   9  778.74    9.73
  -3  -1   8  127.12    3.48
  -3  -1   8  126.14    3.52
  -3  -1   8  127.03    3.85
  -3  -1   8  132.77    3.60
  -3  -1   8  123.29    3.59
  -3  -1   7  950.36   10.38
   3  -1  -7  967.80   11.26
  -3  -1   7  928.62   10.69
   3  -1  -7  919.20    9.12
  -3  -1   7  902.89   10.94
  -3  -1   7  913.42    9.97
  -3  -1   7 1010.83    9.04
  -3  -1   7  925.19   10.02
  -3  -1   7  976.00   10.20
  -3  -1   7  969.94   10.38
   3  -1  -6  850.40    7.94
  -3  -1   6  807.55    9.38
  -3  -1   6  827.05    9.99
   3  -1  -6  859.03    9.87
  -3  -1   6  834.60    8.87
  -3  -1   6  801.44    9.05
  -3  -1   6  865.07    7.86
  -3  -1   5 2102.79   14.78
   3  -1  -5 2099.35   14.16
   3  -1  -4 3085.73   18.20
  -3  -1   4 3062.66   19.70
  -3  -1   3  685.67    6.86
  -3  -1   3  413.04    5.82
  -3  -1   2 2057.24   14.50
  -3  -1   2 1884.27   14.82
  -3  -1   1 1898.88   14.14
   3  -1   0 6081.74   35.62
  -3  -1   0 5972.91   35.66
   3  -1   1 4292.38   26.78
  -3  -1  -1 4189.62   26.46
   3  -1   2 1096.40    9.67
  -3  -1  -2 1128.76    9.78
   3  -1   3  528.39    6.41
   3  -1   3  545.16    7.00
   3  -1   4 1344.27   11.56
   3  -1   4 1350.39   12.25
   3  -1   4 1314.79   10.23
   3  -1   5 3202.80   21.34
   3  -1   5 3285.84   21.69
   3  -1   5 3287.43   21.87
   3  -1   5 3178.79   22.17
   3  -1   5 3169.84   22.27
   3  -1   5 3255.55   22.88
   3  -1   6  811.11    9.59
   3  -1   6  833.85    8.85
   3  -1   6  828.80    8.90
   3  -1   6  822.28    9.23
   3  -1   6  825.39    9.11
   3  -1   7 3989.80   27.68
   3  -1   7 3951.89   28.26
   3  -1   8  644.35    9.20
   3  -1   8  633.65    9.05
   3  -1   9 1821.55   17.82
   3  -1   9 1860.42   18.04
   3  -1  10   96.49    3.72
   3  -1  10   91.95    3.64
   3  -1  10   93.34    3.76
   3  -1  10   95.32    3.93
   3  -1  11  747.93   11.31
   3  -1  11  755.60   11.63
   3  -1  12  196.13    5.82
   3  -1  12  187.76    5.28
   3  -1  12  188.88    5.79
   3  -1  13   42.84    2.70
   3  -1  13   44.39    2.62
   3  -1  13   44.20    2.46
   3  -1  14   15.65    1.46
  -3  -1 -14   14.06    1.42
   3  -1  14   14.55    1.41
   3  -1  14   17.39    1.40
   3  -1  14   14.90    1.50
  -3  -1 -15   99.61    3.18
   3  -1  15  100.11    3.02
  -3   0  17    4.52    0.65
  -3   0  16   18.39    1.50
  -3   0  15  782.05   11.09
  -3   0  14  257.35    6.44
  -3   0  13  822.96   11.01
  -3   0  12 2045.69   19.66
  -3   0  12 2048.64   19.55
  -3   0  11  604.47    9.46
  -3   0  11  618.80    9.97
  -3   0  11  608.75    9.27
  -3   0  10 2062.37   18.44
  -3   0  10 2008.54   18.27
  -3   0  10 2004.09   18.79
  -3   0   9   62.30    2.60
  -3   0   9   66.35    2.67
  -3   0   9   60.10    2.59
  -3   0   9   58.90    2.13
  -3   0   8  582.90    7.89
   3   0  -8  578.75    8.17
  -3   0   8  560.31    7.11
  -3   0   8  575.35    7.61
  -3   0   7   19.45    1.36
  -3   0   7   21.54    1.46
  -3   0   7   21.56    1.29
   3   0  -7   21.90    1.36
  -3   0   7   23.00    1.37
  -3   0   7   22.02    1.23
  -3   0   6 1109.47   11.11
  -3   0   6 1105.58   10.42
   3   0  -6 1120.78   10.59
  -3   0   5  334.08    4.96
   3   0  -5  335.14    4.84
  -3   0   4 2350.77   16.62
   3   0  -4 2348.82   16.33
   3   0  -3 4504.68   27.08
  -3   0   3 4510.04   27.19
  -3   0   2 3448.87   21.09
  -3   0   1   48.22    1.01
  -3   0   1   36.21    1.18
  -3   0   0  204.56    2.27
   3   0   1 2086.66   13.11
   3   0   1 2094.63   14.67
   3   0   2 6648.86   37.07
   3   0   2 6639.93   38.76
   3   0   3  583.09    5.93
   3   0   3  567.66    6.60
   3   0   4 3476.91   23.04
  -3   0  -4 3516.71   23.57
   3   0   5 1738.69   14.20
   3   0   5 1723.73   14.51
   3   0   6   65.15    2.09
   3   0   6   64.52    2.36
   3   0   6   59.35    2.21
  -3   0  -6   70.20    2.67
   3   0   6   64.76    2.43
   3   0   7  124.75    3.21
   3   0   7  125.95    3.51
   3   0   7  130.59    3.70
   3   0   8   79.83    2.74
   3   0   8   84.86    3.19
   3   0   8   79.00    3.19
   3   0   9 2400.36   21.46
   3   0   9 2347.56   19.64
   3   0   9 2340.73   20.17
   3   0  10  503.16    9.12
   3   0  10  504.43    8.32
   3   0  11  997.61   12.48
   3   0  11 1022.83   13.88
   3   0  12   65.26    2.93
   3   0  12   62.30    3.24
   3   0  13  617.93    8.92
   3   0  13  636.37   10.37
   3   0  14   60.46    3.08
   3   0  15  328.77    6.38
   3   0  15  273.52    5.74
   3   0  16   64.31    2.21
  -3   1  17   99.88    2.84
  -3   1  17   98.03    2.67
  -3   1  16   43.80    2.30
  -3   1  16   44.57    2.24
  -3   1  15   13.04    1.48
  -3   1  14  300.03    7.49
  -3   1  13   24.26    2.08
  -3   1  13   20.19    2.02
  -3   1  12  480.35    9.23
  -3   1  12  482.50    9.70
  -3   1  12  474.48    9.25
   3   1 -12  487.66    9.04
  -3   1  11  201.14    5.95
  -3   1  11  196.81    5.63
  -3   1  11  196.35    5.63
   3   1 -11  200.02    5.78
  -3   1  10  465.00    8.77
  -3   1  10  459.30    8.32
  -3   1  10  467.19    8.38
  -3   1   9  740.69   10.19
  -3   1   9  760.59   10.79
  -3   1   9  735.49   10.15
   3   1  -9  750.39    9.71
  -3   1   8  143.86    3.98
  -3   1   8  152.45    4.49
  -3   1   8  144.25    4.11
  -3   1   8  144.25    3.91
   3   1  -8  153.66    3.76
   3   1  -8  151.42    3.98
  -3   1   8  146.39    4.01
  -3   1   7  891.23   10.08
  -3   1   7  949.26   11.07
  -3   1   7  891.37   10.30
  -3   1   7  893.89   10.09
   3   1  -7  945.32    9.76
   3   1  -7  914.43   11.05
  -3   1   7  931.66   10.89
   3   1  -7  907.81   10.75
   3   1  -7  891.26   10.17
   3   1  -6  889.62    9.08
  -3   1   6  837.15    9.04
  -3   1   6  860.47    9.87
   3   1  -6  860.81   10.05
  -3   1   6  852.75    9.59
   3   1  -6  870.57    9.85
  -3   1   5 1996.40   15.55
  -3   1   5 2098.50   16.78
  -3   1   4 2715.55   18.27
   3   1  -4 2967.87   20.66
   3   1  -3  340.98    5.14
  -3   1   3  341.98    5.25
  -3   1   3  342.80    3.55
  -3   1   2 2003.75   15.07
  -3   1   2 1976.00   14.26
  -3   1   1 1903.68   11.40
  -3   1   1 1978.20   14.52
  -3   1   0 6286.12   37.01
   3   1   1 4160.36   25.01
   3   1   2 1348.29   11.34
   3   1   2 1317.79   10.20
  -3   1  -3  585.58    6.55
   3   1   3  579.16    6.79
   3   1   3  584.09    6.28
   3   1   3  588.15    7.28
   3   1   4 1205.42   11.28
  -3   1  -4 1143.03   10.77
   3   1   4 1174.31   10.67
  -3   1  -4 1215.40   11.74
   3   1   4 1254.85   12.11
  -3   1  -4 1185.55   11.02
   3   1   5 3296.76   24.54
   3   1   5 3221.62   22.59
  -3   1  -5 3237.15   22.54
   3   1   5 3202.46   22.24
   3   1   5 3194.14   22.84
  -3   1  -5 3244.38   22.95
   3   1   6  704.14    8.40
   3   1   6  715.58    8.68
   3   1   6  699.56    8.05
  -3   1  -6  697.14    8.30
   3   1   6  708.89    9.92
  -3   1  -6  697.37    8.67
  -3   1  -6  692.62    9.34
   3   1   6  687.10    8.74
   3   1   7 4098.80   29.24
  -3   1  -7 4122.77   29.07
  -3   1  -7 4136.48   28.19
   3   1   7 4040.18   28.06
   3   1   7 4076.89   29.62
   3   1   8  566.39    8.45
   3   1   8  554.93    8.65
   3   1   8  575.11    8.60
   3   1   8  553.86    7.86
  -3   1  -8  562.01    8.31
   3   1   9 1842.64   17.88
   3   1   9 1801.99   17.82
   3   1   9 1776.16   18.09
  -3   1  -9 1790.67   17.09
   3   1  10   95.80    3.71
  -3   1 -10   96.51    3.43
   3   1  10  101.45    3.83
   3   1  10   90.93    3.75
   3   1  11  692.92   10.61
   3   1  11  715.97   11.19
  -3   1 -11  698.81    9.62
   3   1  12  197.29    6.35
   3   1  12  199.86    5.88
   3   1  13   44.23    2.95
   3   1  13   45.49    2.67
   3   1  14   13.13    1.53
   3   1  14   13.83    1.47
   3   1  14   13.99    1.40
  -3   1 -14   12.78    1.34
   3   1  15   83.79    3.29
  -3   1 -15   81.00    2.80
   3   1  16  310.33    5.09
  -3   2  16  204.49    4.57
  -3   2  16  192.05    3.62
  -3   2  15  215.40    5.39
  -3   2  15  212.00    4.78
  -3   2  14  291.60    6.29
   3   2 -14  312.74    6.58
  -3   2  14  300.69    6.32
  -3   2  13  592.65   10.80
   3   2 -13  589.04   10.34
  -3   2  12  760.40   12.22
  -3   2  12  793.26   12.93
   3   2 -12  794.53   12.75
  -3   2  11  963.50   14.13
  -3   2  11  972.45   13.77
  -3   2  11  979.76   12.98
  -3   2  10  802.81   12.00
  -3   2  10  833.50   12.51
  -3   2  10  833.77   11.36
  -3   2   9  450.54    8.24
  -3   2   9  461.79    8.57
  -3   2   9  444.34    7.64
  -3   2   9  463.18    8.56
   3   2  -9  448.98    8.40
  -3   2   8  447.85    7.69
  -3   2   8  465.63    8.09
   3   2  -8  481.23    7.61
   3   2  -8  484.17    7.41
  -3   2   8  450.79    7.32
   3   2  -8  468.83    8.39
  -3   2   8  467.18    8.08
  -3   2   7  270.50    5.36
   3   2  -7  280.33    5.57
  -3   2   7  257.08    5.47
  -3   2   7  257.59    4.89
   3   2  -7  274.16    6.14
   3   2  -7  283.09    6.36
   3   2  -7  276.05    5.48
  -3   2   7  273.95    5.69
  -3   2   6  569.20    7.90
   3   2  -6  599.98    8.32
  -3   2   6  551.90    8.11
  -3   2   6  564.97    7.71
   3   2  -6  582.82    9.04
   3   2  -6  569.07    8.93
   3   2  -6  579.65    8.18
  -3   2   6  562.18    7.12
   3   2  -6  583.78    8.84
  -3   2   5  641.23    7.96
   3   2  -5  635.77    9.20
  -3   2   5  636.30    7.55
   3   2  -5  656.31    8.60
   3   2  -5  673.34    9.40
   3   2  -5  668.01    8.77
  -3   2   4 2684.36   20.91
   3   2  -4 2591.48   21.48
   3   2  -4 2533.76   20.41
   3   2  -4 2671.48   21.48
   3   2  -4 2690.71   20.96
  -3   2   4 2585.23   18.92
   3   2  -3 1999.92   17.22
   3   2  -3 2006.18   17.32
  -3   2   3 2039.99   16.72
   3   2  -2  629.91    8.63
  -3   2   2  659.90    7.90
  -3   2   1 1125.06    9.19
  -3   2   1 1127.42   10.41
   3   2   0   17.79    1.49
  -3   2   0   18.78    0.46
  -3   2   0   18.94    1.08
   3   2   1  355.39    4.36
   3   2   1  374.89    4.10
  -3   2  -1  361.62    4.63
  -3   2  -1  375.41    5.53
   3   2   2  171.03    4.92
   3   2   2  165.84    2.49
  -3   2  -2  159.36    2.69
   3   2   2  171.26    4.10
  -3   2  -2  161.16    3.70
  -3   2  -2  173.26    3.70
   3   2   2  162.76    3.04
   3   2   3  257.54    6.32
  -3   2  -3  231.69    2.98
  -3   2  -3  230.32    4.69
   3   2   3  235.92    4.97
  -3   2  -3  256.59    4.82
   3   2   4  312.78    6.15
  -3   2  -4  313.86    5.65
  -3   2  -4  304.64    5.71
   3   2   5  303.84    6.42
  -3   2  -5  306.84    5.88
  -3   2  -5  309.06    5.95
   3   2   5  319.86    5.13
   3   2   6  539.11    7.50
  -3   2  -6  507.99    8.10
  -3   2  -6  528.16    8.36
   3   2   6  558.18   11.70
   3   2   7   18.07    1.55
   3   2   7   20.01    2.42
   3   2   7   20.70    1.53
  -3   2  -7   19.62    1.61
  -3   2  -7   19.68    1.67
   3   2   8  448.62   11.63
   3   2   8  446.15    8.26
  -3   2  -8  443.47    8.23
  -3   2  -8  453.07    7.83
  -3   2  -9  175.73    4.74
   3   2   9  174.82    7.33
  -3   2  -9  173.22    5.15
   3   2   9  192.19    5.11
   3   2  10  606.92    9.63
   3   2  10  586.74   13.38
  -3   2 -10  577.26    9.65
   3   2  11  405.43   10.24
   3   2  11  403.67    7.76
  -3   2 -11  402.25    7.73
   3   2  12  235.34    7.08
  -3   2 -12  249.69    5.76
   3   2  12  249.67    5.81
  -3   2 -12  254.00    5.69
   3   2  13  474.10    8.78
  -3   2 -13  525.19    8.07
  -3   2 -14  247.10    4.73
   3   3 -15   16.46    1.10
  -3   3  14   29.02    1.88
   3   3 -14   28.47    1.89
  -3   3  13   46.96    2.70
   3   3 -13   49.30    2.43
   3   3 -13   48.69    2.88
  -3   3  12    4.86    1.04
   3   3 -12    4.52    1.15
   3   3 -12    4.02    0.97
  -3   3  11  159.25    5.51
   3   3 -11  176.88    6.18
  -3   3  10   81.30    3.95
   3   3 -10   86.65    4.43
  -3   3   9  247.61    6.69
   3   3  -9  251.86    5.94
  -3   3   8   87.72    3.70
   3   3  -8   88.79    3.52
   3   3  -8   94.43    4.23
   3   3  -7  141.82    4.55
  -3   3   7  134.49    4.23
   3   3  -7  140.29    5.01
   3   3  -6  328.37    6.74
   3   3  -6  306.68    6.82
   3   3  -5  928.17   11.92
   3   3  -5  932.78   12.58
  -3   3   5  898.64   10.59
   3   3  -4  396.28    7.54
   3   3  -4  380.13    7.56
   3   3  -4  393.81    7.85
  -3   3   4  369.69    5.95
   3   3  -3 1513.84   16.70
   3   3  -3 1493.97   15.97
   3   3  -2  665.47   10.17
   3   3  -2  699.06   10.94
  -3   3   2  673.57    7.75
   3   3  -2  676.69    9.62
   3   3  -1  326.05    6.72
  -3   3   1  337.22    5.05
   3   3  -1  339.38    6.33
  -3   3   1  339.95    5.60
   3   3   0 1917.74   18.37
  -3   3   0 1986.33   15.74
   3   3   0 1937.54   17.19
  -3   3   0 1971.45   16.75
  -3   3  -1  815.80    9.00
   3   3   1  800.35   10.60
  -3   3  -1  828.41   10.08
  -3   3  -1  837.55    9.41
  -3   3  -2 1081.74   12.44
  -3   3  -2 1104.71   11.33
  -3   3  -2 1105.78   11.75
  -3   3  -3 1080.59   12.22
  -3   3  -3 1101.43   12.80
   3   3   4  708.15   13.59
  -3   3  -4  676.02    9.77
   3   3   5 1493.61   21.36
   3   3   5 1467.87   17.26
  -3   3  -5 1476.39   16.00
  -3   3  -6  494.47    8.95
   3   3   6  489.02   12.35
   3   3   6  519.22   10.07
   3   3   7 1109.22   15.88
  -3   3  -7 1146.32   14.47
   3   3   7 1139.64   19.85
   3   3   8  798.10   16.35
  -3   3  -8  795.84   12.04
  -3   3  -8  785.17   11.71
   3   3   8  792.96   13.63
   3   3   9  978.58   17.46
  -3   3  -9  949.98   13.32
  -3   3  -9  960.37   12.70
   3   3  10  126.25    5.59
  -3   3 -10  126.00    4.16
  -3   3 -10  127.68    4.52
   3   3  10  133.23    5.56
   3   3  11  140.14    5.15
  -3   3 -11  147.94    4.56
   3   3  11  155.01    5.86
  -3   3 -12  198.60    4.86
   3   3  12  168.89    4.67
  -3   3 -13  188.35    4.02
   3   4 -14  235.61    4.29
   3   4 -13  129.60    3.97
   3   4 -13  122.45    3.24
   3   4 -12   85.26    3.74
   3   4 -12   79.40    3.29
   3   4 -11  261.71    6.97
   3   4 -10  108.35    4.97
   3   4  -9  140.65    4.55
   3   4  -9  144.49    5.86
   3   4  -8  584.93    9.80
   3   4  -8  578.22   11.77
   3   4  -8  570.02    9.59
   3   4  -7 2024.94   20.03
   3   4  -7 2048.39   23.23
   3   4  -6   79.12    3.84
   3   4  -6   76.44    4.01
   3   4  -6   80.52    3.61
   3   4  -5  301.15    7.88
   3   4  -5  319.03    7.97
   3   4  -5  302.83    7.71
   3   4  -4  397.85    8.70
   3   4  -4  431.57    8.76
   3   4  -4  396.57    8.66
   3   4  -4  431.38    9.68
   3   4  -3  451.91    9.25
   3   4  -3  435.84    8.81
   3   4  -3  423.26    8.47
   3   4  -2  256.99    6.94
   3   4  -2  239.95    5.83
   3   4  -2  249.00    6.37
   3   4  -1  259.11    6.18
   3   4  -1  265.56    7.85
  -3   4   0  234.20    4.89
  -3   4   0  246.08    5.38
  -3   4   0  242.98    4.80
   3   4   0  253.46    5.77
  -3   4  -1  133.46    4.15
  -3   4  -1  134.40    3.84
  -3   4  -1  127.63    3.61
  -3   4  -2  128.13    4.35
  -3   4  -2  126.67    3.83
  -3   4  -3  146.53    4.76
  -3   4  -3  142.51    4.30
   3   4   3  153.08    6.67
  -3   4  -4  118.59    4.41
  -3   4  -4  118.14    4.12
   3   4   4  122.43    6.12
  -3   4  -5   42.62    2.58
  -3   4  -5   42.01    2.76
   3   4   5   45.56    3.83
   3   4   6  487.42   12.54
  -3   4  -6  445.70    8.64
  -3   4  -7   78.46    3.62
  -3   4  -7   78.38    3.60
   3   4   7   87.41    5.17
   3   4   8   15.75    2.08
  -3   4  -8   14.86    1.64
  -3   4  -8   14.91    1.62
  -3   4  -9  178.54    4.98
   3   4   9  165.29    5.75
  -3   4 -10   52.35    2.65
  -3   4 -10   50.69    2.41
  -3   4 -11    6.95    0.95
  -3   4 -12  167.95    3.71
   3   5 -12   22.71    1.29
   3   5 -11   48.15    2.26
   3   5 -11   47.92    2.30
   3   5 -10   30.44    2.14
   3   5 -10   27.57    2.02
   3   5  -9   56.24    3.09
   3   5  -8   78.98    4.11
   3   5  -8   77.19    3.76
   3   5  -7  172.24    6.27
   3   5  -7  169.87    4.80
   3   5  -7  165.73    5.12
   3   5  -7  163.40    5.59
   3   5  -6  107.24    3.95
   3   5  -6  107.25    4.38
   3   5  -6  109.09    4.50
   3   5  -5  551.59    9.65
   3   5  -5  525.42    9.85
   3   5  -4  168.37    5.16
   3   5  -4  180.72    5.58
   3   5  -3  556.10   10.21
   3   5  -3  538.36   11.57
   3   5  -2  342.62    8.18
   3   5  -2  366.30    9.58
   3   5  -1   88.09    4.21
   3   5  -1   74.95    3.51
   3   5  -1   85.19    4.70
   3   5   0   46.61    3.14
   3   5   0   50.46    3.71
   3   5   1  385.53    9.19
   3   5   1  400.61   10.53
  -3   5  -2  105.47    3.27
  -3   5  -2  107.58    3.81
  -3   5  -3  459.96    8.32
  -3   5  -3  456.59    7.47
   3   5   4  983.64   16.45
  -3   5  -4  906.35   12.37
  -3   5  -5  178.23    5.08
  -3   5  -5  185.41    4.91
   3   5   5  184.29    6.66
  -3   5  -6  273.05    6.14
  -3   5  -6  274.80    5.93
   3   5   6  274.93    7.54
  -3   5  -7  146.11    4.14
   3   5   7  144.04    4.73
  -3   5  -8   27.22    1.72
  -3   5  -8   26.16    1.72
  -3   5  -9   59.18    2.30
  -3   5 -10   91.84    2.61
   3   6  -8  156.10    3.59
   3   6  -7  166.11    4.17
   3   6  -6   45.16    2.32
   3   6  -5  208.38    5.07
   3   6  -5  202.42    5.04
   3   6  -4   32.76    1.71
   3   6  -4   40.16    2.33
   3   6  -4   37.06    2.10
   3   6  -3   17.87    1.71
   3   6  -3   13.61    1.15
   3   6  -2   22.95    1.50
   3   6  -2   28.33    2.18
   3   6  -1   49.30    2.90
   3   6   0   34.40    2.49
   3   6   1   84.83    3.77
   3   6   2   93.96    3.89
   3   6   3    4.91    0.96
   3   6   4   65.08    2.62
  -4  -6   7  195.13    3.67
  -4  -6   7  193.70    3.33
  -4  -6   6   66.41    2.22
  -4  -6   5   17.87    1.29
   4  -6   4   16.49    1.01
  -4  -5  11  162.20    3.58
  -4  -5  11  176.79    3.66
  -4  -5  10  326.40    5.81
  -4  -5  10  336.46    5.47
  -4  -5   9  404.84    6.33
  -4  -5   9  397.06    7.26
  -4  -5   8   63.18    3.06
  -4  -5   8   66.10    2.69
  -4  -5   8   66.46    2.92
  -4  -5   7   56.48    2.71
  -4  -5   7   57.34    2.97
  -4  -5   6   27.16    2.02
  -4  -5   6   27.64    1.80
  -4  -5   5   80.98    3.31
  -4  -5   4  128.44    4.31
  -4  -5   2  184.52    4.90
   4  -5   4   26.17    1.55
   4  -5   5   64.54    2.43
   4  -5   6  108.43    3.13
   4  -5   7    7.46    0.89
   4  -5   8    7.49    0.82
   4  -5   9    7.45    0.77
  -4  -4  14   84.42    2.47
  -4  -4  14   82.66    2.30
  -4  -4  13   55.73    2.48
  -4  -4  13   55.11    2.28
  -4  -4  13   55.04    2.02
  -4  -4  13   47.71    1.59
  -4  -4  13   53.58    1.88
  -4  -4  12  122.32    3.83
  -4  -4  12  125.36    3.41
  -4  -4  12  124.78    3.52
  -4  -4  11   14.62    1.33
  -4  -4  11   14.94    1.55
  -4  -4  11   14.39    1.40
  -4  -4  10   27.27    2.20
  -4  -4  10   28.61    1.95
  -4  -4   9  171.49    4.98
  -4  -4   8  136.36    4.28
  -4  -4   8  141.17    4.68
  -4  -4   7  162.60    5.25
  -4  -4   7  154.96    4.25
  -4  -4   7  162.83    4.88
  -4  -4   6  293.10    6.16
  -4  -4   6  293.50    6.74
  -4  -4   5  508.24    8.49
  -4  -4   5  509.36    9.16
  -4  -4   4  870.76   11.61
   4  -4   4  687.03    8.95
   4  -4   5   83.36    2.75
   4  -4   5   93.07    3.46
   4  -4   5   88.28    3.16
   4  -4   6  507.85    7.38
   4  -4   6  526.42    8.51
   4  -4   6  503.96    8.17
   4  -4   7  238.14    4.97
   4  -4   7  249.34    5.74
   4  -4   7  244.95    5.59
   4  -4   8  925.02   10.87
   4  -4   8  931.86   10.62
   4  -4   8  945.65   11.57
   4  -4   9  206.13    4.50
   4  -4   9  213.74    5.08
   4  -4   9  208.31    4.90
   4  -4   9  199.59    4.49
   4  -4  10  183.67    4.42
   4  -4  10  183.80    4.34
   4  -4  10  172.55    3.96
   4  -4  11  186.22    4.03
   4  -4  11  193.30    4.09
   4  -4  12   35.85    1.50
  -4  -3  15  275.21    5.05
  -4  -3  15  269.28    4.75
  -4  -3  14  168.42    4.63
  -4  -3  14  158.31    3.60
  -4  -3  14  158.32    3.28
  -4  -3  13  599.92    9.48
  -4  -3  13  618.23    8.37
  -4  -3  13  602.68    7.85
  -4  -3  12  425.26    7.50
  -4  -3  12  421.96    7.34
  -4  -3  12  418.25    8.46
  -4  -3  12  411.10    7.28
  -4  -3  12  412.81    6.99
  -4  -3  12  422.42    6.89
  -4  -3  11  393.01    7.44
  -4  -3  11  373.97    7.49
  -4  -3  11  373.20    6.71
  -4  -3  11  368.77    7.32
  -4  -3  11  386.62    7.26
  -4  -3  10  645.56    9.91
  -4  -3  10  623.58   10.04
  -4  -3  10  624.96   10.08
  -4  -3  10  631.53    9.13
  -4  -3   9  412.58    7.83
  -4  -3   9  415.97    7.25
  -4  -3   9  432.96    8.15
  -4  -3   9  431.96    7.86
  -4  -3   9  401.20    8.12
  -4  -3   8 1133.96   13.56
  -4  -3   8 1150.64   13.04
  -4  -3   8 1180.90   13.79
  -4  -3   7  104.98    3.66
  -4  -3   7  104.74    3.58
  -4  -3   7  113.96    4.01
  -4  -3   6  332.28    6.50
  -4  -3   6  333.15    6.53
  -4  -3   6  335.88    6.50
  -4  -3   6  336.61    6.81
  -4  -3   5  577.35    8.62
  -4  -3   5  553.80    8.49
  -4  -3   5  571.00    8.54
  -4  -3   4  296.77    5.90
  -4  -3   4  308.61    6.13
  -4  -3   3 1463.68   14.67
  -4  -3   3 1495.90   13.02
  -4  -3   2  901.78   10.75
  -4  -3   2  907.60    9.46
  -4  -3   1  472.81    7.54
  -4  -3   0  322.05    5.63
   4  -3   2  442.66    6.22
   4  -3   3   34.31    1.54
   4  -3   4   12.50    1.10
   4  -3   4   10.07    0.93
   4  -3   5   60.18    2.27
   4  -3   5   58.25    2.30
   4  -3   6  535.71    7.65
   4  -3   6  551.84    7.91
   4  -3   6  539.52    8.59
   4  -3   7  136.01    3.93
   4  -3   7  129.52    4.27
   4  -3   7  127.11    4.20
   4  -3   8   33.92    2.24
   4  -3   8   29.57    1.92
   4  -3   8   27.70    2.09
   4  -3   9   84.62    3.54
   4  -3   9   83.97    3.27
   4  -3  10  614.05    9.21
   4  -3  10  616.21    9.75
   4  -3  10  604.38    9.81
   4  -3  11  125.73    4.12
   4  -3  11  124.97    4.03
   4  -3  11  121.27    3.98
   4  -3  12  401.63    7.01
   4  -3  12  405.28    7.04
   4  -3  13  248.21    4.79
  -4  -2  16   65.62    2.07
  -4  -2  16   64.76    2.16
  -4  -2  15   31.57    1.90
  -4  -2  15   32.07    1.86
  -4  -2  15   29.36    1.75
  -4  -2  15   29.76    1.85
  -4  -2  15   30.71    1.65
  -4  -2  14  330.16    7.03
  -4  -2  14  324.56    6.62
  -4  -2  14  326.27    6.96
  -4  -2  14  319.48    5.52
  -4  -2  14  305.92    4.93
  -4  -2  13  180.64    5.45
  -4  -2  13  179.69    5.16
  -4  -2  13  173.96    4.81
  -4  -2  13  180.51    4.45
  -4  -2  13  173.56    4.04
  -4  -2  12   83.99    3.70
  -4  -2  12   89.87    3.80
  -4  -2  12   86.25    3.83
  -4  -2  12   81.73    3.28
  -4  -2  12   80.06    3.10
  -4  -2  12   83.40    2.98
  -4  -2  12   86.68    3.28
  -4  -2  11  292.95    6.17
  -4  -2  11  290.63    6.96
  -4  -2  11  288.55    7.09
  -4  -2  11  269.12    6.69
  -4  -2  11  290.95    6.30
  -4  -2  11  282.96    6.10
  -4  -2  10  382.66    7.96
  -4  -2  10  385.92    7.14
  -4  -2  10  405.39    7.98
  -4  -2  10  396.59    7.28
  -4  -2   9  188.66    4.98
  -4  -2   9  188.54    5.21
  -4  -2   9  194.20    4.80
  -4  -2   9  192.68    5.19
  -4  -2   8  479.00    8.26
  -4  -2   8  496.70    7.71
  -4  -2   8  499.53    7.97
  -4  -2   8  488.82    7.91
  -4  -2   7  592.84    8.48
  -4  -2   7  584.13    8.85
  -4  -2   7  593.18    8.41
  -4  -2   7  607.12    8.84
  -4  -2   6  198.77    4.75
  -4  -2   6  202.54    4.54
  -4  -2   6  202.38    4.68
  -4  -2   6  198.50    4.70
  -4  -2   5 1924.29   16.95
  -4  -2   5 1962.53   16.53
  -4  -2   5 1976.59   16.91
  -4  -2   4  866.14    9.86
  -4  -2   4  842.75    9.61
  -4  -2   4  848.17    8.45
  -4  -2   3 1809.93   16.63
  -4  -2   3 1790.01   13.76
  -4  -2   2  938.17    9.58
   4  -2  -2  856.25    9.41
  -4  -2   2  818.86   10.58
  -4  -2   2  926.22   11.14
  -4  -2   1 1410.13   12.25
  -4  -2   1 1395.29   14.20
  -4  -2   1 1285.57   13.81
  -4  -2   1 1388.47   12.11
   4  -2  -1 1319.90   12.41
  -4  -2   0  695.97    9.33
   4  -2   0  690.51    8.52
   4  -2   1  641.73    7.38
  -4  -2  -1  628.44    8.68
   4  -2   1  651.50    8.55
  -4  -2  -1  657.01    9.02
   4  -2   1  665.56    7.04
   4  -2   2 1344.33   12.16
  -4  -2  -2 1329.05   13.98
   4  -2   2 1340.01   11.29
   4  -2   3 1780.14   15.50
  -4  -2  -3 1857.09   14.64
  -4  -2  -3 1742.56   17.02
   4  -2   3 1878.24   13.76
  -4  -2  -3 1722.95   15.95
   4  -2   3 1881.87   14.99
  -4  -2  -4 1884.44   15.55
   4  -2   4 1874.96   14.65
   4  -2   4 1935.36   16.14
   4  -2   4 1918.92   14.82
   4  -2   4 1954.75   16.11
  -4  -2  -5 1290.67   12.68
   4  -2   5 1253.47   11.72
   4  -2   5 1296.67   12.94
   4  -2   5 1284.06   11.94
   4  -2   5 1268.17   12.92
  -4  -2  -6 2876.04   22.71
   4  -2   6 2855.63   22.71
   4  -2   6 2857.54   21.72
   4  -2   6 2915.18   23.34
  -4  -2  -7  650.91    9.36
   4  -2   7  649.58    8.83
   4  -2   7  639.87    9.70
   4  -2   8 1050.49   12.21
  -4  -2  -8 1025.37   12.61
   4  -2   8 1067.54   12.72
   4  -2   8 1036.50   13.34
  -4  -2  -9  271.13    6.30
   4  -2   9  277.05    6.27
   4  -2   9  288.85    6.61
   4  -2   9  285.82    6.79
  -4  -2 -10  800.95   11.40
   4  -2  10  835.97   11.47
   4  -2  10  812.63   11.74
   4  -2  10  801.53   11.75
   4  -2  11  351.18    6.81
  -4  -2 -11  339.62    7.03
   4  -2  11  353.43    7.62
   4  -2  11  339.20    7.28
   4  -2  11  356.82    7.79
  -4  -2 -12  426.65    7.55
   4  -2  12  449.34    7.98
   4  -2  12  441.42    8.42
  -4  -2 -13  289.50    5.55
   4  -2  13  294.92    5.87
  -4  -2 -14  100.13    2.64
   4  -2  14   99.75    2.91
  -4  -1  17  162.17    3.47
  -4  -1  17  143.67    2.96
  -4  -1  16  559.53    8.11
  -4  -1  16  556.95    8.42
  -4  -1  16  569.12    7.72
  -4  -1  15  473.22    8.49
  -4  -1  15  478.97    7.84
  -4  -1  14  491.05    8.47
  -4  -1  14  505.99    8.31
  -4  -1  14  501.62    9.59
  -4  -1  13  588.42    9.35
  -4  -1  13  586.61   10.71
  -4  -1  13  574.73   10.31
  -4  -1  13  591.25    9.69
  -4  -1  12 1368.79   15.52
  -4  -1  12 1339.36   17.09
  -4  -1  12 1352.20   16.45
  -4  -1  12 1315.16   13.29
  -4  -1  12 1352.62   14.40
  -4  -1  11   65.48    2.79
  -4  -1  11   71.65    3.24
  -4  -1  11   65.22    3.37
  -4  -1  11   66.72    3.03
  -4  -1  11   61.12    2.49
  -4  -1  11   66.11    3.28
  -4  -1  11   64.77    2.37
  -4  -1  11   64.23    2.88
  -4  -1  10  346.82    7.03
  -4  -1  10  329.58    7.28
  -4  -1  10  330.26    6.57
  -4  -1  10  323.21    5.88
  -4  -1  10  335.17    6.40
  -4  -1  10  320.51    7.00
  -4  -1  10  321.07    6.03
  -4  -1   9  538.31    8.65
  -4  -1   9  555.37    8.14
  -4  -1   9  561.98    9.19
  -4  -1   9  554.29    8.23
  -4  -1   9  551.11    7.84
  -4  -1   8  954.11   11.74
  -4  -1   8  926.47   10.67
  -4  -1   8  930.03   11.31
  -4  -1   8  948.05   10.78
  -4  -1   8  939.13   10.39
  -4  -1   7 1883.47   16.36
  -4  -1   7 1905.06   17.33
  -4  -1   7 1924.67   17.94
  -4  -1   7 1907.86   16.34
  -4  -1   7 1952.69   15.25
  -4  -1   6 2586.93   20.90
  -4  -1   6 2549.71   21.49
  -4  -1   6 2576.52   19.99
  -4  -1   6 2605.04   20.60
  -4  -1   6 2607.91   20.48
  -4  -1   5 2700.49   20.54
  -4  -1   5 2634.73   19.62
  -4  -1   5 2671.76   20.23
   4  -1  -5 2668.22   17.17
  -4  -1   5 2699.99   20.07
  -4  -1   4 2741.43   20.35
  -4  -1   4 2571.38   19.29
  -4  -1   3 1209.85   11.31
  -4  -1   3 1203.14   11.47
  -4  -1   2  209.64    3.99
  -4  -1   2  206.69    4.12
  -4  -1   1  882.01    8.84
   4  -1  -1  866.18    9.16
  -4  -1   0  779.36    8.45
   4  -1   0  758.83    8.48
  -4  -1  -1  476.54    5.98
   4  -1   1  477.40    6.67
   4  -1   1  474.57    3.55
   4  -1   2 1541.16   10.49
  -4  -1  -2 1607.73   12.90
   4  -1   2 1614.18   14.42
   4  -1   2 1546.11   13.26
  -4  -1  -3  755.61    8.09
  -4  -1  -3  771.51    8.26
   4  -1   3  784.69    7.93
   4  -1   3  719.21    8.65
   4  -1   3  742.81    9.58
   4  -1   3  767.02    6.79
   4  -1   3  799.84    8.28
   4  -1   4  969.94    8.81
   4  -1   4  976.17    9.17
   4  -1   4  973.56    9.65
   4  -1   4  986.62    9.93
   4  -1   4  991.25   10.14
   4  -1   5  541.59    6.70
   4  -1   5  542.38    6.86
   4  -1   5  555.12    7.67
   4  -1   6  203.38    4.36
   4  -1   6  198.44    4.48
   4  -1   6  207.55    4.81
   4  -1   7  535.88    7.93
   4  -1   7  523.71    8.07
   4  -1   7  568.16    8.77
   4  -1   7  491.56    8.25
   4  -1   8  506.44    8.18
   4  -1   8  499.03    8.34
   4  -1   9   42.28    2.35
   4  -1   9   41.56    2.48
   4  -1   9   50.75    2.82
   4  -1   9   44.89    2.52
   4  -1  10   75.07    3.54
   4  -1  10   68.74    3.41
   4  -1  10   78.50    3.54
   4  -1  10   70.71    3.27
   4  -1  10   78.08    3.20
   4  -1  11  231.60    6.25
   4  -1  11  217.23    5.78
   4  -1  11  235.47    6.43
   4  -1  12  347.84    7.73
  -4  -1 -12  351.96    7.57
   4  -1  12  370.71    7.63
   4  -1  12  352.90    7.19
   4  -1  13  117.91    3.81
  -4  -1 -13  121.00    4.14
   4  -1  13  115.86    3.83
   4  -1  13  116.25    4.23
   4  -1  14  532.66    7.41
   4  -1  14  550.29    7.52
  -4  -1 -15  397.34    5.73
  -4   0  17  186.56    3.89
  -4   0  16  160.10    4.25
  -4   0  15  597.99    9.45
  -4   0  14    3.73    0.90
  -4   0  13   63.65    3.11
  -4   0  13   64.20    2.69
  -4   0  12   97.21    3.36
  -4   0  12   92.66    3.85
  -4   0  12   97.72    3.83
  -4   0  11  105.39    3.85
  -4   0  11  106.46    3.52
  -4   0  11  101.64    4.29
  -4   0  10  103.70    3.64
  -4   0  10   96.97    3.28
  -4   0  10   95.15    3.83
  -4   0   9   10.15    1.04
  -4   0   9   12.66    1.17
  -4   0   9   10.83    1.26
  -4   0   8  130.97    3.64
  -4   0   8  120.99    2.96
  -4   0   8  133.89    3.42
   4   0  -8  135.14    3.88
  -4   0   8  125.61    3.91
  -4   0   8  142.80    3.84
  -4   0   7  190.53    4.21
  -4   0   7  201.64    4.68
  -4   0   7  205.88    4.29
   4   0  -7  201.24    4.39
  -4   0   7  186.57    3.52
  -4   0   7  206.96    4.01
  -4   0   7  215.29    4.56
  -4   0   6 2309.66   18.77
  -4   0   6 2335.78   18.18
  -4   0   6 2332.53   17.91
   4   0  -6 2322.42   17.99
  -4   0   6 2336.37   17.75
  -4   0   5  273.29    4.88
   4   0  -5  279.62    4.65
   4   0  -4 3006.81   20.44
  -4   0   4 2990.89   21.00
  -4   0   3 1431.26   11.58
  -4   0   3 1516.81   12.30
  -4   0   2  585.05    4.99
  -4   0   2  625.73    6.44
  -4   0   1 1779.30   11.24
  -4   0   1 1776.36   12.95
  -4   0   0  421.82    3.93
   4   0   0  428.14    5.70
   4   0   1  769.81    8.29
   4   0   2 1469.30   11.14
   4   0   2 1393.47   12.53
   4   0   3 2982.26   19.93
   4   0   3 3047.70   22.00
   4   0   3 3051.57   20.56
   4   0   4 3820.10   25.00
   4   0   4 3709.70   25.65
   4   0   4 3772.73   24.97
   4   0   4 3764.60   25.44
   4   0   4 3655.93   26.41
   4   0   5 1627.88   14.20
   4   0   5 1589.30   14.51
   4   0   5 1605.30   13.85
   4   0   5 1632.22   14.53
  -4   0  -5 1597.51   13.45
   4   0   6 2302.04   19.27
   4   0   6 2360.57   19.72
   4   0   6 2347.27   18.85
   4   0   6 2386.81   19.42
  -4   0  -6 2341.59   18.02
   4   0   6 2292.85   19.53
   4   0   7  713.22    9.70
   4   0   7  683.01    9.03
   4   0   7  696.77    9.82
   4   0   8 1214.39   13.23
   4   0   8 1227.21   14.16
   4   0   9  158.85    4.52
   4   0   9  158.40    4.99
   4   0  10  310.41    6.61
   4   0  10  319.19    7.27
   4   0  11  294.16    7.19
   4   0  11  286.19    6.41
   4   0  12  283.85    6.22
   4   0  12  282.15    6.95
   4   0  13  406.92    8.08
   4   0  13  388.03    6.71
   4   0  14  379.59    7.11
   4   0  15  231.00    4.47
   4   0  15  198.77    4.50
  -4   1  17  131.95    3.23
  -4   1  17  147.43    3.25
  -4   1  16  585.98    8.18
  -4   1  15  505.25    8.96
  -4   1  14  484.89    9.33
  -4   1  14  448.98    8.77
  -4   1  13  630.72   11.21
  -4   1  13  624.55   10.67
  -4   1  13  623.49   10.62
   4   1 -13  634.96   10.04
  -4   1  12 1371.71   17.19
  -4   1  12 1366.56   16.39
  -4   1  12 1364.81   16.48
   4   1 -12 1341.15   16.32
  -4   1  11   43.15    2.77
  -4   1  11   40.44    2.61
  -4   1  11   38.80    2.53
  -4   1  10  383.77    7.64
  -4   1  10  391.81    8.10
  -4   1  10  383.67    7.62
  -4   1  10  389.71    7.62
   4   1 -10  386.10    7.11
   4   1  -9  498.72    8.13
  -4   1   9  487.35    8.57
  -4   1   9  478.33    8.13
  -4   1   9  480.45    8.28
  -4   1   8  995.72   11.67
  -4   1   8  968.15   11.86
  -4   1   8  950.63   11.49
   4   1  -8 1008.86   10.64
   4   1  -8  989.96   11.42
   4   1  -7 1860.86   16.82
  -4   1   7 1930.02   16.44
  -4   1   7 1836.48   16.88
  -4   1   7 1965.80   16.78
   4   1  -7 1948.75   15.88
   4   1  -7 1886.57   17.71
  -4   1   7 1935.12   17.95
   4   1  -6 2820.09   21.93
  -4   1   6 2894.33   20.15
  -4   1   6 2765.26   21.47
  -4   1   6 2710.35   20.95
   4   1  -6 2921.91   20.76
   4   1  -6 2948.38   22.67
  -4   1   6 2979.43   22.96
  -4   1   5 2709.43   18.18
  -4   1   5 2705.00   19.86
   4   1  -5 2867.02   21.43
  -4   1   5 2885.22   21.67
  -4   1   4 2368.22   15.30
  -4   1   4 2367.46   14.74
  -4   1   3 1282.39   11.66
   4   1  -3 1298.25   11.99
  -4   1   3 1313.67   12.36
  -4   1   2  182.76    2.48
  -4   1   2  187.90    3.70
  -4   1   1  857.39    6.84
  -4   1   1  951.64    9.55
  -4   1   0  829.62    8.70
   4   1   1  460.63    5.81
  -4   1  -2 1529.83   12.53
   4   1   2 1508.80   12.52
   4   1   2 1508.16   12.91
   4   1   3  828.62    8.81
   4   1   3  841.29    9.42
   4   1   3  821.68    9.18
  -4   1  -3  871.96    8.71
   4   1   3  811.89    8.70
  -4   1  -3  870.95    8.92
  -4   1  -3  863.79    8.86
   4   1   3  923.17    9.74
   4   1   4  989.94   11.03
  -4   1  -4  906.09   10.09
  -4   1  -4  979.66   10.07
   4   1   4 1028.95   10.11
   4   1   4 1018.66   10.85
   4   1   4  951.44    9.86
  -4   1  -4  986.33   10.04
   4   1   4  934.88   10.50
   4   1   5  554.56    8.12
  -4   1  -5  550.51    7.48
   4   1   5  554.29    8.64
  -4   1  -5  509.08    7.60
   4   1   5  591.01    7.73
   4   1   5  538.51    7.32
  -4   1  -5  560.28    7.33
   4   1   6  175.56    4.19
   4   1   6  180.08    4.45
  -4   1  -6  178.95    4.09
  -4   1  -6  175.57    4.24
  -4   1  -7  555.08    8.17
   4   1   7  546.41    9.13
   4   1   7  559.92    8.83
   4   1   7  544.95    8.12
   4   1   8  493.56    9.18
   4   1   8  507.87    8.12
  -4   1  -9   51.47    2.51
   4   1   9   52.53    3.04
   4   1   9   57.64    2.92
   4   1   9   52.20    2.60
   4   1  10   69.36    3.63
  -4   1 -10   73.68    2.98
   4   1  10   69.58    3.30
   4   1  11  234.84    6.75
   4   1  11  232.08    6.14
   4   1  12  317.96    7.87
  -4   1 -12  317.81    7.07
   4   1  12  325.03    7.09
   4   1  13  133.66    5.20
  -4   1 -13  138.01    4.32
   4   1  13  135.51    4.81
  -4   1 -14  536.39    7.89
   4   1  14  568.33    9.07
   4   1  15  367.55    6.09
  -4   1 -15  374.43    5.38
  -4   2  16   79.11    2.65
  -4   2  16   75.79    2.14
  -4   2  15   22.18    1.48
  -4   2  15   24.52    1.74
  -4   2  14  343.13    7.30
   4   2 -14  349.02    7.02
  -4   2  13  163.06    5.13
  -4   2  13  162.79    5.29
   4   2 -13  169.59    5.41
  -4   2  12  105.48    4.00
  -4   2  12  103.21    4.18
  -4   2  12  115.51    4.51
   4   2 -12  106.51    4.54
  -4   2  11  235.73    6.41
  -4   2  11  241.29    6.09
  -4   2  10  392.84    8.16
  -4   2  10  399.11    8.31
  -4   2  10  407.85    7.88
   4   2 -10  419.50    8.45
  -4   2  10  422.76    8.71
  -4   2   9  193.04    5.62
  -4   2   9  194.02    5.35
   4   2  -9  205.94    4.97
  -4   2   9  198.29    5.14
   4   2  -9  206.78    5.90
   4   2  -8  483.47    8.93
  -4   2   8  453.17    7.97
  -4   2   8  473.30    8.42
   4   2  -8  483.08    7.64
   4   2  -8  477.21    7.25
  -4   2   8  462.64    7.54
   4   2  -8  486.98    9.17
  -4   2   8  475.36    8.47
  -4   2   7  579.46    8.99
   4   2  -7  576.42    9.70
   4   2  -7  591.02    8.41
   4   2  -7  568.39    8.08
   4   2  -7  582.78    9.84
  -4   2   7  557.13    8.07
   4   2  -6  226.17    5.75
  -4   2   6  225.28    5.13
   4   2  -6  229.22    5.05
   4   2  -6  229.23    5.01
   4   2  -5 1755.21   16.49
   4   2  -5 1857.62   18.42
  -4   2   5 1843.07   17.80
   4   2  -5 1775.20   16.35
   4   2  -4  997.99   12.51
   4   2  -4  952.27   11.58
  -4   2   4 1019.67   12.15
   4   2  -4  922.57   10.93
  -4   2   3 1860.47   17.03
   4   2  -3 1817.88   16.79
   4   2  -2  953.27   12.09
  -4   2   2  929.64   10.70
   4   2  -2  939.47   11.42
  -4   2   1 1468.00   12.32
  -4   2   1 1452.53   13.66
  -4   2   1 1458.68   12.27
  -4   2   1 1419.31   11.95
   4   2  -1 1473.11   15.14
   4   2   0  765.34   10.49
   4   2   0  741.67   10.08
  -4   2   0  664.55    4.55
  -4   2   0  755.57    8.77
  -4   2   0  728.19    8.00
  -4   2   0  764.31    8.02
   4   2   1  684.51    7.11
  -4   2  -1  683.52    7.94
  -4   2  -1  690.43    8.26
   4   2   1  686.47   10.28
  -4   2  -1  683.89    8.12
  -4   2  -2 1181.24   11.11
  -4   2  -2 1181.93   11.52
   4   2   2 1179.72   10.04
  -4   2  -3 1929.35   16.43
   4   2   3 1884.03   15.75
  -4   2  -3 1916.68   14.81
  -4   2  -3 1904.71   16.66
   4   2   3 1873.47   17.73
   4   2   4 1937.46   21.15
  -4   2  -4 1891.91   15.32
  -4   2  -4 1927.07   16.92
   4   2   5 1407.22   18.53
   4   2   5 1356.44   15.30
  -4   2  -5 1370.69   12.87
  -4   2  -5 1295.01   13.86
  -4   2  -5 1311.89   13.90
  -4   2  -6 2808.52   21.89
  -4   2  -6 2829.86   23.00
  -4   2  -6 2753.30   23.28
   4   2   7  586.02   10.53
  -4   2  -7  611.39    8.79
  -4   2  -7  597.51    9.06
  -4   2  -7  589.04    9.35
  -4   2  -8  979.99   12.04
  -4   2  -8  979.78   12.19
  -4   2  -8  979.68   12.70
   4   2   9  385.06    9.00
   4   2   9  386.57   11.17
  -4   2  -9  377.92    7.28
  -4   2  -9  363.72    7.47
   4   2  10  810.12   13.66
  -4   2 -10  797.45   11.34
  -4   2 -10  824.99   11.33
   4   2  11  343.38    8.46
   4   2  11  343.03    9.65
  -4   2 -11  336.07    6.67
  -4   2 -11  339.12    6.80
   4   2  12  438.58    9.93
   4   2  12  448.97    9.31
  -4   2 -12  469.54    7.40
  -4   2 -12  435.90    7.38
   4   2  13  272.31    6.63
  -4   2 -13  259.38    5.04
  -4   2 -14   96.63    2.50
   4   3 -15  265.90    4.45
  -4   3  14  196.82    4.57
   4   3 -14  207.98    5.07
  -4   3  13  610.85    9.42
   4   3 -13  637.50   10.62
   4   3 -13  613.97    9.07
  -4   3  12  490.32    9.02
   4   3 -12  530.90   10.45
  -4   3  11  339.52    7.80
   4   3 -11  340.00    8.88
   4   3 -10  679.58   10.04
   4   3 -10  708.37   13.51
   4   3  -9  467.10    8.26
   4   3  -9  452.42    7.77
  -4   3   8 1130.77   14.79
  -4   3   8 1030.95   13.72
   4   3  -8 1056.12   13.03
   4   3  -8 1126.86   13.64
   4   3  -7  130.24    5.13
   4   3  -7  120.66    4.15
  -4   3   7  120.28    4.32
  -4   3   6  364.35    7.16
   4   3  -6  382.80    9.03
   4   3  -6  373.18    7.60
   4   3  -5  608.18   10.76
   4   3  -5  579.72    9.81
   4   3  -4  281.91    6.97
   4   3  -4  283.04    6.82
   4   3  -3 1571.26   17.74
   4   3  -3 1593.57   17.64
   4   3  -2  850.46   12.89
   4   3  -2  852.63   12.74
  -4   3   2  841.99    9.35
   4   3  -2  857.12   11.90
  -4   3   1  438.69    6.71
  -4   3   1  449.41    6.27
   4   3  -1  455.81    8.86
   4   3   0  289.96    6.92
  -4   3   0  280.06    5.46
   4   3   0  293.11    6.14
  -4   3   0  301.97    5.27
   4   3   1  189.26    5.40
  -4   3  -1  197.19    4.66
   4   3   1  182.80    4.55
  -4   3  -1  195.87    4.42
   4   3   2  405.19    7.91
  -4   3  -2  413.70    7.18
  -4   3  -2  419.62    6.91
   4   3   3   21.35    2.29
   4   3   3   19.42    1.62
  -4   3  -3   21.41    1.62
  -4   3  -3   20.97    1.67
  -4   3  -4    7.67    1.07
   4   3   4    7.79    1.57
  -4   3  -5   59.72    2.97
  -4   3  -5   61.23    2.96
   4   3   6  519.66   12.97
  -4   3  -6  494.78    8.96
   4   3   7  151.45    7.21
  -4   3  -7  144.07    4.66
   4   3   8   14.43    1.87
   4   3   8   16.45    2.52
  -4   3  -8   12.68    1.44
  -4   3  -8   13.15    1.56
   4   3   9   83.23    5.13
  -4   3  -9   83.02    3.39
  -4   3  -9   85.08    3.61
   4   3  10  531.45   11.98
  -4   3 -10  526.67    9.00
   4   3  11  112.20    4.66
  -4   3 -11  120.00    3.85
  -4   3 -12  407.69    6.43
   4   3  12  340.90    6.80
  -4   3 -13  228.94    3.80
   4   4 -14   95.42    2.58
   4   4 -13   53.06    2.08
   4   4 -13   54.50    2.49
   4   4 -12  113.91    4.24
   4   4 -12  122.06    4.05
   4   4 -11   11.29    1.56
   4   4 -10   32.02    2.74
   4   4  -9  139.81    4.45
   4   4  -9  155.96    6.07
   4   4  -8  128.64    4.40
   4   4  -8  129.75    4.45
   4   4  -8  138.97    5.86
   4   4  -7  148.22    4.90
   4   4  -7  140.60    4.90
   4   4  -7  153.84    6.11
   4   4  -6  343.77    7.65
   4   4  -6  361.73    9.18
   4   4  -6  349.29    9.17
   4   4  -6  342.93    8.02
   4   4  -5  519.22    9.75
   4   4  -5  505.31   10.77
   4   4  -5  491.72   10.66
   4   4  -5  518.66   10.19
   4   4  -4 1026.70   14.37
   4   4  -4 1010.32   15.14
   4   4  -4  978.71   14.98
   4   4  -3  338.55    8.98
   4   4  -3  329.14    7.93
   4   4  -3  324.85    8.06
   4   4  -3  325.11    8.40
   4   4  -2  124.13    5.21
   4   4  -2  115.17    4.59
   4   4  -1  587.25   11.48
  -4   4   1  559.81    8.17
   4   4  -1  576.51    9.98
   4   4   0  713.77   12.23
  -4   4   0  685.33    8.74
   4   4   0  659.76   12.95
   4   4   0  678.64   10.18
  -4   4   0  645.01    9.50
  -4   4  -1  824.06   11.03
  -4   4  -1  831.78   10.28
   4   4   2  582.25    9.92
  -4   4  -2  587.05    9.45
  -4   4  -2  604.98    8.86
  -4   4  -3  330.25    7.11
  -4   4  -3  329.93    6.74
  -4   4  -4  664.46   10.75
  -4   4  -4  668.49   10.16
  -4   4  -5  113.00    4.16
   4   4   5  128.04    6.50
  -4   4  -6  475.47    8.81
   4   4   6  479.11   12.73
  -4   4  -7  204.08    5.59
  -4   4  -7  201.22    5.58
   4   4   7  197.56    7.87
  -4   4  -8  949.38   12.14
   4   4   8  919.21   16.25
   4   4   9  220.03    6.74
   4   4  10  169.43    4.89
  -4   4 -10  186.56    4.52
  -4   4 -11  193.08    4.16
  -4   4 -12   30.25    1.34
   4   5 -11  233.04    4.76
   4   5 -11  234.78    4.81
   4   5 -10  412.12    7.65
   4   5 -10  393.72    7.30
   4   5  -9  431.41    8.40
   4   5  -8   88.23    3.23
   4   5  -8   94.56    4.49
   4   5  -8   91.21    4.02
   4   5  -7   54.05    2.64
   4   5  -7   47.75    2.61
   4   5  -7   52.02    3.13
   4   5  -6   29.14    2.28
   4   5  -6   28.96    2.08
   4   5  -6   28.37    2.34
   4   5  -5   84.99    3.95
   4   5  -5   81.91    3.82
   4   5  -5   86.05    3.67
   4   5  -4  126.81    4.64
   4   5  -4  114.97    4.84
   4   5  -3  400.59    8.59
   4   5  -2  196.63    6.07
   4   5  -1  293.76    7.66
   4   5  -1  302.74    8.63
   4   5   0  106.21    4.61
   4   5   0  109.24    5.30
   4   5   1    5.73    1.41
   4   5   1    5.81    1.28
  -4   5  -2  125.00    3.56
  -4   5  -2  129.18    4.04
  -4   5  -3  116.99    3.96
   4   5   3  126.27    5.84
  -4   5  -3  118.25    3.63
  -4   5  -4   25.03    1.86
   4   5   4   23.86    2.57
  -4   5  -4   24.84    1.71
  -4   5  -5   60.96    2.81
  -4   5  -5   61.08    2.64
   4   5   5   58.26    3.81
  -4   5  -6  101.09    3.48
  -4   5  -6   96.96    3.27
   4   5   6   97.02    4.53
  -4   5  -7    9.64    1.04
   4   5   7    9.85    1.33
  -4   5  -8    8.85    0.94
   4   5   8    8.54    0.97
  -4   5  -9    4.23    0.62
   4   6  -7  195.14    4.15
   4   6  -6   66.60    2.60
   4   6  -5   17.91    1.40
   4   6  -5   19.33    1.21
   4   6  -4    2.43    0.56
   4   6  -4    1.22    0.48
   4   6  -3   14.95    1.20
   4   6  -3   16.78    1.54
   4   6  -2   16.29    1.31
   4   6  -2   18.37    1.67
   4   6  -1  105.31    3.23
   4   6  -1  121.69    4.23
   4   6   0  329.27    5.88
   4   6   0  381.49    7.82
   4   6   1  165.54    3.97
   4   6   1  205.03    5.68
   4   6   2  211.86    5.70
   4   6   3   74.46    3.15
   4   6   4   16.45    1.34
  -5  -6   6   85.14    2.26
  -5  -6   5   90.99    2.58
  -5  -6   3   11.23    0.91
  -5  -6   2   98.87    2.84
  -5  -6   0   74.89    2.42
  -5  -6  -1   33.74    1.64
  -5  -5  11  143.19    2.89
  -5  -5  11  141.78    2.77
  -5  -5  10  115.65    2.79
  -5  -5  10  116.68    3.20
  -5  -5  10  110.19    2.96
  -5  -5  10  121.48    2.96
  -5  -5   9   54.53    2.16
  -5  -5   9   57.28    2.54
  -5  -5   9   60.59    2.39
  -5  -5   8   71.91    2.73
  -5  -5   8   66.90    2.97
  -5  -5   8   76.85    2.95
  -5  -5   7   33.94    2.03
  -5  -5   7   33.17    1.81
  -5  -5   6  375.51    7.34
  -5  -5   6  381.86    6.75
  -5  -5   5  462.44    8.14
  -5  -5   4   29.57    1.81
  -5  -5   4   29.34    2.07
  -5  -5   3  206.27    5.00
  -5  -5   2  373.36    7.08
  -5  -5  -3   20.76    1.43
   5  -5   5   58.25    2.08
   5  -5   6  429.29    5.91
   5  -5   7  401.24    5.56
  -5  -4  14   87.34    2.30
  -5  -4  13  489.47    7.13
  -5  -4  13  482.74    5.84
  -5  -4  12  112.01    3.09
  -5  -4  12  116.19    2.99
  -5  -4  12  115.80    3.12
  -5  -4  11  472.66    7.31
  -5  -4  11  458.50    8.22
  -5  -4  11  467.56    7.44
  -5  -4  11  477.40    7.28
  -5  -4  10   57.24    2.65
  -5  -4  10   55.38    3.00
  -5  -4  10   52.90    2.66
  -5  -4   9  249.45    5.94
  -5  -4   9  237.66    4.99
  -5  -4   8   46.41    2.31
  -5  -4   8   41.84    2.40
  -5  -4   8   44.22    2.64
  -5  -4   7   61.80    2.78
  -5  -4   7   57.56    2.97
  -5  -4   6  562.91    9.13
  -5  -4   6  576.52    9.81
  -5  -4   5  787.85   11.09
  -5  -4   4 1853.96   18.32
  -5  -4   4 1892.53   19.09
  -5  -4   3   39.45    2.37
  -5  -4   2  541.22    9.06
  -5  -4   1  128.51    3.71
  -5  -4   0  208.35    4.86
   5  -4   2   27.24    1.59
   5  -4   3  429.66    6.80
  -5  -4  -3  416.24    7.67
   5  -4   4  121.84    3.66
   5  -4   4  116.88    3.44
   5  -4   5  599.35    8.77
   5  -4   5  581.72    8.38
   5  -4   6   80.34    3.11
   5  -4   6   78.36    2.98
   5  -4   7   54.84    2.57
   5  -4   7   52.77    2.46
   5  -4   8  227.11    5.14
   5  -4   8  224.57    5.00
   5  -4   9  134.42    3.79
   5  -4   9  127.35    3.55
   5  -4  10   54.06    2.25
   5  -4  10   57.24    2.18
   5  -4  11   34.87    1.52
   5  -4  11   36.40    1.52
  -5  -3  15  376.03    5.61
  -5  -3  15  362.78    5.21
  -5  -3  14   17.09    1.44
  -5  -3  14   16.80    1.31
  -5  -3  14   15.14    1.01
  -5  -3  14   13.94    0.84
  -5  -3  13  127.61    3.40
  -5  -3  13  119.45    3.31
  -5  -3  13  120.93    3.05
  -5  -3  12   17.35    1.66
  -5  -3  12   16.34    1.49
  -5  -3  12   16.44    1.34
  -5  -3  12   16.55    1.39
  -5  -3  12   16.04    1.29
  -5  -3  12   14.41    1.33
  -5  -3  11   75.04    3.57
  -5  -3  11   76.70    3.36
  -5  -3  11   76.01    3.01
  -5  -3  11   73.11    3.04
  -5  -3  10   82.02    3.53
  -5  -3  10   81.75    3.18
  -5  -3  10   87.13    3.48
  -5  -3   9  176.83    5.04
  -5  -3   9  170.07    5.11
  -5  -3   9  177.19    4.80
  -5  -3   9  176.94    4.99
  -5  -3   8  201.29    5.51
  -5  -3   8  207.50    5.20
  -5  -3   8  213.74    5.55
  -5  -3   7  795.54   11.38
  -5  -3   7  818.06   11.02
  -5  -3   7  808.53   11.53
  -5  -3   6  296.27    6.53
  -5  -3   6  299.71    6.37
  -5  -3   6  294.58    6.43
  -5  -3   6  293.72    6.60
  -5  -3   5  425.57    7.79
  -5  -3   5  443.78    7.82
  -5  -3   5  424.07    7.80
  -5  -3   4    2.98    0.72
  -5  -3   4    2.84    0.72
  -5  -3   4    3.14    0.60
  -5  -3   3  341.19    6.76
  -5  -3   3  333.81    5.73
  -5  -3   2  803.46   10.70
  -5  -3   2  803.63    9.85
  -5  -3   2  804.35    9.46
  -5  -3   1  363.05    7.07
  -5  -3   1  389.33    6.64
  -5  -3   0 1023.69   11.76
   5  -3   1  393.17    5.75
   5  -3   2  851.79    9.44
   5  -3   2  812.13    9.34
   5  -3   3  656.55    8.54
   5  -3   3  635.43    8.48
   5  -3   4  862.43    9.24
   5  -3   4  876.83   10.55
   5  -3   4  858.25   10.54
   5  -3   5 1456.91   13.67
   5  -3   5 1416.46   14.97
   5  -3   5 1425.42   14.51
   5  -3   6  276.53    5.47
   5  -3   6  279.09    6.19
   5  -3   6  272.93    5.97
   5  -3   7 1180.73   12.87
   5  -3   7 1215.07   14.03
   5  -3   7 1203.02   14.21
   5  -3   8  156.34    4.35
   5  -3   8  158.22    4.84
   5  -3   8  176.19    5.04
   5  -3   8  170.58    4.95
   5  -3   9  276.59    6.27
   5  -3   9  271.69    6.24
   5  -3   9  279.72    6.32
   5  -3  10  421.55    7.51
   5  -3  10  421.12    7.53
   5  -3  10  412.23    7.60
   5  -3  11  339.92    6.31
   5  -3  11  334.19    6.10
   5  -3  11  335.95    6.26
  -5  -2  16  162.21    3.10
  -5  -2  16  160.78    3.04
  -5  -2  15  194.81    4.47
  -5  -2  15  208.02    4.43
  -5  -2  15  198.14    4.23
  -5  -2  15  196.52    4.62
  -5  -2  15  190.78    4.15
  -5  -2  14  241.85    5.33
  -5  -2  14  245.23    5.87
  -5  -2  14  236.43    5.17
  -5  -2  13  453.80    8.35
  -5  -2  13  468.33    8.88
  -5  -2  13  458.69    7.87
  -5  -2  12  204.87    5.25
  -5  -2  12  207.74    5.68
  -5  -2  12  190.70    5.83
  -5  -2  12  210.94    5.80
  -5  -2  12  199.45    5.21
  -5  -2  12  196.68    4.62
  -5  -2  12  195.01    4.32
  -5  -2  12  195.60    4.94
  -5  -2  11  512.02    8.57
  -5  -2  11  483.39    9.08
  -5  -2  11  499.98    9.39
  -5  -2  11  497.86    8.47
  -5  -2  11  511.70    9.31
  -5  -2  11  484.70    7.87
  -5  -2  11  506.61    8.15
  -5  -2  10  500.56    9.29
  -5  -2  10  495.25    8.30
  -5  -2  10  514.63    9.31
  -5  -2  10  501.68    8.36
  -5  -2   9  913.10   12.64
  -5  -2   9  915.94   11.58
  -5  -2   9  930.38   11.91
  -5  -2   9  953.28   11.99
  -5  -2   9  885.46   11.93
  -5  -2   9  878.73   11.42
  -5  -2   8  265.88    6.02
  -5  -2   8  256.46    6.20
  -5  -2   8  253.19    5.61
  -5  -2   8  255.82    5.82
  -5  -2   8  251.27    5.87
  -5  -2   7 1641.14   16.70
  -5  -2   7 1624.00   15.81
  -5  -2   7 1644.98   16.37
  -5  -2   6  871.62   11.27
  -5  -2   6  858.89   10.57
  -5  -2   6  871.22   11.07
  -5  -2   5 1429.91   13.81
  -5  -2   5 1493.34   15.06
  -5  -2   5 1440.08   14.39
  -5  -2   5 1481.24   14.87
  -5  -2   4  467.47    7.50
  -5  -2   4  443.12    6.31
  -5  -2   4  454.54    7.24
  -5  -2   4  434.16    6.52
  -5  -2   3  338.37    6.03
  -5  -2   3  293.91    6.39
  -5  -2   3  336.07    5.69
  -5  -2   3  331.04    5.43
   5  -2  -3  277.23    5.92
  -5  -2   3  351.74    6.31
  -5  -2   3  324.92    5.22
  -5  -2   2 1005.43   10.74
  -5  -2   2  992.26   10.01
  -5  -2   2  974.37    9.78
  -5  -2   2  973.95   10.39
  -5  -2   1  420.50    6.58
  -5  -2   1  359.94    6.80
  -5  -2   1  417.77    7.59
   5  -2  -1  374.69    6.80
  -5  -2   1  409.62    6.39
  -5  -2   0  613.29    7.35
   5  -2   0  592.24    8.94
  -5  -2   0  617.70    9.40
   5  -2   0  618.91    7.06
   5  -2   1  238.55    4.81
  -5  -2  -1  228.74    5.24
  -5  -2  -1  251.25    4.56
   5  -2   1  258.59    4.20
   5  -2   1  235.17    5.50
   5  -2   1  257.35    4.52
  -5  -2  -2  769.36    8.84
   5  -2   2  787.81    8.49
   5  -2   2  768.17    8.84
   5  -2   2  773.81    8.64
  -5  -2  -3  197.72    4.25
   5  -2   3  206.32    4.38
   5  -2   3  206.23    3.79
   5  -2   3  208.69    4.29
   5  -2   3  205.55    4.44
  -5  -2  -4   68.17    2.55
   5  -2   4   63.67    2.23
   5  -2   4   66.15    2.54
   5  -2   4   63.84    2.57
   5  -2   4   65.21    2.60
  -5  -2  -5   76.46    2.88
   5  -2   5   76.78    2.64
   5  -2   5   81.27    2.97
   5  -2   5   75.19    2.95
   5  -2   5   72.66    2.92
  -5  -2  -6  135.58    4.03
   5  -2   6  130.46    3.76
   5  -2   6  134.58    4.07
   5  -2   6  133.30    4.16
   5  -2   6  125.73    4.06
  -5  -2  -7  203.57    5.20
   5  -2   7  208.77    5.02
   5  -2   7  212.01    5.37
   5  -2   7  208.07    5.41
   5  -2   7  202.87    5.41
  -5  -2  -8  136.94    4.41
   5  -2   8  139.39    4.67
   5  -2   9   72.54    3.45
   5  -2   9   72.30    3.27
  -5  -2  -9   69.52    3.15
   5  -2   9   80.24    3.61
  -5  -2 -10   40.96    2.39
   5  -2  10   43.26    2.74
   5  -2  10   41.62    2.54
   5  -2  10   40.30    2.41
   5  -2  10   40.99    2.59
  -5  -2 -11  554.82    8.67
   5  -2  11  555.06    8.74
   5  -2  11  565.71    9.12
   5  -2  11  575.15    9.67
  -5  -2 -12  419.33    6.84
   5  -2  12  436.36    7.48
   5  -2  12  422.68    7.75
  -5  -2 -13  275.63    4.74
   5  -2  13  287.56    5.41
   5  -2  14  188.15    3.46
  -5  -1  17   46.96    1.61
  -5  -1  17   52.63    1.83
  -5  -1  16   43.49    2.15
  -5  -1  16   43.06    1.94
  -5  -1  15   91.26    2.87
  -5  -1  15   97.35    3.69
  -5  -1  15   88.12    3.26
  -5  -1  14   19.43    1.57
  -5  -1  14   19.32    1.48
  -5  -1  14   19.02    1.78
  -5  -1  14   20.15    1.90
  -5  -1  14   17.39    1.56
  -5  -1  13  167.84    4.66
  -5  -1  13  183.09    5.82
  -5  -1  13  168.27    4.96
  -5  -1  13  173.96    5.46
  -5  -1  13  182.81    4.69
  -5  -1  12    7.29    1.09
  -5  -1  12    5.95    1.20
  -5  -1  12    5.53    1.01
  -5  -1  12    6.83    1.19
  -5  -1  12    4.72    0.83
  -5  -1  11  210.89    5.23
  -5  -1  11  208.39    5.12
  -5  -1  11  203.63    5.44
  -5  -1  11  209.53    6.05
  -5  -1  11  215.76    5.49
  -5  -1  11  193.13    4.26
  -5  -1  11  204.79    5.87
  -5  -1  11  195.90    4.60
  -5  -1  10   12.16    1.24
  -5  -1  10   13.84    1.54
  -5  -1  10   12.11    1.32
  -5  -1  10   13.16    1.14
  -5  -1  10   10.96    1.34
  -5  -1  10   15.28    1.27
  -5  -1   9  204.14    5.48
  -5  -1   9  205.94    5.60
  -5  -1   9  209.01    4.86
  -5  -1   9  206.65    4.97
  -5  -1   9  207.54    4.53
  -5  -1   8  427.15    6.91
  -5  -1   8  409.97    7.66
  -5  -1   8  422.67    6.99
  -5  -1   8  400.39    6.36
  -5  -1   7 1237.11   13.64
  -5  -1   7 1223.13   13.26
  -5  -1   7 1248.69   12.82
  -5  -1   6  716.57    9.52
  -5  -1   6  701.73    8.92
  -5  -1   6  713.31    9.04
  -5  -1   5  790.74    9.80
  -5  -1   5  822.00    9.40
  -5  -1   5  828.82    9.44
  -5  -1   5  817.09    9.18
  -5  -1   5  784.02    9.20
  -5  -1   4    2.39    0.55
  -5  -1   4    1.90    0.45
  -5  -1   3  864.89    9.75
  -5  -1   3  873.93    9.19
  -5  -1   3  867.01    9.38
  -5  -1   3  875.57   10.11
  -5  -1   3  898.18    8.90
  -5  -1   2 1008.22   10.16
  -5  -1   2 1024.16    9.60
  -5  -1   1 1220.35   10.96
  -5  -1   1 1262.39   12.24
  -5  -1   1 1249.98   11.47
   5  -1  -1 1244.41   10.71
   5  -1   0  919.42    9.11
  -5  -1   0  945.40    9.39
  -5  -1   0  955.66   10.47
   5  -1   0  919.54   10.83
   5  -1   0  912.43    8.93
  -5  -1  -1 2188.47   16.83
  -5  -1  -1 2358.73   17.41
  -5  -1  -1 2376.90   19.23
   5  -1   1 2311.20   16.53
   5  -1   1 2358.92   17.23
   5  -1   1 2238.47   19.47
   5  -1   2 2680.14   22.36
   5  -1   2 2718.15   16.15
  -5  -1  -2 2565.74   19.10
  -5  -1  -2 2685.27   19.66
  -5  -1  -2 2714.54   21.25
   5  -1   2 2661.19   19.03
   5  -1   2 2653.45   19.47
   5  -1   2 2735.88   19.69
   5  -1   2 2579.65   20.82
  -5  -1  -3 5045.00   32.40
   5  -1   3 5001.58   31.77
   5  -1   3 4954.99   32.06
   5  -1   3 5076.51   32.32
   5  -1   4 1049.17   11.21
  -5  -1  -4 1035.21   11.18
   5  -1   4 1007.60   10.75
   5  -1   4 1005.67   10.84
  -5  -1  -5 1062.13   11.93
   5  -1   5 1044.24   11.80
  -5  -1  -6  617.31    9.01
   5  -1   6  580.97    9.04
   5  -1   7  664.99    9.75
   5  -1   7  661.41    9.83
  -5  -1  -7  680.95   10.08
   5  -1   7  664.76    9.84
   5  -1   7  696.01   10.29
   5  -1   8  260.84    6.20
   5  -1   8  283.83    6.56
  -5  -1  -8  280.17    6.50
   5  -1   8  270.23    6.21
   5  -1   8  274.27    6.65
  -5  -1  -9 2000.80   20.04
   5  -1   9 1982.87   19.63
   5  -1  10  957.56   12.04
   5  -1  10  935.35   12.51
  -5  -1 -10  953.25   13.24
   5  -1  10  947.06   12.65
   5  -1  11  310.61    6.36
  -5  -1 -11  335.07    7.28
   5  -1  11  341.25    7.12
   5  -1  11  310.60    7.32
  -5  -1 -12  440.41    8.07
   5  -1  12  450.81    7.94
   5  -1  12  456.82    8.58
  -5  -1 -13  245.41    5.39
   5  -1  13  239.97    5.19
  -5  -1 -14  238.47    4.57
   5  -1  14  224.75    4.04
  -5   0  17  394.81    5.63
  -5   0  16  620.68    9.13
  -5   0  16  769.96    9.38
  -5   0  15    1.17    0.58
  -5   0  15    1.02    0.65
  -5   0  14  219.72    6.23
  -5   0  14  228.59    5.53
  -5   0  13  110.26    4.52
  -5   0  13  107.13    3.98
  -5   0  12   46.14    2.98
  -5   0  12   42.21    2.49
  -5   0  11  718.09   10.54
  -5   0  11  691.50   11.29
  -5   0  11  635.00    8.65
  -5   0  11  624.83    9.95
  -5   0  10 1568.47   17.36
  -5   0  10 1578.78   16.18
  -5   0   9 3856.64   27.02
  -5   0   9 3783.92   27.37
  -5   0   9 3953.96   30.55
  -5   0   9 3993.74   29.13
  -5   0   8  884.41    9.56
  -5   0   8  903.23   11.58
  -5   0   8  911.56   10.52
  -5   0   7 1051.99   10.24
  -5   0   7 1096.47   11.57
  -5   0   7 1069.22   12.26
  -5   0   7 1076.23   11.21
   5   0  -7 1096.87   11.62
  -5   0   7 1044.32   11.76
  -5   0   6  328.20    6.04
  -5   0   6  313.74    5.45
  -5   0   6  329.09    5.41
  -5   0   6  329.51    5.78
   5   0  -6  332.27    5.59
  -5   0   6  316.03    5.15
  -5   0   6  354.40    6.33
  -5   0   6  304.60    4.74
  -5   0   5  302.65    5.47
  -5   0   5  292.81    4.88
  -5   0   5  305.23    5.32
   5   0  -5  306.55    5.03
  -5   0   5  288.05    4.71
  -5   0   5  320.66    5.73
  -5   0   4  109.77    3.09
  -5   0   4  114.67    2.95
  -5   0   4  110.60    2.77
  -5   0   4  108.71    3.00
  -5   0   4  117.02    3.24
  -5   0   3 1555.74   12.95
  -5   0   3 1568.93   12.57
  -5   0   3 1558.10   13.44
  -5   0   2  949.22    6.83
  -5   0   2 1055.07    9.66
  -5   0   1 1174.14    7.82
  -5   0   1 1180.79   10.65
  -5   0   0  532.75    6.81
   5   0   0  527.60    6.62
   5   0   0  523.31    7.34
   5   0   1 1272.45   12.01
   5   0   1 1283.62   12.85
  -5   0  -1 1287.11   11.72
   5   0   2  153.93    3.76
   5   0   2  165.27    4.08
  -5   0  -2  159.80    3.56
   5   0   3  931.21    9.21
   5   0   3  986.37   10.82
  -5   0  -3  962.79    9.95
   5   0   3  944.11    9.95
   5   0   3  921.14   11.00
   5   0   4  140.65    3.47
   5   0   4  140.38    3.91
  -5   0  -4  136.31    3.45
   5   0   4  138.69    3.44
   5   0   4  137.26    3.58
   5   0   4  130.23    3.94
   5   0   5  229.38    4.81
   5   0   5  210.49    5.15
  -5   0  -5  223.74    4.58
   5   0   5  218.05    4.74
   5   0   6   79.07    3.00
   5   0   6   79.31    3.24
   5   0   6   76.95    2.93
  -5   0  -6   79.91    2.79
   5   0   6   80.34    3.18
   5   0   7  341.71    6.77
   5   0   7  354.02    7.27
   5   0   7  342.54    6.63
   5   0   7  352.25    7.17
  -5   0  -7  339.01    6.10
   5   0   8  113.18    4.05
   5   0   8  105.35    4.08
   5   0   8  102.57    3.75
   5   0   8  100.94    4.00
   5   0   9    2.46    0.84
   5   0   9    4.98    0.97
   5   0   9    5.30    0.99
   5   0  10    1.35    0.70
   5   0  10    1.61    0.66
   5   0  10    0.81    0.61
   5   0  11  449.92    8.64
   5   0  11  447.61    8.20
   5   0  12  694.12   10.53
   5   0  12  642.65    9.44
   5   0  13  470.68    7.80
   5   0  14  316.81    5.31
   5   0  14  317.50    6.69
  -5   1  17   39.70    1.66
  -5   1  17   45.39    1.67
  -5   1  16   36.22    1.92
  -5   1  15   84.63    3.36
  -5   1  15   85.33    3.32
  -5   1  14   12.57    1.45
  -5   1  14   13.68    1.55
  -5   1  14   13.16    1.43
  -5   1  13  177.48    5.66
  -5   1  13  166.17    5.24
  -5   1  13  178.22    5.39
   5   1 -13  171.35    5.03
  -5   1  13  175.68    5.39
  -5   1  12    0.63    0.61
  -5   1  12    2.03    0.78
  -5   1  12    2.69    0.88
  -5   1  11  236.60    6.51
  -5   1  11  231.87    5.98
  -5   1  11  236.53    6.29
  -5   1  11  232.44    6.16
  -5   1  10   17.91    1.70
  -5   1  10   21.99    1.91
  -5   1  10   20.76    1.75
  -5   1  10   19.81    1.76
   5   1 -10   19.11    1.65
  -5   1   9  217.86    5.65
  -5   1   9  215.64    5.31
   5   1  -9  224.35    4.67
  -5   1   9  218.69    5.55
   5   1  -8  425.18    7.37
  -5   1   8  433.40    7.66
  -5   1   8  429.62    7.30
   5   1  -8  436.14    6.51
   5   1  -7 1264.65   13.76
  -5   1   7 1273.76   13.56
  -5   1   7 1293.97   13.13
   5   1  -7 1302.62   12.33
   5   1  -6  648.93    9.21
  -5   1   6  636.18    8.57
  -5   1   6  620.15    8.24
  -5   1   6  606.96    7.96
   5   1  -6  659.38    8.03
   5   1  -6  680.71    9.46
  -5   1   6  635.32    9.28
   5   1  -5  757.28    9.94
  -5   1   5  752.94    8.97
  -5   1   5  736.15    8.32
   5   1  -5  763.08    8.55
   5   1  -5  759.73    9.64
  -5   1   5  773.18   10.05
  -5   1   5  746.01    8.68
  -5   1   4    2.67    0.52
  -5   1   4    2.83    0.39
  -5   1   3  871.86    9.10
  -5   1   3  853.28    9.14
  -5   1   2 1073.56    8.72
  -5   1   2 1076.61   10.40
  -5   1   1 1147.23   10.49
  -5   1   1 1152.99    9.32
  -5   1   0 1109.55   11.19
  -5   1   0 1073.94   10.02
  -5   1   0 1025.75    8.83
   5   1   0 1003.64   10.29
   5   1   0 1024.01   10.59
  -5   1   0 1053.21   10.01
  -5   1  -1 2252.66   16.86
   5   1   1 2237.68   17.93
   5   1   1 2238.21   17.71
  -5   1  -2 2499.09   18.54
   5   1   2 2518.47   19.42
   5   1   2 2554.73   19.94
  -5   1  -2 2544.48   18.96
   5   1   2 2477.97   19.58
   5   1   2 2460.33   19.83
   5   1   3 4764.82   33.49
  -5   1  -3 5031.55   32.13
   5   1   3 4942.04   32.89
   5   1   3 5029.12   33.31
  -5   1  -3 5015.08   32.31
   5   1   3 4750.10   32.86
   5   1   4  880.31   10.77
  -5   1  -4  857.22   10.47
  -5   1  -4  906.32   10.05
   5   1   4  886.33   10.45
  -5   1  -4  912.85   10.22
   5   1   4  919.82   10.74
   5   1   5 1171.16   13.31
  -5   1  -5 1153.18   12.29
   5   1   5 1108.57   12.31
  -5   1  -5 1124.88   12.10
   5   1   6  575.03    9.40
  -5   1  -6  588.59    8.75
   5   1   6  568.73    8.63
  -5   1  -6  574.96    8.36
  -5   1  -7  691.70   10.12
   5   1   7  687.71    9.94
  -5   1  -7  698.31    9.68
  -5   1  -8  268.27    6.30
   5   1   8  248.47    5.96
  -5   1  -8  264.94    5.84
   5   1   9 1915.44   19.07
  -5   1  -9 1904.52   18.09
   5   1  10  979.14   14.29
  -5   1 -10  950.27   11.59
   5   1  10  949.75   12.45
   5   1  11  321.75    7.79
  -5   1 -11  325.35    7.14
   5   1  12  452.44    8.83
   5   1  12  478.19   10.69
  -5   1 -12  464.40    8.18
   5   1  13  249.24    6.77
   5   1  13  250.78    5.91
  -5   1 -13  244.49    5.30
   5   1  14  184.47    4.78
  -5   1 -14  213.71    4.19
  -5   2  16  195.30    3.88
  -5   2  15  190.15    4.05
  -5   2  15  189.37    4.47
  -5   2  14  212.50    5.26
   5   2 -14  226.54    5.46
  -5   2  13  468.92    8.13
  -5   2  13  465.77    8.32
  -5   2  13  470.67    8.61
   5   2 -13  477.78    9.25
  -5   2  12  224.71    5.94
  -5   2  12  223.95    6.01
  -5   2  12  231.36    5.87
   5   2 -12  222.29    6.77
  -5   2  11  468.36    8.86
  -5   2  11  487.47    9.16
  -5   2  11  482.69    9.52
  -5   2  11  472.50    8.65
   5   2 -11  475.58    9.03
  -5   2  10  501.92    9.13
  -5   2  10  501.24    9.31
   5   2 -10  508.25    8.08
  -5   2  10  526.45    9.05
   5   2 -10  524.56    9.93
  -5   2  10  533.67    9.85
  -5   2   9  969.64   12.90
  -5   2   9  979.39   13.23
   5   2  -9 1040.04   11.95
  -5   2   9  971.14   12.20
   5   2  -9 1087.19   14.81
  -5   2   9 1025.26   13.79
  -5   2   8  271.73    6.57
   5   2  -8  283.33    7.06
  -5   2   8  263.52    6.03
   5   2  -8  269.85    5.72
  -5   2   8  277.91    5.98
  -5   2   7 1739.95   17.63
   5   2  -7 1765.81   19.03
   5   2  -7 1679.46   16.20
   5   2  -7 1655.25   15.39
   5   2  -6  847.19   12.45
   5   2  -6  813.96   10.37
  -5   2   5 1315.23   12.67
   5   2  -5 1337.22   13.94
   5   2  -5 1337.19   13.88
   5   2  -4  520.04    8.01
  -5   2   4  528.88    7.03
  -5   2   3  329.78    5.69
  -5   2   3  315.65    5.10
  -5   2   3  315.26    5.09
   5   2  -3  337.70    6.57
  -5   2   3  327.33    6.70
  -5   2   2  978.28   10.31
   5   2  -2 1005.59   13.23
  -5   2   2  970.46    9.60
  -5   2   2  977.21    9.91
  -5   2   2 1011.46   12.21
   5   2  -2  979.35   12.15
  -5   2   1  482.41    6.89
   5   2  -1  488.93    8.80
  -5   2   1  467.52    6.44
  -5   2   1  485.52    8.16
   5   2  -1  473.40    8.19
   5   2   0  598.36    9.55
  -5   2   0  563.10    6.83
  -5   2   0  610.96    9.27
   5   2   0  564.72    7.36
  -5   2   0  594.73    7.56
   5   2   1  284.32    6.67
  -5   2  -1  280.92    4.70
  -5   2  -1  280.14    5.93
  -5   2  -1  303.05    5.39
  -5   2  -1  285.21    5.18
   5   2   2  755.12    9.34
   5   2   2  790.64   11.87
  -5   2  -2  774.98    8.63
  -5   2  -2  782.38    9.51
   5   2   3  228.70    6.47
  -5   2  -3  224.41    4.41
  -5   2  -3  224.86    4.99
   5   2   4   87.41    3.63
  -5   2  -4   90.41    2.87
  -5   2  -4   94.17    3.31
   5   2   5   54.17    2.94
  -5   2  -5   54.73    2.36
   5   2   5   55.08    2.65
  -5   2  -5   55.41    2.61
  -5   2  -5   54.74    2.67
  -5   2  -6  143.42    4.43
   5   2   6  136.89    4.86
   5   2   6  147.91    6.19
  -5   2  -6  144.05    4.05
  -5   2  -6  143.31    4.30
   5   2   7  253.84    8.57
   5   2   7  245.66    6.78
  -5   2  -7  221.62    5.29
  -5   2  -7  228.51    5.74
   5   2   8  106.30    4.60
  -5   2  -8  102.54    3.70
  -5   2  -8  105.67    3.91
   5   2   9   47.88    3.14
   5   2   9   48.39    3.93
  -5   2  -9   48.62    2.65
  -5   2  -9   53.52    2.69
   5   2  10   46.22    3.02
   5   2  10   47.08    3.81
  -5   2 -10   48.33    2.55
  -5   2 -10   48.15    2.51
   5   2  11  610.85   10.87
   5   2  11  600.16   12.80
  -5   2 -11  603.39    8.68
  -5   2 -11  589.99    8.73
   5   2  12  403.52    9.11
  -5   2 -12  392.16    6.38
  -5   2 -12  404.82    6.20
   5   2  13  240.04    5.66
  -5   2 -13  238.67    4.20
   5   3 -15  354.90    4.96
  -5   3  14   11.74    1.00
   5   3 -14   13.99    1.29
  -5   3  13  118.85    3.60
   5   3 -13  123.41    3.83
   5   3 -13  127.75    4.50
  -5   3  12   22.28    1.73
   5   3 -12   20.64    2.07
  -5   3  11   68.20    3.19
   5   3 -11   74.20    4.08
  -5   3  10   93.32    3.85
   5   3 -10   97.02    3.55
   5   3 -10  102.83    4.55
  -5   3   9  186.34    5.42
   5   3  -9  191.00    5.08
  -5   3   9  186.94    5.87
   5   3  -8  202.86    5.43
   5   3  -8  193.77    5.01
  -5   3   8  198.47    5.93
   5   3  -7  911.22   14.86
  -5   3   7  793.74   12.13
   5   3  -7  836.15   11.54
   5   3  -7  915.58   14.84
   5   3  -7  796.87   11.28
   5   3  -6  288.30    6.71
  -5   3   6  279.65    6.53
   5   3  -5  462.67   10.32
   5   3  -5  484.86    8.87
   5   3  -5  476.41    8.86
   5   3  -4   16.05    1.66
   5   3  -4   12.47    1.50
   5   3  -4   13.32    1.73
   5   3  -3  384.68    9.16
   5   3  -3  355.91    7.88
  -5   3   2  754.53    8.84
   5   3  -2  784.09   12.23
  -5   3   1  370.05    6.03
   5   3  -1  366.12    8.34
   5   3   0 1065.80   15.47
  -5   3   0 1055.11   11.93
  -5   3   0 1041.64   11.52
   5   3   0 1056.53   15.12
   5   3   1  364.95    8.66
  -5   3  -1  353.34    6.67
  -5   3  -1  359.68    6.40
   5   3   1  360.42    8.70
   5   3   2  872.23   13.45
  -5   3  -2  831.36   11.00
  -5   3  -2  854.54   10.78
   5   3   3  624.12   10.71
  -5   3  -3  649.71    9.49
   5   3   4  867.08   15.49
  -5   3  -4  795.96   11.26
  -5   3  -5 1312.41   15.17
  -5   3  -5 1276.89   15.23
   5   3   6  261.77    9.16
  -5   3  -6  252.95    6.16
   5   3   7 1281.68   21.43
  -5   3  -7 1254.98   14.77
   5   3   8  175.47    7.56
  -5   3  -8  166.90    5.02
   5   3   9  319.02    9.82
  -5   3  -9  315.73    6.75
   5   3  10  375.94    9.73
  -5   3 -10  368.48    6.99
   5   3  11  322.44    7.74
  -5   3 -11  342.11    6.04
  -5   3 -12  128.63    3.10
   5   3  12  120.06    3.66
   5   4 -13  498.84    6.39
   5   4 -13  546.75    7.76
   5   4 -12  107.53    3.65
   5   4 -10   49.69    3.27
   5   4  -9  233.63    5.35
   5   4  -9  292.49    8.22
   5   4  -8   53.77    2.77
   5   4  -8   68.38    4.22
   5   4  -7   42.97    3.33
   5   4  -7   38.24    2.48
   5   4  -7   39.67    3.27
   5   4  -6  539.24   11.69
   5   4  -6  492.35    9.48
   5   4  -5  788.30   14.29
   5   4  -5  749.13   12.51
   5   4  -4 1911.47   20.96
   5   4  -4 1953.14   21.96
   5   4  -3   79.14    4.59
   5   4  -3   73.87    3.79
   5   4  -3   72.72    4.09
   5   4  -3   74.71    4.00
   5   4  -2  596.28   12.84
   5   4  -2  591.49   11.55
   5   4  -2  602.61   11.39
   5   4  -1  128.04    5.64
   5   4  -1  121.73    4.73
  -5   4   1  109.30    3.26
   5   4  -1  123.07    5.29
   5   4   0  193.72    6.74
  -5   4   0  180.10    4.37
   5   4   0  186.33    5.36
   5   4   1  237.42    7.09
  -5   4  -1  227.37    5.53
  -5   4  -1  229.16    5.19
   5   4   2   18.65    1.87
   5   4   2   23.04    2.59
  -5   4  -2   18.73    1.66
  -5   4  -2   21.18    1.67
  -5   4  -3  443.80    8.31
  -5   4  -3  440.24    7.79
  -5   4  -4  104.93    3.98
  -5   4  -4   97.27    3.74
   5   4   4  105.62    5.69
  -5   4  -5  563.37    9.30
   5   4   5  600.95   13.83
  -5   4  -6   82.44    3.47
   5   4   6   82.97    5.14
  -5   4  -7   42.57    2.46
   5   4   7   45.57    3.73
   5   4   8  197.11    7.09
   5   4   9  144.48    5.26
  -5   4 -10   56.86    2.25
   5   4  10   48.90    2.48
  -5   4 -11   36.61    1.55
   5   5 -11  156.67    3.51
   5   5 -11  150.59    3.40
   5   5 -10  112.93    3.67
   5   5 -10  104.23    3.33
   5   5  -9   69.90    3.08
   5   5  -8   67.63    2.68
   5   5  -8   70.30    3.36
   5   5  -7   22.10    1.68
   5   5  -7   23.23    1.73
   5   5  -7   22.44    2.00
   5   5  -6  396.99    7.30
   5   5  -6  386.61    7.59
   5   5  -6  372.60    8.21
   5   5  -5  495.37    8.57
   5   5  -5  478.19    8.90
   5   5  -4   44.27    2.67
   5   5  -4   41.10    2.75
   5   5  -3  198.71    5.76
   5   5  -3  196.24    6.34
   5   5  -2  448.13    8.88
   5   5  -1  141.35    5.03
   5   5   0  162.68    5.47
   5   5   0  160.40    6.04
   5   5   1  120.43    4.72
   5   5   1  123.21    5.36
  -5   5  -2   87.34    2.92
   5   5   2   94.71    4.80
  -5   5  -3   21.16    1.49
   5   5   3   23.10    2.47
  -5   5  -4  537.78    7.79
   5   5   4  566.65   11.90
   5   5   5   73.84    4.06
  -5   5  -5   73.66    2.71
  -5   5  -6  426.88    6.52
   5   5   6  408.25    8.96
  -5   5  -7  403.83    6.01
   5   5   7  386.06    7.52
  -5   5  -8   51.88    1.90
   5   5   8   39.68    1.87
   5   6  -5   97.67    2.74
   5   6  -5   95.97    2.45
   5   6  -4  137.79    3.14
   5   6  -4  130.93    3.45
   5   6  -3    8.01    0.84
   5   6  -2  128.44    3.30
   5   6  -2  125.63    3.75
   5   6  -1    1.15    0.59
   5   6  -1    0.88    0.45
   5   6   0   87.01    2.74
   5   6   0   98.54    3.54
   5   6   1   39.78    1.83
   5   6   1   47.92    2.48
   5   6   2   18.32    1.53
   5   6   3   30.22    1.81
  -6  -6   5   81.61    2.09
  -6  -6   4   88.52    2.36
  -6  -5  10   28.19    1.24
  -6  -5  10   28.25    1.41
  -6  -5  10   27.71    1.31
  -6  -5   9  243.84    4.29
  -6  -5   9  238.79    4.82
  -6  -5   8  402.00    6.22
  -6  -5   8  369.97    6.55
  -6  -5   7  458.62    7.21
  -6  -5   7  452.97    6.66
  -6  -5   6  370.14    6.85
  -6  -5   6  352.89    6.32
  -6  -5   5    7.57    0.88
  -6  -5   5    8.51    1.11
  -6  -5   4   58.48    2.49
  -6  -5   4   62.20    2.86
  -6  -5   3    4.50    0.80
  -6  -5   2  105.07    3.60
   6  -5   1   66.10    2.43
   6  -5   2  144.39    3.76
  -6  -5  -2  134.17    3.47
   6  -5   3   14.03    1.25
  -6  -5  -3   14.72    1.16
  -6  -5  -4   59.18    2.26
   6  -5   5   65.98    2.49
  -6  -5  -5   60.03    2.21
   6  -5   6   26.43    1.52
  -6  -5  -6   24.81    1.34
   6  -5   7   14.48    1.07
  -6  -5  -7   11.80    0.84
  -6  -4  13   29.11    1.52
  -6  -4  13   30.57    1.44
  -6  -4  13   27.49    1.10
  -6  -4  12   67.38    2.14
  -6  -4  12   67.32    2.02
  -6  -4  12   68.26    2.20
  -6  -4  11  138.48    3.64
  -6  -4  11  139.82    3.59
  -6  -4  11  136.09    3.54
  -6  -4  10  133.11    3.87
  -6  -4  10  125.76    3.34
  -6  -4  10  130.68    3.85
  -6  -4   9  108.79    3.77
  -6  -4   9  103.81    3.25
  -6  -4   9  105.15    3.74
  -6  -4   8   42.67    2.52
  -6  -4   8   39.96    2.16
  -6  -4   8   39.77    2.33
  -6  -4   7   53.20    2.61
  -6  -4   7   56.90    2.97
  -6  -4   6  353.89    7.22
  -6  -4   6  334.67    7.43
  -6  -4   5  157.77    4.83
  -6  -4   5  158.96    4.71
  -6  -4   5  156.34    5.09
  -6  -4   4   23.79    1.98
  -6  -4   4   22.91    1.83
  -6  -4   3   49.42    2.72
  -6  -4   2  318.43    6.08
  -6  -4   2  316.70    7.00
   6  -4  -1  112.27    3.41
  -6  -4   1  117.53    3.72
  -6  -4   0  317.41    6.33
  -6  -4  -1  311.76    6.33
  -6  -4  -2 1160.92   14.26
  -6  -4  -2 1292.80   14.25
   6  -4   3  306.75    5.51
  -6  -4  -3  315.01    6.67
   6  -4   4  377.65    6.43
  -6  -4  -4  381.11    7.49
  -6  -4  -5  187.77    5.21
   6  -4   5  203.26    4.72
   6  -4   5  199.38    4.58
  -6  -4  -6  157.75    4.70
   6  -4   6  169.72    4.39
   6  -4   6  165.89    4.18
  -6  -4  -7  145.16    4.35
   6  -4   7  156.69    4.17
   6  -4   7  151.13    3.91
   6  -4   8   72.68    2.86
  -6  -4  -8   69.72    2.84
   6  -4   8   70.54    2.53
   6  -4   9  218.99    4.62
   6  -4   9  211.62    4.08
   6  -4  10  294.32    4.81
  -6  -3  15  207.95    3.65
  -6  -3  15  206.11    3.34
  -6  -3  14  126.29    3.52
  -6  -3  14  120.61    3.14
  -6  -3  13  200.97    4.69
  -6  -3  13  201.17    4.38
  -6  -3  13  207.04    4.27
  -6  -3  13  191.26    3.74
  -6  -3  12  324.45    6.06
  -6  -3  12  326.96    6.71
  -6  -3  12  331.91    6.47
  -6  -3  12  338.89    5.99
  -6  -3  12  304.64    5.48
  -6  -3  12  305.00    5.13
  -6  -3  12  321.13    5.62
  -6  -3  11   86.02    3.25
  -6  -3  11   84.44    3.57
  -6  -3  11   85.04    3.47
  -6  -3  11   91.71    3.25
  -6  -3  11   85.77    3.07
  -6  -3  10  438.00    8.00
  -6  -3  10  439.09    8.30
  -6  -3  10  436.78    7.53
  -6  -3  10  430.06    7.62
  -6  -3   9  283.06    6.44
  -6  -3   9  276.32    6.57
  -6  -3   9  269.16    6.14
  -6  -3   9  282.85    6.18
  -6  -3   9  279.88    6.36
  -6  -3   8 1101.51   14.20
  -6  -3   8 1120.39   14.21
  -6  -3   8 1117.67   13.38
  -6  -3   8 1133.43   13.78
  -6  -3   7  403.35    8.08
  -6  -3   7  408.97    7.84
  -6  -3   7  403.65    7.92
  -6  -3   7  404.17    8.04
  -6  -3   6 1053.32   13.64
  -6  -3   6 1054.17   13.14
  -6  -3   6 1089.62   13.55
  -6  -3   6 1048.28   13.49
  -6  -3   5  351.93    7.33
  -6  -3   5  342.32    7.12
  -6  -3   5  353.99    7.44
  -6  -3   4  322.10    6.96
  -6  -3   4  323.80    7.04
  -6  -3   4  318.04    5.95
  -6  -3   3  698.92   10.52
  -6  -3   3  676.24    9.11
   6  -3  -2  224.82    4.74
  -6  -3   2  222.74    5.68
  -6  -3   2  223.43    5.03
  -6  -3   2  222.94    5.31
  -6  -3   1  181.28    5.22
  -6  -3   1  166.95    4.38
  -6  -3   1  179.37    4.78
  -6  -3   0  863.15   11.39
  -6  -3  -1  225.35    5.64
   6  -3   1  203.03    4.19
   6  -3   2  374.01    6.19
   6  -3   2  364.47    6.28
   6  -3   3  395.67    6.65
   6  -3   3  380.75    6.70
   6  -3   4   74.26    2.94
   6  -3   4   73.37    2.96
   6  -3   5  872.92   11.11
   6  -3   5  854.69   11.12
   6  -3   6   22.25    1.75
   6  -3   6   18.19    1.61
   6  -3   6   18.05    1.54
   6  -3   7  107.70    3.88
   6  -3   7  107.49    3.86
   6  -3   7  107.70    3.76
   6  -3   8   19.30    1.76
   6  -3   8   19.17    1.73
   6  -3   8   21.20    1.74
   6  -3   9  179.97    4.85
   6  -3   9  186.17    4.95
   6  -3  10   22.68    1.67
   6  -3  10   21.26    1.60
   6  -3  11  116.82    3.16
   6  -3  11  125.51    3.43
   6  -3  12   29.83    1.42
  -6  -3 -12   29.77    1.52
  -6  -2  15  144.64    3.46
  -6  -2  15  150.74    3.80
  -6  -2  14  207.86    4.51
  -6  -2  14  216.82    5.29
  -6  -2  14  209.23    4.69
  -6  -2  13   15.61    1.43
  -6  -2  13   17.51    1.57
  -6  -2  13   22.40    1.88
  -6  -2  13   21.10    1.60
  -6  -2  12   34.51    2.08
  -6  -2  12   34.12    2.22
  -6  -2  12   36.55    2.46
  -6  -2  12   34.78    2.14
  -6  -2  12   40.90    2.47
  -6  -2  12   31.22    1.70
  -6  -2  12   35.29    1.91
  -6  -2  11  438.80    7.80
  -6  -2  11  428.51    8.26
  -6  -2  11  441.63    8.89
  -6  -2  11  447.17    8.00
  -6  -2  11  429.31    6.98
  -6  -2  11  444.16    8.61
  -6  -2  11  449.90    7.33
  -6  -2  10  212.85    5.33
  -6  -2  10  206.53    5.87
  -6  -2  10  196.27    5.20
  -6  -2  10  197.83    5.54
  -6  -2  10  202.93    4.92
  -6  -2   9  707.62   10.32
  -6  -2   9  697.33   11.14
  -6  -2   9  731.16   10.30
  -6  -2   9  731.82    9.93
  -6  -2   9  710.73   10.73
  -6  -2   8  223.19    5.69
  -6  -2   8  225.78    5.59
  -6  -2   8  230.80    6.00
  -6  -2   8  214.72    5.39
  -6  -2   7   61.64    3.05
  -6  -2   7   61.97    2.96
  -6  -2   7   56.13    2.80
  -6  -2   6   36.64    2.29
  -6  -2   6   38.77    2.19
  -6  -2   6   38.02    2.25
  -6  -2   6   37.20    2.21
  -6  -2   5  218.49    5.47
  -6  -2   5  222.33    5.01
  -6  -2   5  214.35    5.35
  -6  -2   4  956.33   10.89
  -6  -2   4  973.50   12.09
  -6  -2   4  957.40   11.71
   6  -2  -3   12.33    1.06
  -6  -2   3   15.84    1.45
  -6  -2   3   12.75    1.15
  -6  -2   3   12.69    1.22
  -6  -2   2 1433.69   14.36
  -6  -2   2 1381.92   14.35
  -6  -2   2 1463.80   13.74
  -6  -2   2 1420.49   13.43
   6  -2  -2 1416.22   13.20
  -6  -2   1  819.98   10.62
   6  -2  -1  807.46    9.34
  -6  -2   1  808.88   10.27
   6  -2  -1  798.29    8.84
   6  -2   0 1352.99   12.65
  -6  -2   0 1356.17   14.37
  -6  -2  -1 2149.39   17.96
   6  -2   1 2119.97   16.82
   6  -2   1 2181.36   17.85
  -6  -2  -2  439.33    7.03
   6  -2   2  417.45    6.41
   6  -2   2  434.85    6.93
  -6  -2  -3  948.60   11.11
   6  -2   3  930.16   10.61
   6  -2   3  952.29   11.12
   6  -2   3  929.37   10.93
  -6  -2  -4  704.72    9.61
   6  -2   4  736.66    9.61
   6  -2   4  726.29    9.86
   6  -2   4  733.06    9.87
  -6  -2  -5  727.88   10.00
   6  -2   5  726.81   10.07
   6  -2   5  729.70   10.22
   6  -2   5  718.40   10.32
  -6  -2  -6  944.19   11.91
   6  -2   6  932.06   12.10
   6  -2   6  934.10   12.16
   6  -2   6  909.20   12.15
   6  -2   7  746.91   11.27
  -6  -2  -7  757.06   10.77
   6  -2   7  781.46   11.21
   6  -2   7  762.88   11.08
   6  -2   7  742.23   11.26
  -6  -2  -8  989.53   12.63
   6  -2   8  969.59   12.87
   6  -2   8 1006.38   13.39
   6  -2   9  612.22    9.96
  -6  -2  -9  579.02    9.19
   6  -2   9  590.55    9.93
   6  -2  10  500.18    8.60
  -6  -2 -10  474.91    7.92
   6  -2  11  299.72    5.78
  -6  -2 -11  297.76    5.70
   6  -2  11  313.27    6.35
  -6  -2 -12  253.55    4.65
   6  -2  12  258.58    5.24
   6  -2  13  288.29    4.68
  -6  -1  16   31.50    1.73
  -6  -1  16   29.19    1.54
  -6  -1  15  101.94    3.56
  -6  -1  14  297.42    5.80
  -6  -1  14  287.49    5.29
  -6  -1  14  318.17    7.07
  -6  -1  14  325.64    6.94
  -6  -1  14  328.12    6.49
  -6  -1  14  325.56    5.79
  -6  -1  13  227.45    5.09
  -6  -1  13  238.21    6.39
  -6  -1  13  230.47    5.63
  -6  -1  13  234.34    6.13
  -6  -1  13  228.63    5.27
  -6  -1  12 1182.92   13.60
  -6  -1  12 1161.11   13.33
  -6  -1  12 1181.42   15.47
  -6  -1  12 1160.74   14.09
  -6  -1  12 1205.49   15.35
  -6  -1  11  156.73    4.32
  -6  -1  11  155.37    4.53
  -6  -1  11  150.11    5.11
  -6  -1  11  144.15    4.84
  -6  -1  10 1991.78   17.92
  -6  -1  10 1903.07   20.14
  -6  -1  10 1921.70   16.47
  -6  -1  10 1996.94   20.07
  -6  -1   9  254.92    6.23
  -6  -1   9  243.44    5.34
  -6  -1   9  238.47    6.19
  -6  -1   9  240.96    4.78
  -6  -1   8  361.26    6.43
  -6  -1   8  361.88    7.35
  -6  -1   8  376.53    6.73
  -6  -1   8  349.60    5.82
  -6  -1   7  415.92    7.08
  -6  -1   7  423.64    7.28
  -6  -1   7  399.21    7.65
  -6  -1   7  448.46    7.34
  -6  -1   7  445.37    7.24
  -6  -1   6  967.72   11.01
  -6  -1   6  932.93   11.13
  -6  -1   6  968.62   11.27
  -6  -1   5  588.59    8.20
  -6  -1   5  596.03    8.18
  -6  -1   5  595.61    8.17
  -6  -1   5  599.28    8.35
  -6  -1   4 2143.89   18.98
  -6  -1   4 2170.40   17.97
  -6  -1   4 2159.24   18.44
  -6  -1   4 2182.24   18.11
  -6  -1   3 3173.45   24.61
  -6  -1   3 3227.50   24.95
  -6  -1   3 3225.20   22.95
   6  -1  -3 3212.58   22.86
  -6  -1   3 3234.56   23.92
  -6  -1   2   74.43    2.93
   6  -1  -2   65.97    2.42
  -6  -1   2   66.76    2.22
  -6  -1   2   71.59    2.85
   6  -1  -2   67.81    2.28
   6  -1  -2   63.07    2.91
  -6  -1   2   66.63    2.54
   6  -1  -1  573.63    9.29
  -6  -1   1  622.40    7.94
   6  -1  -1  606.94    7.87
  -6  -1   1  590.17    7.18
  -6  -1   1  611.93    8.31
  -6  -1   1  642.59    9.01
   6  -1  -1  605.65    7.63
   6  -1   0  732.88    8.87
  -6  -1   0  770.94    9.07
  -6  -1   0  691.40    7.74
  -6  -1   0  780.15   10.19
   6  -1   0  764.15    8.81
   6  -1   0  699.12   10.41
   6  -1   1  526.78    7.48
   6  -1   1  543.62    7.42
  -6  -1  -2  279.59    5.33
   6  -1   2  270.59    5.22
   6  -1   3   78.01    2.96
  -6  -1  -3   79.70    2.89
   6  -1   3   87.80    3.02
   6  -1   4  468.43    7.76
  -6  -1  -4  475.86    7.58
   6  -1   4  471.02    7.64
   6  -1   4  470.38    7.57
   6  -1   4  461.50    7.66
   6  -1   5  494.69    8.26
  -6  -1  -5  504.52    8.24
   6  -1   5  489.76    8.35
   6  -1   6  367.15    7.32
  -6  -1  -6  378.67    7.34
   6  -1   6  374.38    7.45
   6  -1   7   63.42    3.11
  -6  -1  -7   62.81    3.05
   6  -1   7   65.01    3.08
   6  -1   7   61.58    3.14
  -6  -1  -8   66.81    3.20
   6  -1   8   66.44    3.31
   6  -1   8   68.43    3.21
   6  -1   8   63.50    3.27
   6  -1   9  501.74    9.28
  -6  -1  -9  502.70    9.24
   6  -1   9  513.09    9.18
   6  -1  10  565.88    9.34
  -6  -1 -10  592.98    9.72
   6  -1  10  584.38    9.57
  -6  -1 -11  290.49    6.36
   6  -1  11  291.42    6.38
  -6  -1 -12    6.94    0.98
   6  -1  12    6.60    0.99
  -6  -1 -13  162.85    3.81
   6  -1  13  160.81    3.70
   6  -1  14   59.46    2.24
  -6   0  17    9.13    0.76
  -6   0  16   40.11    2.02
  -6   0  15  204.90    5.25
  -6   0  14  560.23    9.76
  -6   0  14  591.48    8.95
  -6   0  13    2.53    0.71
  -6   0  13    4.39    1.04
  -6   0  13    2.36    0.76
  -6   0  12  428.40    8.23
  -6   0  12  423.68    8.91
  -6   0  12  424.03    8.11
  -6   0  11   95.46    3.80
  -6   0  11   95.39    4.05
  -6   0  11   96.19    3.69
  -6   0  10  799.70   12.03
  -6   0  10  830.56   11.15
  -6   0   9    2.51    0.54
  -6   0   9    3.05    0.82
  -6   0   9    2.91    0.70
  -6   0   8  204.87    4.14
  -6   0   8  213.44    5.53
  -6   0   8  207.68    4.77
  -6   0   7  549.45    8.70
  -6   0   7  529.13    7.56
   6   0  -6  387.29    6.36
  -6   0   6  416.67    7.22
  -6   0   6  417.36    6.72
  -6   0   6  405.69    6.28
  -6   0   6  437.14    7.05
  -6   0   6  399.81    6.00
  -6   0   5  523.20    7.87
  -6   0   5  520.73    7.02
  -6   0   5  515.46    6.73
  -6   0   5  509.01    7.86
  -6   0   4 1087.10   11.81
  -6   0   4 1099.37   11.15
  -6   0   4 1049.90   10.49
  -6   0   4 1119.77   11.53
  -6   0   4 1103.78   10.50
  -6   0   4 1142.55   12.47
  -6   0   3  344.72    5.97
  -6   0   3  345.20    5.59
  -6   0   3  343.90    5.23
  -6   0   3  349.57    5.75
  -6   0   3  327.87    4.89
  -6   0   3  363.50    6.24
  -6   0   2  833.01    9.01
  -6   0   2  842.73    9.32
  -6   0   2  861.02    9.83
  -6   0   1 2089.24   16.79
   6   0  -1 2096.90   17.05
  -6   0   1 2052.94   16.11
  -6   0   1 2072.54   17.18
  -6   0   0 1650.63   14.45
   6   0   0 1588.45   14.36
  -6   0   0 1606.51   14.75
   6   0   0 1537.02   15.68
  -6   0   0 1533.99   13.18
  -6   0   0 1584.71   14.31
  -6   0  -1  902.54   10.13
   6   0   1  848.15   10.53
  -6   0  -1  891.20   10.12
  -6   0  -1  909.73   10.42
   6   0   1  845.03   11.07
  -6   0  -1  874.53    9.05
   6   0   2 1054.64   12.15
  -6   0  -2 1086.30   11.71
   6   0   3  117.71    3.86
  -6   0  -3  124.44    3.63
   6   0   3  121.54    3.57
   6   0   4  115.34    3.35
   6   0   4  109.36    3.86
   6   0   4  111.64    3.56
  -6   0  -4  115.86    3.58
   6   0   5 2990.52   23.41
   6   0   5 2965.61   25.22
   6   0   5 2914.42   23.91
  -6   0  -5 2916.26   23.46
   6   0   6  574.40    9.82
   6   0   6  578.90    9.19
  -6   0  -6  587.04    8.84
  -6   0  -7 2624.85   22.28
   6   0   7 2645.56   24.74
   6   0   7 2617.55   23.23
   6   0   8  882.81   12.14
   6   0   8  885.03   12.20
   6   0   9  589.22    9.82
   6   0   9  584.74    9.72
   6   0  10  444.41    8.24
   6   0  10  421.96    8.08
   6   0  11  167.52    4.68
   6   0  11  172.10    4.85
   6   0  12  506.25    7.68
   6   0  12  522.17    7.81
   6   0  13   50.72    2.82
   6   0  14  280.69    5.30
  -6   1  17   30.01    1.27
  -6   1  16   28.14    1.57
  -6   1  15   88.14    3.22
  -6   1  15   89.20    3.11
  -6   1  14  324.42    6.91
  -6   1  14  327.53    6.82
  -6   1  14  308.97    6.50
  -6   1  14  329.45    6.78
  -6   1  13  220.46    6.03
  -6   1  13  226.86    5.80
  -6   1  13  232.88    6.00
  -6   1  13  225.51    5.95
   6   1 -13  221.05    5.78
  -6   1  12 1235.24   15.62
  -6   1  12 1248.73   15.36
  -6   1  11  161.28    5.16
  -6   1  11  166.48    5.32
  -6   1  11  165.38    4.87
  -6   1  11  158.00    4.98
   6   1 -11  166.63    4.82
  -6   1  10 2015.96   20.18
  -6   1  10 2007.61   19.01
  -6   1  10 2064.21   20.04
  -6   1   9  233.77    5.86
  -6   1   9  226.14    5.80
  -6   1   9  225.40    5.31
   6   1  -9  228.32    4.61
   6   1  -8  365.46    7.12
  -6   1   8  358.19    7.05
   6   1  -8  357.05    5.82
   6   1  -7  408.73    7.55
  -6   1   7  398.21    6.96
  -6   1   7  409.63    7.28
  -6   1   7  393.95    6.66
   6   1  -7  401.84    6.19
   6   1  -6  893.38   11.59
  -6   1   6  852.48   10.49
  -6   1   6  858.24    9.75
   6   1  -6  862.20    9.64
  -6   1   6  855.14   10.46
  -6   1   5  663.44    8.65
  -6   1   5  683.85    8.85
  -6   1   5  667.17    7.97
   6   1  -5  681.98    8.29
  -6   1   4 2124.36   17.72
  -6   1   4 2175.58   17.11
  -6   1   4 2169.34   17.88
  -6   1   3 3302.10   25.44
  -6   1   3 3321.69   24.02
   6   1  -2   42.14    2.02
  -6   1   2   48.35    2.32
  -6   1   2   48.30    1.99
  -6   1   2   47.76    2.14
  -6   1   2   45.26    2.23
  -6   1   1  558.20    7.41
  -6   1   1  589.97    7.88
  -6   1   1  579.04    7.50
  -6   1   1  568.16    6.52
  -6   1   1  597.31    8.48
   6   1  -1  578.22    8.39
   6   1   0  823.76   10.52
  -6   1   0  803.63    9.18
  -6   1   0  786.42    8.24
  -6   1   0  802.86    9.37
  -6   1   0  796.86   10.19
   6   1   0  779.30   10.20
  -6   1   0  777.03    9.01
   6   1   1  508.69    8.37
  -6   1  -1  505.16    7.14
  -6   1  -1  496.85    6.62
   6   1   1  478.13    7.44
   6   1   1  485.80    7.85
  -6   1  -1  496.51    6.94
  -6   1  -2  245.92    4.83
  -6   1  -2  240.94    4.83
   6   1   2  244.68    5.26
  -6   1  -2  242.37    4.97
   6   1   2  229.68    5.34
  -6   1  -3   96.23    3.12
   6   1   3   95.29    3.35
  -6   1  -3   96.52    3.17
  -6   1  -3   96.10    3.03
   6   1   4  413.15    7.54
  -6   1  -4  423.27    7.09
  -6   1  -4  410.60    6.93
   6   1   4  415.42    7.44
  -6   1  -4  416.10    6.76
   6   1   5  523.34    8.74
  -6   1  -5  519.39    8.18
  -6   1  -5  516.45    8.19
   6   1   5  526.33    8.67
   6   1   6  404.31    8.02
  -6   1  -6  408.36    7.54
   6   1   6  425.43    7.93
  -6   1  -6  414.72    7.47
   6   1   7   58.10    3.12
  -6   1  -7   56.08    2.81
   6   1   7   56.66    2.91
  -6   1  -7   62.92    2.87
   6   1   8   48.37    2.90
  -6   1  -8   47.52    2.69
   6   1   8   43.72    2.59
  -6   1  -8   46.71    2.49
   6   1   9  553.30   10.07
  -6   1  -9  566.45    9.69
   6   1   9  548.59    9.33
  -6   1  -9  531.80    8.59
   6   1  10  552.74    9.92
  -6   1 -10  576.87    9.59
   6   1  10  559.21    9.03
  -6   1 -10  564.54    8.55
   6   1  11  294.05    6.78
   6   1  11  295.94    8.43
  -6   1 -11  290.52    6.32
   6   1  12   12.87    1.67
  -6   1 -12   12.23    1.20
   6   1  13  163.35    4.85
  -6   1 -13  155.59    3.64
  -6   2  16   92.75    2.30
  -6   2  15  140.93    3.47
  -6   2  14  210.72    4.83
   6   2 -14  213.20    5.13
  -6   2  13   13.10    1.30
  -6   2  13   12.89    1.26
  -6   2  13   13.53    1.35
   6   2 -13   14.37    1.59
  -6   2  12   27.59    1.93
  -6   2  12   27.51    1.97
  -6   2  12   33.86    2.17
   6   2 -12   29.56    2.05
  -6   2  12   34.50    2.42
  -6   2  11  426.76    8.03
  -6   2  11  429.15    8.10
  -6   2  11  430.63    8.14
   6   2 -11  429.26    8.67
  -6   2  11  439.02    8.82
  -6   2  10  264.19    6.22
  -6   2  10  263.68    6.33
   6   2 -10  266.69    5.56
  -6   2  10  262.23    6.14
   6   2 -10  285.86    7.34
  -6   2  10  281.22    6.86
  -6   2   9  708.50   11.25
   6   2  -9  711.50   11.58
  -6   2   9  705.17   10.42
   6   2  -9  710.89    9.54
   6   2  -9  739.47   12.34
  -6   2   9  704.70   10.35
  -6   2   8  235.24    6.06
   6   2  -8  229.66    6.51
  -6   2   8  234.79    5.59
  -6   2   8  218.85    5.38
   6   2  -8  223.20    5.18
   6   2  -7   77.48    3.75
   6   2  -7   69.58    2.88
   6   2  -6   39.83    2.68
   6   2  -6   36.60    2.10
  -6   2   5  232.36    4.89
   6   2  -5  218.17    5.26
   6   2  -5  216.68    5.05
  -6   2   4  956.60   10.54
   6   2  -4  920.24   11.45
  -6   2   3    9.14    0.99
   6   2  -3    7.93    1.06
  -6   2   2 1360.76   12.98
  -6   2   2 1399.75   13.59
   6   2  -2 1397.85   15.61
   6   2  -1  956.32   13.44
  -6   2   1  937.30   10.58
   6   2   0 1239.92   15.31
  -6   2   0 1243.12   12.87
   6   2   1 2116.25   21.62
  -6   2  -1 2078.05   17.25
  -6   2  -1 2124.38   18.33
   6   2   2  448.58    9.32
  -6   2  -2  449.12    6.93
  -6   2  -2  453.93    7.52
   6   2   3  966.69   14.68
  -6   2  -3  957.25   10.94
   6   2   4  637.93   12.13
  -6   2  -4  630.16    8.74
   6   2   5  682.78   13.27
  -6   2  -5  702.18    9.59
  -6   2  -5  695.42   10.33
  -6   2  -6 1083.67   12.64
  -6   2  -6 1086.84   13.45
  -6   2  -7  645.30    9.60
  -6   2  -7  632.65   10.00
  -6   2  -8 1061.41   12.90
  -6   2  -8 1089.03   13.37
  -6   2  -9  591.34    9.08
  -6   2  -9  580.86    9.24
  -6   2 -10  435.41    7.33
  -6   2 -10  436.33    7.50
   6   2  11  275.62    7.82
  -6   2 -11  255.91    5.07
  -6   2 -11  275.81    5.33
   6   2  12  257.20    6.49
  -6   2 -12  253.10    4.48
   6   2  13  227.97    4.65
   6   3 -14  147.30    3.83
   6   3 -13  189.09    5.21
   6   3 -12  370.99    8.24
   6   3 -11  115.74    4.96
   6   3 -10  497.02   10.00
  -6   3  10  483.15    9.11
   6   3  -9  324.09    6.53
  -6   3   9  328.15    7.63
   6   3  -8 1098.52   16.35
   6   3  -8 1005.91   12.56
   6   3  -8 1124.08   16.81
  -6   3   8  983.00   13.89
   6   3  -7  365.07    7.37
   6   3  -7  352.36    7.01
  -6   3   7  358.64    7.87
   6   3  -6 1060.85   13.49
   6   3  -6 1019.10   13.14
   6   3  -5  405.27    9.91
   6   3  -5  398.37    8.04
   6   3  -5  441.98   10.19
   6   3  -5  386.68    7.89
  -6   3   5  352.95    7.19
   6   3  -4  304.44    7.11
   6   3  -4  303.87    7.12
  -6   3   3  687.94    8.97
   6   3  -3  725.13   11.70
   6   3  -2  198.24    6.75
  -6   3   2  180.95    4.45
   6   3  -2  193.57    6.03
   6   3  -1  222.53    7.27
  -6   3   1  209.77    4.88
   6   3  -1  233.15    6.75
   6   3   0  844.91   14.73
  -6   3   0  844.87   10.63
   6   3   0  833.53   13.65
   6   3   1  190.84    6.75
  -6   3  -1  196.68    4.90
   6   3   1  181.41    6.23
   6   3   2  367.06    9.27
  -6   3  -2  389.93    7.25
   6   3   2  378.13    9.28
   6   3   3  358.72    9.44
   6   3   3  346.92    8.57
  -6   3  -3  363.88    7.27
  -6   3  -4   81.71    3.44
   6   3   6   16.79    2.36
   6   3   7  104.40    5.55
  -6   3  -7   99.70    3.88
   6   3   8   19.95    2.52
  -6   3  -8   20.64    1.71
   6   3   9  197.41    7.14
  -6   3  -9  181.33    4.76
   6   3  10   24.18    2.29
  -6   3 -10   24.70    1.65
  -6   3 -11  117.34    3.07
   6   3  11  109.13    3.98
   6   4 -13   33.79    1.67
   6   4 -12   76.86    2.86
   6   4 -11  145.31    4.73
   6   4 -10  140.07    5.08
   6   4  -9  108.76    3.61
   6   4  -9  114.75    4.93
   6   4  -8   48.46    2.53
   6   4  -8   46.90    2.36
   6   4  -7   42.96    2.54
   6   4  -7   45.86    3.33
   6   4  -7   47.13    2.61
   6   4  -6  340.42    7.56
   6   4  -6  350.83    7.62
   6   4  -5  131.63    6.02
   6   4  -5  129.55    5.66
   6   4  -5  114.62    4.56
   6   4  -4   16.07    2.20
   6   4  -4   15.45    2.09
   6   4  -4   16.42    1.85
   6   4  -3   80.45    4.69
   6   4  -3   73.47    3.84
   6   4  -3   83.82    4.53
   6   4  -2  352.22    9.88
   6   4  -2  352.07    9.10
   6   4  -2  336.55    8.36
   6   4  -1  135.80    6.04
   6   4  -1  128.02    5.04
   6   4  -1  135.00    5.32
  -6   4   1  124.22    3.68
   6   4   0  298.61    8.70
   6   4   0  294.54    8.20
  -6   4   0  280.37    5.76
   6   4   0  272.40    6.72
   6   4   1  279.64    8.33
   6   4   1  286.72    8.22
  -6   4  -1  283.38    5.93
   6   4   2 1211.88   16.45
  -6   4  -2 1296.58   14.00
  -6   4  -3  299.89    6.35
  -6   4  -4  340.09    6.98
   6   4   4  362.90    9.93
  -6   4  -5  203.73    5.33
   6   4   5  211.85    7.70
  -6   4  -6  165.03    4.65
   6   4   6  175.66    6.93
  -6   4  -7  155.31    4.36
   6   4   7  164.87    6.35
   6   4   8   87.53    4.24
   6   4   9  189.67    5.42
  -6   4  -9  190.82    4.18
  -6   4 -10  290.97    4.57
   6   4  10  247.70    4.85
   6   5 -10   27.49    1.47
   6   5  -9  250.80    5.64
   6   5  -9  245.41    5.11
   6   5  -8  376.73    7.00
   6   5  -7  436.07    6.87
   6   5  -7  417.83    7.77
   6   5  -6  377.69    6.71
   6   5  -6  374.09    6.78
   6   5  -5   10.96    1.27
   6   5  -5   11.75    1.37
   6   5  -4   54.98    2.75
   6   5  -4   52.25    2.83
   6   5  -3    4.39    1.02
   6   5  -3    4.75    1.03
   6   5  -2  114.64    4.18
   6   5  -2  113.83    4.43
   6   5  -1  105.81    4.11
   6   5  -1  103.30    4.35
   6   5   0  363.54    7.83
   6   5   1   65.45    3.29
  -6   5  -2  132.22    3.50
   6   5   2  140.14    5.30
  -6   5  -3   10.19    1.03
   6   5   3   10.65    1.57
  -6   5  -4   55.70    2.25
   6   5   4   57.13    3.33
  -6   5  -5   58.23    2.24
   6   5   5   61.66    3.28
  -6   5  -6   23.66    1.36
   6   5   6   22.38    1.83
  -6   5  -7   15.47    1.01
   6   5   7   15.62    1.29
   6   6  -4   82.91    2.08
   6   6  -4   87.55    2.35
   6   6  -3   37.27    1.47
   6   6  -3   37.77    1.70
   6   6  -2   34.58    1.47
   6   6  -1   19.52    1.14
   6   6   0   24.84    1.26
   6   6   0   26.90    1.59
   6   6   1   13.45    1.16
   6   6   2  139.37    3.48
  -7  -5   9    4.47    0.54
  -7  -5   9    5.96    0.69
  -7  -5   9    4.32    0.56
  -7  -5   9    4.98    0.58
  -7  -5   8  176.90    3.63
  -7  -5   8  167.44    3.82
  -7  -5   8  180.00    3.71
  -7  -5   7  158.37    3.74
  -7  -5   7  154.50    3.47
  -7  -5   7  162.72    3.85
  -7  -5   6    7.82    0.98
  -7  -5   6    8.56    0.78
  -7  -5   6    8.69    0.94
  -7  -5   5   20.61    1.30
  -7  -5   5   21.39    1.54
  -7  -5   4   69.58    2.55
  -7  -5   4   72.54    2.90
  -7  -5   3   93.86    3.11
  -7  -5   3   99.77    3.51
  -7  -5   2  104.03    3.36
  -7  -5   1  134.42    3.96
   7  -5   2  163.47    3.72
  -7  -5  -2  157.91    3.44
   7  -5   3   15.07    1.17
  -7  -5  -3   16.27    1.10
   7  -5   4   70.23    2.40
  -7  -5  -4   68.40    2.15
   7  -5   5   15.13    1.08
  -7  -5  -5   12.86    0.89
   7  -5   6   51.95    1.80
  -7  -4  12   78.54    2.42
  -7  -4  12   65.79    1.76
  -7  -4  11  387.09    5.47
  -7  -4  11  394.94    5.50
  -7  -4  10  364.68    5.60
  -7  -4  10  364.10    5.89
  -7  -4   9  220.92    4.62
  -7  -4   9  226.38    4.99
  -7  -4   8  319.25    6.02
  -7  -4   8  306.22    6.24
  -7  -4   7  126.20    3.94
  -7  -4   7  129.92    4.31
  -7  -4   6  153.83    4.59
  -7  -4   6  146.82    4.79
  -7  -4   5   29.87    2.11
  -7  -4   5   30.56    2.07
  -7  -4   5   29.36    2.25
  -7  -4   4  197.38    5.50
  -7  -4   4  187.27    5.22
  -7  -4   3  708.52   10.86
  -7  -4   2  234.73    6.06
  -7  -4   2  240.28    5.31
   7  -4  -1  441.06    7.12
  -7  -4   1  425.91    7.77
  -7  -4   1  448.03    7.58
   7  -4   0   47.23    2.34
  -7  -4   0   43.61    2.44
  -7  -4   0   45.02    2.39
   7  -4   1  296.59    6.06
  -7  -4  -1  281.13    6.31
  -7  -4  -1  295.94    6.21
  -7  -4  -1  297.69    6.20
   7  -4   2  101.32    3.59
  -7  -4  -2   96.57    3.68
  -7  -4  -2  100.04    3.57
  -7  -4  -2   96.89    3.56
  -7  -4  -3   34.39    2.14
   7  -4   3   36.61    2.23
  -7  -4  -3   34.88    2.24
  -7  -4  -3   34.68    2.10
   7  -4   4   40.65    2.37
  -7  -4  -4   39.18    2.29
  -7  -4  -4   40.03    2.39
   7  -4   5   13.83    1.45
  -7  -4  -5   12.43    1.30
   7  -4   6  177.82    4.71
  -7  -4  -6  168.96    4.47
   7  -4   6  174.71    3.90
   7  -4   7  172.03    3.67
  -7  -4  -7  166.66    4.17
   7  -4   8   66.23    2.03
  -7  -4  -8   64.19    2.28
  -7  -4  -8   61.51    2.26
   7  -4   9   16.30    1.11
  -7  -3  14   56.85    2.07
  -7  -3  14   52.55    1.77
  -7  -3  13  343.28    5.57
  -7  -3  13  347.49    5.31
  -7  -3  12  105.68    3.14
  -7  -3  12  108.64    3.50
  -7  -3  12  107.59    3.41
  -7  -3  12  106.04    3.16
  -7  -3  12   95.35    2.57
  -7  -3  12   98.12    2.75
  -7  -3  11  126.01    3.72
  -7  -3  11  120.96    4.04
  -7  -3  11  121.19    3.91
  -7  -3  11  125.79    3.69
  -7  -3  11  117.70    3.26
  -7  -3  11  117.82    3.32
  -7  -3  10   57.18    2.69
  -7  -3  10   56.82    2.82
  -7  -3  10   58.55    2.64
  -7  -3  10   56.63    2.50
  -7  -3   9  299.27    6.49
  -7  -3   9  296.91    6.74
  -7  -3   9  302.29    6.34
  -7  -3   9  297.68    6.45
  -7  -3   9  285.82    6.01
  -7  -3   8  268.65    6.39
  -7  -3   8  263.27    6.49
  -7  -3   8  277.52    6.23
  -7  -3   7   64.97    3.20
  -7  -3   7   70.16    3.18
  -7  -3   7   67.31    3.23
  -7  -3   6  158.60    5.07
  -7  -3   6  153.05    4.85
  -7  -3   6  156.43    4.99
  -7  -3   5  122.40    4.39
  -7  -3   5  121.41    4.33
  -7  -3   5  124.35    4.48
  -7  -3   4  439.91    8.55
  -7  -3   4  450.25    8.68
  -7  -3   4  422.40    7.37
  -7  -3   3  570.18    9.81
  -7  -3   3  552.14    8.66
  -7  -3   3  572.35    9.88
   7  -3  -2  356.05    6.61
  -7  -3   2  361.01    7.68
  -7  -3   2  357.56    6.89
  -7  -3   2  364.98    7.30
   7  -3  -1  176.45    4.67
  -7  -3   1  169.88    5.36
  -7  -3   1  178.96    5.11
  -7  -3   1  174.59    4.76
   7  -3   0  716.80    9.96
  -7  -3   0  714.47   10.27
  -7  -3   0  704.41   10.76
   7  -3   1  689.57   10.00
  -7  -3  -1  684.05   10.62
   7  -3   2  392.06    7.52
   7  -3   2  382.16    6.73
  -7  -3  -2  396.17    8.01
   7  -3   3  533.98    9.11
  -7  -3  -3  549.86    9.71
   7  -3   4  412.14    7.90
   7  -3   4  389.99    7.21
  -7  -3  -4  400.83    8.27
   7  -3   5  230.00    5.55
   7  -3   6  240.58    6.03
   7  -3   6  266.50    6.03
   7  -3   7  653.30   10.08
   7  -3   7  656.86    9.74
   7  -3   8  476.11    8.25
   7  -3   8  482.68    7.94
   7  -3   9  336.01    6.35
   7  -3   9  340.27    6.20
   7  -3  10  480.56    6.91
   7  -3  10  492.40    7.00
  -7  -3 -10  488.70    7.37
   7  -3  11  290.27    4.46
  -7  -3 -11  266.45    4.56
  -7  -2  15  191.18    3.45
  -7  -2  15  229.67    4.34
  -7  -2  14  101.87    2.78
  -7  -2  14  112.44    3.52
  -7  -2  14  108.28    3.14
  -7  -2  13  141.96    4.40
  -7  -2  13  137.70    3.99
  -7  -2  13  142.78    3.95
  -7  -2  12  186.06    4.51
  -7  -2  12  173.89    4.68
  -7  -2  12  184.33    5.33
  -7  -2  12  182.16    4.78
  -7  -2  12  190.54    5.06
  -7  -2  11  345.06    6.49
  -7  -2  11  336.09    6.84
  -7  -2  11  345.81    7.63
  -7  -2  11  343.97    6.79
  -7  -2  11  357.94    7.35
  -7  -2  11  338.29    5.84
  -7  -2  10  240.53    5.56
  -7  -2  10  251.52    6.50
  -7  -2  10  240.38    5.63
  -7  -2  10  233.02    5.81
  -7  -2  10  234.58    5.01
  -7  -2   9 1234.76   13.93
  -7  -2   9 1263.90   15.55
  -7  -2   9 1159.51   14.00
  -7  -2   9 1251.02   14.23
  -7  -2   9 1191.54   13.02
  -7  -2   9 1240.03   14.84
  -7  -2   8 1073.78   13.02
  -7  -2   8 1087.35   14.30
  -7  -2   8 1098.33   13.11
  -7  -2   7 1449.62   16.77
  -7  -2   7 1409.72   16.24
  -7  -2   7 1459.52   15.87
  -7  -2   6  324.19    6.53
  -7  -2   6  326.39    7.23
  -7  -2   6  334.49    7.09
  -7  -2   6  335.54    6.86
  -7  -2   5  597.96    9.80
  -7  -2   5  574.39    9.49
  -7  -2   5  577.76    8.82
  -7  -2   4  622.22    8.95
  -7  -2   4  633.40   10.04
  -7  -2   4  620.33    9.72
  -7  -2   3  452.31    7.94
   7  -2  -3  440.56    7.09
  -7  -2   3  461.77    8.44
  -7  -2   3  462.13    7.50
  -7  -2   3  455.13    7.37
   7  -2  -2  862.15   10.60
  -7  -2   2  907.83   12.52
  -7  -2   2  892.19   10.87
  -7  -2   2  902.61   10.91
  -7  -2   2  907.39   11.77
   7  -2  -1  596.38    8.74
   7  -2  -1  597.95    8.12
  -7  -2   1  613.03    8.91
  -7  -2   1  610.55    9.44
   7  -2   0  822.45   10.66
   7  -2   0  848.31   10.33
  -7  -2   0  859.69   10.80
  -7  -2   0  861.22   11.67
  -7  -2  -1  227.89    5.21
   7  -2   1  232.62    5.39
   7  -2   1  232.56    5.22
  -7  -2  -1  241.65    6.04
   7  -2   2  281.33    6.14
  -7  -2  -2  286.37    6.01
   7  -2   2  289.92    6.05
  -7  -2  -2  290.50    6.76
  -7  -2  -3 1121.02   12.96
   7  -2   3 1122.79   13.11
  -7  -2  -4  801.29   10.94
   7  -2   4  773.79   10.82
   7  -2   5  220.85    5.88
  -7  -2  -5  226.58    5.63
   7  -2   5  217.52    5.63
   7  -2   6  327.34    7.46
  -7  -2  -6  342.06    7.08
   7  -2   6  339.64    7.19
   7  -2   7   11.81    1.50
  -7  -2  -7   13.38    1.43
   7  -2   7   14.62    1.59
   7  -2   8  131.94    4.60
  -7  -2  -8  132.47    4.24
   7  -2   8  125.40    4.36
   7  -2   9   40.02    2.46
  -7  -2  -9   38.90    2.19
   7  -2  10   29.11    1.90
  -7  -2 -10   28.85    1.75
  -7  -2 -11    8.27    0.83
   7  -2  11    7.53    0.96
  -7  -2 -11    7.27    0.73
   7  -2  12   88.50    2.55
  -7  -2 -12   84.63    2.54
  -7  -1  16  199.67    3.96
  -7  -1  16  193.44    3.68
  -7  -1  15  211.96    4.58
  -7  -1  15  212.66    4.89
  -7  -1  14   34.41    2.18
  -7  -1  14   34.92    2.10
  -7  -1  14   35.45    2.01
  -7  -1  14   32.34    1.71
  -7  -1  13  169.11    5.25
  -7  -1  13  181.06    5.16
  -7  -1  13  174.17    4.41
  -7  -1  12  128.12    4.03
  -7  -1  12  124.83    3.68
  -7  -1  12  122.70    4.53
  -7  -1  12  128.58    4.52
  -7  -1  11   92.44    3.19
  -7  -1  11   96.06    3.39
  -7  -1  11   90.59    3.81
  -7  -1  10   85.66    3.77
  -7  -1  10   89.09    3.14
  -7  -1  10   82.86    3.39
  -7  -1   9   45.86    2.24
  -7  -1   9   43.13    2.41
  -7  -1   8  276.54    5.58
  -7  -1   8  280.51    6.02
  -7  -1   8  270.38    5.81
  -7  -1   7   71.28    2.81
  -7  -1   7   74.52    3.11
  -7  -1   7   73.70    3.00
  -7  -1   7   68.86    3.11
  -7  -1   7   72.14    2.91
  -7  -1   6   35.81    2.07
  -7  -1   6   36.08    2.20
  -7  -1   6   39.13    2.13
  -7  -1   6   36.70    2.16
  -7  -1   5  951.85   11.46
  -7  -1   5  955.11   11.27
  -7  -1   5  931.71   11.81
  -7  -1   5  941.53   11.05
  -7  -1   4   92.28    3.17
  -7  -1   4   81.87    3.15
  -7  -1   4   85.24    3.12
  -7  -1   3 1231.33   13.68
  -7  -1   3 1258.61   13.33
   7  -1  -2  381.50    6.67
   7  -1  -2  393.91    6.31
  -7  -1   2  382.97    6.96
   7  -1  -1  454.34    7.49
   7  -1  -1  468.61    7.24
  -7  -1   1  475.36    7.19
   7  -1   0  261.28    5.62
   7  -1   0  274.94    5.54
  -7  -1   0  261.79    5.24
  -7  -1  -1  407.60    7.05
   7  -1   1  396.88    6.91
  -7  -1  -2  929.57   11.37
   7  -1   2  887.23   11.02
   7  -1   3 1186.61   14.19
   7  -1   3 1208.54   13.56
   7  -1   4  874.47   12.16
  -7  -1  -4  879.88   11.50
   7  -1   4  866.83   11.55
   7  -1   5  981.77   13.26
  -7  -1  -5  978.86   12.58
   7  -1   6 1813.39   19.60
  -7  -1  -6 1904.55   19.02
   7  -1   7  196.19    5.75
  -7  -1  -7  193.34    5.51
   7  -1   7  197.18    5.58
   7  -1   8  625.77   10.61
  -7  -1  -8  614.75   10.07
   7  -1   8  626.65   10.26
   7  -1   9  353.40    7.42
  -7  -1  -9  351.83    7.24
   7  -1   9  340.48    7.35
  -7  -1 -10  136.87    4.29
   7  -1  10  137.58    4.32
  -7  -1 -11  639.04    8.93
   7  -1  11  636.35    9.17
  -7  -1 -12 1016.14   10.59
   7  -1  12 1003.74   10.52
   7  -1  13  374.75    6.01
  -7   0  16  178.71    3.91
  -7   0  16  174.56    3.67
  -7   0  15  184.85    4.66
  -7   0  15  180.86    4.34
  -7   0  14  158.84    4.32
  -7   0  14  164.04    4.82
  -7   0  13  689.61   10.85
  -7   0  13  673.79    9.89
  -7   0  12   67.89    3.15
  -7   0  12   66.35    3.40
  -7   0  12   65.28    3.03
  -7   0  11 1520.46   17.70
  -7   0  11 1532.08   16.20
  -7   0  10  155.28    5.14
  -7   0  10  183.56    4.94
  -7   0   9   37.88    2.47
  -7   0   9   33.38    2.06
  -7   0   8 1661.97   17.68
  -7   0   8 1631.69   15.71
  -7   0   7 1472.12   16.01
  -7   0   7 1409.69   14.15
  -7   0   6 2502.21   21.95
  -7   0   6 2537.33   20.06
  -7   0   6 2558.93   21.47
  -7   0   6 2478.95   19.46
  -7   0   5 2403.75   21.04
  -7   0   5 2423.71   19.18
  -7   0   5 2416.19   20.49
  -7   0   5 2391.64   18.37
  -7   0   4  123.83    3.85
  -7   0   4  116.77    3.23
  -7   0   4  122.12    3.66
  -7   0   4  114.77    3.05
  -7   0   3   22.99    1.64
  -7   0   3   25.22    1.57
  -7   0   3   39.67    1.85
  -7   0   3   44.39    2.12
  -7   0   2   36.78    2.07
  -7   0   2   35.54    1.90
  -7   0   2   37.19    1.75
  -7   0   2   35.84    1.83
  -7   0   2   37.60    2.09
  -7   0   1  425.58    7.03
  -7   0   1  429.51    6.59
   7   0  -1  431.97    7.04
  -7   0   1  425.94    7.18
   7   0   0  908.56   10.95
  -7   0   0  895.96   10.06
  -7   0   0  932.86   11.17
  -7   0  -1  541.76    8.26
   7   0   1  517.05    8.11
  -7   0  -1  520.05    8.48
  -7   0  -1  522.81    7.30
   7   0   2  657.76   10.03
  -7   0  -2  676.68    9.79
  -7   0  -2  637.39    8.24
  -7   0  -2  656.26    9.35
   7   0   3 1231.99   14.61
  -7   0  -3 1202.77   13.41
   7   0   3 1130.18   13.31
  -7   0  -3 1217.28   13.90
  -7   0  -3 1148.66   11.86
   7   0   4  505.91    9.18
   7   0   4  491.28    8.50
   7   0   5  114.42    4.33
   7   0   5  120.31    4.20
  -7   0  -5  119.39    4.10
   7   0   6   29.16    2.15
  -7   0  -6   26.31    1.95
   7   0   7    2.68    0.84
  -7   0  -7    1.95    0.65
   7   0   8  186.47    5.46
   7   0   9    3.10    0.85
   7   0  10    3.41    0.84
  -7   0 -10    6.58    0.95
   7   0  11    5.62    0.90
   7   0  12  142.77    3.30
   7   0  13   24.64    1.63
  -7   1  16  192.88    3.67
  -7   1  15  224.93    4.69
  -7   1  15  222.18    4.69
  -7   1  15  227.13    4.65
  -7   1  14   42.49    2.27
  -7   1  14   41.40    2.17
  -7   1  14   41.21    2.26
  -7   1  14   45.41    2.40
  -7   1  13  174.43    4.99
  -7   1  13  174.07    4.76
  -7   1  13  167.68    4.93
  -7   1  13  177.99    5.04
  -7   1  12  131.40    4.54
  -7   1  12  125.56    4.41
  -7   1  12  124.31    4.39
  -7   1  11   84.17    3.64
  -7   1  11   79.07    3.23
   7   1 -11   84.64    3.43
  -7   1  11   79.53    3.50
  -7   1  10   89.11    3.77
  -7   1  10   85.30    3.63
  -7   1  10   80.86    3.22
   7   1  -9   52.37    2.67
  -7   1   9   54.91    2.83
  -7   1   9   54.99    2.54
   7   1  -8  302.52    6.72
  -7   1   8  297.99    6.49
  -7   1   8  283.14    5.75
   7   1  -7   68.22    3.20
  -7   1   7   67.34    2.96
  -7   1   7   67.03    2.64
   7   1  -6   50.15    2.73
  -7   1   6   52.57    2.50
  -7   1   6   51.96    2.21
  -7   1   6   54.68    2.58
  -7   1   5  908.51   11.17
  -7   1   5  925.11   11.14
  -7   1   5  910.45    9.83
   7   1  -5  906.91   10.03
  -7   1   4  156.22    4.07
   7   1  -4  148.48    3.77
  -7   1   4  144.07    3.63
  -7   1   4  151.04    4.13
  -7   1   3 1238.64   12.71
  -7   1   3 1241.66   13.02
  -7   1   2  349.65    6.06
   7   1  -1  470.51    7.91
  -7   1   1  462.92    7.16
  -7   1   1  470.35    7.75
   7   1   0  229.10    5.67
  -7   1   0  229.76    5.00
  -7   1   0  229.37    5.03
   7   1   1  374.16    7.65
  -7   1  -1  392.62    6.80
   7   1   1  373.80    6.97
  -7   1  -1  385.04    6.67
   7   1   2  883.70   12.65
  -7   1  -2  897.15   11.03
   7   1   2  866.80   11.46
  -7   1  -2  895.98   11.23
  -7   1  -2  862.35   10.62
   7   1   3 1304.80   16.53
  -7   1  -3 1323.95   14.13
   7   1   3 1267.75   14.75
  -7   1  -3 1324.93   14.44
  -7   1  -3 1310.41   13.91
   7   1   4  930.93   14.22
  -7   1  -4  883.40   11.35
   7   1   4  917.16   12.24
  -7   1  -4  902.46   11.76
  -7   1  -4  887.68   11.10
  -7   1  -5  998.93   12.00
  -7   1  -5 1014.01   12.60
   7   1   5 1015.81   13.38
  -7   1  -5 1022.05   12.87
  -7   1  -6 1758.34   17.95
   7   1   6 1770.81   18.72
  -7   1  -6 1786.28   18.11
  -7   1  -7  172.73    5.08
  -7   1  -7  168.48    4.98
   7   1   7  169.28    5.23
   7   1   8  617.93   12.77
  -7   1  -8  598.65    9.94
   7   1   8  601.02    9.89
  -7   1  -8  620.12    9.65
  -7   1  -9  336.44    7.04
   7   1   9  324.80    6.79
  -7   1  -9  336.83    6.67
  -7   1 -10  160.80    4.59
   7   1  10  148.73    4.09
   7   1  11  610.49   11.16
  -7   1 -11  652.60    8.99
   7   1  12 1016.03   13.12
  -7   1 -12 1017.45   10.49
   7   1  13  348.77    5.80
  -7   2  15  205.97    3.64
  -7   2  14  110.31    3.06
   7   2 -14  107.78    3.35
  -7   2  13  135.17    3.74
  -7   2  13  138.72    3.84
  -7   2  13  136.90    4.24
   7   2 -13  135.37    4.46
  -7   2  12  180.33    4.51
  -7   2  12  190.48    4.69
  -7   2  12  196.29    4.94
   7   2 -12  195.21    5.05
  -7   2  12  197.19    5.40
  -7   2  11  328.43    6.51
  -7   2  11  339.52    6.89
   7   2 -11  333.62    7.45
  -7   2  11  329.12    7.27
  -7   2  10  253.13    5.76
  -7   2  10  273.15    6.02
   7   2 -10  250.53    5.19
   7   2 -10  267.09    7.10
  -7   2  10  259.55    5.95
  -7   2  10  267.78    6.49
  -7   2   9 1223.00   14.93
   7   2  -9 1227.23   15.64
  -7   2   9 1241.43   14.02
  -7   2   9 1202.32   14.17
   7   2  -9 1249.76   16.50
  -7   2   8  974.95   12.89
   7   2  -8  953.12   14.03
   7   2  -7 1596.18   18.72
   7   2  -7 1462.32   14.83
   7   2  -6  276.89    7.34
  -7   2   6  275.25    5.78
   7   2  -6  274.75    5.80
   7   2  -5  658.18   11.45
  -7   2   5  627.77    8.86
  -7   2   4  575.04    8.23
   7   2  -4  602.73   10.85
  -7   2   3  490.71    7.48
   7   2  -3  484.45    8.46
   7   2  -2  779.81   12.43
  -7   2   2  857.72   10.95
  -7   2   2  841.76   10.11
   7   2  -2  796.71   11.71
   7   2  -1  652.24   11.17
  -7   2   1  631.23    8.70
  -7   2   1  636.38    9.38
   7   2  -1  619.05   10.40
   7   2   0  804.24   12.37
  -7   2   0  830.53   10.91
   7   2   1  228.79    6.60
  -7   2  -1  223.58    4.99
  -7   2  -1  232.32    5.55
   7   2   2  233.92    6.95
  -7   2  -2  235.04    5.23
  -7   2  -2  231.15    5.57
   7   2   3 1083.57   16.28
  -7   2  -3 1049.26   12.32
   7   2   4  850.54   14.69
  -7   2  -4  819.35   10.90
  -7   2  -4  823.64   11.39
   7   2   5  250.08    7.88
  -7   2  -5  235.58    5.57
  -7   2  -5  232.72    5.92
   7   2   6  380.28   10.01
  -7   2  -6  369.82    7.13
  -7   2  -7   17.03    1.54
  -7   2  -7   15.97    1.59
  -7   2  -8  147.45    4.35
  -7   2  -8  141.17    4.43
   7   2   9   40.14    3.16
  -7   2  -9   45.21    2.28
  -7   2  -9   44.08    2.35
   7   2  10   18.46    2.06
  -7   2 -10   20.18    1.42
  -7   2 -10   22.50    1.54
   7   2  11   15.15    1.64
  -7   2 -11   15.42    1.06
   7   2  12   84.06    3.00
   7   3 -14   62.30    2.21
   7   3 -13  354.43    6.65
   7   3 -12  108.34    4.12
   7   3 -11  156.89    4.91
   7   3 -10   55.80    2.42
   7   3 -10   61.00    3.33
  -7   3  10   59.34    2.94
   7   3  -9  293.73    7.96
  -7   3   9  294.02    6.82
   7   3  -8  309.18    8.11
   7   3  -8  294.78    6.22
   7   3  -8  317.70    8.43
   7   3  -7   73.50    4.12
   7   3  -7   69.70    3.08
   7   3  -7   68.83    2.81
   7   3  -6  154.54    6.00
   7   3  -6  153.20    4.76
   7   3  -6  145.36    5.88
   7   3  -6  142.26    4.39
  -7   3   6  152.35    4.82
   7   3  -5  104.65    4.97
   7   3  -5  107.47    4.09
   7   3  -5   99.14    3.81
   7   3  -4  431.79    8.57
   7   3  -4  436.90    8.53
   7   3  -3  583.95   10.34
   7   3  -3  615.20   12.34
   7   3  -2  333.62    9.01
  -7   3   2  313.19    6.37
   7   3  -2  325.10    7.85
  -7   3   1  209.78    5.28
   7   3  -1  206.52    6.42
   7   3   0  726.90   13.81
  -7   3   0  705.20   10.21
   7   3   1  671.05   13.38
  -7   3  -1  689.33   10.20
   7   3   1  659.26   12.26
  -7   3  -2  337.76    7.04
   7   3   2  329.37    8.83
  -7   3  -3  523.69    8.82
   7   3   3  512.06   11.26
   7   3   4  391.42   10.10
  -7   3  -4  389.89    7.71
   7   3   5  264.39    8.40
  -7   3  -7  622.92    9.57
   7   3   8  473.60   10.47
  -7   3  -8  433.65    7.57
  -7   3  -9  293.31    5.67
   7   3   9  300.43    7.64
  -7   3 -10  479.82    6.61
   7   3  10  484.63    8.75
   7   3  11  238.65    4.78
   7   4 -12   66.75    2.36
   7   4 -11  415.17    7.37
   7   4 -10  355.88    7.41
   7   4  -9  204.97    4.58
   7   4  -9  207.84    6.15
   7   4  -8  296.53    5.92
   7   4  -8  316.12    8.00
   7   4  -7  137.62    4.21
   7   4  -7  141.14    5.44
   7   4  -6  164.17    4.92
   7   4  -6  172.97    6.18
   7   4  -6  154.84    4.61
   7   4  -5   40.24    3.14
   7   4  -5   36.61    2.43
   7   4  -5   37.01    2.98
   7   4  -5   34.08    2.33
   7   4  -4  178.26    6.74
   7   4  -4  176.66    5.44
   7   4  -4  182.44    6.66
   7   4  -4  162.39    5.33
   7   4  -3  724.68   11.77
   7   4  -3  709.35   13.44
   7   4  -3  702.12   11.74
   7   4  -2  196.62    7.20
   7   4  -2  182.80    5.83
   7   4  -2  184.69    6.44
   7   4  -2  183.18    5.96
   7   4  -1  468.57   11.17
   7   4  -1  433.12    9.48
  -7   4   1  447.94    7.42
   7   4  -1  449.93    9.69
   7   4   0   50.43    3.58
   7   4   0   58.65    3.52
  -7   4   0   49.73    2.45
  -7   4  -1  304.55    6.28
   7   4   1  314.89    8.29
   7   4   2   90.18    4.15
   7   4   2  103.73    4.86
  -7   4  -2  103.42    3.60
  -7   4  -3   36.18    2.15
   7   4   3   38.02    3.00
  -7   4  -4   30.56    1.99
  -7   4  -5   21.93    1.68
  -7   4  -6  198.64    4.83
   7   4   6  200.47    6.55
  -7   4  -7  138.16    3.80
   7   4   7  157.94    5.35
   7   4   8   67.37    3.14
   7   4   9   13.73    1.18
  -7   4  -9   14.39    0.99
   7   5  -9    8.90    0.94
   7   5  -9    8.38    0.77
   7   5  -8  148.44    3.27
   7   5  -8  148.92    3.57
   7   5  -7  124.97    2.95
   7   5  -7  134.59    3.61
   7   5  -6    4.03    0.69
   7   5  -5   13.07    1.21
   7   5  -4   60.15    2.69
   7   5  -3   97.28    3.50
   7   5  -3  101.45    3.66
   7   5  -2  103.39    3.66
   7   5  -2  101.80    3.84
   7   5  -1  131.23    4.17
   7   5  -1  123.83    4.31
   7   5   0  447.94    7.97
   7   5   0  423.40    8.43
   7   5   1  454.22    8.06
   7   5   1  456.49    8.67
   7   5   2  128.96    4.15
  -7   5  -2  119.51    3.05
   7   5   3   19.75    1.64
  -7   5  -3   19.58    1.25
  -7   5  -4   73.27    2.32
   7   5   4   78.74    3.31
  -7   5  -5   13.92    0.98
   7   5   5   15.67    1.42
   7   5   6   55.80    2.33
  -8  -5   8   94.77    2.21
  -8  -5   8   93.24    2.40
  -8  -5   8   87.53    2.02
  -8  -5   7   11.11    0.87
  -8  -5   7    9.85    0.81
  -8  -5   6  283.17    4.73
  -8  -5   6  275.87    4.49
  -8  -5   5  411.35    6.28
  -8  -5   5  408.73    6.04
  -8  -5   4  611.31    7.35
  -8  -5   4  645.08    8.25
  -8  -5   3    1.96    0.53
  -8  -5   3    2.12    0.62
  -8  -5   2   59.35    2.31
  -8  -5   2   61.97    2.53
  -8  -5   1   14.16    1.18
  -8  -5   0   28.22    1.64
  -8  -5  -1   71.27    2.56
  -8  -4  11   13.34    0.91
  -8  -4  11   13.42    1.02
  -8  -4  11   12.02    0.75
  -8  -4  11   11.69    0.74
  -8  -4  10   62.77    2.20
  -8  -4  10   64.03    2.48
  -8  -4  10   62.01    2.03
  -8  -4  10   57.76    1.93
  -8  -4  10   60.67    1.96
  -8  -4   9   13.84    1.17
  -8  -4   9   13.61    1.08
  -8  -4   9   13.32    1.08
  -8  -4   8  251.48    5.30
  -8  -4   8  247.77    4.97
  -8  -4   8  253.01    5.25
  -8  -4   8  243.37    4.96
  -8  -4   7  171.58    4.70
  -8  -4   7  163.08    4.25
  -8  -4   7  166.63    4.51
  -8  -4   6   17.21    1.49
  -8  -4   6   19.53    1.70
  -8  -4   5   44.96    2.45
  -8  -4   5   46.42    2.44
  -8  -4   4  167.86    4.87
  -8  -4   4  166.83    4.73
  -8  -4   3  112.87    3.67
  -8  -4   3  121.78    4.26
  -8  -4   3  120.09    4.14
  -8  -4   2  477.57    8.53
  -8  -4   2  466.85    7.38
   8  -4  -1   48.28    2.20
  -8  -4   1   45.31    2.40
  -8  -4   1   53.44    2.81
  -8  -4   1   50.75    2.43
   8  -4   0  378.04    6.66
  -8  -4   0  373.68    7.09
   8  -4   1  291.97    5.91
  -8  -4  -1  287.29    6.17
  -8  -4  -1  298.55    6.04
   8  -4   2    6.64    1.02
  -8  -4  -2    6.42    0.96
  -8  -4  -2    9.51    1.14
  -8  -4  -2    9.63    1.10
   8  -4   3  111.19    3.69
  -8  -4  -3  104.73    3.54
  -8  -4  -3  109.18    3.53
  -8  -4  -3  107.84    3.55
   8  -4   4  395.20    7.05
  -8  -4  -4  392.33    6.72
  -8  -4  -4  379.01    6.65
   8  -4   5  548.24    8.25
  -8  -4  -5  528.94    7.64
   8  -4   6  223.38    4.81
  -8  -4  -6  217.70    4.44
  -8  -4  -7  431.06    5.78
  -8  -4  -7  386.46    5.42
  -8  -3  13  183.84    3.43
  -8  -3  13  189.44    3.52
  -8  -3  12  237.08    4.30
  -8  -3  12  235.74    4.65
  -8  -3  12  244.23    4.72
  -8  -3  12  233.95    4.45
  -8  -3  11  291.25    5.23
  -8  -3  11  282.53    5.68
  -8  -3  11  297.85    5.75
  -8  -3  11  308.26    5.53
  -8  -3  11  255.21    4.26
  -8  -3  11  270.33    4.49
  -8  -3  10  735.43    9.33
  -8  -3  10  714.98    9.97
  -8  -3  10  724.75    9.34
  -8  -3   9  358.67    6.67
  -8  -3   9  354.85    7.11
  -8  -3   9  361.00    6.76
  -8  -3   9  343.21    6.08
  -8  -3   8  415.28    7.65
  -8  -3   8  396.20    7.93
  -8  -3   8  418.64    7.50
  -8  -3   7   78.37    3.48
  -8  -3   7   84.10    3.41
  -8  -3   7   80.20    3.48
  -8  -3   7   78.01    3.37
  -8  -3   6  467.89    8.86
  -8  -3   6  436.43    8.41
  -8  -3   6  474.47    8.78
  -8  -3   6  448.70    8.51
  -8  -3   5  402.12    8.19
  -8  -3   5  406.01    8.28
  -8  -3   5  392.82    7.96
  -8  -3   4  679.52   11.04
  -8  -3   4  678.84   11.16
  -8  -3   3  105.28    4.23
  -8  -3   3  107.18    4.31
  -8  -3   3  113.79    3.86
   8  -3  -2  391.64    7.19
  -8  -3   2  395.42    8.34
  -8  -3   2  393.66    7.47
   8  -3  -1  677.81   10.07
  -8  -3   1  681.13   11.22
  -8  -3   1  690.63   10.24
  -8  -3   1  681.82   10.80
   8  -3   0  386.67    7.62
  -8  -3   0  406.68    7.71
  -8  -3   0  400.22    8.06
   8  -3   1  156.20    4.87
  -8  -3  -1  163.19    4.87
  -8  -3  -1  156.85    4.99
   8  -3   2  372.55    7.59
   8  -3   2  348.23    6.50
  -8  -3  -2  369.61    7.45
  -8  -3  -2  378.47    7.96
   8  -3   3  318.82    7.06
   8  -3   3  304.44    6.15
  -8  -3  -3  296.04    6.46
  -8  -3  -3  308.32    7.18
   8  -3   4  139.91    4.74
   8  -3   4  137.74    4.13
  -8  -3  -4  139.62    4.75
   8  -3   5  251.60    5.70
  -8  -3  -5  252.32    6.36
   8  -3   6   66.00    3.15
   8  -3   6   74.23    3.01
  -8  -3  -6   74.29    3.32
   8  -3   7   17.74    1.60
   8  -3   7   17.42    1.45
  -8  -3  -7   17.74    1.58
   8  -3   8   56.93    2.54
   8  -3   8   57.75    2.39
  -8  -3  -8   57.75    2.30
  -8  -3  -8   56.18    2.54
   8  -3   9   58.55    2.15
  -8  -3  -9   52.04    1.93
  -8  -3  -9   52.75    2.20
  -8  -2  15  176.60    3.30
  -8  -2  14   64.32    2.39
  -8  -2  14   60.62    2.17
  -8  -2  13  130.71    3.12
  -8  -2  13  143.20    4.07
  -8  -2  13  141.65    3.63
  -8  -2  13  136.83    3.61
  -8  -2  12   27.98    1.59
  -8  -2  12   28.32    1.67
  -8  -2  12   29.15    1.99
  -8  -2  12   29.16    1.79
  -8  -2  12   30.00    1.86
  -8  -2  11   11.24    1.11
  -8  -2  11   11.35    1.21
  -8  -2  11   11.59    1.40
  -8  -2  11   12.50    1.28
  -8  -2  11   11.82    1.28
  -8  -2  11   11.41    0.94
  -8  -2  10    3.87    0.74
  -8  -2  10    3.74    0.90
  -8  -2  10    4.35    0.86
  -8  -2   9  291.29    6.03
  -8  -2   9  300.33    7.18
  -8  -2   9  299.35    6.33
  -8  -2   9  281.94    5.29
  -8  -2   9  294.29    6.62
  -8  -2   8   37.17    2.19
  -8  -2   8   41.49    2.67
  -8  -2   8   38.60    2.29
  -8  -2   8   40.54    2.04
  -8  -2   7  298.74    7.19
  -8  -2   7  292.46    6.87
  -8  -2   7  297.54    6.55
  -8  -2   6  275.66    6.16
  -8  -2   6  281.76    6.91
  -8  -2   6  255.91    6.24
  -8  -2   6  268.97    6.60
  -8  -2   6  279.01    6.34
  -8  -2   5   33.55    2.36
  -8  -2   5   29.97    2.15
  -8  -2   5   33.63    2.12
  -8  -2   5   31.76    2.15
  -8  -2   4   13.09    1.55
  -8  -2   4   17.08    1.63
  -8  -2   4   17.77    1.55
  -8  -2   3  168.77    5.24
  -8  -2   3  168.09    4.64
  -8  -2   3  165.09    4.65
   8  -2  -2  165.78    4.72
  -8  -2   2  177.31    4.79
  -8  -2   2  179.00    5.53
  -8  -2   2  178.28    4.87
  -8  -2   2  180.33    5.27
   8  -2  -1  435.56    8.08
  -8  -2   1  455.02    7.95
   8  -2  -1  447.35    7.30
  -8  -2   1  456.79    8.08
  -8  -2   1  467.13    8.78
   8  -2   0  253.72    6.10
  -8  -2   0  244.60    6.41
   8  -2   0  255.92    5.70
   8  -2   1  520.63    8.57
  -8  -2  -1  527.05    9.57
   8  -2   2  554.00    9.67
   8  -2   2  575.01    9.25
  -8  -2  -2  557.82    9.16
  -8  -2  -2  565.54   10.12
  -8  -2  -3  293.79    6.42
   8  -2   3  282.70    6.87
   8  -2   3  300.31    6.64
  -8  -2  -3  297.48    7.35
  -8  -2  -4  959.14   12.28
   8  -2   4  970.85   12.52
   8  -2   5   99.72    4.17
  -8  -2  -5  102.34    3.81
   8  -2   5   96.92    3.83
   8  -2   6  487.90    9.18
  -8  -2  -6  493.97    8.47
   8  -2   6  491.18    8.65
   8  -2   7  438.29    8.41
  -8  -2  -7  437.24    7.69
   8  -2   7  424.51    7.93
   8  -2   8  431.05    7.99
  -8  -2  -8  422.95    7.19
   8  -2   8  429.29    7.71
  -8  -2  -8  415.55    7.99
  -8  -2  -9  642.61    8.29
  -8  -2  -9  627.33    7.99
  -8  -2  -9  639.78    9.41
  -8  -2 -10  597.46    6.96
  -8  -2 -10  592.63    6.70
  -8  -2 -10  608.82    8.24
  -8  -2 -11  471.89    6.11
   8  -2  11  492.26    6.19
  -8  -1  16   91.45    2.26
  -8  -1  16   77.65    1.97
  -8  -1  15   16.97    1.17
  -8  -1  15   16.68    1.23
  -8  -1  14   85.69    3.02
  -8  -1  14   85.02    2.56
  -8  -1  13  104.08    3.66
  -8  -1  13   99.79    3.16
  -8  -1  12  238.66    5.36
  -8  -1  12  227.24    5.40
  -8  -1  12  243.13    5.94
  -8  -1  11  227.91    4.69
  -8  -1  11  241.91    5.72
  -8  -1  11  236.13    6.05
  -8  -1  10 1089.80   11.59
  -8  -1  10 1117.82   13.28
  -8  -1   9 1532.97   14.54
  -8  -1   9 1530.47   16.00
  -8  -1   8  143.14    3.87
  -8  -1   8  153.19    4.50
  -8  -1   8  155.07    4.39
  -8  -1   7  963.54   11.10
  -8  -1   7  991.19   12.63
  -8  -1   7  961.08   12.02
  -8  -1   7  967.11   12.83
  -8  -1   7  986.59   11.77
  -8  -1   6  290.98    6.17
  -8  -1   6  283.24    6.56
  -8  -1   6  292.90    6.02
  -8  -1   6  289.11    6.39
  -8  -1   5  133.29    4.21
  -8  -1   5  127.64    3.97
  -8  -1   5  123.12    4.22
  -8  -1   5  127.93    3.91
  -8  -1   4  352.18    7.39
  -8  -1   4  369.82    6.80
  -8  -1   4  370.01    7.25
  -8  -1   4  362.34    7.15
  -8  -1   4  360.58    6.58
  -8  -1   3  398.44    7.82
  -8  -1   3  404.74    7.50
  -8  -1   3  410.07    7.20
  -8  -1   3  411.11    7.66
  -8  -1   2 1268.60   14.14
  -8  -1   2 1248.35   15.07
   8  -1  -1 1153.21   13.62
   8  -1  -1 1176.72   13.21
   8  -1   0 1228.84   14.51
  -8  -1   0 1223.48   13.42
   8  -1   1   68.00    3.25
   8  -1   1   69.60    3.07
  -8  -1  -1   62.69    2.73
  -8  -1  -1   68.52    3.26
  -8  -1  -2  940.89   12.22
   8  -1   2  897.07   12.00
  -8  -1  -2  909.24   12.69
   8  -1   3  646.05   10.80
   8  -1   3  646.72   10.25
  -8  -1  -3  620.74    9.10
  -8  -1  -3  651.11   10.77
   8  -1   4  113.06    4.47
  -8  -1  -4  120.66    4.27
   8  -1   4  117.78    4.27
  -8  -1  -4  117.57    4.42
   8  -1   5    2.37    0.94
  -8  -1  -5    2.55    0.81
   8  -1   5    1.92    0.75
  -8  -1  -5    2.58    0.82
   8  -1   6   64.33    3.38
  -8  -1  -6   68.94    3.30
   8  -1   7  114.05    4.35
  -8  -1  -7  121.60    4.36
  -8  -1  -7  119.37    3.72
  -8  -1  -8   52.57    2.78
   8  -1   8   50.75    2.76
  -8  -1  -8   49.90    2.25
  -8  -1  -8   51.28    2.81
  -8  -1  -9   29.12    1.98
   8  -1   9   28.55    1.99
  -8  -1  -9   28.42    1.98
  -8  -1 -10   31.18    1.88
   8  -1  10   31.43    1.91
  -8  -1 -10   29.95    1.83
   8  -1  11   62.10    2.71
  -8  -1 -11   61.06    2.25
   8  -1  11   59.92    2.27
  -8  -1 -11   57.71    2.10
  -8   0  16   10.96    0.83
  -8   0  16   11.46    0.81
  -8   0  15   46.21    2.07
  -8   0  15   47.83    1.97
  -8   0  14   16.92    1.45
  -8   0  14   17.09    1.34
  -8   0  13  488.16    8.57
  -8   0  13  477.95    7.72
  -8   0  13  477.11    7.82
  -8   0  12  157.72    4.66
  -8   0  12  167.10    5.04
  -8   0  12  157.95    4.52
  -8   0  11  190.93    5.55
  -8   0  11  182.33    4.90
  -8   0  10   40.61    2.61
  -8   0  10   35.58    2.14
  -8   0   9  301.84    7.12
  -8   0   9  302.73    6.20
  -8   0   8  344.49    7.46
  -8   0   8  324.09    6.24
  -8   0   7  772.40   11.33
  -8   0   7  747.54    9.67
   8   0  -6   90.65    3.44
  -8   0   6   97.06    3.75
  -8   0   6   93.46    3.13
  -8   0   6  102.63    3.65
  -8   0   5   39.65    2.38
  -8   0   5   45.04    2.13
  -8   0   5   42.02    2.29
  -8   0   5   41.00    1.87
  -8   0   4    1.91    0.63
  -8   0   4    1.94    0.53
  -8   0   4    1.35    0.52
  -8   0   3   70.37    3.06
  -8   0   3   70.64    2.60
  -8   0   3   71.39    2.91
  -8   0   2    0.37    0.44
  -8   0   2    1.31    0.44
  -8   0   1 1155.68   12.51
  -8   0   1 1174.12   13.72
   8   0   0  801.23   10.80
  -8   0   0  809.64   10.15
  -8   0   0  808.70   11.06
   8   0   1 1060.09   12.91
  -8   0  -1 1057.92   11.82
  -8   0  -1 1081.93   13.03
  -8   0  -2 1219.33   12.96
  -8   0  -2 1216.32   14.21
  -8   0  -3  296.50    5.81
  -8   0  -3  321.19    6.82
   8   0   4  474.01    8.88
  -8   0  -4  471.39    7.42
  -8   0  -4  458.37    8.39
  -8   0  -5  492.92    7.54
  -8   0  -5  503.60    8.98
   8   0   6    4.52    1.01
  -8   0  -6    4.11    0.87
   8   0   7  551.48    9.78
  -8   0  -7  536.05    9.16
   8   0   8 1184.75   14.36
  -8   0  -8 1135.84   13.58
   8   0   9  553.11    8.97
  -8   0  -9  533.36    8.17
   8   0  10 1774.04   19.28
   8   0  10 1769.15   16.38
   8   0  11  351.73    7.09
   8   0  12  198.10    4.43
  -8   1  15   20.59    1.26
  -8   1  15   18.91    1.16
  -8   1  15   19.88    1.18
  -8   1  14   84.34    2.87
  -8   1  14   84.97    2.77
  -8   1  14   88.10    3.01
  -8   1  14   88.20    3.03
  -8   1  13   93.64    3.39
  -8   1  13   97.98    3.23
  -8   1  13   97.39    3.50
  -8   1  13   98.82    3.54
  -8   1  12  241.12    5.81
  -8   1  12  238.81    5.80
  -8   1  11  206.07    5.56
  -8   1  11  217.99    5.11
   8   1 -11  214.90    5.48
  -8   1  11  210.55    5.60
  -8   1  10 1063.41   13.42
  -8   1  10 1018.81   12.16
   8   1  -9 1550.26   16.42
  -8   1   9 1552.18   16.71
  -8   1   9 1562.58   15.36
   8   1  -8  193.18    5.44
  -8   1   8  190.44    5.18
  -8   1   8  186.88    4.53
   8   1  -7  928.53   13.03
  -8   1   7  921.04   11.95
  -8   1   7  942.27   12.09
  -8   1   7  903.13   10.68
   8   1  -6  287.61    6.97
  -8   1   6  279.92    6.10
  -8   1   6  280.47    5.32
  -8   1   6  282.17    6.21
  -8   1   5  130.73    4.11
   8   1  -5  123.12    4.43
  -8   1   5  127.56    3.98
  -8   1   4  352.37    6.63
  -8   1   4  355.43    6.85
  -8   1   3  398.20    7.00
  -8   1   3  404.27    7.30
  -8   1   2 1275.83   13.59
  -8   1   2 1286.65   14.21
  -8   1   1 1155.86   12.74
   8   1   0 1233.46   14.89
  -8   1   0 1271.49   13.75
   8   1   1   49.67    2.86
  -8   1  -1   47.98    2.67
  -8   1  -1   51.51    2.58
   8   1   2  879.77   13.13
  -8   1  -2  873.26   11.54
  -8   1  -2  871.38   12.11
  -8   1  -2  844.41   11.23
   8   1   3  649.37   11.48
  -8   1  -3  674.02   10.14
  -8   1  -3  666.80   10.54
   8   1   3  651.38   10.31
   8   1   4  103.58    4.66
  -8   1  -4  106.76    3.96
   8   1   4  102.49    4.06
  -8   1  -4   98.56    3.96
  -8   1  -4   99.53    3.58
   8   1   5    4.68    1.16
  -8   1  -5    3.69    0.88
   8   1   5    6.55    1.12
  -8   1  -5    3.98    0.94
  -8   1  -5    3.70    0.74
   8   1   6   70.30    4.00
  -8   1  -6   69.67    3.27
   8   1   6   73.11    3.42
  -8   1  -6   72.20    3.32
   8   1   7   91.63    4.59
  -8   1  -7   94.39    3.77
   8   1   7   89.23    3.65
  -8   1  -7   92.84    3.69
   8   1   8   67.39    3.83
  -8   1  -8   69.48    3.15
  -8   1  -8   65.66    2.91
   8   1   9   25.23    2.30
  -8   1  -9   24.82    1.81
   8   1  10   28.18    2.25
  -8   1 -10   28.35    1.77
  -8   1 -11   78.30    2.51
   8   2 -14   57.69    2.16
  -8   2  13  134.19    3.20
  -8   2  13  142.97    3.53
  -8   2  13  147.88    4.02
   8   2 -13  145.03    4.28
  -8   2  12   39.17    1.87
  -8   2  12   39.46    2.05
   8   2 -12   42.32    2.20
  -8   2  12   40.28    2.26
  -8   2  11   18.93    1.53
   8   2 -11   17.72    1.68
  -8   2  11   16.18    1.53
  -8   2  10    3.06    0.71
   8   2 -10    3.32    0.88
  -8   2  10    3.57    0.82
  -8   2   9  238.20    6.04
   8   2  -9  258.39    6.72
   8   2  -9  242.90    4.89
   8   2  -9  261.69    6.99
  -8   2   9  264.22    6.01
  -8   2   8   37.71    2.37
   8   2  -8   43.48    2.84
   8   2  -8   36.41    1.91
   8   2  -7  309.83    7.78
   8   2  -7  296.55    5.75
   8   2  -6  257.01    7.09
  -8   2   6  250.37    5.62
   8   2  -6  251.29    5.50
   8   2  -5   39.09    2.80
   8   2  -5   42.82    2.31
  -8   2   5   42.27    2.28
   8   2  -4    7.90    1.36
   8   2  -4    7.43    1.08
  -8   2   4    8.08    1.03
  -8   2   3  137.10    4.02
   8   2  -3  121.38    4.07
  -8   2   2  168.73    4.51
   8   2  -2  152.63    4.87
   8   2  -1  450.04    9.57
  -8   2   1  453.85    7.65
  -8   2   1  469.56    8.57
   8   2  -1  443.20    8.80
   8   2   0  239.05    6.96
  -8   2   0  237.74    6.08
   8   2   0  229.25    6.47
   8   2   1  523.96   10.30
  -8   2  -1  562.72    9.53
   8   2   2  601.21   11.46
   8   2   3  287.25    8.05
  -8   2  -3  274.37    6.01
   8   2   4  977.00   15.65
  -8   2  -4  936.29   11.91
  -8   2  -4  940.91   12.86
   8   2   5  103.70    5.07
   8   2   5   97.53    4.27
  -8   2  -5  112.69    3.85
  -8   2  -5  109.53    4.15
   8   2   6  482.88   10.91
  -8   2  -6  478.98    8.09
  -8   2  -6  476.64    8.69
   8   2   7  395.64    9.67
  -8   2  -7  389.73    7.04
  -8   2  -7  393.26    7.56
   8   2   8  450.76    9.78
  -8   2  -8  431.44    7.02
  -8   2  -8  426.86    7.53
  -8   2  -9  644.04    8.06
  -8   2  -9  654.00    8.69
  -8   2 -10  532.09    6.24
   8   2  11  522.10    7.60
   8   3 -13  215.44    4.54
   8   3 -12  258.17    5.79
   8   3 -11  285.56    6.17
   8   3 -10  702.48   10.96
  -8   3  10  675.19    9.50
   8   3  -9  364.60    8.26
  -8   3   9  366.05    6.97
   8   3  -8  463.78    9.59
   8   3  -8  464.82    9.80
  -8   3   8  479.10    8.31
   8   3  -7  103.92    4.62
   8   3  -7   98.53    3.48
  -8   3   7  104.41    3.80
   8   3  -6  420.49    9.65
   8   3  -6  415.18    7.72
   8   3  -6  438.97    9.80
   8   3  -5  366.70    9.06
   8   3  -5  369.04    7.40
   8   3  -4  665.89   10.56
   8   3  -4  629.46   10.17
   8   3  -3  134.25    5.55
   8   3  -3  131.23    4.63
   8   3  -3  127.65    4.55
   8   3  -2  413.86    9.93
   8   3  -2  394.40    8.44
  -8   3   1  681.02   10.37
   8   3  -1  660.99   11.66
   8   3   0  430.93   10.47
  -8   3   0  431.52    8.17
   8   3   0  448.63    9.68
   8   3   1  138.02    5.85
  -8   3  -1  133.56    4.56
   8   3   1  146.43    5.57
  -8   3  -2  394.96    7.73
   8   3   2  391.16    9.35
  -8   3  -3  294.15    6.76
   8   3   3  296.48    8.30
  -8   3  -4  189.85    5.33
   8   3   4  197.59    6.79
   8   3   5  233.96    7.26
  -8   3  -6   70.55    3.07
   8   3   6   71.08    3.91
  -8   3  -7   14.62    1.39
  -8   3  -8   61.93    2.53
  -8   3  -9   43.09    1.84
   8   3   9   45.82    2.43
   8   4 -11   12.63    1.10
   8   4 -10   60.66    2.64
   8   4  -9   14.73    1.11
   8   4  -9   14.46    1.47
   8   4  -8  234.72    4.72
   8   4  -8  237.71    6.17
   8   4  -7  153.08    4.05
   8   4  -7  156.28    5.14
   8   4  -6   14.85    1.40
   8   4  -6   15.92    1.76
   8   4  -6   14.03    1.24
   8   4  -5   43.82    3.03
   8   4  -5   44.86    2.48
   8   4  -5   46.86    3.07
   8   4  -5   40.47    2.28
   8   4  -4  179.43    6.22
   8   4  -4  174.59    5.03
   8   4  -4  177.85    6.07
   8   4  -4  164.06    4.87
   8   4  -3  100.15    4.77
   8   4  -3  102.13    3.96
   8   4  -3   93.24    4.42
   8   4  -3   96.23    3.89
   8   4  -2  455.92   10.29
   8   4  -2  437.24    8.58
   8   4  -2  433.37    8.73
   8   4  -1   36.58    2.91
   8   4  -1   31.81    2.34
   8   4  -1   36.99    2.56
   8   4   0  394.61    9.45
  -8   4   0  393.36    6.93
  -8   4  -1  252.46    5.59
   8   4   1  267.16    7.05
   8   4   2    2.15    0.72
  -8   4  -2    3.60    0.78
  -8   4  -3  110.97    3.62
   8   4   3  119.04    4.68
  -8   4  -4  366.41    6.64
   8   4   4  384.12    8.37
  -8   4  -5  542.76    7.86
   8   4   5  440.97    8.76
  -8   4  -6  208.60    4.51
   8   4   7  448.85    7.43
   8   5  -7   11.24    0.84
   8   5  -6  256.31    4.24
   8   5  -6  194.36    3.22
   8   5  -5  357.49    5.48
   8   5  -5  308.62    4.82
   8   5  -4  625.85    7.86
   8   5  -4  574.91    7.43
   8   5  -3    1.31    0.53
   8   5  -2   63.67    2.61
   8   5  -1   14.32    1.32
   8   5   0   24.87    1.71
   8   5   1   60.82    2.50
   8   5   1   67.58    2.78
   8   5   2  122.61    3.43
   8   5   2  121.09    3.65
   8   5   3  164.47    3.76
   8   5   3  159.95    4.04
   8   5   4   47.75    1.86
  -9  -5   6   21.49    1.01
  -9  -5   5  162.38    3.08
  -9  -5   5  178.98    3.14
  -9  -5   4   67.19    2.09
  -9  -5   4   70.78    1.89
  -9  -5   3    0.85    0.31
  -9  -5   3    0.73    0.35
  -9  -5   2   70.85    2.08
  -9  -5   1   40.65    1.59
  -9  -5   0   70.60    2.07
  -9  -5  -1   43.21    1.56
  -9  -5  -1   47.46    1.69
  -9  -4  10  152.52    2.82
  -9  -4  10  151.71    3.19
  -9  -4  10  142.73    2.70
  -9  -4   9  117.72    2.79
  -9  -4   9  116.71    2.75
  -9  -4   8  388.99    5.69
  -9  -4   8  383.53    5.27
  -9  -4   7  222.06    4.63
  -9  -4   7  228.18    4.58
  -9  -4   7  214.73    4.16
  -9  -4   6  117.40    3.63
  -9  -4   6  119.60    3.47
  -9  -4   5  192.61    4.63
  -9  -4   5  182.16    4.48
  -9  -4   5  183.48    4.75
  -9  -4   4   96.64    3.04
  -9  -4   4  109.90    3.58
  -9  -4   4  104.55    3.47
  -9  -4   4  105.01    3.59
  -9  -4   3  201.35    4.59
  -9  -4   3  208.81    5.10
  -9  -4   3  209.76    5.10
  -9  -4   3  206.36    5.17
  -9  -4   2  145.19    3.91
  -9  -4   2  139.11    4.18
  -9  -4   1  584.87    8.38
  -9  -4   1  622.00    9.29
  -9  -4   0  279.75    5.59
  -9  -4   0  293.86    6.18
  -9  -4   0  291.34    5.48
  -9  -4  -1  225.07    4.92
  -9  -4  -1  233.15    5.43
  -9  -4  -1  233.87    4.89
   9  -4   2   42.71    2.08
  -9  -4  -2   43.20    2.08
  -9  -4  -2   46.00    2.12
   9  -4   3   24.73    1.58
  -9  -4  -3   22.32    1.43
  -9  -4  -3   25.96    1.57
   9  -4   4   34.74    1.80
  -9  -4  -4   32.63    1.64
  -9  -4  -5   39.90    1.68
  -9  -4  -6   20.17    1.06
  -9  -3  12   95.54    2.36
  -9  -3  12   96.03    2.46
  -9  -3  11  214.51    3.90
  -9  -3  11  213.18    4.24
  -9  -3  11  220.72    4.42
  -9  -3  11  221.18    4.28
  -9  -3  10  290.69    5.00
  -9  -3  10  291.90    5.60
  -9  -3  10  293.84    5.32
  -9  -3   9   43.27    2.05
  -9  -3   9   45.23    2.33
  -9  -3   9   45.45    2.20
  -9  -3   9   42.04    1.76
  -9  -3   8   54.76    2.46
  -9  -3   8   54.62    2.70
  -9  -3   8   55.89    2.55
  -9  -3   8   53.95    2.51
  -9  -3   8   53.46    2.15
  -9  -3   7  117.66    3.87
  -9  -3   7  115.00    4.02
  -9  -3   7  118.26    3.88
  -9  -3   6  242.19    6.09
  -9  -3   6  242.65    6.05
  -9  -3   6  251.04    6.01
  -9  -3   5   39.76    2.53
  -9  -3   5   40.12    2.52
  -9  -3   5   36.52    2.36
  -9  -3   4  339.85    7.46
  -9  -3   4  328.76    7.45
  -9  -3   4  339.67    7.23
  -9  -3   3   76.16    3.55
  -9  -3   3   75.26    3.49
  -9  -3   3   76.90    3.57
  -9  -3   2  115.78    4.43
  -9  -3   2  119.24    4.45
  -9  -3   2  114.46    3.94
   9  -3  -1  294.68    6.32
  -9  -3   1  309.85    7.21
  -9  -3   1  309.40    6.67
   9  -3   0  320.73    6.82
  -9  -3   0  332.37    7.46
  -9  -3   0  325.41    6.78
  -9  -3   0  335.35    7.21
   9  -3   1   93.59    3.69
  -9  -3  -1   98.56    4.07
  -9  -3  -1   98.07    3.66
  -9  -3  -1   94.28    3.76
   9  -3   2  291.23    6.63
  -9  -3  -2  309.11    7.24
   9  -3   2  283.07    5.41
  -9  -3  -2  300.76    6.47
  -9  -3  -2  299.74    6.81
   9  -3   3  623.17    9.77
   9  -3   3  602.26    8.33
  -9  -3  -3  620.51    9.90
   9  -3   4   33.69    2.22
   9  -3   4   35.59    1.92
  -9  -3  -4   34.41    2.20
   9  -3   5  398.48    6.53
  -9  -3  -5  391.12    6.75
  -9  -3  -5  391.82    7.34
   9  -3   6  316.66    5.52
  -9  -3  -6  306.37    5.52
  -9  -3  -6  306.48    6.12
   9  -3   7  549.61    7.01
  -9  -3  -7  557.21    7.10
  -9  -3  -7  536.47    7.66
   9  -3   8  171.35    3.24
  -9  -3  -8  180.99    3.33
  -9  -3  -8  175.99    3.69
  -9  -2  14  268.61    4.35
  -9  -2  14  272.22    4.10
  -9  -2  13  193.20    3.66
  -9  -2  13  202.86    4.38
  -9  -2  13  189.82    3.85
  -9  -2  12  549.81    8.19
  -9  -2  12  557.23    7.45
  -9  -2  11  353.34    5.52
  -9  -2  11  353.44    5.85
  -9  -2  10  149.90    3.70
  -9  -2  10  159.66    4.82
  -9  -2  10  160.41    4.36
  -9  -2   9  412.51    6.70
  -9  -2   9  431.96    8.33
  -9  -2   9  408.19    7.35
  -9  -2   9  431.61    7.68
  -9  -2   8   94.89    3.26
  -9  -2   8  102.46    4.09
  -9  -2   8   97.08    3.54
  -9  -2   8   98.10    3.51
  -9  -2   7  425.29    7.44
  -9  -2   7  448.63    8.80
  -9  -2   7  440.21    7.94
  -9  -2   7  438.64    7.74
  -9  -2   6  281.05    6.22
  -9  -2   6  299.09    7.16
  -9  -2   6  306.35    6.68
  -9  -2   6  297.60    6.54
  -9  -2   5  791.78   12.15
  -9  -2   5  780.79   11.02
  -9  -2   5  785.02   11.26
  -9  -2   5  785.83   11.02
  -9  -2   4  521.78    9.90
  -9  -2   4  508.47    9.03
  -9  -2   4  522.37    8.80
  -9  -2   4  525.42    8.66
  -9  -2   3 1172.57   13.68
  -9  -2   3 1189.09   15.33
  -9  -2   3 1164.77   14.32
  -9  -2   3 1144.35   13.72
  -9  -2   2  368.93    8.30
  -9  -2   2  381.85    7.43
  -9  -2   2  379.90    7.55
  -9  -2   1  322.49    6.84
  -9  -2   1  320.83    7.84
  -9  -2   1  337.44    7.65
   9  -2   0  425.02    8.34
  -9  -2   0  442.92    9.36
  -9  -2   0  432.60    8.04
   9  -2   0  423.11    7.52
   9  -2   1  906.17   12.93
   9  -2   1  905.92   11.96
  -9  -2  -1  965.23   12.58
  -9  -2  -1  989.17   13.75
   9  -2   2  470.93    9.20
   9  -2   2  475.07    8.42
  -9  -2  -2  489.12    8.61
  -9  -2  -2  490.65    9.51
   9  -2   3  122.97    4.64
   9  -2   3  129.80    4.33
  -9  -2  -3  124.16    4.17
  -9  -2  -3  115.58    4.56
   9  -2   4  187.24    5.23
  -9  -2  -4  184.57    4.98
   9  -2   5  353.75    7.62
   9  -2   5  356.06    7.26
  -9  -2  -5  359.39    6.84
   9  -2   6  228.49    5.82
   9  -2   6  228.00    5.56
  -9  -2  -6  215.84    5.00
   9  -2   7   79.09    3.08
  -9  -2  -7   74.32    2.71
  -9  -2  -7   75.85    3.16
   9  -2   8    4.52    0.80
  -9  -2  -8    2.65    0.55
  -9  -2  -8    3.25    0.70
   9  -2   9  219.53    4.32
  -9  -2  -9  214.84    4.38
  -9  -1  15   58.90    1.79
  -9  -1  14  324.43    5.13
  -9  -1  14  302.53    4.48
  -9  -1  13   78.67    2.69
  -9  -1  13   82.12    2.91
  -9  -1  13   75.45    2.51
  -9  -1  12   20.09    1.45
  -9  -1  12   18.29    1.42
  -9  -1  12   18.61    1.55
  -9  -1  11    2.15    0.69
  -9  -1  11    1.92    0.64
  -9  -1  10  284.31    6.58
  -9  -1  10  270.86    5.91
  -9  -1   9   20.96    1.96
  -9  -1   9   30.62    1.96
  -9  -1   8   20.24    1.89
  -9  -1   8   22.98    1.76
  -9  -1   7  628.58    9.94
  -9  -1   7  607.43   10.42
  -9  -1   7  641.89    9.44
  -9  -1   7  623.55   10.12
  -9  -1   7  616.73    8.82
  -9  -1   6   53.83    2.98
  -9  -1   6   57.50    2.72
  -9  -1   6   56.80    2.95
  -9  -1   6   54.38    2.88
  -9  -1   6   55.31    2.49
  -9  -1   5   12.99    1.52
  -9  -1   5    5.04    0.88
  -9  -1   5    5.16    0.99
  -9  -1   5    5.87    0.89
  -9  -1   5   11.33    1.33
  -9  -1   4  126.46    4.23
  -9  -1   4  121.18    4.47
  -9  -1   4  120.84    3.93
  -9  -1   4  134.00    4.55
  -9  -1   4  121.42    3.71
  -9  -1   3  288.22    6.53
  -9  -1   3  282.34    6.94
  -9  -1   3  275.47    5.91
  -9  -1   3  282.89    6.57
  -9  -1   3  278.90    5.62
  -9  -1   2  573.24    9.45
  -9  -1   2  565.44   10.04
  -9  -1   2  540.61    8.51
  -9  -1   2  551.41    8.89
  -9  -1   1  506.81    9.79
  -9  -1   1  496.52    8.41
   9  -1   0  234.70    5.84
  -9  -1   0  244.86    5.74
  -9  -1   0  234.36    6.28
   9  -1   1  317.04    7.04
  -9  -1  -1  310.09    6.52
  -9  -1  -1  325.89    7.49
  -9  -1  -2  166.93    4.99
   9  -1   2  164.44    5.06
  -9  -1  -2  159.80    4.59
  -9  -1  -2  163.89    5.30
  -9  -1  -3  489.25    8.96
   9  -1   3  506.45    9.11
  -9  -1  -3  495.44    9.31
  -9  -1  -4  125.35    4.42
   9  -1   4  123.52    4.48
  -9  -1  -4  123.95    3.95
  -9  -1  -4  123.58    4.55
   9  -1   5  613.89   10.23
  -9  -1  -5  600.43    8.96
  -9  -1  -5  594.35   10.24
  -9  -1  -6  911.48   11.00
  -9  -1  -6  934.15   12.76
  -9  -1  -7  589.16    9.18
  -9  -1  -7  556.22    7.74
  -9  -1  -7  576.15    9.33
   9  -1   8  885.96   11.43
  -9  -1  -8  900.08   11.33
   9  -1   9  394.78    7.03
  -9  -1  -9  401.48    6.42
   9  -1   9  389.74    6.53
  -9  -1  -9  387.17    6.35
   9  -1  10  298.78    5.26
  -9  -1 -10  298.43    4.74
   9  -1  10  295.20    4.86
  -9   0  15  109.67    2.69
  -9   0  15  102.05    2.44
  -9   0  14  232.58    4.75
  -9   0  14  236.29    4.47
  -9   0  13  423.40    7.21
  -9   0  13  415.10    6.52
  -9   0  13  407.82    6.65
  -9   0  12  212.03    5.07
  -9   0  12  210.93    5.32
  -9   0  12  205.84    4.76
  -9   0  11   87.80    3.59
  -9   0  11   93.15    3.24
  -9   0  10  508.12    9.08
  -9   0  10  493.54    7.88
  -9   0   9  222.51    5.89
  -9   0   9  212.88    5.04
  -9   0   8  609.73   10.13
  -9   0   8  595.11    8.68
   9   0  -7    1.29    0.54
  -9   0   7    1.54    0.70
   9   0  -6  137.56    4.45
  -9   0   6  140.41    4.73
  -9   0   6  141.40    3.93
  -9   0   5 1502.25   16.91
  -9   0   5 1511.61   14.54
  -9   0   5 1504.79   15.99
  -9   0   4  247.31    6.15
  -9   0   4  250.58    5.13
  -9   0   4  250.20    5.81
  -9   0   3 3252.78   27.41
  -9   0   3 3239.68   26.42
  -9   0   2  220.84    5.75
  -9   0   2  221.34    5.36
  -9   0   1  273.47    6.60
  -9   0   1  271.36    5.95
  -9   0   0  167.66    4.50
  -9   0   0  169.61    5.06
   9   0   1  540.86    9.23
  -9   0  -1  536.41    8.35
  -9   0  -1  545.94    9.38
   9   0   2  139.09    4.55
  -9   0  -2  143.10    4.13
  -9   0  -2  139.50    4.59
   9   0   3  196.37    5.69
  -9   0  -3  206.96    4.91
  -9   0  -3  189.93    5.41
   9   0   4  153.72    5.23
   9   0   4  150.37    4.97
  -9   0  -4  153.16    4.09
  -9   0  -4  153.54    4.79
   9   0   5  368.48    8.38
   9   0   5  365.59    7.80
  -9   0  -5  348.24    7.36
   9   0   6  510.05   10.01
   9   0   6  505.77    9.11
  -9   0  -6  495.31    8.61
   9   0   7    2.21    0.82
   9   0   7    2.84    0.80
  -9   0  -7    3.00    0.72
   9   0   8    4.42    0.98
   9   0   8    5.78    0.97
  -9   0  -8    4.29    0.73
   9   0   9   12.53    1.37
   9   0  10   25.38    1.71
  -9   1  14  344.08    5.37
  -9   1  14  345.59    5.55
  -9   1  13   78.59    2.70
  -9   1  13   73.96    2.42
  -9   1  13   83.17    2.90
  -9   1  12   18.11    1.46
  -9   1  12   18.11    1.51
  -9   1  11    0.49    0.50
  -9   1  11    0.39    0.51
  -9   1  11    1.28    0.56
   9   1 -11    0.83    0.47
  -9   1  10  261.63    6.21
  -9   1  10  250.23    5.81
  -9   1  10  248.01    5.17
   9   1  -9   28.76    1.95
  -9   1   9   29.46    1.76
   9   1  -8   14.63    1.52
  -9   1   8   15.53    1.48
  -9   1   8   14.78    1.25
   9   1  -7  604.27   10.46
  -9   1   7  630.53    9.81
  -9   1   7  613.14    9.56
   9   1  -6   49.85    2.96
  -9   1   6   51.73    2.60
  -9   1   6   48.45    2.65
   9   1  -5    8.60    1.29
  -9   1   5   10.01    1.19
  -9   1   5    8.15    1.16
   9   1  -4  124.49    4.67
  -9   1   4  120.96    4.12
  -9   1   4  123.07    3.96
  -9   1   3  287.66    6.40
  -9   1   3  286.64    6.10
  -9   1   2  520.06    8.42
  -9   1   2  531.86    8.96
  -9   1   1  558.29    8.70
  -9   1   0  217.68    5.28
   9   1   1  305.10    7.17
  -9   1  -1  319.18    6.54
   9   1   2  192.60    5.85
  -9   1  -2  193.02    5.27
  -9   1  -2  192.62    5.05
   9   1   3  435.64    9.32
  -9   1  -3  440.45    8.25
   9   1   4  110.09    4.70
  -9   1  -4  109.66    4.07
  -9   1  -4  107.78    3.68
   9   1   5  635.80   11.67
  -9   1  -5  623.83    9.97
   9   1   6  960.87   14.58
  -9   1  -6  971.90   12.52
   9   1   7  596.39   10.95
  -9   1  -7  610.20    9.29
   9   1   8  906.14   13.19
  -9   1  -8  932.29   11.22
   9   1   9  384.54    7.63
  -9   1  -9  393.40    6.33
   9   1  10  323.63    6.08
  -9   1 -10  309.56    4.77
  -9   2  13  191.76    3.56
   9   2 -13  207.85    4.50
  -9   2  12  527.91    7.05
  -9   2  12  537.87    7.73
  -9   2  11  386.65    6.46
   9   2 -11  371.36    7.05
  -9   2  11  381.52    6.80
   9   2 -10  169.62    5.12
  -9   2  10  162.34    4.25
  -9   2  10  165.99    4.55
  -9   2   9  456.90    7.91
   9   2  -9  452.09    8.55
   9   2  -9  455.24    9.08
  -9   2   9  463.98    7.77
  -9   2   8   64.54    2.91
   9   2  -8   58.14    3.17
   9   2  -7  458.73    9.38
   9   2  -7  434.70    6.63
   9   2  -6  277.27    7.29
  -9   2   6  274.66    5.88
   9   2  -6  265.34    5.26
   9   2  -5  810.73   13.09
   9   2  -5  796.70   10.10
  -9   2   5  802.61   10.68
   9   2  -4  554.33   10.82
   9   2  -4  563.26    8.64
  -9   2   4  565.80    8.78
  -9   2   3 1148.21   13.11
   9   2  -3 1095.25   13.18
  -9   2   2  333.92    6.66
   9   2  -1  282.43    7.74
  -9   2   1  284.22    6.13
   9   2  -1  267.75    6.62
  -9   2   0  490.46    8.31
   9   2   0  487.22    9.37
   9   2   1  839.08   13.81
  -9   2  -1  847.84   12.51
   9   2   1  821.77   12.92
   9   2   2  476.60    9.83
   9   2   2  492.95   10.21
   9   2   3  148.64    5.47
   9   2   3  138.67    5.26
   9   2   4  185.59    6.17
   9   2   4  168.48    5.61
  -9   2  -4  179.37    5.41
   9   2   5  267.33    6.66
  -9   2  -5  280.98    6.67
   9   2   6  250.61    6.99
  -9   2  -6  241.86    5.79
   9   2   7   82.06    3.78
  -9   2  -7   80.40    3.07
   9   2   8    3.10    0.85
   9   2   9  187.98    4.71
   9   3 -13   63.05    1.99
   9   3 -12   97.28    3.03
   9   3 -11  192.63    4.49
   9   3 -10  243.85    5.65
   9   3  -9   43.81    1.80
   9   3  -9   42.67    2.61
  -9   3   9   49.02    2.21
   9   3  -8   59.85    3.15
   9   3  -8   54.48    2.19
   9   3  -8   55.82    3.08
  -9   3   8   62.72    2.57
   9   3  -7  115.76    4.58
   9   3  -7  113.60    3.37
   9   3  -6  200.12    6.26
   9   3  -6  201.01    4.74
   9   3  -6  214.72    6.42
   9   3  -5   44.29    3.01
   9   3  -5   45.43    2.39
   9   3  -4  335.76    6.83
   9   3  -3   62.03    3.68
   9   3  -3   61.61    3.01
   9   3  -3   58.55    2.86
   9   3  -2   87.11    4.35
   9   3  -2   79.95    3.44
   9   3  -1  355.27    8.85
   9   3  -1  339.21    7.49
   9   3   0  303.39    8.22
   9   3   0  290.80    7.18
   9   3   1   81.38    4.15
  -9   3  -1   80.39    3.42
   9   3   1   80.66    3.85
   9   3   2  299.45    7.79
  -9   3  -2  307.72    6.75
   9   3   2  306.97    7.68
  -9   3  -3  609.33    9.69
   9   3   3  623.12   11.19
  -9   3  -4   43.15    2.48
   9   3   4   52.44    3.11
   9   3   5  379.04    8.12
  -9   3  -6  328.77    6.18
   9   3   6  333.86    7.21
   9   3   7  506.70    8.38
   9   3   8  205.36    4.56
   9   4 -10  145.42    3.41
   9   4  -9  124.03    3.48
   9   4  -8  390.59    6.77
   9   4  -8  380.45    6.80
   9   4  -7  191.36    3.89
   9   4  -7  199.06    5.13
   9   4  -6  118.84    3.26
   9   4  -6  123.52    4.18
   9   4  -5  201.82    4.50
   9   4  -5  204.91    5.60
   9   4  -4   80.62    3.74
   9   4  -4   85.71    3.08
   9   4  -4   84.24    3.61
   9   4  -4   75.25    2.74
   9   4  -3  235.00    6.53
   9   4  -3  230.44    5.26
   9   4  -3  219.05    5.85
   9   4  -3  209.76    4.95
   9   4  -2  149.58    5.22
   9   4  -2  150.40    4.32
   9   4  -2  137.34    4.42
   9   4  -2  135.24    4.16
   9   4  -1  610.46   10.77
   9   4  -1  603.33    9.13
   9   4   0  273.49    6.88
   9   4   0  280.52    6.10
   9   4   0  272.17    6.13
   9   4   1  168.15    5.00
   9   4   1  179.70    5.00
   9   4   2   61.42    2.91
   9   4   3   26.56    1.89
   9   4   4   34.99    2.05
   9   4   5   43.38    2.09
   9   4   6   20.35    1.27
   9   5  -5  154.12    2.76
   9   5  -4   72.17    2.00
   9   5  -3    0.62    0.33
   9   5  -2   72.28    2.14
   9   5  -1   42.15    1.66
   9   5  -1   39.47    1.56
   9   5   0   59.42    1.95
   9   5   0   53.85    1.86
   9   5   1   55.59    1.82
 -10  -4   8    1.31    0.32
 -10  -4   8    1.28    0.33
 -10  -4   7   34.71    1.42
 -10  -4   7   35.31    1.49
 -10  -4   6  174.89    3.56
 -10  -4   6  177.43    3.66
 -10  -4   6  185.32    3.69
 -10  -4   5  150.73    3.47
 -10  -4   5  149.39    3.50
 -10  -4   5  150.02    3.52
 -10  -4   4   59.12    2.27
 -10  -4   4   63.88    2.34
 -10  -4   4   64.46    2.38
 -10  -4   3   59.60    2.33
 -10  -4   3   59.48    2.33
 -10  -4   2  136.15    3.58
 -10  -4   2  135.08    3.51
 -10  -4   1    7.62    0.79
 -10  -4   1    8.12    0.93
 -10  -4   1    8.23    0.94
 -10  -4   1    8.33    0.91
 -10  -4   0   67.91    2.22
 -10  -4   0   75.05    2.60
 -10  -4   0   74.34    2.62
 -10  -4   0   74.04    2.50
 -10  -4  -1  201.38    4.20
 -10  -4  -1  204.84    4.32
 -10  -4  -2   72.38    2.34
 -10  -4  -2   70.15    2.40
 -10  -4  -3  141.43    3.03
 -10  -4  -3  132.65    3.08
 -10  -3  11  157.95    3.06
 -10  -3  11  172.90    3.22
 -10  -3  10  128.22    2.65
 -10  -3  10  127.17    2.94
 -10  -3  10  132.67    3.21
 -10  -3  10  131.91    3.12
 -10  -3   9   99.66    2.58
 -10  -3   9   98.10    3.02
 -10  -3   8  437.39    6.17
 -10  -3   8  429.24    7.01
 -10  -3   7   45.01    2.05
 -10  -3   7   46.40    2.35
 -10  -3   7   46.13    2.16
 -10  -3   6  473.53    7.29
 -10  -3   6  465.19    7.90
 -10  -3   6  442.05    7.42
 -10  -3   6  465.86    7.91
 -10  -3   6  463.18    7.48
 -10  -3   5  163.49    4.70
 -10  -3   5  167.20    4.62
 -10  -3   5  159.11    4.65
 -10  -3   5  165.44    4.50
 -10  -3   4  410.33    7.80
 -10  -3   4  423.94    7.63
 -10  -3   4  415.99    7.83
 -10  -3   4  437.16    7.59
 -10  -3   3  370.88    7.46
 -10  -3   3  390.47    7.31
 -10  -3   3  362.29    7.41
 -10  -3   3  381.67    7.11
 -10  -3   2  714.98   10.67
 -10  -3   2  741.04   10.44
 -10  -3   2  711.18   10.73
 -10  -3   2  720.60   10.10
 -10  -3   1   66.41    3.12
 -10  -3   1   71.39    3.09
 -10  -3   1   70.31    2.89
 -10  -3   0  114.46    4.03
 -10  -3   0  114.70    3.69
 -10  -3  -1  245.28    5.87
 -10  -3  -1  252.41    5.52
 -10  -3  -2  152.78    4.50
 -10  -3  -3  185.24    4.85
 -10  -3  -3  178.97    4.67
 -10  -3  -4  236.71    5.24
 -10  -3  -4  252.88    4.93
 -10  -3  -4  252.94    5.32
 -10  -3  -5  336.85    5.31
 -10  -3  -5  330.72    5.72
 -10  -3  -6  104.53    2.86
 -10  -3  -6  109.96    2.91
 -10  -2  13  121.24    2.81
 -10  -2  12  130.80    2.81
 -10  -2  12  125.71    3.00
 -10  -2  11  240.09    5.05
 -10  -2  11  230.83    4.50
 -10  -2  11  241.77    4.47
 -10  -2  10   63.35    1.98
 -10  -2  10   67.11    2.86
 -10  -2  10   69.67    2.58
 -10  -2  10   68.23    2.49
 -10  -2   9   93.71    2.61
 -10  -2   9   98.27    3.61
 -10  -2   9   96.60    3.15
 -10  -2   9  100.35    3.28
 -10  -2   8   41.27    2.22
 -10  -2   8   38.48    1.78
 -10  -2   8   40.71    2.46
 -10  -2   8   41.23    2.16
 -10  -2   7   28.47    1.63
 -10  -2   7   32.05    2.27
 -10  -2   7   31.96    1.99
 -10  -2   7   30.41    1.85
 -10  -2   6  219.92    4.78
 -10  -2   6  239.61    6.21
 -10  -2   6  227.40    5.48
 -10  -2   6  225.09    5.14
 -10  -2   5  360.53    7.90
 -10  -2   5  366.09    6.98
 -10  -2   5  379.10    7.26
 -10  -2   5  361.44    7.66
 -10  -2   5  365.35    6.84
 -10  -2   4  369.25    8.10
 -10  -2   4  385.24    7.40
 -10  -2   4  377.83    8.04
 -10  -2   4  372.02    6.97
 -10  -2   4  375.19    7.11
 -10  -2   3   28.94    2.30
 -10  -2   3   30.83    2.09
 -10  -2   3   30.03    2.30
 -10  -2   3   32.25    1.99
 -10  -2   3   31.00    2.02
 -10  -2   2   22.24    1.73
 -10  -2   2   20.74    1.96
 -10  -2   2   25.50    1.91
 -10  -2   2   21.46    1.94
 -10  -2   2   20.20    1.59
 -10  -2   1    2.11    0.66
 -10  -2   1    2.40    0.73
 -10  -2   1    3.22    0.89
 -10  -2   0  177.82    4.80
 -10  -2   0  172.23    4.96
 -10  -2   0  180.42    5.61
 -10  -2  -1   52.98    2.61
 -10  -2  -1   54.01    2.72
 -10  -2  -1   50.10    2.87
 -10  -2  -2  786.23   10.59
 -10  -2  -2  784.89   10.75
 -10  -2  -3  105.65    3.58
  10  -2   3  100.76    3.50
 -10  -2  -3   98.47    3.48
  10  -2   4  398.09    7.07
 -10  -2  -4  419.13    7.03
  10  -2   5  351.44    6.35
 -10  -2  -5  355.56    6.10
  10  -2   6  349.87    6.03
 -10  -2  -6  347.95    5.57
 -10  -2  -6  352.08    6.43
  10  -2   7  347.10    5.53
 -10  -2  -7  336.13    4.78
 -10  -2  -7  352.85    5.88
 -10  -2  -8  200.72    3.98
 -10  -2  -8  216.51    3.92
 -10  -1  14   60.33    1.79
 -10  -1  14   53.42    1.82
 -10  -1  13  147.00    3.57
 -10  -1  13  149.76    3.26
 -10  -1  13  151.84    3.14
 -10  -1  12   11.92    1.03
 -10  -1  12   11.30    1.15
 -10  -1  12   11.75    1.02
 -10  -1  12   14.43    1.22
 -10  -1  11  259.96    5.64
 -10  -1  11  253.23    4.97
 -10  -1  11  265.15    5.47
 -10  -1  10  111.60    3.40
 -10  -1  10  116.24    3.86
 -10  -1   9  180.05    5.13
 -10  -1   9  181.15    4.45
 -10  -1   8  245.27    6.14
 -10  -1   8  229.94    5.15
 -10  -1   7 1165.60   13.79
 -10  -1   7 1142.04   12.77
 -10  -1   6  817.00   12.11
 -10  -1   6  819.06   11.65
 -10  -1   6  777.32   10.30
 -10  -1   6  804.33   11.60
 -10  -1   6  799.16    9.63
 -10  -1   5   87.90    3.82
 -10  -1   5   66.84    2.85
 -10  -1   5   76.84    3.41
 -10  -1   5   75.91    2.69
 -10  -1   5   83.26    3.48
 -10  -1   4 1041.10   13.41
 -10  -1   4 1050.19   14.17
 -10  -1   4 1023.78   12.18
 -10  -1   4 1045.41   13.43
 -10  -1   4  997.66   10.94
 -10  -1   3  111.11    4.42
 -10  -1   3  109.33    3.60
 -10  -1   3  111.74    4.15
 -10  -1   3  111.32    4.15
 -10  -1   2  527.61    9.18
 -10  -1   2  534.68    9.82
 -10  -1   2  512.76    9.12
 -10  -1   1  348.27    8.01
 -10  -1   1  327.56    6.21
 -10  -1   1  331.24    7.24
 -10  -1   1  345.68    7.44
 -10  -1   0 1533.64   18.28
 -10  -1   0 1431.33   14.44
 -10  -1   0 1505.89   16.98
 -10  -1   0 1485.33   15.57
 -10  -1   0 1452.69   17.50
 -10  -1  -1  136.56    5.14
 -10  -1  -1  129.15    3.69
 -10  -1  -1  134.54    4.14
 -10  -1  -1  138.26    4.83
  10  -1   2  415.70    7.99
 -10  -1  -2  429.48    7.52
 -10  -1  -2  429.73    8.57
  10  -1   3  342.79    7.32
 -10  -1  -3  356.74    6.69
 -10  -1  -3  350.99    7.58
  10  -1   4   63.76    3.05
 -10  -1  -4   65.84    2.72
 -10  -1  -4   62.97    3.10
  10  -1   5  154.51    4.56
 -10  -1  -5  158.54    4.01
 -10  -1  -5  149.52    4.58
 -10  -1  -6  104.91    2.92
 -10  -1  -6  103.75    3.59
 -10  -1  -7   66.86    2.65
 -10  -1  -8   47.30    1.94
 -10   0  14   25.92    1.28
 -10   0  14   27.14    1.24
 -10   0  13   23.40    1.44
 -10   0  13   21.09    1.30
 -10   0  12   26.50    1.63
 -10   0  12   26.20    1.68
 -10   0  12   25.00    1.44
 -10   0  11  130.62    3.97
 -10   0  11  130.53    3.45
 -10   0  10  475.62    8.12
 -10   0  10  456.14    7.00
 -10   0   9    8.72    1.19
 -10   0   9    8.07    0.95
 -10   0   8  640.87   10.09
 -10   0   8  628.97    8.51
  10   0  -7   16.71    1.50
 -10   0   7   15.92    1.60
 -10   0   7   18.12    1.37
  10   0  -6    1.29    0.57
 -10   0   6    0.55    0.55
 -10   0   6    0.71    0.39
 -10   0   5  242.35    6.10
 -10   0   5  235.84    4.85
 -10   0   5  235.88    5.66
 -10   0   4  189.58    5.45
 -10   0   4  185.67    4.96
 -10   0   3   40.07    2.53
 -10   0   3   41.07    2.30
 -10   0   2  345.71    7.52
 -10   0   2  353.95    6.85
 -10   0   1   58.79    3.00
 -10   0   1   61.06    2.76
 -10   0   0  230.73    5.99
 -10   0   0  220.49    5.23
 -10   0  -1    6.19    1.07
 -10   0  -1    6.11    0.90
 -10   0  -2 1040.50   13.48
 -10   0  -3  293.35    6.65
  10   0   4  746.40   10.97
 -10   0  -4  720.96   10.62
  10   0   5  541.13    9.18
 -10   0  -5  553.04    8.70
  10   0   6  537.70    8.91
 -10   0  -6  547.95    8.13
  10   0   7  313.62    6.38
  10   0   8   75.35    2.77
 -10   1  14   41.03    1.44
 -10   1  13  130.84    2.81
 -10   1  13  160.06    3.49
 -10   1  12    9.40    0.90
 -10   1  12   11.66    1.10
 -10   1  12    9.68    1.02
 -10   1  11  257.58    5.49
 -10   1  11  259.31    5.09
  10   1 -11  248.06    5.10
 -10   1  11  261.28    5.37
 -10   1  10  120.16    3.83
 -10   1  10  108.84    3.40
 -10   1  10  116.31    3.83
 -10   1   9  157.91    4.27
  10   1  -8  194.52    5.26
 -10   1   8  208.24    5.03
  10   1  -7 1089.01   14.06
 -10   1   7 1097.40   13.30
 -10   1   7 1107.96   12.77
  10   1  -6  827.95   12.47
 -10   1   6  846.87   10.97
 -10   1   6  830.41   11.61
  10   1  -5   63.16    3.36
 -10   1   5   62.80    2.81
 -10   1   5   65.10    3.03
  10   1  -4 1035.69   14.49
 -10   1   4 1029.19   13.03
 -10   1   4 1030.44   12.42
  10   1  -3  134.61    4.98
 -10   1   3  141.51    4.20
 -10   1   3  146.62    4.60
 -10   1   2  479.68    8.51
 -10   1   2  461.88    7.79
 -10   1   1  331.35    6.54
 -10   1   1  334.01    7.15
 -10   1   0 1538.57   16.77
 -10   1   0 1439.16   15.13
 -10   1  -1  147.45    4.19
  10   1   2  427.98    8.22
  10   1   3  308.31    7.09
  10   1   4   58.30    3.08
  10   1   5  149.61    4.88
  10   1   6  105.91    3.98
  10   1   7   53.72    2.67
  10   1   8   48.97    2.26
 -10   2  12  104.33    2.43
  10   2 -12   96.94    2.45
 -10   2  11  230.52    4.25
  10   2 -11  220.87    4.73
 -10   2  11  225.19    4.57
 -10   2  10   62.83    2.31
  10   2 -10   66.11    2.90
 -10   2  10   65.98    2.58
 -10   2   9  120.73    3.59
  10   2  -9  115.01    3.80
  10   2  -9  113.29    4.11
 -10   2   9  121.25    3.51
 -10   2   8   42.15    2.19
  10   2  -8   41.48    2.49
 -10   2   8   41.08    2.15
 -10   2   7   38.24    2.12
  10   2  -7   37.23    2.52
  10   2  -6  191.84    5.87
  10   2  -5  405.99    8.89
 -10   2   5  419.03    7.25
  10   2  -4  318.34    8.06
 -10   2   4  333.93    6.51
  10   2  -3   35.61    2.72
 -10   2   3   42.95    2.29
 -10   2   2   18.62    1.55
  10   2  -2   17.82    1.47
  10   2  -1    6.82    1.28
 -10   2   1    6.05    0.94
  10   2   0  171.12    5.88
 -10   2   0  171.87    4.60
  10   2   0  156.23    4.70
  10   2   1   54.55    3.31
 -10   2  -1   59.83    2.70
  10   2   1   51.84    2.80
  10   2   2  740.00   12.17
 -10   2  -2  745.78    9.96
  10   2   2  715.36   11.08
 -10   2  -3   80.55    3.03
  10   2   3   75.37    3.60
  10   2   3   73.66    3.41
  10   2   4  437.28    8.28
  10   2   4  445.14    8.53
  10   2   5  281.41    5.84
  10   2   5  331.63    7.03
  10   2   6  337.30    6.80
 -10   2  -7  303.53    4.36
  10   2   7  317.17    5.99
  10   2   8  206.73    4.13
  10   3 -10  157.72    3.89
  10   3  -9  106.65    3.56
  10   3  -8  405.69    7.57
  10   3  -7   66.38    3.13
  10   3  -7   62.12    2.03
  10   3  -6  458.82    8.71
  10   3  -6  450.54    6.29
  10   3  -6  459.27    8.76
  10   3  -5  160.41    5.21
  10   3  -5  157.64    3.77
  10   3  -5  166.65    5.22
  10   3  -4  383.21    6.41
  10   3  -3  291.53    7.41
  10   3  -3  303.37    5.86
  10   3  -2  708.85   11.80
  10   3  -2  694.15    9.50
  10   3  -1   58.57    3.27
  10   3  -1   59.92    2.70
  10   3  -1   56.70    2.57
  10   3   0  139.11    4.97
  10   3   0  128.01    4.13
  10   3   0  126.79    3.99
  10   3   1  236.67    6.31
  10   3   1  227.65    5.55
  10   3   2  150.33    4.72
  10   3   2  149.02    4.50
  10   3   3  139.81    4.14
  10   3   3  154.13    4.50
  10   3   4  238.34    5.45
  10   3   5  317.89    5.97
  10   3   6  137.05    3.45
  10   4  -8    0.91    0.34
  10   4  -7   32.61    1.16
  10   4  -7   35.58    1.67
  10   4  -6  176.33    3.10
  10   4  -6  179.22    3.86
  10   4  -5  134.43    2.94
  10   4  -5  143.31    3.83
  10   4  -4   61.38    2.82
  10   4  -4   57.24    2.01
  10   4  -4   57.97    2.44
  10   4  -3   56.28    2.72
  10   4  -3   54.13    2.05
  10   4  -3   52.35    2.24
  10   4  -2  132.79    4.16
  10   4  -2  128.54    3.25
  10   4  -1   14.74    1.37
  10   4  -1   15.81    1.18
  10   4  -1   13.96    1.05
  10   4   0   73.92    2.82
  10   4   0   80.20    2.60
  10   4   0   72.43    2.43
  10   4   1  206.60    4.13
  10   4   1  194.74    4.08
  10   4   2   61.18    2.13
  10   4   2   58.05    2.13
  10   4   3  127.82    2.91
  10   4   3  125.85    2.97
 -11  -4   3  194.87    3.31
 -11  -4   2  110.24    2.44
 -11  -4   2  104.41    2.45
 -11  -4   1   44.10    1.50
 -11  -4   1   41.90    1.53
 -11  -3   9   41.93    1.57
 -11  -3   9   44.46    1.59
 -11  -3   8  252.94    4.45
 -11  -3   8  260.06    4.25
 -11  -3   7  188.09    4.05
 -11  -3   7  194.54    3.89
 -11  -3   6   31.78    1.36
 -11  -3   6   34.26    1.80
 -11  -3   6   33.24    1.68
 -11  -3   6   34.42    1.58
 -11  -3   5   78.81    2.30
 -11  -3   5   83.80    2.92
 -11  -3   5   84.66    2.76
 -11  -3   5   85.37    2.95
 -11  -3   5   76.39    2.49
 -11  -3   4  121.15    3.02
 -11  -3   4  128.63    3.73
 -11  -3   4  129.72    3.53
 -11  -3   4  125.44    3.68
 -11  -3   4  127.43    3.23
 -11  -3   3   14.22    1.28
 -11  -3   3   15.31    1.26
 -11  -3   3   15.19    1.15
 -11  -3   2   44.98    2.22
 -11  -3   2   42.26    2.01
 -11  -3   2   44.61    1.93
 -11  -3   1   80.08    2.96
 -11  -3   1   84.81    2.78
 -11  -3   1   79.60    2.46
 -11  -3   0  105.89    3.35
 -11  -3   0  105.61    3.02
 -11  -3   0   98.39    2.60
 -11  -3  -1   90.64    3.03
 -11  -3  -1   88.47    2.63
 -11  -3  -1   93.66    3.05
 -11  -3  -2   39.05    1.90
 -11  -3  -2   37.61    1.60
 -11  -3  -2   38.65    1.88
 -11  -3  -3  109.67    2.97
 -11  -3  -3  110.62    2.98
 -11  -3  -4  168.54    3.39
 -11  -3  -4  182.60    3.45
 -11  -2  11  199.24    3.89
 -11  -2  11  206.65    3.55
 -11  -2  10  247.75    4.79
 -11  -2  10  255.08    4.39
 -11  -2  10  250.90    4.10
 -11  -2   9  351.34    6.17
 -11  -2   9  340.27    5.46
 -11  -2   9  347.29    5.32
 -11  -2   8  183.74    4.09
 -11  -2   8  176.88    4.63
 -11  -2   8  174.84    3.99
 -11  -2   7  241.18    5.54
 -11  -2   7  235.30    4.82
 -11  -2   6  126.31    4.15
 -11  -2   6  128.18    3.62
 -11  -2   5  334.51    7.04
 -11  -2   5  352.71    6.28
 -11  -2   5  359.58    7.13
 -11  -2   5  340.31    5.51
 -11  -2   4  185.53    4.53
 -11  -2   4  190.75    4.62
 -11  -2   4  199.47    5.24
 -11  -2   4  182.37    4.00
 -11  -2   3  396.82    6.77
 -11  -2   3  378.97    5.92
 -11  -2   3  393.10    6.80
 -11  -2   2  224.36    4.99
 -11  -2   2  227.34    5.03
 -11  -2   1  514.28    7.78
 -11  -2   1  505.30    7.55
 -11  -2   0  524.63    7.74
 -11  -2   0  507.02    7.36
 -11  -2   0  514.52    8.58
 -11  -2  -1  153.18    3.70
 -11  -2  -1  161.75    4.51
 -11  -2  -1  164.36    4.09
 -11  -2  -2   77.41    2.45
 -11  -2  -2   80.98    3.06
 -11  -2  -2   80.63    2.83
 -11  -2  -2   81.07    2.76
 -11  -2  -3  248.56    4.68
 -11  -2  -3  248.45    4.81
 -11  -2  -4  188.58    3.73
 -11  -2  -4  189.66    3.84
 -11  -2  -5  110.78    3.18
 -11  -2  -5  112.75    2.85
 -11  -2  -6  123.66    2.96
 -11  -1  13  315.56    4.36
 -11  -1  12  293.40    4.36
 -11  -1  12  307.91    4.99
 -11  -1  12  308.51    4.32
 -11  -1  12  305.44    4.70
 -11  -1  11   41.26    1.81
 -11  -1  11   38.66    1.89
 -11  -1  11   40.05    1.64
 -11  -1  11   39.43    1.81
 -11  -1  10   53.67    2.37
 -11  -1  10   52.26    1.99
 -11  -1  10   54.58    2.33
 -11  -1   9   56.06    2.54
 -11  -1   9   56.73    2.60
 -11  -1   9   55.10    2.16
 -11  -1   8  136.27    4.26
 -11  -1   8  131.00    3.43
 -11  -1   7  192.16    5.20
 -11  -1   7  179.48    4.12
 -11  -1   6    0.89    0.57
 -11  -1   6    0.92    0.63
 -11  -1   6    1.14    0.47
  11  -1  -5   25.56    1.76
 -11  -1   5   28.80    2.14
 -11  -1   5   27.55    1.62
 -11  -1   5   28.51    1.96
 -11  -1   5   28.92    1.99
 -11  -1   4  190.73    5.51
 -11  -1   4  182.39    4.21
 -11  -1   4  190.67    5.04
 -11  -1   4  183.84    5.01
 -11  -1   3    1.12    0.43
 -11  -1   3    0.81    0.56
 -11  -1   3    0.22    0.47
 -11  -1   2   69.57    3.40
 -11  -1   2   70.02    3.10
 -11  -1   2   67.24    2.46
 -11  -1   2   66.23    2.99
 -11  -1   1   32.41    2.33
 -11  -1   1   31.66    2.04
 -11  -1   1   33.85    2.16
 -11  -1   0  289.69    6.85
 -11  -1   0  298.16    6.46
 -11  -1  -1  527.61    8.73
 -11  -1  -1  524.31    9.13
 -11  -1  -2  156.94    4.79
 -11  -1  -2  150.88    4.14
 -11  -1  -2  162.43    4.62
 -11  -1  -3  119.40    4.06
 -11  -1  -3  118.63    3.48
 -11  -1  -4  190.60    4.86
 -11  -1  -4  182.42    4.04
 -11  -1  -5  168.42    4.30
 -11  -1  -6  225.19    4.50
 -11  -1  -6  237.32    4.44
 -11  -1  -7   42.68    1.61
 -11  -1  -7   47.10    1.64
 -11   0  13   43.26    1.51
 -11   0  12   31.99    1.52
 -11   0  12   32.29    1.51
 -11   0  11  527.19    7.17
 -11   0  11  498.85    5.94
 -11   0  10  306.19    5.73
 -11   0  10  291.72    4.66
 -11   0   9  106.30    3.46
 -11   0   9  102.26    2.74
 -11   0   8   62.50    2.78
 -11   0   8   52.15    1.99
  11   0  -7  247.33    5.40
 -11   0   7  264.36    5.92
  11   0  -6   55.78    2.73
 -11   0   6   56.60    2.76
  11   0  -5  168.88    4.95
 -11   0   5  181.21    5.06
 -11   0   4  237.69    5.86
 -11   0   3  920.68   12.13
 -11   0   3  922.08   10.99
 -11   0   2  872.48   11.87
 -11   0   2  881.50   10.54
 -11   0   1  715.10   10.51
 -11   0   1  725.38    9.28
 -11   0   0  246.24    5.90
 -11   0  -1   20.22    1.66
 -11   0  -2   98.16    3.48
 -11   0  -3  125.63    3.86
 -11   0  -4   66.78    2.64
 -11   0  -5  242.35    4.77
 -11   0  -6  179.89    3.56
 -11   1  13  295.40    4.04
 -11   1  12  324.62    4.79
 -11   1  12  324.95    4.89
 -11   1  11   52.43    2.05
 -11   1  11   53.03    2.08
 -11   1  10   47.30    2.12
  11   1 -10   44.72    2.11
 -11   1  10   48.89    2.17
 -11   1   9   45.96    2.25
 -11   1   9   43.16    1.90
  11   1  -8  115.30    3.59
 -11   1   8  120.17    3.32
  11   1  -7  187.16    5.06
 -11   1   7  194.28    4.40
  11   1  -6    1.75    0.66
 -11   1   6    1.71    0.52
  11   1  -5   29.84    2.22
 -11   1   5   30.89    1.79
 -11   1   5   29.75    1.98
  11   1  -4  175.32    5.45
 -11   1   4  175.98    4.33
 -11   1   4  180.09    4.83
  11   1  -3    2.30    0.80
 -11   1   3    3.63    0.83
  11   1  -2   66.86    3.39
 -11   1   2   66.09    2.97
 -11   1   1   35.00    2.18
 -11   1   0  284.62    6.16
 -11   1  -1  476.83    8.11
 -11   1  -2  171.80    4.67
 -11   1  -3  130.91    3.93
  11   1   4  167.99    4.62
  11   1   5  165.15    4.10
 -11   1  -6  228.17    4.30
 -11   1  -7   52.32    1.72
  11   2 -11  183.07    3.38
 -11   2  11  195.40    3.40
 -11   2  10  216.08    3.70
  11   2 -10  226.43    4.62
 -11   2  10  226.39    4.03
  11   2  -9  333.53    6.28
 -11   2   9  326.64    5.01
 -11   2   9  334.23    5.33
 -11   2   8  208.61    4.27
  11   2  -8  198.27    4.79
  11   2  -8  201.83    5.11
 -11   2   8  205.36    4.18
 -11   2   7  243.54    4.69
  11   2  -7  224.31    5.53
 -11   2   6  105.31    3.03
  11   2  -6  100.94    3.86
  11   2  -5  294.78    6.91
  11   2  -4  196.24    5.71
 -11   2   4  186.47    4.40
  11   2  -3  369.43    8.14
 -11   2   3  381.63    6.50
 -11   2   2  230.98    4.94
 -11   2   1  573.89    8.05
  11   2  -1  585.04   10.29
  11   2   0  514.69    9.52
 -11   2   0  518.59    7.49
  11   2   1  129.58    4.49
 -11   2  -1  126.61    3.47
  11   2   2   86.86    3.49
 -11   2  -2   85.80    2.75
  11   2   3  259.57    5.71
 -11   2  -3  262.51    4.65
 -11   2  -4  172.86    3.41
  11   2   4  162.34    3.95
  11   2   4  161.24    3.72
  11   2   5  108.62    2.78
  11   3 -10   58.88    1.98
  11   3  -9   40.82    1.77
  11   3  -7  178.96    4.43
  11   3  -7  184.41    4.51
  11   3  -6   42.98    2.30
  11   3  -6   41.27    2.23
  11   3  -5   79.80    3.20
  11   3  -5   79.68    3.13
  11   3  -4  125.80    3.96
  11   3  -3    9.47    1.24
  11   3  -3   10.07    1.15
  11   3  -2   38.01    2.35
  11   3  -2   35.18    1.98
  11   3  -1   87.78    3.44
  11   3  -1   79.48    2.79
  11   3   0   90.15    3.39
  11   3   0   90.18    2.47
  11   3   1   94.36    3.25
  11   3   1   94.74    2.48
  11   3   2   47.94    2.04
 -12  -3   6  212.46    3.51
 -12  -3   6  224.85    3.32
 -12  -3   5  180.55    3.41
 -12  -3   5  184.84    3.10
 -12  -3   4   80.01    2.29
 -12  -3   4   79.60    2.03
 -12  -3   3  299.57    4.69
 -12  -3   3  289.42    4.07
 -12  -3   2  139.26    3.12
 -12  -3   2  130.83    2.57
 -12  -3   2  138.57    3.11
 -12  -3   1  285.76    4.51
 -12  -3   1  308.05    4.63
 -12  -3   0  235.43    3.89
 -12  -3   0  243.64    3.92
 -12  -2   9   66.51    2.14
 -12  -2   9   62.52    1.73
 -12  -2   8   19.50    1.26
 -12  -2   8   19.90    1.06
 -12  -2   7  176.59    3.34
 -12  -2   7  170.15    3.28
 -12  -2   6  187.75    3.52
 -12  -2   5   29.35    1.41
 -12  -2   4  198.78    3.75
 -12  -2   4  211.05    4.58
 -12  -2   3  141.33    3.27
 -12  -2   3  138.56    3.05
 -12  -2   2   55.32    2.03
 -12  -2   2   55.53    1.84
 -12  -2   2   61.47    2.44
 -12  -2   1   44.68    2.06
 -12  -2   1   44.54    1.80
 -12  -2   0   43.95    1.97
 -12  -2   0   43.02    1.70
 -12  -2  -1   15.88    1.27
 -12  -2  -1   16.68    1.17
 -12  -2  -1   15.96    0.98
 -12  -2  -2   35.46    1.74
 -12  -2  -2   34.08    1.53
 -12  -2  -3  179.99    3.65
 -12  -1  11    5.17    0.52
 -12  -1  11    4.66    0.54
 -12  -1  10   19.18    1.19
 -12  -1  10   17.43    1.06
 -12  -1   9   18.24    1.26
 -12  -1   9   16.91    0.92
 -12  -1   9   18.03    1.21
 -12  -1   8  300.30    5.32
 -12  -1   8  285.21    5.35
 -12  -1   7   96.99    3.21
 -12  -1   7   89.40    2.31
 -12  -1   6  135.37    3.94
 -12  -1   6  121.27    2.75
 -12  -1   5  633.88    8.63
 -12  -1   5  643.80    9.24
  12  -1  -4  844.20   10.24
 -12  -1   4  875.63   11.22
 -12  -1   3  339.53    6.64
 -12  -1   3  344.09    6.22
 -12  -1   2  223.12    5.31
 -12  -1   2  216.09    4.64
 -12  -1   2  218.79    4.94
 -12  -1   1   89.37    3.10
 -12  -1   1   88.87    3.27
 -12  -1   1   84.54    2.79
 -12  -1   0   33.70    1.87
 -12  -1   0   34.05    2.00
 -12  -1   0   32.55    1.67
 -12  -1  -1  156.33    4.14
 -12  -1  -1  150.73    3.43
 -12  -1  -1  160.60    3.97
 -12  -1  -2  500.57    7.38
 -12  -1  -2  528.68    7.25
 -12  -1  -3  302.31    5.23
 -12  -1  -3  323.14    5.20
 -12  -1  -4  357.98    5.22
 -12  -1  -4  376.66    5.25
 -12   0  10   16.26    1.10
 -12   0  10   14.21    0.96
 -12   0   9   14.52    1.08
 -12   0   8   61.68    2.31
 -12   0   7  285.33    5.31
  12   0  -6   24.57    1.59
 -12   0   6   23.37    1.55
  12   0  -5   61.53    2.72
 -12   0   5   65.37    2.62
  12   0  -4   88.81    3.39
 -12   0   4   92.25    3.15
  12   0  -3   36.17    2.19
 -12   0   3   38.75    2.05
 -12   0   2   12.89    1.20
 -12   0   1  193.59    4.51
 -12   0   0   35.27    1.85
 -12   0  -1  108.57    3.14
 -12   0  -2    2.97    0.55
 -12   0  -3   22.35    1.24
 -12   1  11    2.27    0.37
 -12   1  10   18.88    1.07
  12   1 -10   17.35    1.02
 -12   1  10   19.66    1.09
 -12   1   9   12.39    0.95
  12   1  -9   13.89    1.11
 -12   1   9   12.72    1.01
 -12   1   8  282.15    4.80
  12   1  -7   86.08    2.86
  12   1  -6  135.15    3.92
  12   1  -5  591.62    9.09
 -12   1   5  624.60    8.39
  12   1  -4  848.52   11.40
 -12   1   4  889.64   10.46
  12   1  -3  291.37    6.50
 -12   1   3  297.14    5.72
  12   1  -2  209.35    5.49
 -12   1   2  214.66    4.79
 -12   1   1  102.58    3.24
  12   1   0   40.82    2.37
 -12   1   0   46.35    2.13
  12   1   1  141.02    4.21
 -12   1  -1  140.83    3.65
  12   1   2  511.16    8.02
 -12   1  -2  520.66    7.09
  12   1   3  282.04    5.40
 -12   1  -3  298.40    4.92
  12   1   4  342.46    5.26
 -12   1  -4  366.61    5.09
  12   2  -9   70.28    2.22
  12   2  -8   10.85    1.01
  12   2  -7  156.59    3.75
  12   2  -7  156.40    4.00
 -12   2   7  163.93    3.13
  12   2  -6  204.32    4.63
  12   2  -5   22.52    1.64
  12   2  -4  190.18    4.86
  12   2  -3  140.10    4.21
 -12   2   3  137.75    3.12
 -12   2   2   70.89    2.21
  12   2  -1   41.28    2.28
 -12   2   1   42.93    1.70
  12   2   0   45.56    2.31
 -12   2   0   45.98    1.69
  12   2   1   10.74    1.09
 -12   2  -1   10.65    0.78
  12   2   2   40.57    1.85
  12   3  -6  219.93    3.97
  12   3  -5  166.70    3.72
  12   3  -5  172.09    3.57
  12   3  -4  112.36    2.84
  12   3  -3  274.18    5.09
  12   3  -3  250.38    4.14
  12   3  -2  155.90    3.70
  12   3  -1  242.11    4.49
 -13  -2   3   49.75    1.76
 -13  -2   2  258.23    4.13
 -13  -2   1  133.03    2.80
 -13  -1   8   14.06    0.87
 -13  -1   7   11.64    0.84
 -13  -1   7   11.60    0.87
 -13  -1   6  141.54    3.18
 -13  -1   5  143.03    3.29
 -13  -1   4    9.39    0.89
  13  -1  -3   60.21    2.03
 -13  -1   3   67.07    2.28
 -13  -1   3   65.17    2.14
  13  -1  -2   50.00    1.93
 -13  -1   2   55.22    2.04
 -13  -1   2   54.88    1.95
  13  -1  -1   24.35    1.36
 -13  -1   1   26.58    1.37
 -13  -1   1   26.80    1.35
  13  -1   0    7.16    0.75
 -13  -1   0    8.20    0.74
 -13  -1   0    8.13    0.73
  13  -1   1   13.41    0.96
 -13  -1  -1   15.31    0.90
 -13   0   6  445.87    5.38
  13   0  -5   34.63    1.56
 -13   0   5   36.77    1.47
  13   0  -4  105.50    3.01
 -13   0   4   95.11    2.45
  13   0  -3    9.15    0.96
 -13   0   3    8.15    0.73
  13   0  -2    6.69    0.85
 -13   0   2    5.80    0.61
  13   0  -1  408.08    6.44
  13   0   0  406.54    6.23
  13   0   2  206.71    3.86
 -13   1   7    8.40    0.71
  13   1  -5  127.31    3.17
  13   1  -4    6.96    0.82
  13   1  -3   59.00    2.33
 -13   1   3   62.08    2.03
  13   1  -2   42.03    2.01
 -13   1   2   43.56    1.69
  13   1  -1   23.75    1.50
 -13   1   1   26.03    1.29
  13   1   0    9.28    0.93
 -13   1   0    9.46    0.76
  13   1   1   16.83    1.14
 -13   1  -1   15.97    0.90
  13   2  -6  149.60    3.06
  13   2  -5  122.44    2.83
  13   2  -4   58.05    2.00
  13   2  -4   57.94    1.93
  13   2  -3   41.85    1.75
  13   2  -1  105.76    2.69
   0   0   0    0.00    0.00


TITL 20201214_1 in P2(1)
REM P2(1) (#4 in standard setting)
CELL 1.54184  11.046680   5.519364  14.348567  90.0000 101.3848  90.0000
ZERR    4.00   0.000080   0.000045   0.000102   0.0000   0.0007   0.0000
LATT -1
SYMM -x, y+1/2,-z
SFAC C H N O
UNIT 44.00 40.00 4.00 4.00
TREF
HKLF 4
END
_computing_structure_solution     'SHELXT 2014/5 (Sheldrick, 2014)'
;
_shelx_hkl_checksum              58824
_olex2_submission_special_instructions 'No special instructions were received'
_oxdiff_exptl_absorpt_empirical_details
;
Empirical correction (ABSPACK) includes:
- Absorption correction using spherical harmonics
- Frame scaling
;
_oxdiff_exptl_absorpt_empirical_full_max 2.080
_oxdiff_exptl_absorpt_empirical_full_min 0.645
loop_
_space_group_symop_operation_xyz
'x, y, z'
'-x, y+1/2, -z'
loop_
_atom_site_label
_atom_site_type_symbol
_atom_site_fract_x
_atom_site_fract_y
_atom_site_fract_z
_atom_site_U_iso_or_equiv
_atom_site_adp_type
_atom_site_occupancy
_atom_site_site_symmetry_order
_atom_site_calc_flag
_atom_site_refinement_flags_posn
_atom_site_refinement_flags_adp
_atom_site_refinement_flags_occupancy
_atom_site_disorder_assembly
_atom_site_disorder_group
Br01 Br 0.26696(2) 0.66275(5) -0.01566(2) 0.03037(10) Uani 1 1 d . . . . .
Cl00 Cl 1.10673(5) 0.06885(11) 0.11590(4) 0.02317(13) Uani 1 1 d . . . . .
F003 F 0.55488(12) 0.5855(3) 0.45351(9) 0.0242(3) Uani 1 1 d . . . . .
F004 F 0.61768(13) 0.9277(3) 0.40363(10) 0.0245(3) Uani 1 1 d . . . . .
O005 O 0.82461(16) 0.2691(3) 0.54269(12) 0.0246(4) Uani 1 1 d . . . . .
O006 O 0.71585(15) 0.4865(3) 0.63012(11) 0.0217(4) Uani 1 1 d . . . . .
N007 N 0.86863(16) 0.6862(4) 0.44394(12) 0.0180(4) Uani 1 1 d . . . . .
C008 C 0.77563(19) 0.4546(4) 0.55869(15) 0.0177(4) Uani 1 1 d . . . . .
C009 C 0.40045(19) 0.6260(5) 0.08991(14) 0.0211(5) Uani 1 1 d . . . . .
C00A C 0.81493(18) 0.6795(5) 0.34084(13) 0.0158(4) Uani 1 1 d . . . . .
H00A H 0.805935 0.844790 0.315425 0.019 Uiso 1 1 calc R U . . .
C00B C 0.91026(19) 0.6075(4) 0.19725(15) 0.0175(4) Uani 1 1 d . . . . .
H00B H 0.877366 0.754650 0.172716 0.021 Uiso 1 1 calc R U . . .
C00C C 0.9776(2) 0.4679(5) 0.14524(16) 0.0199(5) Uani 1 1 d . . . . .
H00C H 0.990590 0.521009 0.086483 0.024 Uiso 1 1 calc R U . . .
C00D C 1.00729(17) 0.1664(5) 0.27001(14) 0.0182(4) Uani 1 1 d . . . . .
H00D H 1.039159 0.017700 0.293572 0.022 Uiso 1 1 calc R U . . .
C00E C 0.89109(19) 0.5305(4) 0.28588(15) 0.0162(4) Uani 1 1 d . . . . .
C00F C 0.4054(2) 0.4248(5) 0.14858(18) 0.0242(5) Uani 1 1 d . . . . .
H00F H 0.345944 0.303783 0.135389 0.029 Uiso 1 1 calc R U . . .
C00G C 0.65217(19) 0.6915(5) 0.42460(14) 0.0182(4) Uani 1 1 d . . . . .
C00H C 0.77171(18) 0.6866(5) 0.50019(14) 0.0173(4) Uani 1 1 d . . . . .
H00H H 0.778012 0.830187 0.541054 0.021 Uiso 1 1 calc R U . . .
C00I C 0.58999(19) 0.5894(4) 0.24842(15) 0.0155(4) Uani 1 1 d . . . . .
C00J C 0.9413(2) 0.3095(4) 0.32189(14) 0.0165(4) Uani 1 1 d . . . . .
H00J H 0.930412 0.257665 0.381347 0.020 Uiso 1 1 calc R U . . .
C00K C 0.5004(2) 0.4077(4) 0.22693(17) 0.0202(5) Uani 1 1 d . . . . .
H00K H 0.505004 0.272568 0.266205 0.024 Uiso 1 1 calc R U . . .
C00L C 0.4884(2) 0.8067(5) 0.10782(16) 0.0220(5) Uani 1 1 d . . . . .
H00L H 0.484343 0.939535 0.067446 0.026 Uiso 1 1 calc R U . . .
C00M C 0.7046(2) 0.2701(6) 0.68540(17) 0.0282(5) Uani 1 1 d . . . . .
H00E H 0.662422 0.146349 0.644352 0.042 Uiso 1 1 calc R U . . .
H00G H 0.658527 0.307264 0.733744 0.042 Uiso 1 1 calc R U . . .
H00I H 0.785354 0.213519 0.714621 0.042 Uiso 1 1 calc R U . . .
C00N C 0.68628(19) 0.5676(4) 0.33869(15) 0.0155(4) Uani 1 1 d . . . . .
H00N H 0.697931 0.394861 0.353543 0.019 Uiso 1 1 calc R U . . .
C00O C 1.02502(19) 0.2494(5) 0.18187(15) 0.0186(4) Uani 1 1 d . . . . .
C00P C 0.5831(2) 0.7868(5) 0.18733(16) 0.0201(4) Uani 1 1 d . . . . .
H00P H 0.642871 0.907505 0.199809 0.024 Uiso 1 1 calc R U . . .
H007 H 0.921(3) 0.797(6) 0.4621(19) 0.014(6) Uiso 1 1 d . . . . .
loop_
_atom_site_aniso_label
_atom_site_aniso_U_11
_atom_site_aniso_U_22
_atom_site_aniso_U_33
_atom_site_aniso_U_23
_atom_site_aniso_U_13
_atom_site_aniso_U_12
Br01 0.02344(13) 0.04533(17) 0.01864(13) -0.00833(11) -0.00483(8) 0.01319(11)
Cl00 0.0221(2) 0.0284(3) 0.0202(3) -0.0045(2) 0.0070(2) -0.0005(2)
F003 0.0173(6) 0.0377(9) 0.0184(6) 0.0039(5) 0.0058(5) -0.0001(6)
F004 0.0320(8) 0.0208(8) 0.0197(7) -0.0001(5) 0.0030(6) 0.0092(6)
O005 0.0281(9) 0.0223(9) 0.0239(8) 0.0031(7) 0.0067(7) 0.0025(7)
O006 0.0206(8) 0.0309(10) 0.0144(7) 0.0028(7) 0.0054(6) -0.0027(7)
N007 0.0166(8) 0.0230(10) 0.0141(8) -0.0012(8) 0.0026(6) -0.0061(8)
C008 0.0141(10) 0.0234(12) 0.0148(10) -0.0007(8) 0.0005(8) -0.0023(9)
C009 0.0180(9) 0.0305(15) 0.0137(9) -0.0068(9) 0.0000(7) 0.0080(9)
C00A 0.0168(9) 0.0165(10) 0.0133(8) -0.0004(9) 0.0008(7) -0.0034(9)
C00B 0.0195(9) 0.0180(12) 0.0141(9) 0.0019(8) 0.0014(7) -0.0028(8)
C00C 0.0207(11) 0.0258(12) 0.0127(10) 0.0018(8) 0.0024(8) -0.0051(9)
C00D 0.0147(8) 0.0210(10) 0.0173(9) 0.0037(10) -0.0009(7) -0.0011(10)
C00E 0.0149(9) 0.0187(12) 0.0141(10) 0.0001(8) 0.0008(8) -0.0038(8)
C00F 0.0189(11) 0.0234(13) 0.0281(12) -0.0068(10) -0.0007(9) 0.0000(9)
C00G 0.0185(9) 0.0186(12) 0.0177(9) 0.0016(9) 0.0039(7) 0.0018(9)
C00H 0.0191(9) 0.0194(12) 0.0133(8) -0.0003(10) 0.0030(7) -0.0002(9)
C00I 0.0148(9) 0.0169(11) 0.0146(10) -0.0018(8) 0.0021(8) 0.0021(8)
C00J 0.0153(9) 0.0204(12) 0.0125(9) 0.0020(8) -0.0003(7) -0.0028(8)
C00K 0.0203(11) 0.0173(12) 0.0220(11) -0.0008(9) 0.0018(9) 0.0005(9)
C00L 0.0241(11) 0.0266(13) 0.0159(10) 0.0036(9) 0.0051(9) 0.0044(9)
C00M 0.0264(12) 0.0384(15) 0.0198(11) 0.0078(10) 0.0043(9) -0.0093(11)
C00N 0.0156(9) 0.0156(10) 0.0150(9) 0.0012(8) 0.0023(7) -0.0009(8)
C00O 0.0149(9) 0.0247(12) 0.0161(10) -0.0043(8) 0.0026(8) -0.0043(8)
C00P 0.0190(10) 0.0230(12) 0.0183(10) 0.0016(9) 0.0038(9) -0.0019(9)
loop_
_atom_type_symbol
_atom_type_description
_atom_type_scat_dispersion_real
_atom_type_scat_dispersion_imag
_atom_type_scat_source
C C 0.0181 0.0091 'International Tables Vol C Tables 4.2.6.8 and 6.1.1.4'
H H 0.0000 0.0000 'International Tables Vol C Tables 4.2.6.8 and 6.1.1.4'
Br Br -0.6763 1.2805 'International Tables Vol C Tables 4.2.6.8 and 6.1.1.4'
Cl Cl 0.3639 0.7018 'International Tables Vol C Tables 4.2.6.8 and 6.1.1.4'
F F 0.0727 0.0534 'International Tables Vol C Tables 4.2.6.8 and 6.1.1.4'
N N 0.0311 0.0180 'International Tables Vol C Tables 4.2.6.8 and 6.1.1.4'
O O 0.0492 0.0322 'International Tables Vol C Tables 4.2.6.8 and 6.1.1.4'
loop_
_geom_angle_atom_site_label_1
_geom_angle_atom_site_label_2
_geom_angle_atom_site_label_3
_geom_angle
_geom_angle_site_symmetry_1
_geom_angle_site_symmetry_3
_geom_angle_publ_flag
C008 O006 C00M 114.8(2) . . ?
C00A N007 H007 116.1(19) . . ?
C00H N007 C00A 111.02(16) . . ?
C00H N007 H007 111.0(19) . . ?
O005 C008 O006 124.6(2) . . ?
O005 C008 C00H 125.1(2) . . ?
O006 C008 C00H 110.27(19) . . ?
C00F C009 Br01 119.96(18) . . ?
C00L C009 Br01 118.48(18) . . ?
C00L C009 C00F 121.5(2) . . ?
N007 C00A H00A 109.8 . . ?
N007 C00A C00E 112.42(18) . . ?
N007 C00A C00N 102.43(16) . . ?
C00E C00A H00A 109.8 . . ?
C00E C00A C00N 112.22(19) . . ?
C00N C00A H00A 109.8 . . ?
C00C C00B H00B 119.5 . . ?
C00C C00B C00E 121.0(2) . . ?
C00E C00B H00B 119.5 . . ?
C00B C00C H00C 120.5 . . ?
C00O C00C C00B 119.0(2) . . ?
C00O C00C H00C 120.5 . . ?
C00J C00D H00D 120.6 . . ?
C00J C00D C00O 118.8(2) . . ?
C00O C00D H00D 120.6 . . ?
C00B C00E C00A 120.8(2) . . ?
C00B C00E C00J 118.8(2) . . ?
C00J C00E C00A 120.38(19) . . ?
C009 C00F H00F 120.6 . . ?
C00K C00F C009 118.8(2) . . ?
C00K C00F H00F 120.6 . . ?
F003 C00G F004 105.86(16) . . ?
F003 C00G C00H 113.52(17) . . ?
F003 C00G C00N 113.06(19) . . ?
F004 C00G C00H 109.5(2) . . ?
F004 C00G C00N 110.56(18) . . ?
C00N C00G C00H 104.40(16) . . ?
N007 C00H C008 110.9(2) . . ?
N007 C00H C00G 103.39(15) . . ?
N007 C00H H00H 111.0 . . ?
C008 C00H C00G 109.27(19) . . ?
C008 C00H H00H 111.0 . . ?
C00G C00H H00H 111.0 . . ?
C00K C00I C00N 118.7(2) . . ?
C00P C00I C00K 118.3(2) . . ?
C00P C00I C00N 123.0(2) . . ?
C00D C00J C00E 120.8(2) . . ?
C00D C00J H00J 119.6 . . ?
C00E C00J H00J 119.6 . . ?
C00F C00K C00I 121.4(2) . . ?
C00F C00K H00K 119.3 . . ?
C00I C00K H00K 119.3 . . ?
C009 C00L H00L 120.6 . . ?
C009 C00L C00P 118.9(2) . . ?
C00P C00L H00L 120.6 . . ?
O006 C00M H00E 109.5 . . ?
O006 C00M H00G 109.5 . . ?
O006 C00M H00I 109.5 . . ?
H00E C00M H00G 109.5 . . ?
H00E C00M H00I 109.5 . . ?
H00G C00M H00I 109.5 . . ?
C00A C00N H00N 107.7 . . ?
C00G C00N C00A 100.27(17) . . ?
C00G C00N H00N 107.7 . . ?
C00I C00N C00A 118.36(17) . . ?
C00I C00N C00G 114.48(18) . . ?
C00I C00N H00N 107.7 . . ?
C00C C00O Cl00 119.45(17) . . ?
C00C C00O C00D 121.5(2) . . ?
C00D C00O Cl00 119.0(2) . . ?
C00I C00P C00L 121.1(2) . . ?
C00I C00P H00P 119.4 . . ?
C00L C00P H00P 119.4 . . ?
loop_
_geom_bond_atom_site_label_1
_geom_bond_atom_site_label_2
_geom_bond_distance
_geom_bond_site_symmetry_2
_geom_bond_publ_flag
Br01 C009 1.905(2) . ?
Cl00 C00O 1.744(2) . ?
F003 C00G 1.358(2) . ?
F004 C00G 1.375(3) . ?
O005 C008 1.201(3) . ?
O006 C008 1.336(3) . ?
O006 C00M 1.453(3) . ?
N007 C00A 1.482(2) . ?
N007 C00H 1.462(2) . ?
N007 H007 0.84(3) . ?
C008 C00H 1.527(3) . ?
C009 C00F 1.388(4) . ?
C009 C00L 1.380(4) . ?
C00A H00A 0.9800 . ?
C00A C00E 1.506(3) . ?
C00A C00N 1.544(3) . ?
C00B H00B 0.9300 . ?
C00B C00C 1.387(3) . ?
C00B C00E 1.396(3) . ?
C00C H00C 0.9300 . ?
C00C C00O 1.377(4) . ?
C00D H00D 0.9300 . ?
C00D C00J 1.387(3) . ?
C00D C00O 1.395(3) . ?
C00E C00J 1.396(3) . ?
C00F H00F 0.9300 . ?
C00F C00K 1.381(3) . ?
C00G C00H 1.535(3) . ?
C00G C00N 1.521(3) . ?
C00H H00H 0.9800 . ?
C00I C00K 1.400(3) . ?
C00I C00N 1.510(3) . ?
C00I C00P 1.391(3) . ?
C00J H00J 0.9300 . ?
C00K H00K 0.9300 . ?
C00L H00L 0.9300 . ?
C00L C00P 1.392(3) . ?
C00M H00E 0.9600 . ?
C00M H00G 0.9600 . ?
C00M H00I 0.9600 . ?
C00N H00N 0.9800 . ?
C00P H00P 0.9300 . ?
loop_
_geom_torsion_atom_site_label_1
_geom_torsion_atom_site_label_2
_geom_torsion_atom_site_label_3
_geom_torsion_atom_site_label_4
_geom_torsion
_geom_torsion_site_symmetry_1
_geom_torsion_site_symmetry_2
_geom_torsion_site_symmetry_3
_geom_torsion_site_symmetry_4
_geom_torsion_publ_flag
Br01 C009 C00F C00K -177.31(17) . . . . ?
Br01 C009 C00L C00P 177.08(17) . . . . ?
F003 C00G C00H N007 151.6(2) . . . . ?
F003 C00G C00H C008 33.4(3) . . . . ?
F003 C00G C00N C00A -165.55(18) . . . . ?
F003 C00G C00N C00I 66.6(3) . . . . ?
F004 C00G C00H N007 -90.3(2) . . . . ?
F004 C00G C00H C008 151.50(17) . . . . ?
F004 C00G C00N C00A 76.0(2) . . . . ?
F004 C00G C00N C00I -51.8(2) . . . . ?
O005 C008 C00H N007 -19.8(3) . . . . ?
O005 C008 C00H C00G 93.5(3) . . . . ?
O006 C008 C00H N007 160.60(17) . . . . ?
O006 C008 C00H C00G -86.0(2) . . . . ?
N007 C00A C00E C00B -139.5(2) . . . . ?
N007 C00A C00E C00J 42.1(3) . . . . ?
N007 C00A C00N C00G 39.2(2) . . . . ?
N007 C00A C00N C00I 164.40(19) . . . . ?
C009 C00F C00K C00I 0.7(3) . . . . ?
C009 C00L C00P C00I -0.2(3) . . . . ?
C00A N007 C00H C008 114.5(2) . . . . ?
C00A N007 C00H C00G -2.5(3) . . . . ?
C00A C00E C00J C00D 177.33(19) . . . . ?
C00B C00C C00O Cl00 178.48(17) . . . . ?
C00B C00C C00O C00D -0.3(3) . . . . ?
C00B C00E C00J C00D -1.1(3) . . . . ?
C00C C00B C00E C00A -178.3(2) . . . . ?
C00C C00B C00E C00J 0.2(3) . . . . ?
C00E C00A C00N C00G 160.00(18) . . . . ?
C00E C00A C00N C00I -74.8(3) . . . . ?
C00E C00B C00C C00O 0.5(3) . . . . ?
C00F C009 C00L C00P -0.8(3) . . . . ?
C00H N007 C00A C00E -144.0(2) . . . . ?
C00H N007 C00A C00N -23.4(3) . . . . ?
C00H C00G C00N C00A -41.7(2) . . . . ?
C00H C00G C00N C00I -169.51(19) . . . . ?
C00J C00D C00O Cl00 -179.43(16) . . . . ?
C00J C00D C00O C00C -0.6(3) . . . . ?
C00K C00I C00N C00A 150.3(2) . . . . ?
C00K C00I C00N C00G -91.8(3) . . . . ?
C00K C00I C00P C00L 1.3(3) . . . . ?
C00L C009 C00F C00K 0.5(3) . . . . ?
C00M O006 C008 O005 -4.7(3) . . . . ?
C00M O006 C008 C00H 174.83(18) . . . . ?
C00N C00A C00E C00B 105.7(2) . . . . ?
C00N C00A C00E C00J -72.8(2) . . . . ?
C00N C00G C00H N007 28.1(3) . . . . ?
C00N C00G C00H C008 -90.1(2) . . . . ?
C00N C00I C00K C00F 175.9(2) . . . . ?
C00N C00I C00P C00L -176.1(2) . . . . ?
C00O C00D C00J C00E 1.4(3) . . . . ?
C00P C00I C00K C00F -1.6(3) . . . . ?
C00P C00I C00N C00A -32.3(3) . . . . ?
C00P C00I C00N C00G 85.6(3) . . . . ?
