#------------------------------------------------------------------------------
#$Date: 2022-01-01 07:13:54 +0200 (Sat, 01 Jan 2022) $
#$Revision: 271676 $
#$URL: file:///home/coder/svn-repositories/cod/cif/1/56/58/1565887.cif $
#------------------------------------------------------------------------------
#
# This file is available in the Crystallography Open Database (COD),
# http://www.crystallography.net/. The original data for this entry
# were provided by IUCr Journals, http://journals.iucr.org/.
#
# The file may be used within the scientific community so long as
# proper attribution is given to the journal article from which the
# data were obtained.
#
data_1565887
loop_
_publ_author_name
'Olejniczak, Anna'
'Katrusiak, Anna'
'Podsiad\/lo, Marcin'
'Katrusiak, Andrzej'
_publ_section_title
;
 Stochastic hydration of a high-nitrogen-content molecular compound
 recrystallized under pressure
;
_journal_issue                   1
_journal_name_full               IUCrJ
_journal_page_first              49
_journal_page_last               54
_journal_paper_doi               10.1107/S2052252521010381
_journal_volume                  9
_journal_year                    2022
_chemical_formula_moiety         'C4 H2 Cl N5'
_chemical_formula_sum            'C4 H2 Cl N5'
_chemical_formula_weight         155.56
_chemical_name_systematic        6-chloro-1,2,3,4-tetrazolo[1,5-b]pyridazine
_space_group_crystal_system      monoclinic
_space_group_IT_number           14
_space_group_name_Hall           '-P 2ybc'
_space_group_name_H-M_alt        'P 1 21/c 1'
_atom_sites_solution_hydrogens   geom
_atom_sites_solution_primary     direct
_audit_creation_date             2020-07-14
_audit_creation_method
;
Olex2 1.3
(compiled 2020.06.28 svn.raecde09e for OlexSys, GUI svn.r6132)
;
_cell_angle_alpha                90
_cell_angle_beta                 101.159(16)
_cell_angle_gamma                90
_cell_formula_units_Z            4
_cell_length_a                   7.864(4)
_cell_length_b                   13.1668(6)
_cell_length_c                   5.6843(4)
_cell_measurement_reflns_used    711
_cell_measurement_temperature    296(2)
_cell_measurement_theta_max      22.0390
_cell_measurement_theta_min      4.3340
_cell_volume                     577.4(3)
_computing_cell_refinement       'CrysAlisPro 1.171.40.67a (Rigaku OD, 2019)'
_computing_data_collection       'CrysAlisPro 1.171.40.67a (Rigaku OD, 2019)'
_computing_data_reduction        'CrysAlisPro 1.171.40.67a (Rigaku OD, 2019)'
_computing_molecular_graphics    'Olex2 1.3 (Dolomanov et al., 2009)'
_computing_publication_material  'Olex2 1.3 (Dolomanov et al., 2009)'
_computing_structure_refinement  'SHELXL 2018/3 (Sheldrick, 2015)'
_computing_structure_solution    'SHELXT 2018/2 (Sheldrick, 2018)'
_diffrn_ambient_environment      'diamond-anvil cell'
_diffrn_ambient_pressure         250000
_diffrn_ambient_temperature      296
_diffrn_detector                 'CCD plate'
_diffrn_detector_area_resol_mean 16.2413
_diffrn_detector_type            Eos
_diffrn_measured_fraction_theta_full 0.335
_diffrn_measured_fraction_theta_max 0.310
_diffrn_measurement_details
;
List of Runs (angles in degrees, time in seconds):

  # Type    Start    End  Width  t~exp~   \w     \q     \k     \f   Frames
--------------------------------------------------------------------------
  1  \f    -35.00  19.75   0.75   20.00   0.00 -30.00   0.00    --    73
  2  \f    140.00 200.00   0.75   20.00   0.00 -30.00   0.00    --    80
  3  \f    160.00 217.00   0.75   20.00   0.00  30.00   0.00    --    76
  4  \f    -20.00  34.75   0.75   20.00   0.00  30.00   0.00    --    73
  5  \w    -24.00  24.00   0.75   20.00    --   30.00  39.46 -12.90   64
  6  \w    -24.00  24.00   0.75   20.00    --   30.00  39.46 167.10   64
  7  \w    -50.00  10.00   0.75   20.00    --  -30.00  39.46 167.10   80
  8  \w    -50.00  10.00   0.75   20.00    --  -30.00  39.46 -12.90   80
  9  \w    -64.00  -8.50   0.75   20.00    --  -30.00  81.40 -28.90   74
 10  \w    -64.00  -8.50   0.75   20.00    --  -30.00  81.40 151.10   74
 11  \w    -19.00   8.00   0.75   20.00    --   30.00  81.40 151.10   36
 12  \w    -19.00   8.00   0.75   20.00    --   30.00  81.40 -28.90   36
 13  \w    -43.00 -21.25   0.75   20.00    --   30.00 134.60 -56.90   29
 14  \w    -43.00 -21.25   0.75   20.00    --   30.00 134.60 123.10   29
 15  \w    -90.00 -36.00   0.75   20.00    --  -30.00 134.60 123.10   72
 16  \w    -90.00 -36.00   0.75   20.00    --  -30.00 134.60 -56.90   72
;
_diffrn_measurement_device       'four-circle diffractometer'
_diffrn_measurement_device_type  'KM-4 CCD'
_diffrn_measurement_method
;
HP omega scans - for more details see:
A. Budzianowski, A. Katrusiak in High-Pressure Crystallography
(Eds.: A. Katrusiak, P. F. McMillan),
Dordrecht: Kluwer Acad. Publ., 2004 pp.157-168
;
_diffrn_orient_matrix_type
'CrysAlisPro convention (1999,Acta A55,543-557)'
_diffrn_orient_matrix_UB_11      -0.0918354909
_diffrn_orient_matrix_UB_12      -0.0024125635
_diffrn_orient_matrix_UB_13      -0.0241131265
_diffrn_orient_matrix_UB_21      0.0042109730
_diffrn_orient_matrix_UB_22      -0.0538164071
_diffrn_orient_matrix_UB_23      0.0009669175
_diffrn_orient_matrix_UB_31      0.0003553104
_diffrn_orient_matrix_UB_32      -0.0000795683
_diffrn_orient_matrix_UB_33      0.1248763409
_diffrn_radiation_monochromator  graphite
_diffrn_radiation_type           MoK\a
_diffrn_radiation_wavelength     0.71073
_diffrn_reflns_av_R_equivalents  0.0400
_diffrn_reflns_av_unetI/netI     0.0279
_diffrn_reflns_Laue_measured_fraction_full 0.324
_diffrn_reflns_Laue_measured_fraction_max 0.298
_diffrn_reflns_limit_h_max       3
_diffrn_reflns_limit_h_min       -3
_diffrn_reflns_limit_k_max       16
_diffrn_reflns_limit_k_min       -16
_diffrn_reflns_limit_l_max       7
_diffrn_reflns_limit_l_min       -6
_diffrn_reflns_number            3307
_diffrn_reflns_point_group_measured_fraction_full 0.324
_diffrn_reflns_point_group_measured_fraction_max 0.298
_diffrn_reflns_theta_full        25.242
_diffrn_reflns_theta_max         27.071
_diffrn_reflns_theta_min         3.968
_diffrn_source                   'fine-focus sealed X-ray tube'
_diffrn_source_type              'Enhance (Mo) X-ray Source'
_exptl_absorpt_coefficient_mu    0.570
_exptl_absorpt_correction_T_max  1.00000
_exptl_absorpt_correction_T_min  0.47529
_exptl_absorpt_correction_type   multi-scan
_exptl_absorpt_process_details
;
CrysAlisPro 1.171.39.46 (Rigaku Oxford Diffraction, 2018)
Empirical absorption correction using spherical harmonics,
 implemented in SCALE3 ABSPACK scaling algorithm.
;
_exptl_crystal_colour            colourless
_exptl_crystal_density_diffrn    1.789
_exptl_crystal_description       colourless
_exptl_crystal_F_000             312
_exptl_crystal_size_max          0.34
_exptl_crystal_size_mid          0.28
_exptl_crystal_size_min          0.27
_refine_diff_density_max         0.096
_refine_diff_density_min         -0.101
_refine_diff_density_rms         0.028
_refine_ls_extinction_method     none
_refine_ls_goodness_of_fit_ref   1.158
_refine_ls_hydrogen_treatment    constr
_refine_ls_matrix_type           full
_refine_ls_number_parameters     91
_refine_ls_number_reflns         379
_refine_ls_number_restraints     0
_refine_ls_restrained_S_all      1.158
_refine_ls_R_factor_all          0.0777
_refine_ls_R_factor_gt           0.0340
_refine_ls_shift/su_max          0.000
_refine_ls_shift/su_mean         0.000
_refine_ls_structure_factor_coef Fsqd
_refine_ls_weighting_details
'w=1/[\s^2^(Fo^2^)+(0.0224P)^2^+0.0843P] where P=(Fo^2^+2Fc^2^)/3'
_refine_ls_weighting_scheme      calc
_refine_ls_wR_factor_gt          0.0570
_refine_ls_wR_factor_ref         0.0665
_reflns_Friedel_coverage         0.000
_reflns_number_gt                250
_reflns_number_total             379
_reflns_threshold_expression     'I > 2\s(I)'
_cod_data_source_file            lt5042.cif
_cod_data_source_block           C4H2N5Cl1@0_25GPa_phase_beta
_cod_original_cell_volume        577.5(3)
_cod_database_code               1565887
_shelx_shelxl_version_number     2018/3
_chemical_oxdiff_formula         C4H2N5Cl1
_shelx_space_group_comment
;
The symmetry employed for this shelxl refinement is uniquely defined
by the following loop, which should always be used as a source of
symmetry information in preference to the above space-group names.
They are only intended as comments.
;
_reflns_odcompleteness_completeness 29.69
_reflns_odcompleteness_theta     27.01
_reflns_odcompleteness_iscentric 1
_olex2_refinement_description
;
1. Fixed Uiso
 At 1.2 times of:
  All C(H) groups
2.a Aromatic/amide H refined with riding coordinates:
 C8(H8), C7(H7)
;
_shelx_res_file
;
TITL a_a.res in P2(1)/c
    a.res
    created by SHELXL-2018/3 at 13:32:47 on 14-Jul-2020
REM Old TITL a in P2(1)/c
REM SHELXT solution in P2(1)/c
REM R1 0.219, Rweak 0.027, Alpha 0.063, Orientation as input
REM Formula found by SHELXT: C7 C8 Cl
CELL 0.71073 7.8641 13.1668 5.6843 90 101.159 90
ZERR 4 0.0036 0.0006 0.0004 0 0.016 0
LATT 1
SYMM -X,0.5+Y,0.5-Z
SFAC C H Cl N
UNIT 16 8 4 20

L.S. 44
PLAN  5
CONF
BOND $H
list 4
fmap 2 53
acta
MORE -1
REM <olex2.extras>
REM <HklSrc "%.\\a.hkl">
REM </olex2.extras>

WGHT    0.022400    0.084300
FVAR       0.68299
CL1   3    1.026314    0.339333    0.841450    11.00000    0.12094    0.06158 =
         0.04966    0.00769    0.02033    0.00414
N4    4    0.559318    0.353522    0.537406    11.00000    0.20457    0.03392 =
         0.04685    0.00041    0.05355    0.01083
N5    4    0.693639    0.331627    0.700508    11.00000    0.05726    0.04223 =
         0.03175   -0.00222   -0.01051   -0.00539
N1    4    0.392147    0.415926    0.228180    11.00000    0.15247    0.04142 =
         0.05525    0.00010    0.02337    0.00772
N3    4    0.402115    0.337196    0.573874    11.00000    0.07475    0.04918 =
         0.04711   -0.00424    0.00538   -0.00359
N2    4    0.297411    0.374644    0.384722    11.00000    0.11719    0.04711 =
         0.06116   -0.00498    0.01744    0.00951
C8    1    0.708076    0.424570    0.256497    11.00000    0.07132    0.03874 =
         0.02879    0.00040    0.01563    0.01187
AFIX  43
H8    2    0.709793    0.455552    0.109945    11.00000   -1.20000
AFIX   0
C6    1    0.847090    0.357461    0.636906    11.00000    0.14111    0.03427 =
         0.04612    0.00086    0.03925    0.00644
C9    1    0.546556    0.401010    0.323223    11.00000    0.17936    0.02929 =
         0.04540    0.00366    0.07457    0.01138
C7    1    0.860144    0.401491    0.408473    11.00000    0.04934    0.03847 =
         0.04047   -0.00008    0.02727    0.00478
AFIX  43
H7    2    0.966977    0.413585    0.366676    11.00000   -1.20000
AFIX   0
HKLF 4




REM  a_a.res in P2(1)/c
REM wR2 = 0.0665, GooF = S = 1.158, Restrained GooF = 1.158 for all data
REM R1 = 0.0340 for 250 Fo > 4sig(Fo) and 0.0777 for all 379 data
REM 91 parameters refined using 0 restraints

END

WGHT      0.0224      0.0843

REM Highest difference peak  0.096,  deepest hole -0.101,  1-sigma level  0.028
Q1    1   0.5996  0.3799  0.2239  11.00000  0.05    0.10
Q2    1   0.2401  0.3221  0.6971  11.00000  0.05    0.09
Q3    1   0.7948  0.2814  0.9067  11.00000  0.05    0.09
Q4    1   0.8353  0.4834  0.1588  11.00000  0.05    0.09
Q5    1   0.3887  0.3643  0.8606  11.00000  0.05    0.09
;
_shelx_res_checksum              77318
_shelx_hkl_file
;
   0   0   2  780.72   17.00
   0   0  -2  786.12   15.00
   0   0  -2  770.52   15.80
   0   0   2  778.02   15.70
   0   0   2  791.62   17.10
   0   0   2  743.73   15.60
   0   0  -3   -4.10    2.30
   0   0  -3    0.30    1.30
   0   0   3    2.70    2.10
   0   0   3    1.00    1.50
   0   0   3    0.50    2.00
   0   0   3    1.40    2.70
   0   0  -3    1.90    2.60
   0   0   3    2.60    2.60
   0   0  -4  111.79    8.60
   0   0   4  106.49    9.70
   0   0  -4  122.19    9.90
   0   0   4   97.39    8.70
   0   0   4  105.89    9.50
   0   0   4   95.09    8.80
   0   0   5   -9.70    6.70
   0   0  -5   -3.10    4.80
   0   0  -5   -2.40    4.00
   0   0   5    7.70    6.70
   0   0   5    6.30    5.40
   0   0   5    4.50    3.90
   0   0   6   16.40    7.60
   0   0   6   -2.40    6.60
   0   1  -1 1099.89   13.60
   0   1  -2  215.08    8.40
   0   1   2  224.48    9.10
   0  -1   2  216.38    9.00
   0   1  -2  221.48    7.80
   0   1   2  210.88    8.80
   0  -1  -2  213.38    7.00
   0   1  -2  213.58    8.50
   0  -1   2  210.78    7.40
   0  -1   2  207.98    8.90
   0  -1   2  185.18    7.40
   0   1   2  228.18    8.00
   0  -1   2  205.88    8.90
   0  -1  -2  216.78    8.40
   0   1   2  213.38    8.70
   0   1   2  200.78    7.40
   0  -1  -2  208.08    7.60
   0  -1   3    6.30    2.00
   0   1   3    5.20    3.00
   0  -1   3    6.00    3.10
   0  -1  -3    4.10    1.90
   0   1   3    6.40    2.80
   0  -1   3    5.60    2.60
   0   1   3    8.60    2.80
   0   1  -3    8.40    2.80
   0   1  -3    5.30    2.60
   0  -1  -3    5.70    2.00
   0   1   3   11.20    3.60
   0  -1   3   10.20    2.80
   0  -1  -3    5.30    2.90
   0  -1   3    6.50    3.10
   0   1  -4  105.39    8.60
   0   1   4   81.29    7.80
   0  -1  -4  101.39    8.80
   0   1  -4   95.89    8.80
   0   1   4   86.79    9.00
   0  -1  -4   94.19    7.60
   0  -1   4   86.99    8.50
   0   1   4   83.69    8.40
   0  -1   4   81.99    8.70
   0  -1   4   89.79    8.50
   0   1   4   80.69    8.50
   0  -1   4   88.39    8.80
   0  -1   5   15.60    5.90
   0   1   5    2.40    4.20
   0   1  -5   -1.50    4.40
   0   1   5   10.00    4.60
   0  -1   5    7.50    4.80
   0   1   5   13.50    6.10
   0  -1  -5   18.90    6.00
   0   1  -5    3.90    3.70
   0  -1   5    5.00    4.60
   0   1   6   25.20    7.70
   0  -1   6   28.10    7.50
   0  -1  -6   28.60    7.20
   0  -1   6   35.60    8.70
   0   1   6   28.30    8.40
   0  -1   6   31.60    7.70
   0   2  -1   60.29    3.50
   0  -2  -1   53.49    3.30
   0   2  -1   55.19    3.40
   0   2   2   31.30    3.80
   0  -2   2   35.40    3.80
   0   2  -2   30.70    3.60
   0   2  -2   33.00    3.60
   0  -2   2   30.10    3.50
   0  -2  -2   32.40    3.60
   0  -2   2   33.40    3.40
   0  -2  -2   28.80    2.70
   0   2  -2   32.90    3.40
   0   2   2   31.30    3.70
   0  -2   2   27.10    3.70
   0  -2  -2   29.20    3.20
   0   2   2   31.40    3.20
   0   2   2   30.60    3.50
   0   2   3  156.88    9.80
   0  -2   3  157.18    9.70
   0   2   3  169.98   10.00
   0   2  -3  164.48    8.70
   0   2  -3  165.38    9.20
   0  -2  -3  141.79    7.50
   0  -2   3  163.98   10.10
   0  -2   3  154.88    8.40
   0   2   3  164.88    9.90
   0  -2   3  152.78    8.60
   0   2   3  161.48    8.30
   0  -2  -3  150.28    9.10
   0   2   3  159.68    8.80
   0   2  -3  167.78    9.40
   0  -2   3  146.09    9.50
   0  -2  -3  154.68    7.80
   0   2  -4   39.00    6.20
   0  -2  -4   42.80    5.90
   0   2   4   30.20    5.90
   0  -2   4   33.40    5.90
   0  -2   4   33.40    5.80
   0   2   4   32.40    5.20
   0   2   4   25.70    5.50
   0   2  -4   38.40    5.70
   0  -2   4   23.20    5.50
   0  -2   4   29.10    5.60
   0   2   4   29.90    6.10
   0   2  -5   73.89    8.40
   0  -2   5   60.29    9.10
   0   2   5   51.69    8.00
   0   2   5   73.89    9.60
   0  -2   5   70.39    9.90
   0  -2  -5   82.69   10.30
   0   2  -5   87.89    9.60
   0  -2   5   65.29    8.80
   0   2   5   51.89    8.90
   0   2  -6    8.80    5.70
   0  -2  -6   23.00    7.10
   0  -2   6   15.60    6.10
   0   2   6    7.80    5.90
   0  -2   6    5.30    6.80
   0   2   6    2.10    6.80
   0  -2   6   -2.90    7.70
   0   3   0    0.10    0.70
   0  -3   0   -0.10    0.90
   0   3   0   -0.90    0.70
   0  -3   0   -0.40    0.70
   0   3   1  894.11   14.00
   0   3   1  875.41   15.10
   0  -3   1  910.31   16.00
   0   3  -1  888.21   14.70
   0   3   1  897.41   15.30
   0  -3   1  904.61   14.60
   0   3  -1  903.11   13.40
   0  -3  -1  902.31   15.20
   0  -3  -1  877.71   13.60
   0   3  -1  907.11   12.70
   0  -3   1  901.11   15.60
   0   3  -1  908.11   14.50
   0   3   2  258.27    9.90
   0  -3   2  249.38    9.30
   0   3   2  262.17    9.80
   0  -3  -2  276.57    9.90
   0   3  -2  249.08    9.30
   0  -3   2  251.07    9.90
   0  -3   2  255.27   10.10
   0   3  -2  238.98    8.10
   0   3   2  255.47    8.00
   0  -3   2  267.87   10.10
   0  -3  -2  264.57    8.90
   0   3   2  266.87   10.70
   0  -3  -2  255.87    7.60
   0   3  -2  246.78    9.50
   0  -3  -2  253.07    9.60
   0   3  -2  249.48    7.30
   0  -3   2  267.77   11.00
   0   3   2  268.97   10.00
   0   3  -2  263.77   10.00
   0  -3   3  128.59    9.10
   0   3   3  112.99    6.70
   0  -3   3  114.79    7.90
   0   3   3  124.29    9.00
   0  -3  -3  123.89    7.70
   0   3   3  106.89    8.20
   0   3  -3  121.29    8.10
   0  -3   3  116.39    8.90
   0   3  -3  120.99    8.00
   0  -3   3  110.99    8.20
   0   3  -3  110.29    7.70
   0   3   3  121.19    8.00
   0   3   3  112.19    8.20
   0  -3  -3  133.39    8.80
   0   3   4    2.80    3.60
   0   3   4   -1.00    3.70
   0   3  -4    3.40    3.80
   0  -3   4   -5.10    4.30
   0   3  -4   -4.00    3.70
   0  -3   4    0.80    3.20
   0  -3   4    5.10    4.20
   0  -3  -4   -1.50    3.20
   0   3   4    4.30    3.30
   0  -3   5    5.40    5.00
   0   3  -5   12.20    5.60
   0   3   5    5.90    5.50
   0  -3  -5    1.20    5.20
   0  -3   5    2.30    4.50
   0   3   5    4.80    5.60
   0  -3   5    4.30    3.70
   0   3  -5    7.50    4.50
   0   3   5   10.80    5.70
   0  -3  -6   -4.70    6.00
   0  -3   6   17.60    7.00
   0   3   6    7.60    6.70
   0  -3   6   14.10    6.50
   0   3  -6    8.60    5.80
   0  -3   6   -2.40    6.40
   0  -3  -6   21.70    9.10
   0   3   6    6.10    5.40
   0  -4   0 9777.92   48.50
   0  -4   0 9696.73   52.19
   0   4   0 9999.00   47.90
   0  -4   0 9685.83   48.50
   0   4   0 9650.73   49.90
   0   4   0 9735.63   48.00
   0  -4   1 4992.70   39.30
   0   4   1 4919.61   37.20
   0  -4  -1 4957.70   40.00
   0   4  -1 4980.90   36.10
   0  -4   1 4983.70   32.10
   0  -4  -1 5066.99   37.20
   0   4   1 4966.90   40.00
   0  -4  -1 5004.40   37.80
   0  -4   1 4984.10   39.40
   0  -4   1 4978.50   41.90
   0   4   1 4975.60   38.70
   0  -4   1 4928.61   39.50
   0   4  -1 4988.70   36.00
   0   4   1 4953.00   38.00
   0   4   1 4974.60   29.40
   0   4  -1 4945.10   38.40
   0   4  -1 4971.20   30.80
   0   4  -1 4961.90   36.50
   0  -4   2   46.90    4.60
   0  -4   2   49.10    4.40
   0  -4   2   49.20    5.20
   0   4  -2   47.10    3.70
   0  -4   2   53.99    4.90
   0   4   2   43.60    4.00
   0   4   2   45.60    4.70
   0  -4  -2   50.79    4.50
   0   4   2   45.70    4.40
   0  -4   2   40.40    4.20
   0   4   2   40.90    4.70
   0   4  -2   50.89    4.90
   0   4  -2   42.70    4.60
   0   4  -2   50.49    4.20
   0  -4   2   54.49    5.50
   0  -4  -2   47.60    4.70
   0   4  -2   47.10    4.50
   0   4   2   44.40    4.30
   0  -4  -2   51.29    4.10
   0   4   2   43.20    4.00
   0  -4  -2   49.90    4.10
   0   4   3    1.60    2.50
   0  -4   3    1.40    2.10
   0   4   3   -0.30    2.80
   0  -4   3    2.00    3.20
   0   4  -3   -1.70    2.70
   0   4   3   -1.30    2.30
   0  -4  -3    3.60    3.20
   0  -4   3   -2.50    2.90
   0  -4  -3   -0.60    2.30
   0  -4   3    1.80    2.40
   0   4   3   -1.30    2.70
   0   4  -3    0.40    2.20
   0   4  -3    3.50    2.80
   0  -4  -4  103.39    9.30
   0  -4   4   75.09    7.80
   0   4   4   75.59    8.60
   0   4   4   79.79    8.90
   0   4   4   73.39    7.60
   0  -4   4   78.49    9.10
   0   4  -4   89.69    8.80
   0  -4  -4   94.89    8.40
   0   4  -4   87.89    8.30
   0  -4   4   81.59    8.60
   0   4   4   94.09    9.80
   0   4  -4  100.19    9.00
   0  -4   4   71.69    8.60
   0   4  -5   -1.60    4.50
   0  -4   5    7.10    4.60
   0   4  -5   -5.80    4.00
   0  -4   5    0.10    5.40
   0  -4   5    4.50    5.60
   0   4   5    5.50    4.30
   0  -4  -5    6.10    5.20
   0   4   5    2.50    4.20
   0  -4  -5    3.10    5.20
   0   4   5   -2.10    5.60
   0   4   6    1.60    6.90
   0  -4  -6    8.40    7.70
   0  -4  -6   11.40    8.70
   0  -4   6    8.20    7.30
   0  -4   6   -0.90    6.10
   0   4  -6    3.60    5.20
   0   5   0    0.30    1.30
   0   5   0    0.50    1.40
   0   5   0   -2.30    1.50
   0   5   0    1.80    1.00
   0  -5   0   -0.60    1.70
   0  -5   0   -0.50    1.30
   0  -5   0    1.90    1.40
   0  -5   0    0.40    0.90
   0  -5   0    1.30    1.50
   0   5   0    1.10    1.50
   0  -5  -1  299.37   10.50
   0   5  -1  296.77    8.20
   0  -5  -1  301.17   10.90
   0  -5   1  292.17   10.80
   0   5  -1  291.07    9.90
   0   5   1  299.17    8.50
   0   5  -1  301.27    9.70
   0   5   1  287.27   10.30
   0  -5  -1  300.37    8.70
   0   5  -1  290.97    7.90
   0  -5   1  305.97   11.50
   0   5   1  298.87   10.80
   0  -5   1  303.87   10.40
   0   5   1  317.77   10.60
   0  -5  -1  303.97   10.30
   0   5  -1  293.17   10.40
   0  -5   1  304.97   11.10
   0   5  -1  306.17   10.00
   0   5   1  310.77   10.50
   0  -5   1  306.37    9.20
   0  -5   2   23.90    3.70
   0   5  -2   20.50    3.00
   0   5   2   23.50    3.80
   0   5  -2   24.40    3.40
   0  -5   2   21.80    3.90
   0   5  -2   24.20    3.60
   0   5   2   25.30    3.60
   0  -5  -2   17.00    2.90
   0   5   2   25.00    3.60
   0  -5   2   23.10    3.40
   0   5   2   20.90    3.20
   0  -5  -2   22.20    3.30
   0   5   2   20.50    3.60
   0  -5  -2   23.80    4.20
   0   5  -2   20.80    3.00
   0   5  -2   26.20    4.10
   0  -5   2   26.70    4.20
   0   5   2   24.00    3.60
   0  -5   2   23.60    3.40
   0  -5   2   23.90    3.40
   0  -5  -2   28.70    3.60
   0   5   3   89.89    7.90
   0   5   3   93.49    8.60
   0   5  -3   99.39    8.10
   0   5   3   82.59    7.40
   0  -5   3   86.49    7.70
   0  -5  -3  100.79    8.30
   0  -5   3   99.69    9.10
   0   5  -3   92.39    7.80
   0  -5   3   80.49    7.10
   0   5  -3   85.89    7.40
   0  -5  -3   97.99    8.10
   0   5   3   93.49    8.10
   0  -5   3   90.39    8.10
   0  -5  -4   89.89    9.60
   0   5  -4  112.19    9.50
   0   5   4   88.79    9.90
   0  -5   4   72.49    8.10
   0   5   4   73.59    8.70
   0   5   4   78.69    8.70
   0  -5   4  104.99   12.40
   0   5  -4  100.69    9.20
   0  -5  -4   93.19    8.90
   0   5  -4   90.79    8.90
   0  -5   4   62.49    8.20
   0   5   4   93.09    9.40
   0  -5   4   85.19    9.20
   0  -5   5   10.00    6.00
   0   5   5   18.20    6.30
   0   5  -5    1.50    4.20
   0  -5  -5   13.90    6.70
   0   5   5    4.60    5.50
   0   5   5    4.00    5.50
   0  -5   5    6.40    5.40
   0   5  -5   -1.40    4.10
   0  -5   5    3.70    5.10
   0  -5  -6   32.70   10.60
   0   5  -6   26.90    7.20
   0   5  -6   16.60    5.70
   0   5   6   22.10    9.30
   0  -5   6   26.40    9.00
   0   5   6   25.40   10.60
   0  -5   6   10.80    7.40
   0  -5  -6   26.10    8.80
   0  -6   0  497.15   14.80
   0  -6   0  531.25   11.00
   0  -6   0  515.25   11.40
   0  -6   0  552.94   15.60
   0   6   0  535.85   14.10
   0  -6   0  531.95   14.30
   0   6   0  543.05   14.10
   0  -6   0  526.35   14.20
   0   6   0  558.84   15.00
   0   6   0  508.45   10.80
   0   6   0  576.04   15.20
   0   6  -1    3.40    2.40
   0  -6  -1    2.50    2.70
   0   6   1    1.80    2.10
   0   6   1   -0.30    1.70
   0   6   1    2.70    2.40
   0  -6  -1    2.70    2.00
   0  -6   1    4.30    2.90
   0   6  -1    3.60    2.30
   0  -6  -1    5.70    3.00
   0   6  -1    4.60    2.50
   0  -6   1    1.90    2.20
   0   6  -1    4.10    2.50
   0   6  -1    2.50    2.30
   0   6   1    5.30    2.50
   0  -6   1    1.70    2.70
   0  -6  -1    1.80    2.00
   0   6   1   -0.10    2.30
   0  -6   1    4.70    2.60
   0  -6   1    5.60    2.90
   0  -6  -1    2.20    1.30
   0  -6   2   57.09    5.60
   0   6   2   58.59    5.70
   0   6   2   56.89    4.90
   0   6  -2   63.59    6.30
   0   6  -2   59.69    5.40
   0  -6   2   64.89    6.20
   0   6   2   59.49    6.20
   0  -6   2   50.59    4.70
   0  -6   2   67.79    6.70
   0  -6  -2   61.29    5.40
   0   6   2   65.89    5.90
   0   6   2   48.10    4.70
   0   6   2   57.89    6.10
   0  -6   2   57.69    5.00
   0  -6  -2   60.79    5.60
   0  -6  -2   68.59    5.80
   0  -6  -2   59.99    6.30
   0  -6   2   58.49    6.30
   0   6  -2   56.99    5.20
   0   6  -2   62.49    5.90
   0   6  -2   61.69    5.50
   0   6  -3    5.50    3.40
   0  -6   3   -3.20    3.40
   0   6   3    1.50    3.20
   0   6   3   -2.10    3.30
   0  -6  -3   -1.20    3.20
   0  -6   3    2.50    3.00
   0   6   3   -0.90    2.30
   0  -6  -3   -1.40    3.20
   0  -6   3    1.40    3.30
   0   6  -3    2.90    3.90
   0  -6   3    1.50    3.40
   0   6   3   -3.20    3.40
   0   6  -3   -0.70    2.70
   0   6  -4  108.69    9.80
   0  -6   4   87.09   10.40
   0   6   4   89.89    9.30
   0  -6   4  101.99   10.10
   0   6   4   97.79    9.90
   0  -6  -4  109.99   10.70
   0   6   4   86.09    9.00
   0  -6   4   95.49    9.20
   0   6  -4  101.39    9.40
   0  -6   4   92.29    9.40
   0   6  -4  113.69   10.30
   0   6   4   98.99   10.90
   0  -6   5   -2.30    4.50
   0   6  -5   -0.20    4.20
   0   6   5   -4.30    5.90
   0  -6   5   -6.20    6.10
   0   6  -5   -5.90    4.10
   0   6   5    3.30    3.80
   0  -6  -5   -5.90    6.60
   0  -6   5    0.10    5.60
   0   6   5   -7.20    5.40
   0   6  -6   57.39   10.00
   0  -6  -6   62.19   13.20
   0  -6   6   37.10    9.80
   0   6  -6   56.99    9.70
   0  -6   6   40.50    9.90
   0   7   0   -0.10    2.00
   0  -7   0    0.10    2.00
   0   7   0   -7.60    3.00
   0  -7   0   -1.50    1.70
   0   7   0    2.40    1.50
   0   7   0   -1.10    2.30
   0  -7   0   -1.20    2.20
   0  -7   0   -0.50    2.10
   0   7   0    0.10    1.50
   0  -7   0   -0.80    1.40
   0  -7   0    0.30    2.50
   0   7   0    0.30    1.80
   0  -7  -1   82.29    6.80
   0  -7   1  100.29    7.60
   0   7  -1  106.49    6.30
   0  -7  -1  102.79    7.70
   0   7   1  109.79    7.80
   0   7  -1  107.59    6.80
   0  -7   1   93.39    6.80
   0   7   1   97.29    7.50
   0  -7   1   97.59    6.60
   0  -7  -1  101.69    7.70
   0  -7   1   95.79    7.50
   0  -7   1  102.59    7.80
   0   7  -1  104.09    7.40
   0   7  -1  106.99    7.40
   0   7   1  101.09    6.50
   0  -7  -1   98.29    6.50
   0   7  -1  101.59    7.30
   0   7   1  110.09    7.90
   0   7   1  101.29    7.20
   0  -7  -2   64.39    6.90
   0   7   2   75.79    7.30
   0   7  -2   77.69    6.50
   0  -7  -2   61.99    6.10
   0   7  -2   73.39    6.70
   0  -7  -2   76.69    7.00
   0  -7   2   69.39    7.20
   0  -7   2   68.09    6.80
   0  -7   2   60.79    7.00
   0  -7   2   77.49    7.40
   0   7  -2   75.19    6.40
   0   7  -2   72.89    7.10
   0   7   2   80.89    7.10
   0   7   2   73.39    6.90
   0   7   2   73.89    7.20
   0  -7   3   60.69    8.00
   0   7  -3   53.49    6.60
   0   7   3   52.79    7.00
   0  -7  -3   60.49    7.70
   0   7  -3   62.89    7.20
   0   7   3   52.29    7.40
   0  -7   3   48.30    7.70
   0   7  -4   32.80    6.50
   0   7   4   37.30    7.70
   0   7  -4   31.00    5.80
   0  -7  -4   21.80    6.10
   0   7   4   15.90    4.40
   0  -7  -4   26.90    7.20
   0  -7   4   24.70    6.70
   0  -7   4   34.40    7.90
   0   7   5   -4.40    5.40
   0   7  -5   -5.30    5.50
   0  -7   5   -3.30    5.40
   0  -7  -5   -2.30    6.20
   0  -7   6  -10.40    8.50
   0  -8   0    1.90    2.60
   0  -8   0    2.70    2.80
   0   8   0    3.40    2.30
   0   8   0   -0.30    2.70
   0  -8   0    0.50    2.50
   0   8   0    5.20    3.00
   0   8   0   -0.50    2.40
   0  -8   0    5.00    2.70
   0   8   1 1590.54   29.00
   0  -8   1 1585.54   28.30
   0   8  -1 1602.34   26.80
   0   8  -1 1549.34   29.40
   0  -8  -1 1610.34   28.10
   0  -8  -1 1667.43   32.60
   0  -8  -1 1659.13   27.70
   0  -8  -1 1611.24   31.70
   0   8   1 1577.74   27.70
   0   8   1 1609.64   31.70
   0   8   1 1654.43   31.70
   0   8  -1 1645.14   31.20
   0  -8   1 1587.64   32.30
   0  -8   1 1563.04   32.30
   0   8  -1 1568.64   29.90
   0  -8   1 1582.74   28.50
   0  -8  -1 1441.16   29.50
   0   8  -1 1598.84   27.50
   0   8   1 1588.64   30.90
   0  -8   1 1528.75   31.90
   0   8   2  116.59    9.30
   0   8   2  127.89    9.90
   0  -8   2  113.69    9.40
   0  -8   2  111.49    9.90
   0  -8   2  123.59    9.50
   0   8   2  129.49    9.80
   0   8   2  129.59    9.70
   0   8  -2  119.09    8.80
   0  -8   2  112.29    9.30
   0   8  -2  130.39    9.60
   0   8  -2  120.49    8.90
   0  -8  -2  138.99   10.30
   0  -8  -2  130.89    9.60
   0   8  -2  124.99    8.70
   0  -8  -2  111.49    8.80
   0  -8  -2  119.49    9.10
   0  -8   3   24.10    6.50
   0   8   3   17.60    5.80
   0  -8   3   17.80    5.10
   0  -8  -3   19.20    5.40
   0   8   3   12.30    4.50
   0  -8  -3   18.90    5.70
   0   8  -3   15.50    5.40
   0  -8  -3   16.10    5.30
   0   8  -3   17.30    4.90
   0   8   4   37.90    8.00
   0  -8  -4   35.60    7.10
   0   8  -4   41.70    7.30
   0  -8   4   29.30    7.10
   0   8  -4   29.80    6.30
   0   8   4   46.20    8.30
   0  -8  -4   37.00    8.00
   0  -8   4   33.00    7.70
   0   8  -5   -8.50    6.70
   0  -8   5   21.20    6.90
   0   8  -5  -34.20   10.00
   0  -8   5  -13.00    7.90
   0   8   5   14.50    6.50
   0  -8  -5   17.80    7.60
   0  -8  -5   12.60    8.00
   0  -8   6   14.20    9.40
   0  -9   0   -0.20    2.90
   0  -9   0   -0.80    3.40
   0   9   0    3.30    3.20
   0   9   0   -0.10    2.90
   0   9   0   -1.30    3.10
   0  -9   0   -1.70    3.20
   0  -9   0    0.60    2.90
   0   9   0   -1.90    3.50
   0   9   1   24.60    5.20
   0  -9   1   28.20    4.90
   0  -9  -1   26.70    5.20
   0  -9  -1   24.30    4.10
   0  -9   1   24.40    5.20
   0  -9   1   24.10    4.60
   0  -9   1   23.90    5.30
   0   9  -1   24.70    4.40
   0   9   1   19.10    4.20
   0   9   1   25.00    4.90
   0  -9  -1   27.50    4.70
   0   9   1   28.20    4.90
   0  -9  -1   20.20    5.00
   0   9  -1   16.80    4.50
   0   9  -1   26.70    5.10
   0   9  -1   23.00    4.60
   0  -9  -1   29.50    5.40
   0   9   1   22.40    5.00
   0   9  -1   26.10    4.40
   0  -9   1   27.70    5.20
   0  -9  -2    8.20    3.50
   0   9   2    7.80    4.40
   0  -9  -2   11.20    4.90
   0   9  -2    4.10    3.40
   0  -9  -2    4.40    3.70
   0  -9   2   10.40    4.80
   0  -9   2    7.80    4.70
   0  -9  -2    8.90    3.90
   0   9  -2    7.30    3.80
   0   9  -2    5.60    4.10
   0   9   2    9.90    4.70
   0   9   2    8.00    4.60
   0  -9   2    7.60    4.30
   0   9  -2   13.30    4.30
   0   9   2    4.10    4.00
   0  -9   2    9.80    4.70
   0   9   3  112.09   11.10
   0   9   3  105.89   11.00
   0  -9   3  109.19   11.20
   0  -9  -3  114.49   11.10
   0  -9  -3  122.29   11.10
   0   9  -3  120.59   11.00
   0   9  -3  119.19   10.30
   0  -9  -3  112.19   10.50
   0   9  -3  116.19    9.50
   0  -9   3  114.59   11.90
   0  -9  -4   21.60    7.10
   0   9  -4   21.30    5.90
   0  -9   4    2.00    5.40
   0   9   4   14.40    7.10
   0  -9  -4   10.30    6.00
   0   9   4   23.20    7.80
   0   9  -4    8.40    4.80
   0  -9   4    4.90    5.00
   0   9  -5    2.80    5.50
   0  -9   5   -3.00    6.20
   0  -9  -5  -11.00    8.70
   0  -9   5  -22.60    9.60
   0  -9  -5  -26.20    9.70
   0   9   5   -1.70    7.40
   0   9  -5    1.40    5.00
   0  10   0  143.49   10.40
   0 -10   0  123.89   10.50
   0  10   0  140.79   10.40
   0 -10   0  125.19   10.80
   0  10   0  138.89   10.70
   0 -10   0  132.79   10.50
   0  10   0  134.59   10.50
   0 -10   0  131.89   10.40
   0 -10   1   30.80    6.90
   0  10  -1   23.90    5.50
   0  10  -1   24.60    5.50
   0  10   1   30.30    6.40
   0 -10  -1   22.10    6.20
   0 -10  -1   30.80    7.10
   0 -10  -1   33.80    7.50
   0 -10   1   14.90    4.30
   0 -10   1   16.70    3.80
   0  10   1   33.30    7.10
   0  10  -1   22.20    5.20
   0  10   1   33.40    7.30
   0  10  -2   13.60    4.80
   0 -10   2   14.10    5.20
   0  10   2    3.50    3.80
   0 -10  -2    8.70    5.30
   0  10  -2   19.40    5.60
   0 -10   2    8.30    5.10
   0  10   2   15.60    5.60
   0 -10   2   17.40    5.20
   0 -10   2   14.50    5.70
   0  10   2    6.10    4.70
   0 -10  -2   12.10    4.60
   0  10  -2    7.10    4.00
   0  10   2    7.70    5.00
   0 -10  -2   12.20    5.00
   0 -10  -2    4.50    3.40
   0  10  -2   15.20    5.00
   0 -10  -3   27.70    6.40
   0  10  -3   30.00    6.00
   0  10   3   17.40    5.70
   0 -10  -3   29.20    7.00
   0  10   3   22.40    6.90
   0 -10   3   18.50    6.80
   0 -10  -3   17.70    5.20
   0 -10   3   29.10    7.50
   0  10  -3   26.80    6.30
   0  10  -3   30.20    7.10
   0 -10  -4   18.40    7.80
   0  10   4    7.10    6.00
   0 -10   4   17.60    8.60
   0  10   4    0.20    6.80
   0  10  -4   14.30    5.60
   0 -10  -4    8.90    5.90
   0  10  -4   15.10    5.90
   0 -10   4   -0.50    5.60
   0 -10   5   20.40    7.70
   0 -10  -5   21.00    7.70
   0 -10   5   12.80    8.40
   0  10   5   33.10   10.20
   0  10  -5   22.10    7.30
   0  10  -5   16.70    6.50
   0 -10  -5   27.80    9.70
   0 -11   0    4.10    4.70
   0 -11   0    4.80    4.30
   0  11   0    0.40    4.40
   0 -11   0    2.00    4.00
   0 -11   0   -4.10    5.00
   0  11   0    1.90    3.80
   0  11   0    0.90    4.10
   0  11   0   -6.80    4.60
   0 -11  -1   -5.80    5.30
   0  11   1    2.00    3.80
   0 -11  -1    2.90    4.10
   0 -11   1    5.20    5.70
   0 -11  -1    2.10    4.60
   0 -11   1    2.30    3.70
   0 -11   1    6.60    5.40
   0  11   1   -5.90    5.10
   0  11  -1    1.60    3.90
   0  11   1   -2.30    4.70
   0  11  -1    5.30    4.60
   0  11  -1    4.30    4.50
   0 -11  -2    7.70    5.80
   0 -11  -2   -4.00   11.90
   0  11   2   11.70    5.40
   0 -11   2   -0.60    5.30
   0 -11   2    6.10    5.30
   0 -11  -2   -0.40    4.70
   0  11  -2    1.70    6.50
   0 -11   2    5.10    5.00
   0  11   2   11.10    5.10
   0  11  -2    7.20    4.60
   0  11  -2   -1.60    5.00
   0  11   2    4.30    5.90
   0 -11  -3    0.20    3.90
   0  11   3   -0.80    4.60
   0  11   3    7.10    6.10
   0 -11   3    0.40    5.60
   0 -11  -3    1.90    4.60
   0 -11   3  -16.80    7.90
   0  11  -3    7.80    5.40
   0  11   3    6.10    5.80
   0 -11  -3   -2.90    5.80
   0  11  -3    5.90    4.90
   0  11  -3    3.70    4.50
   0 -11  -4   17.00    8.90
   0  11   4   17.50    7.20
   0  11   4   16.50    7.40
   0 -11  -4   13.90    6.20
   0 -11   4   12.00    7.30
   0  11  -4   33.80    8.40
   0  11  -4   12.30    5.40
   0 -11   4    2.10    6.10
   0  11  -5    7.30    6.50
   0 -11  -5   -4.60    9.80
   0 -11   5    3.40    7.00
   0 -11   5    3.10    7.60
   0  12   0  295.87   17.00
   0  12   0  280.87   16.70
   0 -12   0  259.87   17.90
   0 -12   0  236.88   16.30
   0 -12   0  267.97   16.60
   0  12   0  275.87   17.20
   0 -12   0  277.47   16.90
   0  12   0  282.77   17.60
   0 -12  -1   61.79    9.10
   0  12  -1   56.59    8.40
   0  12   1   56.09    8.60
   0  12  -1   61.09    8.90
   0 -12   1   57.09    9.40
   0 -12   1   46.60    8.90
   0 -12  -1   60.49    9.90
   0  12  -1   59.69    8.60
   0 -12  -1   46.90    8.00
   0  12   1   60.79    9.40
   0  12   1   56.89    8.60
   0 -12   1   49.80    8.60
   0 -12   2   62.09    9.80
   0 -12  -2   54.09    9.80
   0 -12  -2   59.49    9.40
   0  12  -2   70.59    9.50
   0  12  -2   73.09    9.50
   0 -12  -2   34.00    8.90
   0 -12   2   67.09   10.10
   0  12   2   64.09    9.60
   0  12   2   52.19    8.70
   0 -12   2   59.09    9.40
   0  12   2   59.39    9.50
   0  12  -2   85.39   10.70
   0 -12  -3   45.10    9.90
   0  12   3   44.60    9.10
   0 -12  -3   31.30    8.60
   0  12   3   42.40    8.80
   0 -12   3   38.50    9.30
   0 -12  -3   44.10    8.20
   0 -12   3   24.40    7.70
   0  12  -3   36.80    7.20
   0  12  -3   50.79    8.40
   0  12   3   43.20    9.60
   0  12  -3   59.79   10.50
   0  12   4    1.00    6.30
   0 -12  -4   -1.60    6.50
   0 -12   4   -0.50    6.60
   0  12   4   10.00    7.20
   0 -12  -4    5.20    5.40
   0 -12   4    3.20    7.40
   0  12  -4   -7.30    7.60
   0  12  -4   -4.30    5.00
   0 -13   0   -0.50    4.90
   0 -13   0    9.30    6.40
   0  13   0    7.60    5.80
   0 -13   0   -7.30    5.60
   0  13   0    1.50    4.50
   0  13   0    5.60    5.50
   0 -13   0   -1.20    5.50
   0  13   0    7.70    6.10
   0 -13  -1   -7.50    6.20
   0 -13   1   -2.60    5.30
   0  13   1    3.50    5.30
   0  13  -1   12.90    6.80
   0 -13   1   -2.10    5.00
   0 -13   1    3.00    4.20
   0  13   1    6.80    4.90
   0 -13  -1    0.50    5.70
   0  13  -1   -1.70    5.10
   0 -13  -1    1.50    5.60
   0  13  -1    3.70    5.20
   0  13   1   14.20    6.80
   0 -13  -2   21.70    6.90
   0 -13  -2   23.20    8.30
   0 -13   2    8.40    8.10
   0  13   2   16.40    7.40
   0  13  -2   26.50    7.00
   0  13  -2   40.10    9.20
   0 -13   2    7.40    5.20
   0  13   2   25.70    7.40
   0  13  -2   23.90    6.80
   0  13   2    2.20    5.70
   0 -13   2   22.10    7.60
   0 -13  -2    0.20    5.10
   0 -13  -3   43.70    9.90
   0 -13   3    9.20    8.50
   0  13   3   28.30    8.70
   0  13  -3   44.30    9.80
   0  13   3   40.50   10.70
   0 -13   4  -21.70   10.70
   0  13   4    2.40    6.00
   0  13  -4    1.10    5.30
   0 -13  -4   -2.50    6.50
   0 -13   4    4.40    8.50
   0  14   0   12.00    6.40
   0  14   0    1.70    6.10
   0 -14   0    7.20    7.00
   0  14   0   16.20    7.70
   0 -14   0    9.10    6.40
   0 -14   0   -1.40    5.70
   0 -14  -1    3.50    7.30
   0 -14   1    9.90    5.70
   0 -14  -1    5.10    5.70
   0  14   1   22.80    7.10
   0  14  -1   13.50    6.80
   0 -14   1    4.70    5.90
   0  14   1    8.70    5.80
   0  14   1    7.90    6.30
   0 -14   1    8.20    7.70
   0  14  -1    9.00    5.70
   0 -14  -1   17.50    7.30
   0  14  -1   10.50    6.20
   0 -14  -2   -4.00    6.40
   0  14   2   -0.60    6.30
   0 -14  -2    3.50    6.20
   0 -14   2   -6.30    8.40
   0  14   2    8.20    6.60
   0 -14   2   -1.50    6.10
   0 -14   2    2.50    5.90
   0  14  -2    3.30    6.30
   0 -14  -2  -10.00    6.80
   0  14   2   10.20    7.30
   0  14  -2   10.80    5.70
   0  14  -2   10.80    7.90
   0 -14   3   -0.20    6.30
   0  14   3   12.30    6.70
   0  15   0   -9.20    8.00
   0 -15   0   -8.50    7.30
   0  15   0   -5.10    6.20
   0 -15   0  -20.30    8.10
   0 -15  -1    2.00    6.80
   0 -15  -1   -1.40    7.10
   0 -15   1   -0.90    6.30
   0 -15   1    3.10    7.10
   0  15   1    6.90    6.80
   0  15  -1    7.50    6.30
   0  15  -1   -7.10    7.40
   0  15  -1    9.40    7.40
   0  15   1    5.60    7.30
   0  15   1   -1.90    6.40
   0 -15  -1   -0.90    6.20
   0 -15   1   13.20    8.30
   0 -15   2   -2.90    7.90
   0  15   2   10.30    8.90
   0 -15  -2   -1.70    7.70
   0  15   2   -5.70    7.40
   0 -15  -2    1.60    6.70
   0  15  -2  -10.00    7.50
   0  15   2   16.00    7.80
   0 -15   2  -14.00    9.00
   0 -15  -2    8.20    7.90
   0 -15   2   10.60    7.60
   0  15  -2    1.30    7.00
   0  15  -2   -3.20    6.40
   0  16   0   24.10    8.70
   0 -16   0    9.30   10.30
   0 -16  -1   -0.20    6.90
   0  16   1   15.20    8.60
   0 -16  -1    2.40    7.80
   0  16   1    6.50    8.00
   0 -16   1   16.90    8.90
   0  16  -1    1.20    8.10
   0  16  -1   12.40    7.80
   0 -16   1   -5.30    8.10
   0  16   2    1.50    9.50
   0 -16   2   -2.90    8.90
  -1   0   7   -2.00    9.00
  -1   0   7    0.10    5.50
   1   0  -6   50.79   10.30
  -1   0   6   51.59   10.30
  -1   0   6   51.09    8.90
   1   0  -6   62.49    9.70
   1   0  -5    5.60    4.80
  -1   0   5    1.90    4.10
   1   0  -5    1.80    4.00
   1   0  -5    6.10    4.80
  -1   0   5    6.60    4.10
  -1   0   5   -2.30    3.80
   1   0  -5   -4.90    4.80
  -1   0   5    2.20    3.90
  -1   0   4  147.19   10.70
  -1   0   4  151.98   11.00
   1   0  -4  147.59   10.30
   1   0  -4  158.08   10.50
   1   0  -4  155.28   10.30
  -1   0   4  125.99    9.90
   1   0  -4  143.89   10.60
  -1   0   4  149.39   10.00
   1   0  -3   -1.10    2.00
  -1   0   3    0.30    1.30
  -1   0   3   -0.70    2.10
   1   0  -3   -0.60    2.00
  -1   0   3   -1.10    2.00
  -1   0   3    0.40    2.20
  -1   0   3    1.80    1.80
   1   0  -3    1.70    1.70
  -1   0   3    0.50    1.40
   1   0  -3    4.90    2.90
   1   0  -3   -0.60    1.40
  -1   0   2  499.75   12.50
   1   0  -2  482.85   12.70
  -1   0   2  477.45   11.50
   1   0  -2  458.05   12.90
  -1   0   2  475.15   11.40
  -1   0   2  479.05   12.40
   1   0  -1   -0.70    0.80
   1   0   3   -1.50    2.60
   1   0   3   -3.20    2.90
  -1  -1   7   -6.10    8.70
  -1   1   7   11.10    6.60
  -1   1   7   10.60    8.50
  -1  -1   7   -1.70    6.70
  -1   1   6   -4.00    6.10
  -1  -1   6    1.40    4.80
  -1   1   6    4.70    6.20
   1   1  -6   -1.20    6.10
   1   1  -6   -2.40    6.10
  -1  -1   6    1.50    5.70
   1  -1  -6   12.70    7.50
   1  -1  -6    1.80    5.60
   1   1  -6    1.10    4.70
   1  -1  -6    3.00    7.00
  -1  -1   6    5.90    5.60
  -1   1   6    7.40    6.20
  -1  -1   5    0.30    4.90
  -1  -1   5    8.00    5.60
  -1   1   5    6.00    5.10
   1  -1  -5    0.80    5.10
  -1   1   5   -2.80    3.80
   1  -1  -5    5.10    4.20
  -1   1   5    5.20    4.80
   1   1  -5   -0.50    4.00
  -1  -1   5   -4.90    5.20
   1   1  -5    7.90    4.60
   1  -1  -5    2.30    4.40
   1   1  -5   -3.60    5.00
  -1  -1   4   25.50    5.60
   1  -1  -4   28.80    4.60
  -1   1   4   27.70    5.40
  -1   1   4   35.00    5.80
   1   1  -4   31.30    5.30
  -1  -1   4   35.40    6.20
  -1   1   4   22.80    5.30
   1  -1  -4   19.00    4.20
   1   1  -4   29.90    5.20
  -1  -1   4   17.20    3.90
   1  -1  -4   23.90    5.00
   1   1  -4   24.60    5.30
   1  -1  -4   26.70    5.00
   1   1  -4   29.10    5.40
  -1  -1   4   27.30    5.10
  -1   1   4   28.80    4.90
  -1   1   3   95.69    7.20
  -1   1   3   92.49    5.30
  -1  -1   3   97.09    7.30
   1  -1  -3   90.89    7.30
   1   1  -3   83.39    7.00
   1  -1  -3   92.79    7.00
  -1  -1   3   92.69    7.20
   1  -1  -3   90.29    6.10
  -1  -1   3   87.09    5.70
   1   1  -3   86.29    6.60
  -1   1   3   95.59    7.20
   1   1  -3   91.89    5.50
  -1  -1   3   92.29    6.70
  -1   1   3   95.09    6.30
   1  -1  -3   93.99    6.10
  -1   1   3   95.39    7.00
  -1  -1   3   89.69    5.90
   1   1  -2 1442.66   22.90
  -1   1   2 1449.06   17.50
  -1  -1   2 1488.15   21.70
  -1   1   2 1446.36   18.80
   1   1  -2 1453.75   21.20
   1  -1  -2 1458.55   22.90
  -1   1   2 1455.05   21.30
  -1  -1   2 1473.85   21.60
  -1  -1   2 1470.65   21.20
   1  -1  -2 1439.46   22.70
  -1   1   2 1428.66   21.40
   1   1  -2 1433.76   17.80
   1  -1  -2 1432.36   20.60
  -1  -1   2 1455.15   18.50
  -1   1   2 1458.15   21.00
   1  -1  -1  607.74   13.00
   1  -1   3   45.50    5.80
   1   1   3   45.70    5.90
   1  -1   3   45.50    5.90
   1  -1   4   -0.30    4.00
   1  -1   4   -8.90    4.70
  -1  -2   7   -3.40    7.30
  -1   2   7    5.10    8.10
  -1  -2   6   -4.20    6.00
  -1   2   6    2.20    5.40
  -1   2   6   -2.10    4.50
  -1  -2   6    5.50    5.70
   1   2  -6    9.00    5.40
   1   2  -6    6.70    5.40
  -1   2   6    0.60    5.60
   1  -2  -6  -10.90    8.60
  -1  -2   6    6.10    5.60
   1  -2  -6    6.50    5.60
   1  -2  -6    5.90    5.90
   1   2  -6    1.00    5.70
  -1   2   5   78.69    9.90
  -1  -2   5   82.99   10.00
  -1  -2   5   89.69   10.20
   1  -2  -5  100.49   10.30
   1  -2  -5   82.49    9.80
   1   2  -5   88.09    9.70
   1   2  -5   88.09    9.40
  -1  -2   5   68.19    9.10
   1   2  -5   99.79   10.80
  -1   2   5   84.69   10.10
   1  -2  -5   82.59    9.80
  -1   2   5   85.79   10.00
  -1  -2   4   -1.10    3.50
  -1   2   4    6.60    3.60
  -1  -2   4    4.70    3.20
  -1   2   4    6.60    3.60
   1  -2  -4    6.60    4.00
  -1   2   4    3.20    3.30
   1   2  -4    3.20    3.20
  -1  -2   4    3.60    3.50
   1  -2  -4   10.60    4.60
   1   2  -4    6.40    3.90
   1  -2  -4    4.80    3.50
  -1  -2   4    2.20    3.40
   1  -2  -4    4.10    3.30
   1   2  -4    5.80    3.40
   1   2  -4    2.50    3.70
  -1   2   4    3.90    3.30
  -1   2   3  565.04   14.60
  -1   2   3  603.74   14.60
   1   2  -3  580.04   15.80
  -1  -2   3  594.74   17.40
  -1   2   3  594.14   17.70
  -1   2   3  582.74   17.40
  -1  -2   3  570.44   17.60
  -1  -2   3  554.14   15.10
   1  -2  -3  593.64   14.80
   1   2  -3  595.44   17.80
   1  -2  -3  583.94   17.60
   1  -2  -3  583.24   17.70
   1   2  -3  602.54   15.00
   1  -2  -3  560.34   15.90
  -1  -2   3  570.84   17.50
  -1   2   3  592.54   17.30
  -1  -2   3  588.94   14.40
  -1  -2   2  604.14   13.80
  -1   2   2  575.24   12.50
  -1   2   2  592.64   13.90
   1   2  -2  605.54   14.90
   1  -2  -2  601.64   14.90
  -1  -2   2  601.44   13.30
   1   2  -2  600.34   13.50
   1  -2  -2  589.04   15.20
   1   2  -2  603.34   13.10
  -1  -2   2  591.54   14.00
  -1  -2   2  599.74   14.60
  -1   2   2  610.54   13.80
   1  -2  -2  604.04   14.50
  -1   2   2  600.24   14.30
   1  -2  -1 2616.44   28.20
   1  -2  -1 2576.94   27.60
  -1  -2   1 2620.54   25.50
  -1   2   1 2602.04   25.50
   1  -2   2   45.90    5.20
   1   2   3    4.20    2.70
   1  -2   3    0.80    2.50
   1  -2   3   -0.50    2.10
   1  -2   3    0.70    2.70
   1  -2   4   40.90    7.30
   1  -2   4   38.30    7.10
  -1   3   7   -1.50    7.90
  -1  -3   7    4.70    5.80
  -1   3   7    9.30    9.30
  -1  -3   7  -13.60    8.20
   1  -3  -6    9.60    6.60
  -1   3   6   -3.50    6.00
   1   3  -6   -7.30    6.50
  -1   3   6    6.00    4.90
  -1  -3   6    4.80    5.70
   1   3  -6   20.90    7.60
  -1  -3   6    8.80    6.80
   1  -3  -6    8.80    6.20
   1  -3  -6   -0.80    6.00
   1   3  -6    8.60    5.70
  -1   3   6   10.40    7.30
  -1  -3   6   -4.90    5.90
   1  -3  -5   12.90    6.20
  -1   3   5   12.10    4.90
  -1   3   5    8.90    5.00
   1   3  -5    7.70    4.80
   1  -3  -5   25.80    7.10
  -1  -3   5   10.70    4.40
  -1   3   5   16.20    5.60
   1  -3  -5   19.00    6.60
   1   3  -5    8.20    4.80
  -1  -3   5   15.50    6.30
   1   3  -5   14.50    5.80
  -1  -3   5   17.00    7.00
  -1   3   4   18.50    4.70
  -1   3   4    7.90    4.10
   1   3  -4   11.50    3.80
   1  -3  -4   19.90    4.50
  -1   3   4   16.80    4.90
  -1  -3   4   13.20    4.70
   1   3  -4   12.50    4.60
   1  -3  -4   14.00    4.40
   1  -3  -4   12.90    4.50
  -1  -3   4   19.90    5.80
   1   3  -4   17.10    4.40
  -1  -3   4   17.70    4.70
  -1   3   3  295.57   11.20
  -1  -3   3  278.37   12.10
   1   3  -3  283.97   11.10
  -1  -3   3  270.17   12.20
  -1  -3   3  283.27   11.80
   1  -3  -3  285.77   13.10
   1  -3  -3  278.67   12.40
   1   3  -3  276.37   12.50
   1   3  -3  294.27   11.00
   1  -3  -3  290.47   10.00
  -1   3   3  285.37   12.10
   1   3  -3  278.77   12.20
  -1  -3   3  284.97   12.90
  -1   3   3  276.67    9.90
   1  -3  -3  280.67   11.90
  -1   3   3  276.87   12.40
  -1   3   3  300.07   12.90
  -1  -3   3  297.47    9.70
  -1   3   2    6.20    2.10
   1  -3  -2   11.80    2.60
   1   3  -2    8.90    1.70
  -1   3   2    6.60    1.80
   1  -3  -2   10.00    2.20
   1  -3  -2   10.10    1.90
  -1  -3   2   10.80    2.60
  -1   3   2    7.90    2.20
  -1  -3   2    9.50    2.00
   1   3  -2    7.50    2.20
   1  -3  -2    6.80    2.00
   1   3  -2    9.00    1.90
  -1  -3   2    7.10    2.10
  -1   3   2    6.50    1.90
  -1  -3   2   10.20    2.10
   1   3  -2   10.00    2.20
  -1   3   2    7.70    1.60
   1  -3  -2    8.60    2.50
  -1  -3   2    8.30    1.60
   1  -3  -1 3136.99   30.40
  -1   3   1 3115.89   29.80
  -1  -3   1 3145.19   29.60
  -1  -3   1 3130.09   30.10
  -1  -3   1 3208.28   29.80
  -1  -3   1 3085.99   28.40
   1  -3  -1 3095.49   32.30
   1  -3  -1 3126.19   32.30
   1   3  -1 3115.29   31.00
   1   3  -1 3131.89   29.30
   1  -3  -1 3152.68   32.80
  -1   3   1 3145.69   29.20
  -1   3   1 3136.49   28.90
  -1   3   0  108.29    5.70
   1  -3   2    5.50    2.30
   1  -3   2    8.20    2.50
   1  -3   2    5.30    2.40
  -1   3  -2    6.50    2.30
   1  -3   3  103.49    8.50
   1  -3   3   98.49    7.90
  -1   3  -3  111.39    8.00
   1   3   3  101.79    8.70
   1  -3   3   95.09    8.50
   1  -3   4   17.80    5.80
   1  -3   4   26.00    6.10
  -1   4   7   -0.90    6.80
  -1  -4   7   -6.00    7.60
  -1  -4   6   20.30    7.40
  -1  -4   6   13.20    5.90
   1   4  -6   21.10    7.20
  -1   4   6   13.60    6.30
  -1   4   6    3.70    6.40
   1   4  -6   18.30    7.70
   1  -4  -6   20.10    8.10
   1   4  -6   24.90    7.60
   1  -4  -6   23.70    9.20
   1  -4  -6   15.00    8.60
  -1  -4   6   22.80    7.90
  -1   4   6   20.60    6.70
  -1   4   5   48.20    8.30
  -1   4   5   58.79    9.50
   1  -4  -5   58.79    9.00
  -1   4   5   54.99    8.70
  -1  -4   5   39.20    7.50
   1  -4  -5   42.30    8.40
  -1  -4   5   51.79    8.70
   1   4  -5   50.79    8.50
   1   4  -5   45.60    7.10
   1  -4  -5   42.10    7.20
   1   4  -5   46.10    7.40
  -1  -4   5   38.80    8.20
   1   4  -4   64.39    7.40
  -1   4   4   63.39    7.80
   1   4  -4   67.89    7.60
   1  -4  -4   62.39    7.40
   1   4  -4   62.29    7.80
  -1   4   4   60.19    7.60
  -1  -4   4   62.19    7.40
  -1   4   4   63.09    7.90
  -1  -4   4   59.09    7.80
  -1   4   4   55.79    6.00
   1  -4  -4   66.19    8.00
   1   4  -4   78.49    7.90
   1  -4  -4   73.49    8.80
   1  -4  -4   65.09    7.20
  -1  -4   4   69.49    8.50
  -1  -4   4   62.09    7.00
  -1   4   3    3.30    3.20
   1  -4  -3   -2.70    2.90
  -1   4   3    1.00    2.20
  -1   4   3    1.00    2.30
  -1  -4   3    0.00    2.80
  -1   4   3    1.60    3.50
   1   4  -3    0.90    2.50
  -1  -4   3    3.40    2.40
   1  -4  -3    3.50    2.90
   1  -4  -3   -1.60    3.00
   1   4  -3   -0.90    2.60
  -1  -4   3    2.60    2.30
   1   4  -3    5.70    2.90
  -1  -4   3    2.90    3.10
   1  -4  -3   -2.50    2.80
   1   4  -2  236.88    8.20
  -1   4   2  233.08    8.80
  -1   4   2  234.68    9.00
  -1  -4   2  219.78    8.90
  -1   4   2  236.28    9.70
   1  -4  -2  253.37    8.90
   1  -4  -2  233.28    9.40
   1  -4  -2  256.17   10.90
  -1  -4   2  241.58    8.30
  -1   4   2  244.48    8.20
  -1   4   2  229.18    8.70
  -1  -4   2  232.58   10.00
   1   4  -2  241.08    9.90
   1   4  -2  243.88    9.40
   1  -4  -2  244.68   11.00
  -1  -4   2  243.48    8.90
   1  -4  -2  246.08    9.90
   1   4  -2  253.87   10.20
  -1  -4   2  236.38    9.40
  -1  -4   2  236.28   10.10
  -1   4   2  225.28    9.80
  -1   4   1    0.80    1.20
   1  -4  -1    3.80    1.90
   1   4  -1    2.40    1.70
  -1   4   1    0.80    1.20
  -1   4   1    0.30    1.20
   1  -4  -1    2.10    1.40
   1  -4  -1    0.00    1.60
  -1  -4   1   -1.40    1.40
   1  -4  -1    1.10    1.50
   1   4  -1    2.90    1.60
  -1  -4   1    2.10    1.50
  -1   4   1    0.00    1.40
   1   4  -1    0.50    1.40
  -1  -4   1   -0.40    1.40
  -1  -4   1    0.60    1.30
   1  -4   0   18.30    2.80
  -1  -4   0   19.00    2.70
   1   4   0   18.60    2.80
   1   4   0   23.60    3.30
  -1   4   0   20.50    2.80
  -1   4   0   20.90    3.00
   1   4   0   18.50    2.90
   1  -4   0   20.90    3.00
   1  -4   0   20.70    3.10
  -1  -4   0   21.10    3.00
  -1   4   0   16.90    2.40
  -1   4   0   22.80    3.10
   1  -4   0   21.60    3.00
   1  -4   1    1.90    1.50
   1  -4   1    0.40    1.70
   1   4   1    2.40    1.70
  -1   4  -1    1.50    1.50
  -1   4  -1    2.30    1.70
   1  -4   1    1.30    1.60
   1   4   2   18.30    3.80
  -1   4  -2   15.40    3.00
   1  -4   2   23.20    3.80
   1  -4   2   17.70    3.50
   1  -4   2   23.20    3.80
  -1   4  -2   19.90    3.00
  -1   4  -2   17.70    3.00
   1  -4   2   21.90    4.30
   1   4   3   85.09    8.90
   1  -4   3   77.59    7.70
   1  -4   3   70.49    7.30
  -1   4  -3   90.29    7.50
   1  -4   3   69.79    7.60
  -1  -4  -3   93.89    8.10
   1   4   3   75.69    7.80
   1  -4   4  143.79   12.60
   1  -4   4  115.29   10.40
   1  -4   4  117.79   11.40
  -1  -5   6    4.50    4.70
  -1   5   6    0.20    6.30
   1   5  -6    0.40    5.90
  -1  -5   6   -9.00    7.20
  -1   5   6    2.90    5.60
  -1   5   6   -0.70    6.10
   1   5  -6   -1.60    6.60
   1  -5  -6    6.60    7.10
   1   5  -6    5.50    6.60
  -1  -5   6    2.60    6.30
   1  -5  -6   -9.20    7.00
   1  -5  -6    9.30    8.30
  -1   5   5   -2.60    5.60
  -1   5   5  -10.20    4.80
  -1  -5   5    1.50    4.20
  -1  -5   5   -0.80    4.50
   1  -5  -5   -4.40    5.60
   1  -5  -5    6.10    5.60
   1   5  -5   -1.10    4.40
   1  -5  -5    4.10    5.50
   1   5  -5   17.60    6.50
  -1   5   5    5.00    4.80
   1   5  -5   -0.10    4.50
  -1  -5   5   -0.20    5.10
  -1   5   4   28.00    5.90
   1  -5  -4   20.30    4.20
   1  -5  -4   27.60    5.70
  -1  -5   4   23.70    5.30
  -1   5   4   26.70    6.10
  -1  -5   4   20.60    4.90
   1   5  -4   27.10    5.60
  -1  -5   4   18.80    4.80
  -1   5   4   19.50    4.50
   1   5  -4   19.70    5.20
   1  -5  -4   21.90    5.60
  -1   5   4   32.00    5.50
   1  -5  -4   19.10    5.80
   1   5  -4   23.20    5.70
   1   5  -4   25.20    5.30
  -1  -5   4   32.00    6.70
  -1   5   3   51.99    6.20
  -1   5   3   57.29    6.00
   1  -5  -3   49.30    6.20
  -1   5   3   52.69    5.70
   1  -5  -3   63.19    7.20
  -1  -5   3   49.00    5.50
  -1   5   3   48.50    5.60
  -1  -5   3   57.99    6.40
  -1  -5   3   45.80    5.90
   1  -5  -3   53.09    6.10
   1   5  -3   54.59    6.20
   1  -5  -3   50.89    5.90
   1   5  -3   47.60    5.40
   1   5  -3   51.39    6.30
   1   5  -3   46.80    5.70
  -1  -5   3   41.20    6.00
  -1   5   2  600.94   14.30
  -1   5   2  581.94   16.10
   1  -5  -2  574.44   15.20
   1   5  -2  566.64   15.70
   1  -5  -2  574.04   16.10
  -1  -5   2  553.74   13.40
  -1  -5   2  584.54   14.60
  -1  -5   2  559.74   15.50
  -1   5   2  555.24   14.00
  -1  -5   2  569.44   16.90
   1  -5  -2  558.54   17.10
   1   5  -2  583.74   15.80
   1   5  -2  525.65   16.00
   1  -5  -2  584.34   15.40
  -1   5   2  588.34   15.50
   1   5  -2  592.44   14.60
  -1  -5   2  588.74   15.50
  -1   5   2  586.84   14.30
  -1  -5   2  552.84   16.60
   1  -5  -2  604.44   17.80
  -1   5   2  547.25   15.90
  -1   5   1  112.79    6.70
   1  -5  -1  107.49    6.90
   1  -5  -1  114.89    7.30
  -1   5   1  113.79    6.50
  -1  -5   1  107.39    6.80
  -1  -5   1  127.89    7.00
   1  -5  -1  115.29    5.80
  -1  -5   1  115.89    6.80
   1   5  -1  113.39    7.10
  -1   5   1  117.79    6.80
  -1   5   1  106.79    5.50
   1   5  -1  117.39    7.00
   1   5  -1  117.49    7.10
   1  -5  -1  118.79    7.20
  -1  -5   1  114.49    6.50
   1  -5  -1  124.69    7.70
  -1  -5   1  116.29    5.60
  -1   5   1  117.89    6.30
   1  -5   0   13.20    3.00
   1   5   0   11.10    2.70
   1   5   0    5.70    2.10
  -1   5   0    4.20    1.70
   1  -5   0    5.20    1.70
   1   5   0    5.40    1.70
   1  -5   0   11.40    2.80
  -1  -5   0    6.50    1.90
  -1   5   0    6.50    2.20
  -1  -5   0    7.50    2.30
  -1   5   0    8.00    2.20
  -1   5   0    7.00    2.00
   1  -5   0    5.40    2.30
  -1  -5   0    3.60    1.80
   1   5   1   30.10    4.30
  -1  -5  -1   25.90    3.40
  -1   5  -1   23.70    3.00
   1   5   1   26.30    4.00
  -1  -5  -1   26.80    3.90
   1  -5   1   27.10    4.40
   1   5   1   25.40    3.80
   1  -5   1   23.40    4.00
   1  -5   1   27.40    4.20
  -1   5  -1   23.90    3.30
  -1   5  -1   29.70    4.00
  -1   5  -1   24.40    3.10
  -1   5  -1   26.50    3.70
   1  -5   1   24.80    3.70
   1   5   2  227.78   12.80
  -1   5  -2  270.67   11.90
   1  -5   2  230.48   11.30
  -1   5  -2  256.57   10.70
   1   5   2  269.87   13.40
  -1  -5  -2  260.57   10.40
   1  -5   2  224.28   10.70
   1   5   2  235.58   11.40
   1  -5   2  243.18   12.50
   1  -5   2  243.08   12.80
  -1   5  -2  272.17   12.30
   1   5   2  239.98   11.70
  -1  -5  -2  254.07   11.80
   1   5   3    3.80    3.10
   1   5   3    2.00    3.30
  -1  -5  -3    0.10    2.90
   1  -5   3    1.80    3.20
   1  -5   3   -1.80    3.00
  -1   5  -3    0.00    2.60
   1  -5   3    1.90    3.40
   1  -5   4    1.50    4.00
   1  -5   4   10.90    5.40
   1  -5   4    0.40    4.60
   1  -6  -6   31.10   10.20
  -1   6   6   32.50    8.90
  -1   6   6   18.60    8.80
  -1  -6   6   36.90    8.30
  -1   6   6   20.30    6.40
   1  -6  -6   29.40    8.70
   1   6  -6   21.00    8.40
   1  -6  -6   38.00    9.60
   1   6  -6   14.10    7.30
  -1  -6   6    7.20    7.00
  -1  -6   6   34.60    9.60
   1   6  -6   40.70    9.20
  -1   6   5   37.40    8.10
   1   6  -5   32.30    6.80
  -1  -6   5   25.20    6.50
  -1   6   5   19.70    5.80
  -1   6   5   31.30    7.10
   1  -6  -5   39.40    7.30
   1  -6  -5   36.10    8.60
   1   6  -5   31.60    6.80
   1  -6  -5   37.60    7.90
  -1  -6   5   22.10    7.10
   1   6  -5   36.60    8.00
  -1  -6   5   36.60    9.10
  -1   6   4    3.30    3.80
   1   6  -4   -7.10    4.20
  -1   6   4   -1.80    4.00
  -1   6   4    3.80    3.60
   1  -6  -4    3.60    4.20
  -1  -6   4    4.70    4.30
  -1   6   4    5.20    4.00
  -1  -6   4    3.20    4.50
   1  -6  -4   -1.50    3.80
  -1  -6   4   -2.50    3.80
   1   6  -4   12.90    5.30
   1  -6  -4   -2.70    3.90
   1  -6  -4    1.70    4.70
   1   6  -4   -2.80    4.80
   1   6  -4   -0.90    4.30
  -1  -6   4    2.10    4.30
  -1   6   3    1.50    3.40
   1  -6  -3   -3.30    3.90
  -1   6   3    2.30    2.90
  -1   6   3    4.00    3.00
  -1   6   3    3.60    3.60
  -1  -6   3    7.50    3.30
  -1  -6   3    3.40    2.90
   1  -6  -3    6.20    3.40
   1  -6  -3    2.90    3.10
   1   6  -3    1.60    2.80
   1  -6  -3    3.10    3.70
   1   6  -3    4.00    2.50
   1   6  -3    2.50    3.70
   1   6  -3    4.20    3.00
  -1  -6   3    2.80    2.40
  -1  -6   3   -2.40    3.60
  -1   6   2 1451.45   22.70
  -1   6   2 1438.76   27.30
   1  -6  -2 1446.26   26.20
   1  -6  -2 1429.96   27.60
   1  -6  -2 1402.26   29.40
   1   6  -2 1495.05   27.50
  -1  -6   2 1465.05   27.20
  -1  -6   2 1464.15   22.10
  -1  -6   2 1483.05   25.60
  -1   6   2 1409.16   24.10
  -1  -6   2 1458.35   26.00
  -1  -6   2 1393.96   28.00
  -1   6   2 1386.66   23.40
   1   6  -2 1444.56   26.20
   1  -6  -2 1402.36   24.80
  -1   6   2 1380.86   26.20
   1  -6  -2 1406.46   28.80
   1   6  -2 1392.16   24.70
   1   6  -2 1430.06   28.10
  -1  -6   2 1440.26   27.70
  -1   6   2 1413.66   26.90
  -1  -6   1  112.09    7.20
  -1   6   1  111.59    7.30
   1  -6  -1  104.29    7.60
   1   6  -1  107.99    7.30
   1  -6  -1  120.89    8.20
  -1   6   1  113.19    7.10
   1  -6  -1  109.49    6.30
  -1  -6   1   92.49    6.90
   1  -6  -1  109.89    7.40
   1   6  -1  127.69    8.10
  -1   6   1  114.99    7.60
  -1   6   1  108.19    6.50
   1   6  -1  101.59    7.30
   1   6  -1  119.49    7.80
  -1  -6   1  120.19    7.70
   1  -6  -1  118.09    8.20
  -1  -6   1  112.09    6.10
  -1  -6   1  106.39    7.20
  -1   6   1  105.89    6.40
  -1   6   0  290.97   10.70
   1  -6   0  286.57   12.80
   1   6   0  297.47   12.30
  -1   6   0  281.47   11.40
   1  -6   0  305.47   13.40
  -1  -6   0  320.77   12.30
   1  -6   0  279.27   12.20
  -1  -6   0  301.37   11.30
  -1   6   0  281.37   11.40
  -1   6   0  322.07   12.10
   1   6   0  298.57   12.60
   1   6   0  280.27   12.30
   1   6   0  316.57   12.00
   1  -6   0  304.37    9.70
   1  -6   0  302.97   12.50
  -1  -6   0  323.17   11.60
  -1  -6   0  331.37   12.60
  -1   6   0  302.77    8.60
  -1  -6  -1   23.60    3.70
   1   6   1   26.40    4.80
  -1   6  -1   22.90    3.10
  -1  -6  -1   26.40    4.20
   1   6   1   28.50    4.30
  -1  -6  -1   26.40    3.90
   1  -6   1   28.90    4.70
   1   6   1   23.50    4.00
   1  -6   1   24.00    4.30
  -1   6  -1   20.00    3.60
   1  -6   1   19.10    4.10
  -1   6  -1   18.30    2.80
  -1   6  -1   24.50    4.10
  -1   6  -1   24.00    4.00
   1  -6   1   19.80    3.70
   1   6   2   64.89    7.40
   1  -6   2   68.79    6.70
  -1   6  -2   73.99    6.20
   1   6   2   80.59    8.10
  -1  -6  -2   79.89    6.30
   1  -6   2   66.29    6.00
   1  -6   2   78.99    8.00
  -1   6  -2   84.39    7.60
   1   6   2   70.79    6.20
   1   6   2   81.09    7.60
  -1   6  -2   74.59    6.70
   1  -6   2   64.49    7.30
  -1  -6  -2   84.09    7.20
   1   6   3    5.50    4.00
  -1  -6  -3    0.60    3.30
   1   6   3   -2.20    3.70
   1  -6   3    1.70    3.30
   1  -6   3    2.10    2.90
  -1   6  -3    0.00    3.00
  -1   6  -3   -3.80    2.90
   1  -6   3   -2.50    4.20
   1  -6   4   90.39   10.00
   1  -6   4  113.99   11.00
   1  -6   4  113.89   12.40
  -1   7   6   -8.80    7.60
  -1  -7   6   12.10    8.30
   1  -7  -6   -8.80    7.90
   1   7  -6   -1.60    5.90
  -1   7   5   -1.50    5.10
   1  -7  -5    5.70    6.10
   1   7  -5    3.80    5.10
  -1  -7   5   -2.20    5.60
   1  -7  -4   91.29   10.00
  -1   7   4   94.29    9.80
   1   7  -4  103.49   10.30
   1   7  -4  103.09   10.30
  -1  -7   4   83.79   10.00
   1  -7  -4   96.99   11.00
  -1  -7   4   84.49   10.20
  -1   7   4  102.29   10.80
  -1   7   3   11.40    4.00
   1  -7  -3    4.70    4.90
  -1   7   3    5.10    3.50
  -1  -7   3    8.20    4.00
   1  -7  -3    2.60    4.00
   1   7  -3   -6.40    4.50
   1   7  -3    5.00    3.50
  -1  -7   3    3.60    3.40
  -1   7   2  473.25   16.80
   1  -7  -2  452.25   16.10
   1  -7  -2  413.76   16.30
  -1  -7   2  448.36   16.40
  -1  -7   2  465.55   15.70
  -1   7   2  482.75   15.40
  -1  -7   2  438.76   16.90
   1   7  -2  433.66   16.00
   1   7  -2  477.65   17.50
  -1   7   2  462.55   16.20
   1  -7  -2  478.75   17.40
   1   7  -2  477.45   16.00
  -1  -7   2  427.96   16.10
   1  -7  -2  476.65   18.50
  -1   7   2  460.35   16.30
  -1   7   1  804.42   20.40
   1  -7  -1  809.52   22.20
   1   7  -1  751.82   19.70
   1  -7  -1  760.52   22.10
  -1  -7   1  808.92   21.40
  -1   7   1  844.22   20.30
  -1  -7   1  820.32   20.90
   1  -7  -1  811.62   18.90
  -1  -7   1  703.23   19.50
   1   7  -1  808.12   21.70
   1  -7  -1  802.42   20.60
  -1   7   1  751.72   18.40
  -1   7   1  829.42   20.90
   1   7  -1  816.02   21.50
  -1  -7   1  746.93   19.10
   1  -7  -1  761.72   21.90
  -1  -7   1  799.92   17.40
   1   7  -1  803.22   21.30
  -1   7   1  800.82   18.10
  -1  -7   0    1.50    2.00
  -1   7   0    6.10    1.90
   1  -7   0    7.60    3.20
   1   7   0    7.80    3.60
  -1  -7   0    3.70    2.10
  -1   7   0    3.40    2.40
   1   7   0    5.60    2.50
   1  -7   0    4.80    3.40
   1  -7   0    7.50    3.10
  -1  -7   0    6.30    3.40
   1  -7   0    8.70    3.10
   1   7   0    9.50    3.10
  -1   7   0    6.50    2.80
  -1   7   0    6.80    2.60
   1  -7   0    6.20    2.10
  -1   7   0    7.80    2.90
   1   7   0    9.30    3.60
  -1  -7   0    5.00    2.30
  -1  -7  -1   40.70    5.00
   1   7   1   45.80    6.20
  -1   7  -1   42.30    4.40
   1   7   1   46.90    6.10
  -1  -7  -1   46.50    5.40
  -1  -7  -1   41.20    5.40
   1  -7   1   44.40    6.10
   1  -7   1   36.00    5.20
   1  -7   1   31.60    5.40
  -1   7  -1   36.20    4.80
  -1   7  -1   33.60    4.00
  -1   7  -1   44.40    5.70
   1   7   1   43.70    5.60
  -1   7  -1   43.10    5.40
   1  -7   1   45.30    5.40
   1   7   1   37.50    4.60
   1   7   2   69.59    7.90
   1   7   2   75.09    7.70
   1   7   2   75.49    8.20
  -1   7  -2   66.29    6.20
  -1   7  -2   79.19    7.20
   1  -7   2   64.89    6.90
   1  -7   2   69.69    7.70
  -1   7  -2   72.19    7.40
  -1   7  -2   70.79    6.80
   1  -7   2   63.59    7.30
  -1  -7  -2   67.09    6.90
  -1  -7  -2   75.79    6.60
   1  -7   3   17.00    5.40
   1   7   3   27.50    6.60
  -1  -7  -3   31.60    6.00
  -1   7  -3   29.10    5.70
  -1   7  -3   28.30    4.90
   1  -7   3   25.00    6.40
   1  -7   4   12.00    5.20
   1  -7   4   18.80    7.20
  -1   8   6    3.30    6.70
  -1  -8   6   -3.10    6.50
   1  -8  -5   38.90    9.10
  -1   8   5   43.60   10.10
  -1   8   5   49.70    9.80
   1  -8  -5   43.20   10.60
   1   8  -5   41.00    8.60
   1   8  -5   36.60    7.80
  -1  -8   5   35.80    9.60
  -1  -8   5   46.90    8.80
   1  -8  -4    2.60    5.10
  -1   8   4   -6.80    5.50
  -1   8   4    6.50    4.80
   1  -8  -4   -1.00    5.10
   1   8  -4    8.10    5.70
   1   8  -4    5.50    7.30
  -1  -8   4   -5.40    5.60
  -1  -8   4   -9.80    8.80
  -1   8   3   -0.60    3.50
   1  -8  -3   -7.50    4.40
  -1   8   3   -2.40    3.50
  -1  -8   3    3.90    3.80
   1  -8  -3    0.90    4.10
   1   8  -3    7.80    4.40
   1   8  -3   -1.30    4.10
  -1  -8   3   -4.40    4.10
   1   8  -2   58.29    6.70
   1   8  -2   59.99    6.60
  -1   8   2   50.29    6.40
   1  -8  -2   57.89    7.30
  -1   8   2   53.09    5.80
  -1  -8   2   60.79    6.80
  -1   8   2   55.39    6.70
  -1  -8   2   60.69    6.60
   1  -8  -2   53.49    6.90
  -1  -8   2   53.99    6.80
   1  -8  -2   51.69    6.40
   1  -8  -2   47.10    6.30
   1   8  -2   52.79    6.30
   1   8  -2   53.99    6.90
  -1   8   2   59.69    6.60
  -1  -8   2   48.50    6.50
  -1   8   1    0.20    2.20
   1   8  -1    4.20    3.90
   1   8  -1    4.10    3.10
   1  -8  -1   -1.60    3.40
  -1  -8   1    4.30    2.40
  -1   8   1    0.40    2.50
   1   8  -1    4.50    2.70
   1  -8  -1   -1.10    3.50
   1  -8  -1    4.80    3.10
   1  -8  -1    3.40    2.20
  -1  -8   1   -1.10    3.30
  -1  -8   1    4.70    2.50
   1  -8  -1    1.80    2.50
  -1   8   1   -0.80    2.10
   1   8  -1   -1.60    2.90
  -1  -8   1    1.90    2.70
  -1   8   1   -3.00    3.20
  -1   8   1   -2.60    3.40
  -1  -8   1    2.00    2.50
   1  -8   0    1.80    2.90
   1   8   0    3.50    3.20
  -1  -8   0    1.70    2.60
  -1   8   0    1.00    2.00
  -1  -8   0   -0.70    2.70
   1   8   0    2.80    2.50
   1  -8   0    2.60    3.10
   1  -8   0   -6.10    4.00
   1   8   0   -4.40    3.40
  -1  -8   0    3.50    2.40
  -1   8   0    3.30    2.70
  -1   8   0   -1.90    2.10
   1   8   0    4.80    3.50
  -1   8   0   -0.90    2.60
  -1  -8   0    3.80    3.00
   1  -8   0    0.30    2.50
  -1  -8  -1    9.60    3.20
   1   8   1   17.50    4.80
  -1  -8  -1    9.50    3.80
  -1   8  -1   14.40    3.10
   1   8   1   13.30    3.80
   1  -8   1   18.60    5.20
   1  -8   1    9.30    3.70
  -1  -8  -1   11.20    3.80
   1  -8   1    9.10    4.10
  -1   8  -1   13.10    4.00
  -1   8  -1   18.80    4.70
   1   8   1   16.60    4.80
  -1   8  -1   10.70    3.80
   1  -8   1    6.30    3.20
   1   8   1   12.50    3.50
  -1   8  -2   11.20    3.50
   1   8   2   16.30    5.10
  -1  -8  -2   13.20    4.50
   1   8   2   15.70    4.50
   1  -8   2   11.10    4.10
  -1  -8  -2    9.10    3.40
   1  -8   2    8.20    3.90
  -1   8  -2   15.80    4.70
  -1   8  -2   10.20    3.70
  -1   8  -2    8.20    3.20
   1  -8   2   12.30    4.60
  -1  -8  -3   42.20    6.60
   1  -8   3   40.90    8.00
  -1   8  -3   50.79    7.30
  -1   8  -3   49.00    6.90
   1  -8   3   40.80    8.00
   1  -8   4   -5.50    6.70
   1  -8   4    1.50    5.30
   1  -9  -5   14.90    9.20
  -1   9   5    2.30    7.40
  -1   9   5   -5.00    6.90
  -1  -9   5    3.50    5.70
   1  -9  -5    3.50    8.90
   1   9  -5   -6.30    6.10
   1   9  -5    6.50    5.80
  -1  -9   5   18.80    7.70
   1  -9  -4    0.30    5.60
  -1   9   4   -2.90    4.80
  -1   9   4    7.40    5.50
  -1  -9   4   -0.50    4.50
   1  -9  -4    3.70    5.30
   1   9  -4   -8.40    5.70
   1   9  -4    5.60    4.80
  -1  -9   4   -1.10    4.70
  -1   9   3   41.80    6.90
   1  -9  -3   37.70    7.70
  -1   9   3   55.79    7.90
   1   9  -3   55.59    7.50
  -1  -9   3   48.20    8.20
   1  -9  -3   39.20    7.00
   1  -9  -3   49.70    7.80
   1   9  -3   41.60    6.60
   1   9  -3   46.80    7.40
  -1  -9   3   44.00    7.00
   1   9  -2    5.10    4.20
  -1   9   2    1.90    2.90
   1  -9  -2    5.80    4.60
   1   9  -2   -1.30    3.30
  -1   9   2   -1.30    3.20
  -1   9   2    3.30    3.50
  -1  -9   2    4.70    4.00
   1  -9  -2   -1.00    4.20
  -1  -9   2    0.70    3.10
   1  -9  -2   -4.40    3.80
   1  -9  -2   -2.30    3.60
   1   9  -2   -6.00    4.20
   1   9  -2    0.20    4.30
  -1  -9   2   -3.80    3.70
  -1   9   2    7.10    4.00
  -1  -9   2    1.70    3.80
  -1   9   1  128.09    9.90
   1   9  -1  134.89    9.50
   1  -9  -1  134.69   11.30
  -1  -9   1  111.19    9.50
  -1  -9   1  130.89    9.90
  -1   9   1  142.29    9.70
   1   9  -1  122.49   10.10
   1   9  -1  140.29   10.60
  -1  -9   1  134.69    9.50
  -1  -9   1  124.79    8.40
   1   9  -1  134.99   10.50
  -1  -9   1  133.79   10.30
  -1   9   1  135.49    8.60
   1  -9   0    4.90    3.60
   1   9   0    6.00    3.80
  -1  -9   0   14.60    4.40
   1  -9   0    5.00    3.20
  -1   9   0   12.10    3.40
   1   9   0   12.60    4.20
   1  -9   0   14.30    5.70
  -1  -9   0   14.10    4.70
   1   9   0   14.90    5.20
  -1  -9   0   11.80    3.90
   1  -9   0   11.40    3.90
  -1   9   0   16.40    4.10
  -1   9   0   14.40    4.10
   1   9   0    8.20    3.80
  -1   9   0   13.10    3.60
  -1  -9   0   11.10    3.80
  -1   9  -1  118.09    8.20
   1  -9   1  109.29   10.50
   1   9   1  123.29   10.20
   1  -9   1  121.39   11.40
  -1   9  -1  118.59    9.40
  -1  -9  -1  122.39   10.00
  -1  -9  -1  107.59    9.20
   1   9   1  130.69   11.00
  -1   9  -1  126.69    9.50
  -1   9  -1  127.09    9.90
   1  -9   1  108.39   10.20
   1   9   1  124.49   10.80
   1   9   1  116.99    8.90
   1  -9   1  112.29    9.30
  -1  -9  -1  119.49    9.80
   1  -9   2   12.00    5.80
   1   9   2    9.80    4.70
  -1  -9  -2   15.20    4.90
   1   9   2   11.20    4.70
   1  -9   2   12.00    5.20
  -1  -9  -2    9.50    3.80
  -1   9  -2   17.20    5.00
  -1   9  -2    9.40    3.70
  -1   9  -2    4.60    3.50
  -1   9  -2    7.00    3.40
   1  -9   2   14.10    4.90
  -1  -9  -3   12.60    5.20
   1  -9   3   10.80    5.50
  -1   9  -3   28.10    6.30
  -1   9  -3   16.90    4.70
   1  -9   3   15.60    5.90
  -1   9  -3   10.40    3.60
   1  -9   4   -7.00    5.40
   1  -9   4   -1.90    6.50
   1 -10  -5   -1.80    8.60
  -1  10   5   -5.10    6.30
  -1  10   5    9.20    6.60
  -1 -10   5   -3.50    6.00
   1 -10  -5  -15.50    8.90
   1  10  -5   11.40    7.60
   1  10  -5   -2.60    5.70
  -1 -10   5    6.40    7.20
  -1  10   4    7.20    4.60
   1 -10  -4   12.20    6.90
  -1  10   4    6.30    5.10
  -1 -10   4    9.20    5.50
   1 -10  -4   22.40    8.10
   1  10  -4   -1.10    5.60
   1  10  -4   18.50    6.80
  -1 -10   4    1.00    5.70
   1 -10  -3   69.89   10.70
  -1  10   3   70.89    9.20
  -1 -10   3   63.19    9.30
  -1  10   3   76.19    9.50
   1  10  -3   62.09    8.80
   1 -10  -3   71.19   10.10
   1  10  -3   67.49    8.80
   1  10  -3   73.29    9.90
   1 -10  -3   56.79    8.50
  -1 -10   3   67.99    9.10
  -1  10   2  355.86   17.80
   1 -10  -2  358.86   19.10
  -1 -10   2  334.47   17.20
  -1 -10   2  346.77   18.00
  -1  10   2  362.16   17.10
  -1 -10   2  312.67   17.60
   1  10  -2  359.76   18.10
  -1  10   2  363.26   18.20
   1 -10  -2  355.56   17.90
   1  10  -2  376.96   17.80
   1  10  -2  353.66   18.10
   1  10  -2  325.97   16.10
  -1 -10   2  363.46   17.90
   1 -10  -2  339.67   19.40
  -1  10   2  358.66   16.90
   1  10  -1   64.29    8.20
   1 -10  -1   56.49    8.20
  -1  10   1   54.79    7.10
   1  10  -1   62.99    8.10
  -1  10   1   65.19    7.70
   1 -10  -1   62.59    9.10
  -1 -10   1   64.59    8.10
   1 -10  -1   54.79    7.80
  -1 -10   1   59.29    7.60
   1  10  -1   67.49    8.60
  -1 -10   1   65.69    8.10
  -1  10   1   64.29    8.00
   1 -10   0   51.39    7.40
   1  10   0   35.60    6.60
  -1 -10   0   46.30    6.80
  -1  10   0   54.29    6.60
   1  10   0   34.30    6.20
   1 -10   0   47.00    7.60
   1 -10   0   48.20    6.90
   1 -10   0   31.70    6.30
  -1 -10   0   43.00    7.00
  -1 -10   0   43.80    6.20
   1  10   0   32.60    6.30
  -1  10   0   45.40    6.60
   1  10   0   50.89    7.20
  -1  10   0   36.60    6.30
  -1  10   0   34.80    5.90
  -1 -10   0   32.70    6.10
  -1 -10  -1    8.50    4.10
   1  10   1   16.20    6.00
  -1 -10  -1   22.10    5.70
   1  10   1   12.20    5.00
   1 -10   1   16.20    6.20
   1 -10   1   16.40    6.60
   1 -10   1    4.30    4.80
  -1 -10  -1   11.00    4.40
   1  10   1   -0.60    4.80
  -1  10  -1   15.90    4.40
  -1  10  -1    4.80    3.90
  -1  10  -1   10.40    3.90
   1 -10   2    5.40    5.00
   1  10   2   11.80    6.20
  -1 -10  -2   10.90    4.40
   1  10   2   12.10    5.70
   1 -10   2    8.30    5.10
   1 -10   2   11.40    5.50
  -1 -10  -2   13.50    4.70
  -1  10  -2    0.40    3.70
  -1  10  -2    6.30    4.10
   1 -10   2   13.50    5.50
  -1  10  -2   14.10    4.00
  -1 -10  -3   -0.10    4.00
   1 -10   3    5.00    5.70
  -1  10  -3    6.80    4.50
   1 -10   3   -1.20    5.10
  -1  10  -3    0.30    3.20
   1 -10   4   13.40    7.00
   1 -10   4   23.70    6.70
   1 -11  -5    6.10    9.30
  -1  11   5   -3.90    7.00
  -1 -11   5    3.90    7.00
  -1  11   5   14.60    8.60
   1  11  -5   14.60    7.70
  -1 -11   5   10.70    8.10
   1 -11  -4   17.40    7.80
  -1  11   4   32.40    8.40
  -1  11   4   47.30   10.20
  -1 -11   4   33.70    9.10
   1 -11  -4   36.50    8.90
   1  11  -4   37.10    8.70
   1  11  -4   47.40   10.00
  -1 -11   4   34.60    8.50
  -1 -11   3   58.29   11.60
   1 -11  -3   85.39   11.10
  -1  11   3  105.29   11.60
   1  11  -3  107.09   12.70
   1 -11  -3  114.99   12.70
   1  11  -3  104.39   11.10
  -1 -11   3  103.09   11.90
  -1  11   3   97.39   10.80
   1 -11  -3  108.89   13.40
   1  11  -3   97.49   10.80
  -1  11   3  107.79   11.60
  -1  11   2  211.38   14.90
   1 -11  -2  203.78   15.90
  -1 -11   2  203.18   14.50
  -1 -11   2  183.48   14.40
  -1  11   2  227.28   14.80
  -1 -11   2  180.08   14.90
   1  11  -2  190.78   13.90
  -1  11   2  194.18   14.50
   1  11  -2  202.48   14.50
   1  11  -2  211.08   15.30
   1 -11  -2  226.08   16.80
   1  11  -1   14.50    5.70
   1 -11  -1   18.20    6.10
  -1  11   1   24.30    5.40
  -1  11   1   21.40    5.80
   1 -11  -1   16.50    6.30
   1  11  -1   21.50    5.70
  -1 -11   1   19.40    5.70
  -1 -11   1   29.00    6.20
   1  11  -1   13.80    5.50
   1 -11  -1   20.80    6.10
  -1  11   1   31.50    7.00
  -1 -11   1   20.30    5.90
  -1  11   0   -0.70    5.20
   1 -11   0    9.50    5.50
  -1 -11   0    1.80    5.50
  -1  11   0    7.20    3.70
   1 -11   0   23.30   10.00
   1 -11   0    8.90    4.60
  -1 -11   0    3.90    4.90
   1 -11   0   12.60    6.20
  -1 -11   0  -15.50    7.10
  -1  11   0    9.90    4.80
  -1  11   0    8.80    4.70
   1  11   0   16.80   10.20
  -1 -11   0    7.20    5.30
   1  11   1   -3.90    5.40
   1  11   1   -1.80    5.20
  -1 -11  -1    5.40    3.90
  -1 -11  -1    7.50    4.60
   1 -11   1   -0.10    6.20
   1  11   1   -1.70    4.80
   1 -11   1   -5.30    6.10
   1 -11   1    0.80    4.30
  -1 -11  -1    4.40    3.90
  -1  11  -1    1.00    3.90
  -1  11  -1   -0.30    4.50
  -1  11  -1   -3.90    3.70
   1 -11   2   64.89   10.90
   1  11   2   51.39    9.30
  -1 -11  -2   38.00    7.70
   1  11   2   42.10    8.30
   1 -11   2   48.90    9.80
   1 -11   2   48.80    9.60
  -1 -11  -2   49.40    7.10
  -1  11  -2   55.09    8.80
  -1  11  -2   58.89    8.10
  -1  11  -2   47.10    7.30
  -1  11  -3   -2.70    3.70
   1 -11   3   -0.20    6.60
  -1  11  -3    2.10    4.60
   1 -11   3    1.30    5.40
   1 -11   4    7.50    7.20
   1 -11   4   -3.70    7.70
  -1 -12   5   -6.60    7.80
  -1  12   5  -13.00    9.60
   1 -12  -4   13.70    7.40
  -1  12   4   -4.20    6.00
  -1  12   4    6.30    5.30
  -1 -12   4    4.80    7.10
   1 -12  -4   -0.30    7.20
   1  12  -4    4.40    7.70
   1  12  -4   18.20    8.50
  -1 -12   4    9.70    8.90
  -1  12   3   10.90    6.80
   1 -12  -3    1.70    6.10
  -1  12   3   -3.30    4.60
   1  12  -3   -5.90    6.40
  -1 -12   3    3.20    7.10
   1 -12  -3    4.00    5.70
   1  12  -3    0.30    6.00
   1  12  -3    9.40    7.00
  -1  12   3   -3.70    5.10
   1 -12  -3    1.50    5.70
  -1 -12   3   -3.60    5.60
  -1 -12   2   13.90    6.30
   1 -12  -2   10.00    8.20
  -1  12   2    8.30    5.80
   1 -12  -2    1.30    6.00
  -1 -12   2    6.30    6.20
  -1  12   2   -2.30    5.00
   1 -12  -2    2.40    4.90
   1  12  -2    8.60    5.70
   1  12  -2   17.50    6.90
  -1  12   2    9.10    5.80
   1  12  -2    5.40    5.60
  -1 -12   2    5.50    5.30
   1 -12  -1   16.10    7.20
  -1  12   1   -3.60    4.50
  -1  12   1   -1.90    4.70
   1 -12  -1   10.00    6.10
  -1 -12   1    3.80    4.90
  -1 -12   1   -0.50    4.40
   1 -12  -1   -1.30    5.20
   1  12  -1   -9.10    5.60
   1  12  -1   -3.30    5.70
  -1  12   1    8.80    5.80
  -1 -12   1    5.30    5.20
   1  12  -1    0.20    5.10
   1 -12   0    4.60    4.70
   1  12   0    6.20    5.90
  -1  12   0    6.20    4.70
  -1 -12   0    7.80    4.90
   1  12   0    8.80    6.40
  -1  12   0   -2.40    4.10
   1  12   0   11.20    5.60
   1 -12   0   -1.90    6.50
   1 -12   0    3.30    5.10
  -1 -12   0    7.70    4.90
   1 -12   0    3.30    5.80
  -1 -12   0    4.00    4.40
  -1  12   0   13.00    5.20
   1  12   0   -3.50    5.20
  -1  12   0    2.70    4.40
  -1 -12   0    6.00    4.20
   1  12   1   -0.10    5.70
  -1  12  -1   -4.00    4.60
  -1 -12  -1   -4.40    5.60
  -1 -12  -1    5.70    5.10
   1 -12   1   -4.00    5.90
   1  12   1    0.20    4.80
   1 -12   1    7.50    5.90
  -1 -12  -1   -6.20    5.70
   1  12   1    5.90    5.40
   1 -12   1    4.40    5.10
  -1  12  -1    6.80    5.20
  -1  12  -1    8.70    4.70
   1  12   2    0.20    5.80
  -1  12  -2    7.20    4.70
  -1 -12  -2    6.80    5.60
   1  12   2   -5.90    6.50
   1 -12   2    3.40    7.40
  -1 -12  -2   14.00    5.70
   1 -12   2    8.30    6.80
  -1  12  -2   11.30    6.20
  -1  12  -2    7.70    4.50
   1 -12   3   -1.10    7.10
  -1  12  -3    2.80    4.20
   1 -12   4   13.50    9.50
  -1  13   4   -4.20    8.10
  -1  13   4    0.50    7.10
  -1 -13   4    3.40    7.50
   1 -13  -4  -10.10    9.40
   1  13  -4    2.40    7.60
  -1 -13   4   17.40    9.20
   1 -13  -3    0.40    6.70
  -1  13   3   19.40    8.70
  -1 -13   3    6.90    7.30
   1  13  -3   17.20    8.90
  -1  13   3    3.80    6.30
   1 -13  -3    8.20    6.30
   1 -13  -2   18.10    7.50
   1  13  -2   18.30    6.50
  -1  13   2   20.20    7.40
   1 -13  -2   14.50    6.50
  -1 -13   2   26.10    8.60
  -1 -13   2   13.40    7.40
   1 -13  -2    0.80    5.20
   1  13  -2   29.80    8.70
  -1  13   2   21.50    7.30
  -1  13   2   33.60    8.10
   1  13  -2   28.50    8.00
  -1 -13   2   15.40    5.80
   1  13  -1   16.10    6.40
   1 -13  -1   13.30    5.60
  -1 -13   1   16.80    7.20
  -1  13   1   17.80    6.30
   1 -13  -1   28.30    8.10
  -1 -13   1   24.30    6.40
   1 -13  -1    6.90    6.80
  -1  13   1   21.90    6.80
   1  13  -1   11.70    5.70
  -1  13   1   19.80    6.40
   1  13  -1    6.80    6.30
  -1 -13   1   13.90    6.20
  -1 -13   0   -1.40    4.10
  -1 -13   0   -2.70    4.70
  -1  13   0   13.00    6.00
  -1  13   0    1.00    3.90
   1 -13   0    9.00    6.70
   1  13   0    3.00    5.50
  -1 -13   0    1.00    5.70
   1  13   0    5.10    6.40
   1 -13   0   -3.90    5.70
  -1 -13   0    4.60    4.30
   1 -13   0    7.50    5.70
  -1  13   0    4.70    5.30
   1  13   0    8.00    5.50
  -1  13   0    2.20    5.10
   1 -13   0   -1.10    5.10
   1  13   0   -2.20    5.90
   1  13   1   35.60    9.70
   1  13   1   24.20    7.70
  -1 -13  -1    8.00    6.80
  -1 -13  -1   33.40    7.50
  -1  13  -1   30.50    6.70
   1 -13   1   30.70    9.10
   1  13   1   25.40    7.40
   1 -13   1   22.80    7.90
  -1 -13  -1   24.90    7.60
   1 -13   1    8.20    7.20
  -1  13  -1   28.90    6.50
  -1  13  -1   37.00    8.40
   1  13   2   17.50    8.20
  -1 -13  -2    8.00    5.10
  -1  13  -2    9.10    5.00
   1  13   2   11.90    6.00
  -1 -13  -2   -4.80    5.30
   1 -13   2    2.80    6.50
   1 -13   2   16.10    7.80
  -1  13  -2   24.20    7.10
  -1  13  -2   20.40    6.60
   1 -13   3   -1.80    7.20
  -1  13  -3   -0.90    4.60
   1 -14  -3   35.80   11.60
  -1  14   3   40.80    9.60
  -1 -14   3   25.90    9.40
   1  14  -3   31.70   10.10
  -1 -14   2    6.30    6.80
   1 -14  -2   25.50    9.30
  -1  14   2   18.90    6.90
   1 -14  -2   11.70    7.30
  -1 -14   2   28.40    8.50
   1  14  -2   13.00    7.10
   1  14  -2   20.00    8.30
   1 -14  -2    0.10    6.50
  -1  14   2   26.10    8.70
   1  14  -2   26.80    9.00
  -1  14   2    9.30    5.80
  -1 -14   2    9.70    6.70
  -1 -14   1   23.40    9.40
   1 -14  -1   47.50   10.70
  -1 -14   1   57.79   10.70
  -1  14   1   64.49   10.30
   1 -14  -1   68.19   12.10
   1  14  -1   62.79   11.10
  -1 -14   1   50.99   10.50
  -1  14   1   45.30    8.50
   1 -14  -1   16.60   10.00
   1  14  -1   34.10    7.60
  -1  14   1   61.29   10.70
   1  14  -1   65.79   11.00
  -1 -14   0   -1.40    5.30
  -1 -14   0    5.50    6.30
   1 -14   0   11.30    7.40
  -1  14   0    2.50    5.70
  -1 -14   0   -5.60    6.10
   1 -14   0   -7.10    7.40
   1  14   0    7.90    7.20
   1  14   0    1.90    6.90
  -1  14   0    3.30    5.30
   1  14   0    4.90    7.00
  -1 -14  -1   -5.30    7.00
  -1 -14  -1    4.80    6.80
   1  14   1    9.40    8.00
   1 -14   1    2.50    7.40
  -1  14  -1    5.60    4.90
   1  14   1    6.30    5.40
  -1 -14  -1   13.00    6.90
   1 -14   1    4.80    7.60
   1 -14   1    3.30    7.10
  -1  14  -1   -0.60    5.50
  -1  14  -1   -0.60    5.50
   1  14   1    9.70    7.40
  -1  14  -2  -10.00    6.90
   1 -14   2   -3.50    6.50
   1 -14   2   -0.80    6.70
  -1  14  -2   -7.00    5.50
  -1  14  -2    4.70    5.20
   1 -14   3    4.70    8.00
   1 -15  -2  -16.60    9.10
  -1 -15   2    8.70    7.30
  -1  15   2   -5.60    6.70
  -1  15   2    5.40    6.40
   1 -15  -2   15.90    9.60
  -1 -15   2   -5.60    7.40
  -1 -15   2  -19.50    8.50
   1  15  -2   13.50    8.10
  -1  15   2  -11.50    7.70
   1 -15  -2   -4.90    7.80
   1  15  -2    9.20    7.60
   1  15  -2   -6.00    7.80
   1 -15  -1    7.10    8.80
  -1 -15   1   -5.70    8.80
  -1  15   1   16.50    8.20
   1 -15  -1   -0.90    7.60
  -1 -15   1   11.30    9.00
  -1 -15   1   -3.30    6.90
   1 -15  -1    2.50    8.60
   1  15  -1    4.10    7.50
  -1  15   1   -1.50    7.40
   1  15  -1   -1.70    6.60
  -1  15   1   12.00    7.20
   1  15  -1   14.10   10.00
  -1 -15   0    5.10    5.60
   1 -15   0   17.00   10.00
  -1  15   0   25.60    8.90
   1 -15   0    2.10    7.00
  -1  15   0    0.60    6.30
   1  15   0    3.90    6.10
   1  15   0   23.20    9.40
  -1 -15   0   17.00    8.60
  -1 -15  -1    2.90    6.00
  -1 -15  -1    1.80    6.50
   1 -15   1    6.70    8.70
  -1  15  -1   -2.60    5.80
   1 -15   1   16.10    9.20
   1  15   1    2.40    6.30
  -1 -15  -1    3.90    6.00
   1 -15   1   16.80   10.50
  -1  15  -1    5.20    5.60
  -1  15  -1   -0.10    6.70
   1  15   1   25.60   10.20
   1 -15   2   18.20    9.80
  -1  15  -2    5.40    5.50
   1 -15   2   -4.80    8.20
  -1  15  -2    5.60    6.30
  -1 -16   2   -2.90    8.10
  -1  16   2   -8.20    8.00
  -1 -16   1   -8.10    8.30
  -1  16   1   -7.00    7.10
  -1 -16   1    6.60    7.60
   1  16  -1   -4.00    9.10
   1 -16  -1  -14.60   10.50
   1  16  -1   -0.30    7.60
  -1  16   1    1.40    6.00
   1 -16  -1    3.60    9.00
  -1 -16   0   -0.80    6.40
   1 -16   0    0.60    9.50
  -1  16   0   -8.70    7.00
   1  16   0   17.10   10.00
   1 -16   1    8.50    7.60
  -1  16  -1   -1.30    5.70
   1 -16   1   -0.80    8.90
   1 -16   2   -3.80    9.80
  -2   0   7   -1.00    6.40
  -2   0   7    7.50    7.60
  -2   0   6  129.49   14.10
  -2   0   6  123.19   13.70
   2   0  -6  119.19   13.90
   2   0  -6  129.59   14.90
  -2   0   5   -0.10    4.10
  -2   0   5   -2.10    5.10
  -2   0   5    2.30    4.30
   2   0  -5   -1.80    4.60
   2   0  -5    4.40    6.10
   2   0  -5    1.90    4.60
   2   0  -5    6.80    5.20
  -2   0   5   -4.40    4.50
  -2   0   4    4.70    3.00
  -2   0   4    2.20    2.80
   2   0  -4    6.20    4.60
   2   0  -4    4.90    3.80
  -2   0   4    1.20    3.00
  -2   0   4    3.30    3.00
  -2   0   3   -1.40    1.80
  -2   0   3   -1.40    2.30
  -2   0   3    1.50    1.50
  -2   0   3   -0.30    2.00
   2   0  -3   -1.40    3.40
   2   0  -3   -1.40    3.20
   2   0  -3    0.90    1.80
  -2   0   3    1.80    1.90
  -2  -1   7   -0.60    7.00
  -2  -1   7    9.90    6.60
  -2   1   7    6.10    6.30
  -2   1   7   -1.60    6.60
  -2   1   6   22.60    6.70
  -2   1   6   13.30    7.20
  -2   1   6   19.90    7.10
  -2  -1   6   14.30    6.50
  -2  -1   6    9.00    5.80
   2  -1  -6   18.40    7.90
   2   1  -6   20.30    8.10
   2  -1  -6   28.70    9.50
   2  -1  -6   25.90    8.30
   2   1  -6   13.50    7.00
   2   1  -6    6.40    6.90
  -2  -1   6    2.40    5.40
  -2   1   5    4.00    4.20
  -2  -1   5    9.50    5.20
  -2   1   5    2.90    5.00
  -2   1   5    5.70    4.60
  -2  -1   5   -5.30    4.80
   2  -1  -5   14.20    6.90
   2   1  -5    2.00    4.30
   2   1  -5    9.10    6.00
   2  -1  -5    3.50    5.50
   2  -1  -5   12.00    5.80
   2   1  -5    5.10    4.80
  -2  -1   5    5.50    3.90
  -2  -1   4  155.08   10.80
  -2   1   4  151.08   10.90
  -2   1   4  156.18   11.20
  -2  -1   4  152.38   10.90
   2   1  -4  151.58   12.00
   2  -1  -4  150.08   12.00
   2   1  -4  134.49   10.80
   2  -1  -4  148.29   11.70
  -2  -1   4  154.68   10.40
  -2   1   4  142.49    9.80
  -2   1   4  159.48   10.40
  -2  -1   4  155.08    9.70
  -2  -1   3  225.08   11.10
  -2   1   3  223.88    8.80
  -2   1   3  230.88   11.00
  -2   1   3  206.18   10.70
  -2  -1   3  203.78   10.60
   2   1  -3  219.28   12.60
   2  -1  -3  230.88   12.60
   2  -1  -3  205.28   12.10
   2   1  -3  230.48    9.50
  -2  -1   3  225.78   10.70
  -2   1   3  219.18   10.50
  -2   1   3  225.38   10.50
  -2  -2   7   -3.20    7.40
  -2   2   7    1.60    6.10
  -2   2   7   -4.40    7.60
  -2  -2   7    1.40    7.90
  -2   2   6   11.70    5.00
  -2  -2   6   20.40    7.90
  -2   2   6    7.20    6.50
  -2   2   6    2.00    5.90
  -2  -2   6   11.20    7.10
   2  -2  -6    6.30    6.70
   2   2  -6   30.40    9.20
   2   2  -6   -8.10    7.70
   2  -2  -6    4.50    6.00
   2  -2  -6    5.10    5.90
   2   2  -6   10.00    6.10
  -2  -2   6    7.60    6.10
  -2  -2   5  158.28   13.20
  -2   2   5  158.68   13.40
  -2   2   5  140.79   12.80
  -2  -2   5  160.48   13.50
   2  -2  -5  155.58   13.30
   2   2  -5  132.79   12.20
   2   2  -5  157.68   14.10
   2  -2  -5  155.08   13.90
   2  -2  -5  155.88   13.80
   2   2  -5  145.79   12.80
  -2  -2   5  152.48   12.90
  -2   2   5  171.58   13.00
  -2   2   4   15.00    4.00
  -2  -2   4   25.70    4.20
  -2   2   4   23.60    4.70
  -2   2   4   30.00    5.30
  -2  -2   4   33.00    5.60
   2   2  -4   26.60    6.00
   2  -2  -4   33.00    6.40
  -2  -2   4   21.00    4.30
   2  -2  -4   24.00    5.80
  -2  -2   4   27.00    5.40
  -2   2   4   24.60    4.90
  -2  -2   3   28.50    3.80
  -2   2   3   26.50    4.10
  -2   2   3   32.70    3.70
  -2  -2   3   33.50    4.60
  -2   2   3   30.70    4.30
  -2  -2   3   29.10    4.50
  -2   2   3   33.40    4.70
   2   2  -3   36.90    5.70
   2  -2  -3   29.50    5.00
   2  -2  -3   26.60    5.00
   2   2  -3   35.30    4.50
  -2  -2   3   27.70    4.30
  -2   2   2   36.70    4.40
  -2   3   7    0.70    7.20
  -2  -3   7   -0.30    7.00
  -2   3   7    3.60    7.40
  -2  -3   7  -14.00    8.20
  -2   3   6    0.20    5.80
  -2  -3   6    4.80    5.40
  -2   3   6   -3.30    6.50
  -2   3   6    6.50    6.00
  -2  -3   6    4.40    6.50
   2  -3  -6   -2.50    7.00
   2   3  -6    6.90    6.90
   2   3  -6   -1.40    6.70
   2  -3  -6    6.40    6.90
   2  -3  -6   16.30    7.90
   2   3  -6    5.90    6.60
  -2  -3   6   13.90    6.20
  -2   3   5    5.90    4.70
  -2  -3   5    1.10    4.40
  -2   3   5   11.10    4.90
  -2   3   5    3.80    4.50
  -2  -3   5    4.90    5.10
   2  -3  -5    3.10    5.10
   2   3  -5   11.60    5.80
   2   3  -5   16.60    7.30
   2  -3  -5   13.30    6.60
   2  -3  -5   12.80    5.60
   2   3  -5    5.80    5.40
  -2  -3   5    1.70    4.20
  -2   3   4    3.40    2.80
  -2  -3   4    0.80    2.90
  -2   3   4   -1.70    2.90
  -2   3   4    4.40    3.60
  -2  -3   4   -0.40    3.40
   2   3  -4   -0.50    4.50
   2  -3  -4    1.00    4.80
   2  -3  -4    5.50    4.30
  -2  -3   4    0.70    2.90
  -2  -3   3  436.76   15.50
  -2   3   3  521.85   15.50
  -2   3   3  533.75   17.10
  -2   3   3  520.75   16.90
  -2  -3   3  551.74   18.20
   2   3  -3  472.55   18.50
   2  -3  -3  506.05   19.10
   2  -3  -3  500.45   19.60
   2   3  -3  527.35   17.00
  -2  -3   3  502.55   17.20
   2  -3  -3  510.35   19.20
  -2  -3   3  550.94   13.90
  -2   3   3  498.85   16.90
  -2   3   2    3.20    2.20
  -2   3   2    5.10    2.30
  -2   3   2    2.20    1.70
   2  -3  -2    2.30    2.80
  -2  -3   2    3.10    1.90
  -2   4   7   43.70   11.30
  -2  -4   7   38.50   10.20
  -2   4   7   44.70   12.20
  -2  -4   7   31.80    9.70
  -2   4   6   51.99    9.60
  -2  -4   6   48.80    9.60
  -2   4   6   42.20    9.50
  -2   4   6   54.29   11.00
  -2  -4   6   44.80    9.30
   2  -4  -6   51.39   10.20
   2   4  -6   36.50    8.90
   2   4  -6   41.50   10.00
   2  -4  -6   54.69   11.80
   2  -4  -6   55.79   11.30
   2   4  -6   42.40    9.20
  -2  -4   6   55.89   10.30
  -2   4   5   38.80    7.30
  -2  -4   5   33.30    7.00
  -2   4   5   45.80    8.00
  -2   4   5   28.30    6.70
  -2  -4   5   39.10    7.50
   2  -4  -5   35.10    8.30
   2   4  -5   47.10    8.30
   2   4  -5   38.60    8.00
   2  -4  -5   47.00    9.40
   2  -4  -5   38.60    8.80
   2   4  -5   44.10    8.70
  -2  -4   5   27.00    6.70
  -2   4   4   28.50    5.90
  -2   4   4   26.20    4.60
  -2  -4   4   19.30    4.60
  -2   4   4   31.30    5.90
  -2   4   4   29.20    5.90
  -2  -4   4   28.00    5.60
   2   4  -4   39.20    7.30
   2  -4  -4   27.10    6.50
  -2  -4   4   30.20    5.70
   2  -4  -4   23.90    5.30
   2   4  -4   26.50    5.80
  -2  -4   4   29.60    5.70
   2  -4  -4   26.10    5.80
  -2   4   3    3.00    2.60
  -2   4   3    4.70    2.40
  -2  -4   3    0.80    2.10
  -2   4   3    1.10    2.40
  -2   4   3   -0.60    2.50
  -2  -4   3    5.70    3.00
   2   4  -3    2.00    3.30
   2  -4  -3    1.90    3.00
  -2  -4   3    2.80    2.70
   2  -4  -3    5.90    4.30
   2   4  -3    2.90    3.60
  -2  -4   3   -0.70    3.10
   2  -4  -3    6.40    3.80
  -2   4   2    8.50    2.60
  -2   4   2   11.90    2.80
  -2  -4   2   11.20    2.80
  -2   4   2   12.20    2.50
   2  -4  -2   11.80    3.10
  -2   4   2   11.10    2.80
   2  -4  -2    3.80    3.00
  -2  -4   2   13.20    3.30
   2  -4  -2   14.20    4.00
  -2   5   6    5.70    5.60
  -2  -5   6   -6.20    5.40
  -2   5   6   11.10    5.30
  -2   5   6    4.60    5.90
  -2  -5   6   -7.20    6.30
   2  -5  -6   -0.80    7.10
   2   5  -6    2.60    5.90
   2   5  -6    7.60    7.10
   2  -5  -6   -1.90    7.40
   2  -5  -6  -17.40    9.40
   2   5  -6    6.20    6.50
  -2  -5   6   -2.70    5.90
  -2  -5   5   92.19   10.90
  -2   5   5  103.99   11.50
  -2   5   5   84.59   10.10
  -2  -5   5   92.79   10.80
   2  -5  -5   97.49   11.80
   2   5  -5   85.69   10.70
   2   5  -5   87.19   11.30
   2  -5  -5   93.39   12.10
   2  -5  -5   93.59   12.70
   2   5  -5   97.89   11.50
  -2  -5   5   87.69   11.10
  -2   5   5  100.69   11.20
  -2   5   4   90.79    8.40
  -2  -5   4   96.49    8.70
  -2   5   4  103.69    9.70
  -2   5   4   89.19    8.50
  -2  -5   4  107.29   10.60
   2   5  -4  100.19   11.90
   2  -5  -4   95.29   10.30
   2  -5  -4   99.79   10.50
  -2  -5   4  120.19   11.70
   2   5  -4   71.59    7.10
  -2   5   4   86.89    9.40
   2  -5  -4   80.99    9.10
  -2   5   3    0.30    2.70
  -2   5   3   -1.50    2.70
  -2  -5   3   -1.70    2.20
  -2   5   3   -1.30    2.40
  -2   5   3   -1.00    2.40
  -2  -5   3    0.60    3.00
   2  -5  -3    1.50    3.10
  -2  -5   3   -0.70    2.70
   2  -5  -3   -0.60    4.20
   2   5  -3    4.50    3.30
  -2  -5   3   -0.30    2.90
   2  -5  -3    0.80    3.70
   2   5  -2   44.80    5.60
  -2   5   2   45.20    4.70
  -2   5   2   41.90    5.20
  -2  -5   2   35.60    4.20
  -2   5   2   40.20    4.30
  -2  -5   2   47.00    5.20
   2  -5  -2   40.90    5.00
  -2  -5   2   46.90    5.40
   2  -5  -2   40.60    6.10
  -2  -5   2   41.90    5.40
   2   5  -2   47.20    6.20
  -2   5   2   50.69    5.60
   2  -5  -2   35.70    5.60
  -2   5   1   23.00    3.90
  -2   6   6   26.10    8.20
  -2  -6   6   20.90    7.20
  -2   6   6   40.00    9.10
  -2   6   6   31.00    9.20
  -2  -6   6   35.20    9.50
   2  -6  -6   43.70   10.70
   2   6  -6   24.00    7.80
   2   6  -6   17.80    8.20
   2  -6  -6   17.80    8.60
   2  -6  -6   26.30    8.80
   2   6  -6   38.80   10.20
  -2  -6   6   42.80   10.20
  -2   6   5   10.90    5.70
  -2  -6   5   21.10    5.80
  -2   6   5   13.40    4.90
  -2   6   5   22.90    6.90
  -2  -6   5   19.40    6.40
   2  -6  -5   15.60    6.50
   2   6  -5   11.10    5.80
   2   6  -5   17.00    7.10
   2  -6  -5   15.20    6.80
   2  -6  -5    7.10    7.10
   2   6  -5   21.70    7.40
  -2  -6   5    9.00    5.20
   2  -6  -4   64.29    9.50
  -2   6   4   73.99    8.90
  -2   6   4   64.89    7.40
  -2  -6   4   69.79    7.90
  -2   6   4   80.09    8.70
  -2  -6   4   74.29    9.00
  -2   6   4   57.09    7.50
  -2  -6   4   64.69    8.20
   2  -6  -4   61.69    8.00
   2   6  -4   59.49    8.60
   2  -6  -4   69.39    9.40
   2  -6  -4   56.99    8.70
   2   6  -4   75.39    9.00
  -2  -6   4   60.79    8.30
   2  -6  -3    0.90    4.40
  -2   6   3    1.00    3.00
  -2   6   3    3.90    3.30
  -2  -6   3    0.30    2.30
  -2   6   3    1.40    2.50
  -2  -6   3    0.60    2.90
   2  -6  -3   -0.70    4.70
   2   6  -3    3.90    4.60
  -2  -6   3   -2.10    3.20
   2   6  -2   62.89    6.80
  -2   6   2   73.09    6.90
  -2   6   2   68.49    6.10
  -2  -6   2   59.39    5.10
  -2   6   2   61.39    5.10
  -2  -6   2   69.09    6.20
   2  -6  -2   47.60    5.90
  -2  -6   2   50.29    6.30
   2  -6  -2   54.39    7.40
  -2  -6   2   64.49    6.70
   2   6  -2   71.69    7.80
  -2   6   2   62.49    6.20
   2  -6  -2   52.59    6.60
   2  -6  -1   77.39    8.30
  -2   6   1   89.49    7.40
  -2   6   1   80.69    6.80
   2  -6  -1   68.29    7.30
   2  -6  -1   90.79    9.10
  -2   6   1   80.49    6.60
  -2   7   6    9.10    7.40
   2  -7  -6   -6.60    9.20
   2   7  -6   13.30    8.90
  -2  -7   6    3.70    7.70
  -2   7   5   -6.80    6.20
   2  -7  -5    0.20    7.70
   2   7  -5   -5.70    6.20
  -2  -7   5    8.00    6.90
   2  -7  -4   47.10    9.20
  -2   7   4   42.80    7.30
  -2   7   4   33.50    5.80
  -2  -7   4   41.20    7.30
   2  -7  -4   46.80    8.20
   2   7  -4   39.70    8.40
   2   7  -4   44.40    8.30
  -2  -7   4   37.60    7.70
  -2   7   3  215.88   13.10
   2  -7  -3  183.18   15.90
   2   7  -3  152.48   11.90
  -2  -7   3  142.59   11.10
   2  -7  -3  166.88   14.30
  -2   7   3  188.18   12.60
   2  -7  -2   31.00    6.60
  -2   7   2   37.40    5.10
   2   7  -2   41.30    6.30
  -2   7   2   35.40    5.20
   2  -7  -2   28.20    5.00
  -2  -7   2   36.40    5.10
  -2  -7   2   30.00    5.40
   2  -7  -2   35.80    6.40
  -2   7   2   32.60    4.70
  -2   7   2   41.60    5.60
   2   7  -2   42.70    7.00
  -2  -7   2   40.10    5.90
  -2   7   1   30.30    4.40
  -2   7   1   34.50    5.20
   2  -7  -1   35.40    5.70
   2  -7  -1   35.00    5.60
  -2   7   1   36.80    5.20
  -2   7   1   33.00    5.20
   2  -7  -1   32.20    6.10
  -2   7   0  117.99    8.50
   2  -7   0  120.89   11.80
  -2   7   0  126.49    9.00
  -2   8   6   -4.30    6.40
  -2  -8   6    4.30    7.80
  -2   8   5   23.00    7.20
  -2   8   5    7.20    6.00
  -2  -8   5   11.90    6.30
   2  -8  -5   33.80   10.00
   2   8  -5   13.50    8.50
   2   8  -5   11.30    6.60
  -2  -8   5   21.20    7.40
   2  -8  -5   13.40    6.40
   2  -8  -4   58.99    9.40
  -2   8   4   71.89    9.10
  -2   8   4   81.69    9.30
  -2  -8   4   70.89    9.20
   2  -8  -4   61.69   10.10
   2   8  -4   69.99    9.90
   2   8  -4   66.39    9.60
  -2  -8   4   70.69    9.80
   2  -8  -3    9.80    5.40
  -2   8   3    1.70    3.40
  -2   8   3    5.70    3.30
   2  -8  -3    3.40    4.40
  -2  -8   3    5.10    3.70
   2  -8  -3    6.10    5.10
   2   8  -3    6.50    5.20
  -2  -8   3    4.60    3.60
   2  -8  -2   -1.90    4.20
  -2   8   2    0.60    2.70
   2   8  -2    4.60    4.20
  -2   8   2   -3.50    3.20
   2  -8  -2   -1.00    3.60
  -2  -8   2    3.30    3.30
  -2  -8   2   -2.00    3.30
   2  -8  -2   -4.70    4.00
  -2   8   2    0.30    3.00
  -2   8   2   -1.60    3.00
   2   8  -2   -1.00    4.20
  -2  -8   2    0.60    2.80
  -2   8   1  163.38   10.70
   2  -8  -1  149.19   12.30
  -2   8   1  170.18   11.00
   2  -8  -1  160.88   11.20
  -2  -8   1  178.88   11.70
  -2   8   1  160.78   10.90
   2   8  -1  169.98   12.80
   2   8  -1  158.88   12.40
   2  -8  -1  164.98   12.70
  -2   8   1  161.98    9.30
  -2   8   0    2.80    2.50
   2  -8   0    6.30    3.80
  -2   8   0   -1.30    3.10
  -2   8   0    3.00    3.40
  -2   9   5   75.29   11.30
  -2   9   5   56.09    9.50
  -2  -9   5   27.30    7.90
   2  -9  -5   64.39   12.80
   2   9  -5   63.19   10.70
   2   9  -5   69.59   11.70
  -2  -9   5   52.79   10.40
   2  -9  -5   46.60   10.70
   2  -9  -4  -12.50    7.10
  -2   9   4    1.90    4.30
  -2   9   4   -6.10    5.20
  -2  -9   4    3.90    5.80
   2  -9  -4    0.10    6.10
   2   9  -4   17.20    8.40
   2   9  -4    5.10    6.00
  -2  -9   4   -6.10    5.70
   2  -9  -3   42.00    8.60
  -2   9   3   54.39    8.10
  -2   9   3   36.30    6.60
   2  -9  -3   57.09    9.30
  -2  -9   3   36.70    7.20
   2  -9  -3   36.10    7.50
   2   9  -3   31.90    7.70
  -2  -9   3   42.40    7.50
   2  -9  -2   11.30    6.70
  -2   9   2   -2.80    3.30
   2   9  -2    2.60    4.80
  -2   9   2    5.90    4.10
   2  -9  -2   -1.30    4.60
   2  -9  -2    0.00    4.40
  -2  -9   2   -2.80    4.00
  -2  -9   2    1.80    3.90
   2  -9  -2    3.00    4.80
  -2   9   2    1.50    4.10
  -2   9   2    1.70    3.40
   2   9  -2   -2.00    5.50
  -2   9   1    3.00    2.50
   2   9  -1    5.00    4.90
  -2  -9   1    2.90    3.10
  -2   9   1    0.70    2.80
   2  -9  -1   -5.40    5.60
   2  -9  -1   -0.80    4.60
   2  -9  -1    6.60    3.80
  -2  -9   1    1.70    3.50
  -2   9   1    1.00    3.30
  -2   9   1    2.40    3.50
   2   9  -1    3.70    5.80
   2  -9  -1   -0.30    4.20
  -2   9   0    8.50    3.30
   2  -9   0   -0.40    5.60
   2  -9   0   -1.70    4.00
  -2   9   0    3.20    3.60
  -2   9   0    1.80    3.10
  -2   9  -1   27.30    4.90
   2  -9   1   23.40    6.90
   2  -9   1   16.00    5.50
  -2   9  -1   12.30    3.60
  -2  10   5    3.00    6.00
  -2  10   5   -5.00    5.80
  -2 -10   5   12.10    6.80
   2 -10  -5    7.40    7.80
   2  10  -5    9.60    7.70
   2  10  -5    0.30    7.20
  -2 -10   5    8.50    6.30
   2 -10  -5   18.10    9.40
   2 -10  -4   14.00    6.90
  -2  10   4   11.70    6.30
  -2  10   4    5.50    5.00
  -2 -10   4   17.50    6.50
   2 -10  -4   22.30    9.40
   2  10  -4    7.40    5.90
   2  10  -4    8.80    7.30
  -2 -10   4    8.70    5.30
   2 -10  -3    0.10    6.70
  -2  10   3   -3.20    5.20
  -2  10   3    7.30    4.40
   2 -10  -3   -4.40    4.60
  -2 -10   3   -0.80    3.60
   2 -10  -3   -5.90    5.90
  -2  10   3    6.60    4.00
   2  10  -3    8.70    6.30
   2  10  -3    1.70    5.80
  -2 -10   3    7.40    5.50
   2 -10  -2    5.30    5.60
  -2  10   2   -4.80    4.10
   2  10  -2   -0.40    5.30
  -2  10   2   11.00    4.90
   2 -10  -2    3.70    5.10
   2 -10  -2    0.90    4.50
  -2 -10   2    6.70    3.90
  -2 -10   2    1.80    3.20
  -2  10   2   18.80    5.80
   2  10  -2   11.20    6.80
  -2  10   2   -0.70    3.70
   2  10  -1   12.50    6.20
  -2  10   1   14.00    4.90
   2 -10  -1   15.50    6.20
   2 -10  -1    7.40    4.70
  -2 -10   1   18.50    5.70
  -2  10   1   16.40    5.10
  -2  10   1   12.90    4.90
   2  10  -1   14.50    6.50
   2 -10  -1   23.00    6.90
  -2  10   0   30.40    5.60
   2 -10   0   31.20    7.90
   2 -10   0   22.00    6.20
  -2  10   0   27.70    5.30
  -2  10   0   34.40    6.10
   2 -10   1    6.50    6.40
   2 -10   1   -2.10    5.40
  -2  10  -1    2.60    3.40
  -2  11   5    8.10    8.50
  -2  11   5    6.00    6.20
  -2 -11   5    3.00    6.50
   2  11  -5   11.40    8.60
  -2 -11   5   18.90    9.70
   2 -11  -5   -2.80    8.50
   2 -11  -4   11.10    9.10
  -2  11   4   32.70    8.60
  -2  11   4   29.30    8.20
  -2 -11   4   25.20    8.10
   2 -11  -4    6.60    7.10
   2  11  -4   17.90    7.80
   2  11  -4   26.80    9.30
  -2 -11   4   12.60    6.60
   2 -11  -3    4.10    7.70
  -2  11   3    6.10    5.10
  -2  11   3   -0.30    4.80
  -2 -11   3    3.80    4.70
   2 -11  -3   -2.30    6.70
   2 -11  -3    6.10    5.60
  -2  11   3    7.80    4.80
   2  11  -3    0.50    5.70
   2  11  -3   12.30    7.30
  -2 -11   3   17.20    6.50
   2  11  -2   19.70    6.90
  -2  11   2   36.60    7.30
   2 -11  -2   46.30    9.70
  -2 -11   2   31.00    6.60
   2 -11  -2   18.40    7.40
  -2 -11   2   24.70    7.10
  -2  11   2   34.30    7.40
   2  11  -2   24.30    8.40
   2 -11  -2   31.50    8.70
  -2  11   2   34.80    6.50
   2  11  -1    7.20    6.00
  -2  11   1    9.80    4.40
   2 -11  -1   12.40    7.90
   2 -11  -1   22.30    7.40
  -2 -11   1    9.20    5.00
  -2  11   1   22.20    6.50
  -2  11   1   21.80    5.50
   2  11  -1   15.00    7.10
   2 -11  -1   14.70    6.70
  -2  11   0   11.70    3.90
   2 -11   0   11.30    6.60
   2 -11   0   21.30    6.90
  -2  11   0   14.90    5.10
  -2  11   0   13.00    4.60
  -2  11  -1    5.50    3.60
  -2  12   5    1.30    7.30
  -2 -12   5   14.30    8.50
  -2  12   4    7.60    5.60
  -2  12   4   11.90    6.50
  -2 -12   4   22.60    7.90
   2 -12  -4    3.70    8.00
   2  12  -4   19.90    9.40
   2  12  -4   23.40    8.60
  -2 -12   4   31.60    9.10
   2 -12  -4   21.70    8.40
  -2  12   3   18.30    6.90
  -2 -12   3   23.30    7.70
   2 -12  -3   14.50    7.30
  -2  12   3   18.70    6.60
   2  12  -3   24.00    8.00
   2  12  -3   27.40    9.70
   2 -12  -3   13.30    8.70
   2  12  -2   12.60    6.10
  -2  12   2    4.20    5.20
  -2  12   2    3.80    4.60
   2 -12  -2    0.60    6.40
  -2 -12   2   10.50    5.60
   2 -12  -2    2.90    6.40
  -2 -12   2    3.10    4.30
  -2  12   2    2.90    4.70
   2  12  -2    5.50    6.00
   2 -12  -2    4.50    5.80
  -2  12   1   27.30    6.40
   2 -12  -1   17.50    8.40
   2 -12  -1    9.00    6.60
  -2 -12   1   21.80    6.80
  -2  12   1   27.80    7.00
  -2  12   1   28.40    7.00
   2 -12  -1   29.80    8.50
  -2  12   0   32.40    6.20
   2 -12   0   20.70    8.20
   2 -12   0   28.40    8.80
  -2  12   0   48.30    8.60
  -2  12   0   38.00    7.00
   2 -12   1   29.30    9.90
   2 -12   1   12.70    7.00
  -2  12  -1   28.50    6.20
  -2  13   4   41.50   10.40
  -2  13   4   34.40   10.30
  -2 -13   4   18.30    8.10
   2 -13  -4   35.60   11.40
   2  13  -4   35.90   11.40
  -2  13   3   19.20    7.10
  -2 -13   3    2.00    6.10
  -2  13   3   14.50    7.00
   2 -13  -3    7.00    7.00
   2  13  -3   15.10   10.60
   2 -13  -3  -13.40    8.70
   2  13  -2   -5.90    8.30
  -2  13   2    0.60    4.60
  -2  13   2    4.60    5.10
  -2 -13   2    5.00    5.40
  -2 -13   2    2.90    4.90
  -2  13   2    3.60    5.60
   2  13  -2   -6.10    9.00
   2 -13  -2   17.30    9.50
  -2  13   1    8.70    5.30
  -2  13   1    5.70    5.10
   2 -13  -1   -1.90    8.00
  -2  13   1    2.40    5.60
   2 -13  -1  -12.60    7.70
   2 -13   0    6.30    7.40
   2 -13   0    2.30    7.30
   2 -13   1   -5.90    7.20
   2 -13   1    5.40    7.30
  -2  13  -1    3.90    5.00
  -2  14   3    5.20    6.20
  -2 -14   3    9.10    9.00
  -2  14   2    0.00    5.80
  -2  14   2   -3.40    5.80
   2 -14  -2   -4.80    6.80
  -2  14   2   -0.60    5.60
   2  14  -2    3.20    7.50
   2 -14  -2   -5.10    7.80
  -2  14   1    3.80    5.80
  -2  14   1   12.30    6.40
   2 -14  -1    0.00    8.80
  -2  14   1    2.30    5.40
  -2  14   0   -0.20    5.90
   2 -14   0   -1.00    9.40
  -2  14   0   10.90    6.10
  -2  15   2   15.10    7.50
  -2  15   2   -4.00    7.80
  -2  15   2   -1.50    6.90
   2 -15  -2    7.30    9.80
  -2  15   1   12.10    6.90
  -2  15   1    6.00    6.60
   2 -15  -1    1.80    8.70
  -2  15   1    3.30    6.30
  -2  15   0    0.80    5.30
   2 -15   0   12.10    9.80
  -2  16   2   -8.20    8.70
  -2  16   1   -3.10    5.80
  -2  16   1  -19.80    9.60
  -3   0   7   -4.40    6.70
  -3   0   7   -6.50    7.20
  -3   0   6    7.30    5.00
  -3   0   6   13.70    6.80
   3   0  -6   -0.10    6.60
   3   0  -6   18.00    8.40
  -3   0   5   -1.30    4.20
  -3   0   5    9.60    5.10
  -3   0   5    1.10    4.00
   3   0  -5    4.60    6.50
  -3   0   4    0.30    2.80
  -3   0   4   -0.10    3.20
  -3  -1   7   11.90    8.70
  -3   1   7   -4.90    7.90
  -3   1   6   36.00    8.70
  -3  -1   6   16.00    7.10
  -3   1   6   21.30    6.80
  -3   1   6   38.90    9.50
  -3  -1   6   37.20    9.40
   3  -1  -6   23.50    8.80
   3   1  -6   15.40    7.30
   3   1  -6   21.30    9.80
   3  -1  -6    0.90    9.00
   3   1  -6   22.00    8.30
  -3   1   5   55.19    8.00
  -3  -1   5   53.39    8.20
  -3   1   5   54.49    8.50
  -3   1   5   62.19   10.00
  -3  -1   5   45.60    8.10
   3  -1  -5   47.50    9.80
  -3  -1   4   12.80    3.90
  -3   1   4   12.70    4.20
  -3  -1   4   12.50    4.70
  -3   1   4   10.90    3.80
  -3  -2   7   51.39   12.40
  -3   2   7   42.60   11.40
  -3   2   6   12.50    6.10
  -3  -2   6    9.90    7.10
  -3   2   6   14.40    6.80
  -3   2   6    9.30    5.40
  -3  -2   6    7.90    5.10
   3  -2  -6    8.70    7.60
   3   2  -6   16.80    8.20
   3  -2  -6   25.40   10.20
   3   2  -6   28.00    9.40
  -3   2   5   29.70    6.30
  -3  -2   5   25.30    6.80
  -3   2   5   35.80    7.40
  -3   2   5   18.70    5.80
  -3  -2   5   38.40    7.60
  -3  -2   4    5.00    3.70
  -3   2   4    0.30    3.50
  -3  -2   4    2.20    3.30
  -3   2   4    2.10    3.20
  -3   3   7   24.30    9.90
  -3   3   6   28.90    8.10
  -3  -3   6   28.50    8.90
  -3   3   6   10.40    6.10
  -3   3   6   23.10    8.10
  -3  -3   6   34.40    9.10
   3  -3  -6   25.50    9.30
   3   3  -6   15.70    7.50
   3  -3  -6   23.30    9.50
   3   3  -6   14.90    7.30
  -3  -3   6   17.90    6.80
  -3   3   5   36.50    7.10
  -3  -3   5   28.00    7.20
  -3   3   5   24.00    6.10
  -3   3   5   23.10    6.60
  -3  -3   5   35.20    7.60
   3  -3  -5   22.30    8.70
  -3  -3   5   36.90    7.40
  -3   3   4   45.90    6.60
  -3  -3   4   58.69    7.80
  -3   3   4   49.99    6.80
  -3   4   7   -3.00    9.10
  -3   4   6    9.50    5.50
  -3  -4   6   -0.40    6.00
  -3   4   6    0.20    5.50
  -3   4   6  -11.60    7.40
  -3  -4   6    8.90    7.00
   3  -4  -6  -11.20    8.00
   3   4  -6    3.20    7.20
   3  -4  -6    3.10    7.00
   3   4  -6    3.20    7.30
  -3  -4   6   -0.50    5.20
  -3   4   5    2.80    4.00
  -3  -4   5    5.90    4.20
  -3   4   5    3.50    4.50
  -3   4   5    2.40    4.10
   3  -4  -5    2.90    6.00
  -3  -4   5   -6.00    4.80
  -3   4   4    4.60    3.30
  -3   4   4   -3.50    3.50
  -3  -4   4   -2.60    3.80
  -3   4   4    0.50    3.20
   3   4  -4   -1.10    4.20
  -3   5   6   -5.00    5.80
  -3  -5   6    4.50    5.90
  -3   5   6    5.50    5.40
   3  -5  -6   -8.10    7.80
   3   5  -6    0.30    7.40
   3  -5  -6    6.70    7.30
   3   5  -6   -9.00    9.00
  -3  -5   6   -3.90    6.60
  -3   5   5   13.40    6.40
  -3  -5   5   20.10    6.20
  -3   5   5   17.00    5.90
   3  -5  -5   13.80    6.90
  -3  -5   5    6.50    4.30
  -3   5   4   96.79    9.10
  -3   5   4   91.89    8.80
   3  -5  -4  102.79   12.60
  -3   5   4   90.29    9.50
  -3   6   6   18.40    8.10
  -3  -6   6   31.00    8.80
  -3   6   6   23.40    8.10
   3   6  -6   22.90    9.10
   3  -6  -6   30.40   11.60
   3   6  -6   23.40    9.40
  -3  -6   6   12.60    6.10
  -3   6   5    7.60    6.20
  -3  -6   5  -10.60    5.50
  -3   6   5   -6.00    5.70
   3  -6  -5   -5.20    7.30
  -3  -6   5   -4.50    5.10
  -3   6   4   11.30    4.80
  -3   6   4   10.80    4.00
  -3   6   4    3.50    3.70
   3  -6  -4   20.80    7.60
  -3   7   6    8.10    8.00
  -3  -7   6   -7.90    6.80
  -3   7   5    8.80    6.30
   3  -7  -5    2.40    8.20
   3   7  -5   -3.10    6.20
  -3  -7   5    1.80    5.20
  -3   7   4   82.19   10.10
  -3   7   4   72.39    8.90
   3  -7  -4   74.69   12.30
  -3   7   3   -2.20    3.60
  -3   7   3   -5.50    4.20
   3  -7  -3   -9.40    5.50
  -3   8   6    1.10    7.60
  -3  -8   6   15.10    8.60
  -3   8   5    8.60    6.30
  -3   8   5   17.80    6.60
   3  -8  -5    6.60    8.50
   3   8  -5   -0.60    7.00
  -3  -8   5    3.80    5.10
  -3   8   4    6.40    4.80
  -3   8   4   -3.60    5.20
  -3   8   3   24.10    5.90
  -3   8   3   31.80    7.00
   3  -8  -3   23.30    7.70
  -3   9   5   14.20    7.70
  -3   9   5    9.80    5.40
   3  -9  -5    3.50    8.10
  -3   9   4   36.60    7.60
  -3   9   4   27.80    6.90
  -3  10   5   -3.00    6.40
  -3  10   5    3.00    5.90
  -3  10   4   -9.30    5.70
  -3  10   4   -8.70    6.60
  -3  10   3    3.10    4.20
  -3  10   3    6.70    5.20
   3 -10  -3   -5.20    7.70
  -3  11   5   -2.10    6.70
  -3  11   5    0.60    6.30
  -3  11   4    6.50    5.30
  -3  11   4    7.00    6.20
  -3  11   3   12.20    5.30
  -3  11   3   19.90    6.10
   3 -11  -3    6.20    7.20
  -3  12   4   15.80    8.30
  -3  12   4   43.10   10.50
  -3  12   3   -3.00    5.50
  -3  13   4   -8.90    8.40
   0   0   0    0.00    0.00

_computing_structure_solution     'SHELXT 2014/5 (Sheldrick, 2014)'
;
_shelx_hkl_checksum              81552
_olex2_submission_special_instructions 'No special instructions were received'
loop_
_space_group_symop_operation_xyz
'x, y, z'
'-x, y+1/2, -z+1/2'
'-x, -y, -z'
'x, -y-1/2, z-1/2'
loop_
_atom_site_label
_atom_site_type_symbol
_atom_site_fract_x
_atom_site_fract_y
_atom_site_fract_z
_atom_site_U_iso_or_equiv
_atom_site_adp_type
_atom_site_occupancy
_atom_site_site_symmetry_order
_atom_site_calc_flag
_atom_site_refinement_flags_posn
_atom_site_refinement_flags_adp
_atom_site_refinement_flags_occupancy
_atom_site_disorder_assembly
_atom_site_disorder_group
Cl1 Cl 1.0263(9) 0.33933(10) 0.8415(3) 0.077(4) Uani 1 1 d . . . . .
N4 N 0.559(9) 0.3535(6) 0.537(4) 0.09(4) Uani 1 1 d . . . . .
N5 N 0.694(7) 0.3316(5) 0.7005(17) 0.05(2) Uani 1 1 d . . . . .
N1 N 0.392(6) 0.4159(9) 0.2282(19) 0.08(2) Uani 1 1 d . . . . .
N3 N 0.402(6) 0.3372(7) 0.574(4) 0.06(2) Uani 1 1 d . . . . .
N2 N 0.297(3) 0.3746(4) 0.3847(12) 0.075(15) Uani 1 1 d . . . . .
C8 C 0.708(5) 0.4246(4) 0.256(2) 0.045(16) Uani 1 1 d . . . . .
H8 H 0.709793 0.455552 0.109945 0.055 Uiso 1 1 calc R U . . .
C6 C 0.847(5) 0.3575(6) 0.637(3) 0.07(2) Uani 1 1 d . . . . .
C9 C 0.547(9) 0.4010(8) 0.323(3) 0.08(3) Uani 1 1 d . . . . .
C7 C 0.860(3) 0.4015(5) 0.4085(15) 0.04(2) Uani 1 1 d . . . . .
H7 H 0.966977 0.413585 0.366676 0.048 Uiso 1 1 calc R U . . .
loop_
_atom_site_aniso_label
_atom_site_aniso_U_11
_atom_site_aniso_U_22
_atom_site_aniso_U_33
_atom_site_aniso_U_23
_atom_site_aniso_U_13
_atom_site_aniso_U_12
Cl1 0.121(14) 0.0616(7) 0.0497(9) 0.0077(8) 0.020(3) 0.0041(18)
N4 0.20(11) 0.034(3) 0.047(10) 0.000(4) 0.05(2) 0.011(13)
N5 0.06(7) 0.042(2) 0.032(4) -0.002(3) -0.011(15) -0.005(9)
N1 0.15(7) 0.041(4) 0.055(7) 0.000(4) 0.023(18) 0.008(8)
N3 0.07(7) 0.049(3) 0.047(8) -0.004(4) 0.005(19) -0.004(10)
N2 0.12(5) 0.047(3) 0.061(4) -0.005(3) 0.017(12) 0.010(7)
C8 0.07(5) 0.039(2) 0.029(5) 0.000(3) 0.016(15) 0.012(8)
C6 0.14(7) 0.034(3) 0.046(8) 0.001(3) 0.039(19) 0.006(10)
C9 0.18(10) 0.029(3) 0.045(9) 0.004(5) 0.07(3) 0.011(16)
C7 0.05(6) 0.038(3) 0.040(6) 0.000(3) 0.027(14) 0.005(9)
loop_
_atom_type_symbol
_atom_type_description
_atom_type_scat_dispersion_real
_atom_type_scat_dispersion_imag
_atom_type_scat_source
C C 0.0033 0.0016 'International Tables Vol C Tables 4.2.6.8 and 6.1.1.4'
H H 0.0000 0.0000 'International Tables Vol C Tables 4.2.6.8 and 6.1.1.4'
Cl Cl 0.1484 0.1585 'International Tables Vol C Tables 4.2.6.8 and 6.1.1.4'
N N 0.0061 0.0033 'International Tables Vol C Tables 4.2.6.8 and 6.1.1.4'
loop_
_geom_angle_atom_site_label_1
_geom_angle_atom_site_label_2
_geom_angle_atom_site_label_3
_geom_angle
_geom_angle_site_symmetry_1
_geom_angle_site_symmetry_3
_geom_angle_publ_flag
N5 N4 N3 121(2) . . ?
N5 N4 C9 131(7) . . ?
N3 N4 C9 108(7) . . ?
N4 N5 C6 113.2(19) . . ?
C9 N1 N2 105.1(16) . . ?
N4 N3 N2 106(2) . . ?
N3 N2 N1 110(2) . . ?
C9 C8 H8 120.1 . . ?
C7 C8 H8 120.1 . . ?
C7 C8 C9 119.9(12) . . ?
N5 C6 Cl1 116.8(16) . . ?
N5 C6 C7 124(4) . . ?
C7 C6 Cl1 119(3) . . ?
N4 C9 C8 115(6) . . ?
N1 C9 N4 111(6) . . ?
N1 C9 C8 133.9(16) . . ?
C8 C7 C6 117(3) . . ?
C8 C7 H7 121.6 . . ?
C6 C7 H7 121.6 . . ?
loop_
_geom_bond_atom_site_label_1
_geom_bond_atom_site_label_2
_geom_bond_distance
_geom_bond_site_symmetry_2
_geom_bond_publ_flag
Cl1 C6 1.66(4) . ?
N4 N5 1.30(9) . ?
N4 N3 1.31(9) . ?
N4 C9 1.355(18) . ?
N5 C6 1.37(7) . ?
N1 N2 1.38(4) . ?
N1 C9 1.25(10) . ?
N3 N2 1.32(4) . ?
C8 H8 0.9300 . ?
C8 C9 1.43(9) . ?
C8 C7 1.37(5) . ?
C6 C7 1.44(2) . ?
C7 H7 0.9300 . ?
loop_
_geom_torsion_atom_site_label_1
_geom_torsion_atom_site_label_2
_geom_torsion_atom_site_label_3
_geom_torsion_atom_site_label_4
_geom_torsion
_geom_torsion_site_symmetry_1
_geom_torsion_site_symmetry_2
_geom_torsion_site_symmetry_3
_geom_torsion_site_symmetry_4
_geom_torsion_publ_flag
Cl1 C6 C7 C8 -173.4(6) . . . . ?
N4 N5 C6 Cl1 176.1(5) . . . . ?
N4 N5 C6 C7 -2.0(9) . . . . ?
N4 N3 N2 N1 -0.5(9) . . . . ?
N5 N4 N3 N2 175.1(4) . . . . ?
N5 N4 C9 N1 -173.8(12) . . . . ?
N5 N4 C9 C8 5.2(12) . . . . ?
N5 C6 C7 C8 4.7(9) . . . . ?
N3 N4 N5 C6 -177.4(9) . . . . ?
N3 N4 C9 N1 0.9(15) . . . . ?
N3 N4 C9 C8 179.9(8) . . . . ?
N2 N1 C9 N4 -1.1(15) . . . . ?
N2 N1 C9 C8 -179.9(8) . . . . ?
C9 N4 N5 C6 -3.3(11) . . . . ?
C9 N4 N3 N2 -0.2(11) . . . . ?
C9 N1 N2 N3 1.0(12) . . . . ?
C9 C8 C7 C6 -2.6(9) . . . . ?
C7 C8 C9 N4 -1.7(11) . . . . ?
C7 C8 C9 N1 177.0(13) . . . . ?
