#------------------------------------------------------------------------------
#$Date: 2022-01-04 04:09:01 +0200 (Tue, 04 Jan 2022) $
#$Revision: 271783 $
#$URL: file:///home/coder/svn-repositories/cod/cif/1/56/59/1565902.cif $
#------------------------------------------------------------------------------
#
# This file is available in the Crystallography Open Database (COD),
# http://www.crystallography.net/
#
# All data on this site have been placed in the public domain by the
# contributors.
#
data_1565902
loop_
_publ_author_name
'Sarkar, Anupam'
'Mistry, Subhradeep'
'Natarajan, Srinivasan'
_publ_section_title
;
 Friedl\"ander, Knoevenagel, and Michael Reactions Employing the Same MOF:
 Synthesis, Structure, and Heterogeneous Catalytic Studies of
 ([Zn(1,4-NDCA)(3-BPDB)0.5]&#x00B7;(DMF)(MeOH) and
 [Cd4(1,4-NDCA)4(3-BPDB)4]&#x00B7;2(DMF)
;
_journal_issue                   49
_journal_name_full               'The Journal of Physical Chemistry C'
_journal_page_first              27230
_journal_page_last               27240
_journal_paper_doi               10.1021/acs.jpcc.1c08474
_journal_volume                  125
_journal_year                    2021
_chemical_formula_moiety         'C18 H9 N2 O4 Zn'
_chemical_formula_sum            'C18 H9 N2 O4 Zn'
_chemical_formula_weight         382.66
_space_group_crystal_system      triclinic
_space_group_IT_number           2
_space_group_name_Hall           '-P 1'
_space_group_name_H-M_alt        'P -1'
_atom_sites_solution_hydrogens   geom
_audit_creation_date             2015-12-08
_audit_creation_method
;
Olex2 1.2
(compiled 2015.09.30 svn.r3233 for OlexSys, GUI svn.r5103)
;
_cell_angle_alpha                93.653(3)
_cell_angle_beta                 109.577(4)
_cell_angle_gamma                97.147(3)
_cell_formula_units_Z            2
_cell_length_a                   10.2597(4)
_cell_length_b                   10.8766(4)
_cell_length_c                   10.9289(5)
_cell_measurement_reflns_used    4852
_cell_measurement_temperature    100.00(10)
_cell_measurement_theta_max      29.5580
_cell_measurement_theta_min      3.0740
_cell_volume                     1132.87(9)
_computing_cell_refinement
;
CrysAlisPro, Agilent Technologies,
Version 1.171.37.34 (release 22-05-2014 CrysAlis171 .NET)
(compiled May 22 2014,16:03:01)
;
_computing_data_collection
;
CrysAlisPro, Agilent Technologies,
Version 1.171.37.34 (release 22-05-2014 CrysAlis171 .NET)
(compiled May 22 2014,16:03:01)
;
_computing_data_reduction
;
CrysAlisPro, Agilent Technologies,
Version 1.171.37.34 (release 22-05-2014 CrysAlis171 .NET)
(compiled May 22 2014,16:03:01)
;
_computing_molecular_graphics    'Olex2 (Dolomanov et al., 2009)'
_computing_publication_material  'Olex2 (Dolomanov et al., 2009)'
_computing_structure_refinement  'ShelXL (Sheldrick, 2015)'
_diffrn_ambient_environment      N~2~
_diffrn_ambient_temperature      100.00(10)
_diffrn_detector                 'CCD plate'
_diffrn_detector_area_resol_mean 16.0839
_diffrn_detector_type            Eos
_diffrn_measured_fraction_theta_full 0.999
_diffrn_measured_fraction_theta_max 0.999
_diffrn_measurement_details
;
#__ type_ start__ end____ width___ exp.time_
  1 omega  -46.00   35.00   1.0000    8.0000
omega____ theta____ kappa____ phi______ frames
    -       18.5962  -57.0000  -60.0000 81

#__ type_ start__ end____ width___ exp.time_
  2 omega  -19.00   18.00   1.0000    8.0000
omega____ theta____ kappa____ phi______ frames
    -      -14.2212  -99.0000  -30.0000 37

#__ type_ start__ end____ width___ exp.time_
  3 omega  -19.00   19.00   1.0000    8.0000
omega____ theta____ kappa____ phi______ frames
    -      -14.2212  -99.0000 -150.0000 38

#__ type_ start__ end____ width___ exp.time_
  4 omega  -48.00   35.00   1.0000    8.0000
omega____ theta____ kappa____ phi______ frames
    -       18.5962  -57.0000 -180.0000 83

#__ type_ start__ end____ width___ exp.time_
  5 omega  -49.00   35.00   1.0000    8.0000
omega____ theta____ kappa____ phi______ frames
    -       18.5962  -57.0000   60.0000 84

#__ type_ start__ end____ width___ exp.time_
  6 omega  -18.00   19.00   1.0000    8.0000
omega____ theta____ kappa____ phi______ frames
    -      -14.2212  -99.0000   90.0000 37
;
_diffrn_measurement_device       'four-circle diffractometer'
_diffrn_measurement_device_type  'Xcalibur, Eos, Nova'
_diffrn_measurement_method       '\w scans'
_diffrn_orient_matrix_UB_11      -0.0007668000
_diffrn_orient_matrix_UB_12      0.0619067000
_diffrn_orient_matrix_UB_13      -0.0167699000
_diffrn_orient_matrix_UB_21      -0.0508758000
_diffrn_orient_matrix_UB_22      -0.0224671000
_diffrn_orient_matrix_UB_23      -0.0621561000
_diffrn_orient_matrix_UB_31      -0.0541082000
_diffrn_orient_matrix_UB_32      0.0061719000
_diffrn_orient_matrix_UB_33      0.0257175000
_diffrn_radiation_monochromator  mirror
_diffrn_radiation_probe          x-ray
_diffrn_radiation_type           MoK\a
_diffrn_radiation_wavelength     0.71073
_diffrn_reflns_av_R_equivalents  0.0261
_diffrn_reflns_av_unetI/netI     0.0386
_diffrn_reflns_Laue_measured_fraction_full 0.999
_diffrn_reflns_Laue_measured_fraction_max 0.999
_diffrn_reflns_limit_h_max       12
_diffrn_reflns_limit_h_min       -12
_diffrn_reflns_limit_k_max       12
_diffrn_reflns_limit_k_min       -12
_diffrn_reflns_limit_l_max       12
_diffrn_reflns_limit_l_min       -12
_diffrn_reflns_number            7889
_diffrn_reflns_point_group_measured_fraction_full 0.999
_diffrn_reflns_point_group_measured_fraction_max 0.999
_diffrn_reflns_theta_full        25.000
_diffrn_reflns_theta_max         25.000
_diffrn_reflns_theta_min         2.592
_diffrn_source                   'Mova (Mo) X-ray Source'
_exptl_absorpt_coefficient_mu    1.102
_exptl_absorpt_correction_T_max  0.896
_exptl_absorpt_correction_T_min  0.848
_exptl_absorpt_correction_type   multi-scan
_exptl_absorpt_process_details
;
CrysAlisPro, Agilent Technologies,
Version 1.171.37.34 (release 22-05-2014 CrysAlis171 .NET)
(compiled May 22 2014,16:03:01)
Empirical absorption correction using spherical harmonics,
 implemented in SCALE3 ABSPACK scaling algorithm.
;
_exptl_crystal_colour            colourless
_exptl_crystal_colour_primary    colourless
_exptl_crystal_density_diffrn    1.122
_exptl_crystal_description       block
_exptl_crystal_F_000             386
_exptl_crystal_size_max          0.15
_exptl_crystal_size_mid          0.13
_exptl_crystal_size_min          0.1
_refine_diff_density_max         2.705
_refine_diff_density_min         -0.784
_refine_diff_density_rms         0.147
_refine_ls_extinction_method     none
_refine_ls_goodness_of_fit_ref   1.064
_refine_ls_hydrogen_treatment    constr
_refine_ls_matrix_type           full
_refine_ls_number_parameters     262
_refine_ls_number_reflns         3983
_refine_ls_number_restraints     0
_refine_ls_restrained_S_all      1.064
_refine_ls_R_factor_all          0.0640
_refine_ls_R_factor_gt           0.0618
_refine_ls_shift/su_max          0.000
_refine_ls_shift/su_mean         0.000
_refine_ls_structure_factor_coef Fsqd
_refine_ls_weighting_details
'w=1/[\s^2^(Fo^2^)+(0.1287P)^2^+3.5105P] where P=(Fo^2^+2Fc^2^)/3'
_refine_ls_weighting_scheme      calc
_refine_ls_wR_factor_gt          0.1902
_refine_ls_wR_factor_ref         0.1924
_reflns_Friedel_coverage         0.000
_reflns_number_gt                3757
_reflns_number_total             3983
_reflns_threshold_expression     'I > 2\s(I)'
_cod_data_source_file            jp1c08474_si_002.cif
_cod_data_source_block           I_Zn
_cod_database_code               1565902
_chemical_oxdiff_formula         'C12 H12 N2 O4 Zn2'
_shelx_space_group_comment
;
The symmetry employed for this shelxl refinement is uniquely defined
by the following loop, which should always be used as a source of
symmetry information in preference to the above space-group names.
They are only intended as comments.
;
_reflns_odcompleteness_completeness 99.89
_reflns_odcompleteness_iscentric 1
_reflns_odcompleteness_theta     26.32
_olex2_refinement_description
;
1. Fixed Uiso
 At 1.2 times of:
  All C(H) groups
2. Others
 Fixed Sof: C4(0.5) H4(0.5) C7(0.5) H7(0.5) C5(0.5) H5(0.5) C8(0.5) H8(0.5)
 C20(0.5) H20(0.5) C18(0.5) H18(0.5) C21(0.5) H21(0.5) C22(0.5) H22(0.5)
3.a Aromatic/amide H refined with riding coordinates:
 C13(H13), C10(H10), C11(H11), C14(H14), C9(H9), C4(H4), C7(H7), C5(H5),
 C8(H8), C20(H20), C18(H18), C21(H21), C22(H22)
;
_shelx_res_file
;
    sdaipa221_sq_sq.res created by SHELXL-2014/7

TITL SDAIPA221 in P1
CELL 0.71073 10.259702 10.876556 10.928907 93.6533 109.5768 97.1468
ZERR 2 0.000431 0.00043 0.000474 0.0034 0.0039 0.0034
LATT 1
SFAC C H N O Zn
UNIT 36 18 4 8 2

L.S. 20 0 41
PLAN  10
BOND
ABIN
MORE -1
BOND $H
CONF
fmap 2
acta
MERG 2
OMIT 0 50
REM <olex2.extras>
REM <HklSrc "%.\\sdaipa221_sq_sq.hkl">
REM </olex2.extras>

WGHT    0.128700    3.510500
FVAR       6.39176
ZN1   5    0.655537    0.518908    0.550516    11.00000    0.01545    0.01184 =
         0.01438    0.00187    0.00798    0.00026
N1    3    0.862456    0.584870    0.598453    11.00000    0.01880    0.01485 =
         0.01697    0.00034    0.00884    0.00030
O1    4    0.604626    0.500768    0.352010    11.00000    0.02164    0.06693 =
         0.01501    0.00575    0.00904    0.00390
O2    4    0.642153    0.331401    0.539658    11.00000    0.03108    0.01379 =
         0.06431    0.00808    0.01032   -0.00024
O3    4    0.626504    0.520074    0.724499    11.00000    0.01982    0.07695 =
         0.01641    0.00606    0.00978    0.00394
C13   1    0.898020    0.698476    0.567692    11.00000    0.02183    0.01950 =
         0.01925    0.00082    0.00993    0.00156
AFIX  43
H13   2    0.827755    0.745442    0.531132    11.00000   -1.20000
AFIX   0
N2    3    0.973642    0.940914    0.512141    11.00000    0.02884    0.02230 =
         0.03437    0.00337    0.01542   -0.00917
C12   1    1.035833    0.748623    0.588379    11.00000    0.02410    0.02484 =
         0.02211   -0.00215    0.01265   -0.00373
C10   1    1.103352    0.559928    0.675098    11.00000    0.02440    0.02903 =
         0.02875    0.00319    0.01188    0.00767
AFIX  43
H10   2    1.171501    0.511020    0.711889    11.00000   -1.20000
AFIX   0
C11   1    1.139886    0.677178    0.642430    11.00000    0.01660    0.03368 =
         0.02839   -0.00200    0.01008   -0.00112
AFIX  43
H11   2    1.233119    0.707767    0.656534    11.00000   -1.20000
AFIX   0
C14   1    1.069481    0.874706    0.555279    11.00000    0.02555    0.02728 =
         0.03131   -0.00127    0.01580   -0.00691
AFIX  43
H14   2    1.161590    0.906309    0.565969    11.00000   -1.20000
AFIX   0
C9    1    0.964626    0.517491    0.652058    11.00000    0.02131    0.01992 =
         0.02204    0.00220    0.01094    0.00163
AFIX  43
H9    2    0.940197    0.439025    0.674371    11.00000   -1.20000
AFIX   0
O4    4    0.588259    0.687610    0.530320    11.00000    0.03129    0.01420 =
         0.08088    0.01032    0.02329    0.00712
C1    1    0.489442    0.491706    0.261752    11.00000    0.02447    0.01868 =
         0.01714    0.00183    0.01066    0.00406
C2    1    0.493949    0.494962    0.125932    11.00000    0.01979    0.04470 =
         0.01696    0.00709    0.01018    0.00780
C15   1    0.521865    0.268959    0.503202    11.00000    0.02958    0.01380 =
         0.02755    0.00571    0.01594    0.00194
C16   1    0.510705    0.128833    0.500732    11.00000    0.02710    0.01423 =
         0.06061    0.00771    0.02578    0.00332
C3    1    0.587461    0.588895    0.103878    11.00000    0.02412    0.06293 =
         0.01946    0.00865    0.00965    0.00755
C6    1    0.407408    0.406280    0.025200    11.00000    0.02675    0.06975 =
         0.01879    0.00628    0.01124    0.00430
C4    1    0.673007    0.701313    0.206544    10.50000    0.04466    0.03372 =
         0.01697   -0.00006    0.00982   -0.00332
AFIX  43
H4    2    0.666568    0.703993    0.289524    10.50000   -1.20000
AFIX   0
C7    1    0.318532    0.287857    0.045156    10.50000    0.04722    0.05305 =
         0.02125    0.00023    0.01717   -0.00786
AFIX  43
H7    2    0.317074    0.278411    0.128687    10.50000   -1.20000
AFIX   0
C5    1    0.759124    0.798555    0.180250    10.50000    0.06480    0.04893 =
         0.02798   -0.00877    0.01310   -0.03106
AFIX  43
H5    2    0.816174    0.858577    0.247542    10.50000   -1.20000
AFIX   0
C8    1    0.240328    0.194427   -0.056775    10.50000    0.08479    0.04400 =
         0.04445    0.00135    0.03269   -0.02733
AFIX  43
H8    2    0.187213    0.126539   -0.039446    10.50000   -1.20000
AFIX   0
C17   1    0.525399    0.059678    0.398464    11.00000    0.08793    0.05683 =
         0.08842    0.01370    0.04567    0.00887
C19   1    0.482554    0.073438    0.602184    11.00000    0.09049    0.06334 =
         0.08135    0.00787    0.04129    0.01841
C20   1    0.465878    0.143334    0.707650    10.50000    0.10135    0.04724 =
         0.09401    0.00502    0.04904    0.00457
AFIX  43
H20   2    0.467134    0.229067    0.709140    10.50000   -1.20000
AFIX   0
C18   1    0.536348    0.114705    0.283690    10.50000    0.06451    0.04962 =
         0.09231    0.01446    0.01655    0.00144
AFIX  43
H18   2    0.522331    0.197410    0.279567    10.50000   -1.20000
AFIX   0
C21   1    0.446488    0.077656    0.815041    10.50000    0.10902    0.09168 =
         0.09302   -0.01411    0.06603    0.00043
AFIX  43
H21   2    0.442776    0.129093    0.884727    10.50000   -1.20000
AFIX   0
C22   1    0.432204   -0.054008    0.830232    10.50000    0.18535    0.08442 =
         0.06912   -0.02333   -0.00588    0.08381
AFIX  43
H22   2    0.408978   -0.092772    0.895182    10.50000   -1.20000
AFIX   0
HKLF 4

REM  SDAIPA221 in P1
REM R1 =  0.0618 for    3757 Fo > 4sig(Fo)  and  0.0640 for all    3980 data
REM    262 parameters refined using      0 restraints

END

WGHT      0.1292      3.4948

REM Highest difference peak  2.705,  deepest hole -0.784,  1-sigma level  0.147
Q1    1   0.6174  0.0756  0.5791  11.00000  0.05    2.71
Q2    1   0.3904  0.0536  0.4091  11.00000  0.05    2.54
Q3    1   0.8923  0.7231  0.2222  11.00000  0.05    1.67
Q4    1   0.8909  0.8195  0.1860  11.00000  0.05    1.46
Q5    1   0.3422 -0.0964  0.8425  11.00000  0.05    1.26
Q6    1   0.5000  0.0000  1.0000  10.50000  0.05    1.05
Q7    1   0.4536 -0.0407  0.8160  11.00000  0.05    0.85
Q8    1   0.3625  0.0690  0.0735  11.00000  0.05    0.73
Q9    1   0.6390  0.6346  0.1606  11.00000  0.05    0.42
Q10   1   0.7681  0.5938  0.5687  11.00000  0.05    0.41
;
_shelx_res_checksum              18865
_shelx_hkl_file
;
 -14   3   4 2221.95 518.162   5
 -14   4   3 2674.63 563.134   5
 -13   0   3 5996.11 858.787   5
 -13   0   4 2441.22 530.450   5
 -13   1   2 2581.71 553.184   5
 -13   1   3 2879.11 570.182   5
 -13   1   4 29.2782 137.582   5
 -13   2   2 301.109 206.664   5
 -13   2   3 523.903 234.656   5
 -13   2   4 923.771 329.478   5
 -13   2   5 802.080 293.999   5
 -13   3   1 942.972 370.073   5
 -13   3   2 2295.81 530.457   5
 -13   3   3 2084.53 485.457   5
 -13   3   4 1282.12 360.665   5
 -13   3   5 174.010 114.868   5
 -13   4   1 396.166 234.322   5
 -13   4   2 190.131 108.498   5
 -13   4   3 1283.80 373.794   5
 -13   4   4 201.004 133.394   5
 -13   5   1 2717.02 547.506   5
 -13   5   2 1276.61 386.977   5
 -13   5   3 2171.42 463.607   5
 -13   6   1 2548.61 526.134   5
 -13   6   2 1900.87 475.878   5
 -13   7   1 2725.94 558.298   5
 -12  -2   2-338.607 325.952   5
 -12  -2   3 270.537 217.105   5
 -12  -1   1 734.988 263.794   5
 -12  -1   2 1894.87 464.749   5
 -12  -1   3 805.748 303.094   5
 -12   0   0 4268.04 705.440   5
 -12   0   1 115.374 140.211   5
 -12   0   2-72.0684 163.088   5
 -12   0   3-88.5614 126.763   5
 -12   0   4 2192.00 472.478   5
 -12   1   0 2164.33 510.108   5
 -12   1   1 48.2041 149.185   5
 -12   1   2 299.389 216.051   5
 -12   1   3 229.098 136.102   5
 -12   1   4 7658.94 882.566   5
 -12   2  -1 2447.51 546.224   5
 -12   2   0 4742.19 735.453   5
 -12   2   1 1812.97 444.328   5
 -12   2   2 716.792 267.792   5
 -12   2   3 231.251 209.978   5
 -12   2   4 3311.53 572.543   5
 -12   2   5 5510.56 710.046   5
 -12   3  -1 1242.49 379.863   5
 -12   3   0 2405.67 531.406   5
 -12   3   1 165.409 129.967   5
 -12   3   2 302.644 142.343   5
 -12   3   3 2505.36 503.191   5
 -12   3   4 13662.4 1132.26   5
 -12   3   5 12405.9 1058.03   5
 -12   4  -1 1894.35 458.787   5
 -12   4   0 1735.08 433.714   5
 -12   4   1 107.259 121.055   5
 -12   4   2 3028.56 536.050   5
 -12   4   3 3906.36 586.999   5
 -12   4   4 6537.00 760.289   5
 -12   4   5 3684.72 564.390   5
 -12   5  -1 3016.73 589.720   5
 -12   5   0 1006.69 357.657   5
 -12   5   1 220.211 232.944   5
 -12   5   2 7396.45 826.445   5
 -12   5   3 6026.28 730.213   5
 -12   5   4 9584.82 907.582   5
 -12   6  -1 1656.85 422.848   5
 -12   6   0 16.1743 122.489   5
 -12   6   1 1490.16 398.758   5
 -12   6   2 9502.63 928.353   5
 -12   6   3 9313.38 895.633   5
 -12   7  -1 557.428 232.695   5
 -12   7   0 843.776 297.942   5
 -12   7   1 2601.04 517.697   5
 -12   7   2 7350.73 816.818   5
 -12   8   0 260.249 191.650   5
 -11  -6  10 1623.55 396.625   4
 -11  -5   9 7472.69 787.652   4
 -11  -5  10 8058.58 855.918   4
 -11  -5  11 11.3890 96.0174   4
 -11  -4   1 561.433 248.267   5
 -11  -4   9 5599.95 663.264   4
 -11  -4  10 2434.36 460.264   4
 -11  -4  11 473.167 195.465   4
 -11  -3   0-216.444 286.659   5
 -11  -3   1 2483.72 528.839   5
 -11  -3   2 5041.49 777.490   5
 -11  -3   9 3435.03 500.095   4
 -11  -3  10 808.728 260.878   4
 -11  -3  11 1316.56 349.054   4
 -11  -3  12 2512.67 499.789   4
 -11  -2  -1 524.233 273.974   5
 -11  -2   0 175.716 146.249   5
 -11  -2   1 238.204 116.937   5
 -11  -2   2 2126.99 488.535   5
 -11  -2   3 5961.55 780.100   5
 -11  -2   9 1160.66 279.644   4
 -11  -2  10 256.218 117.723   4
 -11  -2  11 3238.64 545.800   4
 -11  -1  -2 950.974 333.476   5
 -11  -1  -1 381.400 214.179   5
 -11  -1   0 1261.93 410.457   5
 -11  -1   1 1953.91 449.773   5
 -11  -1   2 5157.12 719.506   5
 -11  -1   3 13267.7 1159.06   5
 -11   0  -2 6368.47 855.450   5
 -11   0  -1-75.9800 148.440   5
 -11   0   0 1455.44 401.035   5
 -11   0   1 845.908 291.452   5
 -11   0   2 6785.38 814.544   5
 -11   0   3 17095.5 1279.66   5
 -11   0   4 19190.1 1344.09   5
 -11   1  -2 3844.87 649.316   5
 -11   1  -1 447.301 189.644   5
 -11   1   0 92.1277 80.8420   5
 -11   1   1 8389.49 893.693   5
 -11   1   2 23468.3 1477.17   5
 -11   1   3 44171.7 2056.83   5
 -11   1   4 52923.5 2240.10   5
 -11   2  -2 2812.87 551.882   5
 -11   2  -1 630.201 251.044   5
 -11   2   0 1613.36 392.591   5
 -11   2   1 12963.9 1098.95   5
 -11   2   2 23189.8 1437.49   5
 -11   2   3 23308.4 1431.31   5
 -11   2   4 23271.8 1421.91   5
 -11   2   5 11862.3 971.315   5
 -11   3  -3 4269.24 710.875   5
 -11   3  -2 1446.07 414.923   5
 -11   3  -1 699.344 274.924   5
 -11   3   0 1011.06 294.892   5
 -11   3   1 2928.45 503.293   5
 -11   3   2 13145.8 1055.50   5
 -11   3   3 9871.58 896.386   5
 -11   3   4 15061.0 1095.51   5
 -11   3   5 5584.18 650.905   5
 -11   4  -3 640.870 258.452   5
 -11   4  -2 1387.19 412.968   5
 -11   4  -1 4471.53 662.613   5
 -11   4   0 5036.30 693.554   5
 -11   4   1 7110.14 794.478   5
 -11   4   2 22476.9 1367.10   5
 -11   4   3 24073.5 1390.14   5
 -11   4   4 23960.7 1365.84   5
 -11   4   5 7057.11 706.514   5
 -11   5  -2 1401.12 398.657   5
 -11   5  -1 4989.91 703.495   5
 -11   5   0 6366.26 756.644   5
 -11   5   1 5278.41 660.193   5
 -11   5   2 14626.9 1080.76   5
 -11   5   3 10596.6 907.424   5
 -11   5   4 8328.93 766.079   5
 -11   5   5 798.177 237.192   5
 -11   6  -2 5701.68 784.422   5
 -11   6  -1 5605.95 747.806   5
 -11   6   0 4963.70 687.846   5
 -11   6   1 6235.65 724.477   5
 -11   6   2 16344.9 1140.94   5
 -11   6   3 17778.5 1155.20   5
 -11   6   4 14474.3 1005.81   5
 -11   7  -2 2039.53 476.470   5
 -11   7  -1 2595.44 507.956   5
 -11   7   0 2202.03 440.887   5
 -11   7   1 4393.47 616.484   5
 -11   7   2 13742.8 1043.63   5
 -11   7   3 5849.06 673.688   5
 -11   8  -2 2198.51 492.476   5
 -11   8  -1 2342.27 495.594   5
 -11   8   0 2047.65 428.300   5
 -11   8   1 6369.97 737.048   5
 -11   9  -1 6341.32 812.459   5
 -11   9   0 2661.00 501.126   5
 -10  -9   7 6571.82 808.114   4
 -10  -8   6 1443.16 351.751   4
 -10  -8   7 3885.85 591.901   4
 -10  -8   8 559.041 234.925   4
 -10  -8   9 148.264 131.793   4
 -10  -7   5 1030.96 310.187   4
 -10  -7   6 2719.16 452.010   4
 -10  -7   7 4413.20 596.384   4
 -10  -7   8 2535.60 466.214   4
 -10  -7   9 6.17469 91.2956   4
 -10  -7  10 368.433 106.424   4
 -10  -6   5 8030.07 726.457   4
 -10  -6   6 7728.04 726.672   4
 -10  -6   7 5382.72 629.117   4
 -10  -6   8 1050.96 291.432   4
 -10  -6   9 455.923 211.855   4
 -10  -6  10 2781.98 515.114   4
 -10  -6  11 9308.98 985.341   4
 -10  -5  -1 373.154 233.410   5
 -10  -5   0 1872.61 502.027   5
 -10  -5   5 12062.8 832.520   4
 -10  -5   6 4285.02 508.926   4
 -10  -5   7 368.721 148.501   4
 -10  -5   8-7.13327 67.1501   4
 -10  -5   9 7064.79 759.525   4
 -10  -5  10 4581.59 644.002   4
 -10  -5  11 12294.2 1091.31   4
 -10  -4  -2 1788.65 490.198   5
 -10  -4  -1 7250.09 939.098   5
 -10  -4   0 4672.42 741.258   5
 -10  -4   1 9433.20 1020.14   5
 -10  -4   5 14756.0 872.629   4
 -10  -4   6 8761.82 694.714   4
 -10  -4   7 1775.11 333.496   4
 -10  -4   8 1031.61 276.983   4
 -10  -4   9 532.358 214.108   4
 -10  -4  10 1514.52 335.247   4
 -10  -4  11 6771.81 792.715   4
 -10  -4  12 5590.10 761.258   4
 -10  -3  -3 1430.34 417.251   5
 -10  -3  -2-150.234 220.761   5
 -10  -3  -1 1159.87 360.142   5
 -10  -3   0 1455.62 383.155   5
 -10  -3   1 8756.25 968.818   5
 -10  -3   2 20258.1 1444.63   5
 -10  -3   5 3306.89 376.315   4
 -10  -3   6 1713.79 314.260   4
 -10  -3   7 76.8424 93.3113   4
 -10  -3   8 1196.07 268.406   4
 -10  -3   9 5328.43 619.534   4
 -10  -3  10 9377.57 875.436   4
 -10  -3  11 14171.2 1142.25   4
 -10  -3  12 14302.7 1203.30   4
 -10  -2  -3 28.3614 88.6456   5
 -10  -2  -2 435.198 310.018   5
 -10  -2  -1 9610.28 1005.73   5
 -10  -2   0 3661.58 615.450   5
 -10  -2   1 25141.1 1592.41   5
 -10  -2   2 34698.4 1865.97   5
 -10  -2   3 38359.4 1943.55   5
 -10  -2   5 287.713 111.976   4
 -10  -2   6 1409.46 258.052   4
 -10  -2   7 2146.25 355.883   4
 -10  -2   8 2886.08 430.643   4
 -10  -2   9 6436.52 674.732   4
 -10  -2  10 9647.80 867.696   4
 -10  -2  11 12152.7 1040.95   4
 -10  -2  12 3680.37 595.019   4
 -10  -1  -4 444.406 271.139   5
 -10  -1  -3 282.550 214.140   5
 -10  -1  -2 142.964 151.581   5
 -10  -1  -1 14530.5 1211.71   5
 -10  -1   0 647.077 213.849   5
 -10  -1   1 12452.8 1065.28   5
 -10  -1   2 13675.0 1106.26   5
 -10  -1   3 13857.3 1107.59   5
 -10  -1   4 1773.69 358.749   5
 -10  -1   5 4399.39 393.210   4
 -10  -1   6 7853.80 587.508   4
 -10  -1   7 3077.28 391.864   4
 -10  -1   8 6779.80 633.595   4
 -10  -1   9 5860.13 633.108   4
 -10   0  -4 1078.98 367.992   5
 -10   0  -3 31.0996 202.560   5
 -10   0  -2 992.319 325.269   5
 -10   0  -1 15799.3 1220.44   5
 -10   0   0 8262.04 867.593   5
 -10   0   1 18697.2 1285.65   5
 -10   0   2 20322.8 1318.35   5
 -10   0   3 22987.5 1391.18   5
 -10   0   4 11195.8 939.165   5
 -10   1  -4 444.167 268.772   5
 -10   1  -3 3509.52 613.984   5
 -10   1  -2 20199.7 1404.37   5
 -10   1  -1 37044.8 1857.88   5
 -10   1   0 14314.6 1115.07   5
 -10   1   1 32277.1 1656.05   5
 -10   1   2 51205.5 2085.46   5
 -10   1   3 38378.0 1767.92   5
 -10   1   4 16659.2 1128.94   5
 -10   2  -4-95.8058 164.998   5
 -10   2  -3 1604.00 407.983   5
 -10   2  -2 3695.51 620.824   5
 -10   2  -1 12328.1 1048.15   5
 -10   2   0 9415.53 884.192   5
 -10   2   1 12745.1 997.204   5
 -10   2   2 40099.7 1792.25   5
 -10   2   3 32682.1 1571.40   5
 -10   2   4 15281.1 1049.81   5
 -10   2   5 369.256 145.632   5
 -10   3  -4 1516.59 431.124   5
 -10   3  -3 4089.10 645.250   5
 -10   3  -2 13824.3 1135.07   5
 -10   3  -1 18048.3 1261.09   5
 -10   3   0 18586.3 1224.60   5
 -10   3   1 20983.7 1271.25   5
 -10   3   2 38607.9 1719.00   5
 -10   3   3 6495.49 662.489   5
 -10   3   4 381.180 163.508   5
 -10   3   5 9372.89 779.020   5
 -10   4  -4 4461.22 700.243   5
 -10   4  -3 4908.84 704.591   5
 -10   4  -2 13170.3 1114.56   5
 -10   4  -1 9499.59 897.107   5
 -10   4   0 5507.06 658.888   5
 -10   4   1 3566.90 510.392   5
 -10   4   2 7762.89 738.073   5
 -10   4   3 53.1498 76.2991   5
 -10   4   4 8564.87 741.724   5
 -10   4   5 24104.4 1238.52   5
 -10   5  -4 4077.01 681.793   5
 -10   5  -3 2245.91 495.451   5
 -10   5  -2 11218.6 1019.37   5
 -10   5  -1 7781.74 821.266   5
 -10   5   0 6003.36 687.789   5
 -10   5   1 4631.99 579.112   5
 -10   5   2 5779.42 627.772   5
 -10   5   3 515.559 196.353   5
 -10   5   4 850.045 232.158   5
 -10   5   5 2685.45 390.246   5
 -10   5  10 9582.86 948.255   1
 -10   6  -4 4001.16 674.824   5
 -10   6  -3 2829.35 540.939   5
 -10   6  -2 15783.1 1232.49   5
 -10   6  -1 14539.1 1138.25   5
 -10   6   0 12296.6 992.253   5
 -10   6   1 9192.19 832.320   5
 -10   6   2 11583.5 883.358   5
 -10   6   3 2526.38 410.156   5
 -10   6   4 160.139 109.255   5
 -10   6   9 25064.0 1600.00   1
 -10   6  10 14098.4 1207.71   1
 -10   6  11 6033.53 810.625   1
 -10   7  -3 3719.32 639.990   5
 -10   7  -2 12094.4 1098.98   5
 -10   7  -1 12739.6 1080.30   5
 -10   7   0 9090.03 867.878   5
 -10   7   1 11126.9 912.511   5
 -10   7   2 10386.7 842.990   5
 -10   7   3 4900.11 555.610   5
 -10   7   8 14766.8 1245.72   1
 -10   7   9 18020.5 1397.42   1
 -10   7  10 6654.74 861.755   1
 -10   7  11 1321.37 401.952   1
 -10   8  -3 5156.96 762.568   5
 -10   8  -2 8672.81 939.942   5
 -10   8  -1 10938.7 1012.50   5
 -10   8   0 3411.60 537.021   5
 -10   8   1 5455.55 638.278   5
 -10   8   2 589.223 193.074   5
 -10   8   8 15014.7 1331.80   1
 -10   8   9 15995.9 1385.58   1
 -10   8  10 7557.73 963.348   1
 -10   9  -3 4682.10 727.938   5
 -10   9  -2 5624.73 766.201   5
 -10   9  -1 6735.90 804.021   5
 -10   9   0 952.079 309.324   5
 -10   9   7 5602.44 841.325   1
 -10   9   8 9409.35 1095.48   1
 -10  10  -2 1997.20 467.014   5
 -10  10  -1 3746.72 612.443   5
  -9 -10   3 4519.88 707.529   4
  -9 -10   4 6744.46 819.115   4
  -9 -10   5 5981.81 763.461   4
  -9 -10   6 1812.32 435.042   4
  -9  -9   3 8282.07 866.692   4
  -9  -9   4 8563.11 867.263   4
  -9  -9   5 3313.10 532.928   4
  -9  -9   6-93.3323 139.803   4
  -9  -9   7 118.182 124.713   4
  -9  -9   8 6945.43 831.482   4
  -9  -8   2 4917.96 632.906   4
  -9  -8   3 4166.31 561.400   4
  -9  -8   4 5878.86 689.013   4
  -9  -8   5 927.992 256.282   4
  -9  -8   6-3.89369 120.327   4
  -9  -8   7 1181.21 316.772   4
  -9  -8   8 4459.18 633.592   4
  -9  -8   9 10026.5 971.163   4
  -9  -7   2 16598.5 1086.66   4
  -9  -7   3 23330.0 1302.60   4
  -9  -7   4 21199.0 1228.05   4
  -9  -7   5 1954.85 378.918   4
  -9  -7   6 244.153 156.793   4
  -9  -7   7 1185.09 302.411   4
  -9  -7   8 6782.16 754.829   4
  -9  -7   9 13802.9 1110.54   4
  -9  -7  10 6644.04 795.234   4
  -9  -6  -2 6512.13 917.253   5
  -9  -6  -1 8563.99 1029.88   5
  -9  -6   2 10829.1 805.096   4
  -9  -6   3 6725.89 631.080   4
  -9  -6   4 538.793 166.331   4
  -9  -6   5 2692.09 407.620   4
  -9  -6   6 10440.0 842.620   4
  -9  -6   7 16546.0 1094.58   4
  -9  -6   8 13571.0 1024.51   4
  -9  -6   9 23189.5 1391.30   4
  -9  -6  10 12207.3 1050.06   4
  -9  -6  11 10546.7 1026.06   4
  -9  -5  -3 683.566 264.571   5
  -9  -5  -2 5619.53 846.376   5
  -9  -5  -1 14977.3 1325.04   5
  -9  -5   0 10014.1 1053.75   5
  -9  -5   2 21071.5 1044.88   4
  -9  -5   3 17419.9 954.116   4
  -9  -5   4 5536.55 546.272   4
  -9  -5   5 724.879 212.722   4
  -9  -5   6 289.592 158.007   4
  -9  -5   7 4736.11 553.072   4
  -9  -5   8 13866.2 982.928   4
  -9  -5   9 26754.5 1469.56   4
  -9  -5  10 13516.3 1093.72   4
  -9  -5  11 9549.61 961.730   4
  -9  -5  12 2406.12 488.511   4
  -9  -4  -4 300.822 270.871   5
  -9  -4  -3 2325.41 535.767   5
  -9  -4  -2 15932.5 1373.53   5
  -9  -4  -1 35355.5 2006.27   5
  -9  -4   0 27271.5 1704.73   5
  -9  -4   1 27396.5 1668.14   5
  -9  -4   2 21385.7 952.375   4
  -9  -4   3 17782.0 882.976   4
  -9  -4   4 8300.06 618.778   4
  -9  -4   5 3921.36 434.823   4
  -9  -4   6 4689.23 508.923   4
  -9  -4   7 10309.7 781.826   4
  -9  -4   8 24508.0 1305.07   4
  -9  -4   9 36462.5 1694.88   4
  -9  -4  10 25063.2 1465.59   4
  -9  -4  11 4646.05 640.352   4
  -9  -4  12 876.678 328.574   4
  -9  -3  -5 210.522 233.919   5
  -9  -3  -4 3036.41 602.244   5
  -9  -3  -3 9186.14 1006.96   5
  -9  -3  -2 30572.2 1814.42   5
  -9  -3  -1 49758.0 2299.19   5
  -9  -3   0 14884.5 1189.32   5
  -9  -3   1 20322.1 1379.49   5
  -9  -3   2 9068.16 895.101   5
  -9  -3   2 8790.95 526.209   4
  -9  -3   3 2938.94 314.307   4
  -9  -3   4 829.651 175.718   4
  -9  -3   5 4286.19 433.990   4
  -9  -3   6 9568.02 689.398   4
  -9  -3   7 12066.7 829.724   4
  -9  -3   8 23932.9 1259.78   4
  -9  -3   9 21734.7 1258.12   4
  -9  -3  10 5564.08 661.262   4
  -9  -3  11 167.739 83.9899   4
  -9  -3  12 1021.34 312.592   4
  -9  -2  -5 259.503 181.567   5
  -9  -2  -4 1883.21 466.821   5
  -9  -2  -3 10607.5 1045.91   5
  -9  -2  -2 15756.5 1243.07   5
  -9  -2  -1 32208.2 1746.26   5
  -9  -2   0 682.762 250.699   5
  -9  -2   1 1397.65 333.318   5
  -9  -2   2 245.056 155.013   5
  -9  -2   2 316.835 91.5761   4
  -9  -2   3 788.535 263.039   5
  -9  -2   3 866.094 157.374   4
  -9  -2   4 183.581 89.3229   4
  -9  -2   5 10698.5 660.245   4
  -9  -2   6 9914.04 682.483   4
  -9  -2   7 12471.1 817.478   4
  -9  -2   8 29067.9 1362.10   4
  -9  -2   9 17835.1 1109.23   4
  -9  -2  10 8080.26 787.725   4
  -9  -2  11 965.667 287.520   4
  -9  -2  12 472.105 159.225   4
  -9  -1  -5 973.372 354.269   5
  -9  -1  -4 4378.79 670.061   5
  -9  -1  -3 12044.1 1079.48   5
  -9  -1  -2 23135.1 1458.70   5
  -9  -1  -1 38721.5 1868.36   5
  -9  -1   0 573.739 238.530   5
  -9  -1   1 1251.35 305.887   5
  -9  -1   2 1041.07 288.544   5
  -9  -1   2 1024.44 119.749   4
  -9  -1   3 111.017 58.0931   4
  -9  -1   3 330.222 209.805   5
  -9  -1   4 1319.98 197.286   4
  -9  -1   5 11220.9 644.671   4
  -9  -1   6 26696.0 1121.44   4
  -9  -1   7 15064.3 884.749   4
  -9  -1   8 38876.8 1569.09   4
  -9  -1   9 17732.5 1103.15   4
  -9  -1  10 12919.9 993.764   4
  -9   0  -5 1924.46 479.212   5
  -9   0  -4 6291.02 810.346   5
  -9   0  -3 12090.4 1050.18   5
  -9   0  -2 17718.9 1241.38   5
  -9   0  -1 26073.9 1459.97   5
  -9   0   0 1929.70 390.452   5
  -9   0   1-131.189 169.195   5
  -9   0   2 2027.05 376.756   5
  -9   0   3 1878.00 353.583   5
  -9   0   4 3183.24 453.762   5
  -9   1  -6 2279.42 541.254   5
  -9   1  -5 1988.79 459.905   5
  -9   1  -4 8096.02 891.398   5
  -9   1  -3 29657.6 1651.46   5
  -9   1  -2 55555.5 2240.83   5
  -9   1  -1 69698.8 2454.71   5
  -9   1   0 28037.0 1446.21   5
  -9   1   1 12415.0 933.694   5
  -9   1   2 8523.78 755.216   5
  -9   1   3 679.372 214.420   5
  -9   1   4 323.271 176.962   5
  -9   2  -6 6034.15 857.494   5
  -9   2  -5 5880.04 785.972   5
  -9   2  -4 13735.6 1167.99   5
  -9   2  -3 35363.0 1813.36   5
  -9   2  -2 69432.3 2504.06   5
  -9   2  -1 45472.6 1916.30   5
  -9   2   0 6522.57 674.842   5
  -9   2   1 286.184 185.796   5
  -9   2   2 1825.94 340.618   5
  -9   2   3 249.554 125.960   5
  -9   2   4 2474.03 375.707   5
  -9   2   5 7948.64 679.003   5
  -9   3  -6 3908.10 675.307   5
  -9   3  -5 2686.67 547.842   5
  -9   3  -4 7386.50 851.472   5
  -9   3  -3 15690.3 1188.42   5
  -9   3  -2 28897.1 1567.18   5
  -9   3  -1 4717.83 596.988   5
  -9   3   0 3448.61 497.241   5
  -9   3   1 20850.6 1171.61   5
  -9   3   2 8254.47 706.572   5
  -9   3   3 6455.10 604.103   5
  -9   3   4 6389.88 594.661   5
  -9   3   5 12661.1 837.956   5
  -9   3   9 19737.0 1157.66   1
  -9   3  10 1796.25 358.454   1
  -9   4  -5 4128.77 662.753   5
  -9   4  -4 6606.20 813.263   5
  -9   4  -3 9225.37 926.066   5
  -9   4  -2 26235.7 1482.08   5
  -9   4  -1 3608.64 529.765   5
  -9   4   0 3199.86 469.597   5
  -9   4   1 6051.22 613.813   5
  -9   4   2 606.135 206.275   5
  -9   4   3 885.744 220.398   5
  -9   4   4 154.881 107.662   5
  -9   4   5 7012.93 585.404   5
  -9   4   8 32883.2 1577.22   1
  -9   4   9 20999.9 1276.99   1
  -9   4  10 497.160 190.457   1
  -9   4  11 211.715 150.944   1
  -9   5  -5 2534.85 547.840   5
  -9   5  -4 7497.10 878.231   5
  -9   5  -3 11577.4 1035.93   5
  -9   5  -2 16119.6 1163.46   5
  -9   5  -1 786.380 262.684   5
  -9   5   0 1750.33 354.381   5
  -9   5   1 7895.73 707.310   5
  -9   5   2 248.969 148.185   5
  -9   5   3 1111.05 257.151   5
  -9   5   4 9562.43 689.747   5
  -9   5   5 46505.4 1561.05   5
  -9   5   7 49488.5 2049.69   1
  -9   5   8 35117.7 1740.83   1
  -9   5   9 14826.3 1139.32   1
  -9   5  10 117.216 128.384   1
  -9   5  11 1139.52 335.813   1
  -9   6  -5 7851.53 947.747   5
  -9   6  -4 13730.0 1206.85   5
  -9   6  -3 21745.5 1444.45   5
  -9   6  -2 28760.0 1595.61   5
  -9   6  -1 10921.3 916.013   5
  -9   6   0 181.864 118.379   5
  -9   6   1 296.006 140.455   5
  -9   6   2 100.980 81.3495   5
  -9   6   3 1083.93 248.278   5
  -9   6   4 2887.43 367.411   5
  -9   6   5 25866.4 1080.89   5
  -9   6   7 13589.7 1098.94   1
  -9   6   8 4297.65 629.655   1
  -9   6   9 1323.16 364.931   1
  -9   6  10 2726.26 551.162   1
  -9   6  11 3780.91 641.116   1
  -9   6  12 1418.38 425.936   1
  -9   7  -5 5523.85 803.953   5
  -9   7  -4 10560.3 1069.11   5
  -9   7  -3 15455.6 1234.70   5
  -9   7  -2 15785.8 1212.05   5
  -9   7  -1 4611.95 619.280   5
  -9   7   0 2248.56 400.818   5
  -9   7   1-30.0872 154.996   5
  -9   7   2 403.396 138.365   5
  -9   7   3 1536.10 288.898   5
  -9   7   6 16854.9 1278.43   1
  -9   7   7 20442.8 1412.51   1
  -9   7   8 9859.28 995.459   1
  -9   7   9 3800.07 642.077   1
  -9   7  10 72.1408 180.785   1
  -9   7  11 426.530 249.204   1
  -9   7  12 2176.12 510.907   1
  -9   8  -4 6080.51 816.660   5
  -9   8  -3 7230.44 852.152   5
  -9   8  -2 7031.00 800.305   5
  -9   8  -1 1336.33 331.162   5
  -9   8   0 6739.54 712.527   5
  -9   8   1 2011.45 379.495   5
  -9   8   2 8027.90 689.240   5
  -9   8   3 7190.87 607.749   5
  -9   8   6 20807.3 1479.64   1
  -9   8   7 8626.49 956.129   1
  -9   8   8 7628.28 931.030   1
  -9   8   9 1487.35 426.582   1
  -9   8  10 9.54357 95.4360   1
  -9   9  -4 3420.76 636.775   5
  -9   9  -3 4020.81 656.384   5
  -9   9  -2 2583.27 494.416   5
  -9   9  -1 145.493 130.259   5
  -9   9   0 5055.41 631.028   5
  -9   9   1 2117.20 383.201   5
  -9   9   6 9066.57 1029.54   1
  -9   9   7 5574.72 833.535   1
  -9   9   8 6813.29 914.684   1
  -9   9   9 316.361 242.816   1
  -9  10  -3 6866.21 872.928   5
  -9  10  -2 3062.75 542.617   5
  -9  10  -1 75.4353 148.699   5
  -9  10   0 3819.39 550.241   5
  -9  10   5 24875.0 1752.66   1
  -9  10   6 10288.0 1123.96   1
  -9  10   7 768.375 293.605   1
  -9  11  -3 3378.10 599.241   5
  -9  11  -2 677.047 275.218   5
  -8 -11   2 3936.88 648.096   4
  -8 -11   3 4362.48 694.526   4
  -8 -10   0 5896.08 781.834   4
  -8 -10   1 6636.67 811.500   4
  -8 -10   2 4829.63 692.897   4
  -8 -10   3 2200.79 479.335   4
  -8 -10   4 25.1455 146.745   4
  -8 -10   5 3552.00 585.458   4
  -8 -10   6 16831.7 1294.40   4
  -8 -10   7 10259.2 1015.86   4
  -8  -9   0 6237.01 772.497   4
  -8  -9   1 2446.13 443.449   4
  -8  -9   2 7070.48 793.694   4
  -8  -9   3 1981.96 420.944   4
  -8  -9   4-68.2195 130.833   4
  -8  -9   5 4428.69 617.455   4
  -8  -9   6 10831.7 987.894   4
  -8  -9   7 11218.4 1031.37   4
  -8  -9   8 9421.45 956.549   4
  -8  -9   9 10384.9 1028.23   4
  -8  -8  -1 8869.01 893.248   4
  -8  -8   0 13767.8 1073.76   4
  -8  -8   1 5711.81 680.114   4
  -8  -8   2 4183.65 557.309   4
  -8  -8   3 1.97085 121.064   4
  -8  -8   4 3132.44 488.959   4
  -8  -8   5 13936.1 1058.31   4
  -8  -8   6 17046.1 1188.04   4
  -8  -8   7 15815.3 1142.49   4
  -8  -8   8 12920.1 1073.66   4
  -8  -8   9 12600.9 1093.75   4
  -8  -8  10 4577.58 665.941   4
  -8  -7  -4 3100.52 666.083   5
  -8  -7  -3 3241.29 635.669   5
  -8  -7  -1 13270.3 1008.74   4
  -8  -7   0 1385.55 312.964   4
  -8  -7   1 396.550 186.754   4
  -8  -7   2 6.55810 100.937   4
  -8  -7   3 329.871 160.572   4
  -8  -7   4 2661.98 430.698   4
  -8  -7   5 9013.49 797.034   4
  -8  -7   6 13026.3 973.726   4
  -8  -7   7 13508.8 1026.09   4
  -8  -7   8 12968.3 1028.70   4
  -8  -7   9 14173.9 1111.78   4
  -8  -7  10 1092.81 347.395   4
  -8  -7  11 311.908 167.649   4
  -8  -6  -5 321.440 213.141   5
  -8  -6  -4 6428.11 917.187   5
  -8  -6  -3 7889.47 992.044   5
  -8  -6  -2 20451.1 1565.52   5
  -8  -6  -1 24249.7 1666.16   5
  -8  -6  -1 24522.7 1293.32   4
  -8  -6   0 2516.05 395.899   4
  -8  -6   1 56.4035 139.441   4
  -8  -6   2 15.7088 71.9416   4
  -8  -6   3 68.5239 90.4388   4
  -8  -6   4 6516.47 618.130   4
  -8  -6   5 32401.7 1452.94   4
  -8  -6   6 24034.5 1266.29   4
  -8  -6   7 22325.7 1263.06   4
  -8  -6   8 14487.8 1044.46   4
  -8  -6   9 14326.6 1073.73   4
  -8  -6  10 783.253 284.879   4
  -8  -6  11 146.590 134.121   4
  -8  -5  -5 3185.17 629.793   5
  -8  -5  -4 12149.3 1210.79   5
  -8  -5  -3 18779.1 1490.27   5
  -8  -5  -2 27641.5 1767.89   5
  -8  -5  -1 12542.9 831.124   4
  -8  -5  -1 12377.1 1129.63   5
  -8  -5   0 562.323 175.254   4
  -8  -5   0 366.557 101.202   5
  -8  -5   1 447.163 163.077   4
  -8  -5   2 899.998 219.526   4
  -8  -5   3 3686.99 422.930   4
  -8  -5   4 11900.0 790.254   4
  -8  -5   5 61778.5 1977.44   4
  -8  -5   6 49900.2 1805.75   4
  -8  -5   7 41116.5 1669.14   4
  -8  -5   8 31577.1 1502.25   4
  -8  -5   9 19419.4 1216.63   4
  -8  -5  10 3721.61 554.492   4
  -8  -5  11 68.7328 119.657   4
  -8  -5  12 187.504 138.411   4
  -8  -4  -6 7859.14 1008.40   5
  -8  -4  -5 14048.2 1303.22   5
  -8  -4  -4 23448.1 1634.93   5
  -8  -4  -3 37912.5 2031.90   5
  -8  -4  -2 39871.8 2037.50   5
  -8  -4  -1 30358.3 1222.32   4
  -8  -4  -1 30324.5 1734.81   5
  -8  -4   0 516.738 224.471   5
  -8  -4   0 540.423 152.241   4
  -8  -4   1 638.188 210.131   5
  -8  -4   1 1072.55 215.605   4
  -8  -4   2 53.8661 79.9745   4
  -8  -4   3 535.050 154.673   4
  -8  -4   4 5639.33 498.137   4
  -8  -4   5 37866.2 1419.86   4
  -8  -4   6 20172.3 1051.77   4
  -8  -4   7 5404.10 551.446   4
  -8  -4   8 3842.14 488.506   4
  -8  -4   9 637.428 230.522   4
  -8  -4  10 113.418 98.6884   4
  -8  -4  11 149.761 118.137   4
  -8  -4  12 731.977 293.061   4
  -8  -3  -6 5742.27 830.220   5
  -8  -3  -5 7661.00 929.153   5
  -8  -3  -4 11134.2 1081.11   5
  -8  -3  -3 20392.3 1418.90   5
  -8  -3  -2 13956.3 1123.36   5
  -8  -3  -1 14976.3 728.295   4
  -8  -3  -1 16200.4 1183.05   5
  -8  -3   0 5469.71 665.872   5
  -8  -3   0 5833.89 429.819   4
  -8  -3   1 164.710 79.5104   4
  -8  -3   1 184.132 114.943   5
  -8  -3   2 380.542 109.317   4
  -8  -3   2 147.496 104.991   5
  -8  -3   3 4783.49 405.460   4
  -8  -3   4 17929.6 847.512   4
  -8  -3   5 38272.1 1354.44   4
  -8  -3   6 24642.1 1103.64   4
  -8  -3   7 10134.7 746.490   4
  -8  -3   8 14633.9 961.446   4
  -8  -3   9 15919.2 1051.14   4
  -8  -3  10 8324.80 800.048   4
  -8  -3  11 2877.77 506.394   4
  -8  -3  12 89.2091 138.124   4
  -8  -3  13 1188.53 345.352   4
  -8  -2  -6 9910.69 1074.85   5
  -8  -2  -5 9978.95 1019.87   5
  -8  -2  -4 11939.7 1068.96   5
  -8  -2  -3 16146.4 1208.04   5
  -8  -2  -2 11011.6 958.169   5
  -8  -2  -1 16708.5 1146.36   5
  -8  -2  -1 15077.7 592.193   4
  -8  -2   0 6141.73 353.237   4
  -8  -2   0 5856.68 655.705   5
  -8  -2   1 970.285 143.512   4
  -8  -2   1 325.019 154.914   5
  -8  -2   2 781.583 229.966   5
  -8  -2   2 570.783 118.201   4
  -8  -2   3 2698.63 434.291   5
  -8  -2   3 3613.13 318.059   4
  -8  -2   4 21379.5 868.290   4
  -8  -2   5 33272.2 1200.26   4
  -8  -2   6 20765.6 991.963   4
  -8  -2   7 5544.83 539.222   4
  -8  -2   8 33182.3 1442.72   4
  -8  -2   9 5605.69 616.826   4
  -8  -2  10 2895.15 460.750   4
  -8  -2  11 106.430 143.291   4
  -8  -2  12 11619.4 1054.33   4
  -8  -1  -7 2900.53 590.121   5
  -8  -1  -6 8475.75 960.547   5
  -8  -1  -5 2360.22 488.015   5
  -8  -1  -4 12322.0 1069.34   5
  -8  -1  -3 10743.3 947.794   5
  -8  -1  -2 8519.14 807.970   5
  -8  -1  -1 6524.59 680.821   5
  -8  -1   0 5691.10 199.791   4
  -8  -1   0 9579.18 814.046   5
  -8  -1   1 24395.1 610.971   4
  -8  -1   1 26415.7 1349.28   5
  -8  -1   2 20296.0 1163.81   5
  -8  -1   2 18930.1 619.858   4
  -8  -1   3 23795.3 1261.30   5
  -8  -1   3 23210.5 789.022   4
  -8  -1   4 62053.6 1565.15   4
  -8  -1   5 71906.3 1840.63   4
  -8  -1   6 49332.1 1570.27   4
  -8  -1   7 2246.05 331.284   4
  -8  -1   8 34692.8 1461.50   4
  -8  -1   9 3473.05 480.583   4
  -8  -1  10 804.659 261.053   4
  -8  -1  11 3826.38 575.425   4
  -8   0  -7 2520.25 560.814   5
  -8   0  -6 13709.0 1206.41   5
  -8   0  -5 6577.99 792.980   5
  -8   0  -4 15119.0 1156.92   5
  -8   0  -3 23317.9 1381.92   5
  -8   0  -2 10523.0 882.173   5
  -8   0  -1 1873.14 374.941   5
  -8   0   0 20652.4 1168.36   5
  -8   0   1 12851.9 901.234   5
  -8   0   2 8145.00 699.468   5
  -8   0   3 33131.2 1455.92   5
  -8   0   3 35197.9 933.821   4
  -8   0   4 27425.2 921.863   4
  -8   0   4 28015.1 1306.23   5
  -8   0   5 44304.9 1347.86   4
  -8   0   6 42540.8 1418.53   4
  -8   0   7 4662.61 475.210   4
  -8   0   8 36679.1 1507.55   4
  -8   1  -7 13422.3 1240.41   5
  -8   1  -6 33609.9 1905.24   5
  -8   1  -5 31618.0 1777.05   5
  -8   1  -4 35633.3 1777.39   5
  -8   1  -3 28195.9 1507.71   5
  -8   1  -2 29289.8 1470.49   5
  -8   1  -1 4933.18 574.924   5
  -8   1   0 3901.41 493.128   5
  -8   1   1 13266.0 885.985   5
  -8   1   2 457.522 152.420   5
  -8   1   3 20983.3 1087.63   5
  -8   1   4 30871.3 1333.48   5
  -8   1  10 947.769 219.587   1
  -8   2  -7 8842.36 1031.75   5
  -8   2  -6 16647.8 1323.00   5
  -8   2  -5 9933.20 959.670   5
  -8   2  -4 7010.91 763.372   5
  -8   2  -3 1380.26 331.826   5
  -8   2  -2 1129.05 284.887   5
  -8   2  -1 6221.92 637.667   5
  -8   2   0 6623.67 625.986   5
  -8   2   1 3478.79 438.819   5
  -8   2   2 629.840 174.178   5
  -8   2   3 10061.2 711.684   5
  -8   2   4 21863.9 1060.83   5
  -8   2   8 17063.7 963.843   1
  -8   2   9 8354.38 677.542   1
  -8   2  10 828.731 232.166   1
  -8   3  -7 6150.70 829.534   5
  -8   3  -6 6740.91 846.491   5
  -8   3  -5 5237.67 710.597   5
  -8   3  -4 5249.98 668.347   5
  -8   3  -3 1188.77 313.118   5
  -8   3  -2 6411.89 680.835   5
  -8   3  -1 448.842 178.891   5
  -8   3   0 258.544 124.133   5
  -8   3   1 1966.78 325.739   5
  -8   3   2 2092.10 344.103   5
  -8   3   3 39160.4 1436.40   5
  -8   3   4 91491.9 2333.81   5
  -8   3   5 58289.9 1737.50   5
  -8   3   7 6866.01 642.211   1
  -8   3   8 10345.6 799.038   1
  -8   3   9 3855.15 504.385   1
  -8   3  10 4808.00 574.661   1
  -8   3  11 7652.47 761.864   1
  -8   4  -7 11065.4 1141.86   5
  -8   4  -6 7102.83 879.917   5
  -8   4  -5 2528.36 508.076   5
  -8   4  -4 1505.30 352.419   5
  -8   4  -3-136.665 167.488   5
  -8   4  -2 1411.85 330.886   5
  -8   4  -1 646.111 222.204   5
  -8   4   0 13983.9 917.201   5
  -8   4   1 25046.3 1183.92   5
  -8   4   2 38444.7 1431.71   5
  -8   4   3 66432.8 1901.61   5
  -8   4   4 66045.4 1852.46   5
  -8   4   5 54353.1 1603.76   5
  -8   4   6 7984.21 707.725   1
  -8   4   7 1093.67 286.264   1
  -8   4   8 1216.97 292.837   1
  -8   4   9-136.927 123.285   1
  -8   4  10 9751.58 884.571   1
  -8   4  11 18708.2 1288.04   1
  -8   5  -6 8583.31 990.637   5
  -8   5  -5 3292.85 585.593   5
  -8   5  -4 3482.93 562.400   5
  -8   5  -3 677.091 249.150   5
  -8   5  -2 419.836 190.130   5
  -8   5  -1 3700.38 493.074   5
  -8   5   0 16089.8 991.394   5
  -8   5   1 15103.6 909.903   5
  -8   5   2 30561.4 1254.47   5
  -8   5   3 44148.6 1477.63   5
  -8   5   4 31491.5 1171.99   5
  -8   5   5 14612.3 732.715   5
  -8   5   6 552.369 191.206   1
  -8   5   7 406.159 205.612   1
  -8   5   8 193.057 140.001   1
  -8   5   9 398.168 190.455   1
  -8   5  10 13610.1 1119.43   1
  -8   5  11 17929.2 1335.64   1
  -8   5  12 12628.0 1153.06   1
  -8   6  -6 11404.9 1157.86   5
  -8   6  -5 7976.90 902.245   5
  -8   6  -4 4086.36 624.306   5
  -8   6  -3 1938.23 408.307   5
  -8   6  -2 3034.45 483.385   5
  -8   6  -1 320.429 155.050   5
  -8   6   0 18334.7 1077.22   5
  -8   6   1 13930.9 885.964   5
  -8   6   2 26504.2 1176.27   5
  -8   6   3 38022.9 1343.07   5
  -8   6   4 26207.1 1028.45   5
  -8   6   5 13002.5 646.508   5
  -8   6   5 13768.0 1029.68   1
  -8   6   6 366.507 195.140   1
  -8   6   7-21.9543 88.7048   1
  -8   6   8-61.3882 149.136   1
  -8   6   9 896.741 279.064   1
  -8   6  10 12533.1 1135.00   1
  -8   6  11 14509.8 1270.67   1
  -8   6  12 9417.17 1052.39   1
  -8   7  -6 11014.6 1137.40   5
  -8   7  -5 3006.66 583.425   5
  -8   7  -4 1320.04 370.556   5
  -8   7  -3 5.84592 127.650   5
  -8   7  -2 9.20678 114.513   5
  -8   7  -1 938.900 270.186   5
  -8   7   0 16614.9 1044.97   5
  -8   7   1 9235.14 722.626   5
  -8   7   2 9831.90 703.427   5
  -8   7   3 16507.4 850.672   5
  -8   7   4 9447.19 578.609   5
  -8   7   5 11195.9 982.997   1
  -8   7   6 212.201 163.215   1
  -8   7   7 20.2064 121.615   1
  -8   7   8-123.111 222.141   1
  -8   7   9 3875.86 647.014   1
  -8   7  10 10726.3 1100.32   1
  -8   7  11 11410.1 1179.77   1
  -8   7  12 8804.61 1058.96   1
  -8   8  -5 614.480 278.348   5
  -8   8  -4 1570.32 414.920   5
  -8   8  -3 117.419 105.939   5
  -8   8  -2 97.1475 142.997   5
  -8   8  -1 582.629 234.491   5
  -8   8   0 16560.8 1057.93   5
  -8   8   1 17599.9 1041.05   5
  -8   8   2 29930.0 1280.45   5
  -8   8   3 44803.0 1483.03   5
  -8   8   4 38893.7 1944.11   1
  -8   8   5 16474.0 1263.90   1
  -8   8   6 680.162 242.763   1
  -8   8   7-35.1651 179.897   1
  -8   8   8 80.4973 183.621   1
  -8   8   9 2956.63 581.075   1
  -8   8  10 3392.96 656.589   1
  -8   8  11 3037.39 638.478   1
  -8   9  -5 641.490 306.452   5
  -8   9  -4 121.709 112.884   5
  -8   9  -3 230.319 157.499   5
  -8   9  -2 1667.51 385.561   5
  -8   9  -1 5331.58 653.699   5
  -8   9   0 17181.8 1106.93   5
  -8   9   1 15891.8 998.714   5
  -8   9   2 18792.2 1012.44   5
  -8   9   4 4943.48 726.761   1
  -8   9   5 2948.99 545.729   1
  -8   9   6 130.359 145.768   1
  -8   9   7 5644.83 824.916   1
  -8   9   8 802.927 351.477   1
  -8   9   9 4463.56 741.029   1
  -8  10  -4 373.453 169.845   5
  -8  10  -3 534.263 231.305   5
  -8  10  -2 1234.43 346.781   5
  -8  10  -1 6135.16 716.442   5
  -8  10   0 20352.9 1240.58   5
  -8  10   1 13389.1 935.940   5
  -8  10   4 2194.29 478.047   1
  -8  10   5 253.203 193.657   1
  -8  10   6 3627.96 677.675   1
  -8  10   7 7476.74 958.780   1
  -8  10   8 4699.92 796.050   1
  -8  11  -4 1145.97 388.699   5
  -8  11  -3 2049.27 477.861   5
  -8  11  -2 4849.83 692.024   5
  -8  11  -1 7644.48 822.280   5
  -8  11   4 853.456 291.698   1
  -8  11   5-19.1477 109.515   1
  -8  12  -3 370.360 210.665   5
  -8  12  -2 733.439 309.023   5
  -7 -11  -1 2200.09 501.657   4
  -7 -11   0 296.414 173.823   4
  -7 -11   1 153.267 153.820   4
  -7 -11   2 4023.14 660.089   4
  -7 -11   3 11094.1 1098.34   4
  -7 -11   4 19249.2 1447.28   4
  -7 -11   5 19643.6 1460.90   4
  -7 -10  -1 10010.8 1037.78   4
  -7 -10   0 2888.91 542.617   4
  -7 -10   1-48.9050 118.442   4
  -7 -10   2 915.350 345.604   4
  -7 -10   3 9447.85 953.820   4
  -7 -10   4 8160.41 889.042   4
  -7 -10   5 11206.8 1048.62   4
  -7 -10   6 5385.41 707.442   4
  -7 -10   7 2469.67 490.113   4
  -7 -10   8 2445.67 498.024   4
  -7  -9  -1 4411.05 649.912   4
  -7  -9   0 384.138 195.280   4
  -7  -9   1 2771.43 500.280   4
  -7  -9   2 2830.66 486.213   4
  -7  -9   3 12846.6 1049.63   4
  -7  -9   4 12588.6 1033.70   4
  -7  -9   5 20963.6 1365.39   4
  -7  -9   6 13844.0 1092.63   4
  -7  -9   7 12217.1 1057.22   4
  -7  -9   8 17628.1 1297.24   4
  -7  -9   9 16593.2 1275.70   4
  -7  -8  -1 2317.91 454.753   4
  -7  -8   0 2022.53 391.463   4
  -7  -8   1 8083.87 801.256   4
  -7  -8   2 9604.09 861.396   4
  -7  -8   3 22724.2 1320.92   4
  -7  -8   4 46740.0 1961.11   4
  -7  -8   5 36010.3 1703.94   4
  -7  -8   6 11976.9 974.576   4
  -7  -8   7 5276.23 662.897   4
  -7  -8   8 4084.62 593.174   4
  -7  -8   9 5104.75 670.993   4
  -7  -8  10 1103.18 339.051   4
  -7  -7  -6 9627.33 1158.84   5
  -7  -7  -5 9779.79 1133.45   5
  -7  -7  -4 10176.6 1105.79   5
  -7  -7  -3 2979.65 575.683   5
  -7  -7   0 275.972 115.975   4
  -7  -7   1 1756.03 363.230   4
  -7  -7   2 10222.6 823.704   4
  -7  -7   3 9088.56 780.250   4
  -7  -7   4 8945.17 783.329   4
  -7  -7   5 11566.0 892.797   4
  -7  -7   6 1638.68 333.489   4
  -7  -7   7 100.958 108.500   4
  -7  -7   8 252.912 113.286   4
  -7  -7   9 1628.95 372.848   4
  -7  -7  10 4024.97 586.108   4
  -7  -7  11 7682.56 864.190   4
  -7  -6  -6 9286.53 1106.36   5
  -7  -6  -5 4404.39 703.955   5
  -7  -6  -4 4666.59 716.652   5
  -7  -6  -3 2068.71 470.564   5
  -7  -6  -2 1855.93 417.194   5
  -7  -6  -1-140.881 195.857   5
  -7  -6   0 12657.4 894.970   4
  -7  -6   1 36613.3 1537.46   4
  -7  -6   2 52310.3 1848.84   4
  -7  -6   3 83048.0 2413.76   4
  -7  -6   4 72502.8 2226.60   4
  -7  -6   5 40436.8 1620.67   4
  -7  -6   6 2100.87 357.636   4
  -7  -6   7 346.387 145.217   4
  -7  -6   8 1572.48 338.511   4
  -7  -6   9 613.000 221.726   4
  -7  -6  10 438.183 189.711   4
  -7  -6  11 11578.1 1039.24   4
  -7  -6  12 13537.2 1177.92   4
  -7  -5  -7 15317.1 1399.53   5
  -7  -5  -6 16653.2 1416.22   5
  -7  -5  -5 6884.91 883.041   5
  -7  -5  -4 2350.80 487.128   5
  -7  -5  -3 1964.75 450.100   5
  -7  -5  -2 1056.48 316.136   5
  -7  -5  -1 37.8748 119.018   5
  -7  -5   0 22330.6 1113.21   4
  -7  -5   0 20891.0 1357.09   5
  -7  -5   1 17829.0 953.695   4
  -7  -5   2 29959.1 1252.00   4
  -7  -5   3 30834.2 1275.09   4
  -7  -5   4 7474.18 614.945   4
  -7  -5   5 5686.19 541.125   4
  -7  -5   6 475.277 181.404   4
  -7  -5   7 214.525 114.177   4
  -7  -5   8 12274.1 907.170   4
  -7  -5   9 10143.3 846.499   4
  -7  -5  10 229.032 185.569   4
  -7  -5  11 7837.82 846.664   4
  -7  -5  12 14347.0 1199.72   4
  -7  -4  -7 11032.0 1159.74   5
  -7  -4  -6 15883.5 1351.13   5
  -7  -4  -5 5789.77 779.734   5
  -7  -4  -4 1764.03 406.013   5
  -7  -4  -3 4689.77 651.597   5
  -7  -4  -2 6945.66 757.434   5
  -7  -4  -1 10976.3 942.047   5
  -7  -4   0 17647.1 1181.72   5
  -7  -4   0 18127.2 897.318   4
  -7  -4   1 9724.36 855.579   5
  -7  -4   1 11754.4 691.496   4
  -7  -4   2 31655.0 1189.12   4
  -7  -4   3 33042.6 1225.29   4
  -7  -4   4 28131.0 1139.28   4
  -7  -4   5 20251.3 992.844   4
  -7  -4   6 12245.7 785.522   4
  -7  -4   7 19449.4 1058.57   4
  -7  -4   8 33292.5 1454.96   4
  -7  -4   9 17551.9 1110.50   4
  -7  -4  10 147.993 113.527   4
  -7  -4  11 13042.3 1057.65   4
  -7  -4  12 26453.0 1605.12   4
  -7  -3  -8 8268.17 1007.52   5
  -7  -3  -7 15390.7 1328.26   5
  -7  -3  -6 12564.6 1158.68   5
  -7  -3  -5 5135.89 700.585   5
  -7  -3  -4 7944.50 840.124   5
  -7  -3  -3 6030.86 696.400   5
  -7  -3  -2 3184.40 491.662   5
  -7  -3  -1 4845.32 418.903   4
  -7  -3  -1 5224.47 609.586   5
  -7  -3   0 25981.6 1380.68   5
  -7  -3   0 25981.1 973.089   4
  -7  -3   1 27390.4 1398.64   5
  -7  -3   1 28572.2 998.614   4
  -7  -3   2 22197.8 873.023   4
  -7  -3   2 19959.3 1164.32   5
  -7  -3   3 47477.8 1389.49   4
  -7  -3   4 51012.8 1505.24   4
  -7  -3   5 28980.2 1138.79   4
  -7  -3   6 7044.22 568.177   4
  -7  -3   7 2327.68 351.938   4
  -7  -3   8 23288.0 1197.79   4
  -7  -3   9 465.693 193.924   4
  -7  -3  10 18103.0 1169.35   4
  -7  -3  11 50333.1 2134.17   4
  -7  -3  12 54651.4 2335.76   4
  -7  -3  13 9228.71 979.078   4
  -7  -2  -8 8514.67 1010.64   5
  -7  -2  -7 15275.3 1296.61   5
  -7  -2  -6 19329.0 1398.84   5
  -7  -2  -5 236.516 143.844   5
  -7  -2  -4 1701.66 387.298   5
  -7  -2  -3 833.004 251.615   5
  -7  -2  -2 473.092 199.451   5
  -7  -2  -1 4111.68 323.453   4
  -7  -2  -1 4185.97 537.512   5
  -7  -2   0 26073.0 1317.68   5
  -7  -2   0 26564.4 833.406   4
  -7  -2   1 42460.9 1113.86   4
  -7  -2   1 43638.3 1722.27   5
  -7  -2   2 48216.8 1803.74   5
  -7  -2   2 47122.5 1225.90   4
  -7  -2   3 30922.1 995.085   4
  -7  -2   3 29461.7 1355.76   5
  -7  -2   4 17124.8 763.770   4
  -7  -2   5 12610.1 690.263   4
  -7  -2   6 4449.30 442.470   4
  -7  -2   7 5498.62 520.267   4
  -7  -2   8 9707.24 742.720   4
  -7  -2   9 6768.34 662.521   4
  -7  -2  10 26388.8 1412.31   4
  -7  -2  11 38760.0 1834.32   4
  -7  -2  12 25374.1 1561.43   4
  -7  -2  13 7735.96 891.370   4
  -7  -1  -8 10415.3 1107.79   5
  -7  -1  -7 14077.0 1223.98   5
  -7  -1  -6 14210.1 1183.89   5
  -7  -1  -5 84.3369 99.3806   5
  -7  -1  -4 2231.97 411.354   5
  -7  -1  -3 1098.88 293.505   5
  -7  -1  -2 167.643 49.7622   4
  -7  -1  -2 203.691 157.021   5
  -7  -1  -1 6826.58 312.831   4
  -7  -1  -1 7438.61 678.765   5
  -7  -1   0 54859.0 1077.61   4
  -7  -1   0 62252.1 2018.28   5
  -7  -1   1 63288.6 1242.07   4
  -7  -1   1 63558.2 2038.81   5
  -7  -1   2 45823.1 1679.19   5
  -7  -1   2 45020.3 1065.78   4
  -7  -1   3 95653.1 1925.12   4
  -7  -1   3 97200.4 2596.71   5
  -7  -1   4 39163.7 1169.90   4
  -7  -1   5 2908.33 317.913   4
  -7  -1   6 825.661 178.228   4
  -7  -1   7 10885.6 728.904   4
  -7  -1   8 96.9161 117.861   4
  -7  -1   9 10286.8 812.269   4
  -7  -1  10 29161.4 1484.63   4
  -7  -1  11 38018.1 1820.50   4
  -7   0  -8 23049.7 1644.53   5
  -7   0  -7 23206.1 1566.30   5
  -7   0  -6 6809.41 805.204   5
  -7   0  -5 594.781 255.712   5
  -7   0  -4 6532.97 709.924   5
  -7   0  -3 5218.10 609.000   5
  -7   0  -2 8907.25 752.730   5
  -7   0  -1 20026.5 1103.46   5
  -7   0   0 57460.7 1897.18   5
  -7   0   1 66056.8 2023.50   5
  -7   0   2 28910.4 1251.02   5
  -7   0   2 29571.0 728.665   4
  -7   0   3 48972.3 1669.42   5
  -7   0   3 49661.6 1182.10   4
  -7   0   4 15494.6 876.399   5
  -7   0   4 15382.8 663.644   4
  -7   0   5 2113.41 267.941   4
  -7   0   6 631.823 176.125   4
  -7   0   7 1486.31 273.533   4
  -7   0   8 6196.15 582.411   4
  -7   0   9 362.488 121.451   1
  -7   0  10 20106.0 902.474   1
  -7   1  -8 12655.6 1213.10   5
  -7   1  -7 10899.5 1059.00   5
  -7   1  -6 1416.54 384.405   5
  -7   1  -5 2320.04 468.224   5
  -7   1  -4 1231.89 292.366   5
  -7   1  -3 1018.92 273.670   5
  -7   1  -2 17933.8 1069.83   5
  -7   1  -1 1102.75 242.543   5
  -7   1   0 14725.3 885.871   5
  -7   1   1 50278.6 1666.56   5
  -7   1   2 27334.6 1173.72   5
  -7   1   3 63302.4 1857.10   5
  -7   1   4 33073.1 1263.38   5
  -7   1   7 1209.76 227.589   1
  -7   1   8 108.556 49.9799   1
  -7   1   9 8991.00 642.557   1
  -7   1  10 33318.1 1349.76   1
  -7   2  -8 13923.6 1271.03   5
  -7   2  -7 12704.2 1148.11   5
  -7   2  -6 4636.48 664.506   5
  -7   2  -5 371.858 170.547   5
  -7   2  -4 3668.94 518.686   5
  -7   2  -3 4889.70 574.494   5
  -7   2  -2 11727.6 851.997   5
  -7   2  -1 3110.23 420.640   5
  -7   2   0 33461.8 1346.28   5
  -7   2   1 79065.7 2140.94   5
  -7   2   2 48209.5 1550.11   5
  -7   2   3 43748.0 1435.62   5
  -7   2   4 23908.4 1012.04   5
  -7   2   6 303.992 129.047   1
  -7   2   7 602.082 176.286   1
  -7   2   8 114.638 76.3518   1
  -7   2   9 7432.70 650.787   1
  -7   2  10 52262.7 1904.62   1
  -7   2  11 33595.7 1574.64   1
  -7   3  -8 4515.79 736.849   5
  -7   3  -7 8630.10 951.412   5
  -7   3  -6 246.375 204.380   5
  -7   3  -5 1786.12 394.483   5
  -7   3  -4 110.225 142.100   5
  -7   3  -3 1086.37 266.193   5
  -7   3  -2 985.128 268.792   5
  -7   3  -1 54915.6 1863.79   5
  -7   3   0 102694. 2597.66   5
  -7   3   1 121988. 2795.82   5
  -7   3   2 87170.0 2180.88   5
  -7   3   3 91759.9 2176.80   5
  -7   3   4 23599.6 956.264   5
  -7   3   5 2701.36 373.763   1
  -7   3   6 6781.83 588.489   1
  -7   3   7 2507.21 369.630   1
  -7   3   8 8847.66 732.939   1
  -7   3   9 12065.5 903.209   1
  -7   3  10 38177.9 1724.18   1
  -7   3  11 19592.3 1268.86   1
  -7   3  12 3815.27 568.625   1
  -7   4  -8 2388.98 530.718   5
  -7   4  -7 12070.6 1148.69   5
  -7   4  -6 213.554 171.275   5
  -7   4  -5 2133.86 437.013   5
  -7   4  -4 2327.91 427.359   5
  -7   4  -3 3305.71 490.281   5
  -7   4  -2 2572.28 402.752   5
  -7   4  -1 38672.7 1544.73   5
  -7   4   0 59036.8 1861.49   5
  -7   4   1 44235.3 1499.45   5
  -7   4   2 11078.9 669.873   5
  -7   4   3 4686.44 405.910   5
  -7   4   4 105.713 76.9836   5
  -7   4   5 889.226 236.248   1
  -7   4   6 28544.4 1349.09   1
  -7   4   7 14766.9 971.966   1
  -7   4   8 15816.9 1062.88   1
  -7   4   9 18084.9 1179.39   1
  -7   4  10 27823.4 1552.20   1
  -7   4  11 13764.0 1128.00   1
  -7   4  12 7308.49 843.858   1
  -7   5  -8 3211.71 645.178   5
  -7   5  -7 5215.71 763.050   5
  -7   5  -6 87.4698 106.950   5
  -7   5  -5 4469.49 627.264   5
  -7   5  -4 7499.52 789.616   5
  -7   5  -3 11923.7 944.482   5
  -7   5  -2 24376.7 1278.54   5
  -7   5  -1 41318.2 1617.65   5
  -7   5   0 82533.2 2298.57   5
  -7   5   1 29359.5 1205.56   5
  -7   5   2 30045.3 1142.90   5
  -7   5   3 19772.6 850.181   5
  -7   5   4 1159.71 181.232   5
  -7   5   4 1204.15 286.468   1
  -7   5   5 462.165 199.571   1
  -7   5   5 365.457 103.626   5
  -7   5   6 21110.1 1228.89   1
  -7   5   7 16647.5 1118.78   1
  -7   5   8 9149.50 846.240   1
  -7   5   9 10921.9 965.675   1
  -7   5  10 23758.7 1510.14   1
  -7   5  11 11740.8 1094.86   1
  -7   5  12 3804.69 636.683   1
  -7   5  13 10.5428 70.7992   1
  -7   6  -7 3073.97 595.782   5
  -7   6  -6 242.238 186.361   5
  -7   6  -5 1642.73 405.226   5
  -7   6  -4 2123.90 427.925   5
  -7   6  -3 1029.28 277.711   5
  -7   6  -2 4908.08 572.782   5
  -7   6  -1 6621.79 640.646   5
  -7   6   0 61058.2 1951.46   5
  -7   6   1 6473.24 559.059   5
  -7   6   2 16668.9 835.747   5
  -7   6   3 5657.57 435.337   5
  -7   6   4 263.765 93.7591   5
  -7   6   4 301.511 173.082   1
  -7   6   5 9349.25 439.557   5
  -7   6   5 10263.3 874.741   1
  -7   6   6 39774.8 1803.14   1
  -7   6   7 30721.2 1631.21   1
  -7   6   8 20091.8 1354.47   1
  -7   6   9 16768.7 1278.20   1
  -7   6  10 14227.6 1227.23   1
  -7   6  11 10518.8 1087.04   1
  -7   6  12 5120.47 770.040   1
  -7   6  13 124.701 104.941   1
  -7   7  -7 7178.57 943.961   5
  -7   7  -6 242.383 177.073   5
  -7   7  -5 1799.06 415.709   5
  -7   7  -4 330.286 219.286   5
  -7   7  -3 2278.20 430.609   5
  -7   7  -2 15055.8 1052.33   5
  -7   7  -1 14057.6 958.532   5
  -7   7   0 54364.4 1850.21   5
  -7   7   1 21813.6 1057.78   5
  -7   7   2 11735.4 711.077   5
  -7   7   3 1211.37 202.047   5
  -7   7   3 1914.90 388.417   1
  -7   7   4 603.369 239.637   1
  -7   7   4 282.111 95.2581   5
  -7   7   5 2394.17 452.260   1
  -7   7   6 10667.4 959.779   1
  -7   7   7 6051.10 743.464   1
  -7   7   8 165.944 144.427   1
  -7   7   9 5121.75 742.620   1
  -7   7  10 6579.26 854.167   1
  -7   7  11 5746.11 834.389   1
  -7   7  12 5896.42 887.460   1
  -7   8  -6-12.5807 191.516   5
  -7   8  -5 4112.77 664.213   5
  -7   8  -4 4147.96 622.960   5
  -7   8  -3 7229.28 794.130   5
  -7   8  -2 21952.3 1312.84   5
  -7   8  -1 41613.9 1741.62   5
  -7   8   0 56794.7 1974.39   5
  -7   8   1 27156.1 1222.25   5
  -7   8   2 29158.6 1176.05   5
  -7   8   3 19457.4 1284.98   1
  -7   8   3 18041.8 820.211   5
  -7   8   4 599.753 241.847   1
  -7   8   5 1823.03 413.943   1
  -7   8   6 3968.74 626.583   1
  -7   8   7 11419.2 1087.83   1
  -7   8   8 855.953 293.537   1
  -7   8   9 8021.87 969.508   1
  -7   8  10 7880.51 1005.64   1
  -7   8  11 6526.53 938.213   1
  -7   9  -6 398.155 192.380   5
  -7   9  -5 4577.43 717.162   5
  -7   9  -4 7007.32 842.165   5
  -7   9  -3 12367.1 1063.73   5
  -7   9  -2 18083.0 1220.31   5
  -7   9  -1 19588.7 1199.98   5
  -7   9   0 23965.8 1259.53   5
  -7   9   1 2480.43 376.707   5
  -7   9   2 2108.25 306.063   5
  -7   9   3 1879.88 436.797   1
  -7   9   4 6037.62 777.662   1
  -7   9   5 8745.66 944.350   1
  -7   9   6 11802.3 1110.77   1
  -7   9   7 10224.5 1064.38   1
  -7   9   8 2568.38 572.065   1
  -7   9   9 8777.66 1068.01   1
  -7   9  10 8056.13 1059.27   1
  -7  10  -5 5662.43 829.872   5
  -7  10  -4 7445.54 885.348   5
  -7  10  -3 11084.7 1038.82   5
  -7  10  -2 11598.9 1015.35   5
  -7  10  -1 12691.2 996.472   5
  -7  10   0 10617.9 859.463   5
  -7  10   1 2639.79 392.133   5
  -7  10   3 121.628 106.667   1
  -7  10   4 4148.75 672.399   1
  -7  10   5 7769.22 937.149   1
  -7  10   6 16114.5 1387.79   1
  -7  10   7 21165.2 1639.31   1
  -7  10   8 8974.45 1090.08   1
  -7  11  -5 7175.64 936.916   5
  -7  11  -4 10284.1 1077.47   5
  -7  11  -3 13558.2 1181.96   5
  -7  11  -2 12232.9 1074.01   5
  -7  11  -1 8888.11 863.118   5
  -7  11   0 4225.69 559.123   5
  -7  11   3 1268.77 384.570   1
  -7  11   4 5147.11 777.981   1
  -7  11   5 13736.3 1316.77   1
  -7  11   6 13904.8 1336.97   1
  -7  12  -4 6932.62 904.968   5
  -7  12  -3 7300.85 897.469   5
  -7  12  -2 3174.49 556.573   5
  -7  12   3 108.288 109.811   1
  -7  13  -3 2110.62 494.881   5
  -6 -11  -1 1608.18 443.104   4
  -6 -11   0 7625.81 932.985   4
  -6 -11   1 9952.06 1055.13   4
  -6 -11   2 3363.94 590.362   4
  -6 -11   3 6918.22 854.300   4
  -6 -11   4 2735.31 529.238   4
  -6 -11   5 3192.08 568.060   4
  -6 -11   6 1070.78 330.351   4
  -6 -10   0 6866.74 841.724   4
  -6 -10   1 20178.9 1427.83   4
  -6 -10   2 12967.3 1114.88   4
  -6 -10   3 20235.6 1376.68   4
  -6 -10   4 17920.6 1298.25   4
  -6 -10   5 22162.2 1448.87   4
  -6 -10   6 7316.79 831.067   4
  -6 -10   7 2085.76 441.345   4
  -6 -10   8-37.6319 88.8472   4
  -6  -9   0 23378.8 1474.59   4
  -6  -9   1 29840.1 1658.04   4
  -6  -9   2 26562.6 1528.03   4
  -6  -9   3 20538.1 1307.32   4
  -6  -9   4 13630.0 1065.23   4
  -6  -9   5 12626.2 1040.31   4
  -6  -9   6 4133.30 584.409   4
  -6  -9   7 169.302 160.329   4
  -6  -9   8-11.7679 136.609   4
  -6  -9   9 373.859 184.074   4
  -6  -9  10 8326.83 916.697   4
  -6  -8   0 28435.0 1540.60   4
  -6  -8   1 30381.9 1564.88   4
  -6  -8   2 29570.1 1518.89   4
  -6  -8   3 22127.2 1295.08   4
  -6  -8   4 21645.1 1277.81   4
  -6  -8   5 11479.9 930.123   4
  -6  -8   6 173.311 149.594   4
  -6  -8   7 540.484 197.854   4
  -6  -8   8 2486.96 445.176   4
  -6  -8   9 2517.72 466.252   4
  -6  -8  10 13574.2 1129.78   4
  -6  -8  11 9007.40 951.926   4
  -6  -7  -6 4813.28 751.267   5
  -6  -7  -5 509.237 238.280   5
  -6  -7  -4-74.3785 128.168   5
  -6  -7  -3 2569.64 498.951   5
  -6  -7   1 38124.8 1661.26   4
  -6  -7   2 7126.85 686.671   4
  -6  -7   3 1081.46 276.193   4
  -6  -7   4 2154.61 386.864   4
  -6  -7   5 443.083 192.012   4
  -6  -7   6 4471.50 532.705   4
  -6  -7   7 6251.78 655.957   4
  -6  -7   8 6190.46 672.517   4
  -6  -7   9 11504.3 959.574   4
  -6  -7  10 18141.5 1253.57   4
  -6  -7  11 22400.6 1458.75   4
  -6  -6  -7 3855.94 679.279   5
  -6  -6  -6 811.742 311.018   5
  -6  -6  -5 636.805 288.230   5
  -6  -6  -4 1680.58 427.735   5
  -6  -6  -3 2986.36 542.109   5
  -6  -6  -2 6245.07 738.331   5
  -6  -6   1 6466.58 610.055   4
  -6  -6   2 1729.23 317.913   4
  -6  -6   3 1423.75 295.167   4
  -6  -6   4 1844.59 321.377   4
  -6  -6   5 3846.64 465.696   4
  -6  -6   6 1689.65 326.985   4
  -6  -6   7 9649.23 776.544   4
  -6  -6   8 4501.11 541.730   4
  -6  -6   9 18159.2 1167.89   4
  -6  -6  10 24784.4 1430.50   4
  -6  -6  11 21549.8 1405.91   4
  -6  -6  12 12977.6 1140.65   4
  -6  -5  -8 2722.24 566.019   5
  -6  -5  -7 2737.06 558.652   5
  -6  -5  -6 1499.30 399.610   5
  -6  -5  -5 93.0931 151.096   5
  -6  -5  -4 2222.17 456.657   5
  -6  -5  -3 4795.63 639.084   5
  -6  -5  -2 18565.2 1248.13   5
  -6  -5  -1 14520.3 715.514   3
  -6  -5  -1 19702.2 1240.40   5
  -6  -5   0 78808.7 2589.70   5
  -6  -5   1 17369.2 942.081   4
  -6  -5   2 20181.5 998.382   4
  -6  -5   3 41723.0 1483.88   4
  -6  -5   4 47913.0 1618.86   4
  -6  -5   5 41849.4 1529.48   4
  -6  -5   6 7615.19 631.877   4
  -6  -5   7 968.728 259.679   4
  -6  -5   8 2985.07 422.094   4
  -6  -5   9 6804.01 682.971   4
  -6  -5  10 22758.5 1349.84   4
  -6  -5  11 25014.5 1500.71   4
  -6  -5  12 17163.6 1292.95   4
  -6  -4  -9 4854.46 773.231   5
  -6  -4  -8 8852.53 1006.89   5
  -6  -4  -7 9232.08 985.473   5
  -6  -4  -6 4458.91 653.407   5
  -6  -4  -5 316.459 160.467   5
  -6  -4  -4 77.5398 91.7521   5
  -6  -4  -3 1296.60 300.659   5
  -6  -4  -2 13325.4 561.883   3
  -6  -4  -2 15291.7 1065.62   5
  -6  -4  -1 3622.68 307.309   3
  -6  -4  -1 4543.13 560.487   5
  -6  -4   0 66406.5 1832.71   4
  -6  -4   0 64100.3 2195.46   5
  -6  -4   1 27198.8 1352.58   5
  -6  -4   1 29136.7 1127.58   4
  -6  -4   2 32982.5 1185.55   4
  -6  -4   3 46154.2 1456.11   4
  -6  -4   4 37408.2 1308.08   4
  -6  -4   5 8742.86 622.282   4
  -6  -4   6 6286.56 554.084   4
  -6  -4   7 42732.0 1585.25   4
  -6  -4   8 26808.0 1267.36   4
  -6  -4   9 57546.8 2071.99   4
  -6  -4  10 35993.1 1688.61   4
  -6  -4  11 17716.1 1230.71   4
  -6  -4  12 21101.3 1419.36   4
  -6  -4  13 1413.96 372.606   4
  -6  -3  -9 7122.95 926.040   5
  -6  -3  -8 6552.74 842.558   5
  -6  -3  -7 6238.76 789.912   5
  -6  -3  -6 4041.87 609.428   5
  -6  -3  -5 3935.95 574.079   5
  -6  -3  -4 2557.31 445.145   5
  -6  -3  -3 3136.67 478.788   5
  -6  -3  -2 26183.0 1352.84   5
  -6  -3  -1 35577.4 1543.59   5
  -6  -3  -1 33200.4 930.413   3
  -6  -3   0 60969.8 2043.99   5
  -6  -3   0 57224.6 1430.80   3
  -6  -3   0 63350.9 1629.98   4
  -6  -3   1 37773.9 1153.38   4
  -6  -3   1 36272.9 1505.72   5
  -6  -3   2 42717.1 1630.52   5
  -6  -3   2 43182.5 1278.26   4
  -6  -3   3 57961.5 1539.72   4
  -6  -3   4 43444.4 1339.24   4
  -6  -3   5 1820.82 272.309   4
  -6  -3   6 9596.06 646.993   4
  -6  -3   7 54484.4 1755.66   4
  -6  -3   8 1362.65 282.090   4
  -6  -3   9 21385.3 1195.20   4
  -6  -3  10 13712.5 991.716   4
  -6  -3  11 10056.6 904.753   4
  -6  -3  12 4030.26 614.435   4
  -6  -3  13 127.664 178.670   4
  -6  -2  -9 6846.93 887.953   5
  -6  -2  -8 8243.54 915.078   5
  -6  -2  -7 586.498 215.372   5
  -6  -2  -6 768.430 277.769   5
  -6  -2  -5 5186.67 639.130   5
  -6  -2  -4 9045.99 804.470   5
  -6  -2  -3 20411.0 1169.24   5
  -6  -2  -2 16027.6 993.792   5
  -6  -2  -1 39182.4 1557.03   5
  -6  -2   0 63812.5 1481.08   4
  -6  -2   0 64251.8 2010.87   5
  -6  -2   1 12116.4 540.931   4
  -6  -2   1 12789.3 819.312   5
  -6  -2   2 620.889 191.585   5
  -6  -2   2 768.147 136.105   4
  -6  -2   3 10222.9 527.317   4
  -6  -2   4 189.745 84.9240   4
  -6  -2   5 17148.0 795.229   4
  -6  -2   6 27417.5 1107.27   4
  -6  -2   7 105530. 2615.87   4
  -6  -2   8 12481.9 837.832   4
  -6  -2   9 25212.7 1288.08   4
  -6  -2  10 36662.3 1656.82   4
  -6  -2  11 25554.5 1455.50   4
  -6  -2  12 12446.3 1079.37   4
  -6  -2  13 4252.90 670.158   4
  -6  -1  -9 2068.26 493.280   5
  -6  -1  -8 823.844 343.626   5
  -6  -1  -7 709.269 258.982   5
  -6  -1  -6 3643.92 557.954   5
  -6  -1  -5 16699.1 1130.10   5
  -6  -1  -4 8498.49 511.970   4
  -6  -1  -4 10063.7 835.818   5
  -6  -1  -3 15506.8 633.622   4
  -6  -1  -3 15992.8 1005.34   5
  -6  -1  -2 27514.3 799.063   4
  -6  -1  -2 29835.6 1324.84   5
  -6  -1  -1 30687.8 1301.37   5
  -6  -1   0 18300.5 551.759   4
  -6  -1   0 19792.5 998.070   5
  -6  -1   1 21972.5 626.704   4
  -6  -1   1 22762.3 1059.50   5
  -6  -1   2 261.386 121.955   5
  -6  -1   2 364.768 98.2588   4
  -6  -1   3 25620.8 1119.02   5
  -6  -1   3 26034.4 818.388   4
  -6  -1   4 1490.70 205.874   4
  -6  -1   5 10565.0 609.147   4
  -6  -1   6 54394.6 1613.77   4
  -6  -1   7 71684.7 2034.60   4
  -6  -1   8 29659.4 1309.11   4
  -6  -1   8 29152.3 856.275   1
  -6  -1   9 37140.0 1556.34   4
  -6  -1   9 32920.8 1002.88   1
  -6  -1  10 20034.8 814.813   1
  -6  -1  10 24769.9 1338.50   4
  -6  -1  11 14580.2 1099.92   4
  -6   0  -9 60.3868 137.069   5
  -6   0  -8 209.973 200.299   5
  -6   0  -7 953.989 304.593   5
  -6   0  -6 241.506 138.432   5
  -6   0  -5 4748.49 586.136   5
  -6   0  -4 9172.78 779.114   5
  -6   0  -4 8427.84 461.881   4
  -6   0  -3 27292.5 762.606   4
  -6   0  -3 29756.6 1370.48   5
  -6   0  -2 36805.2 776.189   4
  -6   0  -2 41766.8 1556.01   5
  -6   0  -1 98262.1 2499.06   5
  -6   0   0 53641.8 1686.35   5
  -6   0   1 24834.6 1052.26   5
  -6   0   1 22155.2 500.812   4
  -6   0   2 2184.47 308.555   5
  -6   0   2 2488.71 188.266   4
  -6   0   3 41368.1 1386.80   5
  -6   0   3 40401.8 1042.76   4
  -6   0   4 6165.92 405.735   4
  -6   0   5 4725.42 393.682   4
  -6   0   6 42272.5 1387.57   4
  -6   0   7 52428.9 1680.93   4
  -6   0   7 50242.1 1353.40   1
  -6   0   8 13899.2 876.213   4
  -6   0   8 12170.0 640.779   1
  -6   0   9 12165.4 686.673   1
  -6   0   9 11328.4 843.499   4
  -6   0  10 26330.7 1123.06   1
  -6   1  -9 2915.15 563.968   5
  -6   1  -8 4743.84 722.851   5
  -6   1  -7 7485.63 852.273   5
  -6   1  -6 3781.71 571.948   5
  -6   1  -5-163.047 155.927   5
  -6   1  -4 399.637 145.866   5
  -6   1  -4 206.943 68.4547   4
  -6   1  -3 20624.3 1119.69   5
  -6   1  -3 17494.6 529.886   4
  -6   1  -2 18555.4 1000.88   5
  -6   1  -1 50930.5 1670.38   5
  -6   1   0 31557.6 1216.14   5
  -6   1   1 24700.0 1026.39   5
  -6   1   2 19142.2 866.307   5
  -6   1   3 34382.3 1190.36   5
  -6   1   4 1581.41 231.572   5
  -6   1   6 107411. 2342.15   1
  -6   1   7 112935. 2511.95   1
  -6   1   8 67518.9 1893.21   1
  -6   1   9 38604.4 1456.69   1
  -6   1  10 27228.5 1260.96   1
  -6   1  11 4364.75 517.611   1
  -6   2  -9 3245.11 609.303   5
  -6   2  -8 766.200 304.094   5
  -6   2  -7 7726.26 854.403   5
  -6   2  -6 122.755 106.344   5
  -6   2  -5 7047.49 742.414   5
  -6   2  -4 23267.4 761.583   4
  -6   2  -4 26328.9 1333.84   5
  -6   2  -3 60856.0 1230.16   4
  -6   2  -3 82035.4 2307.57   5
  -6   2  -2 78901.1 2246.71   5
  -6   2  -1 92313.2 2375.40   5
  -6   2   0 61367.2 1769.94   5
  -6   2   1 11599.4 669.569   5
  -6   2   2 7521.15 512.190   5
  -6   2   3 13222.8 664.554   5
  -6   2   4 175.596 81.3828   5
  -6   2   5 33010.2 1197.62   1
  -6   2   6 84049.3 2157.74   1
  -6   2   7 33440.6 1311.36   1
  -6   2   8 12347.4 820.961   1
  -6   2   9 2711.15 393.349   1
  -6   2  10 11905.5 892.216   1
  -6   2  11 1587.05 338.095   1
  -6   2  12 103.260 133.029   1
  -6   3  -9 3186.09 625.583   5
  -6   3  -8-164.687 155.935   5
  -6   3  -7 2232.28 478.925   5
  -6   3  -6 4896.19 674.465   5
  -6   3  -5 11953.5 943.005   5
  -6   3  -4 26549.4 1360.70   5
  -6   3  -3 44572.3 1722.87   5
  -6   3  -2 39201.9 1509.24   5
  -6   3  -1 30169.3 1249.15   5
  -6   3   0 18666.4 904.210   5
  -6   3   1 10116.1 618.036   5
  -6   3   2 7293.55 488.426   5
  -6   3   3 11576.7 588.253   5
  -6   3   4 2846.94 358.245   1
  -6   3   4 2850.85 280.065   5
  -6   3   5 20569.2 1002.82   1
  -6   3   6 88360.1 2367.60   1
  -6   3   7 38105.6 1525.56   1
  -6   3   8 9626.53 782.614   1
  -6   3   9 8105.92 745.623   1
  -6   3  10 8862.81 816.238   1
  -6   3  11 2418.06 438.976   1
  -6   3  12 387.638 214.174   1
  -6   4  -9 1055.87 349.002   5
  -6   4  -8 1234.02 407.311   5
  -6   4  -7-50.3091 129.724   5
  -6   4  -6 6447.80 766.484   5
  -6   4  -5 29762.5 1554.99   5
  -6   4  -4 40469.8 1743.88   5
  -6   4  -3 53604.2 1916.89   5
  -6   4  -2 48369.2 1725.42   5
  -6   4  -1 26838.3 1179.70   5
  -6   4   0 27205.6 1122.36   5
  -6   4   1 126.919 83.6745   5
  -6   4   2 814.024 163.898   5
  -6   4   3 1105.75 171.385   5
  -6   4   3 1431.62 269.991   1
  -6   4   4 38936.3 1477.27   1
  -6   4   4 36127.9 1030.94   5
  -6   4   5 38704.6 1518.16   1
  -6   4   6 80859.3 2399.58   1
  -6   4   7 34210.0 1525.75   1
  -6   4   8 10605.5 863.971   1
  -6   4   9 5995.14 672.295   1
  -6   4  10 5874.51 711.036   1
  -6   4  11 2143.81 443.691   1
  -6   4  12 406.124 192.258   1
  -6   4  13 1452.62 398.186   1
  -6   5  -9-45.8696 194.096   5
  -6   5  -8 1312.00 390.904   5
  -6   5  -7 364.555 282.099   5
  -6   5  -6 5173.83 696.156   5
  -6   5  -5 22773.1 1380.82   5
  -6   5  -4 28174.6 1469.12   5
  -6   5  -3 49097.7 1869.56   5
  -6   5  -2 25153.4 1227.60   5
  -6   5  -1 11875.2 786.202   5
  -6   5   0 11378.7 714.521   5
  -6   5   1 16584.4 811.876   5
  -6   5   2 10881.3 598.246   5
  -6   5   3 23105.7 829.456   5
  -6   5   3 24800.6 1195.81   1
  -6   5   4 54161.0 1271.96   5
  -6   5   4 58293.7 1960.83   1
  -6   5   5 67107.6 2200.61   1
  -6   5   6 61119.1 2153.56   1
  -6   5   7 21526.6 1270.89   1
  -6   5   8 10081.6 894.084   1
  -6   5   9 7813.96 821.610   1
  -6   5  10 6001.06 750.783   1
  -6   5  11 1295.31 371.241   1
  -6   5  12 159.934 133.053   1
  -6   5  13 2397.56 540.180   1
  -6   6  -8 34.3395 108.475   5
  -6   6  -7 337.938 240.668   5
  -6   6  -6 2882.34 546.354   5
  -6   6  -5 19011.8 1286.91   5
  -6   6  -4 13990.8 1051.05   5
  -6   6  -3 32930.5 1555.43   5
  -6   6  -2 26203.0 1302.97   5
  -6   6  -1 3915.65 460.821   5
  -6   6   0 6783.14 575.536   5
  -6   6   1 2809.34 334.979   5
  -6   6   2 4455.47 385.041   5
  -6   6   2 3672.62 485.548   1
  -6   6   3 5677.80 602.066   1
  -6   6   3 5470.06 384.325   5
  -6   6   4 11131.4 467.103   5
  -6   6   4 11839.9 895.393   1
  -6   6   5 24596.6 1336.70   1
  -6   6   6 31231.3 1578.49   1
  -6   6   7 29150.2 1573.48   1
  -6   6   8 8310.06 854.150   1
  -6   6   9 20467.5 1420.39   1
  -6   6  10 7711.09 883.314   1
  -6   6  11 1219.44 404.139   1
  -6   6  12-107.180 142.182   1
  -6   6  13 1615.84 471.291   1
  -6   7  -8 288.172 249.402   5
  -6   7  -7 298.740 131.680   5
  -6   7  -6 2173.03 483.991   5
  -6   7  -5 29821.9 1688.75   5
  -6   7  -4 43908.1 1958.49   5
  -6   7  -3 41505.1 1801.49   5
  -6   7  -2 29179.5 1428.83   5
  -6   7  -1 13539.7 900.856   5
  -6   7   0 6313.06 568.216   5
  -6   7   1 4221.24 430.055   5
  -6   7   2 4001.33 372.308   5
  -6   7   2 4174.32 544.589   1
  -6   7   3 4948.93 367.244   5
  -6   7   3 5496.82 630.106   1
  -6   7   4 14013.8 514.266   5
  -6   7   4 14959.0 1067.66   1
  -6   7   5 16021.6 1123.06   1
  -6   7   6 23999.8 1462.28   1
  -6   7   7 32536.1 1758.01   1
  -6   7   8 5789.76 752.030   1
  -6   7   9 18348.3 1402.62   1
  -6   7  10 4570.97 716.198   1
  -6   7  11-210.223 231.946   1
  -6   7  12 730.895 348.662   1
  -6   8  -7 3826.04 690.385   5
  -6   8  -6 14396.6 1256.24   5
  -6   8  -5 29555.6 1731.22   5
  -6   8  -4 28365.1 1610.23   5
  -6   8  -3 27909.1 1524.19   5
  -6   8  -2 17048.9 1100.40   5
  -6   8  -1 2058.22 338.947   5
  -6   8   0 10014.2 740.144   5
  -6   8   1 1469.30 259.244   5
  -6   8   2 781.539 167.234   5
  -6   8   2 257.538 153.095   1
  -6   8   3 1200.01 315.901   1
  -6   8   3 1669.71 225.707   5
  -6   8   4 1018.15 266.063   1
  -6   8   4 748.857 108.012   5
  -6   8   5 7597.69 808.773   1
  -6   8   6 14151.1 1162.34   1
  -6   8   7 18663.9 1391.97   1
  -6   8   8 2827.92 579.977   1
  -6   8   9 2015.63 458.057   1
  -6   8  10-232.890 249.937   1
  -6   8  11 1875.19 515.751   1
  -6   9  -7 3617.85 683.378   5
  -6   9  -6 9448.06 1059.54   5
  -6   9  -5 28456.8 1755.12   5
  -6   9  -4 22549.8 1474.16   5
  -6   9  -3 12848.9 1051.28   5
  -6   9  -2 9887.05 870.407   5
  -6   9  -1 2851.46 433.375   5
  -6   9   0-0.99702 115.187   5
  -6   9   1 3657.32 436.715   5
  -6   9   2 8231.60 584.963   5
  -6   9   2 8173.10 852.428   1
  -6   9   3 11444.5 1018.70   1
  -6   9   4 25420.9 1557.28   1
  -6   9   5 17748.4 1330.54   1
  -6   9   6 20293.4 1477.68   1
  -6   9   7 14692.8 1309.88   1
  -6   9   8 2834.53 564.194   1
  -6   9   9 1048.98 367.699   1
  -6   9  10-213.242 239.708   1
  -6  10  -6 10547.5 1146.85   5
  -6  10  -5 15804.1 1345.43   5
  -6  10  -4 8649.48 932.257   5
  -6  10  -3 1821.61 420.822   5
  -6  10  -2 456.703 193.742   5
  -6  10  -1 775.716 242.486   5
  -6  10   0 1781.57 338.570   5
  -6  10   1 11615.8 810.261   5
  -6  10   1 12586.0 1104.69   1
  -6  10   2 21674.2 1012.91   5
  -6  10   2 23845.6 1534.03   1
  -6  10   3 18762.9 1375.80   1
  -6  10   4 23514.7 1579.46   1
  -6  10   5 29131.6 1799.46   1
  -6  10   6 21612.3 1588.44   1
  -6  10   7 14723.8 1368.37   1
  -6  10   8 4832.91 793.863   1
  -6  11  -5 11862.9 1192.94   5
  -6  11  -4 4816.95 711.219   5
  -6  11  -3 3654.97 604.812   5
  -6  11  -2 112.876 91.0120   5
  -6  11  -1 99.1839 122.100   5
  -6  11   0 804.030 231.683   5
  -6  11   1 6082.71 811.254   1
  -6  11   2 11452.0 1121.90   1
  -6  11   3 7452.52 931.512   1
  -6  11   4 6894.29 886.096   1
  -6  11   5 5571.69 825.004   1
  -6  11   6 7739.10 987.749   1
  -6  11   7 5460.58 860.091   1
  -6  12  -5 4006.79 714.313   5
  -6  12  -4 2429.64 524.824   5
  -6  12  -3 2736.73 538.903   5
  -6  12  -2 1127.13 347.733   5
  -6  12  -1 671.175 211.065   5
  -6  12   1 1693.20 456.682   1
  -6  12   2 8276.93 1008.49   1
  -6  12   3 5812.72 866.122   1
  -6  12   4 6987.02 954.785   1
  -6  12   5 6466.62 921.894   1
  -6  13  -4 6327.72 881.676   5
  -6  13  -3 6153.10 824.977   5
  -5 -12   0 2165.67 503.097   4
  -5 -12   1 1549.89 441.545   4
  -5 -12   2 92.4528 102.766   4
  -5 -12   3 531.266 272.735   4
  -5 -12   4 85.3969 147.953   4
  -5 -11   0 11426.2 1136.93   4
  -5 -11   1 16177.9 1322.46   4
  -5 -11   2 7505.82 866.268   4
  -5 -11   3 6677.41 825.116   4
  -5 -11   4 1498.44 398.643   4
  -5 -11   5 185.415 181.946   4
  -5 -11   6 7013.89 842.021   4
  -5 -11   7 11347.0 1071.91   4
  -5 -10   0 15674.3 1254.14   4
  -5 -10   1 12065.3 1076.78   4
  -5 -10   2 8416.63 886.955   4
  -5 -10   3 6581.97 765.509   4
  -5 -10   4 2385.85 448.034   4
  -5 -10   5 786.453 276.301   4
  -5 -10   6 9113.10 907.523   4
  -5 -10   7 18510.9 1317.33   4
  -5 -10   8 13707.3 1158.20   4
  -5 -10   9 9308.91 960.046   4
  -5  -9   1 10738.3 955.076   4
  -5  -9   2 10508.5 933.795   4
  -5  -9   3 8783.69 838.293   4
  -5  -9   4 3630.20 523.079   4
  -5  -9   5 622.754 255.731   4
  -5  -9   6 5187.97 634.587   4
  -5  -9   7 8833.45 857.935   4
  -5  -9   8 6020.20 723.747   4
  -5  -9   9 2055.78 451.009   4
  -5  -9  10 6308.26 775.800   4
  -5  -8   1 10261.1 873.742   4
  -5  -8   2 8851.02 795.677   4
  -5  -8   3 11724.7 920.587   4
  -5  -8   4 9062.27 804.276   4
  -5  -8   5 289.805 190.072   4
  -5  -8   6 20778.5 1233.02   4
  -5  -8   7 17939.8 1177.35   4
  -5  -8   8 10555.0 915.869   4
  -5  -8   9 10588.0 945.726   4
  -5  -8  10 9163.81 905.179   4
  -5  -8  11 6007.66 762.904   4
  -5  -7  -6-86.8998 115.332   5
  -5  -7  -5 4165.35 644.736   5
  -5  -7  -4 9864.98 966.078   5
  -5  -7   1 5227.02 588.066   4
  -5  -7   2 226.961 134.091   4
  -5  -7   3 228.905 199.167   4
  -5  -7   4 7782.02 689.614   4
  -5  -7   5 17723.1 1055.46   4
  -5  -7   6 50345.3 1894.13   4
  -5  -7   7 65719.2 2245.77   4
  -5  -7   8 19093.7 1182.04   4
  -5  -7   9 16455.1 1125.48   4
  -5  -7  10 19356.2 1292.56   4
  -5  -7  11 16485.9 1223.91   4
  -5  -7  12 4648.57 687.026   4
  -5  -6  -7 56.8493 140.024   5
  -5  -6  -6 1172.45 371.162   5
  -5  -6  -5 10343.2 981.878   5
  -5  -6  -4 25168.2 1496.29   5
  -5  -6  -3 20844.7 1315.73   5
  -5  -6  -2 16750.5 1140.48   5
  -5  -6   1 14418.2 907.860   4
  -5  -6   2 35223.0 1440.83   4
  -5  -6   3 26634.2 1222.24   4
  -5  -6   4 194.513 117.315   4
  -5  -6   5 21948.1 1118.93   4
  -5  -6   6 61643.6 2018.24   4
  -5  -6   7 74699.1 2311.73   4
  -5  -6   8 38777.1 1662.47   4
  -5  -6   9 24616.0 1345.81   4
  -5  -6  10 14909.9 1081.62   4
  -5  -6  11 8396.45 865.833   4
  -5  -6  12 2993.30 555.536   4
  -5  -5  -8 823.664 292.739   5
  -5  -5  -7 29.4684 105.154   5
  -5  -5  -6 1909.47 410.006   5
  -5  -5  -5 19376.1 1285.06   5
  -5  -5  -4 26384.2 1464.12   5
  -5  -5  -3 37028.6 1711.61   5
  -5  -5  -2 40444.8 1257.16   3
  -5  -5  -2 50915.0 1953.21   5
  -5  -5  -1 13192.4 932.480   5
  -5  -5  -1 11107.2 628.509   3
  -5  -5   1 8018.38 615.860   4
  -5  -5   2 2567.09 335.525   4
  -5  -5   3 262.628 123.648   4
  -5  -5   4 19826.8 979.042   4
  -5  -5   5 78779.0 2170.06   4
  -5  -5   6 113400. 2793.94   4
  -5  -5   7 68208.7 2110.13   4
  -5  -5   8 16225.8 1003.93   4
  -5  -5   9 19896.0 1155.31   4
  -5  -5  10 6504.12 704.843   4
  -5  -5  11 233.869 93.5764   4
  -5  -5  12 141.588 82.4534   4
  -5  -4  -9 812.571 301.294   5
  -5  -4  -8 326.612 203.973   5
  -5  -4  -7 189.429 107.594   5
  -5  -4  -6 723.243 286.640   5
  -5  -4  -5 25909.3 1440.56   5
  -5  -4  -4 30785.9 1526.21   5
  -5  -4  -3 36816.5 990.659   3
  -5  -4  -3 44560.2 1769.23   5
  -5  -4  -2 35983.3 1034.37   3
  -5  -4  -2 41741.6 1658.34   5
  -5  -4  -1 25482.5 883.672   3
  -5  -4  -1 27887.8 1320.27   5
  -5  -4   0 31553.9 1045.22   3
  -5  -4   0 32791.7 1414.25   5
  -5  -4   1 16338.7 765.380   3
  -5  -4   1 18442.6 860.712   4
  -5  -4   2 9192.40 592.896   4
  -5  -4   3 4497.45 414.997   4
  -5  -4   4 3550.20 370.874   4
  -5  -4   5 30337.0 1180.42   4
  -5  -4   6 33212.0 1297.49   4
  -5  -4   7 64104.4 1977.94   4
  -5  -4   8 324.382 158.174   4
  -5  -4   9 16347.2 1037.46   4
  -5  -4  10 4269.57 555.746   4
  -5  -4  11 42.3732 123.338   4
  -5  -4  12 655.745 244.702   4
  -5  -4  13 2648.46 529.229   4
  -5  -3 -10 296.461 197.388   5
  -5  -3  -9 63.6954 93.9499   5
  -5  -3  -8 540.078 278.762   5
  -5  -3  -7 1135.82 338.194   5
  -5  -3  -6 3704.99 550.125   5
  -5  -3  -5 31871.3 1545.72   5
  -5  -3  -4 33251.4 1512.86   5
  -5  -3  -3 56100.7 1916.05   5
  -5  -3  -3 49326.3 992.272   3
  -5  -3  -2 38288.3 1522.32   5
  -5  -3  -2 36868.9 897.856   3
  -5  -3  -1 17680.1 631.734   3
  -5  -3  -1 19041.2 1010.69   5
  -5  -3   0 16332.0 652.510   3
  -5  -3   0 16088.7 917.492   5
  -5  -3   1 12780.3 610.656   3
  -5  -3   1 13972.3 658.608   4
  -5  -3   1 12817.8 796.910   5
  -5  -3   2 1481.69 223.943   3
  -5  -3   2 1514.77 215.662   4
  -5  -3   3 4142.76 367.228   4
  -5  -3   4 6085.36 454.754   4
  -5  -3   5 44776.3 1409.96   4
  -5  -3   6 51039.8 1590.48   4
  -5  -3   7 87859.0 2308.41   4
  -5  -3   8 11749.9 806.374   4
  -5  -3   9 25449.8 1294.25   4
  -5  -3  10 9278.92 799.961   4
  -5  -3  11 1290.87 327.068   4
  -5  -3  12 764.078 271.901   4
  -5  -3  13 1426.95 335.097   4
  -5  -2 -10 124.355 104.777   5
  -5  -2  -9 776.243 258.106   5
  -5  -2  -8-150.776 181.828   5
  -5  -2  -7-7.02867 82.8663   5
  -5  -2  -6 3657.64 526.802   5
  -5  -2  -5 23062.1 1267.75   5
  -5  -2  -4 24779.8 1019.24   4
  -5  -2  -4 28769.3 1349.41   5
  -5  -2  -3 22691.8 1143.55   5
  -5  -2  -2 16299.7 917.810   5
  -5  -2  -1 5726.83 520.813   5
  -5  -2   0 108.629 54.5930   3
  -5  -2   0 177.426 67.5094   4
  -5  -2   0 92.9410 100.696   5
  -5  -2   1 2362.27 239.136   3
  -5  -2   1 2214.62 225.815   4
  -5  -2   1 2320.03 321.956   5
  -5  -2   2 8800.51 509.169   3
  -5  -2   2 9222.14 634.286   5
  -5  -2   2 9149.09 466.093   4
  -5  -2   3 206.966 77.1991   4
  -5  -2   3 165.639 111.439   3
  -5  -2   4 59843.8 1519.18   4
  -5  -2   5 99231.8 2222.05   4
  -5  -2   6 84539.3 2112.92   4
  -5  -2   7 82240.9 2211.07   4
  -5  -2   8 15282.5 903.351   4
  -5  -2   8 12400.4 403.946   1
  -5  -2   9 2739.78 225.581   1
  -5  -2   9 2864.07 426.153   4
  -5  -2  10 1954.93 382.044   4
  -5  -2  10 1009.60 163.985   1
  -5  -2  11 921.148 271.897   4
  -5  -2  12 3382.05 551.185   4
  -5  -1 -10-24.9450 117.704   5
  -5  -1  -9-79.8367 127.630   5
  -5  -1  -8-97.0318 116.773   5
  -5  -1  -7 529.000 209.733   5
  -5  -1  -6 11041.6 909.344   5
  -5  -1  -5 32478.6 1506.60   5
  -5  -1  -4 48158.4 1754.85   5
  -5  -1  -4 43024.8 1286.47   4
  -5  -1  -3 43246.2 1575.94   5
  -5  -1  -3 41228.2 1138.25   4
  -5  -1  -2 17619.0 921.650   5
  -5  -1  -1 5376.57 482.060   5
  -5  -1   0 567.424 160.341   5
  -5  -1   0 368.667 77.3602   4
  -5  -1   1 4471.62 253.726   4
  -5  -1   1 4577.49 414.059   5
  -5  -1   2 8190.92 380.195   4
  -5  -1   2 8619.15 574.677   5
  -5  -1   3 1176.68 159.318   4
  -5  -1   4 79823.0 1767.63   4
  -5  -1   5 131309. 2674.79   4
  -5  -1   6 144382. 3010.99   4
  -5  -1   7 68502.8 1451.40   1
  -5  -1   7 71550.4 2002.60   4
  -5  -1   8 21539.6 780.125   1
  -5  -1   8 22057.0 1103.91   4
  -5  -1   9 8013.27 706.473   4
  -5  -1   9 7337.50 488.460   1
  -5  -1  10 1128.38 273.235   4
  -5  -1  10 1007.08 194.019   1
  -5  -1  11 1503.20 361.326   4
  -5   0 -10 179.174 190.347   5
  -5   0  -9 1081.13 339.116   5
  -5   0  -8 238.977 193.625   5
  -5   0  -7 798.357 268.818   5
  -5   0  -6 18944.1 1185.62   5
  -5   0  -5 64291.1 2148.84   5
  -5   0  -5 53408.5 1511.48   4
  -5   0  -4 65944.1 2086.50   5
  -5   0  -4 60879.5 1486.21   4
  -5   0  -3 86678.1 2370.14   5
  -5   0  -3 88408.9 1727.66   4
  -5   0  -2 22930.1 616.067   4
  -5   0  -2 24494.9 1085.96   5
  -5   0  -1 41942.6 765.989   4
  -5   0  -1 45628.7 1441.96   5
  -5   0   0 1025.21 208.595   5
  -5   0   1 16328.4 421.132   4
  -5   0   1 17048.0 780.462   5
  -5   0   2 47585.2 1386.96   5
  -5   0   2 49139.2 1035.24   4
  -5   0   3 54228.5 1510.68   5
  -5   0   3 57868.7 1281.45   4
  -5   0   4 130993. 2486.79   4
  -5   0   5 172056. 3239.19   4
  -5   0   5 174492. 2979.03   1
  -5   0   6 97575.1 1994.67   1
  -5   0   6 99253.9 2319.77   4
  -5   0   7 30450.3 1017.76   1
  -5   0   7 29039.8 1202.22   4
  -5   0   8 1899.06 311.138   4
  -5   0   8 2296.83 282.959   1
  -5   0   9 437.186 157.372   4
  -5   0   9 360.929 141.292   1
  -5   0  10 169.122 97.2313   1
  -5   0  11 5935.76 578.360   1
  -5   1 -10 968.977 345.819   5
  -5   1  -9 54.7368 113.215   5
  -5   1  -8 1744.06 411.527   5
  -5   1  -7 9104.08 878.294   5
  -5   1  -6 47130.3 1925.43   5
  -5   1  -5 45011.3 1324.50   4
  -5   1  -5 55669.4 1966.35   5
  -5   1  -4 35870.8 1028.64   4
  -5   1  -4 39780.2 1558.45   5
  -5   1  -3 78978.7 1515.63   4
  -5   1  -3 79256.1 2225.48   5
  -5   1  -2 9259.00 650.466   5
  -5   1  -2 7706.11 272.424   4
  -5   1  -1 2823.39 338.550   5
  -5   1   0 1405.60 222.289   5
  -5   1   1 3447.39 330.304   5
  -5   1   2 38534.2 1157.64   5
  -5   1   3 24885.7 889.312   5
  -5   1   4 49566.0 1320.24   1
  -5   1   5 76716.9 1791.82   1
  -5   1   6 76906.0 1882.66   1
  -5   1   7 18560.2 862.777   1
  -5   1   8 7413.05 579.773   1
  -5   1   9 2236.70 345.044   1
  -5   1  10 1704.11 325.518   1
  -5   1  11 3469.03 474.895   1
  -5   1  12 2987.93 472.905   1
  -5   2 -10-22.0869 133.044   5
  -5   2  -9 362.015 225.972   5
  -5   2  -8 5097.09 702.470   5
  -5   2  -7 1041.48 304.484   5
  -5   2  -6 17943.4 1159.13   5
  -5   2  -5 39233.4 1625.36   5
  -5   2  -5 30634.5 1066.13   4
  -5   2  -4 19366.0 1074.78   5
  -5   2  -4 18988.4 719.837   4
  -5   2  -3 49440.7 1112.37   4
  -5   2  -3 49214.5 1679.65   5
  -5   2  -2 27092.4 1135.81   5
  -5   2  -1 9216.96 605.980   5
  -5   2   0 4402.12 389.075   5
  -5   2   1 15495.0 694.049   5
  -5   2   1 14284.0 776.888   6
  -5   2   2 16854.3 691.009   5
  -5   2   3 24679.8 823.614   5
  -5   2   4 72167.0 1808.93   1
  -5   2   5 16806.7 811.901   1
  -5   2   6 71536.3 1954.68   1
  -5   2   7 15784.5 880.349   1
  -5   2   8 8248.76 660.141   1
  -5   2   9 4303.33 512.223   1
  -5   2  10 758.035 218.314   1
  -5   2  11 899.420 269.248   1
  -5   2  12 3502.61 537.833   1
  -5   3 -10 2938.34 589.744   5
  -5   3  -9 106.601 100.734   5
  -5   3  -8 16384.0 1278.73   5
  -5   3  -7 8627.13 869.802   5
  -5   3  -6 41349.8 1835.58   5
  -5   3  -5 49539.4 1464.39   4
  -5   3  -5 56852.5 2050.05   5
  -5   3  -4 53454.9 1880.70   5
  -5   3  -4 50131.4 1354.98   4
  -5   3  -3 68189.0 2069.31   5
  -5   3  -2 36148.0 1361.38   5
  -5   3  -1 13732.2 755.757   5
  -5   3   0 534.382 146.216   5
  -5   3   1 33955.3 1078.00   5
  -5   3   1 33821.6 1248.47   6
  -5   3   2 3946.21 310.877   5
  -5   3   3 1396.07 173.684   5
  -5   3   3 1505.67 250.959   1
  -5   3   4 20175.5 940.472   1
  -5   3   4 20648.2 673.785   5
  -5   3   5 9675.38 667.074   1
  -5   3   6 41840.0 1524.40   1
  -5   3   7 10173.5 764.712   1
  -5   3   8 4572.16 530.778   1
  -5   3   9 2008.48 374.299   1
  -5   3  10 2334.19 427.518   1
  -5   3  11 9209.98 894.189   1
  -5   3  12 9968.67 975.746   1
  -5   3  13 9012.19 976.841   1
  -5   4 -10 1892.20 485.480   5
  -5   4  -9-41.2342 158.686   5
  -5   4  -8 11807.7 1090.88   5
  -5   4  -7 9121.03 906.491   5
  -5   4  -6 27065.8 1484.74   5
  -5   4  -5 15337.2 817.318   4
  -5   4  -5 19422.4 1179.70   5
  -5   4  -4 30455.4 1414.94   5
  -5   4  -3 17095.4 989.729   5
  -5   4  -2 729.983 226.893   5
  -5   4  -1 55982.4 1678.83   5
  -5   4   0 29164.0 1081.43   5
  -5   4   1 181265. 3261.07   5
  -5   4   1 175471. 3540.70   6
  -5   4   2 42153.0 1144.63   5
  -5   4   2 44952.0 1491.33   1
  -5   4   3 27791.1 804.966   5
  -5   4   3 26834.8 1154.04   1
  -5   4   4 44056.9 990.568   5
  -5   4   4 44426.9 1562.72   1
  -5   4   5 46002.5 1661.85   1
  -5   4   6 43663.8 1664.06   1
  -5   4   7 14078.7 959.273   1
  -5   4   8 4977.94 606.573   1
  -5   4   9-20.1171 115.838   1
  -5   4  10 1430.10 343.432   1
  -5   4  11 8911.46 938.540   1
  -5   4  12 649.935 243.866   1
  -5   4  13 6778.09 883.797   1
  -5   5  -9 948.464 341.327   5
  -5   5  -8 11623.2 1105.03   5
  -5   5  -7 10305.3 994.465   5
  -5   5  -6 28300.6 1579.64   5
  -5   5  -5 39613.2 1784.47   5
  -5   5  -4 22723.3 1254.45   5
  -5   5  -3 6423.95 613.999   5
  -5   5  -2 3730.50 446.999   5
  -5   5  -1 36260.6 1340.13   5
  -5   5   0 16850.2 822.624   5
  -5   5   1 63426.2 1604.83   5
  -5   5   1 58829.5 1754.26   6
  -5   5   2 25438.6 852.016   5
  -5   5   2 25176.7 1164.57   1
  -5   5   3 10791.8 463.051   5
  -5   5   3 11028.9 767.047   1
  -5   5   4 29051.3 1314.66   1
  -5   5   4 25569.8 635.898   5
  -5   5   5 34058.0 1500.62   1
  -5   5   6 48854.3 1890.52   1
  -5   5   7 19496.6 1198.55   1
  -5   5   8 83.6659 99.1732   1
  -5   5   9-28.0786 104.301   1
  -5   5  10 5034.08 708.239   1
  -5   5  11 9636.62 1024.57   1
  -5   5  12 5803.14 828.035   1
  -5   5  13 11633.4 1238.50   1
  -5   5  14 3819.73 734.175   1
  -5   6  -9 3288.40 640.383   5
  -5   6  -8 14334.5 1267.06   5
  -5   6  -7 31151.3 1767.95   5
  -5   6  -6 23148.0 1468.35   5
  -5   6  -5 24215.7 1427.23   5
  -5   6  -4 8693.77 790.283   5
  -5   6  -3 4518.13 543.280   5
  -5   6  -2 3749.47 476.596   5
  -5   6  -1 39019.2 1450.57   5
  -5   6   0 17969.9 878.856   5
  -5   6   1 56133.4 1894.45   1
  -5   6   1 56565.2 1546.55   5
  -5   6   1 53910.2 1666.19   6
  -5   6   2 29848.0 1347.46   1
  -5   6   2 28774.0 948.615   5
  -5   6   3 32088.9 887.595   5
  -5   6   3 33247.1 1454.03   1
  -5   6   4 49061.8 933.053   5
  -5   6   4 57043.5 2009.68   1
  -5   6   5 77733.5 2529.45   1
  -5   6   6 59527.6 2230.74   1
  -5   6   7 32190.7 1659.20   1
  -5   6   8-22.5419 126.715   1
  -5   6   9 785.763 312.939   1
  -5   6  10 6045.30 797.814   1
  -5   6  11 8118.22 977.306   1
  -5   6  12 6573.59 936.638   1
  -5   6  13 9613.21 1161.67   1
  -5   7  -9 6442.60 895.869   5
  -5   7  -8 12938.7 1220.50   5
  -5   7  -7 13623.9 1218.50   5
  -5   7  -6 8564.89 913.549   5
  -5   7  -5 17310.6 1228.22   5
  -5   7  -4 3290.19 506.775   5
  -5   7  -3 5509.86 616.455   5
  -5   7  -2 2165.60 366.107   5
  -5   7  -1 6987.57 616.428   5
  -5   7   0 14439.6 821.900   5
  -5   7   1 14811.6 981.699   1
  -5   7   1 15650.8 781.546   5
  -5   7   2 16119.5 1041.93   1
  -5   7   2 16055.9 717.960   5
  -5   7   3 26464.8 1382.75   1
  -5   7   3 27611.2 835.189   5
  -5   7   4 39138.7 1732.95   1
  -5   7   4 31620.6 667.121   5
  -5   7   5 24239.5 1395.55   1
  -5   7   6 9314.06 892.932   1
  -5   7   7 6458.02 782.454   1
  -5   7   8 7652.35 857.278   1
  -5   7   9 4216.34 686.767   1
  -5   7  10 6720.08 879.438   1
  -5   7  11 8079.54 1034.60   1
  -5   7  12 6936.64 983.746   1
  -5   8  -8 19093.2 1551.24   5
  -5   8  -7 24393.4 1676.94   5
  -5   8  -6 21797.5 1506.07   5
  -5   8  -5 27480.7 1624.52   5
  -5   8  -4 17852.0 1222.26   5
  -5   8  -3 9138.30 840.147   5
  -5   8  -2 2579.90 413.557   5
  -5   8  -1 150.746 124.485   5
  -5   8   0 326.645 157.997   5
  -5   8   1 8029.93 596.811   5
  -5   8   1 7176.83 722.150   1
  -5   8   2 7023.88 489.517   5
  -5   8   2 6951.33 722.834   1
  -5   8   3 784.115 246.022   1
  -5   8   3 608.226 121.756   5
  -5   8   4 6738.74 268.699   5
  -5   8   4 9885.76 904.801   1
  -5   8   5 10087.3 949.030   1
  -5   8   6 3069.85 536.654   1
  -5   8   7 733.582 252.337   1
  -5   8   8 3607.50 630.252   1
  -5   8   9 5204.77 790.753   1
  -5   8  10 9077.59 1083.21   1
  -5   8  11 6225.81 920.011   1
  -5   9  -8 10638.6 1177.48   5
  -5   9  -7 6586.15 877.595   5
  -5   9  -6 1738.44 423.453   5
  -5   9  -5 2408.03 521.257   5
  -5   9  -4 683.429 255.081   5
  -5   9  -3-176.579 196.647   5
  -5   9  -2 7195.83 729.018   5
  -5   9  -1 24473.9 1278.96   5
  -5   9   0 32906.8 1404.22   5
  -5   9   0 30972.2 1610.03   1
  -5   9   1 29273.2 1574.15   1
  -5   9   1 29391.7 1229.81   5
  -5   9   2 28255.1 1094.10   5
  -5   9   2 28156.2 1566.45   1
  -5   9   3 15392.9 1155.53   1
  -5   9   3 15328.5 670.589   5
  -5   9   4 13938.5 1126.21   1
  -5   9   5 9811.41 986.442   1
  -5   9   6 4195.86 677.954   1
  -5   9   7-86.5126 207.375   1
  -5   9   8 5170.69 795.509   1
  -5   9   9 4446.98 767.611   1
  -5   9  10 5340.26 887.325   1
  -5  10  -7 2781.17 599.567   5
  -5  10  -6 1695.15 431.541   5
  -5  10  -5 497.106 210.981   5
  -5  10  -4-155.229 168.690   5
  -5  10  -3 221.016 117.928   5
  -5  10  -2 11579.3 973.217   5
  -5  10  -1 17589.8 1132.05   5
  -5  10   0 13316.8 922.271   5
  -5  10   0 13542.8 1109.24   1
  -5  10   1 13046.4 1095.37   1
  -5  10   1 13399.5 856.519   5
  -5  10   2 13346.8 770.376   5
  -5  10   2 14052.8 1153.49   1
  -5  10   3 9230.63 960.307   1
  -5  10   4 13574.6 1187.26   1
  -5  10   5 16240.0 1339.19   1
  -5  10   6 9405.90 1052.74   1
  -5  10   7 1154.17 371.944   1
  -5  10   8 1703.11 463.419   1
  -5  11  -6 3280.29 625.194   5
  -5  11  -5 2684.01 559.329   5
  -5  11  -4 245.563 208.073   5
  -5  11  -3 158.123 135.699   5
  -5  11  -2 7607.64 811.092   5
  -5  11  -1 13871.7 1037.64   5
  -5  11   0 19772.0 1418.51   1
  -5  11   0 18015.3 1122.10   5
  -5  11   1 19905.4 1107.94   5
  -5  11   1 21525.0 1500.40   1
  -5  11   2 25782.3 1676.43   1
  -5  11   3 24526.8 1662.43   1
  -5  11   4 24586.4 1695.54   1
  -5  11   5 15276.2 1371.02   1
  -5  11   6 5724.14 854.284   1
  -5  11   7 82.3561 234.455   1
  -5  12  -5 4556.56 749.687   5
  -5  12  -4 1475.28 432.161   5
  -5  12  -3-87.5412 107.831   5
  -5  12  -2 4649.09 663.291   5
  -5  12  -1 9472.48 892.428   5
  -5  12   0 4213.62 589.773   5
  -5  12   0 11544.8 1137.82   1
  -5  12   1 9723.23 1058.64   1
  -5  12   2 14295.1 1308.59   1
  -5  12   3 13384.5 1287.26   1
  -5  12   4 10533.1 1160.59   1
  -5  12   5 925.128 330.495   1
  -5  13  -4 945.558 344.717   5
  -5  13  -3-91.1547 99.3253   5
  -5  13  -2 2522.33 516.630   5
  -5  13   1 6666.50 917.281   1
  -5  13   2 4206.57 749.247   1
  -5  13   3 1340.91 420.472   1
  -4 -12   0 2244.38 521.646   4
  -4 -12   1 223.624 121.348   4
  -4 -12   2 2474.88 522.617   4
  -4 -12   3 4645.54 721.008   4
  -4 -12   4 14517.5 1263.66   4
  -4 -12   5 14073.4 1233.36   4
  -4 -11   1-37.2645 123.140   4
  -4 -11   2 5657.73 757.910   4
  -4 -11   3 12189.9 1097.26   4
  -4 -11   4 15487.4 1238.93   4
  -4 -11   5 16702.0 1281.26   4
  -4 -11   6 17802.7 1341.45   4
  -4 -11   7 18828.9 1382.86   4
  -4 -11   8 13313.0 1161.76   4
  -4 -10   1-79.0806 134.740   4
  -4 -10   2 841.023 253.014   4
  -4 -10   3 6147.98 738.505   4
  -4 -10   4 8069.95 831.269   4
  -4 -10   5 11955.4 1021.00   4
  -4 -10   6 20057.6 1346.35   4
  -4 -10   7 16214.5 1205.70   4
  -4 -10   8 11866.1 1044.87   4
  -4 -10   9 6127.27 776.350   4
  -4  -9   1 5298.72 651.765   4
  -4  -9   2-19.7079 103.705   4
  -4  -9   3 2493.78 439.831   4
  -4  -9   4 6271.16 693.462   4
  -4  -9   5 7999.79 787.804   4
  -4  -9   6 16581.3 1147.12   4
  -4  -9   7 12107.4 991.552   4
  -4  -9   8 6789.15 757.170   4
  -4  -9   9 2932.97 522.547   4
  -4  -9  10 1079.38 303.696   4
  -4  -8   1 2930.07 453.241   4
  -4  -8   2-92.0273 126.353   4
  -4  -8   3 5717.40 628.917   4
  -4  -8   4 15479.3 1036.14   4
  -4  -8   5 4530.20 563.792   4
  -4  -8   6 23873.3 1314.62   4
  -4  -8   7 37701.5 1703.89   4
  -4  -8   8 11338.1 932.048   4
  -4  -8   9 8180.73 824.058   4
  -4  -8  10 1348.36 359.147   4
  -4  -8  11 463.146 256.794   4
  -4  -7  -7 5228.87 705.633   5
  -4  -7  -6 3487.38 549.506   5
  -4  -7  -5 3739.43 557.868   5
  -4  -7  -4 5871.80 680.840   5
  -4  -7   2 40807.2 1647.56   4
  -4  -7   3 33178.0 1447.61   4
  -4  -7   4 79925.4 2385.90   4
  -4  -7   5 88253.8 2540.03   4
  -4  -7   6 49914.9 1833.09   4
  -4  -7   7 38137.1 1633.24   4
  -4  -7   8 22509.2 1259.38   4
  -4  -7   9 3645.76 518.672   4
  -4  -7  10 469.866 234.375   4
  -4  -7  11 3597.36 571.020   4
  -4  -7  12 5204.43 733.394   4
  -4  -6  -7 8724.64 881.790   5
  -4  -6  -6 12954.5 1046.52   5
  -4  -6  -5 14502.2 1074.09   5
  -4  -6  -4 15142.3 1067.36   5
  -4  -6  -3 15656.7 1044.66   5
  -4  -6  -2 16066.0 1033.25   5
  -4  -6   2 128221. 3059.22   4
  -4  -6   3 103389. 2637.70   4
  -4  -6   4 72103.8 2118.63   4
  -4  -6   5 64277.9 1994.51   4
  -4  -6   6 74365.9 2208.70   4
  -4  -6   7 42852.3 1657.02   4
  -4  -6   8 3273.23 455.483   4
  -4  -6   9 2910.13 456.225   4
  -4  -6  10 1228.22 286.960   4
  -4  -6  11 15157.0 1145.94   4
  -4  -6  12 6485.11 795.495   4
  -4  -5  -8 10666.1 994.570   5
  -4  -5  -7 19139.1 1283.67   5
  -4  -5  -6 16455.8 1138.79   5
  -4  -5  -5 30293.7 1505.54   5
  -4  -5  -4 26894.0 1363.87   5
  -4  -5  -3 29415.1 1392.93   5
  -4  -5  -2 35428.8 1509.10   5
  -4  -5  -1 1642.08 308.477   5
  -4  -5   2 43587.6 1475.41   4
  -4  -5   3 20528.1 960.762   4
  -4  -5   4 17723.3 896.143   4
  -4  -5   5 16935.7 894.744   4
  -4  -5   6 10817.1 739.276   4
  -4  -5   7 24264.3 1175.34   4
  -4  -5   8 2830.06 432.621   4
  -4  -5   9 776.528 243.617   4
  -4  -5  10 9972.51 857.029   4
  -4  -5  11 15552.7 1134.48   4
  -4  -5  12 10268.5 961.367   4
  -4  -5  13 10515.3 1032.93   4
  -4  -4  -9 4529.70 661.753   5
  -4  -4  -8 9662.44 911.647   5
  -4  -4  -7 25431.4 1437.51   5
  -4  -4  -6 19150.0 1184.34   5
  -4  -4  -5 22651.0 1235.88   5
  -4  -4  -4 12474.8 872.042   5
  -4  -4  -3 37431.8 1505.66   5
  -4  -4  -2 28618.3 1260.56   5
  -4  -4  -1 1926.87 301.175   5
  -4  -4   0 10634.7 572.958   3
  -4  -4   0 11014.3 728.814   5
  -4  -4   1 28392.3 1016.12   3
  -4  -4   1 29987.2 1109.63   4
  -4  -4   2 34828.6 1192.99   4
  -4  -4   3 28214.2 1055.83   4
  -4  -4   4 62822.1 1724.16   4
  -4  -4   5 80905.6 2066.23   4
  -4  -4   6 37342.2 1365.22   4
  -4  -4   7 57616.1 1822.59   4
  -4  -4   8 36.5701 99.8684   4
  -4  -4   9 1723.99 342.106   4
  -4  -4  10 1450.56 319.275   4
  -4  -4  11 9130.52 847.400   4
  -4  -4  12 10336.4 961.311   4
  -4  -4  13 7012.27 842.909   4
  -4  -3 -10 229.109 137.357   5
  -4  -3  -9 5289.50 696.599   5
  -4  -3  -8 8134.90 825.672   5
  -4  -3  -7 16877.0 1130.40   5
  -4  -3  -6 8577.86 769.547   5
  -4  -3  -5 19300.3 1108.25   5
  -4  -3  -4 16203.9 952.649   5
  -4  -3  -3 24788.5 1139.41   5
  -4  -3  -2 29660.5 1221.16   5
  -4  -3  -2 28147.2 1162.61   6
  -4  -3  -2 29716.7 810.785   3
  -4  -3  -1 18169.2 906.038   5
  -4  -3  -1 18064.0 640.181   3
  -4  -3   0 904.443 141.951   3
  -4  -3   0 556.528 161.405   5
  -4  -3   1 21322.4 791.858   3
  -4  -3   1 19672.0 928.867   5
  -4  -3   2 52559.0 1382.24   4
  -4  -3   2 52918.9 1404.26   3
  -4  -3   3 6107.69 449.110   3
  -4  -3   3 5845.16 418.913   4
  -4  -3   4 31905.9 1075.81   4
  -4  -3   5 20663.9 888.950   4
  -4  -3   6 7410.51 550.637   4
  -4  -3   7 10100.0 682.513   4
  -4  -3   8 467.648 174.718   4
  -4  -3   9 4017.36 495.627   4
  -4  -3   9 2778.91 224.725   1
  -4  -3  10 2340.85 254.584   1
  -4  -3  10 6703.42 678.538   4
  -4  -3  11 7363.37 762.372   4
  -4  -3  12 9278.14 906.822   4
  -4  -3  13 9331.65 965.577   4
  -4  -2 -11 399.978 216.875   5
  -4  -2 -10 94.6409 106.934   5
  -4  -2  -9 3567.27 573.129   5
  -4  -2  -8 12141.0 999.902   5
  -4  -2  -7 16678.2 1115.87   5
  -4  -2  -6 11716.5 876.328   5
  -4  -2  -5 9073.17 728.485   5
  -4  -2  -4 14318.5 874.289   5
  -4  -2  -3 33392.2 631.122   3
  -4  -2  -3 40336.8 1416.41   5
  -4  -2  -2 21044.0 980.090   6
  -4  -2  -2 21518.7 972.925   5
  -4  -2  -2 21715.5 539.869   3
  -4  -2  -1 961.492 127.210   3
  -4  -2  -1 1163.42 224.253   5
  -4  -2  -1 990.273 210.487   6
  -4  -2   0 58616.3 1635.19   5
  -4  -2   0 61011.7 1281.70   3
  -4  -2   1 124005. 2279.62   3
  -4  -2   1 125663. 2287.54   4
  -4  -2   1 124839. 2638.26   5
  -4  -2   2 205067. 3485.62   3
  -4  -2   2 205203. 3386.11   4
  -4  -2   3 47290.6 1309.23   3
  -4  -2   3 46173.0 1203.04   4
  -4  -2   4 100181. 2100.81   4
  -4  -2   5 71130.5 1770.04   4
  -4  -2   6 19575.5 895.283   4
  -4  -2   7 7424.21 328.033   1
  -4  -2   7 8201.66 617.556   4
  -4  -2   8 1537.99 179.457   1
  -4  -2   8 2395.24 352.007   4
  -4  -2   9 381.347 113.099   1
  -4  -2   9 803.200 227.695   4
  -4  -2  10 449.202 139.662   1
  -4  -2  10 558.598 202.598   4
  -4  -2  11 7352.40 771.791   4
  -4  -2  12 7842.40 831.589   4
  -4  -1 -11 161.923 146.432   5
  -4  -1 -10 444.514 248.740   5
  -4  -1  -9 10284.8 982.822   5
  -4  -1  -8 31235.0 1633.98   5
  -4  -1  -7 34521.9 1649.26   5
  -4  -1  -6 20930.5 1177.09   5
  -4  -1  -5 11412.5 811.820   5
  -4  -1  -4 9343.92 549.811   4
  -4  -1  -4 9790.50 700.982   5
  -4  -1  -3 28326.2 1155.95   5
  -4  -1  -3 27753.9 905.353   4
  -4  -1  -2 5105.67 470.101   5
  -4  -1  -2 5465.90 498.367   6
  -4  -1  -1 65561.2 1716.69   5
  -4  -1  -1 65736.3 1799.26   6
  -4  -1   0 239426. 4272.64   6
  -4  -1   0 243905. 4175.32   5
  -4  -1   1 325850. 4761.40   4
  -4  -1   1 330586. 5286.84   5
  -4  -1   2 303137. 4483.90   4
  -4  -1   2 296418. 4912.37   5
  -4  -1   3 108617. 2036.72   4
  -4  -1   4 43751.3 1178.46   4
  -4  -1   5 34968.2 1129.11   4
  -4  -1   5 34123.7 782.633   1
  -4  -1   6 17968.4 602.775   1
  -4  -1   6 18600.6 857.441   4
  -4  -1   7 2950.63 369.697   4
  -4  -1   7 2635.04 247.158   1
  -4  -1   8 60.8230 50.5118   1
  -4  -1   8 137.950 124.648   4
  -4  -1   9 848.978 235.666   4
  -4  -1   9 765.810 168.653   1
  -4  -1  10 4953.30 585.554   4
  -4  -1  10 5195.07 488.260   1
  -4  -1  11 38588.7 1524.63   1
  -4   0 -11 3654.19 636.370   5
  -4   0 -10 13605.6 1199.31   5
  -4   0  -9 27754.6 1613.43   5
  -4   0  -8 44266.7 1963.82   5
  -4   0  -7 26256.7 1408.07   5
  -4   0  -6 35280.3 1558.68   5
  -4   0  -5 14126.1 897.768   5
  -4   0  -5 13084.9 682.130   4
  -4   0  -4 5502.46 515.017   5
  -4   0  -4 4878.14 368.125   4
  -4   0  -3 28423.0 835.092   4
  -4   0  -3 27642.4 1125.68   5
  -4   0  -2 363.848 117.814   5
  -4   0  -2 368.480 70.4141   4
  -4   0  -1 44041.1 812.518   4
  -4   0  -1 43240.4 1396.87   6
  -4   0  -1 43952.4 1307.77   5
  -4   0   0 130534. 2734.03   6
  -4   0   0 136818. 2610.34   5
  -4   0   1 184655. 3242.71   5
  -4   0   1 185731. 2697.09   4
  -4   0   2 86071.6 1542.36   4
  -4   0   2 84613.2 1830.79   5
  -4   0   3 20737.6 676.476   4
  -4   0   4 4184.45 280.197   1
  -4   0   4 4120.81 320.905   4
  -4   0   5 1454.18 211.380   4
  -4   0   5 698.646 125.087   1
  -4   0   6 313.906 116.235   4
  -4   0   6 190.646 74.2217   1
  -4   0   7 869.360 201.075   4
  -4   0   7 795.107 158.838   1
  -4   0   8 3999.80 467.428   4
  -4   0   8 4397.27 416.759   1
  -4   0   9 24485.5 1101.29   1
  -4   0  10 19414.3 1055.93   1
  -4   0  11 45702.8 1787.58   1
  -4   0  12 30129.5 1514.17   1
  -4   1 -11 819.045 318.285   5
  -4   1 -10 4453.29 700.694   5
  -4   1  -9 5790.82 747.982   5
  -4   1  -8 42366.0 1917.50   5
  -4   1  -7 5634.51 633.153   5
  -4   1  -6 15467.3 1013.11   5
  -4   1  -5 6598.80 610.622   5
  -4   1  -5 5513.68 424.043   4
  -4   1  -4 1385.32 272.307   5
  -4   1  -4 1702.27 206.755   4
  -4   1  -3 4467.18 448.786   5
  -4   1  -3 5263.73 307.036   4
  -4   1  -2 2138.03 149.397   4
  -4   1  -2 1936.98 267.256   5
  -4   1  -1 102259. 2237.41   5
  -4   1  -1 101915. 2372.47   6
  -4   1   0 215346. 3698.49   5
  -4   1   0 218079. 3924.43   6
  -4   1   1 153994. 2744.05   5
  -4   1   2 64456.4 1437.85   5
  -4   1   3 35832.6 974.954   5
  -4   1   3 35454.0 1003.04   1
  -4   1   4 80635.5 1754.85   1
  -4   1   5 20481.0 808.235   1
  -4   1   6 60195.9 1623.73   1
  -4   1   7 951.882 190.156   1
  -4   1   8 2614.25 351.636   1
  -4   1   9 1274.69 275.335   1
  -4   1  10 9127.48 770.944   1
  -4   1  11 26922.3 1427.66   1
  -4   1  12 20182.6 1302.68   1
  -4   2 -11 4267.04 737.952   5
  -4   2 -10 10875.6 1089.08   5
  -4   2  -9 9223.97 947.787   5
  -4   2  -8 57250.8 2318.45   5
  -4   2  -7 17004.1 1155.48   5
  -4   2  -6 23906.3 1290.66   5
  -4   2  -5 11283.7 625.316   4
  -4   2  -5 14302.9 909.712   5
  -4   2  -4 15433.5 904.568   5
  -4   2  -4 16109.9 668.128   4
  -4   2  -3 9632.28 648.831   5
  -4   2  -3 9551.58 443.254   4
  -4   2  -2 4057.90 391.184   5
  -4   2  -2 3289.81 212.424   4
  -4   2  -1 13308.8 664.970   5
  -4   2  -1 13416.3 732.976   6
  -4   2   0 41540.4 1174.94   5
  -4   2   0 43517.6 1336.68   6
  -4   2   1 84595.8 1757.22   5
  -4   2   1 85476.7 1963.82   6
  -4   2   2 6858.81 366.537   5
  -4   2   2 7306.52 455.861   1
  -4   2   3 19407.1 785.796   1
  -4   2   3 18697.1 608.588   5
  -4   2   4 36860.9 1193.33   1
  -4   2   5 2618.29 318.660   1
  -4   2   6 235.295 131.197   1
  -4   2   7 12.6519 69.9368   1
  -4   2   8 3390.62 427.263   1
  -4   2   9 13342.9 926.904   1
  -4   2  10 12558.7 964.471   1
  -4   2  11 22071.3 1356.03   1
  -4   2  12 15085.7 1177.38   1
  -4   2  13 9535.76 991.241   1
  -4   3 -11 4118.08 739.333   5
  -4   3 -10 9346.94 1035.52   5
  -4   3  -9 11305.3 1062.91   5
  -4   3  -8 35109.5 1807.80   5
  -4   3  -7 21591.8 1316.85   5
  -4   3  -6 12612.2 946.036   5
  -4   3  -5 2108.95 364.490   5
  -4   3  -5 1714.25 253.360   4
  -4   3  -4 388.852 152.361   5
  -4   3  -4 228.479 84.0865   4
  -4   3  -3 586.427 124.647   4
  -4   3  -3 523.855 180.973   5
  -4   3  -2 7860.11 552.490   5
  -4   3  -1 47795.5 1397.12   5
  -4   3  -1 47784.0 1521.47   6
  -4   3   0 609.578 131.077   5
  -4   3   0 721.006 161.244   6
  -4   3   1 70510.1 1548.99   5
  -4   3   1 72568.4 1760.70   6
  -4   3   2 21175.0 659.857   5
  -4   3   2 20714.9 871.673   1
  -4   3   3 6387.10 300.616   5
  -4   3   3 5976.02 468.311   1
  -4   3   4 14548.3 793.092   1
  -4   3   5 6755.68 579.293   1
  -4   3   6 1432.58 269.187   1
  -4   3   7 1.64280 65.5886   1
  -4   3   8 757.603 214.426   1
  -4   3   9 234.177 114.537   1
  -4   3  10 10132.1 903.066   1
  -4   3  11 18898.7 1312.89   1
  -4   3  12 11214.1 1073.83   1
  -4   3  13 16722.1 1386.38   1
  -4   4 -11 4437.72 747.744   5
  -4   4 -10 10362.9 1120.18   5
  -4   4  -9 19565.5 1448.29   5
  -4   4  -8 37504.9 1916.62   5
  -4   4  -7 17713.5 1211.65   5
  -4   4  -6 736.350 277.456   5
  -4   4  -5 202.418 135.253   5
  -4   4  -5 79.5668 46.6122   4
  -4   4  -4 4670.14 513.494   5
  -4   4  -4 4048.13 383.879   4
  -4   4  -3-52.1471 92.5291   5
  -4   4  -2 5512.81 492.084   5
  -4   4  -1 97154.4 2368.63   6
  -4   4  -1 97704.1 2255.66   5
  -4   4   0 3354.83 325.078   5
  -4   4   0 2908.06 328.033   6
  -4   4   1 93571.6 2110.72   6
  -4   4   1 94360.7 1921.20   5
  -4   4   1 95064.4 2245.28   1
  -4   4   2 31499.7 1195.60   1
  -4   4   2 31792.1 849.773   5
  -4   4   3 75472.6 2036.29   1
  -4   4   3 75142.9 1345.11   5
  -4   4   4 39657.0 1453.95   1
  -4   4   5 1108.76 251.543   1
  -4   4   6 104.423 111.580   1
  -4   4   7 847.136 244.210   1
  -4   4   8 10869.6 871.919   1
  -4   4   9 5727.18 670.288   1
  -4   4  10 35927.6 1836.38   1
  -4   4  11 43102.0 2125.89   1
  -4   4  12 32982.8 1947.27   1
  -4   4  13 15848.4 1387.77   1
  -4   4  14 2026.61 530.488   1
  -4   5 -10 20386.3 1587.33   5
  -4   5  -9 18963.1 1448.64   5
  -4   5  -8 21134.2 1450.72   5
  -4   5  -7 8831.66 891.631   5
  -4   5  -6 182.328 132.082   5
  -4   5  -5 715.004 229.896   5
  -4   5  -4 18372.6 1075.58   5
  -4   5  -3 6861.83 610.840   5
  -4   5  -2 23261.0 1079.20   5
  -4   5  -1 80754.0 2066.16   5
  -4   5   0 84169.1 1971.58   5
  -4   5   0 78687.6 2013.83   6
  -4   5   1 140970. 2812.28   6
  -4   5   1 142696. 2668.51   5
  -4   5   1 140039. 3086.00   1
  -4   5   2 120614. 2818.65   1
  -4   5   2 119484. 2174.17   5
  -4   5   3 79725.7 1427.30   5
  -4   5   3 83066.7 2298.66   1
  -4   5   4 14082.1 891.754   1
  -4   5   5-4.82608 102.767   1
  -4   5   6 6226.26 644.208   1
  -4   5   7 3699.36 509.447   1
  -4   5   8 33629.9 1679.24   1
  -4   5   9 18227.2 1270.26   1
  -4   5  10 48580.1 2241.59   1
  -4   5  11 38144.2 2088.06   1
  -4   5  12 15664.3 1398.53   1
  -4   5  13 3787.85 715.569   1
  -4   6 -10 8316.08 1023.42   5
  -4   6  -9 13944.6 1280.30   5
  -4   6  -8 11020.1 1083.92   5
  -4   6  -7 1389.03 330.181   5
  -4   6  -6 659.595 239.301   5
  -4   6  -5-1.58085 124.449   5
  -4   6  -4 11366.3 898.339   5
  -4   6  -3 13903.2 924.842   5
  -4   6  -2 20028.5 1048.99   5
  -4   6  -1 82302.3 2184.78   5
  -4   6   0 79877.2 1995.23   5
  -4   6   0 76003.9 1979.50   6
  -4   6   0 75865.1 2187.59   1
  -4   6   1 100725. 2132.55   5
  -4   6   1 95681.2 2547.06   1
  -4   6   1 94214.4 2165.17   6
  -4   6   2 68365.0 1522.14   5
  -4   6   2 66109.0 2066.83   1
  -4   6   3 22069.5 1164.13   1
  -4   6   3 20418.5 597.501   5
  -4   6   4 10172.6 810.758   1
  -4   6   5 1958.43 379.289   1
  -4   6   6 10800.2 903.694   1
  -4   6   7 1607.71 374.128   1
  -4   6   8 20336.5 1368.79   1
  -4   6   9 11614.4 1081.68   1
  -4   6  10 20422.1 1506.16   1
  -4   6  11 18122.0 1484.18   1
  -4   6  12 6447.27 917.541   1
  -4   6  13 600.714 334.978   1
  -4   7  -9 14096.3 1340.37   5
  -4   7  -8 14497.2 1273.25   5
  -4   7  -7 8660.55 938.530   5
  -4   7  -6-103.877 209.610   5
  -4   7  -5-235.341 199.013   5
  -4   7   0 26912.9 1095.35   6
  -4   7   0 31411.8 1386.51   1
  -4   7   1 49749.1 1827.70   1
  -4   7   1 48126.6 1405.97   6
  -4   7   2 40435.0 1678.26   1
  -4   7   2 45085.6 1240.93   5
  -4   7   3 9333.59 801.822   1
  -4   7   3 10438.2 448.757   5
  -4   7   4 9482.16 825.045   1
  -4   7   5 1995.06 391.476   1
  -4   7   6 5044.75 657.803   1
  -4   7   7 3814.94 591.253   1
  -4   7   8 10389.7 1009.26   1
  -4   7   9 11003.9 1110.27   1
  -4   7  10 15116.2 1361.36   1
  -4   7  11 11161.8 1208.71   1
  -4   7  12 2768.12 627.231   1
  -4   8  -9 8920.44 1069.47   5
  -4   8  -8 6920.71 903.156   5
  -4   8  -7 5812.48 793.137   5
  -4   8  -6 627.919 250.005   5
  -4   8   0 4346.21 427.527   6
  -4   8   0 4859.88 576.504   1
  -4   8   1 7990.10 743.429   1
  -4   8   1 6658.48 479.241   6
  -4   8   2 17843.9 1145.80   1
  -4   8   3 22.2950 75.0007   1
  -4   8   3 177.499 73.4089   5
  -4   8   4 1502.44 108.543   5
  -4   8   4 1325.09 330.166   1
  -4   8   4 1255.45 101.794   5
  -4   8   5 4438.10 625.883   1
  -4   8   6 7117.86 805.193   1
  -4   8   7 7625.62 884.342   1
  -4   8   8 13376.3 1223.47   1
  -4   8   9 10923.8 1170.88   1
  -4   8  10 13198.0 1331.20   1
  -4   8  11 9912.18 1188.03   1
  -4   9  -8 3287.73 644.400   5
  -4   9  -7 1261.02 368.506   5
  -4   9   0 11103.5 917.722   1
  -4   9   0 9243.47 631.055   6
  -4   9   1 14047.6 692.136   6
  -4   9   1 17910.0 1197.05   1
  -4   9   2 24781.9 1435.67   1
  -4   9   3 13349.2 624.606   5
  -4   9   3 13510.9 1082.46   1
  -4   9   4 611.532 215.500   1
  -4   9   5 4749.33 658.510   1
  -4   9   6 9924.31 1029.80   1
  -4   9   7 7913.05 938.818   1
  -4   9   8 17581.6 1484.01   1
  -4   9   9 10757.4 1207.17   1
  -4   9  10 9529.40 1196.39   1
  -4  10  -8 2642.22 601.550   5
  -4  10  -7 134.233 140.079   5
  -4  10  -1 43011.3 1965.42   1
  -4  10   0 60354.3 2390.19   1
  -4  10   1 60732.1 2419.80   1
  -4  10   2 45287.9 2104.53   1
  -4  10   3 7335.38 825.011   1
  -4  10   4 339.808 164.105   1
  -4  10   5 9362.62 1007.07   1
  -4  10   6 11461.4 1160.83   1
  -4  10   7 10976.3 1175.59   1
  -4  10   8 10521.7 1193.51   1
  -4  11  -1 24164.6 1524.09   1
  -4  11   0 31470.8 1773.68   1
  -4  11   1 28367.3 1715.23   1
  -4  11   2 5750.96 775.052   1
  -4  11   3 3220.78 576.137   1
  -4  11   4 14282.4 1291.28   1
  -4  11   5 27349.9 1851.49   1
  -4  11   6 12104.0 1262.52   1
  -4  11   7 10848.2 1226.87   1
  -4  12  -1 19376.1 1458.07   1
  -4  12   0 12447.2 1172.39   1
  -4  12   1 11175.0 1119.50   1
  -4  12   2 1392.51 405.707   1
  -4  12   3 400.262 174.530   1
  -4  12   4 5137.62 819.199   1
  -4  12   5 8227.45 1051.04   1
  -4  13   0 1370.30 424.677   1
  -4  13   1 1494.89 443.473   1
  -4  13   2 632.377 336.497   1
  -4  13   3 6499.99 945.779   1
  -4  14   0 2782.31 620.789   1
  -3 -12   1 18757.0 1463.09   4
  -3 -12   2 23582.4 1624.17   4
  -3 -12   3 19088.9 1454.46   4
  -3 -12   4 20273.3 1485.17   4
  -3 -12   5 17956.4 1397.04   4
  -3 -12   6 13676.7 1207.13   4
  -3 -11   1 17657.2 1358.62   4
  -3 -11   2 25344.5 1602.64   4
  -3 -11   3 25463.5 1585.74   4
  -3 -11   4 13887.0 1153.76   4
  -3 -11   5 10394.4 996.270   4
  -3 -11   6 9652.59 964.427   4
  -3 -11   7 4065.01 624.067   4
  -3 -11   8 371.836 221.459   4
  -3 -10   1 10516.3 970.320   4
  -3 -10   2 17525.8 1250.74   4
  -3 -10   3 21518.9 1352.94   4
  -3 -10   4 17673.2 1231.71   4
  -3 -10   5 10600.4 935.244   4
  -3 -10   6 16302.5 1185.39   4
  -3 -10   7 5790.63 695.045   4
  -3 -10   8 40.0107 135.497   4
  -3 -10   9 1131.09 325.606   4
  -3  -9   2 12479.0 982.452   4
  -3  -9   3 12161.8 956.123   4
  -3  -9   4 33541.8 1619.47   4
  -3  -9   5 17862.6 1163.55   4
  -3  -9   6 12361.7 954.983   4
  -3  -9   7 5140.08 634.289   4
  -3  -9   8 279.277 183.634   4
  -3  -9   9 4170.31 604.894   4
  -3  -9  10 10703.8 995.931   4
  -3  -8   2 39585.1 1702.31   4
  -3  -8   3 24936.3 1300.49   4
  -3  -8   4 16052.8 1037.49   4
  -3  -8   5 10026.8 818.295   4
  -3  -8   6 3865.90 507.094   4
  -3  -8   7 287.332 140.112   4
  -3  -8   8 4968.81 606.802   4
  -3  -8   9 10111.6 893.033   4
  -3  -8  10 14323.3 1123.83   4
  -3  -8  11 15232.5 1196.41   4
  -3  -7  -6 3158.51 485.950   5
  -3  -7  -5 281.118 131.963   5
  -3  -7   2 105123. 2817.07   4
  -3  -7   3 77947.8 2316.10   4
  -3  -7   4 54609.1 1877.83   4
  -3  -7   5 20695.3 1112.90   4
  -3  -7   6 2910.27 418.109   4
  -3  -7   7 193.122 130.504   4
  -3  -7   8 5947.78 631.189   4
  -3  -7   9 4321.48 571.491   4
  -3  -7  10 8052.53 798.330   4
  -3  -7  11 12165.0 1035.42   4
  -3  -7  12 4414.41 663.625   4
  -3  -6  -7 12324.4 975.799   5
  -3  -6  -6 4357.24 553.174   5
  -3  -6  -5 6250.05 641.288   5
  -3  -6  -4 176.003 119.241   5
  -3  -6  -3 1108.51 260.746   5
  -3  -6   2 65505.0 1980.09   4
  -3  -6   3 37621.8 1427.11   4
  -3  -6   4 14910.6 854.305   4
  -3  -6   5 716.904 194.377   4
  -3  -6   6 5643.33 540.507   4
  -3  -6   7 934.279 261.658   4
  -3  -6   8 22414.9 1197.75   4
  -3  -6   9 2935.86 428.897   4
  -3  -6  10 17884.7 1167.54   4
  -3  -6  11 18442.2 1269.65   4
  -3  -6  12 10584.9 1011.68   4
  -3  -5  -8 13500.8 1033.58   5
  -3  -5  -7 14546.3 1030.49   5
  -3  -5  -6 3134.03 442.717   5
  -3  -5  -5 5591.25 579.051   5
  -3  -5  -4 103.374 45.0307   6
  -3  -5  -4-62.0438 87.0624   5
  -3  -5  -3-68.4450 104.394   5
  -3  -5  -2 12453.0 786.774   5
  -3  -5   2 105521. 2484.09   4
  -3  -5   3 62886.2 1775.24   4
  -3  -5   4 19568.8 934.972   4
  -3  -5   5-1.43800 104.934   4
  -3  -5   6 12516.5 766.886   4
  -3  -5   7 762.947 201.176   4
  -3  -5   8 23999.0 1196.55   4
  -3  -5   9 2965.97 221.438   1
  -3  -5   9 9436.62 757.281   4
  -3  -5  10 22187.9 1285.28   4
  -3  -5  11 31071.3 1621.47   4
  -3  -5  12 17539.9 1271.91   4
  -3  -5  13 8010.21 903.002   4
  -3  -4  -9 10764.8 939.426   5
  -3  -4  -8 14970.2 1061.35   5
  -3  -4  -7 13612.2 959.831   5
  -3  -4  -6 2318.81 373.845   5
  -3  -4  -5 4547.33 502.675   5
  -3  -4  -4 5388.08 511.096   5
  -3  -4  -4 4635.63 442.998   6
  -3  -4  -3 3528.45 363.495   6
  -3  -4  -3 3700.24 401.764   5
  -3  -4  -2 2095.74 300.338   5
  -3  -4  -1 42643.4 1417.51   5
  -3  -4   2 79142.3 1906.11   3
  -3  -4   2 78291.2 1910.41   4
  -3  -4   3 976.375 181.379   4
  -3  -4   4 8201.31 540.645   4
  -3  -4   5 1544.10 246.287   4
  -3  -4   6 23320.5 1022.39   4
  -3  -4   7 1416.78 253.987   4
  -3  -4   8 2499.73 195.195   1
  -3  -4   8 2584.41 367.023   4
  -3  -4   8 2000.39 171.260   1
  -3  -4   9 7910.76 704.308   4
  -3  -4   9 6948.33 404.899   1
  -3  -4  10 23203.5 1258.89   4
  -3  -4  10 7209.07 486.465   1
  -3  -4  11 29258.2 1546.34   4
  -3  -4  12 20903.9 1378.83   4
  -3  -4  13 6258.87 811.132   4
  -3  -3 -10 5556.67 703.954   5
  -3  -3  -9 13395.4 1036.33   5
  -3  -3  -8 23249.0 1315.11   5
  -3  -3  -7 18566.7 1103.07   5
  -3  -3  -7 17294.9 611.180   3
  -3  -3  -6 21004.8 1117.01   5
  -3  -3  -5 14552.3 867.232   5
  -3  -3  -4 12126.0 745.275   5
  -3  -3  -4 10171.1 673.230   6
  -3  -3  -3 3995.92 401.080   5
  -3  -3  -3 2954.60 334.535   6
  -3  -3  -2 13019.1 673.282   6
  -3  -3  -2 12534.0 700.604   5
  -3  -3  -1 33556.6 1152.73   5
  -3  -3   0 69880.0 1777.00   5
  -3  -3   1 58754.7 1421.28   3
  -3  -3   1 59636.3 1483.06   4
  -3  -3   2 111185. 2256.29   3
  -3  -3   2 111447. 2232.53   4
  -3  -3   3 4033.91 350.855   3
  -3  -3   3 4075.64 338.455   4
  -3  -3   4 4163.63 357.718   4
  -3  -3   5 830.654 182.764   4
  -3  -3   6 5722.07 474.720   4
  -3  -3   7 3050.99 211.108   1
  -3  -3   7 2975.93 362.031   4
  -3  -3   8 260.349 81.1444   1
  -3  -3   8 292.752 138.670   4
  -3  -3   9 6409.09 435.050   1
  -3  -3   9 5537.22 575.731   4
  -3  -3  10 17410.9 831.069   1
  -3  -3  10 18122.3 1130.64   4
  -3  -3  11 33437.2 1658.19   4
  -3  -3  12 11763.7 1029.26   4
  -3  -3  13 4637.73 706.797   4
  -3  -2 -11 9660.94 968.192   5
  -3  -2 -10 11102.3 1002.92   5
  -3  -2  -9 12981.8 1033.49   5
  -3  -2  -8 20926.2 1240.74   5
  -3  -2  -7 12903.2 457.498   3
  -3  -2  -7 14729.3 972.942   5
  -3  -2  -6 610.664 87.3198   3
  -3  -2  -6 321.901 131.086   5
  -3  -2  -5 5904.25 541.876   5
  -3  -2  -4 20228.8 958.722   5
  -3  -2  -3 17938.6 843.403   5
  -3  -2  -3 18226.0 858.840   6
  -3  -2  -2 164145. 3148.35   5
  -3  -2  -2 164691. 3162.25   6
  -3  -2  -1 202733. 3083.72   3
  -3  -2  -1 194925. 3527.25   5
  -3  -2  -1 197369. 3523.74   6
  -3  -2   0 236757. 3639.48   3
  -3  -2   0 237237. 4015.52   5
  -3  -2   1 58987.7 1296.33   3
  -3  -2   1 57206.9 1458.90   5
  -3  -2   1 57605.5 1291.18   4
  -3  -2   2 123494. 2275.09   3
  -3  -2   2 117889. 2185.41   4
  -3  -2   3 34584.8 1037.65   3
  -3  -2   3 33073.4 960.862   4
  -3  -2   4 16272.5 720.848   3
  -3  -2   4 16973.1 695.016   4
  -3  -2   5 310.552 116.189   4
  -3  -2   6 1063.72 195.089   4
  -3  -2   6 1087.28 122.486   1
  -3  -2   7 1108.03 225.969   4
  -3  -2   7 796.272 132.098   1
  -3  -2   8 9271.05 690.639   4
  -3  -2   8 9092.61 516.888   1
  -3  -2   9 32063.8 1150.36   1
  -3  -2   9 33794.8 1462.16   4
  -3  -2  10 44161.7 1798.56   4
  -3  -2  10 41559.0 1462.75   1
  -3  -2  11 46069.1 1671.09   1
  -3  -2  11 46576.2 1986.15   4
  -3  -2  12 11704.5 1033.26   4
  -3  -1 -12 6404.15 832.125   5
  -3  -1 -11 13298.8 1156.64   5
  -3  -1 -10 10623.7 986.032   5
  -3  -1  -9 17726.7 1205.85   5
  -3  -1  -8 25036.9 1376.57   5
  -3  -1  -7 7695.74 694.331   5
  -3  -1  -6 96.4546 138.626   5
  -3  -1  -6 76.3220 28.6748   3
  -3  -1  -5 4286.03 457.875   5
  -3  -1  -5 3000.66 142.252   3
  -3  -1  -4 69869.9 1720.23   4
  -3  -1  -4 69416.9 1900.21   5
  -3  -1  -3 8405.49 553.326   5
  -3  -1  -3 8412.83 576.537   6
  -3  -1  -2 102820. 2273.14   6
  -3  -1  -2 103628. 2213.88   5
  -3  -1  -1 136371. 2041.76   3
  -3  -1  -1 138883. 2602.70   5
  -3  -1  -1 136726. 2663.02   6
  -3  -1   0 145662. 2256.05   3
  -3  -1   0 145564. 2627.11   5
  -3  -1   0 138021. 2647.16   6
  -3  -1   1 54480.8 1145.19   3
  -3  -1   1 53652.6 1302.15   5
  -3  -1   1 52835.7 1056.75   4
  -3  -1   2 9901.19 456.830   3
  -3  -1   2 9545.44 395.971   4
  -3  -1   3 11880.8 496.211   4
  -3  -1   4 850.460 143.397   4
  -3  -1   4 529.474 73.2018   1
  -3  -1   5 22180.1 870.917   4
  -3  -1   5 22674.2 643.609   1
  -3  -1   6 25297.1 1005.72   4
  -3  -1   6 24207.0 777.056   1
  -3  -1   7 28799.6 964.357   1
  -3  -1   7 28893.5 1176.80   4
  -3  -1   8 20163.0 871.253   1
  -3  -1   8 18687.0 999.182   4
  -3  -1   9 39551.4 1387.75   1
  -3  -1   9 38708.7 1576.17   4
  -3  -1  10 30809.2 1317.27   1
  -3  -1  10 31308.9 1509.96   4
  -3  -1  11 38635.4 1607.13   1
  -3  -1  12 6725.90 693.474   1
  -3   0 -12 5882.12 808.122   5
  -3   0 -11 11961.6 1106.80   5
  -3   0 -10 16090.3 1224.99   5
  -3   0  -9 14020.6 1091.35   5
  -3   0  -8 39692.3 1762.47   5
  -3   0  -7 1722.60 341.040   5
  -3   0  -6 560.733 203.733   5
  -3   0  -5 26314.0 1170.52   5
  -3   0  -5 27274.1 1028.91   4
  -3   0  -4 57725.1 1698.77   5
  -3   0  -4 56606.9 1447.43   4
  -3   0  -3 31869.0 1138.19   5
  -3   0  -3 34192.8 926.225   4
  -3   0  -2 122712. 2468.57   5
  -3   0  -2 123553. 2049.73   4
  -3   0  -2 119817. 2556.62   6
  -3   0  -1 49984.3 1283.82   5
  -3   0  -1 48405.6 1336.83   6
  -3   0   0 71775.5 1539.29   5
  -3   0   0 72512.3 1643.14   6
  -3   0   1 122885. 2194.75   5
  -3   0   1 122490. 1848.28   4
  -3   0   2 61774.9 1191.67   4
  -3   0   2 61460.2 1331.83   5
  -3   0   3 13281.1 462.730   1
  -3   0   3 14525.4 544.165   4
  -3   0   4 2525.84 247.835   4
  -3   0   4 2417.95 206.922   1
  -3   0   5 79125.1 1831.27   4
  -3   0   5 75883.5 1637.00   1
  -3   0   6 21373.1 930.400   4
  -3   0   6 22848.1 843.947   1
  -3   0   7 38615.8 1244.80   1
  -3   0   7 39946.2 1402.17   4
  -3   0   8 45049.3 1481.50   1
  -3   0   8 43765.5 1598.61   4
  -3   0   9 73904.1 2143.05   1
  -3   0  10 55796.5 1949.23   1
  -3   0  11 31002.9 1516.48   1
  -3   0  12 12033.9 992.733   1
  -3   1 -12 7389.88 921.698   5
  -3   1 -11 13335.5 1182.41   5
  -3   1 -10 14253.7 1157.79   5
  -3   1  -9 9293.94 890.027   5
  -3   1  -8 58095.2 2197.18   5
  -3   1  -7 460.734 186.087   5
  -3   1  -6 5359.88 561.616   5
  -3   1  -5 23726.4 1122.97   5
  -3   1  -5 25294.2 961.367   4
  -3   1  -4 28588.3 1145.50   5
  -3   1  -4 27967.0 913.300   4
  -3   1  -3 14723.9 747.956   5
  -3   1  -3 13986.8 535.880   4
  -3   1  -2 24990.8 918.849   5
  -3   1  -2 22633.3 939.013   6
  -3   1  -2 24564.0 612.664   4
  -3   1  -1 131436. 2623.52   6
  -3   1  -1 135565. 2502.18   5
  -3   1   0 114567. 2121.25   5
  -3   1   0 115787. 2266.65   6
  -3   1   1 64482.8 1318.28   5
  -3   1   2 46345.7 1008.24   5
  -3   1   2 45994.0 1087.02   1
  -3   1   3 3651.13 291.146   1
  -3   1   4 2512.88 253.582   1
  -3   1   5 83625.7 2097.15   2
  -3   1   5 85310.1 1922.24   1
  -3   1   6 25486.9 1118.86   2
  -3   1   6 27550.8 1041.17   1
  -3   1   7 19265.5 921.648   1
  -3   1   8 10894.4 731.734   1
  -3   1   9 20986.3 1125.17   1
  -3   1  10 38821.1 1671.18   1
  -3   1  11 24298.8 1395.41   1
  -3   1  12 4844.68 657.707   1
  -3   1  13 1065.68 315.361   1
  -3   2 -12 5030.69 769.018   5
  -3   2 -11 8812.27 991.395   5
  -3   2 -10 16419.1 1299.90   5
  -3   2  -9 4911.63 670.571   5
  -3   2  -8 16630.6 1153.22   5
  -3   2  -7 535.000 219.653   5
  -3   2  -6 19946.0 1110.50   5
  -3   2  -5 46108.5 1389.50   4
  -3   2  -5 49230.6 1696.91   5
  -3   2  -4 12900.8 607.413   4
  -3   2  -4 13132.8 792.644   5
  -3   2  -3 810.427 197.835   5
  -3   2  -3 401.483 92.5279   4
  -3   2  -2 10249.5 580.082   5
  -3   2  -2 9566.10 390.739   4
  -3   2  -1 106311. 2243.33   6
  -3   2  -1 103280. 2104.56   5
  -3   2   0 603.554 135.334   6
  -3   2   0 795.658 154.524   5
  -3   2   1 244663. 3927.58   6
  -3   2   1 241345. 3712.19   5
  -3   2   1 244741. 3951.04   1
  -3   2   2 34048.9 1019.55   1
  -3   2   2 36404.7 782.372   5
  -3   2   3 12253.7 598.832   1
  -3   2   4 21929.8 975.120   2
  -3   2   4 23046.2 906.737   1
  -3   2   5 5787.15 515.745   2
  -3   2   5 6181.36 482.516   1
  -3   2   6 15880.0 836.283   1
  -3   2   7 423.011 169.732   1
  -3   2   8 6132.73 591.350   1
  -3   2   9 25938.5 1327.36   1
  -3   2  10 28504.2 1488.23   1
  -3   2  11 19679.4 1319.46   1
  -3   2  12 1063.40 282.895   1
  -3   2  13-24.8608 115.208   1
  -3   3 -12 8944.91 1055.97   5
  -3   3 -11 14226.9 1274.59   5
  -3   3 -10 11769.6 1114.59   5
  -3   3  -9 7126.84 815.702   5
  -3   3  -8 17983.4 1232.03   5
  -3   3  -7-117.446 153.392   5
  -3   3  -6 2353.28 378.648   5
  -3   3  -5 1832.83 332.462   5
  -3   3  -5 2338.13 295.087   4
  -3   3  -4 865.104 167.095   4
  -3   3  -4 824.294 213.104   5
  -3   3  -3 6601.64 525.535   5
  -3   3  -3 6878.46 427.247   4
  -3   3  -2 1473.41 240.385   5
  -3   3  -1 109214. 2261.84   5
  -3   3  -1 111992. 2355.40   6
  -3   3   0 20479.0 787.328   6
  -3   3   0 22115.6 751.525   5
  -3   3   1 89928.8 1996.36   1
  -3   3   1 94047.0 1883.57   6
  -3   3   1 93649.0 1720.74   5
  -3   3   2 26338.3 621.231   5
  -3   3   2 26390.9 964.577   1
  -3   3   3 2930.86 318.983   1
  -3   3   4 2337.10 328.324   2
  -3   3   4 2439.75 307.529   1
  -3   3   5 27868.7 1160.75   1
  -3   3   6 15997.0 914.973   1
  -3   3   7 33786.7 1446.76   1
  -3   3   8 46246.1 1819.95   1
  -3   3   9 90611.9 2809.37   1
  -3   3  10 45359.4 2019.34   1
  -3   3  11 15332.1 1208.26   1
  -3   3  12 161.656 154.859   1
  -3   3  13 387.642 245.096   1
  -3   3  14 2455.50 576.796   1
  -3   4 -11 7543.82 960.875   5
  -3   4 -10 7024.14 870.326   5
  -3   4  -9 4977.48 706.510   5
  -3   4  -8 3757.20 584.794   5
  -3   4  -7 2824.54 480.759   5
  -3   4  -6 25328.0 1345.95   5
  -3   4  -5 25671.6 1281.05   5
  -3   4  -4 36268.4 1441.21   5
  -3   4  -4 34433.2 1220.92   4
  -3   4  -3 23788.7 1082.24   5
  -3   4   0 100544. 2057.07   5
  -3   4   0 99061.8 2090.13   6
  -3   4   0 96715.2 2201.55   1
  -3   4   1 63107.5 1362.50   5
  -3   4   1 63986.9 1451.08   6
  -3   4   2 10073.5 629.363   1
  -3   4   2 9568.44 360.140   5
  -3   4   3 227.709 116.469   1
  -3   4   4 10222.5 695.586   1
  -3   4   5 44589.8 1607.64   1
  -3   4   6 68039.1 2164.37   1
  -3   4   7 31344.8 1467.50   1
  -3   4   8 86596.6 2733.34   1
  -3   4   9 17430.4 1206.52   1
  -3   4  10 20730.9 1401.88   1
  -3   4  11 2478.63 524.860   1
  -3   4  12 4640.73 738.307   1
  -3   4  13 2361.83 542.673   1
  -3   4  14 3680.03 707.557   1
  -3   5 -11 4529.23 788.135   5
  -3   5 -10 1690.84 434.875   5
  -3   5  -9 4327.69 674.778   5
  -3   5  -8 1664.46 405.976   5
  -3   5  -7 1960.31 407.000   5
  -3   5  -6 45866.4 1910.89   5
  -3   5   0 27280.1 1097.08   1
  -3   5   0 26502.5 939.864   6
  -3   5   1 13995.8 783.557   1
  -3   5   1 15516.6 626.571   6
  -3   5   2 1536.40 155.995   5
  -3   5   2 1546.74 260.900   1
  -3   5   3 24138.2 527.125   5
  -3   5   3 25230.2 1153.45   1
  -3   5   4 42882.0 1613.06   1
  -3   5   5 84023.1 2481.78   1
  -3   5   6 80722.2 2516.23   1
  -3   5   7 29213.8 1507.73   1
  -3   5   8 86814.6 2884.03   1
  -3   5   9 19191.4 1345.44   1
  -3   5  10 9535.53 980.436   1
  -3   5  11 326.947 161.321   1
  -3   5  12 178.043 196.656   1
  -3   5  13 53.6225 162.688   1
  -3   6 -11 6368.14 923.489   5
  -3   6 -10 881.378 336.211   5
  -3   6  -9 4757.84 714.620   5
  -3   6  -8 267.639 172.906   5
  -3   6  -7 2836.59 516.469   5
  -3   6  -1 110860. 2665.76   1
  -3   6   0 24835.4 1123.13   1
  -3   6   0 25200.4 927.457   6
  -3   6   1 19563.3 1010.47   1
  -3   6   1 19215.3 716.625   6
  -3   6   2 5763.69 554.870   1
  -3   6   3 7798.33 681.522   1
  -3   6   4 22596.3 1213.63   1
  -3   6   5 40629.2 1734.83   1
  -3   6   6 44278.2 1893.15   1
  -3   6   7 17335.7 1206.03   1
  -3   6   8 25246.5 1541.72   1
  -3   6   9 7669.29 880.148   1
  -3   6  10 3255.06 601.754   1
  -3   6  11 28.8391 179.618   1
  -3   6  12 209.745 92.3780   1
  -3   7 -10 233.969 214.085   5
  -3   7  -9 888.045 275.290   5
  -3   7  -8 223.085 170.465   5
  -3   7  -1 33941.9 1404.54   1
  -3   7   0 16301.2 966.124   1
  -3   7   0 16991.2 763.615   6
  -3   7   1 3519.53 453.074   1
  -3   7   1 3646.96 296.367   6
  -3   7   2 2756.91 415.832   1
  -3   7   3 2966.46 445.919   1
  -3   7   4 7146.73 722.062   1
  -3   7   5 24241.8 1391.45   1
  -3   7   6 19232.1 1281.67   1
  -3   7   7 10589.0 996.375   1
  -3   7   8 16924.5 1316.46   1
  -3   7   9 7136.59 903.679   1
  -3   7  10 2412.20 571.348   1
  -3   7  11 573.024 338.855   1
  -3   8  -9 4123.01 699.266   5
  -3   8  -1 19795.1 1124.55   1
  -3   8   0 10881.0 837.336   1
  -3   8   0 10850.6 612.249   6
  -3   8   1 670.070 219.283   1
  -3   8   1 956.014 151.688   6
  -3   8   2 204.057 139.526   1
  -3   8   3 15640.2 1102.39   1
  -3   8   3 13900.1 605.549   5
  -3   8   4 28303.2 691.867   5
  -3   8   4 31589.3 1637.85   1
  -3   8   5 29338.7 1630.62   1
  -3   8   6 23452.7 1515.71   1
  -3   8   7 19989.1 1446.03   1
  -3   8   8 22792.2 1619.48   1
  -3   8   9 7172.47 967.287   1
  -3   8  10 1213.97 383.051   1
  -3   9  -1 40637.1 1728.28   1
  -3   9  -1 32650.4 1266.71   6
  -3   9   0 8410.69 531.787   6
  -3   9   0 9807.86 855.352   1
  -3   9   1 105.173 36.1359   6
  -3   9   1 97.8347 94.6810   1
  -3   9   2 5723.85 690.549   1
  -3   9   3 17144.2 1222.21   1
  -3   9   4 18854.2 1319.77   1
  -3   9   5 28107.2 1681.96   1
  -3   9   6 16966.4 1359.36   1
  -3   9   7 12186.6 1193.11   1
  -3   9   8 11270.4 1186.40   1
  -3   9   9 5096.20 825.634   1
  -3  10  -1 11544.9 963.831   1
  -3  10   0 383.702 172.996   1
  -3  10   1 12988.0 1059.02   1
  -3  10   2 16732.4 1244.51   1
  -3  10   3 27694.4 1679.23   1
  -3  10   4 24573.9 1595.24   1
  -3  10   5 22067.4 1564.62   1
  -3  10   6 9056.50 1039.34   1
  -3  10   7 9699.59 1120.54   1
  -3  10   8 4085.14 754.806   1
  -3  11  -1 2734.23 498.427   1
  -3  11   0 1424.90 384.380   1
  -3  11   1 3650.58 592.615   1
  -3  11   2 9413.78 982.908   1
  -3  11   3 8281.38 948.897   1
  -3  11   4 9308.00 1020.75   1
  -3  11   5 10654.4 1141.43   1
  -3  11   6 7938.19 1022.08   1
  -3  11   7 7541.55 1013.77   1
  -3  12  -1 181.977 126.261   1
  -3  12   0 4818.43 726.395   1
  -3  12   1 3126.38 585.807   1
  -3  12   2 6095.83 847.184   1
  -3  12   3 7901.24 968.436   1
  -3  12   4 8407.25 1040.00   1
  -3  12   5 13208.3 1352.79   1
  -3  13  -1-64.3616 149.923   1
  -3  13   0 3546.27 655.702   1
  -3  13   1 2352.79 531.523   1
  -3  13   2 4054.74 733.952   1
  -3  13   3 8414.56 1070.53   1
  -3  13   4 8252.48 1106.80   1
  -3  14  -1 44.8987 122.154   1
  -3  14   0 1340.37 441.427   1
  -3  14   1 3665.40 692.290   1
  -2 -13   0 4935.64 792.017   4
  -2 -13   1 6686.97 914.868   4
  -2 -13   2 12366.1 1218.47   4
  -2 -13   3 8044.50 966.568   4
  -2 -12   1 17693.2 1408.39   4
  -2 -12   2 18219.1 1402.11   4
  -2 -12   3 14914.3 1249.18   4
  -2 -12   4 5235.76 733.535   4
  -2 -12   5 698.143 276.771   4
  -2 -12   6 28.2643 137.589   4
  -2 -12   7 2821.47 531.192   4
  -2 -11   1 17778.1 1334.26   4
  -2 -11   2 23183.4 1512.81   4
  -2 -11   3 17063.7 1268.63   4
  -2 -11   4 4298.78 619.657   4
  -2 -11   5 763.500 272.191   4
  -2 -11   6 2758.22 513.175   4
  -2 -11   7 6095.79 754.411   4
  -2 -11   8 11367.5 1058.82   4
  -2 -10   2 37470.1 1831.60   4
  -2 -10   3 23212.2 1403.68   4
  -2 -10   4 11606.4 972.445   4
  -2 -10   5 803.156 270.403   4
  -2 -10   6 4022.00 578.274   4
  -2 -10   7 5582.82 681.795   4
  -2 -10   8 13412.1 1095.97   4
  -2 -10   9 7854.76 858.887   4
  -2 -10  10 5861.44 767.017   4
  -2  -9   2 27674.0 1460.97   4
  -2  -9   3 7691.83 737.015   4
  -2  -9   4 145.522 160.536   4
  -2  -9   5 2952.77 461.208   4
  -2  -9   6 11131.6 896.087   4
  -2  -9   7 12844.4 987.826   4
  -2  -9   8 16082.1 1127.73   4
  -2  -9   9 10641.9 958.565   4
  -2  -9  10 13304.8 1113.76   4
  -2  -9  11 8206.31 899.213   4
  -2  -8   2 19254.7 1124.73   4
  -2  -8   3 4539.61 455.525   1
  -2  -8   3 4960.82 561.306   4
  -2  -8   4 100.837 103.115   1
  -2  -8   4 453.151 217.957   4
  -2  -8   5 17013.3 821.595   1
  -2  -8   5 20437.0 1149.60   4
  -2  -8   6 15733.7 1015.11   4
  -2  -8   7 5194.91 591.001   4
  -2  -8   8 13036.1 977.486   4
  -2  -8   9 7229.47 756.265   4
  -2  -8  10 5311.28 680.090   4
  -2  -8  11 6617.73 789.531   4
  -2  -7  -6 3343.76 471.565   5
  -2  -7   2 21740.3 1124.98   4
  -2  -7   3 513.765 142.243   1
  -2  -7   3 540.808 169.708   4
  -2  -7   4 1456.77 234.358   1
  -2  -7   4 1425.07 339.277   4
  -2  -7   5 3283.12 419.946   4
  -2  -7   5 3670.93 335.859   1
  -2  -7   6 15569.3 947.709   4
  -2  -7   6 14255.5 660.372   1
  -2  -7   7 8858.35 744.062   4
  -2  -7   8 21891.6 1216.09   4
  -2  -7   9 8147.25 760.014   4
  -2  -7  10 15259.0 1100.01   4
  -2  -7  11 12147.8 1049.21   4
  -2  -7  12 1959.08 450.384   4
  -2  -6  -7 1197.01 279.683   5
  -2  -6  -6 7326.77 663.400   5
  -2  -6  -5 12623.7 833.503   5
  -2  -6  -4 47678.4 1649.85   5
  -2  -6   2 14758.8 849.782   4
  -2  -6   3 1947.06 235.532   1
  -2  -6   3 1708.47 286.541   4
  -2  -6   4 2963.13 277.630   1
  -2  -6   4 3460.50 404.608   4
  -2  -6   5 29436.2 908.489   1
  -2  -6   5 29110.7 1228.49   4
  -2  -6   6 50744.4 1705.77   4
  -2  -6   6 46990.4 1209.17   1
  -2  -6   7 8523.78 688.299   4
  -2  -6   7 7473.06 435.357   1
  -2  -6   8 51262.3 1859.82   4
  -2  -6   9 13096.8 925.008   4
  -2  -6  10 9540.27 840.736   4
  -2  -6  11 6267.78 742.645   4
  -2  -6  12 1347.86 369.126   4
  -2  -5  -8 9310.07 782.677   5
  -2  -5  -7 6299.33 612.431   5
  -2  -5  -6 4232.03 473.961   5
  -2  -5  -5 17083.2 820.605   6
  -2  -5  -5 19568.3 990.507   5
  -2  -5  -4 32749.8 1096.37   6
  -2  -5  -4 34621.3 1306.91   5
  -2  -5  -3 34360.0 1270.70   5
  -2  -5  -2 63635.9 1770.73   5
  -2  -5   2 1999.65 279.799   4
  -2  -5   3 35160.8 969.182   1
  -2  -5   3 33790.5 1222.57   4
  -2  -5   4 14054.8 538.057   1
  -2  -5   4 14324.0 772.730   4
  -2  -5   5 34214.9 887.431   1
  -2  -5   5 34311.3 1259.30   4
  -2  -5   6 73790.4 1518.07   1
  -2  -5   6 75895.6 2061.92   4
  -2  -5   7 31315.7 916.438   1
  -2  -5   7 33759.9 1348.17   4
  -2  -5   8 48387.0 1717.16   4
  -2  -5   8 42031.2 1180.79   1
  -2  -5   9 33691.2 1504.73   4
  -2  -5  10 24031.1 1341.12   4
  -2  -5  11 10806.2 953.877   4
  -2  -5  12 4310.58 649.752   4
  -2  -5  13 2332.62 506.769   4
  -2  -4  -9 14715.1 1023.06   5
  -2  -4  -8 25133.7 1282.70   5
  -2  -4  -7 6400.60 597.366   5
  -2  -4  -6 3708.99 430.447   5
  -2  -4  -5 30161.5 1164.54   6
  -2  -4  -5 32420.9 1250.60   5
  -2  -4  -4 40395.1 1352.68   5
  -2  -4  -4 39171.8 1234.99   6
  -2  -4  -3 31186.8 999.115   6
  -2  -4  -3 32322.9 1142.51   5
  -2  -4  -2 49410.0 1446.49   5
  -2  -4  -1 67152.4 1696.71   5
  -2  -4   2 62339.4 1606.01   4
  -2  -4   3 24932.7 967.258   3
  -2  -4   3 23649.3 645.201   1
  -2  -4   3 23895.1 910.253   4
  -2  -4   4 14707.3 451.602   1
  -2  -4   4 14535.7 714.770   4
  -2  -4   5 6143.84 288.518   1
  -2  -4   5 6511.15 491.531   4
  -2  -4   6 26655.6 732.527   1
  -2  -4   6 27151.0 1094.78   4
  -2  -4   7 29368.3 1217.38   4
  -2  -4   8 28339.2 1260.84   4
  -2  -4   9 26238.4 1304.26   4
  -2  -4  10 12955.0 959.346   4
  -2  -4  11 10484.4 923.876   4
  -2  -4  12 3496.26 574.623   4
  -2  -4  13 192.326 179.635   4
  -2  -3 -10 3558.66 521.901   5
  -2  -3  -9 6994.26 690.774   5
  -2  -3  -8 11771.0 858.137   5
  -2  -3  -8 11605.1 592.646   3
  -2  -3  -7 388.320 180.911   5
  -2  -3  -6 23121.3 1077.84   5
  -2  -3  -5 64077.8 1807.71   5
  -2  -3  -4 79391.6 1946.33   5
  -2  -3  -4 73052.3 1867.38   6
  -2  -3  -3 17072.7 755.432   5
  -2  -3  -3 16467.1 715.086   6
  -2  -3  -2 48126.1 1314.77   5
  -2  -3  -2 45746.1 1200.10   6
  -2  -3  -1 26541.3 913.408   5
  -2  -3   2 39032.4 1107.08   3
  -2  -3   2 38769.9 1090.03   4
  -2  -3   3 21837.1 829.414   3
  -2  -3   3 22224.7 800.350   4
  -2  -3   4 635.563 162.870   3
  -2  -3   4 590.018 153.639   4
  -2  -3   5 62029.5 1624.09   4
  -2  -3   6 92796.6 2215.04   4
  -2  -3   7 57247.7 1733.84   4
  -2  -3   8 35169.6 1418.10   4
  -2  -3   9 22699.1 1191.09   4
  -2  -3  10 6455.77 666.417   4
  -2  -3  11 6102.52 588.203   1
  -2  -3  11 5759.64 685.192   4
  -2  -3  12-43.3041 133.169   4
  -2  -2 -11 3401.36 540.826   5
  -2  -2 -10 3109.03 504.901   5
  -2  -2  -9 4056.00 538.091   5
  -2  -2  -8 3195.36 282.576   3
  -2  -2  -8 3327.92 446.786   5
  -2  -2  -7 7602.82 414.795   3
  -2  -2  -7 7302.71 631.390   5
  -2  -2  -6 44142.6 1539.37   5
  -2  -2  -5 83350.3 2110.50   5
  -2  -2  -4 62631.4 1666.32   5
  -2  -2  -3 8383.66 505.602   5
  -2  -2  -3 8933.44 520.566   6
  -2  -2  -2 82641.2 1767.49   5
  -2  -2  -2 78199.1 1711.66   6
  -2  -2  -1 9778.62 477.931   5
  -2  -2  -1 8902.72 434.984   6
  -2  -2   0 549.201 105.210   5
  -2  -2   1 19732.7 626.857   3
  -2  -2   1 18677.7 624.344   4
  -2  -2   2 5637.83 340.745   3
  -2  -2   2 5671.09 333.480   4
  -2  -2   3 8196.60 445.308   3
  -2  -2   3 9416.02 456.169   4
  -2  -2   4 1915.79 254.632   3
  -2  -2   4 2511.74 274.549   4
  -2  -2   5 62203.5 1609.69   3
  -2  -2   5 62225.0 1571.15   4
  -2  -2   6 63362.7 1718.62   4
  -2  -2   7 41962.7 1453.50   4
  -2  -2   8 5090.24 421.868   2
  -2  -2   8 6395.97 573.368   4
  -2  -2   9 9868.49 763.401   4
  -2  -2   9 7025.93 537.042   2
  -2  -2  10 199.474 105.693   1
  -2  -2  10 102.154 103.738   4
  -2  -2  11 1002.93 242.021   1
  -2  -2  11 828.533 278.450   4
  -2  -2  12 290.624 138.367   1
  -2  -1 -12 9098.69 945.562   5
  -2  -1 -11 3770.54 576.280   5
  -2  -1 -10 573.191 243.141   5
  -2  -1  -9 0.11886 32.6408   3
  -2  -1  -9 22.4133 73.7361   5
  -2  -1  -8 3576.88 299.297   3
  -2  -1  -8 4364.46 529.065   5
  -2  -1  -7 37181.8 983.593   3
  -2  -1  -7 36962.1 1482.91   5
  -2  -1  -6 56139.3 1198.04   3
  -2  -1  -6 54127.2 1730.03   5
  -2  -1  -5 101834. 1721.82   3
  -2  -1  -5 97529.9 2344.53   5
  -2  -1  -5 97065.0 2300.44   4
  -2  -1  -4 99914.1 2253.17   5
  -2  -1  -4 101609. 2185.32   4
  -2  -1  -3 40500.9 1180.36   5
  -2  -1  -2 108776. 2095.16   5
  -2  -1  -2 101961. 2086.93   6
  -2  -1  -1 232009. 3635.90   5
  -2  -1  -1 224106. 3639.50   6
  -2  -1   0 78467.2 1534.61   5
  -2  -1   0 80080.3 1327.59   3
  -2  -1   0 76367.8 1523.88   6
  -2  -1   1 2122.02 191.601   3
  -2  -1   1 2457.32 196.851   4
  -2  -1   1 1886.72 181.253   5
  -2  -1   2 26495.0 688.972   4
  -2  -1   2 26608.7 732.833   3
  -2  -1   3 2026.23 209.752   3
  -2  -1   3 1906.71 183.355   4
  -2  -1   4 28871.9 685.008   1
  -2  -1   4 28545.1 894.579   4
  -2  -1   5 221222. 3863.87   4
  -2  -1   5 224462. 3532.79   1
  -2  -1   6 98166.4 2267.98   4
  -2  -1   6 96612.2 2131.27   2
  -2  -1   6 102660. 2037.12   1
  -2  -1   7 81758.1 2148.86   4
  -2  -1   7 77485.8 1981.57   2
  -2  -1   8 18549.0 877.549   1
  -2  -1   8 17126.5 947.829   4
  -2  -1   9 11562.4 840.370   4
  -2  -1   9 10852.2 729.416   1
  -2  -1  10 1266.84 273.257   1
  -2  -1  11 1399.58 290.377   1
  -2  -1  12 44.3148 140.065   1
  -2   0 -12 10258.7 1033.91   5
  -2   0 -11 5991.66 752.193   5
  -2   0 -10 4231.32 611.040   5
  -2   0  -9 985.239 270.562   5
  -2   0  -8 4454.55 337.722   3
  -2   0  -8 4965.34 563.526   5
  -2   0  -7 24166.3 773.142   3
  -2   0  -7 24031.7 1194.02   5
  -2   0  -6 50234.1 1669.19   5
  -2   0  -6 51162.4 1135.96   3
  -2   0  -5 95307.7 2321.32   5
  -2   0  -5 98345.9 1682.84   3
  -2   0  -5 93191.6 2197.35   4
  -2   0  -4 38790.5 1261.38   5
  -2   0  -4 40225.0 789.707   3
  -2   0  -4 38951.7 1147.93   4
  -2   0  -3 34797.4 1080.25   5
  -2   0  -3 34145.9 929.136   4
  -2   0  -2 43077.8 1120.88   5
  -2   0  -2 40574.5 901.907   4
  -2   0  -1 13125.3 530.824   5
  -2   0  -1 11525.0 539.372   6
  -2   0   0 262119. 3883.98   5
  -2   0   0 255886. 3958.43   6
  -2   0   1 81041.2 1276.71   4
  -2   0   1 80823.5 1440.77   5
  -2   0   2 182925. 2687.61   1
  -2   0   2 178053. 2783.57   4
  -2   0   3 140600. 2440.28   4
  -2   0   3 143389. 2307.30   1
  -2   0   4 50839.4 1160.13   1
  -2   0   4 50723.1 1272.81   4
  -2   0   4 50392.2 1294.41   2
  -2   0   5 346255. 5593.93   4
  -2   0   5 358415. 5435.18   1
  -2   0   5 350699. 5657.08   2
  -2   0   6 152101. 3103.30   2
  -2   0   6 155400. 2910.72   1
  -2   0   7 123468. 2811.10   4
  -2   0   7 127761. 2684.09   1
  -2   0   8 60759.0 1825.13   1
  -2   0   9 31400.0 1351.63   1
  -2   0  10 12000.2 874.102   1
  -2   0  11 939.027 267.883   1
  -2   0  12 43.1272 81.9732   1
  -2   0  13 541.574 238.115   1
  -2   1 -13 9697.40 1058.14   5
  -2   1 -12 2283.27 505.958   5
  -2   1 -11 350.649 175.626   5
  -2   1 -10 600.071 259.560   5
  -2   1  -9 7106.56 746.321   5
  -2   1  -8 339.346 186.015   5
  -2   1  -7 21144.4 1144.79   5
  -2   1  -6 37563.5 1451.52   5
  -2   1  -5 38502.6 1374.59   5
  -2   1  -5 37533.8 1207.96   4
  -2   1  -4 64575.1 1747.92   5
  -2   1  -4 62126.4 1492.91   4
  -2   1  -3 34731.7 912.837   4
  -2   1  -3 34798.1 1113.34   5
  -2   1  -2 90437.3 1883.66   5
  -2   1  -2 90334.7 1565.89   4
  -2   1  -1 229679. 3240.32   4
  -2   1  -1 231928. 3651.55   5
  -2   1   0 11721.0 431.948   5
  -2   1   0 11651.5 474.482   6
  -2   1   1 97814.1 1585.02   5
  -2   1   1 98181.5 1723.40   1
  -2   1   2 30841.9 811.273   1
  -2   1   3 310473. 4791.28   1
  -2   1   3 318692. 4978.18   2
  -2   1   4 8494.64 470.189   1
  -2   1   4 8483.34 534.216   2
  -2   1   5 143362. 2783.51   1
  -2   1   5 140931. 2979.83   2
  -2   1   6 113313. 2492.06   1
  -2   1   6 111124. 2690.88   2
  -2   1   7 68955.1 1941.55   1
  -2   1   8 23891.0 1142.71   1
  -2   1   9 6257.37 613.735   1
  -2   1  10 168.792 148.441   1
  -2   1  11 32.4505 143.426   1
  -2   1  12 3514.46 578.398   1
  -2   1  13 640.743 271.041   1
  -2   2 -13 12699.7 1241.92   5
  -2   2 -12 1753.21 433.458   5
  -2   2 -11 734.855 275.003   5
  -2   2 -10 284.507 230.832   5
  -2   2  -9-3.76265 99.6449   5
  -2   2  -8 2204.42 432.398   5
  -2   2  -7 2541.50 421.704   5
  -2   2  -6 24034.6 1185.73   5
  -2   2  -5 54505.3 1534.43   4
  -2   2  -5 55496.3 1742.34   5
  -2   2  -4 55467.7 1646.30   5
  -2   2  -4 53388.1 1383.38   4
  -2   2  -3 96460.6 1876.02   4
  -2   2  -3 92788.7 2144.45   5
  -2   2  -2 52297.0 1373.33   5
  -2   2  -2 53842.5 1141.90   4
  -2   2  -1 157128. 2735.69   5
  -2   2   0 128908. 2178.58   5
  -2   2   0 127976. 2237.43   6
  -2   2   1 138232. 2103.04   5
  -2   2   1 137133. 2246.62   6
  -2   2   1 134582. 2413.95   1
  -2   2   2 992.388 182.586   2
  -2   2   2 605.312 145.467   1
  -2   2   3 10237.2 588.890   2
  -2   2   3 8287.92 488.723   1
  -2   2   4 32925.7 1209.52   2
  -2   2   4 33328.2 1111.02   1
  -2   2   5 169054. 3312.31   1
  -2   2   5 165943. 3533.11   2
  -2   2   6 321829. 5624.10   1
  -2   2   7 45860.0 1626.04   1
  -2   2   8 19931.8 1109.64   1
  -2   2   9 237.986 124.838   1
  -2   2  10 145.776 144.403   1
  -2   2  11 3051.53 516.049   1
  -2   2  12 7992.24 922.276   1
  -2   2  13 1378.80 414.761   1
  -2   2  14 9141.56 1100.49   1
  -2   3 -12 1958.51 476.544   5
  -2   3 -11 321.381 232.694   5
  -2   3 -10 904.599 263.933   5
  -2   3  -9 106.394 97.5468   5
  -2   3  -8 61.0008 131.444   5
  -2   3  -7 6027.82 647.549   5
  -2   3  -6 46135.3 1761.03   5
  -2   3  -5 33061.4 1197.97   4
  -2   3  -4 72471.5 1781.76   4
  -2   3  -3 58058.1 1442.84   4
  -2   3  -2 26642.3 855.924   4
  -2   3   0 53508.7 1341.18   1
  -2   3   0 56682.6 1243.00   6
  -2   3   1 892.860 152.867   1
  -2   3   1 811.256 105.937   6
  -2   3   2 13399.4 687.479   2
  -2   3   2 13943.1 662.063   1
  -2   3   3 3322.29 367.965   2
  -2   3   3 3822.26 360.903   1
  -2   3   4 121371. 2858.98   2
  -2   3   4 120765. 2663.81   1
  -2   3   5 209112. 4076.65   1
  -2   3   6 72916.0 2145.35   1
  -2   3   7 2677.70 393.211   1
  -2   3   8 2811.27 429.557   1
  -2   3   9 39804.9 1811.27   1
  -2   3  10 3004.40 502.144   1
  -2   3  11 6351.16 794.562   1
  -2   3  12 6068.44 830.788   1
  -2   3  13 1741.97 479.852   1
  -2   3  14 2621.80 595.223   1
  -2   4 -12 2605.55 562.926   5
  -2   4 -11-45.6960 98.7721   5
  -2   4 -10 3304.63 580.531   5
  -2   4  -9 1995.82 435.332   5
  -2   4  -8 738.902 254.322   5
  -2   4  -4 80593.3 2038.84   4
  -2   4  -3 35888.7 1204.69   4
  -2   4  -1 2371.09 263.440   1
  -2   4   0 47195.7 1330.40   1
  -2   4   0 46563.9 1126.15   6
  -2   4   1 20983.6 882.840   1
  -2   4   1 20114.0 871.697   2
  -2   4   1 22142.1 619.015   6
  -2   4   2 6976.67 542.125   2
  -2   4   2 6975.09 515.438   1
  -2   4   3 27428.9 1197.03   2
  -2   4   3 28976.3 1134.34   1
  -2   4   4 92333.9 2377.60   1
  -2   4   5 181473. 3860.62   1
  -2   4   6 75991.9 2312.83   1
  -2   4   7 55.3294 77.6670   1
  -2   4   8 4053.25 546.853   1
  -2   4   9 1600.61 370.444   1
  -2   4  10-34.9280 99.5685   1
  -2   4  11 164.103 117.574   1
  -2   4  12-42.5542 141.928   1
  -2   4  13 1109.15 419.924   1
  -2   5 -12 1004.81 340.331   5
  -2   5 -11 145.928 157.130   5
  -2   5 -10 3857.54 684.331   5
  -2   5  -9 3841.87 619.361   5
  -2   5  -1 7247.96 515.970   1
  -2   5   0 75355.1 1928.75   1
  -2   5   1 70756.9 1349.98   6
  -2   5   1 68956.2 1904.42   1
  -2   5   1 69339.0 1928.34   2
  -2   5   2 32578.2 1319.79   2
  -2   5   2 31611.4 1249.69   1
  -2   5   3 101040. 2544.82   1
  -2   5   3 97439.2 1593.05   5
  -2   5   4 98131.1 2610.17   1
  -2   5   5 157262. 3688.36   1
  -2   5   6 66267.9 2261.29   1
  -2   5   7 4595.28 609.832   1
  -2   5   8 5364.74 678.209   1
  -2   5   9 702.659 267.231   1
  -2   5  10 177.776 169.051   1
  -2   5  11 1461.13 366.099   1
  -2   5  12 2196.06 547.366   1
  -2   5  13 2945.58 677.260   1
  -2   6 -11 3925.82 706.874   5
  -2   6 -10 19507.5 1531.24   5
  -2   6  -1 926.025 216.188   1
  -2   6   0 15044.3 837.048   1
  -2   6   0 14699.8 799.894   2
  -2   6   1 29414.5 1262.83   2
  -2   6   1 31509.0 1294.01   1
  -2   6   1 31880.5 785.394   6
  -2   6   2 2159.17 335.603   1
  -2   6   3 54646.5 1888.35   1
  -2   6   3 52853.3 1122.87   5
  -2   6   4 71247.7 1243.34   5
  -2   6   4 73448.7 2306.60   1
  -2   6   5 88416.7 2709.01   1
  -2   6   6 37229.5 1737.06   1
  -2   6   7 6208.16 727.340   1
  -2   6   8 631.872 241.884   1
  -2   6   9 647.259 267.908   1
  -2   6  10 985.544 368.245   1
  -2   6  11 3466.37 683.085   1
  -2   6  12 4642.85 834.912   1
  -2   7 -11-41.2223 177.760   5
  -2   7  -2 23836.4 1108.23   1
  -2   7  -1 9249.38 687.519   1
  -2   7   0 20147.2 1054.65   1
  -2   7   0 19962.4 733.631   6
  -2   7   1 18709.4 1058.10   1
  -2   7   1 17618.6 545.350   6
  -2   7   2 10776.2 818.537   1
  -2   7   3 22667.0 1244.07   1
  -2   7   3 20298.5 695.895   5
  -2   7   4 33031.9 804.960   5
  -2   7   4 32629.9 1584.86   1
  -2   7   5 35256.9 747.760   5
  -2   7   5 42158.3 1857.37   1
  -2   7   6 18071.2 1268.67   1
  -2   7   7 215.035 167.171   1
  -2   7   8 431.554 196.104   1
  -2   7   9 1292.32 421.757   1
  -2   7  10 4801.05 768.108   1
  -2   7  11 2642.51 627.111   1
  -2   8  -2 1811.03 344.681   1
  -2   8  -1 14986.6 952.314   1
  -2   8   0 38281.2 1600.54   1
  -2   8   0 35322.3 1047.94   6
  -2   8   1 21387.0 1219.18   1
  -2   8   1 19543.2 567.605   6
  -2   8   2 6789.25 698.322   1
  -2   8   3 30439.0 1557.23   1
  -2   8   3 28507.1 943.121   5
  -2   8   4 52218.9 1202.39   5
  -2   8   4 54603.8 2214.15   1
  -2   8   5 31811.6 1719.77   1
  -2   8   6 5529.30 722.597   1
  -2   8   7 416.886 263.580   1
  -2   8   8 1096.03 348.888   1
  -2   8   9 4621.36 760.709   1
  -2   8  10 7125.57 1017.63   1
  -2   9  -2 11872.3 890.289   1
  -2   9  -1 40477.4 1718.90   1
  -2   9   0 39235.1 1730.09   1
  -2   9   0 35357.8 1048.09   6
  -2   9   1 22522.1 1342.21   1
  -2   9   2 9729.71 887.399   1
  -2   9   2 7092.16 547.697   5
  -2   9   3 15052.8 1157.53   1
  -2   9   4 10620.6 1003.49   1
  -2   9   5 17231.2 1337.27   1
  -2   9   6 409.243 220.903   1
  -2   9   7 515.240 285.454   1
  -2   9   8 186.704 102.111   1
  -2   9   9 98.1320 221.831   1
  -2  10  -2 1801.83 384.483   1
  -2  10  -1 7093.58 746.253   1
  -2  10   0 6994.17 747.497   1
  -2  10   1 5015.93 662.461   1
  -2  10   2 6844.83 776.973   1
  -2  10   3 17037.3 1291.77   1
  -2  10   4 22328.9 1551.69   1
  -2  10   5 14723.2 1276.16   1
  -2  10   6 790.719 342.547   1
  -2  10   7-92.0700 140.226   1
  -2  10   8 902.831 366.332   1
  -2  11  -2 6504.55 752.494   1
  -2  11  -1 18915.9 1300.72   1
  -2  11   0 35110.9 1845.34   1
  -2  11   1 17105.8 1310.65   1
  -2  11   2 30164.3 1798.03   1
  -2  11   3 32487.9 1935.76   1
  -2  11   4 22991.0 1663.46   1
  -2  11   5 13980.7 1341.19   1
  -2  11   6 2064.39 552.127   1
  -2  11   7 66.4675 221.966   1
  -2  12  -2 2074.15 444.018   1
  -2  12  -1 4976.42 706.786   1
  -2  12   0 14641.6 1242.49   1
  -2  12   1 5960.05 824.966   1
  -2  12   2 9074.13 1031.09   1
  -2  12   3 9938.65 1110.33   1
  -2  12   4 7204.41 988.655   1
  -2  12   5 1665.49 478.515   1
  -2  13  -2 4279.93 673.636   1
  -2  13  -1 8467.48 987.200   1
  -2  13   0 11143.6 1149.94   1
  -2  13   1 8971.71 1042.50   1
  -2  13   2 6312.00 920.059   1
  -2  13   3 10918.2 1229.55   1
  -2  13   4 10871.1 1271.02   1
  -2  14  -2 6366.99 859.181   1
  -2  14  -1 10266.6 1118.73   1
  -2  14   0 7073.46 970.552   1
  -2  14   1 3050.16 635.239   1
  -1 -13   1 3490.36 628.021   4
  -1 -13   2 2448.13 534.268   4
  -1 -13   3 144.414 155.830   4
  -1 -13   4 3300.40 606.587   4
  -1 -13   5 9007.35 1007.76   4
  -1 -12   1 6181.16 810.429   4
  -1 -12   2 936.349 284.504   4
  -1 -12   3 576.726 234.157   4
  -1 -12   4 6182.65 782.578   4
  -1 -12   5 13463.7 1159.38   4
  -1 -12   6 11231.7 1071.44   4
  -1 -12   7 8768.66 948.517   4
  -1 -11   2 429.489 194.862   4
  -1 -11   3 3584.40 575.435   4
  -1 -11   4 12451.5 1058.69   4
  -1 -11   5 30026.9 1664.45   4
  -1 -11   6 19734.0 1349.09   4
  -1 -11   7 11649.1 1035.88   4
  -1 -11   8 12176.4 1074.92   4
  -1 -11   9 5912.40 766.693   4
  -1 -10   2 723.672 238.166   4
  -1 -10   3 5771.80 672.258   4
  -1 -10   4 13705.6 1045.60   4
  -1 -10   5 36430.2 1740.95   4
  -1 -10   6 23793.7 1413.14   4
  -1 -10   7 10557.1 924.481   4
  -1 -10   8 13251.9 1084.46   4
  -1 -10   9 5833.17 735.044   4
  -1 -10  10 2763.11 527.206   4
  -1  -9   2 1348.82 336.070   4
  -1  -9   3 2972.45 456.682   4
  -1  -9   4 2929.33 441.599   4
  -1  -9   5 9186.05 808.616   4
  -1  -9   6 11074.6 882.483   4
  -1  -9   7 6187.47 681.778   4
  -1  -9   8 6202.35 699.767   4
  -1  -9   9 5253.31 664.749   4
  -1  -9  10 3667.91 582.861   4
  -1  -9  11 884.004 274.478   4
  -1  -8   2-19.7068 126.448   4
  -1  -8   3 1412.42 298.890   4
  -1  -8   4 15034.8 870.290   1
  -1  -8   4 18751.7 1067.41   4
  -1  -8   5 44670.9 1708.31   4
  -1  -8   5 35393.4 1369.77   1
  -1  -8   6 50621.7 1851.06   4
  -1  -8   6 39852.7 1449.06   1
  -1  -8   7 17829.5 1108.08   4
  -1  -8   8 23789.0 1326.36   4
  -1  -8   9 3587.90 511.153   4
  -1  -8  10 2898.41 495.557   4
  -1  -8  11 1062.48 327.675   4
  -1  -7   2 110.805 87.2443   1
  -1  -7   2 264.418 74.4743   4
  -1  -7   3 915.510 194.022   1
  -1  -7   3 821.750 187.289   4
  -1  -7   4 9945.39 647.645   1
  -1  -7   4 10861.8 758.559   4
  -1  -7   5 27576.4 1245.58   4
  -1  -7   5 24522.3 1021.11   1
  -1  -7   6 26443.6 1081.40   1
  -1  -7   6 32604.6 1374.92   4
  -1  -7   7 595.731 147.758   1
  -1  -7   7 589.008 185.325   4
  -1  -7   8 10570.2 827.647   4
  -1  -7   9 229.207 140.748   4
  -1  -7  10 181.590 157.327   4
  -1  -7  11-4.53495 92.8019   4
  -1  -7  12 1854.16 427.833   4
  -1  -6  -7 11578.6 782.895   5
  -1  -6  -6 53395.6 1721.43   5
  -1  -6  -5 43995.2 1469.83   5
  -1  -6  -5 39399.5 1098.63   6
  -1  -6   0 9439.85 665.292   1
  -1  -6   1 13327.5 741.488   1
  -1  -6   2 199.522 96.1772   1
  -1  -6   2 386.335 149.866   4
  -1  -6   3 21020.7 994.000   4
  -1  -6   3 21699.6 897.069   1
  -1  -6   4 58112.1 1771.37   4
  -1  -6   4 59745.3 1582.78   1
  -1  -6   5 113218. 2401.74   1
  -1  -6   5 113828. 2709.38   4
  -1  -6   6 94066.0 2172.08   1
  -1  -6   6 101467. 2546.63   4
  -1  -6   7 14812.9 750.904   1
  -1  -6   7 17266.5 975.507   4
  -1  -6   8 17139.0 1024.85   4
  -1  -6   9 7267.10 702.403   4
  -1  -6  10 1311.93 338.169   4
  -1  -6  11 209.474 182.228   4
  -1  -6  12 901.947 264.840   4
  -1  -5  -8 1106.34 244.814   5
  -1  -5  -7 21359.1 1041.12   5
  -1  -5  -6 39555.1 1314.09   6
  -1  -5  -6 47464.8 1513.61   5
  -1  -5  -5 56845.9 1483.54   6
  -1  -5  -5 64081.2 1731.71   5
  -1  -5  -4 37958.8 1028.06   6
  -1  -5  -4 38256.3 1255.48   5
  -1  -5  -3 14831.6 713.971   5
  -1  -5   0 3327.06 353.836   1
  -1  -5   1 25236.4 960.657   1
  -1  -5   2 169.118 73.7715   1
  -1  -5   2 291.420 110.183   4
  -1  -5   3 49469.9 1304.67   1
  -1  -5   3 48109.7 1455.32   4
  -1  -5   4 67911.9 1566.72   1
  -1  -5   4 66561.8 1799.75   4
  -1  -5   5 191183. 3358.43   1
  -1  -5   5 195180. 3737.00   4
  -1  -5   6 105726. 2206.99   1
  -1  -5   6 108970. 2566.25   4
  -1  -5   7 33196.8 1329.22   4
  -1  -5   7 28709.7 1029.41   1
  -1  -5   8 15092.7 924.926   4
  -1  -5   9 14872.1 979.587   4
  -1  -5  10 3223.62 496.961   4
  -1  -5  11 558.684 237.776   4
  -1  -5  12 8925.26 916.872   4
  -1  -5  13 10219.2 1038.61   4
  -1  -4  -9 9121.96 735.182   5
  -1  -4  -8 7144.97 610.370   5
  -1  -4  -7 28253.9 1190.00   5
  -1  -4  -6 59916.0 1707.50   5
  -1  -4  -5 49341.1 1438.37   5
  -1  -4  -4 41539.0 1216.35   5
  -1  -4  -4 35573.7 1057.69   6
  -1  -4  -3 19839.9 653.546   6
  -1  -4  -3 22029.4 816.486   5
  -1  -4  -2 33226.3 1016.64   5
  -1  -4   0 1614.85 220.777   1
  -1  -4   1 12981.8 575.888   1
  -1  -4   2 2432.45 273.654   4
  -1  -4   2 2358.75 221.731   1
  -1  -4   3 59104.7 1299.57   1
  -1  -4   3 54656.0 1465.34   4
  -1  -4   4 128971. 2701.86   3
  -1  -4   4 127268. 2285.33   1
  -1  -4   4 129469. 2605.48   4
  -1  -4   5 164694. 2825.19   1
  -1  -4   5 161293. 3178.31   4
  -1  -4   6 72941.3 1949.86   4
  -1  -4   7 23770.4 1077.14   4
  -1  -4   8 6073.96 573.671   4
  -1  -4   9 2344.85 390.122   4
  -1  -4  10 1452.55 326.973   4
  -1  -4  11 3175.05 524.059   4
  -1  -4  12 15554.2 1199.38   4
  -1  -4  13 10060.1 1021.35   4
  -1  -3 -10 5327.66 604.850   5
  -1  -3  -9 2770.55 325.231   3
  -1  -3  -9 2690.41 400.251   5
  -1  -3  -8 1591.50 292.888   5
  -1  -3  -7 14387.1 828.201   5
  -1  -3  -6 27989.6 1092.09   5
  -1  -3  -5 21587.1 873.491   5
  -1  -3  -4 18077.4 734.839   5
  -1  -3  -3 1230.02 172.615   5
  -1  -3  -3 921.684 141.725   6
  -1  -3  -2 73119.8 1389.14   6
  -1  -3  -2 70866.5 1535.55   5
  -1  -3  -1 1538.53 176.532   5
  -1  -3   1 6747.66 344.085   1
  -1  -3   2 337.392 63.4715   1
  -1  -3   2 508.313 118.388   4
  -1  -3   3 2630.52 271.184   3
  -1  -3   3 2679.51 184.957   1
  -1  -3   3 2857.47 261.782   4
  -1  -3   4 57229.9 1481.41   3
  -1  -3   4 56225.5 1431.21   4
  -1  -3   5 78254.2 1907.37   3
  -1  -3   5 81382.6 1905.93   4
  -1  -3   6 29525.3 1105.71   4
  -1  -3   7 991.485 148.179   2
  -1  -3   7 898.614 222.153   4
  -1  -3   8 145.133 102.315   4
  -1  -3   8 121.326 55.7173   2
  -1  -3   9 63.4918 50.7027   2
  -1  -3   9 23.8606 68.9147   4
  -1  -3  10 5718.52 627.687   4
  -1  -3  11 4886.25 635.026   4
  -1  -3  12 15323.7 1198.48   4
  -1  -2 -11 3159.55 509.380   5
  -1  -2 -10 11722.0 911.400   5
  -1  -2  -9 12345.0 673.056   3
  -1  -2  -9 12232.1 884.467   5
  -1  -2  -8 6075.69 439.484   3
  -1  -2  -8 6199.09 587.201   5
  -1  -2  -7 52685.4 1688.68   5
  -1  -2  -6 82529.6 2065.97   5
  -1  -2  -5 125704. 2580.38   5
  -1  -2  -4 122456. 2399.24   5
  -1  -2  -3 46728.7 1166.37   5
  -1  -2  -2 42911.1 1015.40   5
  -1  -2  -2 40124.7 953.468   6
  -1  -2  -1 11805.8 392.083   6
  -1  -2  -1 12049.3 457.619   5
  -1  -2   1 2604.41 158.807   1
  -1  -2   1 2324.18 195.624   4
  -1  -2   2 305.960 66.7012   3
  -1  -2   2 224.390 39.1433   1
  -1  -2   2 356.582 81.8312   4
  -1  -2   3 962.390 145.487   4
  -1  -2   3 1041.56 162.949   3
  -1  -2   4 23071.3 804.560   3
  -1  -2   4 22741.7 793.490   4
  -1  -2   5 88368.5 1970.03   3
  -1  -2   5 91906.9 1703.25   2
  -1  -2   5 89203.8 1981.07   4
  -1  -2   6 4878.73 417.421   4
  -1  -2   6 4344.94 325.884   2
  -1  -2   6 4805.11 405.191   3
  -1  -2   7 3033.72 362.525   4
  -1  -2   7 2268.64 270.027   2
  -1  -2   8-90.8803 91.4896   4
  -1  -2   8 51.0438 63.3312   2
  -1  -2   9 6.48592 65.7440   4
  -1  -2   9-28.9766 66.5122   2
  -1  -2  10 4318.47 556.487   4
  -1  -2  12 11911.6 987.094   1
  -1  -1 -11 5753.84 696.607   5
  -1  -1 -10 13779.6 1007.68   5
  -1  -1 -10 13694.6 750.138   3
  -1  -1  -9 29879.3 1079.34   3
  -1  -1  -9 30445.9 1425.69   5
  -1  -1  -8 208.071 90.4647   3
  -1  -1  -8 147.089 112.107   5
  -1  -1  -7 55903.4 1384.02   3
  -1  -1  -7 55205.4 1757.15   5
  -1  -1  -6 51096.6 1219.97   3
  -1  -1  -6 48281.2 1517.04   5
  -1  -1  -5 25661.0 967.176   5
  -1  -1  -5 24826.3 1003.08   4
  -1  -1  -4 12079.4 613.368   4
  -1  -1  -4 13217.1 624.164   5
  -1  -1  -3 19505.5 687.259   5
  -1  -1  -2 14824.2 524.467   5
  -1  -1  -1 25986.0 649.760   5
  -1  -1  -1 25276.0 632.177   6
  -1  -1   0 82025.6 1415.76   5
  -1  -1   1 14435.2 422.984   3
  -1  -1   1 14010.6 403.511   4
  -1  -1   2 6352.35 303.006   3
  -1  -1   2 6529.13 298.210   4
  -1  -1   3 81244.3 1580.37   3
  -1  -1   3 82612.0 1604.07   4
  -1  -1   3 81932.7 1447.03   2
  -1  -1   4 198570. 3325.85   4
  -1  -1   4 191937. 3159.62   2
  -1  -1   5 347093. 5470.80   4
  -1  -1   5 337076. 5317.85   2
  -1  -1   6 32618.5 1161.16   4
  -1  -1   6 32885.6 1107.75   2
  -1  -1   7 10184.8 668.433   4
  -1  -1   7 9496.08 621.675   2
  -1  -1   8 436.957 131.768   4
  -1  -1   8 357.702 126.161   2
  -1  -1   9 1604.23 332.034   4
  -1  -1  11 17284.5 1166.64   1
  -1  -1  12 15543.2 1175.65   1
  -1  -1  13 5359.69 727.025   1
  -1   0 -12 988.949 299.849   5
  -1   0 -11 5829.24 717.220   5
  -1   0 -10 5203.91 625.938   5
  -1   0 -10 4195.31 413.087   3
  -1   0  -9 6129.36 642.282   5
  -1   0  -9 5520.69 444.074   3
  -1   0  -8 520.710 183.160   5
  -1   0  -8 315.841 116.927   3
  -1   0  -7 50316.8 1303.70   3
  -1   0  -7 48450.6 1660.55   5
  -1   0  -6 77680.1 2081.26   5
  -1   0  -6 82147.9 1680.25   3
  -1   0  -5 63506.3 1302.58   3
  -1   0  -5 58915.2 1643.50   5
  -1   0  -5 59777.0 1628.70   4
  -1   0  -4 22503.5 848.711   5
  -1   0  -4 22938.8 608.798   3
  -1   0  -3 2221.32 141.177   3
  -1   0  -3 2193.31 228.551   5
  -1   0  -3 2267.42 209.393   4
  -1   0  -2 4009.47 146.148   3
  -1   0  -2 4195.86 281.885   5
  -1   0  -2 3761.64 228.335   4
  -1   0  -1 6734.51 301.661   5
  -1   0  -1 6770.80 230.014   4
  -1   0   2 225702. 3246.43   1
  -1   0   2 221226. 3337.79   4
  -1   0   2 226152. 3372.57   2
  -1   0   3 276625. 4233.04   4
  -1   0   3 277177. 4263.45   2
  -1   0   4 258232. 4160.17   4
  -1   0   4 256072. 4219.66   2
  -1   0   5 396629. 6245.17   4
  -1   0   5 403342. 6358.92   2
  -1   0   6 80476.0 2007.76   4
  -1   0   6 79853.9 2074.92   2
  -1   0   7 1143.41 243.390   2
  -1   0  10 5092.03 611.601   1
  -1   0  11 15637.7 1138.76   1
  -1   0  12 18686.4 1331.49   1
  -1   0  13 2977.82 568.154   1
  -1   1 -13 3489.01 618.227   5
  -1   1 -12 360.202 206.359   5
  -1   1 -11 3696.00 581.438   5
  -1   1 -10 8748.90 863.403   5
  -1   1  -9 10626.3 872.040   5
  -1   1  -9 8846.42 586.331   3
  -1   1  -8 6939.52 487.082   3
  -1   1  -8 6646.70 658.897   5
  -1   1  -7 43883.0 1615.52   5
  -1   1  -7 41585.3 1202.56   3
  -1   1  -6 113244. 2699.83   5
  -1   1  -6 113564. 2195.07   3
  -1   1  -5 54723.0 1623.90   5
  -1   1  -5 51737.5 1484.73   4
  -1   1  -4 12896.5 468.484   3
  -1   1  -4 11511.4 626.044   5
  -1   1  -4 10865.1 544.784   4
  -1   1  -3 11698.7 488.744   4
  -1   1  -2 38974.1 862.942   4
  -1   1  -1 4135.44 183.030   4
  -1   1   0 140151. 2097.76   5
  -1   1   0 140527. 2128.95   6
  -1   1   1 53676.4 1095.48   2
  -1   1   1 55375.5 1069.98   1
  -1   1   2 169497. 2746.55   1
  -1   1   2 170377. 2840.60   2
  -1   1   3 959204. 13298.8   1
  -1   1   3 999999. 13529.9   2
  -1   1   4 348718. 5630.16   2
  -1   1   4 339371. 5379.23   1
  -1   1   5 213242. 4075.64   2
  -1   1   5 219302. 3881.04   1
  -1   1   6 19473.7 907.737   1
  -1   1   6 18935.0 984.256   2
  -1   1   7 336.169 149.091   1
  -1   1   8 2768.13 396.788   1
  -1   1   9 14123.8 986.785   1
  -1   1  10 14191.2 1052.88   1
  -1   1  11 20917.7 1371.52   1
  -1   1  12 23366.5 1545.06   1
  -1   1  13 1067.83 366.886   1
  -1   1  14 2912.78 582.464   1
  -1   2 -13 1992.62 499.270   5
  -1   2 -12 797.083 301.202   5
  -1   2 -11 10454.7 1016.48   5
  -1   2 -10 12295.0 1046.78   5
  -1   2  -9 8918.94 840.045   5
  -1   2  -8 16156.0 1058.19   5
  -1   2  -7 70033.4 2195.81   5
  -1   2  -5 52573.0 1504.87   4
  -1   2  -4 73337.7 1709.46   4
  -1   2  -3 2623.70 245.058   4
  -1   2  -2 5935.29 323.319   4
  -1   2   0 364552. 5309.69   1
  -1   2   1 145147. 2531.84   2
  -1   2   1 146603. 2516.02   1
  -1   2   2 42157.5 1104.78   1
  -1   2   2 41445.0 1161.91   2
  -1   2   3 14679.5 655.576   1
  -1   2   3 15230.8 731.946   2
  -1   2   4 6384.32 458.471   1
  -1   2   4 7429.14 556.582   2
  -1   2   5 6.15710 97.6092   1
  -1   2   5 122.664 56.4103   2
  -1   2   6 67220.7 1953.47   1
  -1   2   7 41761.9 1583.98   1
  -1   2   8 2381.31 401.626   1
  -1   2   9 19000.9 1192.38   1
  -1   2  10 9711.46 917.063   1
  -1   2  11 19492.3 1378.55   1
  -1   2  12 14846.2 1281.17   1
  -1   2  13 2311.20 540.340   1
  -1   2  14 2345.87 573.186   1
  -1   3 -13 327.464 238.196   5
  -1   3 -12 1374.06 383.015   5
  -1   3 -11 9386.37 989.231   5
  -1   3 -10 12017.8 1055.77   5
  -1   3  -9 9345.52 883.932   5
  -1   3  -5 250.902 86.5752   4
  -1   3  -4 3086.90 315.644   4
  -1   3  -3 332.132 118.670   4
  -1   3  -2 4081.08 321.387   4
  -1   3  -1 21922.8 717.080   1
  -1   3   0 104667. 1984.46   1
  -1   3   0 93997.3 1886.46   2
  -1   3   1 72094.1 1650.18   2
  -1   3   1 72086.3 1649.70   1
  -1   3   2 45123.3 812.566   5
  -1   3   2 45798.5 1357.12   2
  -1   3   2 45025.5 1273.51   1
  -1   3   3 1068.79 94.7026   5
  -1   3   3 1025.13 181.342   1
  -1   3   3 1397.23 243.726   2
  -1   3   4 15881.8 805.456   1
  -1   3   4 14790.7 862.477   2
  -1   3   5 9602.77 668.312   1
  -1   3   6 1927.77 312.023   1
  -1   3   7 12144.1 880.441   1
  -1   3   8 8899.05 800.267   1
  -1   3   9 2502.14 457.567   1
  -1   3  10 6916.67 795.878   1
  -1   3  11 13811.1 1207.97   1
  -1   3  12 8538.79 1013.76   1
  -1   3  13 2155.05 553.634   1
  -1   4 -13 373.139 238.066   5
  -1   4 -12 4220.58 703.022   5
  -1   4 -11 14463.0 1250.33   5
  -1   4 -10 22881.2 1519.39   5
  -1   4  -4 1498.15 258.017   4
  -1   4  -3 45.8147 63.1351   4
  -1   4  -1 33471.4 1019.93   1
  -1   4   0 149759. 2844.11   1
  -1   4   0 148126. 2785.50   2
  -1   4   1 83505.2 1999.00   2
  -1   4   1 86915.1 2005.32   1
  -1   4   2 20002.5 954.148   2
  -1   4   2 21782.8 918.531   1
  -1   4   2 21568.7 591.413   5
  -1   4   3 50965.4 984.928   5
  -1   4   3 48009.3 1646.04   2
  -1   4   3 48132.6 1538.32   1
  -1   4   4 9897.75 676.396   1
  -1   4   4 9077.32 369.192   5
  -1   4   5 5261.10 531.538   1
  -1   4   6 3005.70 433.689   1
  -1   4   7 6716.76 701.630   1
  -1   4   8 421.992 224.016   1
  -1   4   9 9833.75 947.116   1
  -1   4  10 25365.0 1627.69   1
  -1   4  11 29963.6 1881.75   1
  -1   4  12 13605.0 1331.59   1
  -1   4  13 2038.55 536.304   1
  -1   5 -12 6805.18 934.448   5
  -1   5 -11 7353.75 924.335   5
  -1   5  -2 28582.7 1003.83   1
  -1   5  -1 138678. 2772.49   1
  -1   5  -1 137721. 2628.78   2
  -1   5   0 308651. 5232.60   1
  -1   5   0 312198. 5216.09   2
  -1   5   1 181773. 3495.79   1
  -1   5   1 179709. 3517.36   2
  -1   5   1 170292. 2472.61   6
  -1   5   2 70337.7 2060.14   2
  -1   5   2 68655.5 1950.17   1
  -1   5   2 69931.9 1465.64   5
  -1   5   3 104360. 2651.82   1
  -1   5   3 109615. 1895.11   5
  -1   5   4 41610.1 1594.21   1
  -1   5   4 42017.3 962.661   5
  -1   5   5 30359.1 1403.32   1
  -1   5   5 29141.6 819.599   5
  -1   5   6 1574.49 336.271   1
  -1   5   7 974.048 273.084   1
  -1   5   8 999.832 347.381   1
  -1   5   9 6655.00 824.652   1
  -1   5  10 13065.7 1210.66   1
  -1   5  11 13396.0 1305.22   1
  -1   5  12 7818.76 1067.69   1
  -1   6 -12 1380.85 441.611   5
  -1   6  -2 7317.88 524.646   1
  -1   6  -1 90917.3 2156.93   2
  -1   6  -1 99594.6 2336.42   1
  -1   6   0 130093. 2904.77   1
  -1   6   0 129011. 2862.13   2
  -1   6   1 137990. 3097.33   1
  -1   6   1 129499. 3070.02   2
  -1   6   2 56867.6 1862.30   1
  -1   6   2 54558.9 1388.59   5
  -1   6   3 72169.4 1519.53   5
  -1   6   3 73035.1 2254.36   1
  -1   6   4 46372.9 1108.53   5
  -1   6   4 47267.1 1835.78   1
  -1   6   5 10220.4 464.879   5
  -1   6   5 9572.49 828.984   1
  -1   6   6 180.705 172.739   1
  -1   6   7 5609.53 695.677   1
  -1   6   8 3922.55 611.984   1
  -1   6   9 19791.7 1495.49   1
  -1   6  10 24733.3 1755.36   1
  -1   6  11 10788.9 1216.79   1
  -1   7  -2 5390.38 499.301   1
  -1   7  -1 55610.9 1766.75   1
  -1   7  -1 53467.0 1646.80   2
  -1   7   0 100375. 2627.98   1
  -1   7   0 97090.9 2549.58   2
  -1   7   1 61449.3 2012.75   1
  -1   7   2 9533.09 765.093   1
  -1   7   2 9215.42 551.667   5
  -1   7   3 2449.97 251.459   5
  -1   7   3 2683.64 423.771   1
  -1   7   4 1036.60 293.296   1
  -1   7   4 983.561 153.855   5
  -1   7   5 5030.35 340.331   5
  -1   7   5 4950.83 622.411   1
  -1   7   6 14708.3 1145.51   1
  -1   7   7 11803.9 1083.32   1
  -1   7   8 6222.12 826.439   1
  -1   7   9 8190.20 995.456   1
  -1   7  10 24637.0 1839.55   1
  -1   8  -2 9182.11 714.203   1
  -1   8  -1 28376.4 1295.93   1
  -1   8  -1 23969.8 1119.00   2
  -1   8   0 32509.2 1475.56   1
  -1   8   1 22691.0 1253.57   1
  -1   8   2 3812.02 520.790   1
  -1   8   2 3124.20 341.600   5
  -1   8   3 3161.92 313.027   5
  -1   8   3 2841.20 476.620   1
  -1   8   4 2902.81 290.081   5
  -1   8   4 4117.85 589.102   1
  -1   8   5 2791.38 512.882   1
  -1   8   6 1598.51 417.951   1
  -1   8   7 971.850 332.515   1
  -1   8   8 1011.09 321.371   1
  -1   8   9 4947.27 825.357   1
  -1   8  10 11123.9 1282.61   1
  -1   9  -3 1226.88 277.783   1
  -1   9  -2 4609.46 535.465   1
  -1   9  -1 23175.7 1267.92   1
  -1   9   0 37334.8 1698.70   1
  -1   9   1 16520.6 1129.69   1
  -1   9   2 5582.19 680.068   1
  -1   9   3 745.073 257.539   1
  -1   9   4 542.028 230.574   1
  -1   9   5 44.4130 170.892   1
  -1   9   6 4301.63 691.731   1
  -1   9   7 2734.82 576.449   1
  -1   9   8 4860.37 824.262   1
  -1   9   9 9439.72 1168.94   1
  -1  10  -3 12109.6 922.441   1
  -1  10  -2 13993.0 1025.60   1
  -1  10  -1 35770.8 1704.09   1
  -1  10   0 55633.7 2248.98   1
  -1  10   1 11863.1 1021.02   1
  -1  10   2 14937.8 1190.36   1
  -1  10   3 4343.05 670.873   1
  -1  10   4 1245.40 385.469   1
  -1  10   5 162.212 153.679   1
  -1  10   6 1931.88 509.525   1
  -1  10   7 5766.66 898.010   1
  -1  10   8 10116.5 1225.16   1
  -1  11  -3 12925.3 1019.84   1
  -1  11  -2 16134.4 1166.42   1
  -1  11  -1 29009.8 1612.29   1
  -1  11   0 50649.0 2272.09   1
  -1  11   1 10809.2 1052.01   1
  -1  11   2 3894.73 641.615   1
  -1  11   3 3454.14 647.457   1
  -1  11   4 2463.52 557.180   1
  -1  11   5 738.549 325.605   1
  -1  11   6 4808.79 825.500   1
  -1  12  -3 16951.6 1234.95   1
  -1  12  -2 17186.3 1281.84   1
  -1  12  -1 17353.2 1319.76   1
  -1  12   0 21871.1 1539.46   1
  -1  12   1 15103.9 1316.86   1
  -1  12   2 7875.95 964.056   1
  -1  12   3 2556.72 579.645   1
  -1  12   4 355.536 139.527   1
  -1  12   5 649.965 356.896   1
  -1  13  -3 7466.00 863.455   1
  -1  13  -2 6973.31 868.290   1
  -1  13  -1 7903.20 940.967   1
  -1  13   0 8072.04 977.283   1
  -1  13   1 4073.32 708.968   1
  -1  13   2 2009.60 521.419   1
  -1  13   3 1100.02 369.840   1
  -1  14  -2 3075.04 604.580   1
  -1  14  -1 9440.99 1068.96   1
  -1  14   0 7835.49 1010.48   1
  -1  14   1 1509.45 435.573   1
  -1  14   2 430.107 238.208   1
   0 -13   1 2934.06 592.871   4
   0 -13   2 6506.21 859.555   4
   0 -13   3 7558.70 929.281   4
   0 -13   4 9339.33 1008.08   4
   0 -13   5 10600.5 1075.61   4
   0 -12   1 8845.58 971.889   4
   0 -12   2 9744.46 1008.71   4
   0 -12   3 11810.2 1100.31   4
   0 -12   4 14113.8 1191.96   4
   0 -12   5 12837.3 1125.32   4
   0 -12   6 5854.28 755.119   4
   0 -12   7 4279.10 659.599   4
   0 -11   2 32862.1 1763.82   4
   0 -11   3 25396.7 1519.99   4
   0 -11   4 18893.9 1292.63   4
   0 -11   5 31247.3 1692.48   4
   0 -11   6 18066.9 1280.62   4
   0 -11   7 5009.13 675.326   4
   0 -11   8 3918.70 609.710   4
   0 -11   9 517.636 272.540   4
   0 -10   2 6950.50 733.098   4
   0 -10   3 14112.7 1059.54   4
   0 -10   4 13369.8 1016.37   4
   0 -10   5 17153.8 1168.16   4
   0 -10   6 11597.1 962.623   4
   0 -10   7 3218.02 511.870   4
   0 -10   8 1407.33 354.647   4
   0 -10   9 388.994 208.613   4
   0 -10  10 3208.24 562.763   4
   0  -9   2 11624.0 904.860   4
   0  -9   3 24104.9 1300.75   4
   0  -9   4 27137.8 1385.56   4
   0  -9   5 14482.7 1007.28   4
   0  -9   6 6936.68 696.086   4
   0  -9   7 3381.07 495.000   4
   0  -9   8 6102.57 687.684   4
   0  -9   9 148.287 182.929   4
   0  -9  10 990.631 319.223   4
   0  -9  11 3693.33 624.216   4
   0  -8   2 10238.3 779.649   4
   0  -8   3 6974.95 636.375   4
   0  -8   4 12224.2 844.107   4
   0  -8   5 27656.6 1310.32   4
   0  -8   6 16089.6 1003.97   4
   0  -8   7 193.420 120.068   4
   0  -8   8 7883.00 746.208   4
   0  -8   9 431.953 153.504   4
   0  -8  10 6357.09 718.502   4
   0  -8  11 10691.3 1001.89   4
   0  -7   2 22269.0 1103.07   4
   0  -7   2 22687.2 1097.55   1
   0  -7   3 24947.7 1144.82   4
   0  -7   3 22891.6 1077.16   1
   0  -7   4 11667.9 748.074   1
   0  -7   4 13255.7 822.430   4
   0  -7   5 8282.54 623.042   1
   0  -7   5 9184.74 686.846   4
   0  -7   6 9110.63 705.964   4
   0  -7   7 769.418 211.210   4
   0  -7   8 4960.86 562.726   4
   0  -7   9 94.1556 108.930   4
   0  -7  10 11841.5 980.116   4
   0  -7  11 21339.8 1404.84   4
   0  -7  12 13459.3 1152.27   4
   0  -6  -7 26365.4 1062.40   5
   0  -6  -6 24194.2 967.901   5
   0  -6  -5 6122.82 311.300   6
   0  -6   0 45636.3 1561.97   1
   0  -6   1 103234. 2487.95   1
   0  -6   2 61791.4 1789.56   1
   0  -6   2 64777.6 1843.39   4
   0  -6   3 78449.7 2039.31   1
   0  -6   3 81690.2 2109.45   4
   0  -6   4 37153.0 1294.31   1
   0  -6   4 39396.9 1375.46   4
   0  -6   5 61659.4 1761.90   1
   0  -6   5 64660.0 1860.57   4
   0  -6   6 29319.5 1171.42   1
   0  -6   6 33185.0 1317.75   4
   0  -6   7 1922.00 326.183   4
   0  -6   8 1356.33 297.348   4
   0  -6   9 15018.0 999.676   4
   0  -6  10 54720.5 2148.52   4
   0  -6  11 48261.1 2113.83   4
   0  -6  12 26475.7 1624.68   4
   0  -5  -8 6511.45 525.954   5
   0  -5  -7 24135.2 990.167   5
   0  -5  -6 23471.0 913.675   5
   0  -5  -5 6760.73 446.932   5
   0  -5  -4 211.280 58.1603   6
   0  -5  -4 235.686 88.0760   5
   0  -5  -1 111050. 2571.68   1
   0  -5   0 441227. 7118.95   1
   0  -5   1 515704. 7946.82   1
   0  -5   2 135559. 2749.38   1
   0  -5   2 138722. 2833.58   4
   0  -5   3 124197. 2553.99   1
   0  -5   3 123779. 2607.71   4
   0  -5   4 77635.1 1858.95   1
   0  -5   4 78069.8 1951.88   4
   0  -5   5 54403.7 1531.04   1
   0  -5   5 56672.3 1635.14   4
   0  -5   6 13111.3 766.986   4
   0  -5   6 10978.0 655.346   1
   0  -5   7 806.152 216.448   4
   0  -5   8 5058.92 519.947   4
   0  -5   9 12439.9 909.756   4
   0  -5  10 32613.8 1589.61   4
   0  -5  11 22879.9 1398.07   4
   0  -5  12 10314.7 991.196   4
   0  -5  13 222.166 183.144   4
   0  -4  -9 13496.5 815.041   5
   0  -4  -8 8158.94 590.796   5
   0  -4  -7 14415.3 737.931   5
   0  -4  -6 14333.1 673.605   5
   0  -4  -5 7967.83 458.806   5
   0  -4  -4 4462.06 322.895   5
   0  -4  -3 5216.87 242.391   6
   0  -4  -3 5115.86 330.843   5
   0  -4  -2 9410.42 608.135   1
   0  -4  -1 49045.1 1430.16   1
   0  -4   0 143548. 2783.14   1
   0  -4   1 114903. 2320.27   1
   0  -4   2 29844.9 930.909   1
   0  -4   2 28403.5 955.440   4
   0  -4   3 4616.63 340.517   1
   0  -4   3 4565.43 357.435   4
   0  -4   4 14198.9 631.392   1
   0  -4   4 14676.4 727.248   3
   0  -4   4 14857.4 691.615   4
   0  -4   5 20334.2 867.887   4
   0  -4   6 104.034 34.9331   2
   0  -4   6 182.022 107.897   4
   0  -4   7 854.056 194.188   4
   0  -4   7 521.410 91.2606   2
   0  -4   8 4570.35 500.721   4
   0  -4   8 4045.96 305.007   2
   0  -4   9 11359.3 845.177   4
   0  -4  10 40368.3 1760.15   4
   0  -4  11 11309.9 971.635   4
   0  -4  12 5309.21 706.969   4
   0  -3 -10 24721.0 1137.68   3
   0  -3 -10 23654.8 1204.46   5
   0  -3  -9 29193.8 1272.08   5
   0  -3  -8 12618.0 757.106   5
   0  -3  -7 55146.7 1582.68   5
   0  -3  -6 22613.4 873.189   5
   0  -3  -5 407.983 109.266   5
   0  -3  -4 2306.12 211.623   5
   0  -3  -3 3735.58 247.556   5
   0  -3  -2 44154.9 798.236   6
   0  -3  -2 48349.9 1010.78   5
   0  -3  -1 831.429 149.718   1
   0  -3   0 152758. 2695.43   1
   0  -3   1 113455. 2087.09   1
   0  -3   2 1501.24 201.324   4
   0  -3   2 685.140 121.773   1
   0  -3   3 1520.99 200.132   4
   0  -3   3 1181.59 159.732   1
   0  -3   4 7862.05 456.222   4
   0  -3   4 7570.79 464.395   3
   0  -3   5 51268.8 1391.92   3
   0  -3   5 53813.0 1436.39   4
   0  -3   6 1197.12 237.330   4
   0  -3   6 959.666 201.209   3
   0  -3   6 721.518 136.149   2
   0  -3   7 1061.08 221.958   4
   0  -3   7 995.707 164.086   2
   0  -3   8 10575.7 750.495   4
   0  -3   8 9208.03 570.712   2
   0  -3   9 7603.62 685.921   4
   0  -3  10 28426.7 1462.70   4
   0  -3  11 22580.7 1376.73   4
   0  -2 -11 16681.6 1089.66   5
   0  -2 -10 19802.9 974.139   3
   0  -2 -10 17909.5 1066.28   5
   0  -2  -9 30353.7 1173.43   3
   0  -2  -9 27656.0 1266.50   5
   0  -2  -8 276.434 97.6857   5
   0  -2  -7 41603.9 1354.47   5
   0  -2  -6 915.169 179.160   5
   0  -2  -5 96.4369 57.7532   5
   0  -2  -4 3669.34 273.187   5
   0  -2  -3 1587.26 166.731   5
   0  -2  -2 77798.7 1343.26   5
   0  -2  -1 7726.68 390.423   1
   0  -2   0 366793. 5309.28   1
   0  -2   1 197669. 3081.10   4
   0  -2   1 199560. 3007.45   1
   0  -2   2 23584.3 675.309   4
   0  -2   3 927.666 138.823   3
   0  -2   3 1058.08 155.510   4
   0  -2   4 4205.06 310.409   3
   0  -2   4 5006.61 348.022   4
   0  -2   5 10818.8 539.601   3
   0  -2   5 11146.1 587.723   4
   0  -2   6 14684.2 753.701   4
   0  -2   6 14689.2 686.343   3
   0  -2   7 10223.8 683.389   4
   0  -2   7 9230.86 595.264   2
   0  -2   8 13424.2 849.454   4
   0  -2   8 11658.5 730.022   2
   0  -2   9 18666.2 1093.72   4
   0  -2  10 38933.4 1723.36   4
   0  -1 -11 13400.3 998.527   5
   0  -1 -11 12656.0 819.162   3
   0  -1 -10 28451.4 1179.55   3
   0  -1 -10 27238.8 1370.85   5
   0  -1  -9 59617.9 1722.27   3
   0  -1  -9 58357.3 1952.03   5
   0  -1  -8 3484.02 341.212   3
   0  -1  -8 3062.36 378.615   5
   0  -1  -7 32181.8 1057.64   3
   0  -1  -7 31627.4 1197.56   5
   0  -1  -6 13297.3 686.694   5
   0  -1  -5 152.141 86.1370   5
   0  -1  -5 267.134 124.699   4
   0  -1  -4 173.712 78.0230   5
   0  -1  -4 207.182 102.610   4
   0  -1  -3 331876. 4883.02   5
   0  -1  -2 10764.9 344.594   5
   0  -1  -1 100363. 1487.27   5
   0  -1   2 281614. 4119.86   3
   0  -1   2 290874. 4164.94   4
   0  -1   3 7610.48 346.698   3
   0  -1   3 8137.55 390.978   4
   0  -1   4 2703.58 254.904   4
   0  -1   4 2087.56 205.006   3
   0  -1   5 23060.2 869.349   4
   0  -1   6 997.390 191.244   4
   0  -1   7 17309.1 904.071   4
   0  -1   8 17608.4 988.501   4
   0  -1  13 139.535 157.301   1
   0   0 -12 6012.14 724.408   5
   0   0 -11 18267.7 1205.32   5
   0   0 -11 16400.8 942.629   3
   0   0 -10 18000.3 929.229   3
   0   0 -10 18207.9 1143.03   5
   0   0  -9 19655.3 923.776   3
   0   0  -9 19161.5 1109.00   5
   0   0  -8 15423.1 754.047   3
   0   0  -8 16324.5 948.042   5
   0   0  -7 15576.5 701.752   3
   0   0  -7 15498.4 851.644   5
   0   0  -6 3489.25 299.789   3
   0   0  -6 3106.90 355.792   5
   0   0  -5 2367.22 220.362   3
   0   0  -5 2494.54 283.228   5
   0   0  -5 2358.15 282.626   4
   0   0  -4 23710.7 687.020   3
   0   0  -4 23700.1 844.098   4
   0   0  -3 65728.7 1214.21   3
   0   0  -3 60366.4 1365.97   4
   0   0  -2 356325. 5108.10   4
   0   0   2 362839. 5169.12   4
   0   0   3 65657.8 1381.61   4
   0   0   4 23163.4 802.948   4
   0   0  12 6049.41 787.765   1
   0   0  13 1076.89 369.652   1
   0   1 -13 217.398 150.994   5
   0   1 -12 9915.72 960.459   5
   0   1 -11 33419.4 1711.10   5
   0   1 -11 32281.3 1385.61   3
   0   1 -10 56906.5 2191.57   5
   0   1 -10 56228.6 1802.55   3
   0   1  -9 46973.4 1531.37   3
   0   1  -9 45851.2 1826.57   5
   0   1  -8 17038.5 816.467   3
   0   1  -8 18386.0 1044.61   5
   0   1  -7 17660.9 779.369   3
   0   1  -6 1250.98 180.232   3
   0   1  -5 23647.3 771.854   3
   0   1  -5 20280.6 868.426   4
   0   1  -4 2517.60 212.505   3
   0   1  -4 2304.49 252.112   4
   0   1  -3 8040.63 348.655   3
   0   1  -3 7726.60 400.253   4
   0   1  -2 287666. 4100.79   3
   0   1  -2 279849. 4172.74   4
   0   1  -1 153753. 2312.54   4
   0   1   1 98527.8 1462.54   5
   0   1   1 96943.3 1647.43   1
   0   1   2 10456.1 354.654   5
   0   1  10 28849.6 1595.58   1
   0   1  11 14355.7 1188.21   1
   0   1  12 3740.60 651.742   1
   0   1  13 123.060 130.070   1
   0   1  14 137.057 131.348   1
   0   2 -13 785.903 295.570   5
   0   2 -12 11652.8 1078.93   5
   0   2 -11 27477.6 1602.98   5
   0   2 -10 38429.9 1835.35   5
   0   2  -8 13899.7 765.895   3
   0   2  -7 10572.8 615.253   3
   0   2  -6 15426.2 704.127   3
   0   2  -5 9864.40 604.534   4
   0   2  -5 10846.6 552.695   3
   0   2  -4 4315.28 356.010   4
   0   2  -3 1067.98 166.376   4
   0   2  -2 24824.9 738.382   4
   0   2  -1 198667. 2971.03   1
   0   2   0 371884. 5352.21   1
   0   2   1 8332.13 402.463   1
   0   2   1 8289.55 291.679   5
   0   2   2 75775.3 1329.52   5
   0   2   2 74752.9 1632.31   1
   0   2   3 1349.84 166.724   5
   0   2   3 1432.04 232.505   1
   0   2   8 616.766 217.114   1
   0   2   9 30520.1 1601.10   1
   0   2  10 18681.5 1323.83   1
   0   2  11 18997.1 1420.25   1
   0   2  12 3399.98 644.435   1
   0   2  13 77.6395 143.621   1
   0   3 -14 1080.84 395.437   5
   0   3 -13 618.858 268.222   5
   0   3 -12 7652.18 894.151   5
   0   3 -11 21211.8 1462.71   5
   0   3  -4 6955.15 489.677   4
   0   3  -3 1174.37 203.000   4
   0   3  -2 1169.87 221.325   4
   0   3  -1 114132. 2022.45   1
   0   3  -1 110172. 1910.37   2
   0   3   0 155602. 2708.04   1
   0   3   1 598.392 91.9302   5
   0   3   1 553.687 126.056   1
   0   3   2 45281.4 982.146   5
   0   3   2 47812.4 1317.70   1
   0   3   3 4086.36 266.483   5
   0   3   3 3549.04 363.108   1
   0   3   4 2185.06 221.219   5
   0   3   4 2617.90 334.196   1
   0   3   5 650.716 200.198   1
   0   3   6 23475.9 1194.91   1
   0   3   7 62138.8 2169.67   1
   0   3   8 14859.5 1076.28   1
   0   3   9 31512.8 1697.38   1
   0   3  10 27434.3 1678.46   1
   0   3  11 19621.2 1494.83   1
   0   3  12 3739.45 685.118   1
   0   3  13-33.9276 100.012   1
   0   4 -13 296.184 196.152   5
   0   4 -12 6293.18 862.742   5
   0   4  -4 14273.4 782.962   4
   0   4  -3 4506.75 410.604   4
   0   4  -2 29401.3 725.724   2
   0   4  -2 31642.5 899.680   1
   0   4  -1 123462. 2331.06   1
   0   4  -1 118625. 2223.88   2
   0   4   0 149089. 2772.51   1
   0   4   0 140579. 2770.19   2
   0   4   1 47384.6 1170.85   5
   0   4   1 48743.6 1389.77   1
   0   4   2 8787.44 403.046   5
   0   4   2 9344.43 592.491   1
   0   4   3 5361.69 326.154   5
   0   4   3 5132.17 474.814   1
   0   4   4 4256.08 316.538   5
   0   4   4 4013.70 443.587   1
   0   4   5 8359.88 686.285   1
   0   4   5 7311.94 461.730   5
   0   4   6 15920.3 1023.22   1
   0   4   7 16084.6 1100.34   1
   0   4   8 10328.5 930.316   1
   0   4   9 16799.3 1267.25   1
   0   4  10 17573.8 1390.80   1
   0   4  11 8023.51 984.849   1
   0   4  12 1214.92 423.004   1
   0   5 -13 316.656 148.728   5
   0   5  -2 146772. 2696.38   1
   0   5  -2 133627. 2442.53   2
   0   5  -1 528485. 7758.45   1
   0   5  -1 488987. 7596.96   2
   0   5   0 464020. 7216.22   1
   0   5   0 449697. 7200.45   2
   0   5   1 111034. 2546.67   1
   0   5   1 108572. 2645.54   2
   0   5   1 112660. 2262.30   5
   0   5   2 136.245 83.2385   5
   0   5   2 4.73928 60.9315   1
   0   5   3 1416.18 179.535   5
   0   5   3 1579.55 283.016   1
   0   5   4 209.795 69.6885   5
   0   5   4 260.301 171.362   1
   0   5   5 6747.16 444.824   5
   0   5   5 6593.84 662.338   1
   0   5   6 19640.6 859.129   5
   0   5   6 25156.9 1372.20   1
   0   5   7 27127.3 1527.36   1
   0   5   8 8179.79 875.884   1
   0   5   9 17607.7 1373.89   1
   0   5  10 23232.9 1674.27   1
   0   5  11 9648.07 1139.33   1
   0   6  -3 83255.9 1955.45   1
   0   6  -2 62748.5 1676.07   1
   0   6  -2 61089.7 1521.26   2
   0   6  -1 108545. 2472.89   1
   0   6  -1 103679. 2364.83   2
   0   6   0 46520.9 1534.97   1
   0   6   0 43300.6 1506.29   2
   0   6   1 4625.88 471.236   1
   0   6   1 4450.80 388.462   5
   0   6   2 7551.51 644.696   1
   0   6   2 8053.11 484.418   5
   0   6   3 11217.4 823.926   1
   0   6   3 11600.5 564.477   5
   0   6   4 1052.20 168.863   5
   0   6   4 842.594 237.614   1
   0   6   5 6332.48 447.976   5
   0   6   5 6453.59 694.783   1
   0   6   6 26382.5 1505.21   1
   0   6   6 20915.3 896.196   5
   0   6   7 32388.5 1777.93   1
   0   6   8 16858.1 1342.68   1
   0   6   9 24019.1 1706.89   1
   0   6  10 26786.4 1920.02   1
   0   6  11 3640.53 727.944   1
   0   7  -3 25747.8 1058.77   1
   0   7  -2 24243.0 1058.78   1
   0   7  -2 22477.1 927.471   2
   0   7  -1 67696.6 1986.79   1
   0   7  -1 65059.0 1871.54   2
   0   7   0 32203.8 1365.26   1
   0   7   1 408.354 126.851   5
   0   7   1 536.095 191.303   1
   0   7   2 3824.70 497.647   1
   0   7   2 3542.73 351.822   5
   0   7   3 820.970 173.711   5
   0   7   3 966.637 299.902   1
   0   7   4 9402.64 553.966   5
   0   7   4 10358.0 893.464   1
   0   7   5 10817.0 964.716   1
   0   7   5 9588.43 571.379   5
   0   7   6 21534.2 1441.20   1
   0   7   7 17727.4 1371.49   1
   0   7   8 17928.8 1442.93   1
   0   7   9 10638.2 1168.03   1
   0   7  10 13345.6 1403.60   1
   0   8  -3 7318.48 599.257   1
   0   8  -2 11270.7 765.135   1
   0   8  -2 9087.94 631.205   2
   0   8  -1 17453.6 1019.76   1
   0   8   0 6825.81 657.232   1
   0   8   1 65.3205 104.625   1
   0   8   2 3364.42 486.810   1
   0   8   3 592.233 239.353   1
   0   8   3 128.696 83.3140   5
   0   8   4-72.0407 119.495   1
   0   8   4 158.010 71.8591   5
   0   8   5 2334.30 489.882   1
   0   8   6 35188.7 1978.26   1
   0   8   7 19304.3 1505.95   1
   0   8   8 11256.4 1215.01   1
   0   8   9 8900.72 1140.17   1
   0   9  -3 24361.0 1203.30   1
   0   9  -2 13919.9 920.020   1
   0   9  -2 10437.3 730.359   2
   0   9  -1 30551.6 1469.99   1
   0   9   0 21826.8 1276.26   1
   0   9   1 620.191 238.697   1
   0   9   2 164.334 112.604   1
   0   9   3 2095.89 431.568   1
   0   9   4 15820.4 1260.21   1
   0   9   5 16743.9 1366.37   1
   0   9   6 15516.7 1370.75   1
   0   9   7 9804.82 1130.85   1
   0   9   8 4019.14 765.035   1
   0  10  -3 15654.5 1025.77   1
   0  10  -2 9097.38 789.590   1
   0  10  -1 2742.04 448.454   1
   0  10   0 14743.4 1117.14   1
   0  10   1 400.106 291.411   1
   0  10   2 2632.59 525.930   1
   0  10   3 4747.00 694.984   1
   0  10   4 6764.24 875.282   1
   0  10   5 20038.1 1577.54   1
   0  10   6 27683.6 1954.28   1
   0  10   7 11266.5 1287.10   1
   0  11  -3 26485.6 1454.30   1
   0  11  -2 33212.9 1687.92   1
   0  11  -1 32436.9 1731.31   1
   0  11   0 23231.7 1519.59   1
   0  11   1 1334.03 418.606   1
   0  11   2 797.605 276.923   1
   0  11   3 7030.18 914.598   1
   0  11   4 13231.0 1301.88   1
   0  11   5 17047.6 1552.66   1
   0  11   6 23079.3 1855.70   1
   0  12  -3 13518.2 1092.60   1
   0  12  -2 11478.0 1022.05   1
   0  12  -1 10085.6 995.918   1
   0  12   0 2792.12 537.730   1
   0  12   1 852.984 287.362   1
   0  12   2 8498.79 1023.17   1
   0  12   3 19456.6 1622.33   1
   0  12   4 23915.8 1869.22   1
   0  12   5 18689.2 1718.15   1
   0  13  -2 5690.19 774.625   1
   0  13  -1 3249.01 575.007   1
   0  13   0 1106.89 359.214   1
   0  13   1 2299.82 540.208   1
   0  13   2 4884.51 817.371   1
   0  13   3 3175.57 688.926   1
   0  14  -1 1928.40 507.818   1
   0  14   0 158.192 158.245   1
   0  14   1 4173.49 767.241   1
   1 -13   1 8749.89 1014.91   4
   1 -13   2 7882.01 948.223   4
   1 -13   3 7451.25 900.829   4
   1 -13   4 9783.60 1034.30   4
   1 -13   5 14423.7 1257.13   4
   1 -13   6 6415.78 820.957   4
   1 -12   1 15120.8 1260.61   4
   1 -12   2 15576.5 1256.52   4
   1 -12   3 14314.0 1190.50   4
   1 -12   4 7009.23 832.511   4
   1 -12   5 4549.21 661.603   4
   1 -12   6-21.0424 130.713   4
   1 -12   7 2845.05 530.248   4
   1 -12   8 3240.11 567.611   4
   1 -11   2 16456.8 1224.46   4
   1 -11   3 11550.6 1006.49   4
   1 -11   4 8184.86 820.286   4
   1 -11   5 3970.06 580.296   4
   1 -11   6-10.6665 105.694   4
   1 -11   7 4140.11 603.277   4
   1 -11   8 6492.62 758.538   4
   1 -11   9 7701.41 868.062   4
   1 -10   2 15953.0 1121.27   4
   1 -10   3 11645.3 942.224   4
   1 -10   4 11724.0 942.096   4
   1 -10   5 7203.93 741.548   4
   1 -10   6-109.475 150.666   4
   1 -10   7 4733.95 611.801   4
   1 -10   8 2253.03 434.479   4
   1 -10   9 11513.3 1011.95   4
   1 -10  10 11471.7 1053.35   4
   1  -9   2 4715.67 561.108   4
   1  -9   3 1301.87 289.400   4
   1  -9   4 2123.26 366.696   4
   1  -9   5 681.049 229.502   4
   1  -9   6 608.681 188.173   4
   1  -9   7 13935.0 1009.66   4
   1  -9   8 4479.15 589.394   4
   1  -9   9 15035.8 1120.67   4
   1  -9  10 12549.4 1057.30   4
   1  -9  11 8093.09 893.228   4
   1  -8   2 9324.02 737.837   4
   1  -8   3 17505.3 1008.84   4
   1  -8   4 24256.8 1206.14   4
   1  -8   5 30551.0 1380.06   4
   1  -8   6 6850.95 647.190   4
   1  -8   7 13110.2 923.930   4
   1  -8   8 5987.19 652.394   4
   1  -8   9 10646.3 901.308   4
   1  -8  10 10729.9 961.183   4
   1  -8  11 6934.81 812.260   4
   1  -7   2 6133.56 548.530   4
   1  -7   3 22732.5 1073.10   4
   1  -7   4 347.517 141.679   4
   1  -7   5 7775.96 620.852   4
   1  -7   6 40400.7 1538.21   4
   1  -7   7 63069.2 2071.21   4
   1  -7   8 48099.4 1839.54   4
   1  -7   9 25677.0 1377.63   4
   1  -7  10 19028.8 1255.31   4
   1  -7  11 9198.83 908.338   4
   1  -7  12 2337.39 483.581   4
   1  -6  -5 8376.33 300.758   6
   1  -6   1 97480.7 2464.30   1
   1  -6   2 7060.00 568.522   1
   1  -6   2 6705.80 527.308   4
   1  -6   3 9055.65 635.783   1
   1  -6   3 7757.71 562.681   4
   1  -6   4 2296.07 323.540   1
   1  -6   4 2499.86 323.368   4
   1  -6   5 1899.31 290.910   4
   1  -6   6 47215.0 1591.68   4
   1  -6   7 54520.5 1814.75   4
   1  -6   8 26290.7 1278.35   4
   1  -6   9 11421.0 900.108   4
   1  -6  10 10552.5 908.532   4
   1  -6  11 3747.23 578.809   4
   1  -6  12 1140.60 354.252   4
   1  -5  -8 752.051 146.844   5
   1  -5  -7 723.605 136.840   5
   1  -5  -6 1661.60 187.164   5
   1  -5  -1 181680. 3689.21   1
   1  -5   0 311300. 5386.28   1
   1  -5   1 135912. 2902.39   1
   1  -5   2 27013.3 1061.71   1
   1  -5   2 28346.5 839.447   2
   1  -5   2 27443.5 1015.85   4
   1  -5   3 4175.62 402.240   1
   1  -5   3 4517.10 268.221   2
   1  -5   3 4606.64 386.383   4
   1  -5   4 524.341 157.662   1
   1  -5   4 639.771 91.7472   2
   1  -5   4 660.326 161.486   4
   1  -5   5 3533.31 189.429   2
   1  -5   5 4600.00 423.438   4
   1  -5   5 4160.62 415.545   1
   1  -5   6 44308.6 1483.06   4
   1  -5   7 42393.5 1515.14   4
   1  -5   8 12146.0 830.012   4
   1  -5   9 3121.04 467.312   4
   1  -5  10 15017.3 1071.23   4
   1  -5  11 7228.74 788.790   4
   1  -5  12 6546.15 787.582   4
   1  -5  13 780.021 295.340   4
   1  -4 -11 27201.2 1363.04   3
   1  -4  -9 9430.75 611.040   5
   1  -4  -8 56.5012 64.6351   5
   1  -4  -7 7352.33 446.176   5
   1  -4  -6 2980.42 254.587   5
   1  -4  -5 5211.87 298.380   5
   1  -4  -4 8969.09 364.201   5
   1  -4  -3 47973.8 1573.87   1
   1  -4  -2 20998.6 935.347   1
   1  -4  -1 87496.1 2088.58   1
   1  -4   0 147467. 2939.42   1
   1  -4   0 154385. 2809.87   2
   1  -4   1 31929.3 1065.88   1
   1  -4   1 34372.9 932.777   2
   1  -4   2 17101.3 549.684   2
   1  -4   2 15741.2 708.648   1
   1  -4   2 16738.0 681.997   4
   1  -4   3 70.3101 38.4920   2
   1  -4   3 89.9908 90.8609   4
   1  -4   3 121.203 65.7557   1
   1  -4   4 1142.77 196.827   4
   1  -4   5 11241.2 634.074   3
   1  -4   5 11843.5 649.722   4
   1  -4   6 51084.2 1543.05   4
   1  -4   7 25844.9 1137.32   4
   1  -4   8 18117.1 1017.06   4
   1  -4   9 7528.74 698.570   4
   1  -4  10 21166.1 1275.37   4
   1  -4  11 12128.4 1028.34   4
   1  -3 -11 12031.4 855.344   3
   1  -3 -10 7047.44 595.248   5
   1  -3 -10 8180.12 678.291   3
   1  -3  -9 2529.89 344.206   5
   1  -3  -8 7756.53 526.950   5
   1  -3  -7 11716.9 602.886   5
   1  -3  -6 1873.53 212.328   5
   1  -3  -5 9370.36 410.921   5
   1  -3  -4 16209.8 477.699   5
   1  -3  -3 1170.24 207.232   1
   1  -3  -3 1210.77 100.650   5
   1  -3  -2 46289.5 1336.93   1
   1  -3  -1 70904.5 1632.61   2
   1  -3  -1 72674.2 1683.22   1
   1  -3   0 101854. 2051.04   1
   1  -3   0 102471. 1927.80   2
   1  -3   1 20699.3 733.915   1
   1  -3   1 21743.5 619.527   2
   1  -3   2 4115.99 287.885   4
   1  -3   2 4308.95 322.339   1
   1  -3   3 476.059 130.086   4
   1  -3   4 2907.48 272.369   3
   1  -3   4 3159.30 287.176   4
   1  -3   5 253.312 91.0591   3
   1  -3   5 257.327 82.8048   4
   1  -3   6 59545.9 1575.34   3
   1  -3   6 67804.5 1787.82   4
   1  -3   7 31590.9 1257.28   4
   1  -3   8 8216.83 670.846   4
   1  -3   9 9152.24 766.774   4
   1  -3  10 12849.1 977.923   4
   1  -2 -11 19712.0 1091.48   3
   1  -2 -10 9716.47 728.967   5
   1  -2 -10 10354.1 730.161   3
   1  -2  -9 20705.2 1003.92   3
   1  -2  -9 18574.9 954.429   5
   1  -2  -8 2018.11 293.353   5
   1  -2  -7 39387.3 1218.73   5
   1  -2  -6 64880.6 1533.71   5
   1  -2  -5 120.913 48.6459   5
   1  -2  -4 6940.79 315.729   5
   1  -2  -3 14267.8 366.931   5
   1  -2  -3 14797.4 669.555   1
   1  -2  -2 41527.6 1115.31   1
   1  -2  -2 39740.8 1137.03   2
   1  -2  -1 146224. 2493.96   2
   1  -2  -1 142411. 2076.45   6
   1  -2  -1 146272. 2518.18   1
   1  -2   0 355530. 5382.01   1
   1  -2   0 374550. 5267.88   2
   1  -2   1 54171.3 1074.25   4
   1  -2   1 54043.7 1168.84   1
   1  -2   2 6359.34 305.487   4
   1  -2   3 2207.62 201.969   3
   1  -2   3 2453.15 226.434   4
   1  -2   4 74247.7 1559.79   3
   1  -2   4 81377.6 1695.14   4
   1  -2   5 53920.7 1312.86   3
   1  -2   5 57175.6 1485.64   4
   1  -2   6 124968. 2677.98   4
   1  -2   7 70481.0 1979.60   4
   1  -2   8 16033.9 943.538   4
   1  -2   9 9593.09 787.497   4
   1  -1 -12 23395.6 1252.39   3
   1  -1 -11 19568.2 1082.33   3
   1  -1 -11 17569.7 1102.94   5
   1  -1 -10 14914.1 887.681   3
   1  -1 -10 13492.2 902.140   5
   1  -1  -9 14028.2 804.312   3
   1  -1  -9 12237.9 815.937   5
   1  -1  -8 2602.27 320.853   3
   1  -1  -8 2830.66 351.158   5
   1  -1  -7 236.484 111.279   5
   1  -1  -7 282.018 111.321   3
   1  -1  -6 19477.6 797.770   5
   1  -1  -5 207926. 3829.15   4
   1  -1  -4 336885. 5360.53   4
   1  -1  -3 913632. 12717.2   4
   1  -1  -2 172715. 2752.05   1
   1  -1  -2 164745. 2811.60   2
   1  -1  -1 54686.5 1101.44   2
   1  -1  -1 56987.4 1105.15   1
   1  -1   0 138683. 2171.17   1
   1  -1   1 4269.35 175.388   4
   1  -1   2 39485.0 794.319   3
   1  -1   2 42013.4 865.363   4
   1  -1   3 11102.8 384.166   3
   1  -1   3 11211.7 460.858   4
   1  -1   4 12755.3 573.304   4
   1  -1   5 54651.8 1452.18   4
   1  -1   6 111712. 2496.04   4
   1   0 -12 16776.1 1162.75   5
   1   0 -12 17382.8 1079.35   3
   1   0 -11 13695.1 906.585   3
   1   0 -11 14023.9 1020.77   5
   1   0 -10 4201.62 469.292   3
   1   0 -10 4885.07 558.867   5
   1   0  -9 1539.87 270.053   3
   1   0  -9 1517.85 296.639   5
   1   0  -8 781.206 175.211   3
   1   0  -8 789.637 198.932   5
   1   0  -7 1545.38 223.856   3
   1   0  -6 85874.3 1899.47   3
   1   0  -5 399443. 6020.15   3
   1   0  -5 393196. 6317.56   4
   1   0  -4 250346. 3961.61   3
   1   0  -4 254215. 4162.99   4
   1   0  -3 276769. 4283.55   4
   1   0  -2 222680. 3358.62   4
   1   0  -2 223672. 3351.14   2
   1   0   1 6782.49 310.639   5
   1   0   2 3945.38 283.474   5
   1   0  13 3707.61 712.451   1
   1   1 -13 5047.29 690.925   5
   1   1 -12 14237.7 1138.59   5
   1   1 -12 14837.3 1007.81   3
   1   1 -11 17680.8 1048.71   3
   1   1 -11 18751.6 1232.12   5
   1   1 -10 11531.2 788.466   3
   1   1 -10 10773.0 876.933   5
   1   1  -9 1804.21 292.511   3
   1   1  -8 468.914 141.125   3
   1   1  -7 10639.4 623.042   3
   1   1  -6 36018.6 1125.91   3
   1   1  -5 353230. 5372.37   3
   1   1  -5 333000. 5576.22   4
   1   1  -4 199872. 3243.58   3
   1   1  -4 187776. 3360.08   4
   1   1  -3 81616.3 1579.96   3
   1   1  -3 80099.4 1640.04   4
   1   1  -3 82382.9 1461.71   2
   1   1  -2 6595.37 304.390   3
   1   1  -2 6320.63 309.654   4
   1   1  -1 13788.0 411.360   3
   1   1  -1 14280.3 422.414   4
   1   1   0 85351.1 1359.10   6
   1   1   0 79687.2 1417.85   5
   1   1   1 26196.6 668.660   5
   1   1   2 13967.4 527.861   5
   1   1   3 19655.6 731.384   5
   1   1  12 39.9392 97.3638   1
   1   1  13 3299.26 672.141   1
   1   2 -13 6288.35 828.814   5
   1   2 -12 11251.5 1044.98   5
   1   2 -11 12541.9 1046.76   5
   1   2 -11 12069.4 883.477   3
   1   2 -10 3841.14 468.708   3
   1   2  -9-134.050 85.7947   3
   1   2  -8 104.612 94.8522   3
   1   2  -7 2868.84 337.074   3
   1   2  -6 5082.65 412.569   3
   1   2  -5 95989.2 2049.60   3
   1   2  -5 90859.8 2165.98   4
   1   2  -4 24427.4 822.965   3
   1   2  -4 21019.2 831.687   4
   1   2  -3 1026.55 152.468   3
   1   2  -3 1102.45 170.318   4
   1   2  -2 181.983 57.6283   4
   1   2  -1 2640.95 161.643   1
   1   2   0 49224.2 1057.84   1
   1   2   0 49818.4 1096.68   5
   1   2   1 12285.8 465.123   5
   1   2   1 12497.0 390.396   6
   1   2   2 41220.0 1021.60   5
   1   2   3 47061.4 1216.24   5
   1   2   4 118331. 2434.04   5
   1   2  10 13808.5 1186.72   1
   1   2  11 4217.67 681.978   1
   1   2  12 159.546 161.392   1
   1   3 -14 2353.62 528.599   5
   1   3 -13 3957.59 681.049   5
   1   3 -12 13287.6 1188.44   5
   1   3  -4 54840.4 1542.63   4
   1   3  -3 2530.76 277.397   4
   1   3  -2 483.440 78.5005   1
   1   3  -2 440.363 117.249   4
   1   3  -1 6959.12 348.279   1
   1   3   0 23628.7 761.728   1
   1   3   0 22702.0 770.583   5
   1   3   1 1752.77 184.780   5
   1   3   1 1777.66 220.454   1
   1   3   1 1703.60 132.437   6
   1   3   2 71727.4 1535.07   5
   1   3   2 70650.0 1757.40   1
   1   3   3 1029.53 158.932   5
   1   3   4 17099.7 749.290   5
   1   3   5 21284.6 927.102   5
   1   3   8 1694.85 395.053   1
   1   3   9 2724.66 517.184   1
   1   3  10 6291.77 823.155   1
   1   3  11 223.100 142.074   1
   1   3  12 1849.68 467.610   1
   1   4 -14 3512.19 658.968   5
   1   4 -13 9466.09 1074.30   5
   1   4  -3 71410.5 1824.36   4
   1   4  -3 56102.1 1039.17   2
   1   4  -2 2646.90 225.365   1
   1   4  -1 12607.6 567.152   1
   1   4   0 1372.81 206.306   1
   1   4   0 1337.37 195.705   5
   1   4   1 1259.05 211.933   1
   1   4   1 1448.35 123.357   6
   1   4   1 1508.47 194.606   5
   1   4   2 32733.5 980.891   5
   1   4   2 31820.2 1181.39   1
   1   4   3 20747.3 792.675   5
   1   4   3 21001.6 1005.88   1
   1   4   4 39527.1 1517.85   1
   1   4   4 38123.3 1198.58   5
   1   4   5 46795.2 1445.57   5
   1   4   5 47657.3 1809.09   1
   1   4   6 51975.2 1684.52   5
   1   4   6 63027.4 2223.02   1
   1   4   7 32023.0 1644.11   1
   1   4   8 7979.84 853.083   1
   1   4   9 10972.5 1073.67   1
   1   4  10 2677.65 547.416   1
   1   4  11 1455.68 453.378   1
   1   5  -3 52436.1 1252.16   1
   1   5  -3 47121.6 1060.56   2
   1   5  -2 81.6127 40.8205   1
   1   5  -1 27914.4 1001.26   1
   1   5   0 3449.26 349.872   1
   1   5   0 3415.71 348.606   5
   1   5   1 997.503 171.722   5
   1   5   1 841.403 184.655   1
   1   5   1 782.055 94.0284   6
   1   5   2 17823.6 942.389   1
   1   5   2 18415.9 761.681   5
   1   5   3 14111.4 681.509   5
   1   5   3 15132.4 910.517   1
   1   5   4 36373.5 1205.81   5
   1   5   4 36208.7 1542.52   1
   1   5   5 58758.7 1692.27   5
   1   5   5 61684.9 2188.24   1
   1   5   6 51682.1 2095.30   1
   1   5   7 24197.0 1489.70   1
   1   5   8 867.363 317.903   1
   1   5   9 28.2387 226.354   1
   1   5  10-114.729 215.058   1
   1   5  11 4736.43 809.705   1
   1   6  -3 23824.0 883.112   1
   1   6  -3 21122.3 732.168   2
   1   6  -2 40.6407 60.3265   1
   1   6  -2 262.920 106.602   2
   1   6  -1 12587.3 720.362   1
   1   6   0 9423.50 656.416   1
   1   6   0 10025.1 656.024   5
   1   6   1 367.308 125.277   5
   1   6   1 542.921 184.699   1
   1   6   1 143.873 51.7763   6
   1   6   2 5724.77 446.481   5
   1   6   2 6788.26 611.982   1
   1   6   3 7251.56 505.529   5
   1   6   3 7598.13 695.305   1
   1   6   4 33221.2 1191.64   5
   1   6   4 38187.2 1689.20   1
   1   6   5 37632.9 1346.96   5
   1   6   5 46839.4 1987.57   1
   1   6   6 56718.6 2340.63   1
   1   6   7 13334.3 1150.98   1
   1   6   8 1884.82 451.591   1
   1   6   9-21.8231 155.021   1
   1   6  10 128.199 153.025   1
   1   7  -4 9235.94 394.924   2
   1   7  -3 1285.15 223.339   1
   1   7  -3 1113.70 173.422   2
   1   7  -2 319.492 110.761   2
   1   7  -2 313.252 113.437   1
   1   7  -1 3399.58 412.309   1
   1   7  -1 3123.52 393.208   2
   1   7   0 18.9298 67.8003   1
   1   7   1 10356.1 349.198   6
   1   7   1 11761.4 847.472   1
   1   7   2 46951.6 1856.63   1
   1   7   3 74611.7 2519.66   1
   1   7   4 103095. 3183.50   1
   1   7   5 71776.1 2700.02   1
   1   7   6 56542.6 2480.18   1
   1   7   7 11047.6 1124.79   1
   1   7   8 2070.14 498.715   1
   1   7   9-28.3370 149.270   1
   1   8  -4 15762.2 631.696   2
   1   8  -4 20209.1 935.549   1
   1   8  -3 1311.67 246.058   1
   1   8  -3 1187.51 207.706   2
   1   8  -2 16.0270 91.2374   1
   1   8  -2 12.5587 50.1206   2
   1   8  -1 1326.26 271.645   1
   1   8   0 2140.87 369.982   1
   1   8   1 19173.6 1163.50   1
   1   8   2 10643.4 898.812   1
   1   8   3 8666.68 857.629   1
   1   8   4 8920.00 910.332   1
   1   8   5 9531.81 997.464   1
   1   8   6 6221.00 836.058   1
   1   8   7 514.819 303.920   1
   1   8   8 680.681 350.659   1
   1   8   9 408.818 247.556   1
   1   9  -4 3725.27 436.709   1
   1   9  -3 3507.80 432.057   1
   1   9  -2 1374.35 290.755   1
   1   9  -1 638.503 217.993   1
   1   9   0 269.896 146.469   1
   1   9   0 335.812 72.9133   6
   1   9   1 23432.8 1396.09   1
   1   9   2 22451.3 1426.05   1
   1   9   3 35112.2 1890.28   1
   1   9   4 22814.6 1572.66   1
   1   9   5 20798.7 1569.12   1
   1   9   6 11504.9 1223.38   1
   1   9   7 1859.50 490.619   1
   1   9   8-175.019 190.309   1
   1  10  -4 14062.2 919.691   1
   1  10  -3 6277.31 641.926   1
   1  10  -2 862.044 264.790   1
   1  10  -1 1024.92 292.933   1
   1  10   0 6545.53 762.618   1
   1  10   1 34839.9 1864.85   1
   1  10   2 28352.6 1718.87   1
   1  10   3 22192.8 1569.56   1
   1  10   4 18702.1 1493.63   1
   1  10   5 13341.7 1325.58   1
   1  10   6 6826.04 977.556   1
   1  10   7 670.331 282.314   1
   1  11  -4 13378.4 971.104   1
   1  11  -3 4358.27 570.048   1
   1  11  -2 90.1747 132.630   1
   1  11  -1 2910.48 510.832   1
   1  11   0 12879.5 1130.88   1
   1  11   1 29859.6 1810.35   1
   1  11   2 33440.9 1990.87   1
   1  11   3 19586.6 1550.55   1
   1  11   4 11916.4 1258.72   1
   1  11   5 11213.6 1266.97   1
   1  11   6 4613.49 880.860   1
   1  12  -3 410.859 209.535   1
   1  12  -2 706.024 261.058   1
   1  12  -1 5653.31 769.488   1
   1  12   0 8237.76 957.210   1
   1  12   1 20542.2 1568.25   1
   1  12   2 14012.0 1343.53   1
   1  12   3 12132.4 1295.36   1
   1  12   4 11035.2 1287.58   1
   1  13  -2 1717.35 416.133   1
   1  13  -1 3772.13 644.307   1
   1  13   0 3718.96 684.401   1
   1  13   1 7652.07 988.734   1
   1  13   2 6165.37 940.227   1
   1  13   3 1332.64 450.700   1
   1  14   0 3303.10 662.567   1
   1  14   1 6377.51 971.154   1
   2 -13   1 7634.57 934.361   4
   2 -13   2 4692.56 721.881   4
   2 -13   3 2315.40 476.448   4
   2 -13   4 351.802 206.286   4
   2 -13   5 791.959 297.639   4
   2 -13   6 3123.70 559.961   4
   2 -12   1 6557.22 828.345   4
   2 -12   2 1887.80 428.293   4
   2 -12   3 342.054 214.057   4
   2 -12   4 1395.98 348.386   4
   2 -12   5 7340.43 837.727   4
   2 -12   6 10223.1 975.972   4
   2 -12   7 9471.90 957.955   4
   2 -12   8 2973.36 538.068   4
   2 -11   1 20317.6 1366.06   4
   2 -11   2 5879.74 715.192   4
   2 -11   3 1012.43 288.087   4
   2 -11   4 678.240 229.807   4
   2 -11   5 6955.39 761.476   4
   2 -11   6 16953.7 1196.79   4
   2 -11   7 18121.9 1274.59   4
   2 -11   8 6075.19 752.394   4
   2 -11   9 6509.87 787.258   4
   2 -10   2 1786.23 356.527   4
   2 -10   3 44.4559 87.7259   4
   2 -10   4 5777.41 642.465   4
   2 -10   5 18887.1 1194.78   4
   2 -10   6 28814.4 1493.78   4
   2 -10   7 34400.8 1683.58   4
   2 -10   8 7368.76 777.999   4
   2 -10   9 10508.8 969.967   4
   2 -10  10 8828.06 906.217   4
   2  -9   2 10287.2 832.014   4
   2  -9   3 1546.66 335.863   4
   2  -9   4 10954.1 835.680   4
   2  -9   5 34814.0 1542.42   4
   2  -9   6 34023.4 1554.72   4
   2  -9   7 26961.7 1410.20   4
   2  -9   8 2456.00 424.635   4
   2  -9   9 2092.05 421.444   4
   2  -9  10 3367.56 555.828   4
   2  -9  11 1121.13 346.497   4
   2  -8   2 2060.89 341.431   4
   2  -8   3 4244.47 486.653   4
   2  -8   4 29307.6 1311.53   4
   2  -8   5 33060.0 1415.54   4
   2  -8   6 28443.9 1338.64   4
   2  -8   7 12897.3 915.990   4
   2  -8   8 1101.22 287.675   4
   2  -8   9 180.608 112.499   4
   2  -8  10 1788.57 397.665   4
   2  -8  11 937.788 302.345   4
   2  -7   1 8712.55 611.795   2
   2  -7   2 22180.7 931.208   2
   2  -7   2 24433.0 1106.43   4
   2  -7   3 37451.8 1157.61   2
   2  -7   3 36379.5 1361.28   4
   2  -7   4 56804.0 1397.43   2
   2  -7   4 59970.9 1817.02   4
   2  -7   5 40453.7 1038.16   2
   2  -7   5 47796.1 1603.25   4
   2  -7   6 38288.8 1425.11   4
   2  -7   6 23601.3 645.766   2
   2  -7   7 4734.07 518.927   4
   2  -7   8 258.722 173.592   4
   2  -7   9-17.8649 84.7295   4
   2  -7  10 2520.79 461.044   4
   2  -7  11-79.0641 103.114   4
   2  -7  12-50.2190 118.356   4
   2  -6   0 15657.5 808.852   2
   2  -6   1 735.904 173.776   2
   2  -6   2 17551.2 749.345   2
   2  -6   2 16730.2 831.582   4
   2  -6   3 35344.2 1051.87   2
   2  -6   3 34966.0 1225.45   4
   2  -6   4 47086.5 1188.12   2
   2  -6   4 46830.2 1476.73   4
   2  -6   5 31229.3 888.622   2
   2  -6   5 34734.2 1271.47   4
   2  -6   6 42615.0 1502.54   4
   2  -6   7 22862.5 1127.02   4
   2  -6   8 9902.58 777.256   4
   2  -6   9 5977.21 655.203   4
   2  -6  10 16893.6 1168.26   4
   2  -6  11 3750.36 587.242   4
   2  -6  12-17.7591 122.043   4
   2  -5  -7 3930.33 224.504   5
   2  -5  -3 98690.1 1569.47   6
   2  -5  -2 35356.5 1353.29   2
   2  -5  -1 68853.1 1999.07   1
   2  -5  -1 73142.1 1918.62   2
   2  -5   0 73434.0 2059.23   1
   2  -5   0 79296.9 1898.69   2
   2  -5   1 6862.38 536.239   1
   2  -5   1 6877.06 452.253   2
   2  -5   2 13423.0 771.893   1
   2  -5   2 14189.5 616.766   2
   2  -5   2 14331.4 685.923   4
   2  -5   3 27452.4 1154.22   1
   2  -5   3 27753.5 989.356   4
   2  -5   4 48024.2 1394.66   4
   2  -5   5 64687.1 1747.90   4
   2  -5   6 76520.7 2041.27   4
   2  -5   7 21355.5 1044.03   4
   2  -5   8 10073.9 773.969   4
   2  -5   9 2957.04 451.964   4
   2  -5  10 3367.22 503.820   4
   2  -5  11 113.340 99.2416   4
   2  -5  12 732.278 283.909   4
   2  -4 -12 184.312 131.569   3
   2  -4  -8 3043.60 262.684   5
   2  -4  -7 198.647 61.6623   5
   2  -4  -6 72051.7 1285.24   5
   2  -4  -3 29429.2 1205.24   1
   2  -4  -3 29805.8 1209.90   2
   2  -4  -2 7066.54 522.164   2
   2  -4  -2 6901.15 539.898   1
   2  -4  -2 6993.98 291.910   6
   2  -4  -1 20378.2 848.097   2
   2  -4  -1 19568.1 900.821   1
   2  -4   0 47646.7 1443.18   1
   2  -4   0 48455.5 1307.53   2
   2  -4   1 2405.44 295.700   1
   2  -4   1 2426.98 238.851   2
   2  -4   2 18474.0 850.960   1
   2  -4   2 20013.8 725.575   4
   2  -4   3 31205.7 960.274   4
   2  -4   3 30473.0 1155.15   1
   2  -4   4 83433.4 1866.22   4
   2  -4   5 40061.5 1258.34   3
   2  -4   5 44957.3 1327.16   4
   2  -4   6 80598.6 1990.07   3
   2  -4   6 91942.0 2186.20   4
   2  -4   7 17173.3 924.463   4
   2  -4   8 624.769 192.977   4
   2  -4   9 1891.44 363.863   4
   2  -4  10 3219.76 494.871   4
   2  -4  11-47.5851 192.824   4
   2  -3 -12 5701.82 635.302   3
   2  -3 -11 6548.66 662.544   3
   2  -3  -9 35239.3 1190.17   5
   2  -3  -8 2845.46 281.788   5
   2  -3  -7 2995.77 255.065   5
   2  -3  -6 68963.5 1357.80   5
   2  -3  -5 193746. 2843.90   5
   2  -3  -4 117156. 2666.56   1
   2  -3  -3 3703.97 373.516   1
   2  -3  -3 3502.33 372.645   2
   2  -3  -2 14060.4 451.135   6
   2  -3  -2 14415.3 691.263   2
   2  -3  -2 13799.7 699.470   1
   2  -3  -1 1001.50 179.764   1
   2  -3  -1 928.208 119.961   6
   2  -3  -1 1083.34 183.490   2
   2  -3   0 52889.9 1396.52   1
   2  -3   0 52539.4 1272.17   2
   2  -3   1 50843.2 1357.69   1
   2  -3   1 50406.2 1139.93   4
   2  -3   2 27039.3 770.003   4
   2  -3   3 62660.8 1381.77   4
   2  -3   4 72790.7 1634.06   3
   2  -3   4 77271.1 1684.94   4
   2  -3   5 34264.1 1036.87   3
   2  -3   5 36818.4 1152.65   4
   2  -3   6 42963.0 1215.78   3
   2  -3   6 45857.2 1432.43   4
   2  -3   7 5923.91 426.400   3
   2  -3   7 6911.59 566.549   4
   2  -3   8 13.1126 107.019   4
   2  -3   9 189.140 111.529   4
   2  -2 -12 7922.69 747.223   3
   2  -2 -11 3310.26 459.137   3
   2  -2 -10-4.08175 73.2168   3
   2  -2 -10 229.269 150.837   5
   2  -2  -9 459.194 129.979   5
   2  -2  -8 18288.2 814.073   5
   2  -2  -7 46904.5 1276.08   5
   2  -2  -6 328558. 5008.16   5
   2  -2  -5 168523. 2702.46   5
   2  -2  -4 32106.6 1114.88   1
   2  -2  -4 33339.1 1194.61   2
   2  -2  -3 9167.70 532.093   1
   2  -2  -3 8434.96 541.615   2
   2  -2  -2 1072.05 185.933   2
   2  -2  -2 539.999 122.529   1
   2  -2  -1 134634. 2414.27   2
   2  -2  -1 137691. 2464.48   1
   2  -2  -1 131332. 2209.10   6
   2  -2   0 130584. 2375.58   1
   2  -2   1 159356. 2435.00   4
   2  -2   2 55615.5 1111.21   4
   2  -2   3 100896. 1857.54   4
   2  -2   4 55802.3 1224.83   3
   2  -2   4 60068.3 1404.88   4
   2  -2   5 54162.9 1250.55   3
   2  -2   5 59034.5 1508.13   4
   2  -2   6 23044.5 968.399   4
   2  -2   7 3255.18 390.603   4
   2  -1 -13 821.711 262.578   3
   2  -1 -12 3334.72 479.115   3
   2  -1 -11 189.621 149.905   3
   2  -1 -11 124.859 121.255   5
   2  -1 -10 219.900 132.666   3
   2  -1 -10 153.004 134.712   5
   2  -1  -9 6743.14 577.468   3
   2  -1  -9 5253.62 503.802   5
   2  -1  -8 25312.3 1082.91   3
   2  -1  -5 141246. 2864.28   4
   2  -1  -4 8848.82 483.334   1
   2  -1  -4 9566.15 522.862   4
   2  -1  -4 8893.10 548.086   2
   2  -1  -3 305237. 4713.98   4
   2  -1  -3 296586. 4867.86   2
   2  -1  -2 28951.5 597.866   5
   2  -1  -2 27736.9 729.520   4
   2  -1  -2 30083.0 864.479   2
   2  -1  -2 31050.0 837.005   1
   2  -1  -1 96874.3 1747.62   1
   2  -1  -1 94458.2 1698.07   6
   2  -1  -1 97607.2 1600.08   5
   2  -1   0 11613.0 450.313   5
   2  -1   0 10002.8 438.785   6
   2  -1   1 227809. 3788.66   5
   2  -1   1 238368. 3287.18   4
   2  -1   2 94362.6 1605.52   4
   2  -1   3 34746.1 711.332   3
   2  -1   3 37013.0 920.300   4
   2  -1   4 68624.7 1556.26   4
   2  -1   5 38254.8 1179.11   4
   2   0 -13 79.1233 81.9016   3
   2   0 -12 23.4604 68.8175   3
   2   0 -12-11.3068 92.4311   5
   2   0 -11 1179.02 298.412   3
   2   0 -11 1078.09 281.359   5
   2   0 -10 14677.9 909.867   3
   2   0 -10 12138.3 864.427   5
   2   0  -9 33392.7 1339.71   3
   2   0  -8 66465.7 1875.50   3
   2   0  -7 134718. 2809.59   3
   2   0  -6 153017. 2970.43   3
   2   0  -5 347287. 5510.79   3
   2   0  -5 349939. 5677.85   4
   2   0  -5 358000. 5704.84   2
   2   0  -4 50172.2 1283.67   4
   2   0  -4 46455.4 1252.05   2
   2   0  -3 141526. 2271.11   1
   2   0  -3 136611. 2451.02   2
   2   0  -3 139152. 2428.37   4
   2   0  -2 182767. 2742.18   1
   2   0  -2 177379. 2791.82   4
   2   0  -2 182109. 2830.54   5
   2   0  -1 81955.9 1458.64   5
   2   0  -1 81284.3 1300.15   4
   2   0   0 260899. 3915.49   5
   2   0   0 256402. 3922.75   6
   2   0   1 10199.5 498.640   5
   2   0   2 40302.7 1158.39   5
   2   0   3 32854.9 1124.55   5
   2   1 -13 306.539 152.933   5
   2   1 -13 233.477 154.888   3
   2   1 -12 615.133 197.539   3
   2   1 -12 251.256 174.439   5
   2   1 -11 1389.94 303.098   3
   2   1 -10 1572.31 307.168   3
   2   1  -9 11116.7 769.159   3
   2   1  -8 18455.5 925.008   3
   2   1  -7 87665.0 2153.05   3
   2   1  -6 99592.3 2220.99   3
   2   1  -5 220184. 3792.32   3
   2   1  -5 217465. 3926.14   4
   2   1  -5 220009. 3714.43   2
   2   1  -4 29102.5 903.650   3
   2   1  -4 27505.4 822.948   2
   2   1  -4 28711.4 940.233   4
   2   1  -3 2026.89 206.674   3
   2   1  -3 2030.75 205.484   4
   2   1  -2 25119.6 705.218   3
   2   1  -2 25712.6 712.742   4
   2   1  -1 2412.13 186.953   4
   2   1  -1 1881.95 194.678   5
   2   1   0 77209.6 1536.73   5
   2   1   0 79938.1 1515.75   6
   2   1   1 228749. 3708.55   5
   2   1   1 231820. 3643.51   6
   2   1   2 106410. 2165.59   5
   2   1   3 40380.8 1251.86   5
   2   1   4 101232. 2387.27   5
   2   2 -13 1828.99 428.701   5
   2   2 -13 1490.10 352.134   3
   2   2 -12 550.481 209.617   3
   2   2 -11 1170.01 304.437   3
   2   2 -10 451.840 169.852   3
   2   2  -9 9744.89 744.747   3
   2   2  -8 6749.12 562.540   3
   2   2  -7 42565.1 1424.67   3
   2   2  -6 64572.0 1731.95   3
   2   2  -5 66539.8 1669.24   3
   2   2  -5 63630.1 1734.76   4
   2   2  -5 65366.8 1399.41   2
   2   2  -4 2195.36 262.600   3
   2   2  -4 1548.87 157.184   2
   2   2  -4 1798.05 250.029   4
   2   2  -3 8752.31 468.257   3
   2   2  -3 9363.76 491.293   4
   2   2  -2 4879.24 322.823   3
   2   2  -2 5491.94 350.324   4
   2   2  -1 19644.9 716.705   5
   2   2   0 521.089 105.156   5
   2   2   0 499.658 98.3593   6
   2   2   1 9116.74 470.239   5
   2   2   1 8912.48 417.197   6
   2   2   2 79429.5 1787.64   5
   2   2   3 8840.77 541.566   5
   2   2   4 60224.8 1721.85   5
   2   2  12 5664.81 898.402   1
   2   3 -14 503.682 235.646   5
   2   3 -10 6502.48 650.260   3
   2   3  -9 25467.3 1255.87   3
   2   3  -8 36710.2 1466.59   3
   2   3  -7 60494.0 1843.61   3
   2   3  -6 97517.6 2364.45   3
   2   3  -5 67146.7 1759.45   3
   2   3  -5 62755.5 1220.66   2
   2   3  -4 482.570 152.303   4
   2   3  -3 21001.0 868.037   4
   2   3  -2 40201.3 872.102   1
   2   3  -1 1676.33 173.869   1
   2   3  -1 1509.27 214.027   5
   2   3   0 31860.2 841.353   6
   2   3   0 31671.1 1003.76   5
   2   3   1 26436.4 903.006   5
   2   3   1 27000.2 781.203   6
   2   3   2 45844.8 1298.80   5
   2   3   3 16799.8 776.298   5
   2   3   4 75733.6 1978.72   5
   2   3  10 4382.74 723.827   1
   2   3  11 9008.27 1100.49   1
   2   4  -3 26014.6 672.150   1
   2   4  -2 64135.3 1379.00   1
   2   4  -1 2877.31 272.746   1
   2   4  -1 2884.83 330.810   5
   2   4   0 29060.0 998.102   1
   2   4   0 28435.6 1033.65   5
   2   4   1 71838.2 1757.01   5
   2   4   1 74618.5 1504.46   6
   2   4   1 71227.7 1863.25   1
   2   4   2 49278.9 1408.88   5
   2   4   2 49779.4 1608.43   1
   2   4   3 31791.8 1143.43   5
   2   4   7 6347.71 736.535   1
   2   4   8 26911.0 1677.60   1
   2   4   9 17808.9 1427.15   1
   2   4  10 3964.52 712.847   1
   2   4  11 9167.81 1157.29   1
   2   5  -3 37446.0 1009.80   1
   2   5  -2 1992.15 231.470   1
   2   5  -1 1004.78 183.871   1
   2   5  -1 1326.46 233.093   5
   2   5   0 3261.37 358.425   1
   2   5   0 3284.33 358.163   5
   2   5   1 35658.6 1223.03   5
   2   5   1 34904.6 1309.69   1
   2   5   1 35397.9 929.922   6
   2   5   2 61145.2 1687.44   5
   2   5   2 64024.5 1971.49   1
   2   5   3 37248.3 1550.81   1
   2   5   4 35131.6 1594.59   1
   2   5   5 20355.2 1268.81   1
   2   5   6 4304.17 602.392   1
   2   5   7 7761.01 865.540   1
   2   5   8 11003.3 1108.15   1
   2   5   9 8702.29 1034.16   1
   2   5  10 1455.86 421.924   1
   2   6  -4 3365.86 280.970   1
   2   6  -3 1870.48 236.523   1
   2   6  -2 14305.5 725.200   1
   2   6  -1 40316.1 1373.98   1
   2   6   0 119041. 2795.59   1
   2   6   0 116320. 2182.04   6
   2   6   1 118474. 2157.20   6
   2   6   1 121589. 2978.33   1
   2   6   2 83436.3 2482.60   1
   2   6   3 52339.3 1981.36   1
   2   6   4 47809.5 1992.58   1
   2   6   5 13364.3 1073.85   1
   2   6   6 6805.72 800.166   1
   2   6   7 708.732 297.482   1
   2   6   8 6620.51 878.385   1
   2   6   9 3808.15 713.735   1
   2   7  -4 1418.42 236.147   1
   2   7  -4 1125.58 177.099   2
   2   7  -3 695.084 161.284   1
   2   7  -2 20885.0 976.707   1
   2   7  -1 25106.3 1149.31   1
   2   7   0 29152.9 1324.23   1
   2   7   0 29266.1 886.667   6
   2   7   1 71435.2 1492.79   6
   2   7   1 73344.6 2329.11   1
   2   7   2 38173.4 1707.67   1
   2   7   3 26887.7 1487.75   1
   2   7   4 26692.0 1559.94   1
   2   7   5 14002.6 1174.37   1
   2   7   6 4205.02 665.963   1
   2   7   7 2160.05 487.304   1
   2   7   8 5020.58 828.093   1
   2   7   9 4590.01 830.631   1
   2   8  -4 55.7424 80.9038   1
   2   8  -4 76.5719 58.0105   2
   2   8  -3 6125.00 533.506   1
   2   8  -3 4561.77 449.120   2
   2   8  -2 17311.2 969.164   1
   2   8  -1 43157.8 1687.31   1
   2   8   0 21222.7 750.201   6
   2   8   0 21950.2 1214.40   1
   2   8   1 45342.8 1074.40   6
   2   8   1 47139.3 1937.69   1
   2   8   2 11089.0 963.212   1
   2   8   3 18671.6 1304.32   1
   2   8   4 8841.82 930.335   1
   2   8   5 1845.05 454.190   1
   2   8   6 283.485 203.815   1
   2   8   7 6779.04 940.109   1
   2   8   8 10464.2 1259.32   1
   2   9  -4 336.061 127.718   1
   2   9  -3 7741.49 654.290   1
   2   9  -2 26910.0 1335.59   1
   2   9  -1 25484.5 1362.05   1
   2   9   0 11322.9 939.974   1
   2   9   0 10387.7 504.603   6
   2   9   1 34082.9 1749.99   1
   2   9   2 13926.6 1142.86   1
   2   9   3 2512.11 509.193   1
   2   9   4 870.875 321.537   1
   2   9   5 492.160 240.032   1
   2   9   6 8864.25 1107.10   1
   2   9   7 22486.4 1839.37   1
   2  10  -4 11410.7 809.901   1
   2  10  -3 22914.9 1241.43   1
   2  10  -2 35528.2 1667.36   1
   2  10  -1 40858.2 1883.80   1
   2  10   0 27191.9 1582.32   1
   2  10   1 15017.2 1213.67   1
   2  10   2 14383.9 1232.22   1
   2  10   3 5325.21 794.621   1
   2  10   4 8.14058 147.756   1
   2  10   5 1910.11 524.710   1
   2  10   6 1899.57 546.524   1
   2  11  -3 16519.3 1113.78   1
   2  11  -2 20970.3 1349.69   1
   2  11  -1 15919.0 1213.55   1
   2  11   0 12670.6 1135.73   1
   2  11   1 18805.5 1461.13   1
   2  11   2 8159.86 973.784   1
   2  11   3 4843.87 803.872   1
   2  11   4 2462.71 586.070   1
   2  11   5 467.864 210.943   1
   2  12  -2 16881.1 1265.88   1
   2  12  -1 18010.4 1372.10   1
   2  12   0 14426.0 1281.67   1
   2  12   1 20747.0 1599.05   1
   2  12   2 13548.2 1358.99   1
   2  12   3 4159.10 779.686   1
   2  12   4 2800.98 669.832   1
   2  13  -1 6071.86 834.540   1
   2  13   0 4032.57 716.443   1
   2  13   1 4509.56 782.018   1
   2  13   2 2669.63 628.285   1
   2  14   1 1307.56 425.468   1
   3 -14   1-74.1471 228.635   4
   3 -14   2 2243.85 502.100   4
   3 -13   1-28.4509 93.2005   4
   3 -13   2 1597.04 427.702   4
   3 -13   3 1709.45 424.624   4
   3 -13   4 1546.08 401.637   4
   3 -13   5 1000.96 286.931   4
   3 -13   6 1359.17 360.400   4
   3 -12   1 365.168 190.456   4
   3 -12   2 7260.23 839.234   4
   3 -12   3 9330.88 937.040   4
   3 -12   4 9851.00 953.886   4
   3 -12   5 8257.84 869.075   4
   3 -12   6 11235.1 1007.20   4
   3 -12   7 8463.96 891.164   4
   3 -12   8 1707.52 410.258   4
   3 -11   1 2829.24 494.071   4
   3 -11   2 19531.5 1300.01   4
   3 -11   3 24527.8 1433.67   4
   3 -11   4 25059.8 1443.30   4
   3 -11   5 23123.2 1390.02   4
   3 -11   6 19628.0 1274.74   4
   3 -11   7 14165.9 1095.60   4
   3 -11   8 2394.35 474.473   4
   3 -11   9 1130.68 341.146   4
   3 -10   2 43251.0 1862.33   4
   3 -10   3 33017.2 1584.22   4
   3 -10   4 26162.8 1385.29   4
   3 -10   5 21548.5 1256.58   4
   3 -10   6 14619.7 1047.55   4
   3 -10   7 16608.5 1131.71   4
   3 -10   8 755.360 263.374   4
   3 -10   9 174.920 150.793   4
   3 -10  10 98.5167 160.647   4
   3  -9   2 81210.4 2489.78   4
   3  -9   3 39531.2 1457.75   2
   3  -9   3 42968.3 1698.55   4
   3  -9   4 23835.6 1241.88   4
   3  -9   4 21743.1 968.791   2
   3  -9   5 15345.5 988.339   4
   3  -9   6 15011.8 998.341   4
   3  -9   7 8913.42 792.285   4
   3  -9   8-29.8409 99.9487   4
   3  -9   9 257.852 172.722   4
   3  -9  10 543.634 230.591   4
   3  -8   0 12613.4 867.160   2
   3  -8   1 18628.0 1003.36   2
   3  -8   2 14071.1 826.033   2
   3  -8   2 13621.7 872.227   4
   3  -8   3 322.397 108.839   2
   3  -8   3 551.643 179.870   4
   3  -8   4 298.833 113.285   2
   3  -8   4 389.852 131.239   4
   3  -8   5 337.083 104.795   2
   3  -8   5 596.610 186.219   4
   3  -8   6 226.091 148.342   4
   3  -8   7 188.167 168.331   4
   3  -8   8 1155.54 263.064   4
   3  -8   9 3902.05 549.010   4
   3  -8  10 1290.03 348.948   4
   3  -8  11 2483.24 478.600   4
   3  -7  -2 2981.92 438.900   2
   3  -7  -1 3579.85 451.180   2
   3  -7   0 17736.9 967.391   2
   3  -7   1 34265.6 1307.52   2
   3  -7   2 35814.9 1278.11   2
   3  -7   2 35105.1 1333.09   4
   3  -7   3 16489.2 804.110   2
   3  -7   3 16430.4 864.753   4
   3  -7   4 14463.9 721.675   2
   3  -7   4 14681.9 821.652   4
   3  -7   5 24519.1 930.432   2
   3  -7   5 27190.3 1163.59   4
   3  -7   6 33818.6 1088.18   2
   3  -7   6 40621.8 1506.69   4
   3  -7   7 11306.2 813.125   4
   3  -7   8 589.766 208.882   4
   3  -7   9 425.149 177.641   4
   3  -7  10 459.861 168.889   4
   3  -7  11 2486.05 465.813   4
   3  -6  -5 38440.7 964.197   6
   3  -6  -4 20485.3 611.350   6
   3  -6  -3 7571.86 694.028   2
   3  -6  -2 5721.76 565.171   2
   3  -6  -1 19901.5 1008.63   2
   3  -6   0 23217.1 1038.57   2
   3  -6   1 110760. 2517.84   2
   3  -6   2 77361.1 1919.48   2
   3  -6   2 76206.8 1930.66   4
   3  -6   3 34822.8 1150.73   2
   3  -6   3 34030.4 1189.63   4
   3  -6   4 38854.9 1291.02   4
   3  -6   5 39953.5 1360.81   4
   3  -6   6 36570.2 1368.50   4
   3  -6   7 3190.85 406.472   4
   3  -6   8 623.162 193.396   4
   3  -6   9 4217.87 541.647   4
   3  -6  10 1345.34 323.554   4
   3  -6  11 6188.71 744.462   4
   3  -5 -13 0.40084 78.2421   3
   3  -5  -4 45473.5 1738.09   2
   3  -5  -4 42609.3 1051.71   6
   3  -5  -3 26837.5 1237.05   2
   3  -5  -3 24985.9 743.583   6
   3  -5  -2 1839.20 300.990   2
   3  -5  -1 15318.1 820.330   2
   3  -5   0 28380.0 1080.74   2
   3  -5   1 82448.2 1966.39   2
   3  -5   2 61276.2 1534.07   4
   3  -5   3 53622.2 1425.80   4
   3  -5   4 43726.3 1302.20   4
   3  -5   5 24306.9 984.419   4
   3  -5   6 45377.8 1479.12   4
   3  -5   7 2165.68 339.598   4
   3  -5   8 2228.29 368.672   4
   3  -5   9 3046.02 466.529   4
   3  -5  10 1230.81 297.526   4
   3  -5  11 5043.71 665.325   4
   3  -4 -13 2380.68 482.838   3
   3  -4 -12 5477.15 681.004   3
   3  -4  -8 72938.1 1322.59   5
   3  -4  -5 44633.0 1735.18   2
   3  -4  -4 9519.21 714.696   2
   3  -4  -3 105.414 84.6102   1
   3  -4  -3 39.5418 92.6054   2
   3  -4  -3 29.4664 28.2069   6
   3  -4  -2 11004.8 674.992   2
   3  -4  -2 9620.25 660.012   1
   3  -4  -2 9494.20 446.908   6
   3  -4  -1 61259.3 1784.85   1
   3  -4  -1 63032.9 1683.42   2
   3  -4   0 94893.3 2339.28   1
   3  -4   0 99027.2 2162.79   2
   3  -4   1 247026. 4612.84   1
   3  -4   1 261005. 4117.60   4
   3  -4   2 82529.0 1705.70   4
   3  -4   2 81669.4 2154.23   1
   3  -4   3 23668.6 803.729   4
   3  -4   4 36563.5 1097.89   4
   3  -4   5 23476.1 892.466   3
   3  -4   5 25467.5 953.776   4
   3  -4   6 20169.4 827.160   3
   3  -4   6 24429.1 1027.27   4
   3  -4   7 1964.85 247.759   3
   3  -4   7 2544.08 350.846   4
   3  -4   8 4348.67 494.456   4
   3  -4   9 4311.55 537.137   4
   3  -3 -13 238.369 199.143   3
   3  -3 -12 235.241 177.619   3
   3  -3 -11 16963.6 1121.74   3
   3  -3  -9 84716.0 1885.25   5
   3  -3  -8 44680.9 1138.66   5
   3  -3  -7 32801.5 823.834   5
   3  -3  -6 13469.2 393.828   5
   3  -3  -5 28845.5 1284.61   2
   3  -3  -4 2234.98 312.329   1
   3  -3  -4 2312.76 325.502   2
   3  -3  -3 2890.08 342.692   1
   3  -3  -3 2988.82 346.297   2
   3  -3  -2 24427.6 962.479   2
   3  -3  -2 26669.8 1034.93   1
   3  -3  -2 26492.5 800.325   6
   3  -3  -1 91715.8 2133.42   1
   3  -3  -1 90587.2 1836.18   6
   3  -3   0 21757.3 900.022   1
   3  -3   1 108870. 1891.15   4
   3  -3   1 104926. 2371.75   1
   3  -3   2 1268.45 146.923   4
   3  -3   3 7007.70 375.313   4
   3  -3   4 880.657 150.941   4
   3  -3   4 702.346 132.114   3
   3  -3   5 2096.53 217.576   3
   3  -3   5 1963.20 250.570   4
   3  -3   6 2301.84 232.519   3
   3  -3   6 2828.12 335.257   4
   3  -3   7 97.3185 92.9948   4
   3  -3   8 17613.7 1015.90   4
   3  -2 -13 219.671 181.145   3
   3  -2 -12 946.802 288.209   3
   3  -2 -11 21137.6 1225.63   3
   3  -2 -10 29290.9 1384.80   3
   3  -2 -10 25657.4 1099.79   5
   3  -2  -9 23824.1 972.866   5
   3  -2  -8 5968.15 430.359   5
   3  -2  -6 15525.7 930.507   2
   3  -2  -5 6263.50 492.217   1
   3  -2  -5 5994.45 536.377   2
   3  -2  -4 22868.8 935.313   1
   3  -2  -4 22699.6 874.366   4
   3  -2  -4 24071.2 1000.36   2
   3  -2  -4 22301.0 539.609   5
   3  -2  -3 12829.7 377.259   5
   3  -2  -3 11347.3 632.051   2
   3  -2  -3 12064.8 633.049   1
   3  -2  -2 34212.6 793.591   5
   3  -2  -2 35208.1 1104.29   1
   3  -2  -2 34074.1 945.853   6
   3  -2  -1 243936. 4053.43   1
   3  -2  -1 242454. 3776.61   5
   3  -2  -1 238380. 3879.89   6
   3  -2   0 992.197 172.854   5
   3  -2   0 925.186 180.223   1
   3  -2   0 759.080 149.756   6
   3  -2   1 105088. 2290.05   5
   3  -2   1 110066. 1697.73   4
   3  -2   2 9925.80 362.488   4
   3  -2   3 582.091 112.421   4
   3  -2   4 13786.4 468.938   3
   3  -2   4 14931.3 612.567   4
   3  -2   5 47289.5 1055.85   3
   3  -2   5 50358.9 1373.23   4
   3  -2   6 19240.9 884.664   4
   3  -1 -14 162.577 127.939   3
   3  -1 -13 1110.86 305.642   3
   3  -1 -12 5026.50 630.909   3
   3  -1 -11 26811.6 1365.88   3
   3  -1 -11 23226.8 1183.71   5
   3  -1 -10 39875.1 1604.16   3
   3  -1 -10 36168.1 1427.13   5
   3  -1  -9 23983.2 1159.64   3
   3  -1  -8 12141.7 771.842   3
   3  -1  -6 27891.8 1190.07   2
   3  -1  -5 81010.7 1994.86   4
   3  -1  -5 85933.2 2119.06   2
   3  -1  -5 83946.1 1914.79   1
   3  -1  -4 2427.94 254.572   1
   3  -1  -4 2555.24 266.649   4
   3  -1  -4 2661.66 301.551   2
   3  -1  -3 4207.21 355.164   2
   3  -1  -3 4763.71 317.441   4
   3  -1  -3 4499.20 334.467   1
   3  -1  -3 4462.71 257.022   5
   3  -1  -2 46687.5 1020.48   5
   3  -1  -2 46610.1 1178.01   1
   3  -1  -2 47341.6 1002.23   4
   3  -1  -1 64189.2 1382.55   5
   3  -1  -1 68582.8 1114.01   4
   3  -1  -1 65490.9 1473.73   6
   3  -1  -1 68468.0 1489.41   1
   3  -1   0 111800. 2153.11   5
   3  -1   0 109760. 2167.30   6
   3  -1   1 139375. 2702.44   5
   3  -1   2 24638.9 989.878   5
   3  -1   3 13153.0 310.478   3
   3   0 -14 145.998 77.6572   3
   3   0 -13 1803.40 384.574   3
   3   0 -12 12599.7 986.144   3
   3   0 -12 10258.8 876.769   5
   3   0 -11 35463.0 1607.58   3
   3   0 -10 59922.4 2046.77   3
   3   0  -9 78749.4 2267.80   3
   3   0  -8 47959.4 1606.03   3
   3   0  -7 39077.7 1347.09   3
   3   0  -6 22611.7 936.042   3
   3   0  -6 23339.5 1003.69   2
   3   0  -5 73820.7 1761.88   3
   3   0  -5 69944.9 1777.65   4
   3   0  -5 73963.3 1825.10   2
   3   0  -4 2803.43 229.667   1
   3   0  -4 2524.52 268.939   2
   3   0  -4 3234.57 288.018   4
   3   0  -3 14365.6 558.869   4
   3   0  -3 13423.1 505.702   1
   3   0  -3 14080.0 567.695   5
   3   0  -2 63785.6 1359.10   5
   3   0  -2 63255.7 1286.41   1
   3   0  -2 63423.1 1228.05   4
   3   0  -1 117097. 2233.29   6
   3   0  -1 120757. 2196.39   5
   3   0  -1 122403. 1854.62   4
   3   0   0 72816.5 1262.14   3
   3   0   0 71511.1 1603.24   5
   3   0   0 75459.9 1627.79   6
   3   0   1 46860.5 781.738   3
   3   0   1 50214.3 1337.78   5
   3   0   2 121061. 2583.42   5
   3   0   3 33118.2 1258.84   5
   3   1 -14-40.7173 109.633   3
   3   1 -13 750.993 285.268   3
   3   1 -12 6197.60 689.144   3
   3   1 -11 39631.5 1751.66   3
   3   1 -10 33521.4 1496.23   3
   3   1  -9 40275.1 1560.48   3
   3   1  -8 21564.5 1053.31   3
   3   1  -7 29484.8 1169.31   3
   3   1  -6 24544.2 986.610   3
   3   1  -6 22299.8 913.318   2
   3   1  -5 22057.1 876.514   3
   3   1  -5 22242.0 843.775   2
   3   1  -5 22805.7 920.682   4
   3   1  -4 802.047 163.573   3
   3   1  -4 580.643 78.5606   1
   3   1  -4 834.886 164.157   4
   3   1  -3 11764.3 541.870   3
   3   1  -3 12412.7 377.530   1
   3   1  -3 12026.4 529.410   4
   3   1  -2 9661.08 451.103   3
   3   1  -2 9766.15 429.349   4
   3   1  -2 9700.68 502.615   5
   3   1  -1 54019.7 1308.74   5
   3   1  -1 52993.3 1140.73   3
   3   1   0 139909. 2623.07   5
   3   1   0 139230. 2248.25   3
   3   1   0 146895. 2616.16   6
   3   1   1 135710. 2688.91   5
   3   1   1 142345. 2643.98   6
   3   1   2 104317. 2324.00   5
   3   1   3 9304.19 624.752   5
   3   2 -14-84.9892 166.515   3
   3   2 -13 2737.10 483.374   3
   3   2 -12 12467.6 1030.22   3
   3   2 -11 51919.1 2043.92   3
   3   2 -10 46720.4 1835.49   3
   3   2  -9 35771.9 1496.84   3
   3   2  -8 9251.05 698.621   3
   3   2  -7 985.544 228.470   3
   3   2  -6 994.048 191.145   3
   3   2  -6 1067.19 169.755   2
   3   2  -5 282.796 129.535   3
   3   2  -5 70.9325 55.8743   2
   3   2  -4 17005.4 747.059   3
   3   2  -4 16351.3 753.809   4
   3   2  -3 33022.2 1023.91   3
   3   2  -3 33164.6 1031.29   4
   3   2  -2 116188. 2249.79   3
   3   2  -2 119868. 2285.58   4
   3   2  -2 119871. 2463.08   5
   3   2  -1 58228.0 1483.94   5
   3   2   0 230191. 3949.48   5
   3   2   0 233922. 3842.56   6
   3   2   1 194903. 3592.84   5
   3   2   1 205025. 3489.16   6
   3   2   2 164374. 3227.02   5
   3   3 -12 13037.3 1079.88   3
   3   3 -11 37630.0 1770.87   3
   3   3 -10 18404.8 1157.74   3
   3   3  -9 6593.01 657.795   3
   3   3  -8 423.463 159.204   3
   3   3  -7 3143.33 394.056   3
   3   3  -6 4861.57 459.578   3
   3   3  -6 4703.53 325.860   2
   3   3  -5 413.899 135.427   3
   3   3  -4 4450.74 400.424   3
   3   3  -4 4269.49 403.362   4
   3   3  -3 3850.41 372.090   4
   3   3  -3 3669.45 177.622   1
   3   3  -2 114340. 2544.58   5
   3   3  -1 59019.5 1609.21   5
   3   3   0 73589.3 1819.57   5
   3   3   0 75507.4 1674.15   6
   3   3   1 33455.3 1153.91   5
   3   3   1 36053.6 1074.77   6
   3   3   2 12672.9 709.592   5
   3   4  -6 21708.3 669.624   2
   3   4  -3 752.051 105.121   1
   3   4  -2 78400.0 1648.99   1
   3   4  -1 61889.1 1537.48   1
   3   4  -1 61890.2 1778.93   5
   3   4   0 84871.2 2101.38   5
   3   4   0 84001.4 1834.04   6
   3   4   1 42933.5 1208.34   6
   3   4   9 12527.7 1258.34   1
   3   4  10 3418.97 712.548   1
   3   5  -6 10585.3 385.081   2
   3   5  -4 19104.5 559.069   1
   3   5  -3 63949.5 1449.00   1
   3   5  -2 106942. 2239.22   1
   3   5  -1 107460. 2380.93   1
   3   5   0 93300.2 2288.71   1
   3   5   0 90484.3 1971.91   6
   3   5   1 36708.9 1109.39   6
   3   5   1 36246.5 1412.36   1
   3   5   2 12708.5 862.049   1
   3   5   3-75.5316 113.080   1
   3   5   4-120.175 188.476   1
   3   5   5 6088.79 721.040   1
   3   5   6 3054.05 532.012   1
   3   5   7 16847.6 1354.96   1
   3   5   8 16058.0 1388.28   1
   3   5   9 19473.7 1647.36   1
   3   6  -4 15855.7 611.641   1
   3   6  -3 39445.5 1193.65   1
   3   6  -2 65599.1 1767.38   1
   3   6  -1 71680.1 1988.80   1
   3   6   0 56764.8 1832.28   1
   3   6   0 55208.3 1454.78   6
   3   6   1 59059.7 1995.46   1
   3   6   1 61221.9 1531.52   6
   3   6   2 6358.60 649.367   1
   3   6   3 1220.92 284.537   1
   3   6   4 67.5569 112.297   1
   3   6   5 5950.44 748.301   1
   3   6   6 5111.14 723.051   1
   3   6   7 13856.5 1288.71   1
   3   6   8 14960.4 1397.79   1
   3   6   9 10869.5 1257.17   1
   3   7  -4 55304.4 1452.12   1
   3   7  -3 74925.0 1948.97   1
   3   7  -2 99698.8 2481.78   1
   3   7  -1 121381. 2969.34   1
   3   7   0 79572.0 2391.38   1
   3   7   0 77258.5 1817.17   6
   3   7   1 135390. 3453.77   1
   3   7   1 126536. 2527.32   6
   3   7   2 17232.5 1161.73   1
   3   7   3 1663.48 378.356   1
   3   7   4 163.459 163.297   1
   3   7   5 838.976 276.462   1
   3   7   6 3537.75 646.253   1
   3   7   7 7858.55 1009.71   1
   3   7   8 7108.81 1002.30   1
   3   8  -4 16572.1 809.814   1
   3   8  -3 24408.1 1113.28   1
   3   8  -2 38342.5 1527.96   1
   3   8  -1 38843.8 1630.49   1
   3   8   0 2439.99 415.223   1
   3   8   0 2240.76 263.229   6
   3   8   1 3489.97 536.918   1
   3   8   1 3263.44 314.669   6
   3   8   2 4237.39 612.351   1
   3   8   3 27411.8 1669.79   1
   3   8   4 44175.3 2242.50   1
   3   8   5 31093.7 1956.19   1
   3   8   6 11932.1 1267.03   1
   3   8   7 9318.36 1177.11   1
   3   9  -4 33797.6 1320.69   1
   3   9  -3 12153.3 838.264   1
   3   9  -2 12740.6 917.468   1
   3   9  -1 15361.7 1062.17   1
   3   9  -1 14324.5 735.468   6
   3   9   0 3491.13 320.537   6
   3   9   0 4231.67 590.339   1
   3   9   1 113.071 132.656   1
   3   9   2 9075.12 953.509   1
   3   9   3 14703.8 1275.71   1
   3   9   4 11114.7 1157.95   1
   3   9   5 4635.08 781.111   1
   3   9   6 1069.08 397.513   1
   3  10  -3 19024.8 1136.79   1
   3  10  -2 16343.7 1115.73   1
   3  10  -1 10945.8 967.884   1
   3  10   0 6240.96 763.578   1
   3  10   1 1919.86 443.992   1
   3  10   2 3147.11 576.794   1
   3  10   3 4893.89 772.986   1
   3  10   4 3472.20 678.317   1
   3  10   5 3130.37 716.518   1
   3  11  -2 22533.8 1411.01   1
   3  11  -1 15757.5 1242.24   1
   3  11   0 3507.02 609.078   1
   3  11   1 4038.04 692.733   1
   3  11   2 131.245 130.647   1
   3  11   3 2388.54 548.117   1
   3  11   4 1356.42 454.369   1
   3  12  -1 17234.0 1363.33   1
   3  12   0 10490.4 1122.87   1
   3  12   1 3650.27 712.358   1
   3  12   2 211.372 185.837   1
   3  12   3 1108.76 418.560   1
   3  13   1 392.130 257.680   1
   3  13   2 2231.85 589.866   1
   4 -14   0 2859.53 605.856   4
   4 -14   1 3338.89 635.456   4
   4 -14   2 3643.17 650.632   4
   4 -14   3 3286.51 592.774   4
   4 -13   0 1232.99 367.573   4
   4 -13   1 4234.93 672.183   4
   4 -13   2 2644.07 537.995   4
   4 -13   3 1931.98 447.384   4
   4 -13   4 2832.69 523.976   4
   4 -13   5 908.987 283.563   4
   4 -13   6 95.5055 130.106   4
   4 -12   1 17568.5 1317.75   4
   4 -12   2 18995.2 1349.69   4
   4 -12   3 10341.5 964.793   4
   4 -12   4 5648.50 702.785   4
   4 -12   5 4380.64 616.920   4
   4 -12   6 2487.60 460.634   4
   4 -12   7 444.708 199.022   4
   4 -11   1 22578.8 1415.54   4
   4 -11   2 22744.9 1386.66   4
   4 -11   3 17117.7 1176.71   4
   4 -11   4 13496.9 1031.71   4
   4 -11   5 5538.94 664.329   4
   4 -11   6 538.721 238.319   4
   4 -11   7 157.977 90.1543   4
   4 -10   1 41647.4 1844.40   4
   4 -10   2 28686.2 1429.46   2
   4 -10   2 31677.3 1543.49   4
   4 -10   3 12333.3 865.264   2
   4 -10   3 14226.1 995.383   4
   4 -10   4 16662.6 1081.47   4
   4 -10   5 5064.84 587.790   4
   4 -10   6 1097.90 307.993   4
   4 -10   7 84.8057 110.428   4
   4 -10   8 2665.20 455.778   4
   4  -9  -1 20238.9 1273.82   2
   4  -9   0 12330.3 936.643   2
   4  -9   1 6218.17 635.960   2
   4  -9   1 5646.20 601.575   4
   4  -9   2 8883.01 730.674   2
   4  -9   2 9362.51 752.341   4
   4  -9   3 938.802 230.604   2
   4  -9   3 1269.36 277.677   4
   4  -9   4 2489.99 344.458   2
   4  -9   4 2762.15 401.878   4
   4  -9   5 1717.26 317.422   4
   4  -9   6 724.894 220.869   4
   4  -9   7 1038.26 272.864   4
   4  -9   8 3342.82 489.921   4
   4  -8  -3 94.9136 112.499   2
   4  -8  -2 17217.4 1146.00   2
   4  -8  -1 9028.06 794.639   2
   4  -8   0 4846.33 556.426   2
   4  -8   1 7025.68 632.670   4
   4  -8   1 6840.90 621.945   2
   4  -8   2 4785.80 514.143   2
   4  -8   2 4594.15 500.527   4
   4  -8   3 1646.86 284.697   2
   4  -8   3 2034.29 306.843   4
   4  -8   4 3689.18 417.406   2
   4  -8   4 4327.77 465.334   4
   4  -8   5-65.5180 61.6552   2
   4  -8   5 71.0379 56.3423   4
   4  -8   6 712.681 194.930   4
   4  -8   7 5269.27 571.941   4
   4  -8   8 5947.17 632.823   4
   4  -8   9 8315.31 807.948   4
   4  -7  -6 4033.20 309.905   6
   4  -7  -5 1682.21 194.361   6
   4  -7  -4 8403.75 830.522   2
   4  -7  -3 10389.4 870.997   2
   4  -7  -2 45567.5 1822.48   2
   4  -7  -1 50011.1 1829.72   2
   4  -7   0 29512.7 1325.70   2
   4  -7   1 32264.8 1344.59   2
   4  -7   1 33134.1 1288.80   4
   4  -7   2 21808.8 1046.12   2
   4  -7   2 20690.5 960.833   4
   4  -7   3 4495.61 453.413   2
   4  -7   3 5038.49 467.364   4
   4  -7   4 221.058 109.691   4
   4  -7   5 40.1678 70.7685   4
   4  -7   6 412.974 146.988   4
   4  -7   7 8010.37 667.710   4
   4  -7   8 14565.4 985.175   4
   4  -7   9 13735.1 1009.57   4
   4  -6  -6 9592.45 543.383   6
   4  -6  -5 2061.15 239.519   6
   4  -6  -5 2546.90 441.754   2
   4  -6  -4 8793.49 485.953   6
   4  -6  -4 9695.22 832.114   2
   4  -6  -3 21636.2 1199.38   2
   4  -6  -2 69995.3 2186.47   2
   4  -6  -1 102801. 2672.77   2
   4  -6   0 78558.5 2187.50   2
   4  -6   1 79316.0 2146.68   2
   4  -6   1 80780.5 1998.04   4
   4  -6   2 19599.4 845.969   4
   4  -6   3 12733.2 668.917   4
   4  -6   4 11655.3 661.628   4
   4  -6   5 83.2727 109.050   4
   4  -6   6 715.993 215.508   4
   4  -6   7 1836.40 322.341   4
   4  -6   8 10050.8 785.782   4
   4  -6   9 11793.3 920.155   4
   4  -5 -13 4584.71 685.216   3
   4  -5  -6 6823.91 722.525   2
   4  -5  -5 77.6541 89.4811   2
   4  -5  -4 15191.6 669.897   6
   4  -5  -4 15390.8 993.297   2
   4  -5  -3 82417.1 2353.33   2
   4  -5  -3 77264.3 1774.38   6
   4  -5  -2 121161. 2905.67   2
   4  -5  -2 116635. 2371.49   6
   4  -5  -1 143858. 3168.45   2
   4  -5   0 80076.3 2118.63   2
   4  -5   1 78932.4 1792.34   4
   4  -5   2 22692.6 817.290   4
   4  -5   3 6400.74 424.220   4
   4  -5   4 16542.1 740.680   4
   4  -5   5 1122.52 208.595   4
   4  -5   6 292.121 129.263   4
   4  -5   7 9693.32 713.969   4
   4  -5   8 23845.4 1210.08   4
   4  -5   9 19392.4 1156.95   4
   4  -4 -14 1407.50 374.351   3
   4  -4 -13 18089.2 1325.20   3
   4  -4 -12 38107.5 1903.80   3
   4  -4  -6 334.571 179.217   2
   4  -4  -5 1523.40 305.270   2
   4  -4  -4 40384.4 1552.62   2
   4  -4  -4 38599.0 1150.37   6
   4  -4  -3 73559.7 2116.55   2
   4  -4  -3 75129.0 1724.84   6
   4  -4  -2 32393.6 1252.36   2
   4  -4  -2 30655.4 1016.22   6
   4  -4   1 97557.0 1875.58   4
   4  -4   2 5110.10 321.961   4
   4  -4   3 223.238 79.4250   4
   4  -4   4 4780.01 362.298   4
   4  -4   5 16.2130 47.7895   3
   4  -4   5 101.220 61.7269   4
   4  -4   6 609.829 125.885   3
   4  -4   6 649.874 160.895   4
   4  -4   7 18087.5 955.696   4
   4  -4   8 36687.2 1516.17   4
   4  -3 -14 1620.66 402.555   3
   4  -3 -13 17457.5 1271.77   3
   4  -3 -12 14208.4 1106.85   3
   4  -3 -11 22030.4 1325.68   3
   4  -3  -9 316.092 87.3976   5
   4  -3  -8 717.109 116.376   5
   4  -3  -7 86.5818 37.1188   5
   4  -3  -7 84.0951 35.2854   5
   4  -3  -7 29.5836 80.0184   2
   4  -3  -6 1562.77 118.097   5
   4  -3  -6 1773.69 344.199   2
   4  -3  -5 5821.47 226.803   5
   4  -3  -5 7830.43 671.066   2
   4  -3  -4 13310.9 409.972   5
   4  -3  -4 14461.6 848.452   2
   4  -3  -4 14770.0 836.497   1
   4  -3  -3 6408.72 428.675   6
   4  -3  -3 6676.58 326.676   5
   4  -3  -3 6482.91 532.995   2
   4  -3  -3 6512.92 534.412   1
   4  -3  -2 20985.2 721.097   5
   4  -3  -2 21589.4 969.501   1
   4  -3  -2 21236.1 822.644   6
   4  -3  -1 71867.5 1912.00   1
   4  -3  -1 72168.2 1680.42   5
   4  -3  -1 68279.8 1699.95   6
   4  -3   0 599.606 154.734   1
   4  -3   1 49299.5 1000.20   4
   4  -3   2 8539.63 362.188   4
   4  -3   3 584.370 113.229   4
   4  -3   4 353.464 108.516   4
   4  -3   5 1891.75 188.304   3
   4  -3   5 1763.08 243.312   4
   4  -3   6 10340.1 461.093   3
   4  -3   6 11423.9 682.599   4
   4  -2 -14 1068.53 322.951   3
   4  -2 -13 10996.2 997.322   3
   4  -2 -12 16279.3 1150.41   3
   4  -2 -11 24330.2 1366.82   3
   4  -2 -10 15920.5 1029.22   3
   4  -2 -10 12593.1 721.821   5
   4  -2  -7-9.75610 130.365   2
   4  -2  -6 191.333 115.042   1
   4  -2  -6 105.352 57.3202   5
   4  -2  -6 138.745 133.688   2
   4  -2  -5 2778.04 347.843   1
   4  -2  -5 2727.12 365.738   2
   4  -2  -5 2857.45 213.997   5
   4  -2  -4 39424.2 909.396   5
   4  -2  -4 39594.7 1173.24   4
   4  -2  -4 37643.9 1347.17   2
   4  -2  -4 37059.0 1282.38   1
   4  -2  -3 18871.9 614.044   5
   4  -2  -3 18749.2 681.931   4
   4  -2  -3 18661.3 842.056   1
   4  -2  -2 6662.75 385.044   5
   4  -2  -2 6983.62 495.701   1
   4  -2  -2 7336.28 354.879   4
   4  -2  -2 6353.47 437.130   6
   4  -2  -1 83975.1 2001.75   1
   4  -2  -1 84085.3 1837.66   5
   4  -2  -1 81734.1 1886.95   6
   4  -2   0 41074.8 1250.04   5
   4  -2   0 43117.0 1273.11   6
   4  -2   1 14126.3 762.658   5
   4  -2   1 13078.9 322.722   4
   4  -2   2 3733.00 205.663   4
   4  -2   3 10726.4 445.076   4
   4  -2   4 15434.2 442.869   3
   4  -1 -14 2736.31 520.064   3
   4  -1 -13 11696.3 1019.59   3
   4  -1 -12 23173.2 1393.08   3
   4  -1 -11 28977.8 1481.22   3
   4  -1 -10 9236.66 780.255   3
   4  -1  -9 1127.45 269.144   3
   4  -1  -8 2827.22 381.701   3
   4  -1  -7 1152.64 255.265   2
   4  -1  -6 61534.4 1864.31   2
   4  -1  -6 56751.8 1614.11   1
   4  -1  -5 21033.5 867.372   1
   4  -1  -5 19685.2 861.041   4
   4  -1  -5 21862.4 1000.90   2
   4  -1  -5 21016.1 750.468   5
   4  -1  -4 79653.8 2008.02   2
   4  -1  -4 80382.2 1795.09   4
   4  -1  -4 81266.9 1870.37   1
   4  -1  -4 80464.5 1654.05   5
   4  -1  -3 34836.3 954.394   5
   4  -1  -3 35943.0 1101.26   1
   4  -1  -3 37605.6 974.427   4
   4  -1  -2 63557.9 1457.67   5
   4  -1  -2 65158.0 1569.56   1
   4  -1  -2 67368.7 1245.95   4
   4  -1  -1 155326. 2848.20   5
   4  -1  -1 154815. 2246.64   4
   4  -1  -1 151228. 2908.79   6
   4  -1   0 212568. 3833.85   5
   4  -1   0 222198. 3875.26   6
   4  -1   1 102636. 2377.80   5
   4   0 -15 1278.25 358.123   3
   4   0 -14 4306.48 651.106   3
   4   0 -13 19040.7 1332.29   3
   4   0 -12 31381.2 1634.45   3
   4   0 -11 50555.1 2003.68   3
   4   0 -10 21891.1 1228.37   3
   4   0  -9 28613.0 1320.65   3
   4   0  -8 4461.15 480.023   3
   4   0  -8 3991.14 485.558   2
   4   0  -7 723.162 185.447   3
   4   0  -7 610.421 187.416   2
   4   0  -6 189.194 122.689   3
   4   0  -6 325.514 110.129   2
   4   0  -5 699.973 135.418   1
   4   0  -5 1091.76 208.346   3
   4   0  -5 832.395 179.617   2
   4   0  -5 766.685 170.977   4
   4   0  -4 3953.97 333.164   4
   4   0  -4 3766.77 297.156   1
   4   0  -4 3983.28 332.851   5
   4   0  -4 4612.17 379.923   3
   4   0  -3 20659.2 716.872   1
   4   0  -3 21592.6 701.993   4
   4   0  -3 19351.4 746.613   3
   4   0  -3 20752.8 767.213   5
   4   0  -2 87054.4 1846.66   5
   4   0  -2 87209.2 1568.83   4
   4   0  -2 86894.0 1795.69   1
   4   0  -2 82971.4 1737.06   3
   4   0  -1 180868. 2921.33   3
   4   0  -1 186942. 3265.13   5
   4   0  -1 178492. 3280.07   6
   4   0  -1 177312. 2683.14   4
   4   0   0 134117. 2173.42   3
   4   0   0 132282. 2702.64   5
   4   0   0 137022. 2705.12   6
   4   0   1 43909.7 819.419   3
   4   0   1 43367.1 1384.52   5
   4   0   1 43736.1 1347.54   6
   4   1 -15 2264.29 495.640   3
   4   1 -14 13603.2 1175.24   3
   4   1 -13 21981.9 1455.28   3
   4   1 -12 26750.6 1520.41   3
   4   1 -11 43174.9 1878.89   3
   4   1 -10 4388.64 549.360   3
   4   1  -9 927.052 247.453   3
   4   1  -8 157.006 58.9435   2
   4   1  -8 204.332 137.192   3
   4   1  -7 3241.27 393.632   3
   4   1  -7 2747.86 347.429   2
   4   1  -6 18158.8 881.112   3
   4   1  -6 17406.6 834.974   2
   4   1  -5 32183.6 1149.34   3
   4   1  -5 34715.2 828.675   1
   4   1  -5 34111.6 1182.30   4
   4   1  -4 43364.5 1297.52   3
   4   1  -4 45049.3 1282.06   4
   4   1  -4 46576.9 1013.91   1
   4   1  -4 46763.2 1402.46   5
   4   1  -3 113089. 1963.97   1
   4   1  -3 106087. 2196.97   3
   4   1  -3 112367. 2171.74   4
   4   1  -3 108886. 2331.77   5
   4   1  -2 300294. 4857.80   5
   4   1  -2 300345. 4525.87   4
   4   1  -1 324741. 5278.03   5
   4   1  -1 322212. 4908.71   3
   4   1  -1 333949. 5291.25   6
   4   1   0 251809. 4378.01   5
   4   1   0 246499. 3789.47   3
   4   1   0 259883. 4343.14   6
   4   1   1 64406.3 1783.86   5
   4   1   1 67331.4 1740.46   6
   4   2 -15 374.682 185.061   3
   4   2 -14 7653.85 900.491   3
   4   2 -13 5557.06 727.892   3
   4   2 -12 8477.66 852.141   3
   4   2 -11 8539.21 813.517   3
   4   2 -10 359.091 171.765   3
   4   2  -9 1061.74 274.432   3
   4   2  -8 1753.17 270.934   2
   4   2  -8 1365.60 277.842   3
   4   2  -7 8465.01 662.018   3
   4   2  -7 7451.60 532.004   2
   4   2  -6 20218.2 962.249   3
   4   2  -6 19458.2 835.478   2
   4   2  -5 69719.3 1871.77   3
   4   2  -4 98624.3 2175.88   3
   4   2  -4 101988. 2204.39   4
   4   2  -4 102770. 2394.19   5
   4   2  -3 45199.9 1306.63   3
   4   2  -3 46428.1 1305.00   4
   4   2  -3 46547.8 1459.38   5
   4   2  -2 196728. 3464.33   3
   4   2  -2 206873. 3754.31   5
   4   2  -1 124643. 2631.83   5
   4   2  -1 126568. 2555.68   6
   4   2   0 58198.3 1635.49   5
   4   2   0 60900.0 1598.19   6
   4   2   1 807.495 206.545   6
   4   3 -13 10139.4 1007.95   3
   4   3 -12 9979.42 955.402   3
   4   3 -11 8691.02 857.777   3
   4   3 -10 6453.28 692.156   3
   4   3  -9 3990.50 526.787   3
   4   3  -8 672.830 210.867   3
   4   3  -8 712.088 167.472   2
   4   3  -7 10705.2 763.917   3
   4   3  -7 9415.59 568.308   2
   4   3  -6 6266.02 551.763   3
   4   3  -6 6805.16 452.759   2
   4   3  -5 20518.4 970.786   3
   4   3  -4 31431.7 1166.12   3
   4   3  -3 5872.44 471.315   4
   4   3  -1 21716.4 876.713   6
   4   3   0 644.973 151.152   6
   4   3   1 18810.4 848.236   6
   4   4 -10 1326.57 290.252   3
   4   4  -9 1146.08 284.610   3
   4   4  -8 74.6245 100.455   3
   4   4  -8 55.4483 50.5105   2
   4   4  -7 59773.7 1989.93   3
   4   4  -7 54891.2 1421.06   2
   4   4  -3 28438.8 809.761   1
   4   4  -1 29233.1 1060.31   6
   4   4   0 10880.8 620.123   6
   4   4   1 2235.16 286.277   6
   4   5  -7 22345.0 757.811   2
   4   5  -4 16658.5 545.632   1
   4   5  -3 20562.4 762.917   1
   4   5  -2 42865.9 1298.01   1
   4   5  -1 24512.4 1032.58   1
   4   5  -1 24903.7 988.968   6
   4   5   0 710.670 197.498   1
   4   5   0 699.100 157.011   6
   4   5   1 1806.01 262.015   6
   4   5   7 22786.1 1657.76   1
   4   5   8 11753.4 1261.06   1
   4   5   9 2806.92 658.825   1
   4   6  -7 33167.8 859.782   2
   4   6  -4 72231.6 1581.43   1
   4   6  -3 104826. 2300.88   1
   4   6  -2 124047. 2754.47   1
   4   6  -1 80863.7 2039.55   6
   4   6  -1 80054.4 2212.93   1
   4   6   0 3761.93 460.898   1
   4   6   0 4083.49 392.055   6
   4   6   1 3465.36 464.851   1
   4   6   1 3708.28 373.085   6
   4   6   2 16861.3 1127.69   1
   4   6   3 16181.4 1164.34   1
   4   6   4 16251.4 1241.78   1
   4   6   5 15456.7 1287.79   1
   4   6   6 13976.8 1285.03   1
   4   6   7 9359.93 1089.37   1
   4   6   8 5400.25 913.753   1
   4   7  -5 88355.4 1706.68   1
   4   7  -4 81703.7 1901.51   1
   4   7  -3 32331.9 1220.63   1
   4   7  -2 37102.8 1423.35   1
   4   7  -1 23392.0 1196.11   1
   4   7  -1 25074.3 1043.00   6
   4   7   0 13813.1 967.637   1
   4   7   0 13234.9 736.220   6
   4   7   1 11291.2 915.353   1
   4   7   1 10740.8 647.034   6
   4   7   2 24348.2 1450.76   1
   4   7   3 14992.0 1187.80   1
   4   7   4 6518.39 805.554   1
   4   7   5 3067.33 604.552   1
   4   7   6 4197.90 728.563   1
   4   7   7 4759.50 831.447   1
   4   8  -4 14728.6 781.665   1
   4   8  -3 5860.64 542.718   1
   4   8  -2 22.9262 80.7247   1
   4   8  -1 2652.27 417.176   1
   4   8  -1 2227.80 308.795   6
   4   8   0 11188.0 928.436   1
   4   8   0 10390.6 645.853   6
   4   8   1 13329.4 1081.40   1
   4   8   1 12556.9 692.880   6
   4   8   2 5330.16 709.472   1
   4   8   3 1697.21 423.590   1
   4   8   4 3303.78 619.456   1
   4   8   5 8242.08 1021.68   1
   4   8   6 4749.88 823.304   1
   4   9  -3 2221.40 360.807   1
   4   9  -2 119.288 107.525   1
   4   9  -1 5518.41 658.946   1
   4   9  -1 4393.33 436.970   6
   4   9   0 11888.8 700.864   6
   4   9   0 10848.5 976.534   1
   4   9   1 8514.22 918.613   1
   4   9   2 12032.9 1134.53   1
   4   9   3 12723.1 1244.81   1
   4   9   4 10350.9 1179.78   1
   4   9   5 18556.9 1665.00   1
   4   9   6 17258.0 1687.29   1
   4  10  -2 470.369 198.183   1
   4  10  -2 771.477 200.066   6
   4  10  -1 201.048 174.498   1
   4  10   0 6009.42 764.726   1
   4  10   1 2720.61 530.318   1
   4  10   2 6741.20 904.991   1
   4  10   3 16665.7 1485.42   1
   4  10   4 11265.2 1295.40   1
   4  10   5 13824.9 1491.84   1
   4  11  -1 151.031 110.817   1
   4  11   0 3636.08 641.746   1
   4  11   1 2564.46 546.082   1
   4  11   2 2931.09 641.358   1
   4  11   3 10551.9 1245.03   1
   4  11   4 11810.2 1361.88   1
   4  12   0 1795.97 475.262   1
   4  12   1 3637.47 706.810   1
   4  12   2 4207.99 805.873   1
   4  12   3 4475.25 853.353   1
   5 -14   0 4040.42 721.128   4
   5 -14   1 6068.49 847.360   4
   5 -14   2 3632.03 630.984   4
   5 -14   3 834.772 304.720   4
   5 -13   0 2062.83 482.732   4
   5 -13   1 2673.81 528.864   4
   5 -13   2 3078.62 556.385   4
   5 -13   3 148.727 129.225   4
   5 -13   4 688.008 252.058   4
   5 -12   0 10533.6 1009.68   4
   5 -12   1 8423.89 885.381   4
   5 -12   2 4423.68 625.287   4
   5 -12   3 137.278 145.435   4
   5 -12   4 1061.34 291.688   4
   5 -12   5 3603.54 545.776   4
   5 -11   1 13793.9 1116.73   2
   5 -11   1 13236.9 1051.14   4
   5 -11   2 6670.62 734.161   2
   5 -11   2 6802.45 738.314   4
   5 -11   3 365.820 180.955   4
   5 -11   4 315.840 177.689   4
   5 -11   5 2216.03 413.779   4
   5 -10  -2 14114.7 1180.77   2
   5 -10  -1 14569.7 1163.06   2
   5 -10   0 14161.7 1098.25   2
   5 -10   1 16160.0 1082.75   4
   5 -10   1 15281.7 1109.22   2
   5 -10   2 10770.7 892.643   2
   5 -10   2 11265.8 877.416   4
   5 -10   3 206.064 124.381   2
   5 -10   3 404.545 194.575   4
   5 -10   4 63.1209 88.4285   4
   5 -10   5 936.106 250.386   4
   5 -10   6 1201.62 281.125   4
   5  -9  -3 16637.0 1273.69   2
   5  -9  -2 29995.1 1671.74   2
   5  -9  -1 29251.7 1589.68   2
   5  -9   0 30973.4 1582.29   2
   5  -9   1 23272.1 1314.08   2
   5  -9   1 23557.3 1227.24   4
   5  -9   2 6884.39 686.920   2
   5  -9   2 6768.22 624.329   4
   5  -9   3 74.5129 94.8605   2
   5  -9   3 8.99399 81.8481   4
   5  -9   4 858.763 233.305   2
   5  -9   4 880.521 214.351   4
   5  -9   5 2664.34 396.890   4
   5  -9   6 1436.40 298.061   4
   5  -8  -4 9758.60 947.123   2
   5  -8  -3 662.209 263.202   2
   5  -8  -2 6294.64 708.553   2
   5  -8  -1 7603.98 750.601   2
   5  -8   0 579.289 236.516   2
   5  -8   1 159.864 69.8305   2
   5  -8   1 307.135 109.952   4
   5  -8   2 2990.58 425.394   2
   5  -8   2 2561.67 349.567   4
   5  -8   3 8511.67 717.732   2
   5  -8   3 8399.63 639.919   4
   5  -8   4 16092.5 981.344   2
   5  -8   4 16497.8 909.552   4
   5  -8   5 22351.1 1151.01   2
   5  -8   5 24315.1 1138.36   4
   5  -8   6 17701.9 1009.54   4
   5  -7  -6 9283.73 565.009   6
   5  -7  -5 21365.4 1407.02   2
   5  -7  -5 21173.5 873.412   6
   5  -7  -4 41073.4 1899.27   2
   5  -7  -3 26872.5 1454.25   2
   5  -7  -2 16880.3 1101.02   2
   5  -7  -1 14737.8 996.451   2
   5  -7   0 14717.6 966.600   2
   5  -7   1 6149.67 606.826   2
   5  -7   1 6634.04 528.724   4
   5  -7   2 1914.41 272.496   4
   5  -7   2 1963.10 330.217   2
   5  -7   3 4764.39 434.333   4
   5  -7   4 3473.97 371.069   4
   5  -7   5 16115.0 869.350   4
   5  -7   6 7858.96 625.953   4
   5  -7   7 10761.5 794.294   4
   5  -6  -6 58665.8 2381.61   2
   5  -6  -6 59378.6 1656.60   6
   5  -6  -5 73920.5 2600.91   2
   5  -6  -5 74007.0 1878.07   6
   5  -6  -4 54923.8 2116.11   2
   5  -6  -4 55597.4 1554.04   6
   5  -6  -3 34387.4 1578.24   2
   5  -6  -3 31907.8 1142.43   6
   5  -6  -2 28800.4 1390.30   2
   5  -6  -1 57724.8 1973.93   2
   5  -6   0 17273.8 994.035   2
   5  -6   1 38814.7 1227.73   4
   5  -6   2 3100.13 321.387   4
   5  -6   3 4253.44 366.766   4
   5  -6   4 9057.38 574.759   4
   5  -6   5 21187.0 944.481   4
   5  -6   6 21177.9 1022.35   4
   5  -6   7 25339.5 1203.17   4
   5  -5 -13 12330.5 1163.75   3
   5  -5  -7 18056.0 1275.57   2
   5  -5  -6 49743.0 2082.54   2
   5  -5  -5 33096.5 1593.05   2
   5  -5  -5 34482.9 1191.69   6
   5  -5  -4 27405.9 1390.20   2
   5  -5  -4 29606.6 1080.97   6
   5  -5  -3 11438.5 832.983   2
   5  -5  -3 11214.7 650.030   6
   5  -5  -2 26453.0 1254.81   2
   5  -5  -2 26134.2 1045.58   6
   5  -5  -1 62489.5 1969.81   2
   5  -5   1 37767.7 1070.47   4
   5  -5   2 3001.91 274.832   4
   5  -5   3 6955.74 428.663   4
   5  -5   4 21595.8 841.266   4
   5  -5   5 39531.0 1294.01   4
   5  -5   6 28014.0 1144.38   4
   5  -5   7 9345.39 699.787   4
   5  -4 -14 2085.71 493.574   3
   5  -4 -13 8116.47 913.852   3
   5  -4  -8 4877.34 682.034   2
   5  -4  -7 14549.1 1088.31   2
   5  -4  -6 44502.2 1870.13   2
   5  -4  -5 46855.0 1836.76   2
   5  -4  -4 45313.6 1725.27   2
   5  -4  -4 46624.6 1418.17   6
   5  -4  -3 26777.9 1245.89   2
   5  -4  -3 29085.8 1086.38   6
   5  -4  -2 42455.6 1374.28   6
   5  -4  -1 180602. 3555.68   6
   5  -4   1 57961.7 1227.18   4
   5  -4   2 722.284 117.015   4
   5  -4   3 17006.2 621.204   4
   5  -4   4 31221.1 991.265   4
   5  -4   5 19092.5 823.768   4
   5  -4   6 25232.6 1055.25   4
   5  -3 -14 3542.34 630.147   3
   5  -3 -13 11716.5 1079.76   3
   5  -3 -12 13420.1 1100.86   3
   5  -3  -8 4638.54 617.713   2
   5  -3  -7 9202.31 380.872   5
   5  -3  -7 10365.0 875.219   2
   5  -3  -6 37283.1 872.413   5
   5  -3  -6 39472.6 1646.73   2
   5  -3  -5 7956.68 371.131   5
   5  -3  -5 9076.22 733.063   2
   5  -3  -4 18849.5 659.934   5
   5  -3  -4 20338.4 841.698   4
   5  -3  -4 21467.1 1086.97   2
   5  -3  -3 1389.44 180.754   5
   5  -3  -3 1312.03 184.266   4
   5  -3  -3 1486.69 227.572   6
   5  -3  -2 3772.97 335.390   5
   5  -3  -2 3866.90 379.010   6
   5  -3  -1 33723.7 1191.69   5
   5  -3  -1 34844.4 1246.12   6
   5  -3   0 574.133 165.914   5
   5  -3   0 517.468 72.8321   4
   5  -3   1 13930.2 387.345   4
   5  -3   2 38016.9 834.877   4
   5  -3   3 68124.6 1394.22   4
   5  -3   4 47712.5 1110.38   3
   5  -3   4 57239.4 1335.73   4
   5  -3   5 49397.3 1045.60   3
   5  -2 -14 3366.82 595.693   3
   5  -2 -13 3090.70 534.330   3
   5  -2 -12 4082.09 611.522   3
   5  -2 -11 1526.23 336.718   3
   5  -2 -10 965.032 280.006   3
   5  -2  -8 7360.90 737.004   2
   5  -2  -8 7082.33 462.230   5
   5  -2  -7 16545.2 1050.47   2
   5  -2  -7 14244.2 622.624   5
   5  -2  -6 68156.8 1516.57   5
   5  -2  -6 68027.2 1999.17   1
   5  -2  -5 17269.7 638.963   5
   5  -2  -5 16608.1 951.678   2
   5  -2  -5 17648.9 917.876   1
   5  -2  -4 73665.1 1604.59   5
   5  -2  -4 75564.4 2113.37   2
   5  -2  -4 74636.8 1733.79   4
   5  -2  -4 73963.5 2011.53   1
   5  -2  -3 23578.8 832.031   5
   5  -2  -3 23604.5 1033.13   1
   5  -2  -3 24484.1 776.211   4
   5  -2  -3 22721.1 951.264   6
   5  -2  -2 15756.7 823.299   1
   5  -2  -2 16408.6 733.216   5
   5  -2  -2 17924.4 553.216   4
   5  -2  -2 17063.0 819.436   6
   5  -2  -1 14522.5 738.682   5
   5  -2  -1 15522.0 397.535   4
   5  -2  -1 14829.1 778.226   6
   5  -2  -1 15682.8 832.682   1
   5  -2   0 4581.33 442.302   5
   5  -2   0 5016.64 461.608   6
   5  -1 -14 5728.53 768.501   3
   5  -1 -13 5234.63 698.157   3
   5  -1 -12 3333.97 537.175   3
   5  -1 -11 4349.31 575.351   3
   5  -1 -10 1912.80 378.895   3
   5  -1  -9 2321.89 380.589   3
   5  -1  -9 2010.52 396.764   2
   5  -1  -8 8120.97 674.874   3
   5  -1  -8 7403.73 700.966   2
   5  -1  -7 19348.0 1083.27   2
   5  -1  -7 18223.1 899.697   1
   5  -1  -7 17945.6 818.985   5
   5  -1  -6 75555.0 1957.29   1
   5  -1  -6 77656.1 2245.51   2
   5  -1  -6 74807.9 1783.90   5
   5  -1  -5 76453.2 2127.28   2
   5  -1  -5 74827.3 1840.88   4
   5  -1  -5 76201.3 1927.69   1
   5  -1  -5 74038.7 1726.73   5
   5  -1  -4 48097.2 1290.00   5
   5  -1  -4 49833.7 1465.13   1
   5  -1  -4 51371.0 1319.95   4
   5  -1  -3 25036.9 889.960   5
   5  -1  -3 25224.5 976.789   1
   5  -1  -3 25790.5 781.338   4
   5  -1  -2 38710.0 1280.92   1
   5  -1  -2 40352.4 1238.05   5
   5  -1  -2 41335.4 892.336   4
   5  -1  -2 42156.4 1345.33   6
   5  -1  -1 3243.07 338.194   5
   5  -1  -1 3686.37 378.575   6
   5  -1   0 1315.05 235.383   5
   5  -1   0 1589.55 260.812   6
   5  -1   2 7500.07 240.354   3
   5   0 -14 5857.93 794.776   3
   5   0 -13 3645.28 606.900   3
   5   0 -12 3575.22 558.285   3
   5   0 -11 6006.35 677.791   3
   5   0 -10 485.434 225.219   3
   5   0  -9 322.857 155.065   3
   5   0  -9 373.969 176.661   2
   5   0  -8 2019.59 336.920   3
   5   0  -8 2570.04 406.585   2
   5   0  -7 30017.5 1251.31   3
   5   0  -7 31502.1 1350.94   2
   5   0  -6 100606. 2408.83   3
   5   0  -6 94730.2 2077.18   1
   5   0  -6 98555.1 2503.32   2
   5   0  -6 96171.1 2293.37   5
   5   0  -5 179699. 3449.81   3
   5   0  -5 172668. 3321.11   4
   5   0  -5 172094. 3163.31   1
   5   0  -5 173572. 3330.80   5
   5   0  -4 128559. 2639.53   5
   5   0  -4 131560. 2671.56   3
   5   0  -4 128338. 2543.45   1
   5   0  -4 131451. 2526.70   4
   5   0  -3 59556.0 1503.51   3
   5   0  -3 55704.7 1515.84   5
   5   0  -3 57616.0 1480.52   1
   5   0  -3 58313.6 1329.99   4
   5   0  -2 45888.9 1219.65   3
   5   0  -2 47334.6 1388.24   5
   5   0  -2 46793.9 1033.31   4
   5   0  -2 49304.6 1472.39   6
   5   0  -1 16110.9 602.043   3
   5   0  -1 15573.1 781.699   5
   5   0  -1 16386.0 810.682   6
   5   0   0 725.967 112.044   3
   5   0   0 942.001 216.503   6
   5   0   1 44917.9 907.781   3
   5   0   1 46223.3 1531.46   6
   5   1 -14 4099.93 669.647   3
   5   1 -13 1456.09 392.561   3
   5   1 -12 835.081 289.464   3
   5   1 -11 2014.76 411.459   3
   5   1 -10 1599.19 343.297   3
   5   1  -9 8296.69 721.894   3
   5   1  -9 7053.27 658.012   2
   5   1  -8 23666.4 1177.01   3
   5   1  -8 22925.4 1140.35   2
   5   1  -7 72482.0 2097.71   3
   5   1  -7 72484.6 2093.15   2
   5   1  -6 138898. 3095.41   3
   5   1  -6 146010. 3122.18   2
   5   1  -6 143669. 2486.54   1
   5   1  -5 131147. 2821.83   3
   5   1  -5 131749. 2349.21   1
   5   1  -5 130365. 2904.69   5
   5   1  -4 81059.0 1962.01   3
   5   1  -4 80563.7 1676.19   1
   5   1  -4 78038.0 1864.76   4
   5   1  -4 78669.8 2015.67   5
   5   1  -3 1477.48 234.774   5
   5   1  -3 1367.72 209.245   3
   5   1  -3 1278.93 183.627   4
   5   1  -3 1388.30 187.382   1
   5   1  -2 8888.40 577.862   5
   5   1  -2 8678.78 477.897   3
   5   1  -2 8423.77 572.892   6
   5   1  -2 7481.32 411.992   4
   5   1  -1 4377.08 312.658   3
   5   1  -1 4330.02 405.897   6
   5   1   0 326.005 81.8824   3
   5   1   0 444.361 148.128   6
   5   1   1 5268.26 484.247   6
   5   2 -14 2439.70 529.596   3
   5   2 -13 2590.07 498.365   3
   5   2 -12 3737.25 598.221   3
   5   2 -11 883.129 293.804   3
   5   2 -10 2076.95 395.976   3
   5   2  -9 2740.50 420.356   3
   5   2  -9 3072.30 415.372   2
   5   2  -8 15583.7 968.982   3
   5   2  -8 14375.0 851.520   2
   5   2  -7 74671.5 2211.36   3
   5   2  -7 77232.2 2077.34   2
   5   2  -6 85835.0 2297.34   3
   5   2  -5 99454.8 2401.49   3
   5   2  -5 94650.6 1600.68   1
   5   2  -4 61137.7 1255.68   1
   5   2  -4 58140.8 1672.83   3
   5   2  -4 57629.9 1627.37   4
   5   2  -3 604.484 171.519   3
   5   2  -3 277.591 100.800   4
   5   2  -2 9539.80 543.021   3
   5   2  -2 8951.48 606.337   6
   5   2  -1 2407.77 312.604   6
   5   2   0 49.7343 66.5998   6
   5   2   1 5316.93 488.546   6
   5   3 -14 1714.37 442.047   3
   5   3 -13 2296.61 509.521   3
   5   3 -12 763.412 283.906   3
   5   3 -11 876.358 286.807   3
   5   3 -10 9236.67 853.223   3
   5   3  -9 25642.9 1370.51   3
   5   3  -9 24377.7 1112.96   2
   5   3  -8 12068.8 876.334   3
   5   3  -8 11771.0 729.078   2
   5   3  -7 89516.8 2549.89   3
   5   3  -7 93056.2 2261.49   2
   5   3  -6 48925.6 1702.17   3
   5   3  -5 45688.9 1572.67   3
   5   3  -4 5834.86 507.447   3
   5   3  -3 4048.72 407.393   3
   5   3  -1 13269.5 759.034   6
   5   3   0 15596.9 830.770   6
   5   3   1 17394.8 903.955   6
   5   4 -11 130.630 112.328   3
   5   4 -10 4000.91 584.105   3
   5   4  -9 14861.7 1078.07   3
   5   4  -9 14484.0 770.131   2
   5   4  -8 391.455 151.957   3
   5   4  -8 299.286 128.813   2
   5   4  -7 60691.6 2096.04   3
   5   4  -7 60049.0 1672.59   2
   5   4  -6 32668.0 1417.75   3
   5   4  -4 3138.95 222.344   1
   5   4  -1 17576.1 894.055   6
   5   4   0 32397.9 1254.35   6
   5   4   1 28616.8 1184.73   6
   5   5  -8 14213.2 699.295   2
   5   5  -4 19041.0 668.439   1
   5   5  -3 201.950 99.6511   1
   5   5  -2 2447.28 302.008   1
   5   5  -1 7721.62 593.524   6
   5   5   0 55618.8 1725.02   6
   5   5   1 12854.5 783.352   6
   5   5   8 673.991 339.524   1
   5   6  -4 205.435 82.4322   1
   5   6  -3 26204.5 1039.29   1
   5   6  -2 34071.4 1314.05   1
   5   6  -1 13891.1 882.088   1
   5   6  -1 13368.4 807.581   6
   5   6   0 35387.5 1548.04   1
   5   6   0 33273.6 1302.53   6
   5   6   1 4434.64 562.393   1
   5   6   1 3702.65 417.500   6
   5   6   2 17989.6 1236.37   1
   5   6   3 20814.5 1414.04   1
   5   6   4 25279.0 1640.76   1
   5   6   5 11626.6 1172.24   1
   5   6   6 1254.52 417.007   1
   5   6   7-62.5318 112.916   1
   5   7  -4 7941.22 526.602   1
   5   7  -3 23.8190 79.8783   1
   5   7  -2 448.495 170.515   6
   5   7  -2 302.740 140.474   1
   5   7  -1 4830.24 562.202   1
   5   7  -1 4571.71 478.788   6
   5   7   0 1033.24 282.503   1
   5   7   0 1109.74 252.979   6
   5   7   1 97.9603 80.2463   6
   5   7   1 381.690 210.737   1
   5   7   2 1873.48 433.481   1
   5   7   3 10717.9 1067.14   1
   5   7   4 11675.7 1171.53   1
   5   7   5 4201.05 742.135   1
   5   7   6-116.064 205.766   1
   5   8  -3 11684.1 796.984   1
   5   8  -2 7958.32 662.863   6
   5   8  -2 7490.72 690.854   1
   5   8  -1 10095.5 863.879   1
   5   8  -1 9137.53 694.344   6
   5   8   0 10055.8 915.428   1
   5   8   0 9197.03 675.900   6
   5   8   1 12172.7 1067.32   1
   5   8   1 11101.0 729.454   6
   5   8   2 35224.1 1955.86   1
   5   8   3 35727.4 2075.57   1
   5   8   4 22338.2 1700.35   1
   5   8   5 13992.7 1421.51   1
   5   8   6 669.540 314.030   1
   5   9  -3 8230.75 723.753   1
   5   9  -2 9304.65 729.851   6
   5   9  -2 9718.14 854.490   1
   5   9  -1 9001.86 689.025   6
   5   9  -1 9316.25 878.841   1
   5   9   0 10143.6 733.567   6
   5   9   0 30937.7 1698.15   1
   5   9   1 18784.8 1419.21   1
   5   9   2 23040.6 1659.29   1
   5   9   3 25281.3 1833.79   1
   5   9   4 5115.64 861.991   1
   5   9   5-57.2950 220.769   1
   5  10  -1 10567.1 1005.52   1
   5  10   0 15123.7 1275.11   1
   5  10   1 15001.5 1338.97   1
   5  10   2 11052.6 1195.57   1
   5  10   3 9599.20 1207.17   1
   5  10   4 2289.84 609.631   1
   5  11   0 10796.9 1127.33   1
   5  11   1 10199.6 1149.42   1
   5  11   2 7615.72 1054.64   1
   5  11   3 6416.39 1012.83   1
   5  12   2 2617.86 633.134   1
   6 -14  -1 8082.60 1006.65   4
   6 -14   0 1574.31 429.033   4
   6 -14   1 218.810 137.198   4
   6 -13   0 875.084 264.439   4
   6 -13   1 2325.16 498.104   4
   6 -12   0 2.81446 112.979   4
   6 -12   1 627.088 244.576   2
   6 -12   1 688.337 232.471   4
   6 -12   2 1419.58 352.461   4
   6 -11  -2 10970.6 1129.90   2
   6 -11  -1 6105.38 815.276   2
   6 -11   0 782.611 278.837   2
   6 -11   0 995.630 271.072   4
   6 -11   1-102.357 157.291   2
   6 -11   1 158.464 121.992   4
   6 -11   2 195.258 139.213   2
   6 -11   2 131.097 87.4816   4
   6 -11   3 3282.80 484.560   4
   6 -10  -4 26908.4 1804.96   2
   6 -10  -3 18941.5 1469.98   2
   6 -10  -2 24165.8 1612.39   2
   6 -10  -1 10330.3 1017.98   2
   6 -10   0 2165.07 448.397   2
   6 -10   1 672.552 257.332   2
   6 -10   1 746.799 228.147   4
   6 -10   2 280.245 164.666   2
   6 -10   2 328.419 138.920   4
   6 -10   3 2146.84 413.037   2
   6 -10   3 2263.51 373.906   4
   6  -9  -5 19175.1 1504.37   2
   6  -9  -4 22900.7 1590.24   2
   6  -9  -3 11430.8 1083.54   2
   6  -9  -2 9354.64 939.582   2
   6  -9  -1 4250.84 605.781   2
   6  -9   0-14.3965 72.7244   2
   6  -9   1 2908.23 483.309   2
   6  -9   1 2280.83 364.068   4
   6  -9   2 7559.12 766.356   2
   6  -9   2 8347.77 669.039   4
   6  -9   3 11953.6 952.479   2
   6  -9   3 12106.0 803.871   4
   6  -9   4 18641.0 1183.96   2
   6  -9   4 19844.9 1049.62   4
   6  -8  -6 14126.1 1262.11   2
   6  -8  -5 8073.02 922.185   2
   6  -8  -4 1189.11 315.235   2
   6  -8  -3 1354.08 351.398   2
   6  -8  -2 380.586 204.210   2
   6  -8  -1 1468.12 356.197   2
   6  -8   0 9708.81 875.062   2
   6  -8   1 1737.34 341.952   2
   6  -8   1 1808.64 291.441   4
   6  -8   2 15508.0 1074.18   2
   6  -8   2 14822.9 826.781   4
   6  -8   3 26961.3 1417.42   2
   6  -8   3 26079.7 1111.51   4
   6  -8   4 23593.5 1072.00   4
   6  -7  -7 29125.1 1828.98   2
   6  -7  -7 28694.5 1191.23   6
   6  -7  -6 22506.9 1531.65   2
   6  -7  -6 22488.3 1025.73   6
   6  -7  -5 14295.6 1160.90   2
   6  -7  -5 13949.8 795.532   6
   6  -7  -4 14841.2 1141.80   2
   6  -7  -4 14301.0 814.733   6
   6  -7  -3 5047.83 658.194   2
   6  -7  -2 4319.21 583.629   2
   6  -7  -1 4099.87 547.941   2
   6  -7   0 5860.56 651.144   2
   6  -7   1 12291.8 918.879   2
   6  -7   1 11754.7 686.767   4
   6  -7   2 27417.5 1052.66   4
   6  -7   3 38814.1 1276.50   4
   6  -7   4 40204.5 1347.25   4
   6  -6  -8 9462.28 1030.83   2
   6  -6  -7 27934.7 1700.93   2
   6  -6  -7 26893.9 1182.50   6
   6  -6  -6 32209.9 1759.22   2
   6  -6  -6 31149.6 1273.33   6
   6  -6  -5 24651.3 1456.82   2
   6  -6  -5 24440.6 1096.09   6
   6  -6  -4 10909.6 933.706   2
   6  -6  -4 11221.3 724.029   6
   6  -6  -3 5013.63 625.233   2
   6  -6  -3 5296.56 494.840   6
   6  -6  -2 4194.08 535.992   2
   6  -6  -1 2618.93 417.099   2
   6  -6   1 3212.33 304.200   4
   6  -6   2 23970.6 861.537   4
   6  -6   3 30429.4 1017.60   4
   6  -6   4 12095.3 640.744   4
   6  -6   5 16160.0 809.510   4
   6  -5  -8 10989.8 1061.18   2
   6  -5  -7 22780.0 1458.97   2
   6  -5  -6 63478.5 2429.47   2
   6  -5  -6 63701.1 1902.00   6
   6  -5  -5 64400.4 2375.30   2
   6  -5  -5 66622.6 1930.29   6
   6  -5  -4 54197.5 2090.84   2
   6  -5  -4 58662.1 1777.70   6
   6  -5  -3 24887.8 1323.79   2
   6  -5  -3 24242.5 1101.94   6
   6  -5  -2 12056.9 882.725   2
   6  -5  -2 11088.0 735.134   6
   6  -5   0 10996.3 531.360   4
   6  -5   1 11385.7 502.130   4
   6  -5   2 24686.1 767.840   4
   6  -5   3 47423.0 1197.91   4
   6  -5   4 25306.8 899.375   4
   6  -5   5 20097.7 862.102   4
   6  -4 -13 1816.90 440.625   3
   6  -4  -9 7665.62 880.806   2
   6  -4  -8 10847.1 1003.22   2
   6  -4  -7 32661.1 1696.73   2
   6  -4  -6 71299.6 1409.41   5
   6  -4  -6 84622.0 2708.62   2
   6  -4  -5 37089.6 1013.57   5
   6  -4  -5 40800.4 1753.71   2
   6  -4  -5 38396.9 1406.03   6
   6  -4  -4 35615.8 1090.92   5
   6  -4  -4 34769.2 1206.54   4
   6  -4  -4 38026.8 1630.33   2
   6  -4  -4 39425.8 1392.74   6
   6  -4  -3 1311.81 220.001   5
   6  -4  -3 1444.67 310.438   2
   6  -4  -3 1747.64 286.267   6
   6  -4  -2 954.001 204.325   5
   6  -4  -2 866.096 207.549   6
   6  -4  -1 355.462 143.271   6
   6  -4   0 27476.3 721.981   4
   6  -4   1 26929.2 653.665   4
   6  -4   2 48836.2 1027.69   4
   6  -4   3 50676.1 1155.30   4
   6  -4   4 38959.4 1080.54   4
   6  -3 -13 460.005 227.138   3
   6  -3 -12 285.124 217.944   3
   6  -3 -11 2495.03 467.095   3
   6  -3  -9 8392.73 894.031   2
   6  -3  -8 10645.1 949.798   2
   6  -3  -7 32579.4 921.907   5
   6  -3  -7 37173.1 1722.25   2
   6  -3  -6 80595.8 1708.04   5
   6  -3  -6 88042.4 2692.59   2
   6  -3  -5 18593.2 730.631   5
   6  -3  -5 19947.9 1155.43   2
   6  -3  -4 2293.30 327.014   6
   6  -3  -4 2360.53 265.280   5
   6  -3  -4 2592.47 381.188   2
   6  -3  -4 2922.94 298.961   4
   6  -3  -3 10760.7 622.159   5
   6  -3  -3 11534.2 543.890   4
   6  -3  -3 12201.6 755.549   6
   6  -3  -2 6021.26 488.346   5
   6  -3  -2 7122.44 577.960   6
   6  -3  -2 7347.55 361.934   4
   6  -3  -1 9759.63 341.161   4
   6  -3  -1 9624.15 691.280   6
   6  -2 -14 299.851 246.784   3
   6  -2 -13 275.225 159.396   3
   6  -2 -12 100.018 89.8610   3
   6  -2 -11 1873.90 384.906   3
   6  -2 -10 13177.0 983.457   3
   6  -2  -9 2385.52 452.476   2
   6  -2  -8 12159.2 973.127   2
   6  -2  -8 10945.0 596.073   5
   6  -2  -7 29664.3 988.262   5
   6  -2  -7 35266.9 1615.49   2
   6  -2  -6 78234.1 1792.49   5
   6  -2  -6 85179.4 2543.31   2
   6  -2  -5 30197.9 1013.43   5
   6  -2  -5 32990.3 1441.86   2
   6  -2  -5 30959.1 1308.64   1
   6  -2  -4 239.421 96.5893   5
   6  -2  -4 195.871 135.285   1
   6  -2  -4 439.344 128.415   4
   6  -2  -4 128.507 108.212   6
   6  -2  -3 12795.3 684.515   5
   6  -2  -3 13312.4 537.090   4
   6  -2  -3 12584.7 770.544   6
   6  -2  -2 7371.39 546.636   5
   6  -2  -2 8185.49 340.096   4
   6  -2  -2 8056.59 619.186   6
   6  -2  -1 11385.3 754.325   6
   6  -2   0 59132.1 1884.39   6
   6  -1 -14 594.691 272.729   3
   6  -1 -13 93.0474 157.208   3
   6  -1 -12 2727.33 509.949   3
   6  -1 -11 4669.60 626.117   3
   6  -1 -10 32798.0 1565.33   3
   6  -1 -10 27577.3 1596.41   2
   6  -1  -9 41860.0 1725.16   3
   6  -1  -9 38757.1 1815.80   2
   6  -1  -8 72834.3 2199.92   3
   6  -1  -8 70583.8 2353.06   2
   6  -1  -8 57298.4 1837.10   1
   6  -1  -8 57450.8 1737.09   5
   6  -1  -7 104108. 2561.98   1
   6  -1  -7 101362. 2368.68   5
   6  -1  -6 100027. 2271.74   5
   6  -1  -6 107213. 2830.37   2
   6  -1  -6 101946. 2489.45   1
   6  -1  -5 27313.0 1009.63   5
   6  -1  -5 28374.0 1045.62   4
   6  -1  -5 27956.9 1156.21   1
   6  -1  -4 1607.82 234.601   5
   6  -1  -4 1843.01 274.678   1
   6  -1  -4 1568.48 207.150   4
   6  -1  -3 31607.4 1157.40   5
   6  -1  -3 32429.7 1234.57   1
   6  -1  -3 34285.1 924.478   4
   6  -1  -3 34258.3 1306.09   6
   6  -1  -2 18656.4 542.529   4
   6  -1  -2 19116.0 960.870   6
   6  -1  -2 18178.0 916.912   1
   6  -1  -1 23834.6 1098.21   6
   6  -1   0 28520.6 1247.24   6
   6  -1   1 50557.4 1082.63   3
   6  -1   2 14977.0 383.664   3
   6   0 -14 1821.26 468.199   3
   6   0 -13 26.3683 83.7163   3
   6   0 -12 1876.53 423.392   3
   6   0 -11 7470.85 794.992   3
   6   0 -10 29496.2 1508.88   3
   6   0 -10 27999.4 1536.34   2
   6   0  -9 11804.3 880.368   3
   6   0  -9 13674.5 1006.46   2
   6   0  -8 12648.0 866.869   3
   6   0  -8 14582.0 992.170   2
   6   0  -7 52093.0 1754.30   3
   6   0  -7 48668.6 1443.34   1
   6   0  -7 52699.1 1876.13   2
   6   0  -6 42125.4 1485.83   3
   6   0  -6 42175.8 1603.99   2
   6   0  -6 40712.1 1304.88   1
   6   0  -5 4600.74 441.321   3
   6   0  -5 4574.23 403.711   1
   6   0  -5 4655.95 408.207   4
   6   0  -4 6607.80 493.331   3
   6   0  -4 5891.96 460.904   1
   6   0  -4 6182.08 423.318   4
   6   0  -3 40177.5 1323.30   1
   6   0  -3 42057.4 1274.77   3
   6   0  -3 40414.5 1087.16   4
   6   0  -3 40992.4 1465.69   6
   6   0  -2 2394.23 275.090   3
   6   0  -2 2069.46 186.499   4
   6   0  -2 2219.79 338.736   6
   6   0  -1 23338.3 805.135   3
   6   0  -1 25933.6 1138.99   6
   6   0   0 51602.0 1199.98   3
   6   0   0 52519.3 1748.06   6
   6   0   1 91237.6 1624.42   3
   6   1 -14 1803.57 459.138   3
   6   1 -13 323.309 199.744   3
   6   1 -12 2314.03 464.278   3
   6   1 -11 14431.6 1112.28   3
   6   1 -10 27444.4 1455.93   3
   6   1 -10 26059.7 1417.47   2
   6   1  -9 37705.6 1648.39   3
   6   1  -9 35538.2 1597.71   2
   6   1  -8 30672.9 1403.25   3
   6   1  -8 30192.6 1405.93   2
   6   1  -7 69712.5 2134.70   3
   6   1  -7 72449.7 2188.16   2
   6   1  -7 69504.9 1559.54   1
   6   1  -6 53087.9 1344.04   1
   6   1  -6 56049.9 1773.28   3
   6   1  -5 10449.2 681.844   3
   6   1  -5 9904.22 534.691   1
   6   1  -4 1124.80 190.536   1
   6   1  -4 1648.27 256.405   3
   6   1  -4 1170.27 195.209   4
   6   1  -3 27076.1 1009.50   3
   6   1  -3 24754.2 887.302   4
   6   1  -2 270.774 118.896   3
   6   1  -2 293.722 144.428   6
   6   1  -1 21208.5 787.711   3
   6   1  -1 22621.3 1083.37   6
   6   1   0 17524.3 648.009   3
   6   1   0 16608.1 943.260   6
   6   1   1 29388.7 1303.81   6
   6   2 -14 898.204 313.714   3
   6   2 -13 4069.38 667.356   3
   6   2 -12 11879.5 1081.36   3
   6   2 -11 27451.2 1570.29   3
   6   2 -10 35454.6 1717.13   3
   6   2 -10 32917.7 1531.21   2
   6   2  -9 25388.3 1370.42   3
   6   2  -9 26163.4 1294.42   2
   6   2  -8 13414.4 936.245   3
   6   2  -8 11825.5 831.807   2
   6   2  -7 104126. 2791.19   3
   6   2  -7 106821. 2709.10   2
   6   2  -6 26898.4 1223.41   3
   6   2  -6 24206.9 648.620   1
   6   2  -5 16825.0 911.058   3
   6   2  -5 16192.8 608.634   1
   6   2  -4 36.1014 64.6494   3
   6   2  -4 120.896 79.6742   1
   6   2  -4 36.6918 38.6455   4
   6   2  -3 10607.3 641.139   3
   6   2  -2 1105.61 188.459   3
   6   2  -2 1004.01 225.456   6
   6   2  -1 11951.5 777.236   6
   6   2   0 67358.0 2036.44   6
   6   2   1 39390.5 1539.16   6
   6   3 -13 452.711 262.301   3
   6   3 -12 4565.81 694.016   3
   6   3 -11 9447.58 944.237   3
   6   3 -10 13228.0 1051.72   3
   6   3 -10 13995.7 916.348   2
   6   3  -9 21738.0 1297.03   3
   6   3  -9 22126.7 1131.96   2
   6   3  -8 1147.59 282.014   3
   6   3  -8 1150.90 257.320   2
   6   3  -7 49688.9 1853.76   3
   6   3  -6 9625.01 750.078   3
   6   3  -5 1279.87 135.928   1
   6   3  -5 1799.15 303.162   3
   6   3  -4 45881.2 1575.24   3
   6   3  -3 60006.4 1758.41   3
   6   3  -2 43416.8 1580.07   6
   6   3  -1 36666.3 1431.18   6
   6   3   0 64512.0 1998.44   6
   6   3   1 35598.1 1458.58   6
   6   4 -12 19917.1 1496.78   3
   6   4 -11 19674.6 1417.37   3
   6   4 -10 37765.0 1891.32   3
   6   4  -9 54457.2 2220.28   3
   6   4  -9 56816.3 1823.24   2
   6   4  -8 27286.3 1449.33   3
   6   4  -8 26904.1 1189.68   2
   6   4  -7 40590.7 1736.25   3
   6   4  -6 6226.38 616.073   3
   6   4  -5 5905.64 252.840   1
   6   4  -5 5757.24 249.032   1
   6   4  -2 32537.6 1371.59   6
   6   4  -1 27096.3 1229.17   6
   6   4   0 64107.9 2009.54   6
   6   4   1 3869.06 456.297   6
   6   5  -8 2763.97 345.776   2
   6   5  -5 28011.0 654.671   1
   6   5  -5 28711.0 649.341   1
   6   5  -4 44338.3 1227.40   1
   6   5  -3 38903.8 1300.20   1
   6   5  -2 19056.7 1050.61   6
   6   5  -1 17159.5 977.606   6
   6   5   0 84728.1 2408.17   6
   6   5   1 18408.3 1041.06   6
   6   6  -4 2048.29 258.683   1
   6   6  -3 1002.30 216.246   1
   6   6  -2 1666.59 300.168   1
   6   6  -2 1528.08 301.982   6
   6   6  -1 6338.64 642.781   1
   6   6  -1 6436.19 603.685   6
   6   6   0 30604.7 1356.66   6
   6   6   1 15688.4 969.793   6
   6   6   6 1515.22 495.895   1
   6   7  -4 1656.15 257.778   1
   6   7  -3 772.361 197.844   1
   6   7  -2 6240.95 622.127   1
   6   7  -2 7317.99 662.155   6
   6   7  -1 36260.3 1653.08   1
   6   7  -1 37063.3 1543.33   6
   6   7   0 54671.1 2214.24   1
   6   7   0 54155.2 1900.08   6
   6   7   1 26830.9 1614.14   1
   6   7   1 26960.1 1292.66   6
   6   7   2 9427.79 999.566   1
   6   7   3 2523.60 545.028   1
   6   7   4 47.5148 155.190   1
   6   7   5-275.767 243.381   1
   6   7   6 5277.43 912.678   1
   6   8  -3 22382.9 1270.12   6
   6   8  -3 21366.3 1153.73   1
   6   8  -2 25049.1 1365.71   1
   6   8  -2 27251.6 1353.94   6
   6   8  -1 29625.2 1583.58   1
   6   8  -1 28775.4 1374.74   6
   6   8   0 27990.0 1629.89   1
   6   8   0 26865.3 1302.13   6
   6   8   1 2891.97 560.145   1
   6   8   2 205.257 144.471   1
   6   8   3 341.923 245.151   1
   6   8   4 1889.81 538.185   1
   6   8   5 930.479 359.180   1
   6   9  -3 18314.4 1159.92   6
   6   9  -2 26214.2 1352.22   6
   6   9  -1 25994.5 1571.67   1
   6   9  -1 26748.5 1318.80   6
   6   9   0 21123.5 1503.09   1
   6   9   1 5295.36 789.492   1
   6   9   2 198.331 204.963   1
   6   9   3 385.068 233.729   1
   6   9   4 825.864 354.322   1
   6  10  -3 15993.4 1104.27   6
   6  10   0 5789.20 819.388   1
   6  10   1 613.975 287.129   1
   6  10   2 520.538 277.023   1
   6  10   3 1012.98 417.883   1
   6  11   1 1239.68 433.161   1
   6  11   2-194.901 221.563   1
   7 -12  -2 9.82059 160.731   2
   7 -12  -1 826.532 292.784   2
   7 -12   0 3440.57 629.611   2
   7 -11  -4 6235.54 934.667   2
   7 -11  -3 1145.29 386.931   2
   7 -11  -2 647.292 302.150   2
   7 -11  -1-8.00658 80.6025   2
   7 -11   0 3323.76 508.445   4
   7 -11   0 3349.36 614.787   2
   7 -11   1 7712.91 908.416   2
   7 -11   2 8424.82 920.615   2
   7 -10  -5 7259.78 1004.77   2
   7 -10  -4 3145.08 623.303   2
   7 -10  -3 34.5317 171.880   2
   7 -10  -2 199.566 160.772   2
   7 -10  -1 2877.75 561.124   2
   7 -10   0 11201.9 1072.97   2
   7 -10   0 10608.5 855.968   4
   7 -10   1 11471.3 1074.86   2
   7 -10   2 10776.2 1016.56   2
   7 -10   3 8807.01 901.670   2
   7  -9  -6 12527.6 1286.18   2
   7  -9  -5 7069.49 926.263   2
   7  -9  -4 5919.45 822.945   2
   7  -9  -3 1449.40 411.378   2
   7  -9  -2 2015.69 461.240   2
   7  -9  -1 2234.52 459.498   2
   7  -9   0 23820.5 1523.93   2
   7  -9   0 22521.2 1173.06   4
   7  -9   1 17111.0 1269.22   2
   7  -9   1 17038.7 958.349   4
   7  -9   2 16835.7 1244.37   2
   7  -9   3 10940.6 985.092   2
   7  -8  -7 10128.3 1125.66   2
   7  -8  -6 4325.12 724.414   2
   7  -8  -5 1348.78 363.596   2
   7  -8  -4 240.816 176.360   2
   7  -8  -3 18450.5 1369.80   2
   7  -8  -2 32884.0 1809.83   2
   7  -8  -1 28536.8 1640.08   2
   7  -8   0 59329.7 2382.94   2
   7  -8   0 55367.5 1770.18   4
   7  -8   1 41038.2 1934.34   2
   7  -8   1 39550.3 1386.94   4
   7  -8   2 21363.1 1363.80   2
   7  -7  -8-17.6813 184.798   2
   7  -7  -7 6545.10 866.263   2
   7  -7  -7 6356.41 598.255   6
   7  -7  -6 10628.1 1072.70   2
   7  -7  -6 10016.9 742.984   6
   7  -7  -5 1760.64 419.818   2
   7  -7  -5 2373.07 359.379   6
   7  -7  -4 508.235 253.546   2
   7  -7  -4 271.631 133.045   6
   7  -7  -3 1173.65 330.030   2
   7  -7  -2 11885.4 1009.68   2
   7  -7  -1 22546.9 1385.83   2
   7  -7   0 54078.9 2179.11   2
   7  -7   0 50841.7 1535.27   4
   7  -7   1 12114.5 645.002   4
   7  -6  -9 17266.5 1493.59   2
   7  -6  -8 22806.5 1632.85   2
   7  -6  -8 20692.5 1140.47   6
   7  -6  -7 30914.4 1845.74   2
   7  -6  -7 31065.4 1386.56   6
   7  -6  -6 42470.1 2084.20   2
   7  -6  -6 42900.9 1641.84   6
   7  -6  -5 11205.3 1017.74   2
   7  -6  -5 12149.3 826.119   6
   7  -6  -4 202.393 183.646   2
   7  -6  -4 236.655 119.315   6
   7  -6  -3 6318.37 723.137   2
   7  -6  -3 6409.35 601.087   6
   7  -6  -2 15398.0 1110.37   2
   7  -6   0 61164.7 1524.63   4
   7  -6   1 6353.21 393.827   4
   7  -6   2 4866.19 335.077   4
   7  -5  -9 11199.3 1142.76   2
   7  -5  -8 8673.55 968.927   2
   7  -5  -7 15748.0 1242.72   2
   7  -5  -7 17792.7 1042.12   6
   7  -5  -6 21458.9 1410.88   2
   7  -5  -6 21939.7 1138.30   6
   7  -5  -5 358.014 158.069   2
   7  -5  -5 516.985 175.754   6
   7  -5  -4 1184.48 304.120   2
   7  -5  -4 1134.39 242.933   6
   7  -5  -3 20426.9 1261.53   2
   7  -5  -3 21293.5 1116.27   6
   7  -5  -2 31687.0 1402.02   6
   7  -5   0 79616.5 1568.18   4
   7  -5   1 38882.7 894.456   4
   7  -5   2 21655.3 627.337   4
   7  -4 -13 1219.32 368.016   3
   7  -4 -10 29716.2 1897.75   2
   7  -4  -9 18695.1 1430.70   2
   7  -4  -8 16161.5 1267.42   2
   7  -4  -7 15861.6 1195.30   2
   7  -4  -6 29345.5 1323.11   6
   7  -4  -6 24775.7 874.258   5
   7  -4  -6 29099.6 1584.53   2
   7  -4  -5 791.070 165.326   5
   7  -4  -5 933.611 284.388   2
   7  -4  -5 1313.34 272.627   6
   7  -4  -4 63.2846 41.7057   5
   7  -4  -4-18.6502 131.914   2
   7  -4  -4 83.1717 62.5779   4
   7  -4  -4 194.909 126.512   6
   7  -4  -3 4036.39 429.391   5
   7  -4  -3 4595.76 354.667   4
   7  -4  -3 4943.63 522.925   6
   7  -4  -2 10604.7 477.502   4
   7  -4  -2 11091.1 801.324   6
   7  -4  -1 39901.9 893.405   4
   7  -3 -13 276.003 179.767   3
   7  -3 -12 4230.84 644.720   3
   7  -3 -11 24160.3 1495.19   3
   7  -3 -10 41894.7 2185.59   2
   7  -3  -9 11629.5 1069.45   2
   7  -3  -8 8863.06 897.274   2
   7  -3  -7 2434.24 459.691   2
   7  -3  -6 5691.13 429.631   5
   7  -3  -6 7059.24 735.759   2
   7  -3  -5 2476.82 292.571   5
   7  -3  -5 2853.63 449.984   2
   7  -3  -5 3065.75 414.485   6
   7  -3  -4 22642.4 869.675   4
   7  -3  -4 23893.6 1166.66   6
   7  -3  -3 94814.2 1909.59   4
   7  -3  -3 98808.4 2620.17   6
   7  -3  -2 84219.3 1536.59   4
   7  -3  -2 86913.5 2451.54   6
   7  -3  -1 118263. 3034.99   6
   7  -2 -13 6072.38 808.089   3
   7  -2 -12 28632.9 1674.53   3
   7  -2 -11 40126.9 1936.81   3
   7  -2 -10 59740.2 2289.30   3
   7  -2 -10 58205.2 2520.96   2
   7  -2  -9 6801.97 792.276   2
   7  -2  -8 149.055 123.446   2
   7  -2  -7 699.532 154.545   5
   7  -2  -7 650.564 252.892   2
   7  -2  -6 153.979 112.419   5
   7  -2  -6 89.4975 99.7966   2
   7  -2  -5 6963.56 521.702   5
   7  -2  -5 8155.10 539.941   4
   7  -2  -4 24540.1 872.981   4
   7  -2  -4 23032.7 1163.68   6
   7  -2  -3 44227.8 1088.83   4
   7  -2  -3 44220.0 1643.22   6
   7  -2  -2 49578.8 1752.88   6
   7  -2  -2 44812.2 909.516   4
   7  -2  -1 79062.5 2359.98   6
   7  -2   0 32987.5 1469.70   6
   7  -1 -13 5603.57 779.970   3
   7  -1 -12 25009.3 1589.45   3
   7  -1 -11 33672.5 1729.67   3
   7  -1 -11 29490.0 1783.77   2
   7  -1 -10 39006.5 1777.64   3
   7  -1 -10 35521.2 1875.12   2
   7  -1  -9 9008.52 800.015   3
   7  -1  -9 8809.89 858.993   2
   7  -1  -8 542.685 214.459   3
   7  -1  -8 264.749 174.113   2
   7  -1  -7 1327.11 276.277   3
   7  -1  -7 842.954 212.763   1
   7  -1  -7 1226.25 319.837   2
   7  -1  -6 81.0085 68.1305   1
   7  -1  -6 230.052 140.633   3
   7  -1  -5 3636.03 431.528   1
   7  -1  -5 3888.14 367.155   4
   7  -1  -4 32241.2 1029.08   4
   7  -1  -4 34937.8 1435.79   6
   7  -1  -3 64720.7 1417.72   4
   7  -1  -3 68514.9 2103.82   6
   7  -1  -2 20098.5 555.677   4
   7  -1  -2 24890.8 1203.51   6
   7  -1  -1 51368.2 1834.46   6
   7  -1  -1 52450.0 1389.23   3
   7  -1   0 12992.6 569.236   3
   7  -1   0 12758.4 904.222   6
   7  -1   1 914.002 128.570   3
   7  -1   2 10693.0 303.844   3
   7   0 -13 6661.04 847.099   3
   7   0 -12 20922.4 1436.75   3
   7   0 -11 32884.8 1729.52   3
   7   0 -11 32196.9 1783.56   2
   7   0 -10 23491.9 1376.24   3
   7   0 -10 21133.2 1385.66   2
   7   0  -9 340.232 211.248   3
   7   0  -9 246.981 153.147   2
   7   0  -8 6289.28 636.895   3
   7   0  -8 5876.93 657.699   2
   7   0  -7 1365.95 303.372   3
   7   0  -7 1269.99 230.320   1
   7   0  -7 1621.40 348.724   2
   7   0  -6 418.465 164.367   3
   7   0  -6 459.095 150.331   1
   7   0  -5 2087.83 313.859   3
   7   0  -5 1694.27 273.590   1
   7   0  -5 1917.27 262.072   4
   7   0  -4 16239.4 839.761   3
   7   0  -4 15473.7 848.034   1
   7   0  -4 15561.2 711.930   4
   7   0  -4 16474.1 982.949   6
   7   0  -3 50491.6 1486.41   3
   7   0  -3 46360.0 1210.60   4
   7   0  -3 47840.6 1736.93   6
   7   0  -2 32220.3 1087.29   3
   7   0  -2 31048.7 1365.78   6
   7   0  -1 69659.9 1623.36   3
   7   0  -1 61934.9 2067.66   6
   7   0   0 57092.4 1358.16   3
   7   0   0 61342.3 2051.48   6
   7   0   1 17201.6 565.151   3
   7   1 -13 3896.03 673.151   3
   7   1 -12 20908.1 1474.67   3
   7   1 -11 39508.9 1927.56   3
   7   1 -11 36983.8 1853.11   2
   7   1 -10 29665.1 1565.55   3
   7   1 -10 26528.9 1499.01   2
   7   1  -9 13511.9 986.462   3
   7   1  -9 10683.1 901.336   2
   7   1  -8 243.922 174.748   3
   7   1  -8 187.820 153.824   2
   7   1  -7 12120.8 851.103   3
   7   1  -7 10150.5 556.224   1
   7   1  -6 858.535 239.521   3
   7   1  -6 634.292 142.825   1
   7   1  -5 3032.24 389.875   3
   7   1  -5 3110.96 344.080   1
   7   1  -4 35170.7 1265.64   1
   7   1  -4 39445.4 1382.42   3
   7   1  -4 36091.4 1212.77   4
   7   1  -3 101785. 2351.54   3
   7   1  -3 96773.2 2667.94   6
   7   1  -2 44540.2 1693.30   6
   7   1  -2 48057.4 1415.93   3
   7   1  -1 63316.8 1582.49   3
   7   1  -1 61903.9 2058.07   6
   7   1   0 61480.5 2078.25   6
   7   2 -13 7455.88 920.210   3
   7   2 -12 26493.1 1668.94   3
   7   2 -11 41970.4 2034.96   3
   7   2 -10 27789.9 1553.11   3
   7   2 -10 27963.3 1477.39   2
   7   2  -9 6845.51 734.192   3
   7   2  -9 6382.23 671.298   2
   7   2  -8 11134.3 884.827   3
   7   2  -8 10639.4 842.971   2
   7   2  -7 4511.18 542.952   3
   7   2  -6 3772.86 467.267   3
   7   2  -6 3655.12 294.869   1
   7   2  -5 13393.3 845.419   3
   7   2  -5 12084.7 623.721   1
   7   2  -4 16383.9 890.095   3
   7   2  -4 13571.4 773.639   4
   7   2  -4 15016.9 755.164   1
   7   2  -3 31428.2 1210.67   3
   7   2  -3 32026.0 1423.70   6
   7   2  -2 47643.1 1468.49   3
   7   2  -2 48153.3 1783.80   6
   7   2  -1 44769.4 1720.83   6
   7   2   0 24990.0 1276.83   6
   7   2   1 3871.82 499.593   6
   7   3 -13 10354.4 1117.67   3
   7   3 -12 55565.8 2549.75   3
   7   3 -11 52062.7 2339.08   3
   7   3 -10 17231.1 1236.86   3
   7   3 -10 16970.6 1083.92   2
   7   3  -9 736.955 280.345   3
   7   3  -9 489.894 165.412   2
   7   3  -8 23443.7 1340.91   3
   7   3  -8 22217.2 1208.36   2
   7   3  -7 2301.61 392.679   3
   7   3  -6 7344.57 679.996   3
   7   3  -5 25744.5 862.695   1
   7   3  -5 26489.1 1256.71   3
   7   3  -4 51410.6 1749.35   3
   7   3  -3 49006.1 1831.35   6
   7   3  -2 20179.5 1137.32   6
   7   3  -1 29108.2 1373.67   6
   7   3   0 26272.7 1321.41   6
   7   3   1 5232.60 585.844   6
   7   4 -13 5906.97 856.903   3
   7   4 -12 27954.0 1817.83   3
   7   4 -11 13333.2 1176.64   3
   7   4 -10 135.398 134.585   3
   7   4  -9 16190.5 1189.12   3
   7   4  -9 16122.0 1007.69   2
   7   4  -8 30871.0 1613.60   3
   7   4  -7 17671.7 1155.38   3
   7   4  -6 11984.1 913.615   3
   7   4  -3 34553.5 1552.53   6
   7   4  -2 30226.8 1428.82   6
   7   4  -1 11791.7 870.881   6
   7   4   0 16852.1 1062.23   6
   7   4   1 8742.12 773.301   6
   7   5  -4 7385.67 517.769   1
   7   5  -3 33618.0 1563.84   6
   7   5  -2 31429.9 1487.87   6
   7   5  -1 17195.7 1072.87   6
   7   5   0 21626.7 1226.02   6
   7   5   1 124.892 121.662   6
   7   6  -4 61615.6 1748.94   1
   7   6  -3 87155.1 2685.59   6
   7   6  -3 76053.3 2228.50   1
   7   6  -2 47923.2 1828.00   1
   7   6  -2 51262.0 1991.84   6
   7   6  -1 35604.5 1616.74   6
   7   6   0 10640.8 861.610   6
   7   6   1 50.1901 72.8526   6
   7   7  -3 8620.22 712.633   1
   7   7  -3 9437.17 838.790   6
   7   7  -2 8410.25 761.464   1
   7   7  -2 9864.37 848.740   6
   7   7  -1 1674.63 359.449   1
   7   7  -1 1798.95 356.298   6
   7   7   0 211.913 106.685   6
   7   7   0 57.7342 123.410   1
   7   7   1 2678.36 536.685   1
   7   7   2 4552.43 726.591   1
   7   7   3 4325.70 721.875   1
   7   7   4 9401.63 1164.97   1
   7   7   5 11821.3 1366.38   1
   7   8  -3 22129.7 1341.27   6
   7   8  -2 10121.9 895.906   1
   7   8  -2 10374.2 880.092   6
   7   8  -1 6558.25 774.168   1
   7   8  -1 8184.90 766.463   6
   7   8   0 1759.35 413.572   1
   7   8   0 1846.73 363.327   6
   7   8   1 1331.25 395.661   1
   7   8   2 5977.82 887.226   1
   7   8   3 2626.75 612.113   1
   7   8   4 6520.51 995.657   1
   7   9  -4 14027.0 1120.29   6
   7   9  -3 11882.9 995.375   6
   7   9  -2 2964.81 484.853   6
   7   9   0 335.167 197.736   1
   7   9   1 3536.18 646.866   1
   7   9   2 13337.2 1357.35   1
   7   9   3 9479.10 1201.06   1
   7  10  -4 8199.95 857.355   6
   7  10   1 8353.92 1073.90   1
   7  10   2 8169.05 1114.95   1
   8 -13  -1 4335.19 787.592   2
   8 -12  -3 1847.43 523.663   2
   8 -12  -2 3595.39 718.007   2
   8 -12  -1 9001.43 1108.03   2
   8 -12   0 9697.16 1135.59   2
   8 -11  -5 246.967 183.377   2
   8 -11  -4 1965.96 518.005   2
   8 -11  -3 5118.83 846.596   2
   8 -11  -2 8667.62 1083.41   2
   8 -11  -1 13880.4 1340.43   2
   8 -11   0 16168.6 1411.00   2
   8 -11   1 7998.11 968.814   2
   8 -10  -6 3495.69 711.106   2
   8 -10  -5 324.390 206.069   2
   8 -10  -4 2569.05 626.879   2
   8 -10  -3 14758.1 1383.60   2
   8 -10  -2 14468.2 1336.42   2
   8 -10  -1 15487.9 1354.12   2
   8 -10   0 22357.6 1628.14   2
   8 -10   1 4135.55 688.104   2
   8 -10   2 1025.62 336.488   2
   8  -9  -7 5659.50 912.418   2
   8  -9  -6 300.188 250.066   2
   8  -9  -5 3077.18 624.811   2
   8  -9  -4 5331.72 801.482   2
   8  -9  -3 11719.2 1180.69   2
   8  -9  -2 18857.3 1475.58   2
   8  -9  -1 15354.2 1330.83   2
   8  -9   0 17612.5 1385.67   2
   8  -9   1 5047.93 729.688   2
   8  -9   2 1962.40 448.393   2
   8  -9   3 214.508 200.586   2
   8  -8  -8 85.8192 176.349   2
   8  -8  -7 43.1770 155.286   2
   8  -8  -6 1097.55 378.287   2
   8  -8  -5 16491.7 1406.67   2
   8  -8  -4 39481.0 2174.37   2
   8  -8  -3 49541.7 2404.34   2
   8  -8  -2 30642.3 1818.66   2
   8  -8  -1 17213.7 1345.93   2
   8  -8   0 17135.0 1317.89   2
   8  -8   1 703.431 269.611   2
   8  -7  -9 4174.80 786.951   2
   8  -7  -8 236.912 191.954   2
   8  -7  -7 161.340 202.433   2
   8  -7  -7 41.1493 97.6357   6
   8  -7  -6-109.108 211.420   2
   8  -7  -6 120.692 135.170   6
   8  -7  -5 11008.6 1099.84   2
   8  -7  -5 11170.2 861.019   6
   8  -7  -4 11463.7 1102.53   2
   8  -7  -4 10442.0 841.209   6
   8  -7  -3 16575.3 1299.69   2
   8  -7  -2 10028.2 994.843   2
   8  -7  -1 8799.89 919.541   2
   8  -6 -10 14018.5 1428.33   2
   8  -6  -9 1011.26 384.185   2
   8  -6  -9 982.166 285.122   6
   8  -6  -8 193.554 181.639   2
   8  -6  -8-52.3725 114.583   6
   8  -6  -7 73.1119 114.755   2
   8  -6  -7 251.289 146.973   6
   8  -6  -6 46.9307 102.278   2
   8  -6  -6 295.295 148.355   6
   8  -6  -5 14069.2 1201.14   2
   8  -6  -5 14803.8 986.258   6
   8  -6  -4 26370.5 1622.61   2
   8  -6  -4 26783.8 1368.54   6
   8  -6  -3 38395.8 1923.20   2
   8  -6  -3 36736.3 1632.44   6
   8  -6  -1 13431.8 631.977   4
   8  -5 -10 15565.4 1442.60   2
   8  -5  -9 372.108 200.054   2
   8  -5  -8 101.097 133.115   2
   8  -5  -8-46.8229 109.547   6
   8  -5  -7-37.2157 119.433   2
   8  -5  -7 227.415 144.670   6
   8  -5  -6 683.077 237.318   2
   8  -5  -6 723.101 219.752   6
   8  -5  -5 15924.4 1220.08   2
   8  -5  -5 15967.8 1032.64   6
   8  -5  -4 29521.6 1648.87   2
   8  -5  -4 31891.9 1470.91   6
   8  -5  -3 48365.1 1882.03   6
   8  -5  -2 32203.2 1531.03   6
   8  -5  -1 13389.0 502.867   4
   8  -4 -12 19397.8 1468.74   3
   8  -4 -11 19067.3 1618.56   2
   8  -4 -10 9543.32 1086.96   2
   8  -4  -9 86.8575 93.8179   2
   8  -4  -8 936.392 340.917   2
   8  -4  -7 630.532 271.288   2
   8  -4  -7 616.171 212.039   6
   8  -4  -6 6170.71 768.691   2
   8  -4  -6 8122.56 734.025   6
   8  -4  -5 58669.5 2361.07   2
   8  -4  -5 60819.4 2113.23   6
   8  -4  -4 59155.6 1602.12   4
   8  -4  -4 69064.9 2241.68   6
   8  -4  -3 60916.2 1464.75   4
   8  -4  -3 66224.4 2219.52   6
   8  -4  -2 37454.3 1657.37   6
   8  -3 -12 15548.2 1300.49   3
   8  -3 -11 10515.6 996.142   3
   8  -3 -11 8282.81 1014.69   2
   8  -3 -10 3454.18 635.898   2
   8  -3  -9 4744.99 711.602   2
   8  -3  -8 11548.4 1074.55   2
   8  -3  -7 8173.01 863.924   2
   8  -3  -6 20641.9 1337.09   2
   8  -3  -6 17865.4 1111.27   6
   8  -3  -5 65750.9 2226.29   6
   8  -3  -4 85360.8 1924.10   4
   8  -3  -4 95116.0 2703.71   6
   8  -3  -3 36867.4 975.939   4
   8  -3  -3 39276.8 1658.83   6
   8  -3  -2 1426.57 111.547   4
   8  -3  -2 2882.55 455.248   6
   8  -3  -1 1704.91 353.371   6
   8  -2 -13 10725.6 1082.55   3
   8  -2 -12 12532.6 1129.11   3
   8  -2 -11 5388.71 709.390   3
   8  -2 -11 4075.44 675.082   2
   8  -2 -10 944.638 287.032   3
   8  -2 -10 751.270 270.078   2
   8  -2  -9 9810.21 876.716   3
   8  -2  -9 7955.84 896.587   2
   8  -2  -8 19007.5 1341.32   2
   8  -2  -7 6467.42 752.523   2
   8  -2  -6 16492.7 1174.75   2
   8  -2  -6 19636.0 1162.60   6
   8  -2  -5 30392.2 1109.32   4
   8  -2  -5 36121.1 1577.43   6
   8  -2  -4 20347.9 787.215   4
   8  -2  -4 23303.0 1250.10   6
   8  -2  -3 8618.75 406.739   4
   8  -2  -3 10202.2 819.279   6
   8  -2  -2 875.658 263.230   6
   8  -2  -1 3066.94 458.469   6
   8  -2   1 4979.04 336.894   3
   8  -1 -13 5474.75 776.609   3
   8  -1 -12 14317.4 1211.71   3
   8  -1 -12 11502.4 1175.58   2
   8  -1 -11 9494.67 928.565   3
   8  -1 -11 8585.69 976.117   2
   8  -1 -10 1800.41 386.400   3
   8  -1 -10 1413.65 379.122   2
   8  -1  -9 823.855 284.799   3
   8  -1  -9 623.749 217.284   2
   8  -1  -8 3875.00 521.500   3
   8  -1  -8 3450.95 559.081   2
   8  -1  -7 1497.91 311.820   3
   8  -1  -7 1624.66 356.230   2
   8  -1  -6 14494.9 906.190   3
   8  -1  -5 36615.9 1419.34   3
   8  -1  -5 37122.8 1617.17   6
   8  -1  -4 33983.0 1303.27   3
   8  -1  -4 32803.1 1514.11   6
   8  -1  -3 20588.9 940.748   3
   8  -1  -3 18932.0 1126.73   6
   8  -1  -2 405.562 138.891   3
   8  -1  -2 342.504 165.596   6
   8  -1  -1 13356.7 663.523   3
   8  -1  -1 12331.5 938.263   6
   8  -1   0 3562.39 310.348   3
   8  -1   0 3641.62 516.598   6
   8  -1   1 3562.30 260.188   3
   8   0 -13 6664.73 862.102   3
   8   0 -12 9225.78 961.573   3
   8   0 -12 10543.2 1076.80   2
   8   0 -11 8562.29 905.153   3
   8   0 -11 8261.76 926.018   2
   8   0 -10 173.154 198.356   3
   8   0 -10 76.4737 88.7082   2
   8   0  -9 10916.8 915.922   3
   8   0  -9 10583.5 976.677   2
   8   0  -8 38088.8 1663.81   3
   8   0  -8 34985.3 1771.75   2
   8   0  -7 5150.23 581.186   3
   8   0  -6 44795.2 1647.92   3
   8   0  -6 36085.9 1449.60   1
   8   0  -5 50142.4 1679.19   3
   8   0  -5 49258.3 1910.25   6
   8   0  -4 29344.6 1199.47   3
   8   0  -4 28782.2 1407.82   6
   8   0  -3 38447.0 1339.03   3
   8   0  -3 34914.5 1582.99   6
   8   0  -2 8923.92 578.412   3
   8   0  -2 8219.54 748.127   6
   8   0  -1 12825.0 650.975   3
   8   0  -1 11612.9 908.742   6
   8   0   0 17904.2 709.619   3
   8   0   0 19256.4 1191.62   6
   8   1 -13 4130.42 701.922   3
   8   1 -12 10209.3 1054.94   3
   8   1 -11 3912.49 610.713   3
   8   1 -11 3359.27 574.138   2
   8   1 -10 788.920 297.228   3
   8   1 -10 652.517 250.388   2
   8   1  -9 3887.82 544.846   3
   8   1  -9 4119.04 592.504   2
   8   1  -8 37425.8 1672.41   3
   8   1  -8 35658.2 1736.56   2
   8   1  -7 2289.56 400.367   3
   8   1  -6 54010.6 1894.08   3
   8   1  -5 74330.2 2163.13   3
   8   1  -5 62884.8 1915.92   1
   8   1  -4 63853.3 1885.32   3
   8   1  -4 60703.5 2150.44   6
   8   1  -3 25455.5 1091.66   3
   8   1  -3 21867.3 1251.63   6
   8   1  -2 19737.3 902.048   3
   8   1  -2 20843.7 1201.77   6
   8   1  -1 27281.6 1011.45   3
   8   1  -1 27580.7 1416.86   6
   8   1   0 9540.94 839.998   6
   8   2 -12 13285.2 1202.05   3
   8   2 -11 325.743 222.201   3
   8   2 -10 2919.69 505.061   3
   8   2 -10 2378.48 448.199   2
   8   2  -9 6268.11 716.420   3
   8   2  -9 5466.72 664.274   2
   8   2  -8 33771.1 1632.84   3
   8   2  -7 5047.69 601.201   3
   8   2  -6 20894.9 1155.57   3
   8   2  -5 32565.3 1412.84   3
   8   2  -4 21261.6 1066.98   3
   8   2  -4 23454.5 1299.67   6
   8   2  -3 2895.44 365.971   3
   8   2  -3 3568.87 493.300   6
   8   2  -2 762.928 172.283   3
   8   2  -2 397.573 163.685   6
   8   2  -1 861.927 275.759   6
   8   2   0 7186.75 732.248   6
   8   3 -12 169.344 179.219   3
   8   3 -11 3264.67 588.759   3
   8   3 -10 8215.59 880.696   3
   8   3  -9 16850.6 1205.61   3
   8   3  -9 14994.5 1090.20   2
   8   3  -8 12861.5 1016.99   3
   8   3  -7 10112.4 863.196   3
   8   3  -6 25331.6 1332.16   3
   8   3  -5 39954.3 1638.48   3
   8   3  -4 18085.1 1023.66   3
   8   3  -4 18567.6 1189.66   6
   8   3  -3 4592.04 590.056   6
   8   3  -2 110.163 109.602   6
   8   3  -1 347.372 195.432   6
   8   3   0 6473.68 702.316   6
   8   4 -12 1376.24 410.843   3
   8   4 -11 53.2803 175.423   3
   8   4 -10 41.0658 138.762   3
   8   4  -9 294.848 105.486   3
   8   4  -9 950.990 262.488   2
   8   4  -8 3588.10 538.509   3
   8   4  -7 4658.20 595.376   3
   8   4  -4 5546.51 665.294   6
   8   4  -3 651.841 219.709   6
   8   4  -2-82.1535 79.2639   6
   8   4  -1 794.963 254.630   6
   8   4   0 613.920 242.153   6
   8   5  -4 12652.7 1030.94   6
   8   5  -3 4193.44 570.304   6
   8   5  -2 595.257 207.650   6
   8   5  -1 390.161 179.229   6
   8   5   0 677.753 237.596   6
   8   6  -4 6822.42 778.379   6
   8   6  -3 375.864 139.660   1
   8   6  -3 246.915 196.329   6
   8   6  -2 180.532 110.388   6
   8   6  -1 174.558 166.126   6
   8   6   0 2329.98 438.809   6
   8   7  -4 2339.17 468.605   6
   8   7  -3 16.2817 95.2658   6
   8   7  -2 129.325 86.7137   1
   8   7  -2 30.3515 103.302   6
   8   7  -1 9.12885 86.6502   1
   8   7  -1 130.462 95.4957   6
   8   7   0 1186.55 352.823   1
   8   7   0 1482.02 344.271   6
   8   7   1 10846.1 1128.66   1
   8   7   2 16080.5 1446.11   1
   8   7   3 3906.95 738.202   1
   8   8  -4 3157.91 550.473   6
   8   8  -3 51.1651 137.461   6
   8   8  -2 5260.02 672.016   6
   8   8  -1 5520.43 685.231   6
   8   8   0 12460.4 1180.13   1
   8   8   0 12860.6 1032.37   6
   8   8   1 14592.1 1342.29   1
   8   8   2 11903.7 1300.90   1
   8   8   3 3150.66 682.522   1
   8   9  -5 5042.45 732.455   6
   8   9  -4 415.626 183.177   6
   8   9  -3 1733.55 400.758   6
   8   9   1 4192.80 760.272   1
   8   9   2 3127.95 685.012   1
   8  10  -5 3297.78 599.885   6
   9 -12  -3 6153.62 996.102   2
   9 -12  -2 1554.68 487.509   2
   9 -12  -1 2167.00 564.361   2
   9 -12   0 2276.26 564.832   2
   9 -11  -5 10027.7 1289.71   2
   9 -11  -4 9144.63 1195.00   2
   9 -11  -3 8367.55 1116.03   2
   9 -11  -2 3417.43 700.032   2
   9 -11  -1 3439.86 709.989   2
   9 -11   0 4551.45 804.717   2
   9 -11   1 758.403 356.629   2
   9 -10  -6 9447.10 1233.56   2
   9 -10  -5 22468.1 1866.96   2
   9 -10  -4 13979.7 1420.20   2
   9 -10  -3 8207.17 1079.09   2
   9 -10  -2 5116.42 860.219   2
   9 -10  -1 4167.86 726.181   2
   9 -10   0 3533.64 665.899   2
   9 -10   1 283.575 135.716   2
   9 -10   2 3380.05 630.113   2
   9  -9  -7 5624.50 943.857   2
   9  -9  -6 7276.30 1040.35   2
   9  -9  -5 11579.8 1275.91   2
   9  -9  -4 7244.64 999.985   2
   9  -9  -3 1721.59 504.255   2
   9  -9  -2 670.123 292.563   2
   9  -9  -1 1756.86 468.599   2
   9  -9   0 5442.53 810.077   2
   9  -9   1 440.232 257.376   2
   9  -9   2 2396.28 530.318   2
   9  -9   3 3660.18 646.954   2
   9  -8  -9 1181.22 429.068   2
   9  -8  -8 8402.57 1144.57   2
   9  -8  -7 8987.82 1133.80   2
   9  -8  -6 18897.6 1609.19   2
   9  -8  -5 25887.7 1862.12   2
   9  -8  -4 21644.1 1654.73   2
   9  -8  -3 10472.7 1126.74   2
   9  -8  -2 8116.62 976.988   2
   9  -8  -1 1993.60 490.001   2
   9  -8   0 7240.56 893.942   2
   9  -7 -10 219.502 199.631   2
   9  -7  -9 3779.23 769.984   2
   9  -7  -8 10693.7 1233.77   2
   9  -7  -7 19954.1 1634.21   2
   9  -7  -7 18465.5 1207.10   6
   9  -7  -6 18062.1 1525.77   2
   9  -7  -6 17822.6 1193.04   6
   9  -7  -5 27625.7 1859.43   2
   9  -7  -5 29962.3 1559.28   6
   9  -7  -4 11022.7 1133.54   2
   9  -7  -3 1147.29 351.159   2
   9  -7  -2 338.785 149.889   2
   9  -6 -11 4884.35 876.532   2
   9  -6 -10 2161.03 588.098   2
   9  -6  -9 1118.78 353.610   2
   9  -6  -9 1219.41 304.763   6
   9  -6  -8 4998.55 635.711   6
   9  -6  -8 3761.33 694.854   2
   9  -6  -7 12382.0 1243.61   2
   9  -6  -7 13509.6 1033.20   6
   9  -6  -6 16126.9 1379.04   2
   9  -6  -6 17406.1 1169.96   6
   9  -6  -5 31130.9 1878.63   2
   9  -6  -5 28884.0 1531.39   6
   9  -6  -4 3685.98 615.357   2
   9  -6  -4 3232.86 491.427   6
   9  -6  -3 1325.03 411.479   2
   9  -5 -11 813.574 352.995   2
   9  -5 -10 59.6840 115.195   6
   9  -5 -10 7.16084 115.910   2
   9  -5  -9 15407.4 1423.13   2
   9  -5  -9 14756.2 1133.11   6
   9  -5  -8 35745.5 1753.40   6
   9  -5  -8 35635.4 2135.09   2
   9  -5  -7 49446.5 2465.88   2
   9  -5  -7 49826.6 2070.63   6
   9  -5  -6 41027.0 2159.23   2
   9  -5  -6 41793.1 1860.02   6
   9  -5  -5 50206.9 2367.34   2
   9  -5  -5 50635.9 2055.41   6
   9  -5  -4 9407.78 974.398   2
   9  -5  -4 10521.8 905.492   6
   9  -5  -3 1324.74 335.565   6
   9  -4 -12 976.277 392.871   2
   9  -4 -11 81.5866 175.231   2
   9  -4 -10 608.017 332.275   2
   9  -4  -9 19914.0 1570.21   2
   9  -4  -9 21942.6 1403.99   6
   9  -4  -8 34325.4 2023.02   2
   9  -4  -8 34590.4 1715.78   6
   9  -4  -7 30218.7 1837.63   2
   9  -4  -7 30342.8 1578.62   6
   9  -4  -6 17606.8 1349.52   2
   9  -4  -6 18482.5 1204.67   6
   9  -4  -5 7367.75 855.798   2
   9  -4  -5 8029.13 777.096   6
   9  -4  -4 194.229 140.615   6
   9  -4  -3 723.986 238.895   6
   9  -4  -2 653.596 239.136   6
   9  -3 -12 142.852 145.093   3
   9  -3 -12 82.5389 241.151   2
   9  -3 -11 126.886 152.911   3
   9  -3 -11-166.490 146.052   2
   9  -3 -10 1589.91 421.961   2
   9  -3 -10 2686.00 504.263   3
   9  -3  -9 20805.5 1563.59   2
   9  -3  -8 33658.3 1950.37   2
   9  -3  -8 33058.4 1713.83   6
   9  -3  -7 16530.6 1319.43   2
   9  -3  -7 18293.3 1218.72   6
   9  -3  -6 19214.9 1383.99   2
   9  -3  -6 20722.9 1286.65   6
   9  -3  -5 13644.9 1015.93   6
   9  -3  -4 6016.89 673.973   6
   9  -3  -3 7082.16 741.996   6
   9  -3  -2 6176.76 724.640   6
   9  -3  -1 21738.5 1355.85   6
   9  -2 -12 1928.18 463.447   3
   9  -2 -12 1423.54 462.282   2
   9  -2 -11-38.2126 74.9881   3
   9  -2 -11 81.1530 184.531   2
   9  -2 -10 3645.60 572.635   3
   9  -2 -10 3670.08 647.919   2
   9  -2  -9 16782.1 1182.87   3
   9  -2  -9 16324.1 1348.29   2
   9  -2  -8 44125.6 1865.25   3
   9  -2  -8 40770.0 2113.02   2
   9  -2  -7 14151.0 1192.17   2
   9  -2  -7 14694.3 1119.25   6
   9  -2  -7 15808.5 1059.21   3
   9  -2  -6 20425.6 1279.44   6
   9  -2  -5 9792.74 872.513   6
   9  -2  -4 2610.47 453.087   6
   9  -2  -3 196.980 132.364   6
   9  -2  -2 2177.92 433.900   6
   9  -2  -1 142.890 91.6793   3
   9  -2  -1-125.069 111.465   6
   9  -2   0 5758.89 428.463   3
   9  -1 -12 322.466 262.599   3
   9  -1 -12 241.324 197.959   2
   9  -1 -11 217.873 232.547   3
   9  -1 -11 86.8042 149.104   2
   9  -1 -10 5227.54 663.885   3
   9  -1 -10 3706.27 644.693   2
   9  -1  -9 17319.0 1180.69   3
   9  -1  -9 15301.3 1278.56   2
   9  -1  -8 22347.7 1301.98   3
   9  -1  -8 23686.2 1538.73   2
   9  -1  -7 3750.34 510.779   3
   9  -1  -6 29559.3 1382.67   3
   9  -1  -6 28346.2 1539.90   6
   9  -1  -5 7486.34 653.717   3
   9  -1  -5 8009.93 798.014   6
   9  -1  -4 633.547 180.602   3
   9  -1  -4 98.4943 128.491   6
   9  -1  -3 893.567 213.195   3
   9  -1  -3 1114.89 305.927   6
   9  -1  -2 8465.83 596.004   3
   9  -1  -2 7672.69 774.659   6
   9  -1  -1 10986.3 638.615   3
   9  -1  -1 11394.6 959.990   6
   9  -1   0 24116.0 877.465   3
   9   0 -12 465.596 262.434   3
   9   0 -12 215.985 192.567   2
   9   0 -11 3845.42 627.510   3
   9   0 -11 3045.82 592.107   2
   9   0 -10 13198.6 1101.57   3
   9   0 -10 12360.7 1156.45   2
   9   0  -9 28295.1 1555.82   3
   9   0  -9 28226.7 1705.48   2
   9   0  -8 99718.8 2987.69   3
   9   0  -8 94599.4 3233.13   2
   9   0  -7 16830.6 1094.14   3
   9   0  -6 32803.3 1489.36   3
   9   0  -6 34527.2 1739.62   6
   9   0  -5 23481.4 1184.55   3
   9   0  -5 23911.1 1406.41   6
   9   0  -4 3425.21 418.842   3
   9   0  -4 3690.11 554.392   6
   9   0  -3 1594.99 282.173   3
   9   0  -3 1626.24 362.572   6
   9   0  -2 2251.90 312.242   3
   9   0  -2 1957.66 423.802   6
   9   0  -1 57.2046 48.3627   3
   9   0  -1-17.0572 81.6777   6
   9   0   0 1948.31 420.090   6
   9   1 -12 752.340 293.789   3
   9   1 -11 3637.16 618.698   3
   9   1 -11 2984.51 562.230   2
   9   1 -10 14077.9 1143.23   3
   9   1 -10 14676.8 1224.93   2
   9   1  -9 20252.7 1306.39   3
   9   1  -9 18454.2 1353.16   2
   9   1  -8 41855.1 1851.14   3
   9   1  -7 16134.5 1070.15   3
   9   1  -6 28009.7 1371.93   3
   9   1  -5 11846.0 847.276   3
   9   1  -5 11848.7 990.088   6
   9   1  -4 1512.20 296.845   3
   9   1  -4 1442.91 350.054   6
   9   1  -3 184.143 128.649   3
   9   1  -3 264.233 192.630   6
   9   1  -2 1149.40 222.421   3
   9   1  -2 1465.38 358.161   6
   9   1  -1 1137.06 189.667   3
   9   1  -1 1152.75 300.714   6
   9   1   0 223.087 137.533   6
   9   2 -12 233.388 157.255   3
   9   2 -11 652.479 288.214   3
   9   2 -10 8554.87 915.305   3
   9   2 -10 7442.83 852.089   2
   9   2  -9 18849.6 1297.29   3
   9   2  -9 19109.1 1350.26   2
   9   2  -8 28243.8 1545.29   3
   9   2  -7 12778.7 980.387   3
   9   2  -6 10791.2 860.999   3
   9   2  -5 10920.5 833.081   3
   9   2  -5 12616.6 1043.91   6
   9   2  -4 87.7918 83.7606   3
   9   2  -4 167.528 153.408   6
   9   2  -3 928.637 220.232   3
   9   2  -3 1056.42 286.368   6
   9   2  -2 578.296 225.412   6
   9   2  -1 1786.38 373.669   6
   9   2   0 1095.25 329.617   6
   9   3 -11-204.783 183.218   3
   9   3 -10 5851.80 757.110   3
   9   3  -9 23978.8 1513.72   3
   9   3  -9 23588.8 1484.55   2
   9   3  -8 26149.6 1524.34   3
   9   3  -7 12870.7 1010.19   3
   9   3  -6 9668.56 840.096   3
   9   3  -5 4555.48 546.491   3
   9   3  -5 4622.88 633.333   6
   9   3  -4 541.666 214.247   6
   9   3  -3 3227.37 530.876   6
   9   3  -2 9031.58 872.954   6
   9   3  -1 18616.2 1298.29   6
   9   3   0 14328.7 1133.77   6
   9   4 -11 5333.90 792.865   3
   9   4 -10 23736.5 1607.78   3
   9   4  -9 34841.8 1905.49   3
   9   4  -8 25500.0 1553.61   3
   9   4  -7 9635.28 897.180   3
   9   4  -5 3546.74 584.083   6
   9   4  -4 8038.30 851.821   6
   9   4  -3 17668.1 1262.51   6
   9   4  -2 24111.3 1474.50   6
   9   4  -1 24276.3 1501.05   6
   9   4   0 28174.4 1624.98   6
   9   5  -5 786.172 273.202   6
   9   5  -4 5562.90 730.246   6
   9   5  -3 18814.8 1323.14   6
   9   5  -2 22644.6 1449.01   6
   9   5  -1 13637.9 1126.33   6
   9   5   0 11208.7 1026.98   6
   9   6  -5 3292.64 583.361   6
   9   6  -4 307.076 234.239   6
   9   6  -3 6353.79 782.186   6
   9   6  -2 10711.2 1002.50   6
   9   6  -1 6960.17 802.985   6
   9   6   0 5418.24 715.794   6
   9   7  -5 1500.47 386.417   6
   9   7  -4 23058.9 1564.23   6
   9   7  -3 25450.4 1640.78   6
   9   7  -2 15484.8 1229.04   6
   9   7  -1 4239.70 641.782   6
   9   7   0 4996.51 775.954   1
   9   7   0 5167.47 699.259   6
   9   7   1 3271.27 657.000   1
   9   7   2 3504.96 709.812   1
   9   8  -6-81.0530 109.319   6
   9   8  -5 1357.83 395.242   6
   9   8  -4 6120.41 808.634   6
   9   8  -3 4202.39 652.357   6
   9   8  -2 7081.80 832.646   6
   9   8  -1 581.360 241.448   6
   9   8   1 2564.13 607.375   1
   9   8   2 2037.04 553.089   1
   9   9  -6 128.785 169.106   6
   9   9  -5 2597.43 554.828   6
   9   9  -4 9612.84 1031.80   6
   9  10  -6 1841.91 490.587   6
  10 -11  -3 418.873 226.840   2
  10 -11  -2 220.511 235.254   2
  10 -11  -1 645.255 311.373   2
  10 -11   0 1222.72 436.731   2
  10 -10  -5 4427.22 851.808   2
  10 -10  -4 3314.79 734.229   2
  10 -10  -3 704.748 350.646   2
  10 -10  -2-237.799 261.201   2
  10 -10  -1 544.727 264.944   2
  10 -10   0 477.799 234.215   2
  10 -10   1 3060.26 661.826   2
  10  -9  -6 2696.64 654.708   2
  10  -9  -5 8144.90 1098.80   2
  10  -9  -4 2556.53 608.474   2
  10  -9  -3 80.8074 187.816   2
  10  -9  -2 775.206 303.979   2
  10  -9  -1 2607.26 598.418   2
  10  -9   0 791.280 375.715   2
  10  -9   1 5862.89 898.067   2
  10  -9   2 4027.17 735.612   2
  10  -8  -7 14340.7 1488.80   2
  10  -8  -6 8315.00 1118.02   2
  10  -8  -5 10496.1 1242.43   2
  10  -8  -4 2389.81 552.676   2
  10  -8  -3 475.120 308.394   2
  10  -8  -2 767.376 316.637   2
  10  -8  -1 4571.27 783.336   2
  10  -8   0 3269.82 649.592   2
  10  -7  -9 19134.3 1758.63   2
  10  -7  -8 16840.5 1606.44   2
  10  -7  -7 5266.56 875.635   2
  10  -7  -7 5044.62 668.062   6
  10  -7  -6 733.230 307.916   2
  10  -7  -6 1151.95 337.030   6
  10  -7  -5 2979.63 642.871   2
  10  -7  -5 3157.23 540.179   6
  10  -7  -4 297.307 254.051   2
  10  -7  -3 4150.13 725.614   2
  10  -7  -2 11416.0 1204.38   2
  10  -6 -10 12751.3 1441.41   2
  10  -6  -9 24124.4 1916.67   2
  10  -6  -9 23316.0 1510.23   6
  10  -6  -8 10179.0 1208.55   2
  10  -6  -8 12021.7 1055.78   6
  10  -6  -7 879.205 356.344   2
  10  -6  -7 1073.74 293.937   6
  10  -6  -6 226.871 199.339   2
  10  -6  -6 8.22310 96.2666   6
  10  -6  -5 905.934 344.970   2
  10  -6  -5 1128.56 309.094   6
  10  -6  -4 298.678 205.903   2
  10  -6  -4 159.398 135.146   6
  10  -5 -11 11181.4 1329.93   2
  10  -5 -10 9936.15 1226.59   2
  10  -5 -10 10911.1 1040.76   6
  10  -5  -9 13097.5 1354.00   2
  10  -5  -9 12400.7 1084.70   6
  10  -5  -8 3310.59 672.313   2
  10  -5  -8 3085.64 531.093   6
  10  -5  -7 290.468 186.672   2
  10  -5  -7-9.51878 86.9469   6
  10  -5  -6 229.819 151.553   2
  10  -5  -6 825.626 266.918   6
  10  -5  -5 2974.73 614.507   2
  10  -5  -5 3621.61 569.673   6
  10  -5  -4 852.983 300.758   6
  10  -5  -3 398.696 216.448   6
  10  -4 -12 2654.33 657.695   2
  10  -4 -11 9356.55 1200.67   2
  10  -4 -11 9754.31 1048.51   3
  10  -4 -10 8762.76 1106.05   2
  10  -4 -10 7696.96 889.951   6
  10  -4  -9 10983.3 1209.14   2
  10  -4  -9 11016.7 1047.42   6
  10  -4  -8 5954.39 872.738   2
  10  -4  -8 6895.86 813.664   6
  10  -4  -7 1479.23 424.846   2
  10  -4  -7 2568.35 492.332   6
  10  -4  -6 13165.5 1250.35   2
  10  -4  -6 15240.3 1170.78   6
  10  -4  -5 25723.1 1521.93   6
  10  -4  -4 9389.01 913.108   6
  10  -4  -3 58.1322 132.580   6
  10  -4  -2 7694.16 849.972   6
  10  -3 -12 4588.03 842.371   2
  10  -3 -11 12969.8 1162.72   3
  10  -3 -11 11936.3 1321.50   2
  10  -3 -10 17317.6 1303.48   3
  10  -3 -10 13642.2 1353.41   2
  10  -3  -9 15997.4 1441.10   2
  10  -3  -9 14517.3 1196.34   6
  10  -3  -9 16001.4 1218.34   3
  10  -3  -8 13092.7 1264.34   2
  10  -3  -8 13469.4 1133.84   6
  10  -3  -7 7228.51 923.125   2
  10  -3  -7 7855.47 854.778   6
  10  -3  -6 19407.9 1330.88   6
  10  -3  -5 10142.9 944.100   6
  10  -3  -4 225.377 131.577   6
  10  -3  -3 6252.62 751.716   6
  10  -3  -2 38340.4 1915.85   6
  10  -2 -13 2626.73 663.477   2
  10  -2 -12 3591.93 728.493   2
  10  -2 -11 9317.90 982.520   3
  10  -2 -11 8131.62 1058.42   2
  10  -2 -10 12610.3 1094.06   3
  10  -2 -10 12479.3 1275.89   2
  10  -2  -9 12110.5 1032.84   3
  10  -2  -9 10084.7 1113.89   2
  10  -2  -8 14050.6 1064.92   3
  10  -2  -8 12423.9 1206.26   2
  10  -2  -8 14178.6 1178.60   6
  10  -2  -7 185.139 147.940   3
  10  -2  -7 357.819 246.899   2
  10  -2  -7 362.892 227.131   6
  10  -2  -6 6860.50 681.285   3
  10  -2  -6 6780.13 791.968   6
  10  -2  -5 814.205 246.878   3
  10  -2  -5 370.954 167.722   6
  10  -2  -4 16012.6 966.251   3
  10  -2  -4 15936.6 1188.76   6
  10  -2  -3 36538.2 1441.99   3
  10  -2  -3 34369.0 1798.85   6
  10  -2  -2 40219.2 1447.13   3
  10  -2  -2 38488.6 1932.31   6
  10  -2  -1 13134.2 738.589   3
  10  -2  -1 13800.4 1159.10   6
  10  -1 -12 6595.81 955.459   2
  10  -1 -11 14511.6 1221.96   3
  10  -1 -11 12616.5 1268.95   2
  10  -1 -10 15306.8 1222.65   3
  10  -1 -10 14322.6 1336.25   2
  10  -1  -9 3735.73 565.164   3
  10  -1  -9 4116.13 691.568   2
  10  -1  -8 6665.39 723.711   3
  10  -1  -8 4769.99 735.462   2
  10  -1  -8 5733.63 756.741   6
  10  -1  -7 2412.49 423.264   3
  10  -1  -7 2919.90 537.511   6
  10  -1  -6 449.422 161.623   3
  10  -1  -6 580.835 255.137   6
  10  -1  -5 2222.12 370.831   3
  10  -1  -5 2694.41 494.626   6
  10  -1  -4 19541.2 1056.59   3
  10  -1  -4 17917.5 1272.71   6
  10  -1  -3 39419.0 1493.45   3
  10  -1  -3 39747.4 1932.11   6
  10  -1  -2 52039.0 1658.53   3
  10  -1  -2 52306.1 2280.35   6
  10  -1  -1 28984.6 1688.00   6
  10   0 -12 5007.98 813.778   2
  10   0 -11 15106.9 1269.26   3
  10   0 -11 13620.1 1312.84   2
  10   0 -10 16921.5 1287.20   3
  10   0 -10 13883.4 1298.48   2
  10   0  -9 3375.21 553.051   3
  10   0  -9 3382.77 626.240   2
  10   0  -8 10961.9 948.870   3
  10   0  -7 383.242 203.120   3
  10   0  -7 388.406 218.405   6
  10   0  -6 4819.57 579.215   3
  10   0  -6 3300.35 581.022   6
  10   0  -5 137.908 139.392   3
  10   0  -5-156.637 178.044   6
  10   0  -4 12532.3 857.985   3
  10   0  -4 13419.9 1107.01   6
  10   0  -3 24793.1 1167.13   3
  10   0  -3 23062.9 1470.63   6
  10   0  -2 19804.7 976.158   3
  10   0  -2 19902.3 1373.27   6
  10   0  -1 18413.0 1360.02   6
  10   1 -11 16818.2 1360.58   3
  10   1 -11 15367.9 1367.69   2
  10   1 -10 17142.4 1299.38   3
  10   1 -10 14207.1 1299.30   2
  10   1  -9 6780.77 788.573   3
  10   1  -9 6607.82 856.843   2
  10   1  -8 7627.37 797.793   3
  10   1  -7 3852.64 552.343   3
  10   1  -7 3758.67 608.853   6
  10   1  -6 8749.21 785.749   3
  10   1  -6 8421.80 907.348   6
  10   1  -5 5792.78 615.885   3
  10   1  -5 4118.89 629.419   6
  10   1  -4 2537.58 385.735   3
  10   1  -4 1835.30 416.091   6
  10   1  -3 13951.7 875.445   3
  10   1  -3 13370.9 1111.50   6
  10   1  -2 12250.5 771.848   3
  10   1  -2 13026.3 1110.73   6
  10   1  -1 10936.3 1023.65   6
  10   2 -11 12976.7 1220.43   3
  10   2 -10 11878.1 1094.53   3
  10   2 -10 11765.1 1156.76   2
  10   2  -9 6807.58 813.433   3
  10   2  -9 6432.81 840.621   2
  10   2  -8 2887.07 489.909   3
  10   2  -7 2296.08 432.791   3
  10   2  -6 2134.65 392.948   3
  10   2  -6 1687.45 410.797   6
  10   2  -5 210.565 135.792   3
  10   2  -5 122.824 119.430   6
  10   2  -4 26583.4 1331.61   3
  10   2  -4 28496.5 1679.52   6
  10   2  -3 39942.4 1583.60   3
  10   2  -3 43803.1 2093.91   6
  10   2  -2 34287.0 1867.43   6
  10   2  -1 25937.5 1633.14   6
  10   2   0 2810.90 530.892   6
  10   3 -11 14888.8 1358.00   3
  10   3 -10 9899.30 1026.67   3
  10   3  -9 7197.83 834.199   3
  10   3  -8 1998.19 429.097   3
  10   3  -7 111.954 97.5800   3
  10   3  -6 771.042 228.375   3
  10   3  -6 1429.97 398.393   6
  10   3  -5 4392.63 560.411   3
  10   3  -5 3618.27 610.135   6
  10   3  -4 36637.4 1959.32   6
  10   3  -3 32927.9 1848.74   6
  10   3  -2 21261.3 1453.97   6
  10   3  -1 7501.20 881.193   6
  10   3   0 1006.52 318.098   6
  10   4 -10 1478.96 414.306   3
  10   4  -9 813.730 285.800   3
  10   4  -8 771.585 277.639   3
  10   4  -6 9009.97 1010.65   6
  10   4  -5 19074.2 1434.48   6
  10   4  -4 51427.6 2385.10   6
  10   4  -3 41457.2 2139.00   6
  10   4  -2 27552.8 1696.58   6
  10   4  -1 9382.69 986.308   6
  10   4   0 4474.11 690.577   6
  10   5  -6 6009.80 834.863   6
  10   5  -5 12198.0 1173.22   6
  10   5  -4 25134.1 1671.42   6
  10   5  -3 21378.1 1528.58   6
  10   5  -2 8588.90 955.983   6
  10   5  -1 4165.08 661.191   6
  10   5   0 1624.88 429.537   6
  10   6  -6 9435.01 1077.94   6
  10   6  -5 8199.22 984.046   6
  10   6  -4 11359.9 1137.13   6
  10   6  -3 6038.58 807.098   6
  10   6  -2 5117.01 745.959   6
  10   6  -1 652.512 258.529   6
  10   7  -7 3757.35 745.150   6
  10   7  -6 2540.55 587.499   6
  10   7  -5 3362.51 648.228   6
  10   7  -4 7812.17 957.821   6
  10   7  -3 4645.74 729.969   6
  10   7  -2 6721.35 857.741   6
  10   7  -1 1102.68 340.923   6
  10   8  -7 4602.29 811.518   6
  10   8  -6 1524.75 453.508   6
  10   8  -5 4143.86 720.483   6
  10   8  -4 5107.53 783.917   6
  10   8  -3 6358.17 860.407   6
  10   8  -2 8916.87 1001.21   6
  10   9  -6 1666.80 478.458   6
  10   9  -5 7315.24 983.771   6
  11 -10   0 2132.34 592.721   2
  11  -9  -4 1287.84 467.899   2
  11  -9  -3 8863.25 1187.31   2
  11  -9  -2 10287.6 1280.58   2
  11  -9  -1 6379.73 989.762   2
  11  -9   0 2484.89 633.223   2
  11  -9   1 4826.98 851.595   2
  11  -9   2 2685.41 645.454   2
  11  -8  -6-134.313 243.625   2
  11  -8  -5 87.1107 153.712   2
  11  -8  -4 5790.47 944.046   2
  11  -8  -3 8913.84 1181.23   2
  11  -8  -2 7203.88 1054.02   2
  11  -8  -1 5359.44 885.493   2
  11  -7  -7 311.653 178.796   2
  11  -7  -7 422.915 206.263   6
  11  -7  -6 35.9082 162.530   2
  11  -7  -6 312.478 199.725   6
  11  -7  -5 264.426 197.707   2
  11  -7  -5 349.261 232.792   6
  11  -7  -4 8646.39 1128.22   2
  11  -7  -3 16784.4 1559.78   2
  11  -6  -9 176.792 187.908   6
  11  -6  -8-19.4671 241.437   2
  11  -6  -8 205.502 195.255   6
  11  -6  -7 362.132 180.150   2
  11  -6  -7 345.643 203.064   6
  11  -6  -6 501.716 271.661   2
  11  -6  -6 241.522 221.499   6
  11  -6  -5 1895.75 524.875   2
  11  -6  -5 1809.94 429.937   6
  11  -6  -4 16596.9 1508.13   2
  11  -6  -4 16997.6 1344.10   6
  11  -5 -10 1437.50 415.221   6
  11  -5  -9 4169.30 666.846   6
  11  -5  -9 4227.14 817.032   2
  11  -5  -8 7816.23 1080.49   2
  11  -5  -8 8508.80 964.629   6
  11  -5  -7 3144.43 697.321   2
  11  -5  -7 4585.25 690.721   6
  11  -5  -6 1656.62 530.169   2
  11  -5  -6 2838.99 537.980   6
  11  -5  -5 1154.27 391.576   2
  11  -5  -5 699.138 258.852   6
  11  -5  -4 10341.6 1027.02   6
  11  -5  -3 12562.5 1152.83   6
  11  -4 -12 4128.18 734.287   6
  11  -4 -11 6644.30 894.807   6
  11  -4 -10 7672.53 912.941   3
  11  -4 -10 7399.10 1069.85   2
  11  -4 -10 7851.48 945.678   6
  11  -4  -9 4985.31 870.363   2
  11  -4  -9 4515.76 710.319   6
  11  -4  -8 2671.60 646.329   2
  11  -4  -8 3478.53 609.629   6
  11  -4  -7 83.1207 137.380   2
  11  -4  -7 330.449 186.918   6
  11  -4  -6 295.494 232.173   2
  11  -4  -6 420.214 219.328   6
  11  -4  -5 6741.49 826.366   6
  11  -4  -4 24637.9 1606.93   6
  11  -4  -3 25355.9 1644.23   6
  11  -3 -11 6923.63 1044.34   2
  11  -3 -11 7881.62 1000.29   6
  11  -3 -10 5457.20 764.708   3
  11  -3 -10 4903.58 868.113   2
  11  -3 -10 4692.01 727.328   6
  11  -3  -9 1613.15 420.265   3
  11  -3  -9 1892.43 508.446   2
  11  -3  -9 1662.92 432.894   6
  11  -3  -8 1682.11 401.437   3
  11  -3  -8 1752.35 501.947   2
  11  -3  -8 2414.26 508.343   6
  11  -3  -7 3556.17 560.993   3
  11  -3  -7 2465.97 596.973   2
  11  -3  -7 2671.95 549.353   6
  11  -3  -6 695.465 297.842   6
  11  -3  -6 689.888 243.955   3
  11  -3  -5 6811.69 822.716   6
  11  -3  -5 7359.67 729.145   3
  11  -3  -4 15852.1 1277.98   6
  11  -3  -4 15981.7 1034.64   3
  11  -3  -3 10989.1 813.177   3
  11  -3  -3 10306.3 1043.66   6
  11  -3  -2 12513.9 1168.34   6
  11  -2 -12 2758.24 668.811   2
  11  -2 -11 4249.50 793.881   2
  11  -2 -10 2013.36 451.428   3
  11  -2 -10 1669.38 440.812   6
  11  -2 -10 1882.44 522.303   2
  11  -2  -9 427.810 211.959   3
  11  -2  -9 297.465 218.564   2
  11  -2  -9 430.200 260.426   6
  11  -2  -8 412.781 246.269   3
  11  -2  -8 595.705 281.516   2
  11  -2  -8 616.263 313.453   6
  11  -2  -7 5984.39 686.003   3
  11  -2  -7 5232.00 743.147   6
  11  -2  -6 1113.69 283.851   3
  11  -2  -6 1159.28 323.685   6
  11  -2  -5 13943.3 978.373   3
  11  -2  -5 12865.0 1153.36   6
  11  -2  -4 26398.7 1314.81   3
  11  -2  -4 25517.7 1643.31   6
  11  -2  -3 24776.2 1216.58   3
  11  -2  -3 23938.1 1610.57   6
  11  -2  -2 24245.9 1622.00   6
  11  -1 -12 1424.58 457.348   2
  11  -1 -11 657.788 306.935   2
  11  -1 -10 334.122 217.722   3
  11  -1 -10-44.7576 156.240   2
  11  -1  -9 3254.97 556.427   3
  11  -1  -9 2733.60 599.874   2
  11  -1  -9 3477.21 647.371   6
  11  -1  -8 2698.02 474.999   3
  11  -1  -8 2208.22 546.937   2
  11  -1  -8 2548.47 526.455   6
  11  -1  -7 26858.3 1496.05   3
  11  -1  -7 27952.3 1756.59   6
  11  -1  -6 11338.2 917.791   3
  11  -1  -6 12374.7 1140.70   6
  11  -1  -5 24899.5 1326.90   3
  11  -1  -5 24130.8 1606.33   6
  11  -1  -4 54427.2 1958.41   3
  11  -1  -4 54488.0 2454.18   6
  11  -1  -3 45501.9 1687.07   3
  11  -1  -3 46588.5 2266.61   6
  11  -1  -2 20114.3 1488.42   6
  11  -1  -1 7919.83 944.055   6
  11   0 -11 4856.60 829.099   2
  11   0 -10 2024.19 453.196   3
  11   0 -10 1419.11 459.244   2
  11   0  -9 283.811 224.450   3
  11   0  -9-155.115 156.906   2
  11   0  -9-61.0451 208.081   6
  11   0  -8 849.480 313.933   3
  11   0  -8 979.433 332.133   6
  11   0  -7 1212.59 356.416   3
  11   0  -7 1311.68 395.236   6
  11   0  -6 4665.05 587.960   3
  11   0  -6 4769.15 725.973   6
  11   0  -5 9673.31 820.187   3
  11   0  -5 9240.29 988.247   6
  11   0  -4 21388.4 1183.01   3
  11   0  -4 20317.4 1468.21   6
  11   0  -3 14939.2 935.086   3
  11   0  -3 18166.3 1386.15   6
  11   0  -2 6475.31 843.977   6
  11   0  -1 1399.69 405.261   6
  11   1 -11 6429.80 925.062   2
  11   1 -10 3948.16 657.893   3
  11   1 -10 3244.16 645.020   2
  11   1  -9 229.996 172.355   3
  11   1  -9-101.002 162.772   2
  11   1  -8 2885.50 522.379   3
  11   1  -8 2710.79 579.031   6
  11   1  -7 7675.18 800.537   3
  11   1  -7 9044.72 1017.23   6
  11   1  -6 14034.6 1049.47   3
  11   1  -6 13929.8 1244.24   6
  11   1  -5 14311.2 1011.49   3
  11   1  -5 14928.7 1279.16   6
  11   1  -4 29872.1 1437.45   3
  11   1  -4 30547.1 1842.84   6
  11   1  -3 12480.7 1170.15   6
  11   1  -2 4553.19 703.498   6
  11   1  -1 1974.17 474.421   6
  11   2 -10-31.9795 133.969   3
  11   2 -10 308.686 225.340   2
  11   2  -9 1250.19 360.647   3
  11   2  -8 5978.22 752.489   3
  11   2  -8 5425.84 842.404   6
  11   2  -7 10631.5 962.937   3
  11   2  -7 11297.3 1157.32   6
  11   2  -6 11611.3 978.544   3
  11   2  -6 11481.3 1159.39   6
  11   2  -5 6469.75 699.667   3
  11   2  -5 6284.97 852.455   6
  11   2  -4 15515.7 1044.36   3
  11   2  -4 16017.4 1347.64   6
  11   2  -3 6272.42 837.680   6
  11   2  -2 1730.54 452.267   6
  11   2  -1 201.288 197.842   6
  11   3 -10 387.640 158.726   3
  11   3  -9 3787.57 641.886   3
  11   3  -8 12286.2 1120.83   3
  11   3  -8 15563.6 1426.45   6
  11   3  -7 11408.8 1036.89   3
  11   3  -7 12560.5 1265.06   6
  11   3  -6 15561.3 1165.46   3
  11   3  -6 16928.5 1448.12   6
  11   3  -5 10876.3 1127.77   6
  11   3  -4 17421.4 1443.99   6
  11   3  -3 8398.75 979.805   6
  11   3  -2 5246.09 781.941   6
  11   3  -1 1540.93 428.871   6
  11   4  -8 27987.4 2001.04   6
  11   4  -7 20898.9 1688.91   6
  11   4  -6 16463.0 1469.83   6
  11   4  -5 10001.2 1119.83   6
  11   4  -4 17762.3 1483.47   6
  11   4  -3 11339.1 1177.11   6
  11   4  -2 2239.19 519.426   6
  11   4  -1 349.321 216.597   6
  11   5  -8 13786.3 1413.88   6
  11   5  -7 8820.88 1119.60   6
  11   5  -6 5615.79 870.935   6
  11   5  -5 4355.45 758.802   6
  11   5  -4 6774.10 916.339   6
  11   5  -3 2763.87 572.383   6
  11   5  -2 746.164 339.573   6
  11   5  -1 752.211 294.910   6
  11   6  -7 2802.97 628.645   6
  11   6  -6 1340.80 414.754   6
  11   6  -5 2923.07 612.050   6
  11   6  -4 5861.30 854.182   6
  11   6  -3 1120.40 377.342   6
  11   6  -2 1150.49 386.249   6
  11   6  -1 530.690 241.655   6
  11   7  -5 8571.31 1079.53   6
  11   7  -4 10589.0 1177.39   6
  11   7  -3 5572.23 838.501   6
  11   7  -2 1900.67 500.951   6
  11   7  -1-27.3380 201.838   6
  12  -7  -7 4498.14 728.652   6
  12  -7  -6 5108.27 768.612   6
  12  -7  -3 6133.54 1007.16   2
  12  -6  -8 3404.52 627.081   6
  12  -6  -7 12742.7 1218.73   6
  12  -6  -6 11049.5 1337.80   2
  12  -6  -6 9624.08 1068.35   6
  12  -6  -5 9016.39 1200.48   2
  12  -6  -5 10312.0 1105.95   6
  12  -6  -4 12410.2 1402.46   2
  12  -5 -10 201.836 165.830   6
  12  -5  -9 2659.39 557.190   6
  12  -5  -8 7811.75 960.778   6
  12  -5  -7 16449.6 1630.07   2
  12  -5  -7 16140.7 1376.55   6
  12  -5  -6 8315.84 1147.63   2
  12  -5  -6 8323.69 986.704   6
  12  -5  -5 9862.73 1257.33   2
  12  -5  -5 8949.84 1024.57   6
  12  -5  -4 11197.4 1152.90   6
  12  -4 -10 238.624 201.757   6
  12  -4  -9 4816.80 701.462   3
  12  -4  -9 4550.24 742.637   6
  12  -4  -8 3956.29 630.034   3
  12  -4  -8 4473.39 842.615   2
  12  -4  -8 4055.20 697.052   6
  12  -4  -7 11465.6 1332.74   2
  12  -4  -7 11563.5 1162.17   6
  12  -4  -7 12467.6 1085.51   3
  12  -4  -6 4608.77 828.184   2
  12  -4  -6 3418.61 626.643   6
  12  -4  -5 4369.81 718.180   6
  12  -4  -4 6808.12 900.317   6
  12  -4  -3 3563.25 671.150   6
  12  -3 -10 51.7153 121.580   6
  12  -3  -9 4143.06 651.484   3
  12  -3  -9 3365.00 719.585   2
  12  -3  -9 4665.15 758.817   6
  12  -3  -8 4214.77 630.659   3
  12  -3  -8 4333.44 807.973   2
  12  -3  -8 3575.55 667.858   6
  12  -3  -7 20794.6 1360.85   3
  12  -3  -7 17991.0 1664.77   2
  12  -3  -7 18228.9 1491.44   6
  12  -3  -6 6853.64 741.393   3
  12  -3  -6 6173.41 850.176   6
  12  -3  -5 13662.7 1025.92   3
  12  -3  -5 13314.7 1257.79   6
  12  -3  -4 14878.7 1027.91   3
  12  -3  -4 15012.2 1335.74   6
  12  -3  -3 2515.52 569.052   6
  12  -2 -10 2266.99 591.943   2
  12  -2 -10 2292.37 535.929   6
  12  -2  -9 11437.9 1074.18   3
  12  -2  -9 11448.5 1342.10   2
  12  -2  -9 12390.8 1262.30   6
  12  -2  -8 6510.76 772.328   3
  12  -2  -8 7952.35 1085.01   2
  12  -2  -8 6274.31 882.476   6
  12  -2  -7 27201.1 1556.86   3
  12  -2  -7 24634.3 1744.74   6
  12  -2  -6 9845.70 889.855   3
  12  -2  -6 11181.7 1149.61   6
  12  -2  -5 6522.88 694.801   3
  12  -2  -5 7508.10 937.453   6
  12  -2  -4 3707.41 509.844   3
  12  -2  -4 4226.91 711.958   6
  12  -2  -3 340.044 210.825   6
  12  -2  -2-60.8805 144.768   6
  12  -1 -11 633.798 364.994   2
  12  -1 -10 1763.54 498.835   2
  12  -1  -9 18593.2 1386.48   3
  12  -1  -9 20462.0 1753.55   2
  12  -1  -9 18927.0 1575.69   6
  12  -1  -8 19106.1 1348.19   3
  12  -1  -8 20759.0 1631.19   6
  12  -1  -7 31573.4 1695.53   3
  12  -1  -7 31210.9 1995.32   6
  12  -1  -6 20512.2 1311.82   3
  12  -1  -6 20695.5 1597.75   6
  12  -1  -5 9181.78 829.036   3
  12  -1  -5 9594.73 1062.24   6
  12  -1  -4 6692.61 897.229   6
  12  -1  -3 422.735 241.695   6
  12  -1  -2-78.0375 201.418   6
  12   0 -11 351.498 182.672   2
  12   0 -10 8405.40 1124.58   2
  12   0  -9 21437.8 1506.05   3
  12   0  -9 21160.7 1783.44   2
  12   0  -9 20225.0 1676.12   6
  12   0  -8 21247.8 1440.37   3
  12   0  -8 21056.8 1675.73   6
  12   0  -7 13655.3 1113.75   3
  12   0  -7 14537.7 1369.11   6
  12   0  -6 8544.23 843.646   3
  12   0  -6 8133.07 1010.79   6
  12   0  -5 2793.78 456.935   3
  12   0  -5 3097.06 636.805   6
  12   0  -4 2116.53 505.689   6
  12   0  -3 203.760 203.887   6
  12   0  -2-188.740 251.152   6
  12   1 -10 6286.34 969.465   2
  12   1  -9 9457.11 1006.13   3
  12   1  -8 11309.0 1043.82   3
  12   1  -8 11121.0 1245.86   6
  12   1  -7 6664.07 776.031   3
  12   1  -7 7785.38 1024.24   6
  12   1  -6 3180.32 516.184   3
  12   1  -6 2989.26 650.322   6
  12   1  -5 390.637 208.487   3
  12   1  -5 187.962 179.156   6
  12   1  -4 1652.12 454.141   6
  12   1  -3 731.788 305.546   6
  12   1  -2 1536.18 468.636   6
  12   2  -9 10547.6 1079.68   3
  12   2  -8 12158.1 1138.63   3
  12   2  -8 13035.8 1369.56   6
  12   2  -7 7905.59 869.953   3
  12   2  -7 9124.35 1113.61   6
  12   2  -6 9435.77 918.223   3
  12   2  -6 10434.2 1185.85   6
  12   2  -5 3508.71 682.276   6
  12   2  -4 4612.74 783.316   6
  12   2  -3 679.800 346.280   6
  12   2  -2-16.8643 94.4640   6
  12   2  -1 362.791 231.388   6
  12   3  -9 8442.66 985.756   3
  12   3  -8 10377.0 1059.80   3
  12   3  -7 6704.15 809.541   3
  12   3  -7 7649.09 1052.11   6
  12   3  -6 6767.46 980.686   6
  12   3  -5 531.132 287.332   6
  12   3  -4 156.412 158.359   6
  12   3  -3 3726.12 734.800   6
  12   3  -2 3678.75 692.537   6
  12   3  -1 4338.17 755.120   6
  12   4  -5 974.766 379.544   6
  12   4  -4-11.5296 114.243   6
  12   4  -3 725.807 311.033   6
  12   4  -2 212.520 202.917   6
  13  -6  -7 13715.0 1340.54   6
  13  -6  -6 7086.64 968.568   6
  13  -5  -7 7667.55 1003.22   6
  13  -5  -6 1845.05 503.618   6
  13  -5  -5 112.327 107.245   6
  13  -4  -7 14488.7 1211.48   3
  13  -4  -6 2019.75 440.209   3
  13  -4  -6 2143.88 557.146   6
  13  -4  -5 246.112 189.989   6
  13  -3  -8 3696.54 610.990   3
  13  -3  -7 8029.10 876.792   3
  13  -3  -6 270.011 151.263   3
  13  -3  -6 189.041 198.073   6
  13  -3  -5 444.357 272.591   6
  13  -2  -8 2349.85 499.805   3
  13  -2  -7 1868.59 413.199   3
  13  -2  -6 174.193 139.221   3
  13  -1  -8 11499.3 1079.39   3
  13  -1  -7 7958.01 871.148   3
  13  -1  -6 4161.76 611.371   3
  13   0  -8 1426.11 375.167   3
  13   0  -7 22.3996 109.896   3
  13   1  -8 5591.49 770.470   3
  13   1  -7 2735.88 515.785   3
  13   2  -8 1829.57 443.942   3
  13   2  -7-101.638 180.949   3
   0   0   0    0.00    0.00   0
TITL SDAIPA221 in P1
REM P1 (#1 in standard setting)
CELL 0.71073  10.259702  10.876556  10.928907  93.6533 109.5768  97.1468
ZERR    3.00   0.000431   0.000430   0.000474   0.0034   0.0039   0.0034
LATT -1
SFAC C H N O Zn
UNIT 36.00 36.00 6.00 12.00 6.00
TREF
HKLF 4
END
;
_shelx_hkl_checksum              72598
_shelx_fab_checksum              43959
_shelx_fab_file
;
  -12    0    3      0.00      0.00
  -12    0    4     -1.03      0.00
  -12    1    3      1.85      0.00
  -12    1    4     -0.84      0.00
  -12    2    3      1.65      0.00
  -12    2    4      1.09      0.00
  -12    2    5     -1.51      0.00
  -12    3    3     -0.60      0.00
  -12    3    4      0.89      0.00
  -12    3    5      0.54      0.00
  -11   -3    2      0.08      0.00
  -11   -2    1     -0.20      0.00
  -11   -2    2     -0.47      0.00
  -11   -2    3     -0.23      0.00
   11    1    0      1.17      0.00
  -11   -1    1      0.46      0.00
  -11   -1    2     -0.95      0.00
  -11   -1    3     -2.10      0.00
   11    0    0     -0.22      0.00
  -11    0    1      1.63      0.00
  -11    0    2      2.41      0.00
  -11    0    3     -0.45      0.00
  -11    0    4     -2.03      0.00
   11   -1    1      0.91      0.00
  -11    1    0     -2.25      0.00
  -11    1    1     -1.81      0.00
  -11    1    2      2.28      0.00
  -11    1    3      2.72      0.00
  -11    1    4     -0.89      0.00
   11   -2    1      1.85      0.00
  -11    2    0     -0.24      0.00
  -11    2    1     -2.71      0.00
  -11    2    2     -0.68      0.00
  -11    2    3      2.27      0.00
  -11    2    4      1.11      0.00
  -11    2    5     -1.22      0.00
   11   -3    1     -0.28      0.00
  -11    3    0      0.69      0.00
  -11    3    1     -0.28      0.00
  -11    3    2     -1.24      0.00
  -11    3    3     -0.21      0.00
  -11    3    4      1.09      0.00
  -11    3    5      0.70      0.00
   11   -4    1     -0.84      0.00
  -11    4    0     -0.33      0.00
  -11    4    1      0.62      0.00
  -11    4    2      0.06      0.00
  -11    4    3     -1.31      0.00
  -11    4    4     -0.77      0.00
  -11    4    5      0.67      0.00
  -11    5    0     -0.31      0.00
  -11    5    1     -0.36      0.00
  -11    5    2     -0.02      0.00
  -11    5    3     -0.18      0.00
  -11    5    4     -0.58      0.00
  -11    5    5     -0.14      0.00
  -11    6    1      0.07      0.00
  -11    6    2     -0.87      0.00
  -11    6    3      0.05      0.00
  -11    6    4      0.75      0.00
  -10   -6    5     -0.53      0.00
  -10   -5    5      0.20      0.00
  -10   -5    6     -1.47      0.00
  -10   -5    7     -0.10      0.00
   10    4    0     -0.14      0.00
  -10   -4    1      0.52      0.00
  -10   -4    5      0.70      0.00
  -10   -4    6     -0.25      0.00
  -10   -4    7     -0.64      0.00
  -10   -4    8      0.50      0.00
   10    3    1      0.52      0.00
   10    3    0     -0.59      0.00
  -10   -3    1     -0.33      0.00
  -10   -3    2     -0.32      0.00
  -10   -3    5      0.33      0.00
  -10   -3    6      0.90      0.00
  -10   -3    7     -0.25      0.00
  -10   -3    8     -0.29      0.00
  -10   -3    9      0.89      0.00
   10    2    2     -1.55      0.00
   10    2    1      1.56      0.00
   10    2    0      1.94      0.00
  -10   -2    1      0.86      0.00
  -10   -2    2     -1.04      0.00
  -10   -2    3     -0.35      0.00
  -10   -2    5      0.03      0.00
  -10   -2    6      0.51      0.00
  -10   -2    7     -0.44      0.00
  -10   -2    8     -0.65      0.00
  -10   -2    9      0.26      0.00
  -10   -2   10      0.10      0.00
   10    1    2     -2.85      0.00
   10    1    1     -2.13      0.00
   10    1    0      0.21      0.00
  -10   -1    1      1.93      0.00
  -10   -1    2     -0.24      0.00
  -10   -1    3     -2.19      0.00
  -10   -1    4     -1.16      0.00
  -10   -1    5      0.53      0.00
  -10   -1    6      1.49      0.00
  -10   -1    7     -0.43      0.00
  -10   -1    8     -1.32      0.00
  -10   -1    9     -0.09      0.00
   10    0    3      1.59      0.00
   10    0    2      0.98      0.00
   10    0    1     -1.69      0.00
   10    0    0     -1.86      0.00
  -10    0    1      1.58      0.00
  -10    0    2      2.60      0.00
  -10    0    3     -1.02      0.00
  -10    0    4     -3.51      0.00
   10   -1    3      0.82      0.00
   10   -1    2      3.42      0.00
   10   -1    1      1.10      0.00
  -10    1    0     -2.28      0.00
  -10    1    1     -1.45      0.00
  -10    1    2      2.06      0.00
  -10    1    3      1.69      0.00
  -10    1    4     -1.94      0.00
   10   -2    3     -0.62      0.00
   10   -2    2      1.27      0.00
   10   -2    1      1.40      0.00
  -10    2    0     -0.32      0.00
  -10    2    1     -1.65      0.00
  -10    2    2     -0.25      0.00
  -10    2    3      1.06      0.00
  -10    2    4     -0.17      0.00
  -10    2    5     -1.26      0.00
   10   -3    3     -0.11      0.00
   10   -3    2     -0.17      0.00
   10   -3    1     -0.20      0.00
  -10    3    0      0.46      0.00
  -10    3    1      0.60      0.00
  -10    3    2      0.48      0.00
  -10    3    3      0.83      0.00
  -10    3    4      0.73      0.00
  -10    3    5      0.23      0.00
   10   -4    3      0.52      0.00
   10   -4    2      0.38      0.00
   10   -4    1     -0.49      0.00
  -10    4    0     -0.72      0.00
  -10    4    1     -0.02      0.00
  -10    4    2      0.43      0.00
  -10    4    3      0.78      0.00
  -10    4    4      0.38      0.00
  -10    4    5     -1.00      0.00
   10   -5    2      0.12      0.00
   10   -5    1      0.12      0.00
  -10    5    0     -0.45      0.00
  -10    5    1     -1.18      0.00
  -10    5    2     -0.97      0.00
  -10    5    3      0.38      0.00
  -10    5    4      0.85      0.00
  -10    5    5     -0.80      0.00
   10   -6    2     -0.21      0.00
   10   -6    1     -0.62      0.00
  -10    6    0      0.21      0.00
  -10    6    1     -0.22      0.00
  -10    6    2     -0.84      0.00
  -10    6    3      0.01      0.00
  -10    6    4      1.34      0.00
   10   -7    1     -0.07      0.00
  -10    7    0      0.11      0.00
  -10    7    1      0.46      0.00
  -10    7    2      0.49      0.00
  -10    7    3     -0.23      0.00
  -10    8    0     -0.58      0.00
  -10    8    1     -1.31      0.00
  -10    8    2     -0.13      0.00
   -9   -7    2      1.46      0.00
   -9   -7    3     -0.16      0.00
   -9   -7    4     -1.21      0.00
   -9   -7    5     -1.65      0.00
   -9   -7    6      1.18      0.00
   -9   -6    2     -0.02      0.00
   -9   -6    3      0.84      0.00
   -9   -6    4      0.46      0.00
   -9   -6    5     -1.76      0.00
   -9   -6    6     -0.10      0.00
   -9   -6    7      2.21      0.00
   -9   -6    8      1.28      0.00
    9    5    1      0.48      0.00
    9    5    0      1.12      0.00
   -9   -5    2     -0.98      0.00
   -9   -5    3      0.22      0.00
   -9   -5    4      1.37      0.00
   -9   -5    5     -0.24      0.00
   -9   -5    6     -0.84      0.00
   -9   -5    7      0.36      0.00
   -9   -5    8      1.12      0.00
   -9   -5    9      0.60      0.00
    9    4    2      0.79      0.00
    9    4    1      0.36      0.00
    9    4    0      0.40      0.00
   -9   -4    1     -0.43      0.00
   -9   -4    2     -0.84      0.00
   -9   -4    3     -0.56      0.00
   -9   -4    4      0.26      0.00
   -9   -4    5      0.75      0.00
   -9   -4    6      0.01      0.00
   -9   -4    7     -0.76      0.00
   -9   -4    8     -0.17      0.00
   -9   -4    9      0.40      0.00
   -9   -4   10      0.15      0.00
    9    3    3     -2.02      0.00
    9    3    2      0.12      0.00
    9    3    1      1.17      0.00
    9    3    0      0.90      0.00
   -9   -3    1     -0.76      0.00
   -9   -3    2     -0.73      0.00
   -9   -3    3      0.20      0.00
   -9   -3    4      0.46      0.00
   -9   -3    5      1.35      0.00
   -9   -3    6      0.57      0.00
   -9   -3    7     -0.62      0.00
   -9   -3    8      0.14      0.00
   -9   -3    9      0.16      0.00
   -9   -3   10      0.02      0.00
    9    2    4      1.47      0.00
    9    2    3     -1.14      0.00
    9    2    2     -0.80      0.00
    9    2    1      1.33      0.00
    9    2    0      3.16      0.00
   -9   -2    1      1.47      0.00
   -9   -2    2     -0.73      0.00
   -9   -2    3     -0.78      0.00
   -9   -2    4      0.26      0.00
   -9   -2    5      1.94      0.00
   -9   -2    6      0.55      0.00
   -9   -2    7     -1.44      0.00
   -9   -2    8     -0.12      0.00
   -9   -2    9      0.30      0.00
   -9   -2   10     -0.20      0.00
   -9   -2   11     -0.06      0.00
    9    1    4      1.21      0.00
    9    1    3      0.75      0.00
    9    1    2     -1.50      0.00
    9    1    1     -2.17      0.00
    9    1    0      0.79      0.00
   -9   -1    1      2.89      0.00
   -9   -1    2      0.79      0.00
   -9   -1    3     -2.48      0.00
   -9   -1    4     -2.10      0.00
   -9   -1    5      1.50      0.00
   -9   -1    6      1.25      0.00
   -9   -1    7     -2.06      0.00
   -9   -1    8     -1.93      0.00
   -9   -1    9     -0.50      0.00
   -9   -1   10      0.09      0.00
    9    0    4     -1.13      0.00
    9    0    3      1.62      0.00
    9    0    2      0.55      0.00
    9    0    1     -2.41      0.00
    9    0    0     -1.91      0.00
   -9    0    1      2.16      0.00
   -9    0    2      3.40      0.00
   -9    0    3     -1.08      0.00
   -9    0    4     -3.44      0.00
    9   -1    4     -1.21      0.00
    9   -1    3      1.23      0.00
    9   -1    2      1.91      0.00
    9   -1    1      0.19      0.00
   -9    1    0     -1.39      0.00
   -9    1    1     -0.06      0.00
   -9    1    2      2.42      0.00
   -9    1    3      0.56      0.00
   -9    1    4     -1.56      0.00
    9   -2    5      0.82      0.00
    9   -2    4     -0.11      0.00
    9   -2    3      0.28      0.00
    9   -2    2     -0.21      0.00
    9   -2    1     -0.70      0.00
   -9    2    0     -0.91      0.00
   -9    2    1     -1.07      0.00
   -9    2    2     -0.29      0.00
   -9    2    3     -1.58      0.00
   -9    2    4     -2.17      0.00
   -9    2    5     -0.55      0.00
    9   -3    5     -0.11      0.00
    9   -3    4      0.32      0.00
    9   -3    3      1.08      0.00
    9   -3    2      0.18      0.00
    9   -3    1     -0.86      0.00
   -9    3    0     -0.19      0.00
   -9    3    1      0.76      0.00
   -9    3    2      1.94      0.00
   -9    3    3      0.22      0.00
   -9    3    4     -2.12      0.00
   -9    3    5     -0.63      0.00
   -9    3    9     -0.28      0.00
   -9    3   10      0.69      0.00
    9   -4    4      0.57      0.00
    9   -4    3      0.94      0.00
    9   -4    2      0.77      0.00
    9   -4    1     -0.14      0.00
   -9    4    0     -0.57      0.00
   -9    4    1     -0.52      0.00
   -9    4    2      1.62      0.00
   -9    4    3      2.31      0.00
   -9    4    4     -1.08      0.00
   -9    4    5     -2.18      0.00
   -9    4    8      0.34      0.00
   -9    4    9     -0.38      0.00
   -9    4   10      0.62      0.00
    9   -5    4      1.09      0.00
    9   -5    3      0.93      0.00
    9   -5    2      0.21      0.00
    9   -5    1      0.03      0.00
   -9    5    0     -0.44      0.00
   -9    5    1     -2.14      0.00
   -9    5    2     -1.45      0.00
   -9    5    3      1.33      0.00
   -9    5    4      0.55      0.00
   -9    5    5     -1.84      0.00
   -9    5    7      0.41      0.00
   -9    5    8     -0.06      0.00
   -9    5    9     -0.37      0.00
   -9    5   10     -0.27      0.00
    9   -6    4      0.34      0.00
    9   -6    3      0.78      0.00
    9   -6    2     -0.65      0.00
    9   -6    1     -1.02      0.00
   -9    6    0      0.12      0.00
   -9    6    1     -0.07      0.00
   -9    6    2     -0.47      0.00
   -9    6    3      0.80      0.00
   -9    6    4      2.04      0.00
   -9    6    5      0.86      0.00
   -9    6    7      0.10      0.00
   -9    6    8      0.16      0.00
   -9    6    9      0.55      0.00
    9   -7    3      0.87      0.00
    9   -7    2      1.22      0.00
    9   -7    1      0.48      0.00
   -9    7    0      0.30      0.00
   -9    7    1      0.86      0.00
   -9    7    2      1.16      0.00
   -9    7    3      0.24      0.00
   -9    7    6     -0.26      0.00
   -9    7    7     -0.80      0.00
   -9    7    8     -0.83      0.00
    9   -8    2      0.20      0.00
    9   -8    1      1.01      0.00
   -9    8    0     -0.37      0.00
   -9    8    1     -1.53      0.00
   -9    8    2     -1.01      0.00
   -9    8    3     -1.91      0.00
   -9    8    6     -1.62      0.00
   -9    8    7     -1.74      0.00
    9   -9    1      0.32      0.00
   -9    9    0      0.47      0.00
   -9    9    1     -0.30      0.00
   -8   -8    1      1.41      0.00
   -8   -8    2      0.44      0.00
   -8   -8    3     -0.05      0.00
   -8   -8    4     -1.24      0.00
   -8   -8    5      0.73      0.00
   -8   -8    6      1.43      0.00
   -8   -8    7     -0.44      0.00
    8    7    1      0.44      0.00
    8    7    0     -1.60      0.00
   -8   -7    1      0.11      0.00
   -8   -7    2      1.49      0.00
   -8   -7    3      1.51      0.00
   -8   -7    4     -2.04      0.00
   -8   -7    5     -1.90      0.00
   -8   -7    6      1.15      0.00
   -8   -7    7      0.83      0.00
   -8   -7    8     -0.29      0.00
    8    6    2      1.46      0.00
    8    6    1      2.12      0.00
    8    6    0     -0.38      0.00
   -8   -6    1     -1.59      0.00
   -8   -6    2     -0.57      0.00
   -8   -6    3      1.33      0.00
   -8   -6    4     -0.97      0.00
   -8   -6    5     -2.67      0.00
   -8   -6    6     -0.65      0.00
   -8   -6    7      0.81      0.00
   -8   -6    8      0.90      0.00
   -8   -6    9     -0.43      0.00
    8    5    3      0.08      0.00
    8    5    2      0.19      0.00
    8    5    1      0.86      0.00
    8    5    0      0.46      0.00
   -8   -5    1     -0.27      0.00
   -8   -5    2     -0.81      0.00
   -8   -5    3     -0.32      0.00
   -8   -5    4     -0.67      0.00
   -8   -5    5     -1.12      0.00
   -8   -5    6     -0.73      0.00
   -8   -5    7      0.18      0.00
   -8   -5    8      1.65      0.00
   -8   -5    9      1.24      0.00
   -8   -5   10     -0.60      0.00
    8    4    4     -0.88      0.00
    8    4    3     -0.21      0.00
    8    4    2      0.65      0.00
    8    4    1      0.60      0.00
    8    4    0     -0.71      0.00
   -8   -4    1     -0.85      0.00
   -8   -4    2     -0.46      0.00
   -8   -4    3     -0.85      0.00
   -8   -4    4     -0.92      0.00
   -8   -4    5     -0.65      0.00
   -8   -4    6     -0.49      0.00
   -8   -4    7      0.21      0.00
   -8   -4    8      1.05      0.00
   -8   -4    9      1.31      0.00
   -8   -4   10      0.81      0.00
   -8   -4   11     -0.30      0.00
    8    3    5      2.15      0.00
    8    3    4     -0.52      0.00
    8    3    3     -1.84      0.00
    8    3    2     -0.65      0.00
    8    3    1      1.12      0.00
    8    3    0     -0.02      0.00
   -8   -3    1     -1.74      0.00
   -8   -3    2     -1.87      0.00
   -8   -3    3     -1.02      0.00
   -8   -3    4      0.89      0.00
   -8   -3    5      0.60      0.00
   -8   -3    6     -0.98      0.00
   -8   -3    7      0.49      0.00
   -8   -3    8      1.43      0.00
   -8   -3    9      0.31      0.00
   -8   -3   10      0.16      0.00
   -8   -3   11      0.21      0.00
    8    2    5      1.70      0.00
    8    2    4      1.85      0.00
    8    2    3     -0.18      0.00
    8    2    2     -1.48      0.00
    8    2    1      0.48      0.00
    8    2    0      2.70      0.00
   -8   -2    1      2.03      0.00
   -8   -2    2     -1.28      0.00
   -8   -2    3     -2.46      0.00
   -8   -2    4      1.46      0.00
   -8   -2    5      3.17      0.00
   -8   -2    6      0.02      0.00
   -8   -2    7     -0.47      0.00
   -8   -2    8      1.03      0.00
   -8   -2    9      0.46      0.00
   -8   -2   10     -0.58      0.00
   -8   -2   11     -0.54      0.00
    8    1    5     -0.55      0.00
    8    1    4      1.98      0.00
    8    1    3      1.93      0.00
    8    1    2     -1.16      0.00
    8    1    1     -2.49      0.00
    8    1    0      0.41      0.00
   -8   -1    1      3.20      0.00
   -8   -1    2     -0.24      0.00
   -8   -1    3     -4.32      0.00
   -8   -1    4     -1.87      0.00
   -8   -1    5      1.89      0.00
   -8   -1    6      0.85      0.00
   -8   -1    7     -1.31      0.00
   -8   -1    8     -1.32      0.00
   -8   -1    9     -0.17      0.00
   -8   -1   10      0.06      0.00
   -8   -1   11     -0.39      0.00
    8    0    6     -0.47      0.00
    8    0    5     -2.17      0.00
    8    0    4     -0.20      0.00
    8    0    3      1.42      0.00
    8    0    2      0.04      0.00
    8    0    1     -2.06      0.00
    8    0    0     -1.39      0.00
   -8    0    1      2.00      0.00
   -8    0    2      0.71      0.00
   -8    0    3     -2.45      0.00
   -8    0    4     -1.83      0.00
   -8    0    5      0.15      0.00
   -8    0    6      0.63      0.00
   -8    0    7     -0.16      0.00
   -8    0    8     -1.41      0.00
    8   -1    6      0.92      0.00
    8   -1    5     -0.11      0.00
    8   -1    4      0.62      0.00
    8   -1    3      1.15      0.00
    8   -1    2      0.78      0.00
    8   -1    1      1.02      0.00
   -8    1    0      1.31      0.00
   -8    1    1      2.98      0.00
   -8    1    2      1.32      0.00
   -8    1    3     -0.36      0.00
   -8    1    4      1.42      0.00
   -8    1   10      0.52      0.00
    8   -2    6      0.51      0.00
    8   -2    5      0.03      0.00
    8   -2    4      0.52      0.00
    8   -2    3     -0.01      0.00
    8   -2    2     -1.84      0.00
    8   -2    1     -1.44      0.00
   -8    2    0     -0.25      0.00
   -8    2    1      2.24      0.00
   -8    2    2      0.35      0.00
   -8    2    3     -3.32      0.00
   -8    2    4     -1.53      0.00
   -8    2    8     -1.72      0.00
   -8    2    9     -0.96      0.00
   -8    2   10      0.17      0.00
    8   -3    6     -0.79      0.00
    8   -3    5     -0.86      0.00
    8   -3    4      0.03      0.00
    8   -3    3      0.76      0.00
    8   -3    2     -0.47      0.00
    8   -3    1     -1.22      0.00
   -8    3    0     -1.74      0.00
   -8    3    1      1.36      0.00
   -8    3    2      2.87      0.00
   -8    3    3     -1.62      0.00
   -8    3    4     -3.84      0.00
   -8    3    5     -0.41      0.00
   -8    3    7     -0.25      0.00
   -8    3    8     -1.82      0.00
   -8    3    9     -0.68      0.00
   -8    3   10      0.53      0.00
   -8    3   11      0.04      0.00
    8   -4    6     -0.56      0.00
    8   -4    5      0.27      0.00
    8   -4    4      0.22      0.00
    8   -4    3      0.15      0.00
    8   -4    2      0.53      0.00
    8   -4    1      1.48      0.00
   -8    4    0     -0.12      0.00
   -8    4    1      0.07      0.00
   -8    4    2      3.22      0.00
   -8    4    3      1.60      0.00
   -8    4    4     -2.61      0.00
   -8    4    5     -1.46      0.00
   -8    4    6      1.46      0.00
   -8    4    7      1.65      0.00
   -8    4    8      0.58      0.00
   -8    4    9      0.24      0.00
   -8    4   10      0.28      0.00
   -8    4   11      0.19      0.00
    8   -5    5      0.10      0.00
    8   -5    4      1.05      0.00
    8   -5    3      0.05      0.00
    8   -5    2     -0.66      0.00
    8   -5    1      0.59      0.00
   -8    5    0     -0.46      0.00
   -8    5    1     -2.71      0.00
   -8    5    2     -1.12      0.00
   -8    5    3      0.35      0.00
   -8    5    4     -1.16      0.00
   -8    5    5     -0.92      0.00
   -8    5    6     -0.01      0.00
   -8    5    7      0.24      0.00
   -8    5    8      0.97      0.00
   -8    5    9      0.52      0.00
   -8    5   10     -0.58      0.00
    8   -6    5     -0.45      0.00
    8   -6    4      0.18      0.00
    8   -6    3      0.15      0.00
    8   -6    2     -1.02      0.00
    8   -6    1     -0.88      0.00
   -8    6    0     -0.66      0.00
   -8    6    1     -1.47      0.00
   -8    6    2     -1.02      0.00
   -8    6    3      0.45      0.00
   -8    6    4      0.50      0.00
   -8    6    5      0.57      0.00
   -8    6    6      0.38      0.00
   -8    6    7     -0.41      0.00
   -8    6    8      0.43      0.00
   -8    6    9      0.56      0.00
   -8    6   10     -0.40      0.00
    8   -7    5      0.04      0.00
    8   -7    4     -0.77      0.00
    8   -7    3      0.40      0.00
    8   -7    2      1.59      0.00
    8   -7    1      1.62      0.00
   -8    7    0      1.07      0.00
   -8    7    1      0.96      0.00
   -8    7    2      0.95      0.00
   -8    7    3      2.14      0.00
   -8    7    4      2.41      0.00
   -8    7    5      0.93      0.00
   -8    7    6      0.13      0.00
   -8    7    7     -0.55      0.00
   -8    7    8     -0.07      0.00
   -8    7    9      0.30      0.00
    8   -8    4     -0.97      0.00
    8   -8    3     -2.05      0.00
    8   -8    2     -0.29      0.00
    8   -8    1      1.16      0.00
   -8    8    0      0.46      0.00
   -8    8    1     -0.73      0.00
   -8    8    2     -2.44      0.00
   -8    8    3     -0.73      0.00
   -8    8    4      1.52      0.00
   -8    8    5     -0.37      0.00
   -8    8    6     -1.91      0.00
   -8    8    7     -1.88      0.00
   -8    8    8     -0.62      0.00
    8   -9    3     -0.54      0.00
    8   -9    2     -0.55      0.00
    8   -9    1      0.32      0.00
   -8    9    0      0.94      0.00
   -8    9    1      0.95      0.00
   -8    9    2     -2.13      0.00
   -8    9    4      1.48      0.00
   -8    9    5      0.98      0.00
   -8    9    6     -0.78      0.00
   -8    9    7     -1.41      0.00
    8  -10    1     -0.06      0.00
   -8   10    0     -0.14      0.00
   -8   10    1      1.70      0.00
   -8   10    4      0.43      0.00
   -8   10    5      1.05      0.00
   -7   -9    1     -0.26      0.00
   -7   -9    2     -0.64      0.00
   -7   -9    3     -1.47      0.00
   -7   -9    4     -0.03      0.00
   -7   -9    5      0.89      0.00
   -7   -9    6     -0.37      0.00
    7    8    1     -1.30      0.00
    7    8    0     -0.22      0.00
   -7   -8    1      0.44      0.00
   -7   -8    2      1.23      0.00
   -7   -8    3     -1.14      0.00
   -7   -8    4     -1.80      0.00
   -7   -8    5      1.05      0.00
   -7   -8    6      1.25      0.00
   -7   -8    7      1.03      0.00
   -7   -8    8      0.40      0.00
    7    7    3     -0.34      0.00
    7    7    0     -1.71      0.00
   -7   -7    1     -0.53      0.00
   -7   -7    2      2.50      0.00
   -7   -7    3      1.20      0.00
   -7   -7    4     -1.37      0.00
   -7   -7    5      0.63      0.00
   -7   -7    6      1.98      0.00
   -7   -7    7      1.99      0.00
   -7   -7    8      0.66      0.00
   -7   -7    9     -0.90      0.00
    7    6    4     -0.05      0.00
    7    6    3     -0.32      0.00
    7    6    2      0.46      0.00
    7    6    1      0.16      0.00
    7    6    0     -0.77      0.00
   -7   -6    1     -0.98      0.00
   -7   -6    2      0.93      0.00
   -7   -6    3      1.03      0.00
   -7   -6    4     -0.67      0.00
   -7   -6    5     -0.56      0.00
   -7   -6    6     -0.64      0.00
   -7   -6    7      0.26      0.00
   -7   -6    8      0.75      0.00
   -7   -6    9     -0.32      0.00
   -7   -6   10     -1.09      0.00
    7    5    5     -0.45      0.00
    7    5    4     -0.17      0.00
    7    5    3      0.38      0.00
    7    5    2      0.28      0.00
    7    5    1     -0.33      0.00
    7    5    0     -0.03      0.00
   -7   -5    1      0.51      0.00
   -7   -5    2      0.44      0.00
   -7   -5    3     -0.16      0.00
   -7   -5    4     -0.52      0.00
   -7   -5    5     -0.05      0.00
   -7   -5    6     -0.68      0.00
   -7   -5    7     -0.54      0.00
   -7   -5    8      0.40      0.00
   -7   -5    9      0.39      0.00
   -7   -5   10     -0.59      0.00
   -7   -5   11     -0.96      0.00
    7    4    5      0.53      0.00
    7    4    4     -1.03      0.00
    7    4    3     -0.55      0.00
    7    4    2      0.75      0.00
    7    4    1      0.27      0.00
    7    4    0     -0.24      0.00
   -7   -4    1      0.40      0.00
   -7   -4    2      0.37      0.00
   -7   -4    3      0.32      0.00
   -7   -4    4     -0.55      0.00
   -7   -4    5     -1.14      0.00
   -7   -4    6      0.12      0.00
   -7   -4    7      1.21      0.00
   -7   -4    8      0.60      0.00
   -7   -4    9      0.57      0.00
   -7   -4   10      0.44      0.00
   -7   -4   11     -0.59      0.00
    7    3    6      1.11      0.00
    7    3    5      1.49      0.00
    7    3    4     -0.81      0.00
    7    3    3     -2.97      0.00
    7    3    2     -1.95      0.00
    7    3    1      0.00      0.00
    7    3    0      0.78      0.00
   -7   -3    1     -0.73      0.00
   -7   -3    2     -2.78      0.00
   -7   -3    3     -0.43      0.00
   -7   -3    4      1.12      0.00
   -7   -3    5     -1.46      0.00
   -7   -3    6     -1.11      0.00
   -7   -3    7      1.85      0.00
   -7   -3    8      1.40      0.00
   -7   -3    9      0.11      0.00
   -7   -3   10      0.40      0.00
   -7   -3   11      0.33      0.00
   -7   -3   12     -0.37      0.00
    7    2    6     -0.50      0.00
    7    2    5      1.22      0.00
    7    2    4      1.62      0.00
    7    2    3     -0.95      0.00
    7    2    2     -2.75      0.00
    7    2    1     -0.57      0.00
    7    2    0      4.08      0.00
   -7   -2    1      3.24      0.00
   -7   -2    2     -2.02      0.00
   -7   -2    3     -1.19      0.00
   -7   -2    4      2.85      0.00
   -7   -2    5      2.09      0.00
   -7   -2    6     -0.18      0.00
   -7   -2    7      0.41      0.00
   -7   -2    8      1.07      0.00
   -7   -2    9      0.18      0.00
   -7   -2   10     -0.52      0.00
   -7   -2   11     -0.16      0.00
   -7   -2   12     -0.10      0.00
    7    1    7      0.79      0.00
    7    1    6     -0.96      0.00
    7    1    5     -0.01      0.00
    7    1    4      1.85      0.00
    7    1    3      0.90      0.00
    7    1    2     -1.80      0.00
    7    1    1     -2.21      0.00
    7    1    0      2.20      0.00
   -7   -1    1      2.85      0.00
   -7   -1    2     -1.16      0.00
   -7   -1    3     -2.15      0.00
   -7   -1    4     -0.47      0.00
   -7   -1    5      1.00      0.00
   -7   -1    6      0.93      0.00
   -7   -1    7     -0.12      0.00
   -7   -1    8     -0.10      0.00
   -7   -1    9      0.32      0.00
   -7   -1   10     -0.35      0.00
   -7   -1   11     -0.46      0.00
    7    0    7      0.23      0.00
    7    0    6     -1.48      0.00
    7    0    5     -1.41      0.00
    7    0    4     -0.54      0.00
    7    0    3     -1.28      0.00
    7    0    2     -1.92      0.00
    7    0    1     -2.03      0.00
    7    0    0      0.02      0.00
   -7    0    1     -1.36      0.00
   -7    0    2     -3.66      0.00
   -7    0    3     -1.78      0.00
   -7    0    4     -0.99      0.00
   -7    0    5     -1.06      0.00
   -7    0    6      0.02      0.00
   -7    0    7      0.11      0.00
   -7    0    8     -0.31      0.00
   -7    0    9     -0.10      0.00
   -7    0   10     -0.43      0.00
    7   -1    7      0.82      0.00
    7   -1    6      0.07      0.00
    7   -1    5      0.68      0.00
    7   -1    4      1.46      0.00
    7   -1    3     -0.27      0.00
    7   -1    2     -0.50      0.00
    7   -1    1      0.72      0.00
   -7    1    0      3.57      0.00
   -7    1    1      1.59      0.00
   -7    1    2     -3.05      0.00
   -7    1    3     -1.16      0.00
   -7    1    4      2.20      0.00
   -7    1    7     -0.65      0.00
   -7    1    8     -0.17      0.00
   -7    1    9      0.68      0.00
   -7    1   10     -0.35      0.00
    7   -2    7      1.03      0.00
    7   -2    6      0.03      0.00
    7   -2    5     -0.12      0.00
    7   -2    4      1.03      0.00
    7   -2    3     -0.20      0.00
    7   -2    2     -1.11      0.00
    7   -2    1     -1.56      0.00
   -7    2    0      2.17      0.00
   -7    2    1      4.67      0.00
   -7    2    2     -0.37      0.00
   -7    2    3     -3.62      0.00
   -7    2    4     -0.65      0.00
   -7    2    6      1.99      0.00
   -7    2    7     -1.43      0.00
   -7    2    8     -1.73      0.00
   -7    2    9      0.20      0.00
   -7    2   10      0.03      0.00
   -7    2   11      0.32      0.00
    7   -3    7     -0.48      0.00
    7   -3    6     -0.98      0.00
    7   -3    5     -1.70      0.00
    7   -3    4     -0.95      0.00
    7   -3    3     -0.45      0.00
    7   -3    2      0.31      0.00
    7   -3    1     -2.26      0.00
   -7    3    0     -2.78      0.00
   -7    3    1      1.63      0.00
   -7    3    2      1.38      0.00
   -7    3    3     -2.81      0.00
   -7    3    4     -2.97      0.00
   -7    3    5      0.45      0.00
   -7    3    6      1.38      0.00
   -7    3    7     -0.93      0.00
   -7    3    8     -2.11      0.00
   -7    3    9     -1.01      0.00
   -7    3   10     -0.56      0.00
   -7    3   11      0.61      0.00
   -7    3   12      1.08      0.00
    7   -4    7     -0.74      0.00
    7   -4    6     -0.04      0.00
    7   -4    5     -0.07      0.00
    7   -4    4     -0.47      0.00
    7   -4    3      0.05      0.00
    7   -4    2      3.36      0.00
    7   -4    1      3.42      0.00
   -7    4    0      0.27      0.00
   -7    4    1      1.05      0.00
   -7    4    2      2.04      0.00
   -7    4    3     -0.19      0.00
   -7    4    4     -1.11      0.00
   -7    4    5     -0.40      0.00
   -7    4    6      0.05      0.00
   -7    4    7      0.87      0.00
   -7    4    8      0.73      0.00
   -7    4    9     -0.08      0.00
   -7    4   10     -0.34      0.00
   -7    4   11      1.09      0.00
    7   -5    7     -0.87      0.00
    7   -5    6      0.03      0.00
    7   -5    5      0.63      0.00
    7   -5    4      0.32      0.00
    7   -5    3     -0.19      0.00
    7   -5    2      1.44      0.00
    7   -5    1      2.37      0.00
   -7    5    0      0.09      0.00
   -7    5    1     -0.55      0.00
   -7    5    2     -0.02      0.00
   -7    5    3     -0.82      0.00
   -7    5    4      0.07      0.00
   -7    5    5      0.66      0.00
   -7    5    6     -0.63      0.00
   -7    5    7      0.60      0.00
   -7    5    8      1.65      0.00
   -7    5    9      0.23      0.00
   -7    5   10     -1.05      0.00
   -7    5   11     -0.59      0.00
    7   -6    6      0.26      0.00
    7   -6    5     -1.07      0.00
    7   -6    4     -1.79      0.00
    7   -6    3     -1.57      0.00
    7   -6    2     -1.02      0.00
    7   -6    1     -1.04      0.00
   -7    6    0     -2.85      0.00
   -7    6    1     -2.87      0.00
   -7    6    2     -1.04      0.00
   -7    6    3     -0.69      0.00
   -7    6    4     -0.09      0.00
   -7    6    5      0.98      0.00
   -7    6    6      0.10      0.00
   -7    6    7      0.25      0.00
   -7    6    8      0.82      0.00
   -7    6    9      0.07      0.00
   -7    6   10     -0.58      0.00
    7   -7    6      1.60      0.00
    7   -7    5      0.21      0.00
    7   -7    4     -0.99      0.00
    7   -7    3      0.36      0.00
    7   -7    2      2.38      0.00
    7   -7    1      3.15      0.00
   -7    7    0      0.86      0.00
   -7    7    1     -1.48      0.00
   -7    7    2      0.13      0.00
   -7    7    3      2.68      0.00
   -7    7    4      1.91      0.00
   -7    7    5      0.40      0.00
   -7    7    6     -0.39      0.00
   -7    7    7     -0.08      0.00
   -7    7    8      0.21      0.00
   -7    7    9     -0.15      0.00
    7   -8    5      0.56      0.00
    7   -8    4     -1.43      0.00
    7   -8    3     -1.89      0.00
    7   -8    2     -0.38      0.00
    7   -8    1      2.20      0.00
   -7    8    0      2.33      0.00
   -7    8    1     -1.69      0.00
   -7    8    2     -2.50      0.00
   -7    8    3      1.63      0.00
   -7    8    4      2.18      0.00
   -7    8    5     -0.34      0.00
   -7    8    6     -1.61      0.00
   -7    8    7     -0.68      0.00
   -7    8    8      0.32      0.00
   -7    8    9      0.03      0.00
    7   -9    4      0.50      0.00
    7   -9    3     -0.31      0.00
    7   -9    2     -1.33      0.00
    7   -9    1     -0.49      0.00
   -7    9    0      2.17      0.00
   -7    9    1     -0.20      0.00
   -7    9    2     -2.96      0.00
   -7    9    3     -0.61      0.00
   -7    9    4      1.08      0.00
   -7    9    5      0.43      0.00
   -7    9    6     -0.91      0.00
   -7    9    7     -0.75      0.00
   -7    9    8      0.13      0.00
    7  -10    3      0.38      0.00
    7  -10    2      0.68      0.00
    7  -10    1     -0.89      0.00
   -7   10    0      0.92      0.00
   -7   10    1      1.35      0.00
   -7   10    3      0.01      0.00
   -7   10    4      0.35      0.00
   -7   10    5      1.20      0.00
   -7   10    6      0.32      0.00
    7  -11    1      0.32      0.00
   -7   11    0     -0.05      0.00
   -7   11    3      0.16      0.00
   -7   11    4     -0.57      0.00
   -6  -10    1     -0.30      0.00
   -6  -10    2     -0.58      0.00
   -6  -10    3      0.52      0.00
   -6  -10    4      0.83      0.00
   -6  -10    5     -0.50      0.00
   -6  -10    6      0.23      0.00
    6    9    0     -0.15      0.00
   -6   -9    1      0.60      0.00
   -6   -9    2     -0.01      0.00
   -6   -9    3     -0.62      0.00
   -6   -9    4      0.83      0.00
   -6   -9    5      0.50      0.00
   -6   -9    6      0.70      0.00
   -6   -9    7      0.13      0.00
   -6   -9    8     -0.58      0.00
    6    8    0     -0.34      0.00
   -6   -8    1      1.86      0.00
   -6   -8    2      1.82      0.00
   -6   -8    3     -1.25      0.00
   -6   -8    4     -1.15      0.00
   -6   -8    5     -0.70      0.00
   -6   -8    6      0.22      0.00
   -6   -8    7      0.60      0.00
   -6   -8    8     -0.10      0.00
   -6   -8    9     -0.40      0.00
    6    7    4     -1.09      0.00
    6    7    3     -0.12      0.00
   -6   -7    1      1.05      0.00
   -6   -7    2      2.16      0.00
   -6   -7    3      0.66      0.00
   -6   -7    4      1.00      0.00
   -6   -7    5      0.30      0.00
   -6   -7    6      0.05      0.00
   -6   -7    7      1.14      0.00
   -6   -7    8      0.95      0.00
   -6   -7    9     -0.56      0.00
   -6   -7   10     -1.03      0.00
    6    6    5     -0.49      0.00
    6    6    4     -0.88      0.00
    6    6    3     -0.83      0.00
    6    6    2     -0.35      0.00
   -6   -6    1      0.89      0.00
   -6   -6    2      0.29      0.00
   -6   -6    3     -0.68      0.00
   -6   -6    4      0.72      0.00
   -6   -6    5      0.16      0.00
   -6   -6    6     -1.26      0.00
   -6   -6    7     -0.10      0.00
   -6   -6    8      1.44      0.00
   -6   -6    9      0.67      0.00
   -6   -6   10     -1.12      0.00
   -6   -6   11     -1.31      0.00
    6    5    6      0.46      0.00
    6    5    5     -0.57      0.00
    6    5    4     -0.58      0.00
    6    5    3     -0.12      0.00
    6    5    2     -0.13      0.00
    6    5    1     -0.10      0.00
    6    5    0      0.84      0.00
   -6   -5    1      0.93      0.00
   -6   -5    2      0.25      0.00
   -6   -5    3     -1.13      0.00
   -6   -5    4     -1.03      0.00
   -6   -5    5     -0.25      0.00
   -6   -5    6     -0.52      0.00
   -6   -5    7     -0.94      0.00
   -6   -5    8      0.07      0.00
   -6   -5    9      0.99      0.00
   -6   -5   10     -0.19      0.00
   -6   -5   11     -1.60      0.00
    6    4    6      1.41      0.00
    6    4    5      0.57      0.00
    6    4    4     -0.63      0.00
    6    4    3     -0.12      0.00
    6    4    2      1.36      0.00
    6    4    1      2.05      0.00
    6    4    0      1.65      0.00
   -6   -4    1     -0.56      0.00
   -6   -4    2      0.17      0.00
   -6   -4    3      1.39      0.00
   -6   -4    4     -0.57      0.00
   -6   -4    5     -0.66      0.00
   -6   -4    6      1.31      0.00
   -6   -4    7      0.38      0.00
   -6   -4    8     -0.93      0.00
   -6   -4    9      0.02      0.00
   -6   -4   10      0.09      0.00
   -6   -4   11     -1.09      0.00
   -6   -4   12     -0.94      0.00
    6    3    7     -1.00      0.00
    6    3    6      0.10      0.00
    6    3    5      1.02      0.00
    6    3    4     -0.57      0.00
    6    3    3     -2.66      0.00
    6    3    2     -2.09      0.00
    6    3    1      1.47      0.00
    6    3    0      2.43      0.00
   -6   -3    1     -2.99      0.00
   -6   -3    2     -3.82      0.00
   -6   -3    3      0.53      0.00
   -6   -3    4      0.51      0.00
   -6   -3    5     -0.87      0.00
   -6   -3    6      0.80      0.00
   -6   -3    7      1.05      0.00
   -6   -3    8     -0.40      0.00
   -6   -3    9     -0.07      0.00
   -6   -3   10      0.53      0.00
   -6   -3   11     -0.19      0.00
   -6   -3   12     -0.39      0.00
    6    2    7     -0.98      0.00
    6    2    6     -1.03      0.00
    6    2    5      0.94      0.00
    6    2    4      1.25      0.00
    6    2    3     -1.06      0.00
    6    2    2     -2.86      0.00
    6    2    1      1.09      0.00
    6    2    0      4.32      0.00
   -6   -2    1      0.17      0.00
   -6   -2    2     -1.93      0.00
   -6   -2    3      0.36      0.00
   -6   -2    4      1.66      0.00
   -6   -2    5      1.40      0.00
   -6   -2    6      0.97      0.00
   -6   -2    7      0.36      0.00
   -6   -2    8     -0.43      0.00
   -6   -2    9     -0.50      0.00
   -6   -2   10      0.10      0.00
   -6   -2   11     -0.09      0.00
   -6   -2   12     -0.27      0.00
    6    1    8      1.10      0.00
    6    1    7      0.04      0.00
    6    1    6     -0.11      0.00
    6    1    5      1.31      0.00
    6    1    4      1.48      0.00
    6    1    3      0.82      0.00
    6    1    2     -0.11      0.00
    6    1    1      2.44      0.00
    6    1    0      3.21      0.00
   -6   -1    1      0.57      0.00
   -6   -1    2      1.68      0.00
   -6   -1    3      1.85      0.00
   -6   -1    4      0.10      0.00
   -6   -1    5      0.30      0.00
   -6   -1    6      0.65      0.00
   -6   -1    7      0.25      0.00
   -6   -1    8     -0.25      0.00
   -6   -1    9     -0.86      0.00
   -6   -1   10     -0.48      0.00
   -6   -1   11     -0.30      0.00
    6    0    8     -0.53      0.00
    6    0    7     -1.86      0.00
    6    0    6     -1.23      0.00
    6    0    5      0.64      0.00
    6    0    4     -0.90      0.00
    6    0    3     -2.34      0.00
    6    0    2     -1.55      0.00
    6    0    1      2.38      0.00
    6    0    0      1.74      0.00
   -6    0    1     -3.11      0.00
   -6    0    2     -1.50      0.00
   -6    0    3      1.14      0.00
   -6    0    4      0.49      0.00
   -6    0    5     -0.42      0.00
   -6    0    6     -0.70      0.00
   -6    0    7      0.31      0.00
   -6    0    8      1.17      0.00
   -6    0    9     -0.25      0.00
   -6    0   10     -0.67      0.00
    6   -1    8      0.19      0.00
    6   -1    7     -1.04      0.00
    6   -1    6     -0.78      0.00
    6   -1    5      2.01      0.00
    6   -1    4      1.35      0.00
    6   -1    3     -0.97      0.00
    6   -1    2     -2.46      0.00
    6   -1    1      0.59      0.00
   -6    1    0      3.16      0.00
   -6    1    1     -0.95      0.00
   -6    1    2     -3.90      0.00
   -6    1    3     -2.07      0.00
   -6    1    4      2.15      0.00
   -6    1    6     -0.40      0.00
   -6    1    7     -1.55      0.00
   -6    1    8      0.65      0.00
   -6    1    9     -0.13      0.00
   -6    1   10     -1.52      0.00
   -6    1   11     -0.36      0.00
    6   -2    8      1.49      0.00
    6   -2    7      0.85      0.00
    6   -2    6     -0.33      0.00
    6   -2    5      0.94      0.00
    6   -2    4      1.80      0.00
    6   -2    3      2.31      0.00
    6   -2    2     -0.06      0.00
    6   -2    1     -1.05      0.00
   -6    2    0      3.33      0.00
   -6    2    1      4.37      0.00
   -6    2    2      0.25      0.00
   -6    2    3     -2.74      0.00
   -6    2    4      0.34      0.00
   -6    2    5      3.84      0.00
   -6    2    6      1.48      0.00
   -6    2    7     -1.62      0.00
   -6    2    8     -0.76      0.00
   -6    2    9     -0.67      0.00
   -6    2   10     -0.76      0.00
   -6    2   11      0.64      0.00
   -6    2   12      0.55      0.00
    6   -3    8      0.02      0.00
    6   -3    7      0.14      0.00
    6   -3    6     -1.07      0.00
    6   -3    5     -1.99      0.00
    6   -3    4     -2.57      0.00
    6   -3    3     -0.50      0.00
    6   -3    2     -0.86      0.00
    6   -3    1     -4.29      0.00
   -6    3    0     -2.68      0.00
   -6    3    1      0.48      0.00
   -6    3    2      0.74      0.00
   -6    3    3     -0.80      0.00
   -6    3    4     -1.41      0.00
   -6    3    5     -0.94      0.00
   -6    3    6     -0.61      0.00
   -6    3    7     -1.09      0.00
   -6    3    8     -1.35      0.00
   -6    3    9     -2.06      0.00
   -6    3   10     -0.94      0.00
   -6    3   11      1.40      0.00
   -6    3   12      1.03      0.00
    6   -4    8     -0.84      0.00
    6   -4    7     -0.20      0.00
    6   -4    6     -0.76      0.00
    6   -4    5     -1.82      0.00
    6   -4    4     -2.15      0.00
    6   -4    3      0.66      0.00
    6   -4    2      2.87      0.00
    6   -4    1      0.80      0.00
   -6    4    0     -0.26      0.00
   -6    4    1     -1.08      0.00
   -6    4    2     -1.99      0.00
   -6    4    3     -0.44      0.00
   -6    4    4      0.29      0.00
   -6    4    5     -1.89      0.00
   -6    4    6     -1.28      0.00
   -6    4    7      1.02      0.00
   -6    4    8      1.21      0.00
   -6    4    9      0.01      0.00
   -6    4   10      0.54      0.00
   -6    4   11      2.09      0.00
    6   -5    8     -0.35      0.00
    6   -5    7      1.55      0.00
    6   -5    6      1.59      0.00
    6   -5    5      0.19      0.00
    6   -5    4      0.73      0.00
    6   -5    3      3.57      0.00
    6   -5    2      5.26      0.00
    6   -5    1      2.81      0.00
   -6    5    0      1.48      0.00
   -6    5    1      0.91      0.00
   -6    5    2     -1.47      0.00
   -6    5    3     -1.05      0.00
   -6    5    4      1.08      0.00
   -6    5    5     -0.54      0.00
   -6    5    6     -0.81      0.00
   -6    5    7      1.02      0.00
   -6    5    8      1.08      0.00
   -6    5    9     -0.02      0.00
   -6    5   10     -0.64      0.00
   -6    5   11     -0.71      0.00
    6   -6    7      1.15      0.00
    6   -6    6      1.05      0.00
    6   -6    5     -2.01      0.00
    6   -6    4     -3.19      0.00
    6   -6    3     -1.51      0.00
    6   -6    2      0.88      0.00
    6   -6    1     -1.33      0.00
   -6    6    0     -4.06      0.00
   -6    6    1     -2.36      0.00
   -6    6    2     -0.44      0.00
   -6    6    3      0.02      0.00
   -6    6    4      0.71      0.00
   -6    6    5      0.27      0.00
   -6    6    6      0.71      0.00
   -6    6    7      1.41      0.00
   -6    6    8      0.61      0.00
   -6    6    9     -0.27      0.00
   -6    6   10     -0.69      0.00
    6   -7    7      0.73      0.00
    6   -7    6      1.62      0.00
    6   -7    5     -0.08      0.00
    6   -7    4     -1.55      0.00
    6   -7    3     -1.46      0.00
    6   -7    2      2.20      0.00
    6   -7    1      3.00      0.00
   -6    7    0     -1.79      0.00
   -6    7    1     -3.63      0.00
   -6    7    2      0.21      0.00
   -6    7    3      2.73      0.00
   -6    7    4      1.57      0.00
   -6    7    5     -0.25      0.00
   -6    7    6      0.01      0.00
   -6    7    7      0.67      0.00
   -6    7    8      0.15      0.00
   -6    7    9     -0.30      0.00
   -6    7   10     -0.23      0.00
    6   -8    6      0.83      0.00
    6   -8    5      0.39      0.00
    6   -8    4     -0.38      0.00
    6   -8    3     -1.93      0.00
    6   -8    2      0.20      0.00
    6   -8    1      4.00      0.00
   -6    8    0      1.50      0.00
   -6    8    1     -2.77      0.00
   -6    8    2     -0.95      0.00
   -6    8    3      1.86      0.00
   -6    8    4      1.36      0.00
   -6    8    5     -0.44      0.00
   -6    8    6     -0.93      0.00
   -6    8    7     -0.44      0.00
   -6    8    8     -0.25      0.00
   -6    8    9     -0.38      0.00
    6   -9    5      0.74      0.00
    6   -9    4      0.89      0.00
    6   -9    3     -0.37      0.00
    6   -9    2     -1.42      0.00
    6   -9    1      1.35      0.00
   -6    9    0      1.43      0.00
   -6    9    1     -1.59      0.00
   -6    9    2     -1.31      0.00
   -6    9    3     -0.11      0.00
   -6    9    4      0.73      0.00
   -6    9    5      0.73      0.00
   -6    9    6      0.12      0.00
   -6    9    7     -0.17      0.00
   -6    9    8      0.01      0.00
    6  -10    4     -0.36      0.00
    6  -10    3      0.89      0.00
    6  -10    2     -0.57      0.00
    6  -10    1     -0.25      0.00
   -6   10    0      0.32      0.00
   -6   10    1     -0.30      0.00
   -6   10    2      0.06      0.00
   -6   10    3     -0.41      0.00
   -6   10    4      0.28      0.00
   -6   10    5      0.55      0.00
   -6   10    6     -0.01      0.00
   -6   10    7     -0.22      0.00
    6  -11    3      0.15      0.00
    6  -11    2      0.58      0.00
    6  -11    1      0.49      0.00
   -6   11    0      0.14      0.00
   -6   11    1     -0.01      0.00
   -6   11    2      0.36      0.00
   -6   11    3     -0.18      0.00
   -6   11    4      0.81      0.00
   -6   11    5      0.71      0.00
   -5  -11    3      0.28      0.00
   -5  -11    4     -0.84      0.00
    5   10    0      0.45      0.00
   -5  -10    1      0.30      0.00
   -5  -10    2     -0.01      0.00
   -5  -10    3     -0.11      0.00
   -5  -10    4     -1.06      0.00
   -5  -10    5     -0.46      0.00
   -5  -10    6     -0.47      0.00
   -5  -10    7     -0.70      0.00
   -5   -9    1      0.49      0.00
   -5   -9    2     -0.20      0.00
   -5   -9    3     -0.35      0.00
   -5   -9    4     -0.53      0.00
   -5   -9    5      0.49      0.00
   -5   -9    6      1.07      0.00
   -5   -9    7      0.00      0.00
   -5   -9    8     -0.26      0.00
   -5   -9    9     -0.19      0.00
   -5   -8    1      0.33      0.00
   -5   -8    2      0.11      0.00
   -5   -8    3      0.30      0.00
   -5   -8    4     -1.03      0.00
   -5   -8    5     -1.57      0.00
   -5   -8    6      0.47      0.00
   -5   -8    7      1.30      0.00
   -5   -8    8      0.22      0.00
   -5   -8    9     -0.97      0.00
   -5   -8   10     -0.13      0.00
    5    7    5      0.37      0.00
    5    7    4      0.18      0.00
   -5   -7    1      0.01      0.00
   -5   -7    2     -0.01      0.00
   -5   -7    3      2.83      0.00
   -5   -7    4      2.29      0.00
   -5   -7    5     -1.80      0.00
   -5   -7    6     -1.81      0.00
   -5   -7    7      1.12      0.00
   -5   -7    8      1.75      0.00
   -5   -7    9     -0.39      0.00
   -5   -7   10     -0.71      0.00
   -5   -7   11     -0.15      0.00
    5    6    6      0.51      0.00
    5    6    5      0.08      0.00
    5    6    4     -0.11      0.00
    5    6    3     -0.15      0.00
    5    6    2     -0.69      0.00
   -5   -6    1      0.66      0.00
   -5   -6    2     -0.80      0.00
   -5   -6    3      0.85      0.00
   -5   -6    4      2.47      0.00
   -5   -6    5     -0.21      0.00
   -5   -6    6     -2.59      0.00
   -5   -6    7     -0.90      0.00
   -5   -6    8      1.74      0.00
   -5   -6    9      0.90      0.00
   -5   -6   10     -0.94      0.00
   -5   -6   11     -0.89      0.00
    5    5    7      0.29      0.00
    5    5    6      0.44      0.00
    5    5    5     -0.30      0.00
    5    5    4     -1.08      0.00
    5    5    3     -0.59      0.00
    5    5    2     -0.27      0.00
    5    5    1     -0.06      0.00
   -5   -5    1     -0.17      0.00
   -5   -5    2      0.49      0.00
   -5   -5    3     -0.89      0.00
   -5   -5    4     -0.97      0.00
   -5   -5    5      0.04      0.00
   -5   -5    6     -1.02      0.00
   -5   -5    7     -1.48      0.00
   -5   -5    8      0.91      0.00
   -5   -5    9      1.91      0.00
   -5   -5   10      0.14      0.00
   -5   -5   11     -1.25      0.00
   -5   -5   12     -0.28      0.00
    5    4    7      0.46      0.00
    5    4    6      1.49      0.00
    5    4    5      1.34      0.00
    5    4    4     -0.56      0.00
    5    4    3     -0.56      0.00
    5    4    2      2.02      0.00
    5    4    1      4.17      0.00
    5    4    0      0.58      0.00
   -5   -4    1     -1.78      0.00
   -5   -4    2      1.50      0.00
   -5   -4    3      1.00      0.00
   -5   -4    4     -1.35      0.00
   -5   -4    5     -0.19      0.00
   -5   -4    6     -0.26      0.00
   -5   -4    7     -1.61      0.00
   -5   -4    8     -0.18      0.00
   -5   -4    9      0.98      0.00
   -5   -4   10     -0.13      0.00
   -5   -4   11     -0.98      0.00
   -5   -4   12     -0.38      0.00
    5    3    8      0.09      0.00
    5    3    7     -0.65      0.00
    5    3    6      0.34      0.00
    5    3    5      1.48      0.00
    5    3    4     -0.21      0.00
    5    3    3     -2.41      0.00
    5    3    2     -0.32      0.00
    5    3    1      3.78      0.00
    5    3    0      0.04      0.00
   -5   -3    1     -4.41      0.00
   -5   -3    2     -1.94      0.00
   -5   -3    3     -0.47      0.00
   -5   -3    4     -0.59      0.00
   -5   -3    5      0.81      0.00
   -5   -3    6      0.18      0.00
   -5   -3    7     -1.76      0.00
   -5   -3    8     -0.39      0.00
   -5   -3    9      1.50      0.00
   -5   -3   10      0.53      0.00
   -5   -3   11     -0.45      0.00
   -5   -3   12      0.01      0.00
    5    2    8     -0.61      0.00
    5    2    7     -1.45      0.00
    5    2    6     -0.54      0.00
    5    2    5      0.61      0.00
    5    2    4      0.17      0.00
    5    2    3     -1.98      0.00
    5    2    2     -1.04      0.00
    5    2    1      1.27      0.00
    5    2    0     -2.26      0.00
   -5   -2    1     -3.40      0.00
   -5   -2    2     -1.15      0.00
   -5   -2    3     -1.72      0.00
   -5   -2    4     -1.07      0.00
   -5   -2    5      1.78      0.00
   -5   -2    6      2.25      0.00
   -5   -2    7      0.03      0.00
   -5   -2    8     -0.52      0.00
   -5   -2    9      1.24      0.00
   -5   -2   10      1.22      0.00
   -5   -2   11     -0.14      0.00
   -5   -2   12     -0.08      0.00
    5    1    9      1.01      0.00
    5    1    8      0.17      0.00
    5    1    7      0.16      0.00
    5    1    6      1.97      0.00
    5    1    5      1.56      0.00
    5    1    4      0.05      0.00
    5    1    3     -0.85      0.00
    5    1    2      1.89      0.00
    5    1    1      2.66      0.00
    5    1    0     -3.42      0.00
   -5   -1    1     -3.46      0.00
   -5   -1    2      0.42      0.00
   -5   -1    3     -0.14      0.00
   -5   -1    4     -1.38      0.00
   -5   -1    5     -0.53      0.00
   -5   -1    6      1.11      0.00
   -5   -1    7      0.98      0.00
   -5   -1    8     -1.16      0.00
   -5   -1    9     -1.20      0.00
   -5   -1   10      0.10      0.00
   -5   -1   11     -0.22      0.00
    5    0    9      0.04      0.00
    5    0    8     -1.62      0.00
    5    0    7     -1.61      0.00
    5    0    6      1.86      0.00
    5    0    5      2.14      0.00
    5    0    4     -0.34      0.00
    5    0    3     -2.20      0.00
    5    0    2      0.95      0.00
    5    0    1      4.51      0.00
    5    0    0      0.85      0.00
   -5    0    1     -2.30      0.00
   -5    0    2     -1.96      0.00
   -5    0    3      0.97      0.00
   -5    0    4      2.69      0.00
   -5    0    5      0.47      0.00
   -5    0    6     -0.33      0.00
   -5    0    7      1.77      0.00
   -5    0    8      0.98      0.00
   -5    0    9     -0.88      0.00
   -5    0   10     -0.02      0.00
   -5    0   11      0.32      0.00
    5   -1    9     -0.27      0.00
    5   -1    8     -1.54      0.00
    5   -1    7     -2.19      0.00
    5   -1    6      0.60      0.00
    5   -1    5      2.03      0.00
    5   -1    4      0.96      0.00
    5   -1    3     -2.46      0.00
    5   -1    2     -4.60      0.00
    5   -1    1     -1.82      0.00
   -5    1    0      0.82      0.00
   -5    1    1     -0.56      0.00
   -5    1    2     -5.21      0.00
   -5    1    3     -2.99      0.00
   -5    1    4      3.22      0.00
   -5    1    5      2.80      0.00
   -5    1    6     -0.34      0.00
   -5    1    7      0.60      0.00
   -5    1    8      0.92      0.00
   -5    1    9     -0.94      0.00
   -5    1   10     -0.49      0.00
   -5    1   11      0.17      0.00
   -5    1   12     -0.11      0.00
    5   -2    9      0.68      0.00
    5   -2    8      0.87      0.00
    5   -2    7      0.56      0.00
    5   -2    6      1.34      0.00
    5   -2    5      2.06      0.00
    5   -2    4      3.85      0.00
    5   -2    3      3.87      0.00
    5   -2    2      0.03      0.00
    5   -2    1     -1.00      0.00
   -5    2    0      1.43      0.00
   -5    2    1      3.46      0.00
   -5    2    2      0.88      0.00
   -5    2    3     -0.14      0.00
   -5    2    4      2.67      0.00
   -5    2    5      3.65      0.00
   -5    2    6      2.08      0.00
   -5    2    7      0.80      0.00
   -5    2    8     -1.27      0.00
   -5    2    9     -2.90      0.00
   -5    2   10     -0.89      0.00
   -5    2   11      0.28      0.00
   -5    2   12     -0.15      0.00
    5   -3    9      0.18      0.00
    5   -3    8      1.04      0.00
    5   -3    7      1.07      0.00
    5   -3    6      0.33      0.00
    5   -3    5     -1.00      0.00
    5   -3    4     -0.33      0.00
    5   -3    3      0.87      0.00
    5   -3    2     -1.01      0.00
    5   -3    1     -0.99      0.00
   -5    3    0     -0.44      0.00
   -5    3    1      1.32      0.00
   -5    3    2      4.12      0.00
   -5    3    3      3.94      0.00
   -5    3    4     -0.33      0.00
   -5    3    5     -3.39      0.00
   -5    3    6     -2.38      0.00
   -5    3    7     -0.99      0.00
   -5    3    8     -2.49      0.00
   -5    3    9     -4.01      0.00
   -5    3   10     -1.40      0.00
   -5    3   11      0.82      0.00
   -5    3   12      0.68      0.00
    5   -4    9     -1.82      0.00
    5   -4    8     -0.44      0.00
    5   -4    7     -0.26      0.00
    5   -4    6     -2.39      0.00
    5   -4    5     -3.55      0.00
    5   -4    4     -2.25      0.00
    5   -4    3     -0.96      0.00
    5   -4    2     -2.42      0.00
    5   -4    1     -0.66      0.00
   -5    4    0      0.05      0.00
   -5    4    1     -2.05      0.00
   -5    4    2     -0.22      0.00
   -5    4    3      2.73      0.00
   -5    4    4     -0.23      0.00
   -5    4    5     -3.50      0.00
   -5    4    6     -1.79      0.00
   -5    4    7      0.94      0.00
   -5    4    8      1.94      0.00
   -5    4    9      1.22      0.00
   -5    4   10      1.30      0.00
   -5    4   11      2.02      0.00
   -5    4   12      2.17      0.00
    5   -5    8      1.02      0.00
    5   -5    7      3.27      0.00
    5   -5    6      0.71      0.00
    5   -5    5     -0.89      0.00
    5   -5    4      1.76      0.00
    5   -5    3      5.23      0.00
    5   -5    2      3.19      0.00
    5   -5    1      1.15      0.00
   -5    5    0      1.33      0.00
   -5    5    1     -0.69      0.00
   -5    5    2     -2.03      0.00
   -5    5    3     -0.90      0.00
   -5    5    4     -1.84      0.00
   -5    5    5     -2.12      0.00
   -5    5    6     -0.18      0.00
   -5    5    7      0.45      0.00
   -5    5    8      0.90      0.00
   -5    5    9      0.77      0.00
   -5    5   10     -0.43      0.00
   -5    5   11     -1.04      0.00
    5   -6    8     -0.03      0.00
    5   -6    7      2.50      0.00
    5   -6    6      0.95      0.00
    5   -6    5     -2.32      0.00
    5   -6    4     -3.26      0.00
    5   -6    3      1.21      0.00
    5   -6    2      3.28      0.00
    5   -6    1     -0.84      0.00
   -5    6    0     -3.45      0.00
   -5    6    1     -1.99      0.00
   -5    6    2      0.12      0.00
   -5    6    3      0.51      0.00
   -5    6    4     -1.28      0.00
   -5    6    5     -0.84      0.00
   -5    6    6      1.35      0.00
   -5    6    7      1.11      0.00
   -5    6    8      0.17      0.00
   -5    6    9     -0.47      0.00
   -5    6   10     -0.68      0.00
   -5    6   11     -0.43      0.00
    5   -7    8     -0.64      0.00
    5   -7    7      0.69      0.00
    5   -7    6      1.05      0.00
    5   -7    5     -0.05      0.00
    5   -7    4     -3.70      0.00
    5   -7    3     -2.35      0.00
    5   -7    2      2.92      0.00
    5   -7    1      1.54      0.00
   -5    7    0     -3.38      0.00
   -5    7    1     -3.18      0.00
   -5    7    2      0.72      0.00
   -5    7    3      2.52      0.00
   -5    7    4      0.97      0.00
   -5    7    5      0.12      0.00
   -5    7    6      0.88      0.00
   -5    7    7      1.21      0.00
   -5    7    8      0.91      0.00
   -5    7    9     -0.22      0.00
   -5    7   10     -0.32      0.00
    5   -8    7     -0.15      0.00
    5   -8    6     -0.05      0.00
    5   -8    5      0.86      0.00
    5   -8    4     -1.14      0.00
    5   -8    3     -2.31      0.00
    5   -8    2      1.22      0.00
    5   -8    1      2.05      0.00
   -5    8    0     -0.92      0.00
   -5    8    1     -1.48      0.00
   -5    8    2     -0.45      0.00
   -5    8    3      0.04      0.00
   -5    8    4      0.24      0.00
   -5    8    5     -0.10      0.00
   -5    8    6     -0.85      0.00
   -5    8    7     -0.80      0.00
   -5    8    8      0.16      0.00
   -5    8    9     -0.35      0.00
    5   -9    6      0.54      0.00
    5   -9    5      0.10      0.00
    5   -9    4     -0.24      0.00
    5   -9    3     -0.90      0.00
    5   -9    2      0.89      0.00
    5   -9    1      1.28      0.00
   -5    9    0     -0.78      0.00
   -5    9    1     -0.04      0.00
   -5    9    2      0.35      0.00
   -5    9    3     -0.25      0.00
   -5    9    4      0.68      0.00
   -5    9    5      1.19      0.00
   -5    9    6      0.22      0.00
   -5    9    7     -0.79      0.00
   -5    9    8      0.09      0.00
    5  -10    5     -0.31      0.00
    5  -10    4     -0.16      0.00
    5  -10    3     -0.51      0.00
    5  -10    2      0.18      0.00
    5  -10    1      0.72      0.00
   -5   10    0     -1.01      0.00
   -5   10    1     -0.62      0.00
   -5   10    2     -0.02      0.00
   -5   10    3      0.17      0.00
   -5   10    4      0.49      0.00
   -5   10    5      0.16      0.00
   -5   10    6      0.38      0.00
   -5   10    7     -0.04      0.00
    5  -11    4      0.35      0.00
    5  -11    3      0.36      0.00
    5  -11    2      0.07      0.00
    5  -11    1      0.65      0.00
   -5   11    0      0.18      0.00
   -5   11    1     -0.32      0.00
   -5   11    2     -0.83      0.00
   -5   11    3      0.47      0.00
   -5   11    4      1.07      0.00
   -5   11    5     -0.36      0.00
    5  -12    2     -0.59      0.00
    5  -12    1     -0.38      0.00
   -5   12    0      0.31      0.00
   -5   12    1      0.47      0.00
   -5   12    2     -0.55      0.00
   -5   12    3      0.27      0.00
   -4  -11    1      0.50      0.00
   -4  -11    2      0.29      0.00
   -4  -11    3     -0.55      0.00
   -4  -11    4     -0.12      0.00
   -4  -11    5     -0.71      0.00
   -4  -11    6     -1.11      0.00
   -4  -10    1      1.19      0.00
   -4  -10    2      0.31      0.00
   -4  -10    3     -1.20      0.00
   -4  -10    4     -0.67      0.00
   -4  -10    5     -0.29      0.00
   -4  -10    6     -1.05      0.00
   -4  -10    7     -0.33      0.00
   -4  -10    8      0.12      0.00
   -4   -9    1      0.96      0.00
   -4   -9    2      1.22      0.00
   -4   -9    3     -0.83      0.00
   -4   -9    4     -1.95      0.00
   -4   -9    5     -0.47      0.00
   -4   -9    6      0.22      0.00
   -4   -9    7      0.33      0.00
   -4   -9    8     -0.11      0.00
   -4   -9    9      0.63      0.00
   -4   -8    1     -1.89      0.00
   -4   -8    2      1.42      0.00
   -4   -8    3      1.62      0.00
   -4   -8    4     -2.40      0.00
   -4   -8    5     -2.40      0.00
   -4   -8    6      0.77      0.00
   -4   -8    7      2.24      0.00
   -4   -8    8      0.36      0.00
   -4   -8    9     -0.33      0.00
   -4   -8   10      0.03      0.00
    4    7    6     -0.01      0.00
    4    7    5     -0.03      0.00
    4    7    4      0.32      0.00
   -4   -7    2      0.05      0.00
   -4   -7    3      4.03      0.00
   -4   -7    4      0.70      0.00
   -4   -7    5     -2.85      0.00
   -4   -7    6     -0.83      0.00
   -4   -7    7      2.89      0.00
   -4   -7    8      2.27      0.00
   -4   -7    9     -0.15      0.00
   -4   -7   10     -1.40      0.00
   -4   -7   11     -1.23      0.00
    4    6    7      0.77      0.00
    4    6    6      0.81      0.00
    4    6    5      0.31      0.00
    4    6    4      0.73      0.00
    4    6    3     -0.30      0.00
    4    6    2     -1.26      0.00
   -4   -6    2     -0.54      0.00
   -4   -6    3      2.04      0.00
   -4   -6    4      2.42      0.00
   -4   -6    5     -0.72      0.00
   -4   -6    6     -2.39      0.00
   -4   -6    7      0.13      0.00
   -4   -6    8      1.84      0.00
   -4   -6    9      0.48      0.00
   -4   -6   10     -1.59      0.00
   -4   -6   11     -1.39      0.00
    4    5    8     -1.02      0.00
    4    5    7      0.05      0.00
    4    5    6      1.05      0.00
    4    5    5     -0.44      0.00
    4    5    4     -1.42      0.00
    4    5    3     -1.02      0.00
    4    5    2     -0.67      0.00
    4    5    1     -2.33      0.00
   -4   -5    2      1.67      0.00
   -4   -5    3      1.00      0.00
   -4   -5    4      1.99      0.00
   -4   -5    5      0.94      0.00
   -4   -5    6     -1.59      0.00
   -4   -5    7     -0.41      0.00
   -4   -5    8      1.75      0.00
   -4   -5    9      1.63      0.00
   -4   -5   10      0.10      0.00
   -4   -5   11     -0.59      0.00
   -4   -5   12     -0.09      0.00
    4    4    8     -0.40      0.00
    4    4    7     -0.16      0.00
    4    4    6      2.02      0.00
    4    4    5      1.13      0.00
    4    4    4     -1.52      0.00
    4    4    3     -1.47      0.00
    4    4    2      1.82      0.00
    4    4    1      1.25      0.00
    4    4    0     -2.25      0.00
   -4   -4    1      0.60      0.00
   -4   -4    2      3.08      0.00
   -4   -4    3      1.79      0.00
   -4   -4    4      2.38      0.00
   -4   -4    5      0.57      0.00
   -4   -4    6     -3.05      0.00
   -4   -4    7     -1.33      0.00
   -4   -4    8      1.55      0.00
   -4   -4    9      0.62      0.00
   -4   -4   10     -0.52      0.00
   -4   -4   11     -0.29      0.00
   -4   -4   12     -0.25      0.00
    4    3    9      0.80      0.00
    4    3    8      0.44      0.00
    4    3    7      0.11      0.00
    4    3    6      1.58      0.00
    4    3    5      1.33      0.00
    4    3    4     -0.99      0.00
    4    3    3     -1.38      0.00
    4    3    2      1.87      0.00
    4    3    1      1.09      0.00
    4    3    0     -0.94      0.00
   -4   -3    1      2.23      0.00
   -4   -3    2      1.76      0.00
   -4   -3    3     -0.88      0.00
   -4   -3    4      1.39      0.00
   -4   -3    5      1.30      0.00
   -4   -3    6     -3.41      0.00
   -4   -3    7     -3.46      0.00
   -4   -3    8      0.80      0.00
   -4   -3    9      1.01      0.00
   -4   -3   10     -0.99      0.00
   -4   -3   11     -0.81      0.00
   -4   -3   12     -0.31      0.00
    4    2    9     -0.80      0.00
    4    2    8     -1.15      0.00
    4    2    7     -0.41      0.00
    4    2    6      0.39      0.00
    4    2    5     -0.59      0.00
    4    2    4     -2.21      0.00
    4    2    3     -0.58      0.00
    4    2    2      2.92      0.00
    4    2    1     -1.20      0.00
    4    2    0     -2.90      0.00
   -4   -2    1      3.59      0.00
   -4   -2    2      3.98      0.00
   -4   -2    3     -0.77      0.00
   -4   -2    4     -0.49      0.00
   -4   -2    5      2.29      0.00
   -4   -2    6      1.43      0.00
   -4   -2    7     -0.74      0.00
   -4   -2    8      0.68      0.00
   -4   -2    9      2.19      0.00
   -4   -2   10      0.64      0.00
   -4   -2   11     -0.48      0.00
   -4   -2   12     -0.21      0.00
    4    1    9     -0.11      0.00
    4    1    8     -0.86      0.00
    4    1    7      0.81      0.00
    4    1    6      1.36      0.00
    4    1    5     -0.88      0.00
    4    1    4     -3.90      0.00
    4    1    3     -2.34      0.00
    4    1    2      3.06      0.00
    4    1    1     -0.19      0.00
    4    1    0     -5.14      0.00
   -4   -1    1     -3.52      0.00
   -4   -1    2     -0.37      0.00
   -4   -1    3     -0.32      0.00
   -4   -1    4     -2.17      0.00
   -4   -1    5     -1.13      0.00
   -4   -1    6      1.49      0.00
   -4   -1    7      0.86      0.00
   -4   -1    8     -0.74      0.00
   -4   -1    9      0.33      0.00
   -4   -1   10      0.72      0.00
   -4   -1   11     -0.01      0.00
    4    0   10      0.67      0.00
    4    0    9     -0.25      0.00
    4    0    8     -0.90      0.00
    4    0    7      1.16      0.00
    4    0    6      2.23      0.00
    4    0    5      1.56      0.00
    4    0    4     -0.15      0.00
    4    0    3     -0.69      0.00
    4    0    2      3.32      0.00
    4    0    1      6.09      0.00
    4    0    0      3.96      0.00
   -4    0    1     -3.89      0.00
   -4    0    2     -5.19      0.00
   -4    0    3      0.28      0.00
   -4    0    4      0.88      0.00
   -4    0    5     -0.04      0.00
   -4    0    6      1.30      0.00
   -4    0    7      1.32      0.00
   -4    0    8     -1.00      0.00
   -4    0    9     -0.71      0.00
   -4    0   10      0.28      0.00
   -4    0   11     -0.15      0.00
   -4    0   12     -0.47      0.00
    4   -1   10      0.06      0.00
    4   -1    9     -0.96      0.00
    4   -1    8     -1.59      0.00
    4   -1    7     -0.50      0.00
    4   -1    6     -0.40      0.00
    4   -1    5     -0.58      0.00
    4   -1    4     -0.43      0.00
    4   -1    3     -2.69      0.00
    4   -1    2     -4.70      0.00
    4   -1    1     -2.85      0.00
   -4    1    0      1.30      0.00
   -4    1    1     -3.70      0.00
   -4    1    2     -7.26      0.00
   -4    1    3     -2.94      0.00
   -4    1    4     -0.77      0.00
   -4    1    5      1.46      0.00
   -4    1    6      3.98      0.00
   -4    1    7      3.17      0.00
   -4    1    8     -0.16      0.00
   -4    1    9     -0.02      0.00
   -4    1   10      1.09      0.00
   -4    1   11      0.32      0.00
   -4    1   12     -0.33      0.00
    4   -2   10     -0.12      0.00
    4   -2    9     -0.32      0.00
    4   -2    8      0.34      0.00
    4   -2    7      1.26      0.00
    4   -2    6      0.87      0.00
    4   -2    5      0.49      0.00
    4   -2    4      1.32      0.00
    4   -2    3      0.11      0.00
    4   -2    2     -2.15      0.00
    4   -2    1     -5.40      0.00
   -4    2    0     -4.62      0.00
   -4    2    1     -2.43      0.00
   -4    2    2      0.75      0.00
   -4    2    3      3.62      0.00
   -4    2    4      2.11      0.00
   -4    2    5      3.95      0.00
   -4    2    6      7.42      0.00
   -4    2    7      4.89      0.00
   -4    2    8     -1.74      0.00
   -4    2    9     -2.88      0.00
   -4    2   10     -0.43      0.00
   -4    2   11      0.11      0.00
   -4    2   12     -0.19      0.00
    4   -3   10      0.17      0.00
    4   -3    9      0.86      0.00
    4   -3    8      2.27      0.00
    4   -3    7      2.10      0.00
    4   -3    6      1.09      0.00
    4   -3    5      0.61      0.00
    4   -3    4      0.56      0.00
    4   -3    3     -1.29      0.00
    4   -3    2      0.86      0.00
    4   -3    1      1.23      0.00
   -4    3    0     -1.94      0.00
   -4    3    1     -0.68      0.00
   -4    3    2      3.77      0.00
   -4    3    3      4.07      0.00
   -4    3    4     -1.82      0.00
   -4    3    5     -4.36      0.00
   -4    3    6     -1.96      0.00
   -4    3    7     -1.11      0.00
   -4    3    8     -4.77      0.00
   -4    3    9     -6.26      0.00
   -4    3   10     -3.11      0.00
   -4    3   11      0.15      0.00
   -4    3   12      0.72      0.00
    4   -4    9     -1.42      0.00
    4   -4    8      0.47      0.00
    4   -4    7     -1.26      0.00
    4   -4    6     -3.36      0.00
    4   -4    5     -2.66      0.00
    4   -4    4     -0.76      0.00
    4   -4    3     -2.67      0.00
    4   -4    2     -0.85      0.00
    4   -4    1      3.20      0.00
   -4    4    0      2.18      0.00
   -4    4    1      2.54      0.00
   -4    4    2      4.73      0.00
   -4    4    3      3.59      0.00
   -4    4    4      0.05      0.00
   -4    4    5     -1.66      0.00
   -4    4    6     -1.89      0.00
   -4    4    7      0.40      0.00
   -4    4    8      2.10      0.00
   -4    4    9      0.96      0.00
   -4    4   10      0.48      0.00
   -4    4   11      2.37      0.00
   -4    4   12      2.45      0.00
    4   -5    9     -1.42      0.00
    4   -5    8      1.93      0.00
    4   -5    7      1.81      0.00
    4   -5    6     -0.71      0.00
    4   -5    5     -1.28      0.00
    4   -5    4      1.98      0.00
    4   -5    3      2.91      0.00
    4   -5    2      1.38      0.00
    4   -5    1      0.81      0.00
   -4    5    0     -0.35      0.00
   -4    5    1      0.42      0.00
   -4    5    2      1.17      0.00
   -4    5    3     -1.76      0.00
   -4    5    4     -3.07      0.00
   -4    5    5     -0.30      0.00
   -4    5    6      0.05      0.00
   -4    5    7      0.15      0.00
   -4    5    8      1.64      0.00
   -4    5    9      1.15      0.00
   -4    5   10     -0.70      0.00
   -4    5   11     -0.50      0.00
    4   -6    9     -0.74      0.00
    4   -6    8      1.01      0.00
    4   -6    7      2.27      0.00
    4   -6    6      1.24      0.00
    4   -6    5     -2.28      0.00
    4   -6    4     -1.65      0.00
    4   -6    3      3.11      0.00
    4   -6    2      3.36      0.00
    4   -6    1     -0.56      0.00
   -4    6    0     -3.32      0.00
   -4    6    1     -1.66      0.00
   -4    6    2      0.82      0.00
   -4    6    3     -1.10      0.00
   -4    6    4     -3.05      0.00
   -4    6    5     -0.91      0.00
   -4    6    6      0.37      0.00
   -4    6    7      0.32      0.00
   -4    6    8     -0.42      0.00
   -4    6    9     -0.82      0.00
   -4    6   10     -0.56      0.00
   -4    6   11     -0.11      0.00
    4   -7    8      0.01      0.00
    4   -7    7      0.55      0.00
    4   -7    6      1.63      0.00
    4   -7    5     -1.39      0.00
   -4    7    0     -1.73      0.00
   -4    7    1     -1.32      0.00
   -4    7    2      0.73      0.00
   -4    7    3      1.73      0.00
   -4    7    4      1.34      0.00
   -4    7    5      0.76      0.00
   -4    7    6      0.53      0.00
   -4    7    7      1.71      0.00
   -4    7    8      0.84      0.00
   -4    7    9     -0.46      0.00
   -4    7   10      0.00      0.00
    4   -8    8     -0.27      0.00
    4   -8    7     -0.41      0.00
    4   -8    6      0.53      0.00
   -4    8    0     -0.11      0.00
   -4    8    1      0.09      0.00
   -4    8    2     -1.64      0.00
   -4    8    3     -1.14      0.00
   -4    8    4      0.72      0.00
   -4    8    5      0.33      0.00
   -4    8    6     -0.98      0.00
   -4    8    7      0.47      0.00
   -4    8    8      0.68      0.00
   -4    8    9     -0.53      0.00
    4   -9    7      0.73      0.00
   -4    9    0     -0.59      0.00
   -4    9    1      1.37      0.00
   -4    9    2     -0.16      0.00
   -4    9    3     -0.92      0.00
   -4    9    4      0.12      0.00
   -4    9    5      0.36      0.00
   -4    9    6     -0.86      0.00
   -4    9    7     -0.39      0.00
   -4    9    8      0.24      0.00
    4  -10    1      0.29      0.00
   -4   10    0     -0.98      0.00
   -4   10    1     -0.28      0.00
   -4   10    2      0.35      0.00
   -4   10    3      0.50      0.00
   -4   10    4     -0.29      0.00
   -4   10    5      0.09      0.00
   -4   10    6      0.30      0.00
   -4   10    7      0.16      0.00
    4  -11    1      0.93      0.00
   -4   11    0      0.21      0.00
   -4   11    1     -1.28      0.00
   -4   11    2     -0.45      0.00
   -4   11    3      1.33      0.00
   -4   11    4      0.42      0.00
   -4   11    5      0.23      0.00
   -4   11    6      0.76      0.00
    4  -12    1      0.01      0.00
   -4   12    0      0.95      0.00
   -4   12    1      0.00      0.00
   -4   12    2     -0.13      0.00
   -4   12    3      0.84      0.00
   -3  -12    2     -0.09      0.00
   -3  -12    3      0.54      0.00
   -3  -11    1      0.65      0.00
   -3  -11    2     -0.36      0.00
   -3  -11    3      0.44      0.00
   -3  -11    4      0.44      0.00
   -3  -11    5     -0.53      0.00
   -3  -11    6      0.09      0.00
   -3  -11    7     -0.09      0.00
   -3  -10    1      1.59      0.00
   -3  -10    2      0.19      0.00
   -3  -10    3     -0.41      0.00
   -3  -10    4      0.15      0.00
   -3  -10    5     -0.09      0.00
   -3  -10    6      0.29      0.00
   -3  -10    7     -0.15      0.00
   -3  -10    8     -0.17      0.00
   -3   -9    2      2.48      0.00
   -3   -9    3     -0.78      0.00
   -3   -9    4     -1.92      0.00
   -3   -9    5     -0.68      0.00
   -3   -9    6      0.82      0.00
   -3   -9    7      0.21      0.00
   -3   -9    8     -0.42      0.00
   -3   -9    9     -0.05      0.00
   -3   -8    2      4.02      0.00
   -3   -8    3      0.92      0.00
   -3   -8    4     -3.17      0.00
   -3   -8    5     -2.33      0.00
   -3   -8    6      0.70      0.00
   -3   -8    7      1.38      0.00
   -3   -8    8      0.48      0.00
   -3   -8    9     -0.05      0.00
   -3   -8   10     -0.45      0.00
    3    7    6     -0.27      0.00
    3    7    5      0.69      0.00
   -3   -7    2      2.61      0.00
   -3   -7    3      2.81      0.00
   -3   -7    4     -0.97      0.00
   -3   -7    5     -2.37      0.00
   -3   -7    6     -0.01      0.00
   -3   -7    7      2.14      0.00
   -3   -7    8      1.88      0.00
   -3   -7    9     -0.02      0.00
   -3   -7   10     -1.49      0.00
   -3   -7   11     -0.18      0.00
    3    6    7      0.93      0.00
    3    6    6      0.18      0.00
    3    6    5      0.36      0.00
    3    6    4      0.11      0.00
    3    6    3     -0.46      0.00
   -3   -6    2      0.08      0.00
   -3   -6    3      1.51      0.00
   -3   -6    4      0.43      0.00
   -3   -6    5     -2.19      0.00
   -3   -6    6     -1.73      0.00
   -3   -6    7      0.44      0.00
   -3   -6    8      1.15      0.00
   -3   -6    9     -0.45      0.00
   -3   -6   10     -2.22      0.00
   -3   -6   11     -1.30      0.00
    3    5    8     -1.14      0.00
    3    5    7      0.67      0.00
    3    5    6      0.51      0.00
    3    5    5     -0.98      0.00
    3    5    4     -1.32      0.00
    3    5    3     -0.17      0.00
    3    5    2      0.45      0.00
   -3   -5    2      0.13      0.00
   -3   -5    3      1.97      0.00
   -3   -5    4      1.60      0.00
   -3   -5    5     -2.27      0.00
   -3   -5    6     -1.58      0.00
   -3   -5    7      1.53      0.00
   -3   -5    8      1.78      0.00
   -3   -5    9      0.50      0.00
   -3   -5   10     -0.71      0.00
   -3   -5   11     -1.05      0.00
   -3   -5   12     -0.45      0.00
    3    4    9     -0.19      0.00
    3    4    8     -1.48      0.00
    3    4    7      0.21      0.00
    3    4    6      0.95      0.00
    3    4    5     -0.74      0.00
    3    4    4     -1.69      0.00
    3    4    3     -0.26      0.00
    3    4    2      0.38      0.00
    3    4    1     -1.39      0.00
   -3   -4    2     -0.36      0.00
   -3   -4    3      3.07      0.00
   -3   -4    4      4.32      0.00
   -3   -4    5     -1.95      0.00
   -3   -4    6     -2.99      0.00
   -3   -4    7      1.82      0.00
   -3   -4    8      2.19      0.00
   -3   -4    9     -0.08      0.00
   -3   -4   10     -0.03      0.00
   -3   -4   11      0.05      0.00
   -3   -4   12     -0.16      0.00
    3    3    9      0.70      0.00
    3    3    8     -0.01      0.00
    3    3    7      1.32      0.00
    3    3    6      1.40      0.00
    3    3    5     -0.45      0.00
    3    3    4     -0.57      0.00
    3    3    3      1.50      0.00
    3    3    2     -1.09      0.00
    3    3    1     -4.37      0.00
    3    3    0      1.61      0.00
   -3   -3    1      3.89      0.00
   -3   -3    2     -2.64      0.00
   -3   -3    3     -2.36      0.00
   -3   -3    4      1.67      0.00
   -3   -3    5     -1.34      0.00
   -3   -3    6     -4.53      0.00
   -3   -3    7     -1.54      0.00
   -3   -3    8      0.75      0.00
   -3   -3    9     -1.00      0.00
   -3   -3   10     -1.42      0.00
   -3   -3   11     -0.79      0.00
   -3   -3   12     -0.32      0.00
    3    2   10     -0.36      0.00
    3    2    9     -0.60      0.00
    3    2    8     -0.19      0.00
    3    2    7      1.71      0.00
    3    2    6      1.44      0.00
    3    2    5     -1.28      0.00
    3    2    4     -1.32      0.00
    3    2    3      3.66      0.00
    3    2    2      1.53      0.00
    3    2    1     -4.26      0.00
    3    2    0      1.63      0.00
   -3   -2    1      8.77      0.00
   -3   -2    2      5.24      0.00
   -3   -2    3     -0.14      0.00
   -3   -2    4     -0.28      0.00
   -3   -2    5      0.53      0.00
   -3   -2    6     -0.50      0.00
   -3   -2    7     -1.27      0.00
   -3   -2    8     -0.25      0.00
   -3   -2    9     -0.31      0.00
   -3   -2   10     -0.91      0.00
   -3   -2   11     -0.95      0.00
   -3   -2   12      0.06      0.00
    3    1   10     -0.30      0.00
    3    1    9     -0.89      0.00
    3    1    8     -0.85      0.00
    3    1    7     -0.38      0.00
    3    1    6     -0.78      0.00
    3    1    5     -2.85      0.00
    3    1    4     -5.02      0.00
    3    1    3     -1.30      0.00
    3    1    2      0.97      0.00
    3    1    1     -1.77      0.00
    3    1    0     -3.42      0.00
   -3   -1    1      1.20      0.00
   -3   -1    2      6.05      0.00
   -3   -1    3      2.68      0.00
   -3   -1    4     -0.35      0.00
   -3   -1    5      0.15      0.00
   -3   -1    6      0.76      0.00
   -3   -1    7     -0.28      0.00
   -3   -1    8      0.00      0.00
   -3   -1    9      1.07      0.00
   -3   -1   10      0.81      0.00
   -3   -1   11      0.10      0.00
   -3   -1   12      0.39      0.00
    3    0   10     -0.23      0.00
    3    0    9      0.03      0.00
    3    0    8      0.99      0.00
    3    0    7      0.23      0.00
    3    0    6     -0.27      0.00
    3    0    5      1.64      0.00
    3    0    4      1.92      0.00
    3    0    3      2.31      0.00
    3    0    2      4.77      0.00
    3    0    1      8.32      0.00
    3    0    0      2.38      0.00
   -3    0    1     -2.14      0.00
   -3    0    2      1.43      0.00
   -3    0    3     -2.80      0.00
   -3    0    4     -3.60      0.00
   -3    0    5      0.64      0.00
   -3    0    6      0.46      0.00
   -3    0    7     -2.50      0.00
   -3    0    8     -1.99      0.00
   -3    0    9      0.46      0.00
   -3    0   10      0.21      0.00
   -3    0   11     -0.63      0.00
   -3    0   12     -0.29      0.00
    3   -1   10     -0.84      0.00
    3   -1    9     -0.54      0.00
    3   -1    8      0.82      0.00
    3   -1    7     -0.34      0.00
    3   -1    6     -2.52      0.00
    3   -1    5     -0.63      0.00
    3   -1    4      2.91      0.00
    3   -1    3      4.44      0.00
    3   -1    2      2.45      0.00
    3   -1    1      3.27      0.00
   -3    1    0     -0.78      0.00
   -3    1    1     -4.25      0.00
   -3    1    2     -1.50      0.00
   -3    1    3     -9.95      0.00
   -3    1    4    -10.67      0.00
   -3    1    5      1.95      0.00
   -3    1    6      6.64      0.00
   -3    1    7      1.02      0.00
   -3    1    8     -1.68      0.00
   -3    1    9      0.96      0.00
   -3    1   10      1.10      0.00
   -3    1   11     -0.30      0.00
   -3    1   12     -0.52      0.00
    3   -2   10     -1.13      0.00
    3   -2    9     -0.41      0.00
    3   -2    8      0.81      0.00
    3   -2    7      0.53      0.00
    3   -2    6     -0.81      0.00
    3   -2    5     -1.00      0.00
    3   -2    4     -0.41      0.00
    3   -2    3      2.87      0.00
    3   -2    2      1.44      0.00
    3   -2    1     -4.26      0.00
   -3    2    0     -7.03      0.00
   -3    2    1     -1.26      0.00
   -3    2    2     10.73      0.00
   -3    2    3      7.33      0.00
   -3    2    4      1.40      0.00
   -3    2    5      8.55      0.00
   -3    2    6     13.91      0.00
   -3    2    7      7.33      0.00
   -3    2    8     -0.93      0.00
   -3    2    9     -1.46      0.00
   -3    2   10      0.39      0.00
   -3    2   11      0.54      0.00
   -3    2   12     -0.14      0.00
    3   -3   10      0.20      0.00
    3   -3    9      1.91      0.00
    3   -3    8      2.57      0.00
    3   -3    7      1.58      0.00
    3   -3    6      0.87      0.00
    3   -3    5      0.35      0.00
    3   -3    4     -3.47      0.00
    3   -3    3     -3.19      0.00
    3   -3    2     -0.36      0.00
    3   -3    1     -4.58      0.00
   -3    3    0     -8.31      0.00
   -3    3    1     -6.89      0.00
   -3    3    2     -0.30      0.00
   -3    3    3      1.45      0.00
   -3    3    4     -2.72      0.00
   -3    3    5     -3.86      0.00
   -3    3    6     -0.78      0.00
   -3    3    7     -0.75      0.00
   -3    3    8     -5.86      0.00
   -3    3    9     -7.74      0.00
   -3    3   10     -3.56      0.00
   -3    3   11      0.38      0.00
   -3    3   12      0.47      0.00
    3   -4   10     -1.79      0.00
    3   -4    9     -0.10      0.00
    3   -4    8      0.49      0.00
    3   -4    7     -1.17      0.00
    3   -4    6     -2.37      0.00
    3   -4    5     -1.39      0.00
    3   -4    4     -1.93      0.00
    3   -4    3     -1.54      0.00
   -3    4    0      3.43      0.00
   -3    4    1      4.49      0.00
   -3    4    2      1.32      0.00
   -3    4    3      0.19      0.00
   -3    4    4      1.25      0.00
   -3    4    5     -1.40      0.00
   -3    4    6     -3.10      0.00
   -3    4    7     -0.09      0.00
   -3    4    8      0.49      0.00
   -3    4    9     -1.63      0.00
   -3    4   10     -0.06      0.00
   -3    4   11      2.74      0.00
    3   -5   10     -1.42      0.00
    3   -5    9     -0.76      0.00
    3   -5    8      0.43      0.00
    3   -5    7      0.29      0.00
    3   -5    6     -1.32      0.00
   -3    5    0      0.13      0.00
   -3    5    1      4.07      0.00
   -3    5    2      1.45      0.00
   -3    5    3     -2.46      0.00
   -3    5    4      0.07      0.00
   -3    5    5      1.49      0.00
   -3    5    6     -0.01      0.00
   -3    5    7      0.71      0.00
   -3    5    8      1.60      0.00
   -3    5    9      0.52      0.00
   -3    5   10      0.01      0.00
   -3    5   11      0.58      0.00
    3   -6   10      0.24      0.00
    3   -6    9     -0.23      0.00
    3   -6    8      0.15      0.00
    3   -6    7      1.51      0.00
    3   -6    1     -0.72      0.00
   -3    6    0     -3.17      0.00
   -3    6    1     -1.39      0.00
   -3    6    2     -0.59      0.00
   -3    6    3     -2.25      0.00
   -3    6    4     -2.10      0.00
   -3    6    5     -1.39      0.00
   -3    6    6     -0.44      0.00
   -3    6    7     -0.15      0.00
   -3    6    8     -1.02      0.00
   -3    6    9     -0.75      0.00
   -3    6   10     -0.26      0.00
    3   -7    9      0.26      0.00
    3   -7    8      0.00      0.00
    3   -7    1      0.85      0.00
   -3    7    0      0.60      0.00
   -3    7    1     -0.80      0.00
   -3    7    2     -0.55      0.00
   -3    7    3      1.19      0.00
   -3    7    4      1.46      0.00
   -3    7    5     -0.51      0.00
   -3    7    6      0.17      0.00
   -3    7    7      1.14      0.00
   -3    7    8     -0.30      0.00
   -3    7    9     -0.15      0.00
   -3    7   10      0.17      0.00
    3   -8    9     -0.38      0.00
    3   -8    1     -1.01      0.00
   -3    8    0      1.73      0.00
   -3    8    1      0.09      0.00
   -3    8    2     -1.69      0.00
   -3    8    3      0.10      0.00
   -3    8    4      1.60      0.00
   -3    8    5      0.30      0.00
   -3    8    6      0.53      0.00
   -3    8    7      1.30      0.00
   -3    8    8     -0.09      0.00
   -3    8    9     -0.02      0.00
    3   -9    1     -1.34      0.00
   -3    9    0      0.42      0.00
   -3    9    1      0.44      0.00
   -3    9    2     -0.62      0.00
   -3    9    3     -0.33      0.00
   -3    9    4      0.31      0.00
   -3    9    5     -0.10      0.00
   -3    9    6     -0.28      0.00
   -3    9    7      0.08      0.00
   -3    9    8     -0.92      0.00
    3  -10    1      0.12      0.00
   -3   10    0     -0.56      0.00
   -3   10    1     -0.36      0.00
   -3   10    2     -0.05      0.00
   -3   10    3     -0.73      0.00
   -3   10    4     -0.73      0.00
   -3   10    5      0.03      0.00
   -3   10    6     -0.03      0.00
   -3   10    7      0.21      0.00
    3  -11    1      0.81      0.00
   -3   11    0     -0.32      0.00
   -3   11    1     -0.48      0.00
   -3   11    2      0.67      0.00
   -3   11    3      0.20      0.00
   -3   11    4      0.14      0.00
   -3   11    5      0.83      0.00
   -3   11    6      0.35      0.00
    3  -12    1      0.35      0.00
   -3   12    0     -0.15      0.00
   -3   12    1     -0.16      0.00
   -3   12    2      0.67      0.00
   -3   12    3      0.18      0.00
   -3   12    4      0.17      0.00
   -2  -12    1     -0.81      0.00
   -2  -12    2      0.19      0.00
   -2  -12    3      0.36      0.00
   -2  -12    4     -0.16      0.00
   -2  -12    5      0.41      0.00
   -2  -11    1     -0.21      0.00
   -2  -11    2      0.09      0.00
   -2  -11    3      0.45      0.00
   -2  -11    4     -0.17      0.00
   -2  -11    5      0.44      0.00
   -2  -11    6     -0.18      0.00
   -2  -11    7     -0.92      0.00
   -2  -10    2      0.65      0.00
   -2  -10    3     -0.60      0.00
   -2  -10    4     -0.94      0.00
   -2  -10    5      0.65      0.00
   -2  -10    6      0.74      0.00
   -2  -10    7     -0.43      0.00
   -2  -10    8     -0.05      0.00
   -2   -9    2      2.24      0.00
   -2   -9    3     -0.99      0.00
   -2   -9    4     -2.10      0.00
   -2   -9    5     -0.49      0.00
   -2   -9    6      0.79      0.00
   -2   -9    7      0.25      0.00
   -2   -9    8     -0.33      0.00
   -2   -9    9     -1.20      0.00
   -2   -8    2      2.02      0.00
   -2   -8    3     -0.77      0.00
   -2   -8    4     -2.13      0.00
   -2   -8    5     -1.68      0.00
   -2   -8    6     -0.21      0.00
   -2   -8    7      1.22      0.00
   -2   -8    8      0.98      0.00
   -2   -8    9     -1.12      0.00
   -2   -8   10     -0.62      0.00
    2    7    6      1.15      0.00
   -2   -7    2      1.80      0.00
   -2   -7    3      0.56      0.00
   -2   -7    4     -0.70      0.00
   -2   -7    5     -1.00      0.00
   -2   -7    6     -0.18      0.00
   -2   -7    7      1.63      0.00
   -2   -7    8      1.85      0.00
   -2   -7    9     -0.37      0.00
   -2   -7   10     -0.56      0.00
   -2   -7   11      0.62      0.00
    2    6    7      0.70      0.00
    2    6    6      0.86      0.00
    2    6    5      0.23      0.00
    2    6    4     -0.93      0.00
   -2   -6    2      1.69      0.00
   -2   -6    3      2.01      0.00
   -2   -6    4     -1.10      0.00
   -2   -6    5     -2.13      0.00
   -2   -6    6     -0.56      0.00
   -2   -6    7      0.75      0.00
   -2   -6    8      0.59      0.00
   -2   -6    9     -0.75      0.00
   -2   -6   10     -0.61      0.00
   -2   -6   11      0.30      0.00
    2    5    8      0.52      0.00
    2    5    7      0.97      0.00
    2    5    6      0.46      0.00
    2    5    5     -0.09      0.00
    2    5    4     -0.88      0.00
    2    5    3     -0.22      0.00
    2    5    2      0.44      0.00
   -2   -5    2      0.68      0.00
   -2   -5    3      3.76      0.00
   -2   -5    4     -1.73      0.00
   -2   -5    5     -4.33      0.00
   -2   -5    6     -0.20      0.00
   -2   -5    7      1.96      0.00
   -2   -5    8      0.66      0.00
   -2   -5    9     -0.56      0.00
   -2   -5   10     -0.89      0.00
   -2   -5   11     -0.57      0.00
   -2   -5   12      0.16      0.00
    2    4    9     -1.38      0.00
    2    4    8     -0.32      0.00
    2    4    7      0.45      0.00
    2    4    6     -0.96      0.00
    2    4    5     -0.56      0.00
    2    4    4      0.76      0.00
    2    4    3     -0.17      0.00
    2    4    2     -1.47      0.00
    2    4    1      2.61      0.00
   -2   -4    2     -0.37      0.00
   -2   -4    3      5.47      0.00
   -2   -4    4      1.71      0.00
   -2   -4    5     -2.91      0.00
   -2   -4    6      0.13      0.00
   -2   -4    7      2.86      0.00
   -2   -4    8      1.13      0.00
   -2   -4    9      0.24      0.00
   -2   -4   10      0.19      0.00
   -2   -4   11     -0.20      0.00
   -2   -4   12      0.19      0.00
    2    3   10      0.63      0.00
    2    3    9     -0.86      0.00
    2    3    8      0.10      0.00
    2    3    7      1.15      0.00
    2    3    6     -1.22      0.00
    2    3    5     -1.48      0.00
    2    3    4      2.24      0.00
    2    3    3      1.13      0.00
    2    3    2     -5.44      0.00
    2    3    1     -2.09      0.00
   -2   -3    2     -4.92      0.00
   -2   -3    3     -1.89      0.00
   -2   -3    4     -1.08      0.00
   -2   -3    5     -1.71      0.00
   -2   -3    6     -0.37      0.00
   -2   -3    7      1.05      0.00
   -2   -3    8      0.31      0.00
   -2   -3    9     -0.08      0.00
   -2   -3   10     -0.06      0.00
   -2   -3   11     -0.32      0.00
   -2   -3   12      0.09      0.00
    2    2   10      0.71      0.00
    2    2    9      0.24      0.00
    2    2    8      1.14      0.00
    2    2    7      2.72      0.00
    2    2    6      1.62      0.00
    2    2    5     -0.39      0.00
    2    2    4      1.64      0.00
    2    2    3      1.76      0.00
    2    2    2     -4.29      0.00
    2    2    1     -3.80      0.00
    2    2    0      4.09      0.00
   -2   -2    1      5.77      0.00
   -2   -2    2     -0.36      0.00
   -2   -2    3     -3.88      0.00
   -2   -2    4     -4.46      0.00
   -2   -2    5     -2.52      0.00
   -2   -2    6     -0.65      0.00
   -2   -2    7     -1.01      0.00
   -2   -2    8     -1.56      0.00
   -2   -2    9     -1.45      0.00
   -2   -2   10     -1.27      0.00
   -2   -2   11     -0.77      0.00
   -2   -2   12      0.55      0.00
    2    1   11     -0.41      0.00
    2    1   10      0.04      0.00
    2    1    9      0.28      0.00
    2    1    8     -0.86      0.00
    2    1    7     -1.52      0.00
    2    1    6     -0.68      0.00
    2    1    5     -1.75      0.00
    2    1    4     -2.78      0.00
    2    1    3     -3.49      0.00
    2    1    2     -4.58      0.00
    2    1    1     -4.37      0.00
    2    1    0      2.77      0.00
   -2   -1    1     12.59      0.00
   -2   -1    2      6.16      0.00
   -2   -1    3     -0.35      0.00
   -2   -1    4      1.36      0.00
   -2   -1    5      0.90      0.00
   -2   -1    6     -0.53      0.00
   -2   -1    7     -0.77      0.00
   -2   -1    8      0.64      0.00
   -2   -1    9      0.89      0.00
   -2   -1   10      0.39      0.00
   -2   -1   11      0.53      0.00
   -2   -1   12      1.21      0.00
    2    0   11     -0.23      0.00
    2    0   10      0.27      0.00
    2    0    9      1.70      0.00
    2    0    8     -0.18      0.00
    2    0    7     -3.19      0.00
    2    0    6     -1.21      0.00
    2    0    5      2.32      0.00
    2    0    4      3.66      0.00
    2    0    3      1.12      0.00
    2    0    2     -0.81      0.00
    2    0    1     -4.18      0.00
    2    0    0      0.19      0.00
   -2    0    1     16.56      0.00
   -2    0    2      5.26      0.00
   -2    0    3    -10.74      0.00
   -2    0    4     -1.99      0.00
   -2    0    5      3.26      0.00
   -2    0    6     -2.08      0.00
   -2    0    7     -4.59      0.00
   -2    0    8     -0.21      0.00
   -2    0    9      1.70      0.00
   -2    0   10      0.42      0.00
   -2    0   11      0.29      0.00
   -2    0   12      0.67      0.00
    2   -1   11     -0.69      0.00
    2   -1   10     -0.64      0.00
    2   -1    9      1.27      0.00
    2   -1    8      0.82      0.00
    2   -1    7     -2.05      0.00
    2   -1    6     -2.15      0.00
    2   -1    5      0.98      0.00
    2   -1    4      6.56      0.00
    2   -1    3      7.02      0.00
    2   -1    2      0.65      0.00
    2   -1    1    -11.44      0.00
   -2    1    0    -16.70      0.00
   -2    1    1     -0.63      0.00
   -2    1    2     -8.49      0.00
   -2    1    3    -30.15      0.00
   -2    1    4    -18.61      0.00
   -2    1    5      1.25      0.00
   -2    1    6      3.38      0.00
   -2    1    7     -2.43      0.00
   -2    1    8     -1.40      0.00
   -2    1    9      1.20      0.00
   -2    1   10      0.41      0.00
   -2    1   11     -0.41      0.00
   -2    1   12     -0.20      0.00
    2   -2   11     -1.31      0.00
    2   -2   10     -1.44      0.00
    2   -2    9      0.19      0.00
    2   -2    8      0.67      0.00
    2   -2    7      0.38      0.00
    2   -2    6      0.57      0.00
    2   -2    5      0.28      0.00
    2   -2    4      4.32      0.00
    2   -2    3      9.85      0.00
    2   -2    2      7.11      0.00
    2   -2    1     -0.37      0.00
   -2    2    0     -3.61      0.00
   -2    2    1     11.98      0.00
   -2    2    2     18.87      0.00
   -2    2    3      4.33      0.00
   -2    2    4      1.60      0.00
   -2    2    5     12.27      0.00
   -2    2    6     16.06      0.00
   -2    2    7      7.63      0.00
   -2    2    8      0.25      0.00
   -2    2    9     -0.16      0.00
   -2    2   10      1.11      0.00
   -2    2   11      0.56      0.00
   -2    2   12     -0.12      0.00
    2   -3   11      0.38      0.00
    2   -3   10      0.69      0.00
    2   -3    9      2.18      0.00
    2   -3    8      1.93      0.00
    2   -3    7      1.26      0.00
    2   -3    6      1.12      0.00
    2   -3    5     -0.88      0.00
    2   -3    4     -2.50      0.00
    2   -3    3     -0.37      0.00
    2   -3    2     -3.26      0.00
   -2    3    0     -7.37      0.00
   -2    3    1     -4.68      0.00
   -2    3    2      3.68      0.00
   -2    3    3      5.31      0.00
   -2    3    4      0.39      0.00
   -2    3    5     -1.08      0.00
   -2    3    6      2.42      0.00
   -2    3    7      0.74      0.00
   -2    3    8     -5.38      0.00
   -2    3    9     -5.90      0.00
   -2    3   10     -1.44      0.00
   -2    3   11      0.19      0.00
   -2    3   12     -0.01      0.00
    2   -4   11     -0.60      0.00
    2   -4   10     -0.82      0.00
    2   -4    9      0.57      0.00
    2   -4    8      1.22      0.00
    2   -4    4     -1.61      0.00
    2   -4    3      0.88      0.00
    2   -4    1     -1.45      0.00
   -2    4    0      3.75      0.00
   -2    4    1      0.16      0.00
   -2    4    2     -2.99      0.00
   -2    4    3      0.61      0.00
   -2    4    4      0.41      0.00
   -2    4    5     -4.19      0.00
   -2    4    6     -3.24      0.00
   -2    4    7     -0.61      0.00
   -2    4    8     -2.22      0.00
   -2    4    9     -2.62      0.00
   -2    4   10      0.71      0.00
   -2    4   11      1.50      0.00
    2   -5   10     -1.20      0.00
    2   -5    9     -1.10      0.00
    2   -5    1     -0.96      0.00
   -2    5    0      3.37      0.00
   -2    5    1      3.90      0.00
   -2    5    2     -0.14      0.00
   -2    5    3      0.14      0.00
   -2    5    4      1.60      0.00
   -2    5    5      0.18      0.00
   -2    5    6      0.21      0.00
   -2    5    7      1.04      0.00
   -2    5    8      0.62      0.00
   -2    5    9      0.13      0.00
   -2    5   10      1.10      0.00
   -2    5   11      0.52      0.00
    2   -6   10      0.13      0.00
    2   -6    1      0.03      0.00
   -2    6    0     -1.68      0.00
   -2    6    1     -2.33      0.00
   -2    6    2     -1.97      0.00
   -2    6    3     -0.70      0.00
   -2    6    4     -0.93      0.00
   -2    6    5     -1.30      0.00
   -2    6    6     -0.03      0.00
   -2    6    7     -0.33      0.00
   -2    6    8     -0.46      0.00
   -2    6    9     -0.25      0.00
   -2    6   10      0.34      0.00
    2   -7    2     -0.72      0.00
    2   -7    1      2.54      0.00
   -2    7    0      1.25      0.00
   -2    7    1     -2.13      0.00
   -2    7    2     -2.07      0.00
   -2    7    3      0.19      0.00
   -2    7    4     -0.28      0.00
   -2    7    5     -1.17      0.00
   -2    7    6     -0.28      0.00
   -2    7    7     -0.93      0.00
   -2    7    8     -0.54      0.00
   -2    7    9     -0.05      0.00
   -2    7   10      0.07      0.00
    2   -8    2     -2.27      0.00
    2   -8    1      0.73      0.00
   -2    8    0      1.59      0.00
   -2    8    1     -0.22      0.00
   -2    8    2     -0.94      0.00
   -2    8    3     -0.14      0.00
   -2    8    4      0.24      0.00
   -2    8    5      0.83      0.00
   -2    8    6      1.28      0.00
   -2    8    7     -0.05      0.00
   -2    8    8      0.12      0.00
   -2    8    9      0.71      0.00
    2   -9    2     -0.15      0.00
    2   -9    1      0.24      0.00
   -2    9    0      0.23      0.00
   -2    9    1      0.00      0.00
   -2    9    2      0.19      0.00
   -2    9    3      0.23      0.00
   -2    9    4      0.30      0.00
   -2    9    5      0.58      0.00
   -2    9    6      0.31      0.00
   -2    9    7     -0.82      0.00
   -2    9    8     -0.85      0.00
    2  -10    2      0.34      0.00
    2  -10    1     -0.11      0.00
   -2   10    0     -0.63      0.00
   -2   10    1     -1.00      0.00
   -2   10    2     -1.35      0.00
   -2   10    3     -0.76      0.00
   -2   10    4      0.69      0.00
   -2   10    5      0.85      0.00
   -2   10    6      0.13      0.00
   -2   10    7     -0.32      0.00
    2  -11    2      0.06      0.00
    2  -11    1     -0.48      0.00
   -2   11    0      0.18      0.00
   -2   11    1      0.88      0.00
   -2   11    2     -0.39      0.00
   -2   11    3     -0.60      0.00
   -2   11    4      0.95      0.00
   -2   11    5      0.87      0.00
    2  -12    2      0.26      0.00
    2  -12    1     -0.82      0.00
   -2   12    0     -0.33      0.00
   -2   12    1      1.25      0.00
   -2   12    2      0.37      0.00
   -2   12    3     -0.52      0.00
   -1  -12    1     -0.13      0.00
   -1  -12    2      0.03      0.00
   -1  -12    3     -0.47      0.00
   -1  -12    4      0.36      0.00
   -1  -12    5      0.23      0.00
   -1  -11    2     -0.11      0.00
   -1  -11    3     -1.03      0.00
   -1  -11    4      0.50      0.00
   -1  -11    5      0.88      0.00
   -1  -11    6     -0.84      0.00
   -1  -11    7     -0.71      0.00
   -1  -10    2      0.56      0.00
   -1  -10    3     -1.62      0.00
   -1  -10    4     -0.45      0.00
   -1  -10    5      1.36      0.00
   -1  -10    6      0.50      0.00
   -1  -10    7     -0.09      0.00
   -1  -10    8     -0.43      0.00
   -1   -9    2      1.97      0.00
   -1   -9    3     -0.38      0.00
   -1   -9    4     -1.52      0.00
   -1   -9    5     -0.70      0.00
   -1   -9    6      0.78      0.00
   -1   -9    7      1.12      0.00
   -1   -9    8     -0.64      0.00
   -1   -9    9     -1.11      0.00
   -1   -8    2      0.17      0.00
   -1   -8    3      0.06      0.00
   -1   -8    4     -1.15      0.00
   -1   -8    5     -2.45      0.00
   -1   -8    6     -0.22      0.00
   -1   -8    7      2.10      0.00
   -1   -8    8      0.44      0.00
   -1   -8    9     -1.06      0.00
   -1   -8   10      0.07      0.00
   -1   -7    2      0.30      0.00
   -1   -7    3     -0.20      0.00
   -1   -7    4     -0.62      0.00
   -1   -7    5     -1.20      0.00
   -1   -7    6      0.24      0.00
   -1   -7    7      1.75      0.00
   -1   -7    8      0.48      0.00
   -1   -7    9     -0.47      0.00
   -1   -7   10     -0.31      0.00
   -1   -7   11     -0.49      0.00
    1    6    7      0.42      0.00
    1    6    6      0.84      0.00
    1    6    5     -0.91      0.00
    1    6    0     -3.97      0.00
   -1   -6    1      0.29      0.00
   -1   -6    2      4.01      0.00
   -1   -6    3      1.10      0.00
   -1   -6    4     -2.45      0.00
   -1   -6    5     -1.37      0.00
   -1   -6    6      1.18      0.00
   -1   -6    7      1.55      0.00
   -1   -6    8     -0.09      0.00
   -1   -6    9     -0.10      0.00
   -1   -6   10      0.44      0.00
   -1   -6   11     -0.13      0.00
    1    5    8      0.81      0.00
    1    5    7      0.13      0.00
    1    5    6      1.07      0.00
    1    5    5      0.40      0.00
    1    5    4     -1.85      0.00
    1    5    3     -1.96      0.00
    1    5    0     -5.97      0.00
   -1   -5    1     -4.10      0.00
   -1   -5    2      3.82      0.00
   -1   -5    3      2.30      0.00
   -1   -5    4     -3.65      0.00
   -1   -5    5     -2.85      0.00
   -1   -5    6      0.67      0.00
   -1   -5    7      1.47      0.00
   -1   -5    8      0.25      0.00
   -1   -5    9     -0.15      0.00
   -1   -5   10     -0.03      0.00
   -1   -5   11      0.35      0.00
   -1   -5   12      0.24      0.00
    1    4    9     -0.62      0.00
    1    4    8      1.34      0.00
    1    4    7     -0.29      0.00
    1    4    6      0.02      0.00
    1    4    5      2.65      0.00
    1    4    4      0.88      0.00
    1    4    3     -4.12      0.00
    1    4    2     -1.79      0.00
    1    4    0      0.80      0.00
   -1   -4    1     -2.62      0.00
   -1   -4    2      2.59      0.00
   -1   -4    3      2.99      0.00
   -1   -4    4     -0.29      0.00
   -1   -4    5     -0.19      0.00
   -1   -4    6      0.48      0.00
   -1   -4    7      0.28      0.00
   -1   -4    8      0.38      0.00
   -1   -4    9      0.60      0.00
   -1   -4   10     -0.55      0.00
   -1   -4   11     -0.39      0.00
   -1   -4   12     -0.02      0.00
    1    3   10     -1.15      0.00
    1    3    9     -1.93      0.00
    1    3    8      0.52      0.00
    1    3    7     -0.01      0.00
    1    3    6     -0.75      0.00
    1    3    5      2.20      0.00
    1    3    4      2.86      0.00
    1    3    3     -3.44      0.00
    1    3    2     -4.66      0.00
    1    3    1      2.53      0.00
   -1   -3    1      0.41      0.00
   -1   -3    2      1.03      0.00
   -1   -3    3     -0.49      0.00
   -1   -3    4     -0.12      0.00
   -1   -3    5      3.55      0.00
   -1   -3    6      2.86      0.00
   -1   -3    7      0.71      0.00
   -1   -3    8      0.76      0.00
   -1   -3    9      1.51      0.00
   -1   -3   10      0.12      0.00
   -1   -3   11     -0.26      0.00
   -1   -3   12     -0.29      0.00
    1    2   11      0.56      0.00
    1    2   10      0.87      0.00
    1    2    9      0.02      0.00
    1    2    8      0.78      0.00
    1    2    7      1.80      0.00
    1    2    6      2.09      0.00
    1    2    5      2.05      0.00
    1    2    4     -0.55      0.00
    1    2    3     -7.28      0.00
    1    2    2     -9.02      0.00
    1    2    1     -1.62      0.00
   -1   -2    1      0.87      0.00
   -1   -2    2     -2.91      0.00
   -1   -2    3     -3.48      0.00
   -1   -2    4     -4.17      0.00
   -1   -2    5     -0.69      0.00
   -1   -2    6      0.36      0.00
   -1   -2    7     -0.83      0.00
   -1   -2    8     -1.21      0.00
   -1   -2    9     -0.95      0.00
   -1   -2   10     -1.24      0.00
   -1   -2   12     -0.41      0.00
    1    1   11     -0.53      0.00
    1    1   10      1.12      0.00
    1    1    9      0.61      0.00
    1    1    8     -1.35      0.00
    1    1    7     -1.22      0.00
    1    1    6     -0.05      0.00
    1    1    5     -0.04      0.00
    1    1    4     -3.54      0.00
    1    1    3    -10.00      0.00
    1    1    2    -11.30      0.00
    1    1    1      1.65      0.00
    1    1    0     24.74      0.00
   -1   -1    1     16.98      0.00
   -1   -1    2     -5.51      0.00
   -1   -1    3     -2.61      0.00
   -1   -1    4      2.32      0.00
   -1   -1    5     -0.06      0.00
   -1   -1    6     -1.87      0.00
   -1   -1    7     -0.20      0.00
   -1   -1    8      0.93      0.00
   -1   -1    9     -0.28      0.00
   -1   -1   11      0.55      0.00
   -1   -1   12      0.32      0.00
    1    0   11     -0.36      0.00
    1    0   10      1.53      0.00
    1    0    9      1.03      0.00
    1    0    8     -2.23      0.00
    1    0    7     -2.75      0.00
    1    0    6     -0.86      0.00
    1    0    5      2.72      0.00
    1    0    4      5.41      0.00
    1    0    3      2.08      0.00
    1    0    2     -5.15      0.00
    1    0    1      1.77      0.00
   -1    0    2      1.46      0.00
   -1    0    3     -7.76      0.00
   -1    0    4      5.65      0.00
   -1    0    5      4.71      0.00
   -1    0    6     -2.79      0.00
   -1    0    7     -2.43      0.00
   -1    0   10      0.70      0.00
   -1    0   11      1.36      0.00
   -1    0   12      0.44      0.00
    1   -1   11     -0.72      0.00
    1   -1   10      0.78      0.00
    1   -1    9      0.65      0.00
    1   -1    8     -1.62      0.00
    1   -1    7     -2.38      0.00
    1   -1    6     -2.34      0.00
    1   -1    5     -0.01      0.00
    1   -1    4      4.59      0.00
    1   -1    3      1.26      0.00
    1   -1    2    -15.50      0.00
    1   -1    1    -33.81      0.00
   -1    1    0    -13.93      0.00
   -1    1    1      2.75      0.00
   -1    1    2    -28.02      0.00
   -1    1    3    -39.94      0.00
   -1    1    4    -17.80      0.00
   -1    1    5     -0.70      0.00
   -1    1    6     -0.29      0.00
   -1    1    7     -2.80      0.00
   -1    1    8     -0.61      0.00
   -1    1    9      0.60      0.00
   -1    1   10      0.54      0.00
   -1    1   11      0.44      0.00
   -1    1   12     -0.27      0.00
    1   -2   11     -1.73      0.00
    1   -2   10     -0.78      0.00
    1   -2    9     -0.30      0.00
    1   -2    8     -0.17      0.00
    1   -2    7      0.72      0.00
    1   -2    5      1.70      0.00
    1   -2    4      5.89      0.00
    1   -2    3      6.27      0.00
    1   -2    2      2.08      0.00
   -1    2    0     -3.55      0.00
   -1    2    1     11.39      0.00
   -1    2    2      4.31      0.00
   -1    2    3     -7.83      0.00
   -1    2    4     -2.79      0.00
   -1    2    5      9.90      0.00
   -1    2    6     13.07      0.00
   -1    2    7      5.96      0.00
   -1    2    8      0.62      0.00
   -1    2    9      0.23      0.00
   -1    2   10      0.56      0.00
   -1    2   11      0.31      0.00
   -1    2   12     -0.05      0.00
    1   -3   11     -0.35      0.00
    1   -3   10      0.38      0.00
    1   -3    9      1.13      0.00
    1   -3    5      0.20      0.00
    1   -3    4      1.58      0.00
    1   -3    3     -2.24      0.00
    1   -3    2     -4.50      0.00
    1   -3    1     -1.17      0.00
   -1    3    0     -2.02      0.00
   -1    3    1      2.01      0.00
   -1    3    2      8.14      0.00
   -1    3    3      6.07      0.00
   -1    3    4      1.48      0.00
   -1    3    5      3.71      0.00
   -1    3    6      6.27      0.00
   -1    3    7      1.71      0.00
   -1    3    8     -2.94      0.00
   -1    3    9     -2.00      0.00
   -1    3   10     -0.90      0.00
   -1    3   11     -0.69      0.00
    1   -4   11     -0.48      0.00
    1   -4   10     -0.27      0.00
    1   -4    4      0.58      0.00
    1   -4    3     -1.45      0.00
    1   -4    1      0.26      0.00
   -1    4    0      1.04      0.00
   -1    4    1     -2.23      0.00
   -1    4    2      0.67      0.00
   -1    4    3      1.88      0.00
   -1    4    4     -2.29      0.00
   -1    4    5     -2.88      0.00
   -1    4    6     -0.46      0.00
   -1    4    7     -1.41      0.00
   -1    4    8     -2.79      0.00
   -1    4    9     -0.36      0.00
   -1    4   10      0.48      0.00
   -1    4   11     -0.26      0.00
    1   -5   11     -0.43      0.00
    1   -5    2      0.69      0.00
    1   -5    1      2.73      0.00
   -1    5    0      3.02      0.00
   -1    5    1      1.03      0.00
   -1    5    2      2.24      0.00
   -1    5    3      2.64      0.00
   -1    5    4     -0.51      0.00
   -1    5    5     -1.18      0.00
   -1    5    6      0.42      0.00
   -1    5    7      0.31      0.00
   -1    5    8     -0.73      0.00
   -1    5    9      0.37      0.00
   -1    5   10      0.89      0.00
   -1    5   11     -0.28      0.00
    1   -6    2      2.06      0.00
    1   -6    1      3.13      0.00
   -1    6    0     -0.16      0.00
   -1    6    1     -2.41      0.00
   -1    6    2      0.00      0.00
   -1    6    3      1.99      0.00
   -1    6    4      0.54      0.00
   -1    6    5     -0.16      0.00
   -1    6    6      0.08      0.00
   -1    6    7      0.58      0.00
   -1    6    8      0.34      0.00
   -1    6    9      0.01      0.00
   -1    6   10      0.69      0.00
    1   -7    2      0.88      0.00
    1   -7    1      3.20      0.00
   -1    7    0      0.81      0.00
   -1    7    1     -2.30      0.00
   -1    7    2     -2.15      0.00
   -1    7    3     -0.39      0.00
   -1    7    4      0.26      0.00
   -1    7    5     -0.24      0.00
   -1    7    6     -1.81      0.00
   -1    7    7     -1.19      0.00
   -1    7    8      0.10      0.00
   -1    7    9     -0.34      0.00
    1   -8    2      0.55      0.00
    1   -8    1      1.21      0.00
   -1    8    0      0.79      0.00
   -1    8    1     -0.26      0.00
   -1    8    2     -1.65      0.00
   -1    8    3     -1.43      0.00
   -1    8    4      0.82      0.00
   -1    8    5      1.43      0.00
   -1    8    6     -0.80      0.00
   -1    8    7     -0.93      0.00
   -1    8    8      0.35      0.00
   -1    8    9     -0.28      0.00
    1   -9    3      0.10      0.00
    1   -9    2      1.80      0.00
    1   -9    1      1.55      0.00
   -1    9    0      0.80      0.00
   -1    9    1      0.39      0.00
   -1    9    2     -0.45      0.00
   -1    9    3     -0.59      0.00
   -1    9    4      0.77      0.00
   -1    9    5      0.70      0.00
   -1    9    6     -1.06      0.00
   -1    9    7     -0.86      0.00
   -1    9    8      0.50      0.00
    1  -10    3     -0.53      0.00
    1  -10    2     -0.26      0.00
    1  -10    1      0.59      0.00
   -1   10    0      0.41      0.00
   -1   10    1     -1.30      0.00
   -1   10    2     -1.94      0.00
   -1   10    3     -0.27      0.00
   -1   10    4      1.27      0.00
   -1   10    5      0.69      0.00
   -1   10    6     -0.81      0.00
   -1   10    7     -1.02      0.00
    1  -11    3      0.64      0.00
    1  -11    2     -1.29      0.00
    1  -11    1     -0.59      0.00
   -1   11    0      1.17      0.00
   -1   11    1     -0.31      0.00
   -1   11    2     -1.67      0.00
   -1   11    3      0.14      0.00
   -1   11    4      1.56      0.00
   -1   11    5      1.34      0.00
    1  -12    3      1.14      0.00
    1  -12    2     -0.62      0.00
    1  -12    1     -1.20      0.00
   -1   12    0      0.89      0.00
   -1   12    1      0.89      0.00
   -1   12    2     -0.52      0.00
   -1   12    3     -0.10      0.00
    0  -12    1      0.16      0.00
    0  -12    2     -0.84      0.00
    0  -12    3      0.58      0.00
    0  -12    4      1.32      0.00
    0  -12    5      0.01      0.00
    0  -11    2     -1.40      0.00
    0  -11    3     -0.52      0.00
    0  -11    4      1.63      0.00
    0  -11    5      0.50      0.00
    0  -11    6     -0.43      0.00
    0  -11    7     -0.41      0.00
    0  -10    2     -0.14      0.00
    0  -10    3     -1.18      0.00
    0  -10    4      0.16      0.00
    0  -10    5      0.82      0.00
    0  -10    6      0.81      0.00
    0  -10    7     -0.06      0.00
    0  -10    8     -0.92      0.00
    0   -9    2      2.33      0.00
    0   -9    3      0.79      0.00
    0   -9    4     -1.24      0.00
    0   -9    5     -0.72      0.00
    0   -9    6      1.14      0.00
    0   -9    7      0.55      0.00
    0   -9    8     -1.11      0.00
    0   -9    9     -0.65      0.00
    0   -8    2      1.11      0.00
    0   -8    3      0.78      0.00
    0   -8    4     -1.81      0.00
    0   -8    5     -1.52      0.00
    0   -8    6      1.09      0.00
    0   -8    7      1.01      0.00
    0   -8    8      0.03      0.00
    0   -8    9     -0.04      0.00
    0   -8   10     -0.11      0.00
    0   -7    2      1.28      0.00
    0   -7    3     -0.81      0.00
    0   -7    4     -2.20      0.00
    0   -7    5     -0.38      0.00
    0   -7    6      1.60      0.00
    0   -7    7      0.01      0.00
    0   -7    8     -0.32      0.00
    0   -7    9      0.40      0.00
    0   -7   10     -0.50      0.00
    0    6    7      0.87      0.00
    0    6    6      0.00      0.00
    0    6    5     -0.57      0.00
    0    6    0     -1.57      0.00
    0   -6    1      3.87      0.00
    0   -6    2      4.39      0.00
    0   -6    3     -0.80      0.00
    0   -6    4     -3.35      0.00
    0   -6    5     -0.83      0.00
    0   -6    6      2.11      0.00
    0   -6    7      0.59      0.00
    0   -6    8     -0.50      0.00
    0   -6    9      0.09      0.00
    0   -6   10     -0.69      0.00
    0   -6   11     -1.16      0.00
    0    5    8     -0.76      0.00
    0    5    7     -0.55      0.00
    0    5    6      0.72      0.00
    0    5    5     -0.66      0.00
    0    5    4     -2.42      0.00
    0    5    1     -1.16      0.00
    0    5    0     -3.77      0.00
    0   -5    1      1.42      0.00
    0   -5    2      3.50      0.00
    0   -5    3     -0.21      0.00
    0   -5    4     -2.15      0.00
    0   -5    5     -2.08      0.00
    0   -5    6      0.14      0.00
    0   -5    7      1.46      0.00
    0   -5    8      1.38      0.00
    0   -5    9      0.45      0.00
    0   -5   10     -0.09      0.00
    0   -5   11     -0.06      0.00
    0    4    9      0.93      0.00
    0    4    8     -0.14      0.00
    0    4    7     -1.33      0.00
    0    4    6      1.49      0.00
    0    4    5      2.06      0.00
    0    4    4     -2.29      0.00
    0    4    3     -2.94      0.00
    0    4    2      1.45      0.00
    0    4    1      0.40      0.00
    0    4    0     -3.06      0.00
    0   -4    1     -0.63      0.00
    0   -4    2     -1.27      0.00
    0   -4    3     -3.05      0.00
    0   -4    4      0.02      0.00
    0   -4    5     -0.97      0.00
    0   -4    6     -2.67      0.00
    0   -4    7     -0.96      0.00
    0   -4    8      1.46      0.00
    0   -4    9      0.51      0.00
    0   -4   10     -0.76      0.00
    0   -4   11     -0.45      0.00
    0    3   10     -2.18      0.00
    0    3    9     -1.06      0.00
    0    3    8     -0.23      0.00
    0    3    7      0.71      0.00
    0    3    6      4.53      0.00
    0    3    5      5.90      0.00
    0    3    4      0.98      0.00
    0    3    3     -1.73      0.00
    0    3    2      2.17      0.00
    0    3    1      3.28      0.00
    0    3    0      0.20      0.00
    0   -3    1      1.35      0.00
    0   -3    2     -0.21      0.00
    0   -3    3     -3.55      0.00
    0   -3    4      2.12      0.00
    0   -3    5      4.22      0.00
    0   -3    6      1.18      0.00
    0   -3    7      0.35      0.00
    0   -3    8      1.66      0.00
    0   -3    9      1.08      0.00
    0   -3   10     -0.29      0.00
    0   -3   11     -0.58      0.00
    0    2   11      0.55      0.00
    0    2   10      0.16      0.00
    0    2    9     -0.22      0.00
    0    2    8      0.23      0.00
    0    2    7      2.76      0.00
    0    2    6      6.74      0.00
    0    2    5      5.56      0.00
    0    2    4     -5.07      0.00
    0    2    3    -14.01      0.00
    0    2    2    -10.31      0.00
    0    2    1      1.05      0.00
    0    2    0     -0.37      0.00
    0   -2    1     -7.89      0.00
    0   -2    2     -3.05      0.00
    0   -2    3      0.07      0.00
    0   -2    4      1.54      0.00
    0   -2    5      2.13      0.00
    0   -2    6      0.35      0.00
    0   -2    7     -0.28      0.00
    0   -2    8     -0.72      0.00
    0   -2    9     -0.96      0.00
    0   -2   10     -0.83      0.00
    0    1   11      0.28      0.00
    0    1   10      1.19      0.00
    0    1    9      0.11      0.00
    0    1    8     -1.07      0.00
    0    1    7     -1.55      0.00
    0    1    6     -0.71      0.00
    0    1    5     -0.47      0.00
    0    1    4    -10.05      0.00
    0    1    3    -25.43      0.00
    0    1    2    -25.47      0.00
    0    1    1      6.87      0.00
    0   -1    2    -18.77      0.00
    0   -1    3     -1.53      0.00
    0   -1    4      2.87      0.00
    0   -1    5     -0.78      0.00
    0   -1    6     -2.76      0.00
    0   -1    7     -0.81      0.00
    0   -1    8     -1.04      0.00
    0    0   12     -0.69      0.00
    0    0   11      0.54      0.00
    0    0   10      1.19      0.00
    0    0    9     -0.22      0.00
    0    0    8     -0.38      0.00
    0    0    7     -0.72      0.00
    0    0    6     -1.56      0.00
    0    0    5      3.88      0.00
    0    0    4      8.49      0.00
    0    0    3      2.31      0.00
    0    0    2     -2.03      0.00
    0   -1   12     -0.82      0.00
    0   -1   11     -0.10      0.00
    0   -1   10      0.11      0.00
    0   -1    9     -1.16      0.00
    0   -1    1    -12.42      0.00
    0    1   12     -0.99      0.00
    0   -2   12     -1.14      0.00
    0   -2   11     -0.99      0.00
    0   -3   12     -0.27      0.00
    0    3   11     -0.32      0.00
    0    4   10     -1.18      0.00
    0    4   11     -0.39      0.00
    0    5    2      2.68      0.00
    0    5    3      0.16      0.00
    0    5    9      0.86      0.00
    0    5   10     -0.07      0.00
    0    6    1     -2.42      0.00
    0    6    2      1.52      0.00
    0    6    3      3.52      0.00
    0    6    4      1.57      0.00
    0    6    8     -0.33      0.00
    0    6    9      0.22      0.00
    0    6   10      0.42      0.00
    0   -7    1      2.02      0.00
    0    7    0      0.45      0.00
    0    7    1     -1.76      0.00
    0    7    2     -1.23      0.00
    0    7    3      1.82      0.00
    0    7    4      2.18      0.00
    0    7    5     -1.23      0.00
    0    7    6     -1.91      0.00
    0    7    7      0.39      0.00
    0    7    8      0.09      0.00
    0    7    9      0.26      0.00
    0   -8    1      0.53      0.00
    0    8    0      0.32      0.00
    0    8    1     -1.48      0.00
    0    8    2     -2.26      0.00
    0    8    3      0.86      0.00
    0    8    4      2.43      0.00
    0    8    5     -0.88      0.00
    0    8    6     -2.06      0.00
    0    8    7     -0.14      0.00
    0    8    8     -0.34      0.00
    0   -9    1      2.38      0.00
    0    9    0      1.17      0.00
    0    9    1     -1.28      0.00
    0    9    2     -2.01      0.00
    0    9    3      1.05      0.00
    0    9    4      2.60      0.00
    0    9    5     -0.34      0.00
    0    9    6     -1.43      0.00
    0    9    7      0.19      0.00
    0  -10    1      2.00      0.00
    0   10    0      1.13      0.00
    0   10    1     -1.53      0.00
    0   10    2     -2.21      0.00
    0   10    3     -0.11      0.00
    0   10    4      1.39      0.00
    0   10    5     -0.15      0.00
    0   10    6     -1.59      0.00
    0  -11    1      0.78      0.00
    0   11    0      0.64      0.00
    0   11    1     -1.16      0.00
    0   11    2     -1.14      0.00
    0   11    3     -0.06      0.00
    0   11    4      0.93      0.00
    0   11    5      1.01      0.00
    0   12    0      0.43      0.00
    0   12    1     -0.57      0.00
    0   12    2     -0.21      0.00
    0   12    3      0.49      0.00
    1  -12    4      0.34      0.00
    1  -12    5     -0.40      0.00
    1  -11    4      0.92      0.00
    1  -11    5      0.20      0.00
    1  -11    6     -0.18      0.00
    1  -11    7     -0.83      0.00
    1  -10    4     -0.30      0.00
    1  -10    5      0.66      0.00
    1  -10    6      1.01      0.00
    1  -10    7     -0.46      0.00
    1  -10    8     -0.90      0.00
    1   -9    4     -1.08      0.00
    1   -9    5     -0.19      0.00
    1   -9    6      0.28      0.00
    1   -9    7     -0.10      0.00
    1   -9    8     -0.45      0.00
    1   -9    9     -0.31      0.00
    1   -8    3     -1.29      0.00
    1   -8    4     -0.88      0.00
    1   -8    5      0.78      0.00
    1   -8    6     -0.64      0.00
    1   -8    7     -0.86      0.00
    1   -8    8      0.39      0.00
    1   -8    9     -0.29      0.00
    1   -8   10     -0.66      0.00
    1   -7    3     -2.98      0.00
    1   -7    4     -1.74      0.00
    1   -7    5      2.12      0.00
    1   -7    6      0.21      0.00
    1   -7    7     -1.48      0.00
    1   -7    8      0.61      0.00
    1   -7    9      0.51      0.00
    1   -7   10     -0.06      0.00
    1   -6    3     -1.59      0.00
    1   -6    4     -3.14      0.00
    1   -6    5     -0.07      0.00
    1   -6    6      1.03      0.00
    1   -6    7     -0.20      0.00
    1   -6    8     -0.05      0.00
    1   -6    9     -0.71      0.00
    1   -6   10     -0.94      0.00
    1   -6   11     -0.15      0.00
    1   -5    3      1.90      0.00
    1   -5    4     -0.18      0.00
    1   -5    5     -2.08      0.00
    1   -5    6      0.07      0.00
    1   -5    7      2.23      0.00
    1   -5    8      1.80      0.00
    1   -5    9     -0.42      0.00
    1   -5   10     -0.87      0.00
    1   -4    2     -5.33      0.00
    1   -4    5     -2.94      0.00
    1   -4    6     -2.62      0.00
    1   -4    7      0.68      0.00
    1   -4    8      2.23      0.00
    1   -4    9      0.58      0.00
    1   -3    6      0.44      0.00
    1   -3    7      1.30      0.00
    1   -3    8      1.80      0.00
    1   -2    1     -7.13      0.00
    1   -2    6      1.00      0.00
   -1    0    9      1.05      0.00
   -1    0    8      1.49      0.00
   -1   -1   10     -0.46      0.00
   -1   -2   11     -0.56      0.00
    1    2    0      5.07      0.00
    1    3    0      3.81      0.00
    1    3   11      0.59      0.00
    1    4    1      4.19      0.00
    1    4   10     -1.19      0.00
    1    5    1     -1.21      0.00
    1    5    2     -0.01      0.00
    1    5    9      0.56      0.00
    1    5   10     -0.38      0.00
    1    6    1     -3.25      0.00
    1    6    2      1.02      0.00
    1    6    3      2.69      0.00
    1    6    4      0.05      0.00
    1    6    8      0.02      0.00
    1    6    9      0.55      0.00
   -1   -7    1      0.58      0.00
    1    7    0     -1.18      0.00
    1    7    1     -2.34      0.00
    1    7    2      0.97      0.00
    1    7    3      3.63      0.00
    1    7    4      0.52      0.00
    1    7    5     -1.76      0.00
    1    7    6      0.30      0.00
    1    7    7      0.48      0.00
    1    7    8      0.00      0.00
   -1   -8    1      0.48      0.00
    1    8    0     -1.60      0.00
    1    8    1     -3.42      0.00
    1    8    2      0.21      0.00
    1    8    3      3.57      0.00
    1    8    4     -0.01      0.00
    1    8    5     -2.77      0.00
    1    8    6     -0.45      0.00
    1    8    7      0.11      0.00
    1    8    8     -0.22      0.00
   -1   -9    1      2.98      0.00
    1    9    0     -0.05      0.00
    1    9    1     -3.54      0.00
    1    9    2     -0.91      0.00
    1    9    3      3.62      0.00
    1    9    4      1.64      0.00
    1    9    5     -1.55      0.00
    1    9    6     -0.48      0.00
    1    9    7      0.13      0.00
   -1  -10    1      2.09      0.00
    1   10    0      0.70      0.00
    1   10    1     -2.14      0.00
    1   10    2     -2.31      0.00
    1   10    3      0.91      0.00
    1   10    4      1.89      0.00
    1   10    5     -0.13      0.00
   -1  -11    1      0.23      0.00
    1   11    0     -0.20      0.00
    1   11    1     -0.33      0.00
    1   11    2     -1.01      0.00
    1   11    3     -0.57      0.00
    1   11    4      0.94      0.00
    1   12    0     -0.94      0.00
    1   12    1     -0.30      0.00
    1   12    2      0.38      0.00
    2  -12    3      0.13      0.00
    2  -12    4     -0.27      0.00
    2  -12    5      0.24      0.00
    2  -11    3     -0.12      0.00
    2  -11    4     -0.37      0.00
    2  -11    5      0.46      0.00
    2  -11    6     -0.03      0.00
    2  -10    3      0.00      0.00
    2  -10    4     -0.37      0.00
    2  -10    5      0.37      0.00
    2  -10    6      0.42      0.00
    2  -10    7     -0.56      0.00
    2  -10    8     -0.43      0.00
    2   -9    3      0.31      0.00
    2   -9    4      0.73      0.00
    2   -9    5     -0.26      0.00
    2   -9    6     -0.03      0.00
    2   -9    7      1.03      0.00
    2   -9    8      0.61      0.00
    2   -8    3     -1.36      0.00
    2   -8    4      2.14      0.00
    2   -8    5      0.28      0.00
    2   -8    6     -1.90      0.00
    2   -8    7      0.24      0.00
    2   -8    8      0.46      0.00
    2   -8    9     -0.58      0.00
    2   -7    3     -2.06      0.00
    2   -7    4      1.53      0.00
    2   -7    5      1.25      0.00
    2   -7    6     -1.68      0.00
    2   -7    7     -0.20      0.00
    2   -7    8      0.52      0.00
    2   -7    9      0.12      0.00
    2   -7   10      0.47      0.00
    2   -6    2      1.49      0.00
    2   -6    3     -0.19      0.00
    2   -6    4     -1.29      0.00
    2   -6    5     -0.67      0.00
    2   -6    6     -0.55      0.00
    2   -6    7      0.48      0.00
    2   -6    8     -0.28      0.00
    2   -6    9     -0.85      0.00
    2   -5    2      1.81      0.00
    2   -5    3      3.73      0.00
    2   -5    4     -0.55      0.00
    2   -5    5     -2.15      0.00
    2   -5    6     -0.55      0.00
    2   -5    7      1.44      0.00
    2   -5    8      0.27      0.00
    2   -4    2     -2.12      0.00
    2   -4    5     -2.15      0.00
    2   -4    6     -1.12      0.00
    2   -4    7      0.71      0.00
    2   -3    1     -5.99      0.00
   -2   -3    1     -0.05      0.00
    2    3    0      4.90      0.00
   -2   -4    1     -0.85      0.00
    2    4    0      4.94      0.00
    2    4   10      0.07      0.00
   -2   -5    1     -3.00      0.00
    2    5    0     -1.52      0.00
    2    5    1     -0.15      0.00
    2    5    9     -0.66      0.00
   -2   -6    1     -0.97      0.00
    2    6    0     -2.46      0.00
    2    6    1     -1.14      0.00
    2    6    2      1.50      0.00
    2    6    3      0.75      0.00
    2    6    8      0.93      0.00
    2    6    9     -0.21      0.00
   -2   -7    1      0.15      0.00
    2    7    0     -2.41      0.00
    2    7    1     -0.32      0.00
    2    7    2      3.03      0.00
    2    7    3      0.92      0.00
    2    7    4     -1.74      0.00
    2    7    5      0.36      0.00
    2    7    7      0.06      0.00
    2    7    8      0.59      0.00
   -2   -8    1      0.72      0.00
    2    8    0     -3.92      0.00
    2    8    1     -2.23      0.00
    2    8    2      3.22      0.00
    2    8    3      1.89      0.00
    2    8    4     -2.04      0.00
    2    8    5     -0.36      0.00
    2    8    6      1.02      0.00
    2    8    7      0.10      0.00
   -2   -9    1      2.73      0.00
    2    9    0     -1.68      0.00
    2    9    1     -3.07      0.00
    2    9    2      1.39      0.00
    2    9    3      2.70      0.00
    2    9    4     -0.49      0.00
    2    9    5     -0.96      0.00
    2    9    6     -0.21      0.00
   -2  -10    1      1.75      0.00
    2   10    0      0.48      0.00
    2   10    1     -2.36      0.00
    2   10    2     -1.62      0.00
    2   10    3      1.08      0.00
    2   10    4      0.85      0.00
    2   10    5     -0.42      0.00
    2   11    0      0.76      0.00
    2   11    1     -0.10      0.00
    2   11    2     -1.38      0.00
    2   11    3     -0.09      0.00
    2   12    0     -0.29      0.00
    3  -12    2     -0.25      0.00
    3  -12    3     -0.48      0.00
    3  -12    4      0.51      0.00
    3  -11    2      0.22      0.00
    3  -11    3     -1.17      0.00
    3  -11    4     -0.22      0.00
    3  -11    5      1.07      0.00
    3  -11    6      0.18      0.00
    3  -10    2      1.18      0.00
    3  -10    3      0.22      0.00
    3  -10    4     -1.19      0.00
    3  -10    5     -0.59      0.00
    3  -10    6     -0.07      0.00
    3  -10    7     -0.10      0.00
    3   -9    2      0.00      0.00
    3   -9    3      2.45      0.00
    3   -9    4      0.66      0.00
    3   -9    5     -1.27      0.00
    3   -9    6      0.19      0.00
    3   -9    7      1.11      0.00
    3   -9    8      0.81      0.00
    3   -8    2     -2.20      0.00
    3   -8    3      1.26      0.00
    3   -8    4      1.41      0.00
    3   -8    5     -1.20      0.00
    3   -8    6      0.11      0.00
    3   -8    7      0.90      0.00
    3   -8    8      0.09      0.00
    3   -7    2      0.20      0.00
    3   -7    3      1.19      0.00
    3   -7    4      0.54      0.00
    3   -7    5     -1.56      0.00
    3   -7    6      0.34      0.00
    3   -7    7      1.10      0.00
    3   -6    2      2.58      0.00
    3   -6    3      2.30      0.00
    3   -6    4     -0.04      0.00
    3   -6    5     -1.84      0.00
    3   -6    6      0.38      0.00
    3   -5    1     -0.30      0.00
    3   -5    2      3.44      0.00
    3   -5    3      2.63      0.00
    3   -5    4      0.35      0.00
    3   -5    5     -1.75      0.00
    3   -4    1      1.84      0.00
    3   -4    2      2.11      0.00
   -3   -4    1      1.51      0.00
    3    4    0      0.31      0.00
   -3   -5    1     -0.01      0.00
    3    5    0     -1.94      0.00
    3    5    1     -1.84      0.00
   -3   -6    1     -0.81      0.00
    3    6    0     -0.47      0.00
    3    6    1      0.65      0.00
    3    6    2      0.61      0.00
    3    6    8     -0.04      0.00
   -3   -7    1     -1.86      0.00
    3    7    0     -1.59      0.00
    3    7    1      2.33      0.00
    3    7    2      1.44      0.00
    3    7    3     -2.04      0.00
    3    7    4     -0.98      0.00
    3    7    7      0.18      0.00
   -3   -8    1     -0.41      0.00
    3    8    0     -3.19      0.00
    3    8    1      0.57      0.00
    3    8    2      2.15      0.00
    3    8    3     -0.74      0.00
    3    8    4     -0.77      0.00
    3    8    5      0.91      0.00
    3    8    6      0.48      0.00
   -3   -9    1      1.96      0.00
    3    9    0     -1.18      0.00
    3    9    1     -0.82      0.00
    3    9    2      1.30      0.00
    3    9    3      0.83      0.00
    3    9    4      0.18      0.00
    3    9    5      0.35      0.00
    3   10    0      0.26      0.00
    3   10    1     -1.58      0.00
    3   10    2     -0.84      0.00
    3   10    3     -0.01      0.00
    3   10    4     -0.30      0.00
    3   11    0      0.70      0.00
    3   11    1     -0.84      0.00
    3   11    2     -1.05      0.00
    4  -12    2     -0.87      0.00
    4  -12    3     -0.15      0.00
    4  -11    2     -0.11      0.00
    4  -11    3     -0.74      0.00
    4  -11    4      0.71      0.00
    4  -11    5      0.74      0.00
    4  -10    2      1.33      0.00
    4  -10    3     -0.82      0.00
    4  -10    4     -1.61      0.00
    4  -10    5     -0.64      0.00
    4  -10    6      0.25      0.00
    4   -9    1     -1.26      0.00
    4   -9    2      1.70      0.00
    4   -9    3      1.32      0.00
    4   -9    4     -1.17      0.00
    4   -9    5     -1.03      0.00
    4   -9    6     -0.04      0.00
    4   -8    1     -0.98      0.00
    4   -8    2      0.60      0.00
    4   -8    3      0.34      0.00
    4   -8    4     -1.56      0.00
    4   -8    5     -0.15      0.00
    4   -7    1      0.50      0.00
    4   -7    2      2.83      0.00
    4   -7    3      0.44      0.00
    4   -7    4     -3.72      0.00
   -4   -1   12     -0.05      0.00
   -4   -5    1     -0.25      0.00
    4    5    0     -3.62      0.00
   -4   -6    1     -0.93      0.00
    4    6    0     -0.08      0.00
    4    6    1     -0.47      0.00
   -4   -7    1     -3.20      0.00
    4    7    0     -0.55      0.00
    4    7    1      0.80      0.00
    4    7    2     -0.97      0.00
    4    7    3     -1.13      0.00
    4    8    0     -1.77      0.00
    4    8    1     -0.37      0.00
    4    8    2     -0.31      0.00
    4    8    3     -0.45      0.00
    4    8    4     -0.08      0.00
    4    8    5     -0.46      0.00
    4    9    0     -0.18      0.00
    4    9    1     -0.72      0.00
    4    9    2     -0.18      0.00
    4    9    3      0.48      0.00
    4    9    4      0.70      0.00
    4   10    0      0.61      0.00
    4   10    1     -0.21      0.00
    4   10    2     -0.49      0.00
    4   10    3     -0.59      0.00
    4   11    0     -0.16      0.00
   -5    0   12     -0.33      0.00
   -5   -1   12     -0.34      0.00
    5    5    0     -0.62      0.00
    5    6    0      1.02      0.00
    5    6    1     -0.09      0.00
    5    7    0      0.04      0.00
    5    7    1     -0.29      0.00
    5    7    2     -0.07      0.00
    5    7    3      0.42      0.00
    5    8    0     -1.05      0.00
    5    8    1     -1.27      0.00
    5    8    2      0.07      0.00
    5    8    3      0.76      0.00
    5    8    4      0.02      0.00
    5    9    0     -0.72      0.00
    5    9    1     -1.43      0.00
    5    9    2     -0.58      0.00
    5    9    3      0.34      0.00
    5   10    1      0.04      0.00
   -6    1   12      0.16      0.00
   -6    1    5      3.12      0.00
   -6    0   12      0.03      0.00
   -6    0   11      0.30      0.00
   -6   -1   12     -0.62      0.00
    6    6    0      0.63      0.00
    6    6    1      0.22      0.00
    6    7    0     -0.74      0.00
    6    7    1     -0.09      0.00
    6    7    2      0.60      0.00
    6    8    1     -0.30      0.00
    6    8    2      0.46      0.00
    6    8    3      0.81      0.00
    6    9    1     -0.24      0.00
   -7   11    2      0.57      0.00
   -7   11    1     -0.01      0.00
   -7   10    2      0.15      0.00
   -7    2   12      1.10      0.00
   -7    2    5      2.97      0.00
   -7    1   12      0.52      0.00
   -7    1   11     -0.37      0.00
   -7    1    6      0.52      0.00
   -7    1    5      2.17      0.00
   -7    0   12      0.49      0.00
   -7    0   11      0.04      0.00
   -7   -1   12     -0.33      0.00
    7    7    1     -0.81      0.00
    7    7    2      0.83      0.00
   -8   10    3     -0.66      0.00
   -8   10    2      0.33      0.00
   -8    9    3     -1.73      0.00
   -8    3    6      1.57      0.00
   -8    2   11      0.03      0.00
   -8    2    7     -1.04      0.00
   -8    2    6      0.75      0.00
   -8    2    5      1.46      0.00
   -8    1   12      0.38      0.00
   -8    1   11      0.30      0.00
   -8    1    9     -0.35      0.00
   -8    1    8     -0.23      0.00
   -8    1    7      0.31      0.00
   -8    1    6      0.68      0.00
   -8    1    5      1.93      0.00
   -8    0   12      0.39      0.00
   -8    0   11      0.23      0.00
   -8    0   10      0.24      0.00
   -8    0    9     -1.00      0.00
   -8   -1   12     -0.16      0.00
   -9    9    5      1.90      0.00
   -9    9    4      0.93      0.00
   -9    9    3     -1.13      0.00
   -9    9    2     -0.20      0.00
   -9    8    5     -0.27      0.00
   -9    8    4     -0.59      0.00
   -9    7    5      0.95      0.00
   -9    7    4      1.14      0.00
   -9    6    6      0.19      0.00
   -9    5    6     -0.67      0.00
   -9    4    7      2.12      0.00
   -9    4    6      1.20      0.00
   -9    3   11      0.67      0.00
   -9    3    8     -0.36      0.00
   -9    3    7      0.79      0.00
   -9    3    6      1.72      0.00
   -9    2   11      0.15      0.00
   -9    2   10     -0.75      0.00
   -9    2    9     -0.97      0.00
   -9    2    8     -0.59      0.00
   -9    2    7     -0.89      0.00
   -9    2    6     -0.03      0.00
   -9    1   11      0.94      0.00
   -9    1   10     -0.02      0.00
   -9    1    9     -0.66      0.00
   -9    1    8      0.28      0.00
   -9    1    7      0.96      0.00
   -9    1    6      1.51      0.00
   -9    1    5     -0.10      0.00
   -9    0   11      0.60      0.00
   -9    0   10      0.23      0.00
   -9    0    9     -0.89      0.00
   -9    0    8     -1.10      0.00
   -9    0    7      0.42      0.00
   -9    0    6      2.57      0.00
   -9    0    5      0.17      0.00
   -9   -1   11      0.13      0.00
   -9   -5    1     -0.46      0.00
   -9   -6    1     -1.13      0.00
    9    6    0      0.61      0.00
  -10    8    5      0.02      0.00
  -10    8    4     -1.32      0.00
  -10    8    3      0.11      0.00
  -10    7    7     -1.07      0.00
  -10    7    6     -0.29      0.00
  -10    7    5      0.70      0.00
  -10    7    4     -0.57      0.00
  -10    6    8      0.51      0.00
  -10    6    7      0.25      0.00
  -10    6    6     -0.14      0.00
  -10    6    5      1.17      0.00
  -10    5    9     -0.75      0.00
  -10    5    8      0.35      0.00
  -10    5    7      0.73      0.00
  -10    5    6     -0.98      0.00
  -10    4    9     -0.69      0.00
  -10    4    8      0.04      0.00
  -10    4    7      0.84      0.00
  -10    4    6     -0.44      0.00
  -10    3   10      0.08      0.00
  -10    3    9      0.27      0.00
  -10    3    8      0.26      0.00
  -10    3    7      0.92      0.00
  -10    3    6      0.75      0.00
  -10    2   10     -1.46      0.00
  -10    2    9     -0.72      0.00
  -10    2    8     -0.40      0.00
  -10    2    7      0.33      0.00
  -10    2    6     -0.15      0.00
  -10    1   10     -0.61      0.00
  -10    1    9     -1.02      0.00
  -10    1    8     -0.53      0.00
  -10    1    7      1.87      0.00
  -10    1    6      1.31      0.00
  -10    1    5     -2.29      0.00
  -10    0   10      0.20      0.00
  -10    0    9     -0.42      0.00
  -10    0    8     -0.90      0.00
  -10    0    7      1.91      0.00
  -10    0    6      3.07      0.00
  -10    0    5     -0.99      0.00
  -10   -1   10     -0.16      0.00
  -10   -2    4      0.49      0.00
  -10   -3    4      0.25      0.00
  -10   -3    3      0.25      0.00
  -10   -4    4      0.16      0.00
  -10   -4    3     -0.96      0.00
  -10   -4    2     -0.70      0.00
  -10   -5    4      1.04      0.00
  -10   -5    3     -0.27      0.00
  -10   -5    2     -1.76      0.00
  -10   -5    1     -1.04      0.00
  -10   -6    4      0.26      0.00
  -11    6    6     -0.04      0.00
  -11    6    5      0.62      0.00
  -11    5    7      0.78      0.00
  -11    5    6      0.10      0.00
  -11    4    8      0.18      0.00
  -11    4    7     -0.16      0.00
  -11    4    6      0.01      0.00
  -11    3    8      0.80      0.00
  -11    3    7     -0.12      0.00
  -11    3    6     -0.88      0.00
  -11    2    9     -0.64      0.00
  -11    2    8      0.84      0.00
  -11    2    7      1.40      0.00
  -11    2    6     -1.01      0.00
  -11    1    9     -2.01      0.00
  -11    1    8     -0.38      0.00
  -11    1    7      2.21      0.00
  -11    1    6      0.33      0.00
  -11    1    5     -2.02      0.00
  -11    0    9     -1.07      0.00
  -11    0    8     -1.04      0.00
  -11    0    7      1.24      0.00
  -11    0    6      1.35      0.00
  -11    0    5     -0.30      0.00
  -11   -1    8     -0.74      0.00
  -11   -1    7     -0.02      0.00
  -11   -1    6      0.18      0.00
  -11   -1    5      0.91      0.00
  -11   -1    4     -0.22      0.00
  -11   -2    8     -0.66      0.00
  -11   -2    7      0.26      0.00
  -11   -2    6     -0.40      0.00
  -11   -2    5     -0.09      0.00
  -11   -2    4      0.70      0.00
  -11   -3    7     -0.29      0.00
  -11   -3    6      0.49      0.00
  -11   -3    5      0.48      0.00
  -11   -3    4      0.12      0.00
  -11   -3    3     -0.24      0.00
  -11   -4    5      1.05      0.00
  -11   -4    4      0.31      0.00
  -12    2    6     -1.36      0.00
  -12    1    6      0.57      0.00
  -12    1    5     -1.50      0.00
  -12    0    6      1.12      0.00
  -12    0    5      0.61      0.00
    1    0    0     41.70      0.00
   12    0    0      0.03      0.00
  -12    1    0     -2.19      0.00
    0    1    0     19.85      0.00
   12    1    0      1.83      0.00
  -12    2    0      0.38      0.00
   11    2    0      1.98      0.00
   12    2    0      1.74      0.00
  -12    3    0      1.33      0.00
   11    3    0     -0.63      0.00
  -12    4    0     -0.06      0.00
   11    4    0     -0.42      0.00
  -12    5    0     -0.36      0.00
   10    5    0      0.52      0.00
  -12    6    0      0.35      0.00
  -11    6    0      0.38      0.00
   10    6    0      0.68      0.00
  -11    7    0     -0.11      0.00
    9    7    0     -1.16      0.00
  -11    8    0     -1.25      0.00
    8    8    0     -0.53      0.00
    9    8    0     -0.97      0.00
  -10    9    0      0.47      0.00
    7    9    0      0.99      0.00
    8    9    0      0.94      0.00
  -10   10    0      1.06      0.00
   -9   10    0      0.11      0.00
    6   10    0     -0.05      0.00
    7   10    0      0.33      0.00
   -9   11    0     -0.56      0.00
   -8   11    0     -1.08      0.00
    5   11    0      0.19      0.00
    6   11    0      0.06      0.00
   -8   12    0      0.02      0.00
   -7   12    0      0.27      0.00
   -6   12    0     -0.01      0.00
    3   12    0      0.77      0.00
    4   12    0      0.33      0.00
    5   12    0      0.29      0.00
   -5  -12    1      0.33      0.00
   -4  -12    1      0.77      0.00
   -3  -12    1      0.35      0.00
    6  -12    1      0.28      0.00
    7  -12    1      0.58      0.00
    8  -12    1      0.56      0.00
   -6  -11    1     -0.24      0.00
   -5  -11    1     -0.11      0.00
    8  -11    1      0.28      0.00
    9  -11    1      0.22      0.00
   -7  -10    1     -0.74      0.00
    9  -10    1     -0.25      0.00
   -8   -9    1      0.25      0.00
   10   -9    1     -0.64      0.00
   -9   -8    1      1.67      0.00
   10   -8    1     -0.09      0.00
   11   -8    1      0.20      0.00
  -10   -7    1     -1.03      0.00
   -9   -7    1      0.12      0.00
   11   -7    1      0.00      0.00
  -10   -6    1     -1.46      0.00
   11   -6    1     -0.13      0.00
  -11   -5    1     -0.25      0.00
   11   -5    1     -0.02      0.00
   12   -5    1     -0.06      0.00
  -11   -4    1      0.84      0.00
   12   -4    1     -0.78      0.00
  -12   -3    1     -0.77      0.00
  -11   -3    1     -0.87      0.00
   12   -3    1     -0.18      0.00
  -12   -2    1     -0.71      0.00
   12   -2    1      1.44      0.00
  -12   -1    1      0.41      0.00
   12   -1    1     -0.54      0.00
  -12    0    1      2.09      0.00
   -1    0    1     45.69      0.00
    0    0    1     39.27      0.00
   11    0    1     -0.85      0.00
   12    0    1     -2.26      0.00
  -12    1    1     -1.68      0.00
   11    1    1     -1.10      0.00
  -12    2    1     -2.44      0.00
   11    2    1      1.93      0.00
  -12    3    1      0.29      0.00
   11    3    1      1.29      0.00
  -12    4    1      1.30      0.00
   10    4    1     -0.72      0.00
   11    4    1     -0.30      0.00
  -12    5    1      0.13      0.00
   10    5    1     -0.86      0.00
  -12    6    1      0.10      0.00
    9    6    1      2.44      0.00
   10    6    1      0.44      0.00
  -12    7    1      0.70      0.00
  -11    7    1      1.11      0.00
    9    7    1      1.79      0.00
  -11    8    1     -0.41      0.00
    8    8    1     -1.66      0.00
  -11    9    1     -0.38      0.00
  -10    9    1     -0.79      0.00
    7    9    1      0.00      0.00
  -10   10    1      0.57      0.00
   -9   10    1      0.54      0.00
    6   10    1     -0.01      0.00
    7   10    1      0.34      0.00
   -9   11    1     -0.45      0.00
   -8   11    1     -0.24      0.00
    4   11    1     -0.43      0.00
    5   11    1      0.49      0.00
   -8   12    1     -0.49      0.00
   -7   12    1     -0.63      0.00
   -6   12    1     -0.16      0.00
    2   12    1      0.45      0.00
    3   12    1      0.33      0.00
    4   12    1     -0.08      0.00
   -5  -12    2      0.65      0.00
   -4  -12    2      0.44      0.00
    6  -12    2     -0.11      0.00
    7  -12    2      0.24      0.00
   -6  -11    2     -0.08      0.00
   -5  -11    2      0.51      0.00
    7  -11    2      1.23      0.00
    8  -11    2      0.55      0.00
   -8  -10    2     -0.86      0.00
   -7  -10    2     -0.90      0.00
    8  -10    2      0.39      0.00
    9  -10    2     -1.25      0.00
   -8   -9    2     -1.12      0.00
    9   -9    2     -1.30      0.00
   10   -9    2     -0.66      0.00
   -9   -8    2      0.97      0.00
   10   -8    2      0.77      0.00
  -10   -7    2      1.42      0.00
   10   -7    2      1.55      0.00
   11   -7    2      0.85      0.00
  -11   -6    2     -0.48      0.00
  -10   -6    2      0.52      0.00
   11   -6    2     -0.15      0.00
  -11   -5    2     -1.82      0.00
   11   -5    2     -0.07      0.00
  -11   -4    2      0.08      0.00
   11   -4    2     -0.16      0.00
  -12   -3    2      0.25      0.00
   11   -3    2     -1.41      0.00
  -12   -2    2     -0.66      0.00
   11   -2    2     -0.01      0.00
  -12   -1    2     -1.76      0.00
   11   -1    2      2.14      0.00
  -12    0    2      1.46      0.00
   11    0    2      0.83      0.00
  -12    1    2      0.70      0.00
   11    1    2     -2.42      0.00
  -12    2    2     -1.97      0.00
   11    2    2     -1.57      0.00
  -12    3    2     -1.78      0.00
   10    3    2     -0.23      0.00
  -12    4    2      0.57      0.00
   10    4    2      0.34      0.00
  -12    5    2      0.99      0.00
    9    5    2     -0.77      0.00
   10    5    2     -0.64      0.00
  -12    6    2     -0.40      0.00
    9    6    2     -0.11      0.00
  -12    7    2      0.29      0.00
  -11    7    2      0.08      0.00
    8    7    2      2.15      0.00
    9    7    2      1.12      0.00
  -11    8    2     -0.19      0.00
    7    8    2     -0.07      0.00
    8    8    2      0.60      0.00
  -11    9    2     -1.16      0.00
  -10    9    2     -0.24      0.00
    6    9    2     -0.49      0.00
    7    9    2     -0.52      0.00
  -10   10    2      0.18      0.00
   -9   10    2      0.85      0.00
    5   10    2     -0.64      0.00
    6   10    2     -0.70      0.00
   -9   11    2      0.58      0.00
   -8   11    2      0.22      0.00
    4   11    2     -0.29      0.00
    5   11    2      0.05      0.00
   -8   12    2     -0.53      0.00
   -7   12    2     -0.35      0.00
   -6   12    2     -0.15      0.00
    2   12    2      0.12      0.00
    3   12    2     -0.27      0.00
   -5  -12    3      0.09      0.00
   -4  -12    3     -0.26      0.00
    5  -12    3     -0.12      0.00
    6  -12    3     -0.60      0.00
    7  -12    3     -0.54      0.00
   -7  -11    3      0.12      0.00
   -6  -11    3      1.08      0.00
    7  -11    3     -0.71      0.00
    8  -11    3     -0.65      0.00
   -8  -10    3     -0.63      0.00
   -7  -10    3     -0.95      0.00
    8  -10    3     -0.44      0.00
    9  -10    3      0.10      0.00
   -9   -9    3      0.17      0.00
   -8   -9    3     -0.41      0.00
    9   -9    3      0.16      0.00
   -9   -8    3     -0.61      0.00
    9   -8    3     -0.36      0.00
   10   -8    3     -0.07      0.00
  -10   -7    3     -0.02      0.00
   10   -7    3      0.94      0.00
  -11   -6    3      1.20      0.00
  -10   -6    3      1.41      0.00
   10   -6    3      0.47      0.00
  -11   -5    3     -0.58      0.00
   10   -5    3      0.21      0.00
   11   -5    3     -0.11      0.00
  -12   -4    3     -0.20      0.00
  -11   -4    3     -0.70      0.00
   11   -4    3      0.51      0.00
  -12   -3    3      0.12      0.00
   11   -3    3     -0.45      0.00
  -12   -2    3      0.71      0.00
   11   -2    3     -1.48      0.00
  -12   -1    3     -1.13      0.00
   11   -1    3      0.31      0.00
   11    0    3      2.29      0.00
   10    1    3     -0.16      0.00
   11    1    3      1.27      0.00
   10    2    3     -1.82      0.00
   10    3    3     -2.13      0.00
  -12    4    3     -1.13      0.00
    9    4    3      0.00      0.00
   10    4    3     -0.25      0.00
  -12    5    3      0.60      0.00
    9    5    3     -0.10      0.00
  -12    6    3     -0.02      0.00
    8    6    3     -0.13      0.00
    9    6    3     -0.62      0.00
  -12    7    3     -0.86      0.00
  -11    7    3     -0.18      0.00
    8    7    3      0.01      0.00
  -11    8    3      0.70      0.00
    7    8    3      0.51      0.00
  -11    9    3      0.63      0.00
  -10    9    3      0.93      0.00
    6    9    3      0.19      0.00
  -10   10    3     -0.06      0.00
   -9   10    3     -0.87      0.00
    5   10    3     -0.50      0.00
   -9   11    3      0.04      0.00
   -8   11    3      0.08      0.00
    3   11    3      0.00      0.00
    4   11    3     -0.33      0.00
   -8   12    3      0.17      0.00
   -7   12    3     -0.24      0.00
   -6   12    3     -0.41      0.00
    1   12    3      0.37      0.00
    2   12    3      0.06      0.00
    3   12    3     -0.21      0.00
   -5  -12    4     -0.46      0.00
   -4  -12    4      0.06      0.00
   -3  -12    4      0.35      0.00
    4  -12    4      0.76      0.00
    5  -12    4     -0.22      0.00
    6  -12    4     -0.88      0.00
   -7  -11    4      0.91      0.00
   -6  -11    4      0.67      0.00
    6  -11    4     -1.61      0.00
    7  -11    4     -1.52      0.00
   -8  -10    4     -0.78      0.00
   -7  -10    4      0.21      0.00
    7  -10    4     -1.23      0.00
    8  -10    4      0.03      0.00
   -9   -9    4      0.78      0.00
   -8   -9    4     -0.06      0.00
    8   -9    4      1.46      0.00
    9   -9    4      1.37      0.00
  -10   -8    4     -0.20      0.00
   -9   -8    4     -0.31      0.00
    9   -8    4      0.01      0.00
  -10   -7    4     -1.09      0.00
    9   -7    4     -0.75      0.00
   10   -7    4     -0.57      0.00
  -11   -6    4     -0.74      0.00
   10   -6    4     -0.25      0.00
  -11   -5    4     -0.04      0.00
   10   -5    4     -0.01      0.00
  -12   -4    4      0.55      0.00
   10   -4    4      0.24      0.00
  -12   -3    4     -0.33      0.00
   10   -3    4      0.44      0.00
  -12   -2    4      0.65      0.00
   10   -2    4      0.06      0.00
  -12   -1    4      0.32      0.00
   10   -1    4     -1.11      0.00
   10    0    4     -0.49      0.00
   10    1    4      1.62      0.00
   10    2    4      1.69      0.00
    9    3    4     -0.68      0.00
  -12    4    4     -1.29      0.00
    9    4    4     -0.69      0.00
  -12    5    4     -0.86      0.00
    8    5    4     -0.38      0.00
    9    5    4     -0.26      0.00
  -12    6    4      0.60      0.00
    8    6    4      0.34      0.00
  -12    7    4      0.01      0.00
  -11    7    4     -0.35      0.00
    7    7    4     -1.21      0.00
  -11    8    4     -0.34      0.00
    6    8    4      0.05      0.00
    7    8    4     -0.53      0.00
  -11    9    4      0.67      0.00
  -10    9    4      0.42      0.00
    5    9    4      0.17      0.00
    6    9    4      0.14      0.00
  -10   10    4     -0.61      0.00
   -9   10    4     -0.07      0.00
    4   10    4     -0.07      0.00
    5   10    4      0.30      0.00
   -9   11    4     -0.23      0.00
   -8   11    4     -0.82      0.00
    2   11    4      1.13      0.00
    3   11    4      0.33      0.00
   -8   12    4     -0.19      0.00
   -7   12    4     -0.51      0.00
   -6   12    4      0.70      0.00
   -5   12    4      1.05      0.00
   -4   12    4      0.33      0.00
   -2   12    4      0.08      0.00
   -1   12    4      0.33      0.00
    0   12    4      0.82      0.00
    1   12    4      0.78      0.00
    2   12    4      0.49      0.00
   -5  -12    5     -0.28      0.00
   -4  -12    5     -0.30      0.00
   -3  -12    5      0.22      0.00
    3  -12    5      0.67      0.00
    4  -12    5     -0.11      0.00
    5  -12    5     -0.53      0.00
   -7  -11    5      0.24      0.00
   -6  -11    5      0.07      0.00
   -5  -11    5     -0.46      0.00
    5  -11    5     -0.28      0.00
    6  -11    5     -0.68      0.00
   -8  -10    5     -0.19      0.00
   -7  -10    5     -0.57      0.00
    6  -10    5     -0.63      0.00
    7  -10    5     -0.57      0.00
   -9   -9    5      0.48      0.00
   -8   -9    5      1.42      0.00
    7   -9    5      1.29      0.00
    8   -9    5      1.32      0.00
  -10   -8    5      0.62      0.00
   -9   -8    5     -0.20      0.00
    8   -8    5      0.77      0.00
    9   -8    5      0.65      0.00
  -10   -7    5      0.17      0.00
    9   -7    5     -0.75      0.00
  -11   -6    5     -1.38      0.00
    9   -6    5     -0.96      0.00
  -11   -5    5     -0.46      0.00
    9   -5    5     -0.56      0.00
   10   -5    5     -0.59      0.00
  -12   -4    5      1.14      0.00
    9   -4    5     -0.02      0.00
   10   -4    5     -0.47      0.00
  -12   -3    5      0.46      0.00
   10   -3    5     -0.35      0.00
  -12   -2    5      0.29      0.00
   10   -2    5      0.76      0.00
  -12   -1    5      1.35      0.00
    9   -1    5     -0.29      0.00
   10   -1    5     -0.12      0.00
    9    0    5     -2.15      0.00
   10    0    5     -1.62      0.00
    9    1    5     -0.80      0.00
    9    2    5      1.48      0.00
    9    3    5      1.44      0.00
  -12    4    5      0.86      0.00
    8    4    5      1.12      0.00
  -12    5    5     -0.62      0.00
    8    5    5     -0.29      0.00
  -12    6    5      0.00      0.00
    7    6    5      0.14      0.00
  -12    7    5      0.03      0.00
  -11    7    5      0.18      0.00
    6    7    5     -0.37      0.00
    7    7    5     -0.40      0.00
  -11    8    5     -0.55      0.00
    5    8    5      0.02      0.00
    6    8    5      0.28      0.00
  -11    9    5     -0.07      0.00
  -10    9    5      1.55      0.00
    4    9    5      0.06      0.00
    5    9    5     -0.27      0.00
  -10   10    5      0.61      0.00
   -9   10    5      1.08      0.00
    3   10    5     -0.46      0.00
    4   10    5      0.19      0.00
   -9   11    5     -0.26      0.00
   -8   11    5     -0.68      0.00
   -7   11    5      0.48      0.00
    1   11    5      0.61      0.00
    2   11    5      0.49      0.00
   -7   12    5      0.11      0.00
   -6   12    5      0.64      0.00
   -5   12    5      0.07      0.00
   -4   12    5      0.03      0.00
   -3   12    5      0.35      0.00
   -2   12    5     -0.13      0.00
   -1   12    5      0.32      0.00
    0   12    5      1.02      0.00
    1   12    5      0.63      0.00
   -5  -12    6     -0.74      0.00
   -4  -12    6      0.11      0.00
   -3  -12    6      0.86      0.00
   -2  -12    6      0.05      0.00
   -1  -12    6     -0.26      0.00
    0  -12    6     -0.08      0.00
    1  -12    6     -0.17      0.00
    2  -12    6      0.18      0.00
    3  -12    6     -0.27      0.00
    4  -12    6     -0.67      0.00
   -6  -11    6      0.57      0.00
   -5  -11    6     -0.96      0.00
    4  -11    6      0.07      0.00
    5  -11    6      0.40      0.00
   -8  -10    6     -0.87      0.00
   -7  -10    6     -1.07      0.00
    5  -10    6      0.95      0.00
    6  -10    6      0.69      0.00
   -9   -9    6      0.65      0.00
   -8   -9    6      0.42      0.00
    6   -9    6      1.23      0.00
    7   -9    6      0.45      0.00
   -9   -8    6      0.81      0.00
    7   -8    6      0.76      0.00
    8   -8    6      0.03      0.00
  -10   -7    6      1.27      0.00
    8   -7    6      0.45      0.00
  -11   -6    6     -0.47      0.00
  -10   -6    6     -0.46      0.00
    8   -6    6     -0.46      0.00
    9   -6    6     -0.04      0.00
  -11   -5    6     -1.05      0.00
    8   -5    6     -1.70      0.00
    9   -5    6     -1.05      0.00
  -12   -4    6      0.26      0.00
  -11   -4    6     -0.13      0.00
    9   -4    6     -0.64      0.00
  -12   -3    6      0.36      0.00
    9   -3    6     -1.02      0.00
  -12   -2    6     -0.54      0.00
    9   -2    6     -0.03      0.00
  -12   -1    6     -0.21      0.00
    9   -1    6      0.38      0.00
    9    0    6     -0.48      0.00
    8    1    6     -0.98      0.00
    9    1    6     -1.41      0.00
    8    2    6     -0.63      0.00
  -12    3    6     -0.89      0.00
    8    3    6      0.89      0.00
  -12    4    6      1.40      0.00
    7    4    6      1.77      0.00
    8    4    6      1.39      0.00
  -12    5    6      0.64      0.00
    7    5    6      0.71      0.00
  -12    6    6     -0.09      0.00
    6    6    6     -0.22      0.00
    7    6    6      0.19      0.00
  -12    7    6      0.21      0.00
  -11    7    6      0.49      0.00
    5    7    6      0.88      0.00
    6    7    6     -0.07      0.00
  -11    8    6      0.79      0.00
  -10    8    6     -0.11      0.00
    4    8    6      0.01      0.00
    5    8    6      0.65      0.00
  -10    9    6      1.02      0.00
   -9    9    6      0.31      0.00
    3    9    6      0.05      0.00
    4    9    6      0.22      0.00
  -10   10    6      0.32      0.00
   -9   10    6      0.60      0.00
   -8   10    6      0.67      0.00
    1   10    6     -0.85      0.00
    2   10    6     -0.57      0.00
    3   10    6     -0.44      0.00
   -8   11    6      0.18      0.00
   -7   11    6      0.28      0.00
   -6   11    6     -0.20      0.00
   -5   11    6     -0.08      0.00
   -2   11    6      0.13      0.00
   -1   11    6      0.56      0.00
    0   11    6     -0.16      0.00
    1   11    6     -0.54      0.00
   -6   12    6     -0.15      0.00
   -5   12    6     -0.25      0.00
   -4   12    6     -0.06      0.00
   -3   12    6     -0.08      0.00
   -2   12    6     -0.27      0.00
   -1   12    6      0.23      0.00
   -4  -12    7      0.58      0.00
   -3  -12    7      0.22      0.00
   -2  -12    7     -0.14      0.00
   -1  -12    7      0.24      0.00
    0  -12    7      0.11      0.00
    1  -12    7     -0.11      0.00
    2  -12    7      0.02      0.00
    3  -12    7     -0.25      0.00
   -6  -11    7     -0.18      0.00
   -5  -11    7     -0.73      0.00
   -4  -11    7     -0.06      0.00
    2  -11    7     -0.70      0.00
    3  -11    7     -0.12      0.00
    4  -11    7      0.20      0.00
   -7  -10    7      0.24      0.00
   -6  -10    7     -0.07      0.00
    4  -10    7      0.90      0.00
    5  -10    7      1.26      0.00
    6  -10    7      0.40      0.00
   -8   -9    7     -0.30      0.00
   -7   -9    7      0.40      0.00
    5   -9    7      1.35      0.00
    6   -9    7      0.72      0.00
   -9   -8    7     -0.64      0.00
    6   -8    7      0.02      0.00
    7   -8    7     -0.92      0.00
  -10   -7    7      1.84      0.00
   -9   -7    7      1.63      0.00
    7   -7    7     -0.09      0.00
  -11   -6    7      0.37      0.00
  -10   -6    7      1.35      0.00
    7   -6    7     -0.07      0.00
    8   -6    7      0.76      0.00
  -11   -5    7     -0.04      0.00
    8   -5    7     -0.64      0.00
  -12   -4    7     -1.09      0.00
  -11   -4    7     -0.78      0.00
    8   -4    7     -0.61      0.00
  -12   -3    7     -0.86      0.00
    8   -3    7     -1.01      0.00
  -12   -2    7     -0.42      0.00
    8   -2    7     -0.29      0.00
  -12   -1    7     -1.02      0.00
    8   -1    7     -0.04      0.00
  -12    0    7      0.06      0.00
    8    0    7      0.38      0.00
  -12    1    7      1.74      0.00
    8    1    7      0.40      0.00
  -12    2    7      0.80      0.00
    7    2    7     -0.31      0.00
    8    2    7     -0.70      0.00
  -12    3    7     -1.02      0.00
    7    3    7     -0.89      0.00
  -12    4    7     -0.27      0.00
    6    4    7      0.33      0.00
    7    4    7     -0.48      0.00
  -12    5    7      0.38      0.00
    6    5    7      0.72      0.00
  -12    6    7     -0.02      0.00
  -11    6    7     -0.10      0.00
    5    6    7      0.28      0.00
    6    6    7      0.14      0.00
  -11    7    7     -0.59      0.00
    4    7    7      0.44      0.00
    5    7    7      0.40      0.00
  -11    8    7      0.17      0.00
  -10    8    7     -0.56      0.00
    3    8    7      0.57      0.00
    4    8    7      0.36      0.00
  -10    9    7      0.53      0.00
   -9    9    7     -0.25      0.00
    2    9    7     -0.44      0.00
    3    9    7      0.12      0.00
   -9   10    7      0.07      0.00
   -8   10    7     -0.31      0.00
   -7   10    7     -0.43      0.00
    0   10    7     -0.95      0.00
    1   10    7     -0.38      0.00
    2   10    7     -0.36      0.00
   -7   11    7     -0.12      0.00
   -6   11    7     -0.01      0.00
   -5   11    7      0.37      0.00
   -4   11    7      0.43      0.00
   -3   11    7     -0.09      0.00
   -2   11    7     -0.09      0.00
   -1   11    7     -0.07      0.00
    0   11    7     -0.59      0.00
   -3  -12    8      0.15      0.00
   -2  -12    8      0.05      0.00
   -1  -12    8      0.20      0.00
    0  -12    8      0.20      0.00
    1  -12    8     -0.02      0.00
   -5  -11    8      0.00      0.00
   -4  -11    8     -0.11      0.00
   -3  -11    8     -0.10      0.00
   -2  -11    8     -0.32      0.00
   -1  -11    8     -0.26      0.00
    0  -11    8     -0.11      0.00
    1  -11    8     -0.28      0.00
    2  -11    8      0.01      0.00
    3  -11    8      0.27      0.00
   -7  -10    8     -0.13      0.00
   -6  -10    8     -0.28      0.00
   -5  -10    8      0.33      0.00
    3  -10    8      0.11      0.00
    4  -10    8      0.24      0.00
   -8   -9    8      0.55      0.00
   -7   -9    8      0.38      0.00
    4   -9    8      0.58      0.00
    5   -9    8      0.45      0.00
   -9   -8    8     -1.24      0.00
   -8   -8    8     -0.43      0.00
    5   -8    8     -0.57      0.00
    6   -8    8     -0.69      0.00
  -10   -7    8      0.09      0.00
   -9   -7    8     -0.23      0.00
    6   -7    8     -1.14      0.00
    7   -7    8     -0.56      0.00
  -10   -6    8      0.55      0.00
    6   -6    8     -1.02      0.00
    7   -6    8      0.02      0.00
  -11   -5    8      1.69      0.00
  -10   -5    8      0.98      0.00
    7   -5    8      0.08      0.00
  -11   -4    8      0.78      0.00
    7   -4    8     -0.10      0.00
  -12   -3    8     -1.46      0.00
  -11   -3    8     -0.92      0.00
    7   -3    8     -0.47      0.00
  -12   -2    8     -0.50      0.00
    7   -2    8      0.52      0.00
  -12   -1    8     -0.30      0.00
    7   -1    8      0.10      0.00
  -12    0    8     -0.28      0.00
    7    0    8     -0.21      0.00
  -12    1    8      1.07      0.00
    7    1    8      0.86      0.00
  -12    2    8      2.00      0.00
    6    2    8      0.34      0.00
    7    2    8      0.78      0.00
  -12    3    8      0.87      0.00
    6    3    8     -0.67      0.00
  -12    4    8     -0.16      0.00
    5    4    8      0.10      0.00
    6    4    8     -0.96      0.00
  -12    5    8      0.11      0.00
  -11    5    8      0.90      0.00
    5    5    8     -0.28      0.00
  -12    6    8      0.13      0.00
  -11    6    8      0.46      0.00
    4    6    8     -0.69      0.00
    5    6    8     -0.32      0.00
  -11    7    8     -0.47      0.00
  -10    7    8     -0.86      0.00
    3    7    8      0.29      0.00
    4    7    8     -0.17      0.00
  -10    8    8     -0.57      0.00
   -9    8    8     -1.46      0.00
    2    8    8      0.57      0.00
    3    8    8      0.54      0.00
   -9    9    8     -0.24      0.00
   -8    9    8     -0.39      0.00
    0    9    8      0.32      0.00
    1    9    8     -0.22      0.00
    2    9    8     -0.08      0.00
   -8   10    8     -0.16      0.00
   -7   10    8     -0.46      0.00
   -6   10    8     -0.38      0.00
   -5   10    8      0.20      0.00
   -4   10    8      0.56      0.00
   -3   10    8      0.24      0.00
   -2   10    8     -0.27      0.00
   -1   10    8     -0.26      0.00
    0   10    8     -0.23      0.00
   -6   11    8     -0.02      0.00
   -5   11    8      0.22      0.00
   -4   11    8      0.07      0.00
   -3   11    8     -0.10      0.00
   -2   11    8      0.07      0.00
   -4  -11    9      0.04      0.00
   -3  -11    9      0.11      0.00
   -2  -11    9     -0.17      0.00
   -1  -11    9      0.12      0.00
    0  -11    9      0.37      0.00
    1  -11    9      0.21      0.00
   -6  -10    9      0.13      0.00
   -5  -10    9      0.56      0.00
   -4  -10    9      0.58      0.00
   -3  -10    9      0.27      0.00
   -2  -10    9      0.04      0.00
   -1  -10    9     -0.10      0.00
    0  -10    9     -0.06      0.00
    1  -10    9      0.10      0.00
    2  -10    9      0.28      0.00
    3  -10    9     -0.07      0.00
   -7   -9    9      0.35      0.00
   -6   -9    9     -0.29      0.00
    2   -9    9      0.24      0.00
    3   -9    9      0.16      0.00
    4   -9    9     -0.32      0.00
   -8   -8    9     -0.28      0.00
   -7   -8    9      0.00      0.00
    4   -8    9     -0.71      0.00
    5   -8    9     -0.53      0.00
   -9   -7    9     -0.44      0.00
   -8   -7    9     -0.95      0.00
    4   -7    9     -0.24      0.00
    5   -7    9     -0.71      0.00
  -10   -6    9     -0.91      0.00
   -9   -6    9     -0.25      0.00
    5   -6    9     -1.08      0.00
    6   -6    9     -0.45      0.00
  -11   -5    9      0.95      0.00
  -10   -5    9      0.09      0.00
    5   -5    9     -1.43      0.00
    6   -5    9     -0.07      0.00
  -11   -4    9      1.69      0.00
  -10   -4    9      1.10      0.00
    6   -4    9     -0.34      0.00
  -11   -3    9      0.31      0.00
    6   -3    9     -0.09      0.00
  -12   -2    9     -0.87      0.00
  -11   -2    9     -0.67      0.00
    6   -2    9      0.83      0.00
  -12   -1    9     -0.21      0.00
  -11   -1    9     -0.45      0.00
    6   -1    9     -0.02      0.00
  -12    0    9     -0.53      0.00
    6    0    9     -0.51      0.00
  -12    1    9     -0.97      0.00
    6    1    9      0.37      0.00
  -12    2    9      0.16      0.00
    5    2    9     -0.02      0.00
    6    2    9      0.29      0.00
  -12    3    9      0.95      0.00
  -11    3    9      0.89      0.00
    5    3    9      0.30      0.00
  -12    4    9      0.35      0.00
  -11    4    9      0.13      0.00
    4    4    9      0.60      0.00
    5    4    9      0.28      0.00
  -11    5    9     -0.10      0.00
    3    5    9     -0.92      0.00
    4    5    9     -0.24      0.00
  -11    6    9      0.11      0.00
  -10    6    9      0.33      0.00
    3    6    9     -1.14      0.00
    4    6    9     -0.83      0.00
  -10    7    9     -0.21      0.00
   -9    7    9      0.16      0.00
    1    7    9      0.73      0.00
    2    7    9     -0.04      0.00
    3    7    9     -0.69      0.00
  -10    8    9     -0.39      0.00
   -9    8    9     -0.25      0.00
   -8    8    9      0.19      0.00
    0    8    9     -0.55      0.00
    1    8    9      0.52      0.00
    2    8    9      0.44      0.00
   -8    9    9      0.34      0.00
   -7    9    9      0.35      0.00
   -6    9    9      0.44      0.00
   -5    9    9      0.07      0.00
   -4    9    9     -0.84      0.00
   -3    9    9     -1.19      0.00
   -2    9    9      0.02      0.00
   -1    9    9      0.54      0.00
    0    9    9     -0.08      0.00
   -7   10    9     -0.29      0.00
   -6   10    9      0.11      0.00
   -5   10    9      0.40      0.00
   -4   10    9      0.22      0.00
   -3   10    9      0.00      0.00
   -2   10    9     -0.01      0.00
   -5  -10   10      0.56      0.00
   -4  -10   10      0.42      0.00
   -3  -10   10     -0.08      0.00
   -2  -10   10      0.33      0.00
   -1  -10   10      0.43      0.00
    0  -10   10      0.31      0.00
    1  -10   10      0.44      0.00
   -7   -9   10      0.38      0.00
   -6   -9   10     -0.24      0.00
   -5   -9   10      0.35      0.00
   -4   -9   10      0.88      0.00
   -3   -9   10     -0.32      0.00
   -2   -9   10     -0.29      0.00
   -1   -9   10      0.46      0.00
    0   -9   10      0.14      0.00
    1   -9   10      0.10      0.00
    2   -9   10      0.21      0.00
    3   -9   10     -0.13      0.00
   -8   -8   10     -0.07      0.00
   -7   -8   10      0.05      0.00
   -6   -8   10      0.00      0.00
    2   -8   10     -0.64      0.00
    3   -8   10     -0.75      0.00
   -9   -7   10     -0.18      0.00
   -8   -7   10     -0.70      0.00
   -7   -7   10     -1.27      0.00
    3   -7   10      0.12      0.00
    4   -7   10     -0.15      0.00
   -9   -6   10     -0.97      0.00
   -8   -6   10     -1.03      0.00
    4   -6   10     -0.03      0.00
    5   -6   10      0.35      0.00
  -10   -5   10     -0.71      0.00
   -9   -5   10     -0.79      0.00
    4   -5   10     -1.36      0.00
    5   -5   10     -0.27      0.00
  -11   -4   10      0.57      0.00
  -10   -4   10      0.27      0.00
    4   -4   10     -1.80      0.00
    5   -4   10     -1.00      0.00
  -11   -3   10      0.82      0.00
  -10   -3   10      0.84      0.00
    5   -3   10      0.03      0.00
  -11   -2   10     -0.28      0.00
    5   -2   10      0.35      0.00
  -12   -1   10      0.06      0.00
  -11   -1   10     -0.23      0.00
    5   -1   10     -0.17      0.00
  -12    0   10      0.17      0.00
  -11    0   10      0.24      0.00
    5    0   10      0.13      0.00
  -12    1   10     -0.60      0.00
  -11    1   10     -0.79      0.00
    4    1   10      0.82      0.00
    5    1   10      0.74      0.00
  -12    2   10     -0.34      0.00
  -11    2   10     -0.88      0.00
    4    2   10     -0.28      0.00
    5    2   10      0.12      0.00
  -11    3   10      0.38      0.00
    3    3   10      0.49      0.00
    4    3   10      0.02      0.00
  -11    4   10     -0.16      0.00
  -10    4   10     -0.19      0.00
    3    4   10      0.31      0.00
    4    4   10      0.28      0.00
  -11    5   10     -0.52      0.00
  -10    5   10     -0.62      0.00
    2    5   10     -0.03      0.00
    3    5   10      0.23      0.00
  -10    6   10      0.15      0.00
   -9    6   10     -0.06      0.00
    1    6   10     -0.14      0.00
    2    6   10     -0.41      0.00
  -10    7   10      0.20      0.00
   -9    7   10      0.20      0.00
   -8    7   10      0.01      0.00
   -7    7   10     -0.05      0.00
   -1    7   10      0.54      0.00
    0    7   10      0.87      0.00
    1    7   10      0.16      0.00
   -9    8   10      0.25      0.00
   -8    8   10      0.02      0.00
   -7    8   10     -0.24      0.00
   -6    8   10     -0.45      0.00
   -5    8   10     -0.42      0.00
   -4    8   10     -0.10      0.00
   -3    8   10      0.29      0.00
   -2    8   10      0.10      0.00
   -1    8   10     -0.34      0.00
    0    8   10     -0.03      0.00
   -7    9   10      0.26      0.00
   -6    9   10      0.08      0.00
   -5    9   10     -0.51      0.00
   -4    9   10     -0.76      0.00
   -3    9   10     -0.45      0.00
   -2    9   10      0.15      0.00
   -5   -9   11      0.14      0.00
   -4   -9   11      0.30      0.00
   -3   -9   11      0.21      0.00
   -2   -9   11      0.54      0.00
   -1   -9   11      0.42      0.00
    0   -9   11      0.10      0.00
   -7   -8   11      0.10      0.00
   -6   -8   11      0.56      0.00
   -5   -8   11      0.08      0.00
   -4   -8   11      0.09      0.00
   -3   -8   11      0.94      0.00
   -2   -8   11      1.00      0.00
   -1   -8   11      0.43      0.00
    0   -8   11      0.07      0.00
    1   -8   11     -0.16      0.00
    2   -8   11     -0.34      0.00
   -8   -7   11     -0.13      0.00
   -7   -7   11     -0.64      0.00
   -6   -7   11      0.01      0.00
    0   -7   11     -0.41      0.00
    1   -7   11      0.48      0.00
    2   -7   11      0.21      0.00
    3   -7   11     -0.29      0.00
   -9   -6   11     -0.47      0.00
   -8   -6   11      0.02      0.00
   -7   -6   11     -0.58      0.00
    2   -6   11      0.78      0.00
    3   -6   11      0.53      0.00
   -9   -5   11     -1.19      0.00
   -8   -5   11     -0.98      0.00
    2   -5   11     -0.12      0.00
    3   -5   11      0.14      0.00
    4   -5   11      0.14      0.00
  -10   -4   11     -0.42      0.00
   -9   -4   11     -0.58      0.00
    3   -4   11     -0.52      0.00
    4   -4   11     -0.37      0.00
  -10   -3   11      0.40      0.00
   -9   -3   11     -0.05      0.00
    3   -3   11      0.65      0.00
    4   -3   11      0.24      0.00
  -11   -2   11     -0.20      0.00
  -10   -2   11      0.29      0.00
    3   -2   11     -0.19      0.00
    4   -2   11      0.06      0.00
  -11   -1   11     -0.39      0.00
  -10   -1   11     -0.09      0.00
    3   -1   11      0.08      0.00
    4   -1   11      0.18      0.00
  -11    0   11      0.10      0.00
  -10    0   11      0.40      0.00
    3    0   11      0.31      0.00
    4    0   11      0.39      0.00
  -11    1   11     -0.15      0.00
  -10    1   11      0.52      0.00
    3    1   11      0.19      0.00
    4    1   11      0.52      0.00
  -11    2   11     -0.78      0.00
  -10    2   11     -0.48      0.00
    2    2   11      0.20      0.00
    3    2   11      0.05      0.00
  -11    3   11     -0.13      0.00
  -10    3   11      0.58      0.00
    2    3   11      0.36      0.00
    3    3   11      0.09      0.00
  -10    4   11      0.67      0.00
   -9    4   11      0.67      0.00
    1    4   11      0.37      0.00
    2    4   11      0.07      0.00
  -10    5   11      0.05      0.00
   -9    5   11     -0.21      0.00
   -8    5   11     -0.58      0.00
    0    5   11     -0.37      0.00
    1    5   11      0.03      0.00
   -9    6   11     -0.46      0.00
   -8    6   11     -0.43      0.00
   -7    6   11     -0.49      0.00
   -6    6   11     -0.69      0.00
   -3    6   11      0.03      0.00
   -2    6   11      0.13      0.00
   -1    6   11     -0.13      0.00
    0    6   11     -0.36      0.00
   -8    7   11      0.18      0.00
   -7    7   11      0.26      0.00
   -6    7   11      0.07      0.00
   -5    7   11      0.11      0.00
   -4    7   11      0.26      0.00
   -3    7   11      0.25      0.00
   -2    7   11      0.52      0.00
   -1    7   11      0.58      0.00
   -6    8   11     -0.07      0.00
   -5    8   11      0.06      0.00
   -4    8   11      0.10      0.00
   -3    8   11      0.03      0.00
   -5   -8   12     -0.07      0.00
   -4   -8   12      0.70      0.00
   -3   -8   12      1.17      0.00
   -2   -8   12      0.43      0.00
   -1   -8   12      0.15      0.00
   -6   -7   12      0.29      0.00
   -5   -7   12     -0.04      0.00
   -4   -7   12     -0.25      0.00
   -3   -7   12      0.69      0.00
   -2   -7   12      0.53      0.00
   -1   -7   12     -0.10      0.00
    0   -7   12      0.38      0.00
    1   -7   12      0.39      0.00
   -8   -6   12      0.67      0.00
   -7   -6   12     -0.11      0.00
   -6   -6   12     -0.26      0.00
   -5   -6   12      0.49      0.00
   -4   -6   12     -0.01      0.00
   -3   -6   12     -0.08      0.00
   -2   -6   12      0.41      0.00
   -1   -6   12     -0.32      0.00
    0   -6   12     -0.44      0.00
    1   -6   12      0.30      0.00
   -8   -5   12     -0.01      0.00
   -7   -5   12     -0.58      0.00
   -6   -5   12     -1.06      0.00
    0   -5   12     -0.07      0.00
    1   -5   12      0.27      0.00
    2   -5   12      0.38      0.00
   -9   -4   12     -0.46      0.00
   -8   -4   12     -0.43      0.00
   -7   -4   12     -0.94      0.00
    0   -4   12     -0.14      0.00
    1   -4   12      0.33      0.00
    2   -4   12      0.25      0.00
   -9   -3   12     -0.40      0.00
   -8   -3   12     -0.17      0.00
    1   -3   12      0.79      0.00
    2   -3   12      1.04      0.00
    3   -3   12      0.41      0.00
  -10   -2   12      0.26      0.00
   -9   -2   12     -0.02      0.00
   -8   -2   12     -0.12      0.00
    1   -2   12     -0.38      0.00
    2   -2   12      0.08      0.00
    3   -2   12     -0.13      0.00
  -10   -1   12      0.25      0.00
   -9   -1   12      0.06      0.00
    1   -1   12     -0.16      0.00
    2   -1   12      0.24      0.00
    3   -1   12     -0.12      0.00
  -10    0   12      0.37      0.00
   -9    0   12      0.22      0.00
    1    0   12     -0.18      0.00
    2    0   12      0.40      0.00
  -10    1   12      0.66      0.00
   -9    1   12      0.40      0.00
    1    1   12     -0.60      0.00
    2    1   12      0.10      0.00
  -10    2   12      0.32      0.00
   -9    2   12      0.14      0.00
   -8    2   12      0.47      0.00
    0    2   12     -0.17      0.00
    1    2   12     -0.09      0.00
    2    2   12      0.18      0.00
  -10    3   12      0.40      0.00
   -9    3   12     -0.03      0.00
   -8    3   12      0.22      0.00
   -1    3   12     -0.07      0.00
    0    3   12      0.19      0.00
    1    3   12      0.15      0.00
   -9    4   12      0.08      0.00
   -8    4   12      0.66      0.00
   -7    4   12      1.47      0.00
   -6    4   12      1.76      0.00
   -3    4   12      1.75      0.00
   -2    4   12      0.88      0.00
   -1    4   12      0.50      0.00
    0    4   12      0.32      0.00
   -9    5   12      0.02      0.00
   -8    5   12      0.03      0.00
   -7    5   12     -0.23      0.00
   -6    5   12     -0.47      0.00
   -5    5   12     -0.22      0.00
   -4    5   12      0.04      0.00
   -3    5   12     -0.11      0.00
   -2    5   12      0.01      0.00
   -1    5   12      0.34      0.00
   -7    6   12     -0.29      0.00
   -6    6   12     -0.20      0.00
   -5    6   12      0.16      0.00
   -4    6   12      0.01      0.00
   -3    6   12     -0.37      0.00
   -2    6   12     -0.32      0.00
    0    0    0      0.00      0.00
# SQUEEZE RESULTS (Version =  11015)
# Note: Data are Listed for all Voids in the P1 Unit Cell
# i.e. Centre of Gravity, Solvent Accessible Volume,
# Recovered number of Electrons in the Void and
# Details about the Squeezed Material
loop_
  _platon_squeeze_void_nr
  _platon_squeeze_void_average_x
  _platon_squeeze_void_average_y
  _platon_squeeze_void_average_z
  _platon_squeeze_void_volume
  _platon_squeeze_void_count_electrons
  _platon_squeeze_void_content
   1 -0.001  0.003  0.000       381        72 ' '
# Missing Reflections Below sin(th)/lambda = 0.25
loop_
  _platon_missing_refln_index_h
  _platon_missing_refln_index_k
  _platon_missing_refln_index_l
  _platon_missing_refln_theta
    1    0    0     2.133
    0    1    0     1.899
   -1    0    1     2.360
    0    0    1     1.990
_platon_squeeze_void_probe_radius                  1.20
_platon_squeeze_details
)
TITL SDAIPA221 in P1
CELL   10.2597   10.8766   10.9289     93.65    109.58     97.15
SPGR P-1
# Solvent Accessible Volume =     380.1
# Electrons Found in S.A.V. =      71.7
# Note: Atoms in Void as Cxxx and Qxxx all others
Q101 0.924 0.718 0.238 !       3.46 eA-3
C102 0.018 0.924 0.200 !       3.26 eA-3
Q103 0.375 0.923 0.408 !       2.85 eA-3
C104 0.149 0.891 0.254 !       2.84 eA-3
Q105 0.389 0.062 0.417 !       2.45 eA-3
C106 0.145 0.012 0.221 !       2.39 eA-3
C107 0.923 0.340 0.031 !       2.23 eA-3
Q108 0.922 0.828 0.202 !       2.19 eA-3
C109 0.221 0.670 0.031 !       2.00 eA-3
C110 0.962 0.224 0.079 !       2.00 eA-3
C111 0.917 0.137 0.093 !       1.83 eA-3
C112 0.238 0.844 0.301 !       1.71 eA-3
C113 0.271 0.109 0.292 !       1.69 eA-3
Q114 0.640 0.094 0.156 !       1.67 eA-3
C115 1.002 0.033 0.157 !       1.67 eA-3
C116 1.007 0.440 0.017 !       1.64 eA-3
Q117 0.024 0.800 0.234 !       1.21 eA-3
C118 0.212 0.918 0.184 !       1.09 eA-3
Q119 0.500 1.000 0.000 !       1.04 eA-3
Q120 0.821 0.485 0.283 !       0.91 eA-3
Q121 0.342 0.050 0.062 !       0.79 eA-3
C122 0.125 0.781 0.284 !       0.78 eA-3
Q123 0.075 0.561 0.332 !       0.76 eA-3
Q124 0.178 0.265 0.463 !       0.73 eA-3
Q125 0.763 0.294 0.360 !       0.73 eA-3
Q126 0.902 0.957 0.137 !       0.66 eA-3
C127 0.264 0.783 0.094 !       0.63 eA-3
Q128 0.840 0.092 0.437 !       0.61 eA-3
C129 0.228 0.682 0.139 !       0.60 eA-3
Q130 0.285 0.019 0.143 !       0.59 eA-3
Q131 0.634 0.125 0.032 !       0.55 eA-3
Q132 0.275 0.874 0.393 !       0.54 eA-3
Q133 0.647 0.156-0.005 !       0.51 eA-3
)
;
_shelx_shelxl_version_number     2014/7
_olex2_submission_special_instructions 'No special instructions were received'
loop_
_space_group_symop_operation_xyz
'x, y, z'
'-x, -y, -z'
loop_
_atom_site_label
_atom_site_type_symbol
_atom_site_fract_x
_atom_site_fract_y
_atom_site_fract_z
_atom_site_U_iso_or_equiv
_atom_site_adp_type
_atom_site_occupancy
_atom_site_site_symmetry_order
_atom_site_calc_flag
_atom_site_refinement_flags_posn
_atom_site_refinement_flags_adp
_atom_site_refinement_flags_occupancy
_atom_site_disorder_assembly
_atom_site_disorder_group
Zn1 Zn 0.65554(5) 0.51891(4) 0.55052(4) 0.0133(2) Uani 1 1 d . . . . .
N1 N 0.8625(4) 0.5849(3) 0.5985(3) 0.0165(8) Uani 1 1 d . . . . .
O1 O 0.6046(4) 0.5008(4) 0.3520(3) 0.0341(9) Uani 1 1 d . . . . .
O2 O 0.6422(4) 0.3314(3) 0.5397(4) 0.0382(10) Uani 1 1 d . . . . .
O3 O 0.6265(4) 0.5201(4) 0.7245(3) 0.0371(10) Uani 1 1 d . . . . .
C13 C 0.8980(5) 0.6985(4) 0.5677(4) 0.0197(9) Uani 1 1 d . . . . .
H13 H 0.8278 0.7454 0.5311 0.024 Uiso 1 1 calc R . . . .
N2 N 0.9736(4) 0.9409(4) 0.5121(4) 0.0285(9) Uani 1 1 d . . . . .
C12 C 1.0358(5) 0.7486(4) 0.5884(5) 0.0234(10) Uani 1 1 d . . . . .
C10 C 1.1034(5) 0.5599(5) 0.6751(5) 0.0264(10) Uani 1 1 d . . . . .
H10 H 1.1715 0.5110 0.7119 0.032 Uiso 1 1 calc R . . . .
C11 C 1.1399(5) 0.6772(5) 0.6424(5) 0.0263(11) Uani 1 1 d . . . . .
H11 H 1.2331 0.7078 0.6565 0.032 Uiso 1 1 calc R . . . .
C14 C 1.0695(5) 0.8747(5) 0.5553(5) 0.0277(11) Uani 1 1 d . . . . .
H14 H 1.1616 0.9063 0.5660 0.033 Uiso 1 1 calc R . . . .
C9 C 0.9646(5) 0.5175(4) 0.6521(4) 0.0204(9) Uani 1 1 d . . . . .
H9 H 0.9402 0.4390 0.6744 0.024 Uiso 1 1 calc R . . . .
O4 O 0.5883(4) 0.6876(3) 0.5303(5) 0.0406(10) Uani 1 1 d . . . . .
C1 C 0.4894(5) 0.4917(4) 0.2618(4) 0.0192(9) Uani 1 1 d . . . . .
C2 C 0.4939(5) 0.4950(5) 0.1259(5) 0.0258(10) Uani 1 1 d . . . . .
C15 C 0.5219(5) 0.2690(4) 0.5032(5) 0.0221(10) Uani 1 1 d . . . . .
C16 C 0.5107(5) 0.1288(4) 0.5007(6) 0.0311(12) Uani 1 1 d . . . . .
C3 C 0.5875(5) 0.5889(6) 0.1039(5) 0.0347(13) Uani 1 1 d . . . . .
C6 C 0.4074(6) 0.4063(6) 0.0252(5) 0.0378(13) Uani 1 1 d . . . . .
C4 C 0.6730(12) 0.7013(10) 0.2065(10) 0.033(2) Uani 0.5 1 d . . P . .
H4 H 0.6666 0.7040 0.2895 0.040 Uiso 0.5 1 calc R . P . .
C7 C 0.3185(13) 0.2879(12) 0.0452(11) 0.041(3) Uani 0.5 1 d . . P . .
H7 H 0.3171 0.2784 0.1287 0.049 Uiso 0.5 1 calc R . P . .
C5 C 0.7591(15) 0.7986(13) 0.1802(12) 0.052(4) Uani 0.5 1 d . . P . .
H5 H 0.8162 0.8586 0.2475 0.063 Uiso 0.5 1 calc R . P . .
C8 C 0.2403(17) 0.1944(13) -0.0568(13) 0.059(4) Uani 0.5 1 d . . P . .
H8 H 0.1872 0.1265 -0.0394 0.070 Uiso 0.5 1 calc R . P . .
C17 C 0.5254(10) 0.0597(8) 0.3985(10) 0.074(2) Uani 1 1 d . . . . .
C19 C 0.4826(11) 0.0734(8) 0.6022(10) 0.075(2) Uani 1 1 d . . . . .
C20 C 0.466(2) 0.1433(16) 0.708(2) 0.078(5) Uani 0.5 1 d . . P . .
H20 H 0.4671 0.2291 0.7091 0.093 Uiso 0.5 1 calc R . P . .
C18 C 0.5363(18) 0.1147(15) 0.2837(19) 0.072(5) Uani 0.5 1 d . . P . .
H18 H 0.5223 0.1974 0.2796 0.086 Uiso 0.5 1 calc R . P . .
C21 C 0.446(2) 0.078(2) 0.815(2) 0.092(6) Uani 0.5 1 d . . P . .
H21 H 0.4428 0.1291 0.8847 0.111 Uiso 0.5 1 calc R . P . .
C22 C 0.432(3) -0.054(2) 0.830(2) 0.122(10) Uani 0.5 1 d . . P . .
H22 H 0.4090 -0.0928 0.8952 0.146 Uiso 0.5 1 calc R . P . .
loop_
_atom_site_aniso_label
_atom_site_aniso_U_11
_atom_site_aniso_U_22
_atom_site_aniso_U_33
_atom_site_aniso_U_23
_atom_site_aniso_U_13
_atom_site_aniso_U_12
Zn1 0.0154(3) 0.0118(3) 0.0144(3) 0.0019(2) 0.0080(2) 0.0003(2)
N1 0.0188(18) 0.0149(18) 0.0170(18) 0.0003(14) 0.0088(15) 0.0003(14)
O1 0.0216(18) 0.067(3) 0.0150(16) 0.0057(16) 0.0090(14) 0.0039(17)
O2 0.031(2) 0.0138(17) 0.064(3) 0.0081(17) 0.0103(19) -0.0002(15)
O3 0.0198(18) 0.077(3) 0.0164(17) 0.0061(18) 0.0098(14) 0.0039(18)
C13 0.022(2) 0.020(2) 0.019(2) 0.0008(18) 0.0099(18) 0.0016(18)
N2 0.029(2) 0.022(2) 0.034(2) 0.0034(18) 0.0154(19) -0.0092(17)
C12 0.024(2) 0.025(2) 0.022(2) -0.0021(19) 0.0126(19) -0.0037(19)
C10 0.024(2) 0.029(3) 0.029(3) 0.003(2) 0.012(2) 0.008(2)
C11 0.017(2) 0.034(3) 0.028(3) -0.002(2) 0.0101(19) -0.001(2)
C14 0.026(2) 0.027(3) 0.031(3) -0.001(2) 0.016(2) -0.007(2)
C9 0.021(2) 0.020(2) 0.022(2) 0.0022(18) 0.0109(19) 0.0016(18)
O4 0.031(2) 0.0142(17) 0.081(3) 0.0103(18) 0.023(2) 0.0071(15)
C1 0.024(2) 0.019(2) 0.017(2) 0.0018(17) 0.0107(19) 0.0041(18)
C2 0.020(2) 0.045(3) 0.017(2) 0.007(2) 0.0102(19) 0.008(2)
C15 0.030(3) 0.014(2) 0.028(2) 0.0057(18) 0.016(2) 0.0019(19)
C16 0.027(3) 0.014(2) 0.061(4) 0.008(2) 0.026(3) 0.0033(19)
C3 0.024(3) 0.063(4) 0.019(2) 0.009(2) 0.010(2) 0.008(2)
C6 0.027(3) 0.070(4) 0.019(3) 0.006(3) 0.011(2) 0.004(3)
C4 0.045(6) 0.034(6) 0.017(5) 0.000(4) 0.010(4) -0.003(5)
C7 0.047(7) 0.053(7) 0.021(5) 0.000(5) 0.017(5) -0.008(6)
C5 0.065(9) 0.049(8) 0.028(6) -0.009(5) 0.013(6) -0.031(7)
C8 0.085(11) 0.044(7) 0.044(7) 0.001(6) 0.033(7) -0.027(7)
C17 0.088(6) 0.057(5) 0.088(6) 0.014(4) 0.046(5) 0.009(4)
C19 0.090(6) 0.063(5) 0.081(6) 0.008(4) 0.041(5) 0.018(5)
C20 0.101(14) 0.047(9) 0.094(13) 0.005(9) 0.049(12) 0.005(9)
C18 0.065(10) 0.050(9) 0.092(13) 0.014(8) 0.017(9) 0.001(7)
C21 0.109(16) 0.092(15) 0.093(14) -0.014(11) 0.066(13) 0.000(12)
C22 0.19(3) 0.084(14) 0.069(12) -0.023(11) -0.006(14) 0.084(16)
loop_
_atom_type_symbol
_atom_type_description
_atom_type_scat_dispersion_real
_atom_type_scat_dispersion_imag
_atom_type_scat_source
C C 0.0033 0.0016 'International Tables Vol C Tables 4.2.6.8 and 6.1.1.4'
H H 0.0000 0.0000 'International Tables Vol C Tables 4.2.6.8 and 6.1.1.4'
N N 0.0061 0.0033 'International Tables Vol C Tables 4.2.6.8 and 6.1.1.4'
O O 0.0106 0.0060 'International Tables Vol C Tables 4.2.6.8 and 6.1.1.4'
Zn Zn 0.2839 1.4301 'International Tables Vol C Tables 4.2.6.8 and 6.1.1.4'
loop_
_geom_angle_atom_site_label_1
_geom_angle_atom_site_label_2
_geom_angle_atom_site_label_3
_geom_angle
_geom_angle_site_symmetry_1
_geom_angle_site_symmetry_3
_geom_angle_publ_flag
N1 Zn1 Zn1 165.65(11) . 2_666 ?
N1 Zn1 O1 97.58(14) . . ?
N1 Zn1 O4 96.39(15) . . ?
O1 Zn1 Zn1 76.14(10) . 2_666 ?
O2 Zn1 Zn1 87.45(11) . 2_666 ?
O2 Zn1 N1 105.32(15) . . ?
O2 Zn1 O1 87.34(18) . . ?
O2 Zn1 O3 89.48(18) . . ?
O2 Zn1 O4 157.95(17) . . ?
O3 Zn1 Zn1 82.25(10) . 2_666 ?
O3 Zn1 N1 103.98(14) . . ?
O3 Zn1 O1 158.27(15) . . ?
O3 Zn1 O4 88.97(18) . . ?
O4 Zn1 Zn1 70.55(11) . 2_666 ?
O4 Zn1 O1 86.01(18) . . ?
C13 N1 Zn1 117.9(3) . . ?
C13 N1 C9 118.6(4) . . ?
C9 N1 Zn1 123.4(3) . . ?
C1 O1 Zn1 131.3(3) . . ?
C15 O2 Zn1 117.1(3) . . ?
C1 O3 Zn1 124.6(3) 2_666 . ?
N1 C13 H13 118.8 . . ?
N1 C13 C12 122.4(4) . . ?
C12 C13 H13 118.8 . . ?
C14 N2 N2 112.2(5) . 2_776 ?
C13 C12 C11 118.2(4) . . ?
C13 C12 C14 120.3(4) . . ?
C11 C12 C14 121.5(4) . . ?
C11 C10 H10 120.7 . . ?
C9 C10 H10 120.7 . . ?
C9 C10 C11 118.7(5) . . ?
C12 C11 H11 120.3 . . ?
C10 C11 C12 119.4(4) . . ?
C10 C11 H11 120.3 . . ?
N2 C14 C12 120.5(4) . . ?
N2 C14 H14 119.7 . . ?
C12 C14 H14 119.7 . . ?
N1 C9 C10 122.7(4) . . ?
N1 C9 H9 118.7 . . ?
C10 C9 H9 118.7 . . ?
C15 O4 Zn1 139.5(3) 2_666 . ?
O1 C1 C2 116.3(4) . . ?
O3 C1 O1 125.4(4) 2_666 . ?
O3 C1 C2 118.3(4) 2_666 . ?
C3 C2 C1 118.5(4) . . ?
C6 C2 C1 120.4(4) . . ?
C6 C2 C3 121.1(5) . . ?
O2 C15 C16 117.6(4) . . ?
O4 C15 O2 125.3(4) 2_666 . ?
O4 C15 C16 117.1(4) 2_666 . ?
C17 C16 C15 119.7(5) . . ?
C17 C16 C19 121.7(6) . . ?
C19 C16 C15 118.6(6) . . ?
C2 C3 C6 119.2(5) . 2_665 ?
C2 C3 C4 124.0(6) . . ?
C6 C3 C4 116.2(6) 2_665 . ?
C2 C6 C3 119.7(5) . 2_665 ?
C2 C6 C7 124.2(6) . . ?
C3 C6 C7 115.5(6) 2_665 . ?
C3 C4 H4 118.4 . . ?
C5 C4 C3 123.3(9) . . ?
C5 C4 H4 118.4 . . ?
C6 C7 H7 118.4 . . ?
C8 C7 C6 123.2(9) . . ?
C8 C7 H7 118.4 . . ?
C4 C5 H5 119.9 . . ?
C8 C5 C4 120.2(11) 2_665 . ?
C8 C5 H5 119.9 2_665 . ?
C7 C8 H8 119.4 . . ?
C5 C8 C7 121.2(11) 2_665 . ?
C5 C8 H8 119.4 2_665 . ?
C16 C17 C19 119.5(7) . 2_656 ?
C16 C17 C18 122.0(10) . . ?
C19 C17 C18 118.2(10) 2_656 . ?
C16 C19 C17 118.7(7) . 2_656 ?
C16 C19 C20 122.4(10) . . ?
C20 C19 C17 118.9(10) . 2_656 ?
C19 C20 H20 120.8 . . ?
C19 C20 C21 118.5(15) . . ?
C21 C20 H20 120.8 . . ?
C17 C18 H18 115.9 . . ?
C17 C18 C22 128.1(16) . 2_656 ?
C22 C18 H18 115.9 2_656 . ?
C20 C21 H21 114.7 . . ?
C22 C21 C20 130.6(18) . . ?
C22 C21 H21 114.7 . . ?
C18 C22 H22 127.7 2_656 . ?
C21 C22 C18 105(2) . 2_656 ?
C21 C22 H22 127.7 . . ?
loop_
_geom_bond_atom_site_label_1
_geom_bond_atom_site_label_2
_geom_bond_distance
_geom_bond_site_symmetry_2
_geom_bond_publ_flag
Zn1 Zn1 2.9712(9) 2_666 ?
Zn1 N1 2.031(4) . ?
Zn1 O1 2.044(3) . ?
Zn1 O2 2.020(3) . ?
Zn1 O3 2.020(3) . ?
Zn1 O4 2.039(3) . ?
N1 C13 1.340(6) . ?
N1 C9 1.347(6) . ?
O1 C1 1.248(6) . ?
O2 C15 1.253(6) . ?
O3 C1 1.240(6) 2_666 ?
C13 H13 0.9300 . ?
C13 C12 1.388(6) . ?
N2 N2 1.408(8) 2_776 ?
N2 C14 1.271(7) . ?
C12 C11 1.391(7) . ?
C12 C14 1.470(7) . ?
C10 H10 0.9300 . ?
C10 C11 1.387(7) . ?
C10 C9 1.372(7) . ?
C11 H11 0.9300 . ?
C14 H14 0.9300 . ?
C9 H9 0.9300 . ?
O4 C15 1.229(6) 2_666 ?
C1 O3 1.240(6) 2_666 ?
C1 C2 1.503(6) . ?
C2 C3 1.402(8) . ?
C2 C6 1.388(8) . ?
C15 O4 1.229(6) 2_666 ?
C15 C16 1.512(6) . ?
C16 C17 1.368(10) . ?
C16 C19 1.390(10) . ?
C3 C6 1.433(7) 2_665 ?
C3 C4 1.556(12) . ?
C6 C3 1.433(7) 2_665 ?
C6 C7 1.554(13) . ?
C4 H4 0.9300 . ?
C4 C5 1.399(15) . ?
C7 H7 0.9300 . ?
C7 C8 1.404(17) . ?
C5 H5 0.9300 . ?
C5 C8 1.358(17) 2_665 ?
C8 C5 1.358(17) 2_665 ?
C8 H8 0.9300 . ?
C17 C19 1.439(12) 2_656 ?
C17 C18 1.46(2) . ?
C19 C17 1.439(12) 2_656 ?
C19 C20 1.41(2) . ?
C20 H20 0.9300 . ?
C20 C21 1.47(3) . ?
C18 H18 0.9300 . ?
C18 C22 1.52(3) 2_656 ?
C21 H21 0.9300 . ?
C21 C22 1.45(3) . ?
C22 C18 1.52(3) 2_656 ?
C22 H22 0.9300 . ?
loop_
_geom_torsion_atom_site_label_1
_geom_torsion_atom_site_label_2
_geom_torsion_atom_site_label_3
_geom_torsion_atom_site_label_4
_geom_torsion
_geom_torsion_site_symmetry_1
_geom_torsion_site_symmetry_2
_geom_torsion_site_symmetry_3
_geom_torsion_site_symmetry_4
_geom_torsion_publ_flag
Zn1 N1 C13 C12 -175.7(3) . . . . ?
Zn1 N1 C9 C10 175.1(3) . . . . ?
Zn1 O1 C1 O3 -7.4(8) . . . 2_666 ?
Zn1 O1 C1 C2 172.9(3) . . . . ?
Zn1 O2 C15 O4 2.5(7) . . . 2_666 ?
Zn1 O2 C15 C16 -177.2(3) . . . . ?
N1 C13 C12 C11 0.4(7) . . . . ?
N1 C13 C12 C14 -178.8(4) . . . . ?
O1 C1 C2 C3 -48.0(7) . . . . ?
O1 C1 C2 C6 131.8(5) . . . . ?
O2 C15 C16 C17 -79.7(8) . . . . ?
O2 C15 C16 C19 101.7(7) . . . . ?
O3 C1 C2 C3 132.3(5) 2_666 . . . ?
O3 C1 C2 C6 -48.0(7) 2_666 . . . ?
C13 N1 C9 C10 -0.7(7) . . . . ?
C13 C12 C11 C10 -0.8(7) . . . . ?
C13 C12 C14 N2 2.7(7) . . . . ?
N2 N2 C14 C12 179.1(5) 2_776 . . . ?
C11 C12 C14 N2 -176.4(5) . . . . ?
C11 C10 C9 N1 0.3(7) . . . . ?
C14 C12 C11 C10 178.4(4) . . . . ?
C9 N1 C13 C12 0.4(6) . . . . ?
C9 C10 C11 C12 0.4(7) . . . . ?
O4 C15 C16 C17 100.6(7) 2_666 . . . ?
O4 C15 C16 C19 -78.0(8) 2_666 . . . ?
C1 C2 C3 C6 -179.7(5) . . . 2_665 ?
C1 C2 C3 C4 -8.7(9) . . . . ?
C1 C2 C6 C3 179.7(5) . . . 2_665 ?
C1 C2 C6 C7 -9.8(10) . . . . ?
C2 C3 C4 C5 -175.8(11) . . . . ?
C2 C6 C7 C8 -174.8(12) . . . . ?
C15 C16 C17 C19 178.8(7) . . . 2_656 ?
C15 C16 C17 C18 -6.9(14) . . . . ?
C15 C16 C19 C17 -178.8(7) . . . 2_656 ?
C15 C16 C19 C20 -0.8(15) . . . . ?
C16 C17 C18 C22 173.1(17) . . . 2_656 ?
C16 C19 C20 C21 -175.6(14) . . . . ?
C3 C2 C6 C3 -0.5(9) . . . 2_665 ?
C3 C2 C6 C7 169.9(7) . . . . ?
C3 C6 C7 C8 -4.0(16) 2_665 . . . ?
C3 C4 C5 C8 7(2) . . . 2_665 ?
C6 C2 C3 C6 0.5(9) . . . 2_665 ?
C6 C2 C3 C4 171.5(7) . . . . ?
C6 C3 C4 C5 -4.5(15) 2_665 . . . ?
C6 C7 C8 C5 2(2) . . . 2_665 ?
C17 C16 C19 C17 2.6(15) . . . 2_656 ?
C17 C16 C19 C20 -179.4(13) . . . . ?
C17 C19 C20 C21 2(2) 2_656 . . . ?
C19 C16 C17 C19 -2.6(15) . . . 2_656 ?
C19 C16 C17 C18 171.7(11) . . . . ?
C19 C17 C18 C22 -12(2) 2_656 . . 2_656 ?
C19 C20 C21 C22 -4(4) . . . . ?
C20 C21 C22 C18 8(3) . . . 2_656 ?
