#------------------------------------------------------------------------------
#$Date: 2022-03-06 06:37:54 +0200 (Sun, 06 Mar 2022) $
#$Revision: 273468 $
#$URL: file:///home/coder/svn-repositories/cod/cif/1/56/59/1565937.cif $
#------------------------------------------------------------------------------
#
# This file is available in the Crystallography Open Database (COD),
# http://www.crystallography.net/
#
# All data on this site have been placed in the public domain by the
# contributors.
#
data_1565937
loop_
_publ_author_name
'Wildner, Manfred'
'Zakharov, Boris A.'
'Bogdanov, Nikita E.'
'Talla, Dominik'
'Boldyreva, Elena V.'
'Miletich, Ronald'
_publ_section_title
;
 Crystallography relevant to Mars and Galilean icy moons: crystal behavior
 of kieserite-type monohydrate sulfates at extraterrestrial conditions
 down to 15 K
;
_journal_issue                   2
_journal_name_full               IUCrJ
_journal_page_first              194
_journal_page_last               203
_journal_paper_doi               10.1107/S2052252521012720
_journal_volume                  9
_journal_year                    2022
_chemical_formula_sum            'Fe0 H2 Mg O5 S'
_chemical_formula_weight         138.39
_space_group_crystal_system      monoclinic
_space_group_IT_number           15
_space_group_name_Hall           '-C 2yc'
_space_group_name_H-M_alt        'C 1 2/c 1'
_atom_sites_solution_hydrogens   difmap
_audit_creation_method           SHELXL-2017/1
_cell_angle_alpha                90
_cell_angle_beta                 117.833(10)
_cell_angle_gamma                90
_cell_formula_units_Z            4
_cell_length_a                   6.8717(10)
_cell_length_b                   7.6629(10)
_cell_length_c                   7.6098(10)
_cell_measurement_temperature    153(2)
_cell_volume                     354.35(9)
_computing_structure_refinement  'SHELXL-2017/1 (Sheldrick, 2017)'
_diffrn_ambient_temperature      153(2)
_diffrn_measured_fraction_theta_full 0.994
_diffrn_measured_fraction_theta_max 0.998
_diffrn_radiation_type           MoK\a
_diffrn_radiation_wavelength     0.71073
_diffrn_reflns_av_R_equivalents  0.0187
_diffrn_reflns_av_unetI/netI     0.0097
_diffrn_reflns_Laue_measured_fraction_full 0.994
_diffrn_reflns_Laue_measured_fraction_max 0.998
_diffrn_reflns_limit_h_max       12
_diffrn_reflns_limit_h_min       -12
_diffrn_reflns_limit_k_max       13
_diffrn_reflns_limit_k_min       -13
_diffrn_reflns_limit_l_max       13
_diffrn_reflns_limit_l_min       -13
_diffrn_reflns_number            9918
_diffrn_reflns_point_group_measured_fraction_full 0.994
_diffrn_reflns_point_group_measured_fraction_max 0.998
_diffrn_reflns_theta_full        25.242
_diffrn_reflns_theta_max         39.992
_diffrn_reflns_theta_min         4.244
_exptl_absorpt_coefficient_mu    0.972
_exptl_absorpt_correction_T_max  0.7479
_exptl_absorpt_correction_T_min  0.6913
_exptl_absorpt_correction_type   multi-scan
_exptl_absorpt_process_details
;
 SADABS 2016/2: Krause, L., Herbst-Irmer, R., Sheldrick G.M. & Stalke D.,
 J. Appl. Cryst. 48 (2015) 3-10
;
_exptl_crystal_density_diffrn    2.594
_exptl_crystal_F_000             280
_refine_diff_density_max         0.479
_refine_diff_density_min         -0.408
_refine_diff_density_rms         0.070
_refine_ls_extinction_coef       0.005(2)
_refine_ls_extinction_expression Fc^*^=kFc[1+0.001xFc^2^\l^3^/sin(2\q)]^-1/4^
_refine_ls_extinction_method     'SHELXL-2017/1 (Sheldrick 2017)'
_refine_ls_goodness_of_fit_ref   1.232
_refine_ls_hydrogen_treatment    refall
_refine_ls_matrix_type           full
_refine_ls_number_parameters     40
_refine_ls_number_reflns         1098
_refine_ls_number_restraints     0
_refine_ls_restrained_S_all      1.232
_refine_ls_R_factor_all          0.0160
_refine_ls_R_factor_gt           0.0151
_refine_ls_shift/su_max          0.000
_refine_ls_shift/su_mean         0.000
_refine_ls_structure_factor_coef Fsqd
_refine_ls_weighting_details
'w=1/[\s^2^(Fo^2^)+(0.0190P)^2^+0.1800P] where P=(Fo^2^+2Fc^2^)/3'
_refine_ls_weighting_scheme      calc
_refine_ls_wR_factor_gt          0.0435
_refine_ls_wR_factor_ref         0.0438
_reflns_Friedel_coverage         0.000
_reflns_number_gt                1049
_reflns_number_total             1098
_reflns_threshold_expression     'I > 2\s(I)'
_cod_data_source_file            lt5044.cif
_cod_data_source_block           MgSO4H2O_N2_153K
_cod_depositor_comments
'Adding full bibliography for 1565934--1565967.cif.'
_cod_original_sg_symbol_H-M      'C 2/c'
_cod_database_code               1565937
_shelx_shelxl_version_number     2017/1
_shelx_space_group_comment
;
The symmetry employed for this shelxl refinement is uniquely defined
by the following loop, which should always be used as a source of
symmetry information in preference to the above space-group names.
They are only intended as comments.
;
_shelx_res_file
;
TITL 204dkiesx1 153K Apex in C2/c kieserite cell
    latt_corr_for_Nonius20C_204dkiesx1_Apex153K.res
    created by SHELXL-2017/1 at 15:51:58 on 08-Oct-2018

REM meas.  mon  6.85342(8) 7.65270(9) 7.59597(9) 90.0 117.7653(5) 90.0
REM trans. cryscomp
REM meas.trcl 6.85342(8)7.65259(9)7.59602(9) 90.0210(6)117.7624(5)89.9740(6)
REM trans. cryscomp
REM CELL 0.71073   6.8534    7.6527    7.5960   90.0   117.765     90.0
REM latt corr for Nonius20C +.0183 +.0102 +.0138         +.068
CELL 0.71073   6.8717    7.6629    7.6098   90.0   117.833     90.0
ZERR    4.00   0.001   0.001   0.001   0.00   0.01   0.00
LATT  7
SYMM -X, Y, .5-Z
SFAC O H S MG FE
UNIT 20 8 4 4 0
SHEL 20 0.55285
OMIT -2 2 2
OMIT 1 1 2
REM OMIT -3 1 1
REM OMIT -3 1 3
L.S. 10
CONN 12 1.8 $O
EQIV $9 -x+1/2, y+1/2, -z+1/2
BOND $H
FMAP 2
PLAN 20
ACTA
HTAB O3 O2_$9
HTAB
REM EXYZ MG FE
REM EADP MG FE
REM SUMP 1.0 0 1.0 2 1.0 3
REM Fe wird negativ verfeinert
WGHT    0.019000    0.180000
EXTI    0.005418
FVAR       0.98560
MG    4    0.000000    0.500000    0.000000    10.50000    0.00441    0.00511 =
         0.00489    0.00018    0.00194   -0.00030
REM FE  5  0.000000    0.500000    0.000000    10.50000    0.00571    0.00681 =
REM      0.00653    0.00034    0.00244   -0.00039
S     3    0.000000    0.156782    0.250000    10.50000    0.00310    0.00392 =
         0.00449    0.00000    0.00152    0.00000
O1    1    0.175281    0.047245    0.396491    11.00000    0.00485    0.00865 =
         0.00845    0.00359    0.00228    0.00234
O2    1    0.095191    0.269392    0.150821    11.00000    0.00680    0.00652 =
         0.00900    0.00257    0.00491    0.00050
O3    1    0.000000    0.634021    0.250000    10.50000    0.00591    0.00724 =
         0.00648    0.00000    0.00297    0.00000
H     2    0.105474    0.699912    0.290095    11.00000    0.01881
HKLF 4




REM  204dkiesx1 153K Apex in C2/c kieserite cell
REM R1 =  0.0151 for    1049 Fo > 4sig(Fo)  and  0.0160 for all    1098 data
REM     40 parameters refined using      0 restraints

END

WGHT      0.0184      0.1791

REM Instructions for potential hydrogen bonds
EQIV $20 x+1/2, y+1/2, z
HTAB O3 S_$20
HTAB O3 O2_$9

REM Highest difference peak  0.479,  deepest hole -0.408,  1-sigma level  0.070
Q1    1   0.0452  0.2163  0.1956  11.00000  0.05    0.48
Q2    1  -0.0917  0.1040  0.1812  11.00000  0.05    0.40
Q3    1  -0.0028  0.3230  0.1156  11.00000  0.05    0.22
Q4    1   0.0779  0.3701  0.1182  11.00000  0.05    0.19
Q5    1  -0.0170  0.5813  0.1858  11.00000  0.05    0.18
Q6    1   0.2035  0.1536  0.4040  11.00000  0.05    0.16
Q7    1  -0.0173  0.3954  0.1042  11.00000  0.05    0.16
Q8    1  -0.0782 -0.0815  0.3473  11.00000  0.05    0.14
Q9    1   0.0812  0.8735  0.2870  11.00000  0.05    0.13
Q10   1   0.1439 -0.0113  0.1367  11.00000  0.05    0.13
Q11   1   0.1841  0.1107  0.4647  11.00000  0.05    0.12
Q12   1   0.1140  0.7103  0.3993  11.00000  0.05    0.12
Q13   1   0.2761  0.0851  0.4722  11.00000  0.05    0.11
Q14   1   0.2087 -0.0210  0.2844  11.00000  0.05    0.11
Q15   1   0.0754  0.0294  0.5703  11.00000  0.05    0.11
Q16   1   0.2500  0.7500  0.5000  10.50000  0.05    0.11
Q17   1   0.1573  0.3759  0.3007  11.00000  0.05    0.11
Q18   1   0.2677  0.0544  0.5376  11.00000  0.05    0.11
Q19   1   0.2382 -0.0242  0.2061  11.00000  0.05    0.10
Q20   1   0.2171  0.2303  0.4348  11.00000  0.05    0.10
;
_shelx_res_checksum              66732
_shelx_hkl_file
;
  -2   0   0 9306.43 155.409  14
   2   0   0 8630.35 157.569   5
   2   0   0 8795.87 157.825  12
  -2   0   0 9198.09 158.793   2
   4   0   0 1961.68 35.7963  12
  -4   0   0 1923.66 34.3597  14
  -4   0   0 1979.95 36.9221  15
   4   0   0 1922.24 32.8375  11
   4   0   0 1913.18 36.0975   1
   4   0   0 1946.07 35.0738   5
   4   0   0 1932.25 33.0492   9
  -4   0   0 1970.85 36.3302   2
   6   0   0 2968.62 55.6834   1
   6   0   0 2928.76 53.3659   5
  -6   0   0 2959.28 56.3244  15
   6   0   0 2967.50 54.4064  12
   6   0   0 2886.14 61.4456  13
  -6   0   0 2938.44 52.1528  14
  -6   0   0 2965.44 55.4044   2
   6   0   0 2908.98 51.0659   7
   8   0   0 894.113 21.4090   5
   8   0   0 899.219 23.7603   1
  -8   0   0 907.025 23.7779   2
  -8   0   0 911.949 24.9069  15
 -10   0   0 1391.35 36.3626  15
 -10   0   0 1355.36 34.0473   2
   1  -1   0 133.104 3.41511   1
  -1  -1   0 133.619 3.38944  15
  -1  -1   0 132.437 3.31095   2
   1  -1   0 139.431 3.66563  13
   1   1   0 135.445 3.13297  11
   1   1   0 134.195 3.39343   5
   1   1   0 131.068 3.15049  12
  -1   1   0 138.744 3.65034  13
   3  -1   0 3157.85 55.7942   5
   3  -1   0 3159.06 55.2610   7
   3  -1   0 3128.81 57.5192  13
  -3  -1   0 3256.41 55.3438   2
  -3  -1   0 3243.70 53.8946  14
   3  -1   0 3135.67 54.7211  12
   3  -1   0 3132.39 55.5367   1
  -3  -1   0 3177.46 55.5769  15
   3  -1   0 3142.97 54.6350   9
  -3   1   0 3205.51 55.4094   2
   3   1   0 3140.44 55.3325  16
  -3   1   0 3201.14 53.9561  14
   3   1   0 3142.70 54.8353   5
   3   1   0 3134.11 54.8960  12
   3   1   0 3121.13 55.5077  11
  -3   1   0 3191.34 54.8609  16
   5  -1   0 12.7005 2.32881   1
  -5  -1   0 12.4969 2.40223  15
   5  -1   0 12.1631 1.21929   9
   5  -1   0 12.8009 1.74238   5
   5  -1   0 10.5638 1.20948   7
   5  -1   0 13.1420 2.95185  13
   5  -1   0 10.8919 2.01122  12
  -5  -1   0 19.0825 2.97539   2
  -5  -1   0 13.8175 1.72163  14
  -5   1   0 11.7560 2.65986  15
   5   1   0 12.6074 1.07712  11
   5   1   0 13.3650 2.15261   1
   5   1   0 13.9531 2.11542   5
  -5   1   0 8.84504 2.40347   2
  -5   1   0 12.0842 1.78547  14
   5   1   0 16.2593 2.34132  12
  -7  -1   0 11.6429 3.54255  15
  -7  -1   0 17.9083 3.61911   2
   7  -1   0 17.4885 2.39727   5
   7  -1   0 13.6977 3.14278   1
   7   1   0 18.2513 2.60382   5
   7   1   0 19.4619 3.33257   1
  -7   1   0 14.3303 2.26450  14
  -7   1   0 16.8705 3.80024   2
  -7   1   0 14.4415 3.68091  15
  -9  -1   0 162.047 9.80687   2
   9  -1   0 162.490 9.83012   1
  -9  -1   0 174.698 10.9441  15
  -9   1   0 172.668 10.2347   2
  -9   1   0 185.217 11.3645  15
   9   1   0 166.624 9.25440   1
   9   1   0 168.887 8.32746   5
 -11  -1   0 17.8929 5.43909   2
 -11  -1   0 17.5726 7.41250  15
  11  -1   0 11.2082 4.05390   1
 -11   1   0 14.5292 5.20058   2
 -11   1   0 12.7612 6.86194  15
   0  -2   0 14.2584 0.99966  15
   0  -2   0 15.2865 1.03649   6
   0  -2   0 13.3255 0.90072   9
   0   2   0 12.6015 1.04392   5
   2  -2   0 527.927 11.3709   1
   2  -2   0 534.189 11.7518  13
  -2  -2   0 533.207 11.1519  15
   2  -2   0 531.693 10.2235   9
  -2  -2   0 510.255 10.9746   2
  -2  -2   0 509.412 10.5175   8
  -2  -2   0 526.653 10.2534  14
   2  -2   0 527.936 9.77524   7
  -2   2   0 539.636 11.7060  13
   2   2   0 518.952 10.5710  12
   2   2   0 520.988 11.1144   5
  -2   2   0 507.291 9.88447   4
   2   2   0 511.221 10.1556  11
   4  -2   0 564.180 13.8650   1
   4  -2   0 564.189 11.3561   9
   4  -2   0 556.394 10.8680   7
  -4  -2   0 558.942 13.4941  15
  -4  -2   0 532.170 12.9465   2
  -4  -2   0 549.140 11.6090  14
   4  -2   0 556.935 15.0542  13
   4   2   0 561.645 12.9682   5
   4   2   0 560.107 11.1564  11
  -4   2   0 536.566 13.3199   2
   4   2   0 567.064 12.8850  12
  -4   2   0 546.739 11.8459  14
  -4   2   0 537.528 10.2299   4
   4   2   0 544.139 10.4944  16
   6  -2   0 1118.79 25.8686   1
  -6  -2   0 1115.14 25.3657  15
  -6  -2   0 1094.92 21.8937   6
  -6  -2   0 1146.74 24.9136   2
   6  -2   0 1113.54 22.1707   7
  -6  -2   0 1097.25 22.0428  14
   6  -2   0 1087.65 21.0611   9
   6  -2   0 1060.33 28.0480  13
  -6   2   0 1075.22 22.2548  14
  -6   2   0 1086.37 25.0397   2
   6   2   0 1131.84 24.1275   5
   6   2   0 1149.61 24.2455   1
   6   2   0 1128.41 24.3713  12
  -6   2   0 1111.32 26.1308  15
   8  -2   0 33.7904 4.93542   1
  -8  -2   0 29.9408 4.81594   8
  -8  -2   0 28.4315 4.79591   2
  -8  -2   0 34.1727 5.66186  15
   8   2   0 46.4436 4.74359   5
   8   2   0 25.3203 3.78832   1
  -8   2   0 32.6640 5.21887  15
  -8   2   0 39.5914 6.06695   2
 -10  -2   0 42.3335 7.19762  15
 -10  -2   0 34.8376 5.92186   2
  10  -2   0 38.2913 5.95126   1
 -10   2   0 38.4362 6.34660   2
  10   2   0 44.0689 4.95197   5
 -10   2   0 49.6525 6.99048  15
   1  -3   0 879.041 15.7926   7
   1  -3   0 870.873 16.2269   9
  -1  -3   0 863.284 15.6830   9
  -1  -3   0 877.855 16.7590   2
  -1  -3   0 867.889 16.5664  15
  -1  -3   0 859.315 15.8052   8
  -1  -3   0 881.790 16.3324   6
   1  -3   0 870.935 16.6677   1
   1  -3   0 876.583 15.6521   6
   1   3   0 881.257 16.9279   5
   1   3   0 865.312 15.7767  12
   1   3   0 861.618 16.3120  11
   3  -3   0 4980.24 86.0211   1
  -3  -3   0 4933.09 85.3854  15
  -3  -3   0 4871.38 84.3091   8
   3  -3   0 4847.50 86.5287   9
  -3  -3   0 4984.00 84.1880   6
   3  -3   0 5006.20 85.8866   7
   3  -3   0 4966.58 99.8248  13
  -3  -3   0 5029.30 85.3951   2
   3   3   0 5019.00 90.6348   5
   3   3   0 4934.95 86.6019  11
   3   3   0 4928.94 84.5207  12
  -3   3   0 4921.24 84.2439  14
  -3   3   0 4923.06 85.0053   4
  -5  -3   0 1522.85 30.8683   2
   5  -3   0 1539.01 32.0107   1
  -5  -3   0 1501.54 30.2990   8
  -5  -3   0 1507.84 31.2716  15
  -5  -3   0 1515.17 28.6013  14
   5  -3   0 1540.94 28.4103   9
   5  -3   0 1495.10 27.3807   7
   5  -3   0 1474.11 32.7924  13
  -5  -3   0 1536.69 28.9591   6
   5   3   0 1535.60 28.0144  11
   5   3   0 1510.85 27.1265  16
   5   3   0 1538.22 30.2713  12
  -5   3   0 1539.77 31.4554   2
   5   3   0 1592.77 30.9447   5
  -5   3   0 1501.29 29.0154  14
  -7  -3   0 975.746 24.0423   2
   7  -3   0 980.602 25.2802   1
  -7  -3   0 970.609 20.7788   6
  -7  -3   0 957.292 23.5162   8
  -7  -3   0 991.571 24.7431  15
   7   3   0 993.257 23.1450   5
  -7   3   0 993.617 24.5042   2
   7   3   0 970.069 22.7975   1
  -7   3   0 967.991 21.2297  14
  -7   3   0 993.708 25.8321  15
   7   3   0 973.246 23.1721  12
  -9  -3   0 710.485 22.5016  15
   9  -3   0 730.007 23.1288   1
  -9  -3   0 734.029 21.7540   2
  -9   3   0 690.992 21.9597   2
   9   3   0 715.280 20.1822   5
  -9   3   0 694.235 23.3611  15
   0  -4   0 1084.71 19.7448   8
   0  -4   0 1068.80 19.8327   6
   0  -4   0 1071.16 19.5081   1
   0  -4   0 1087.29 19.8387   9
   0   4   0 1058.73 18.8384  12
   0   4   0 1058.14 19.9756  11
   0   4   0 1070.69 20.2674   5
  -2  -4   0 48.3069 2.65535   6
  -2  -4   0 44.9168 2.84767  15
  -2  -4   0 48.7610 2.44816   8
   2  -4   0 48.9226 2.50661   9
   2  -4   0 52.1049 3.02352   1
  -2  -4   0 50.5018 3.00133   2
  -2  -4   0 53.1869 2.00748   9
   2  -4   0 54.0324 2.01477   6
   2  -4   0 50.3441 2.17471   7
   2   4   0 48.4665 2.63417  11
   2   4   0 50.7524 2.48359  12
  -2   4   0 51.9994 3.15274  13
   2   4   0 49.9899 3.03229   5
   4  -4   0 563.982 11.7596   7
   4  -4   0 606.221 15.2084   1
  -4  -4   0 575.810 13.2480   6
  -4  -4   0 551.992 13.1238   8
  -4  -4   0 604.095 14.6685  15
   4  -4   0 590.614 13.0119   9
  -4  -4   0 588.401 14.5074   2
  -4   4   0 590.450 13.4243  14
   4   4   0 586.613 14.4908   5
  -4   4   0 561.996 12.0803   4
   4   4   0 587.421 12.7453  11
   4   4   0 577.432 13.4630  12
  -6  -4   0 198.572 7.12900   6
   6  -4   0 180.961 6.31774   9
   6  -4   0 177.492 8.70084   1
  -6  -4   0 206.888 8.71605   2
  -6  -4   0 179.873 7.50238   8
  -6  -4   0 204.704 8.95098  15
   6   4   0 175.754 7.51149  12
  -6   4   0 205.802 8.81253   2
   6   4   0 190.440 6.17454  11
  -6   4   0 191.525 7.07177  14
   6   4   0 182.311 7.93050   5
   8  -4   0 102.374 8.05816   1
  -8  -4   0 89.6416 7.90869  15
  -8  -4   0 101.982 7.15073   2
   8   4   0 103.147 6.89183   5
  -8   4   0 102.210 8.73999  15
  -8   4   0 96.9906 8.02003   2
 -10  -4   0 -2.1037 3.81579  15
  10  -4   0 -0.1055 2.86702   1
 -10  -4   0 -0.7531 1.93728   2
 -10   4   0 -0.6825 4.55532  15
 -10   4   0 0.55966 3.03384   2
  10   4   0 2.48627 2.00382   5
  -1  -5   0 670.566 13.9947  15
   1  -5   0 651.411 13.8739   1
   1  -5   0 653.576 13.6923   9
  -1  -5   0 635.953 12.9316   8
   1  -5   0 641.515 13.0552   6
  -1  -5   0 642.637 13.7943   6
  -1  -5   0 659.587 13.1639   9
   1   5   0 645.004 13.7485  11
  -1   5   0 649.778 13.3925  11
   1   5   0 633.556 12.4583  12
  -1   5   0 638.372 13.3599   5
   1   5   0 648.848 14.4328   5
   3  -5   0 85.1905 2.73977   6
  -3  -5   0 80.8483 3.65690   8
  -3  -5   0 96.3653 4.78499  15
  -3  -5   0 84.9253 2.73963   9
   3  -5   0 91.6563 4.05349   9
   3  -5   0 85.0647 4.67722   1
  -3  -5   0 85.8131 4.58618   2
  -3  -5   0 91.2489 4.24743   6
   3  -5   0 90.4384 3.29627   7
  -3   5   0 85.7911 4.53734  13
   3   5   0 86.5939 3.78426  12
   3   5   0 92.2029 5.09292   5
   3   5   0 89.1319 4.20288  11
  -3   5   0 85.4398 3.15957  11
  -3   5   0 80.6052 3.82383   4
  -5  -5   0 5.27901 1.76414   6
  -5  -5   0 4.91277 1.90399   8
  -5  -5   0 4.12392 1.72261   2
   5  -5   0 5.47240 1.53739   9
   5  -5   0 7.76752 2.24421   1
  -5  -5   0 5.29897 2.43364  15
  -5   5   0 3.06513 1.30467   4
   5   5   0 6.54780 1.91528  12
  -5   5   0 6.45919 1.95198  14
   5   5   0 12.3867 2.76696   5
   5   5   0 7.75319 1.80911  11
  -7  -5   0 5.05304 3.22506  15
  -7  -5   0 -1.5986 2.34586   2
   7  -5   0 0.58581 1.30183   9
   7  -5   0 1.35002 1.82746   1
  -7  -5   0 0.63170 1.73802   6
  -7   5   0 1.03220 2.91670   2
  -7   5   0 -0.5725 1.75350  14
   7   5   0 1.25495 1.91324  12
   7   5   0 2.68493 2.29021   5
  -9  -5   0 61.7927 7.27633   2
  -9  -5   0 53.6367 6.75637  15
   9  -5   0 59.5731 7.64686   1
   9   5   0 51.4483 5.96805   5
  -9   5   0 48.7843 7.62135   2
  -9   5   0 58.6284 8.43665  15
   0  -6   0 1118.55 21.7793   6
   0  -6   0 1120.22 21.0377   1
   0  -6   0 1136.10 21.8466   9
   0   6   0 1108.47 22.2067   5
   0   6   0 1133.54 22.0661  11
   0   6   0 1057.05 20.4712  12
  -2  -6   0 2267.06 41.7249   8
   2  -6   0 2354.29 43.9796   1
  -2  -6   0 2399.97 43.5418   6
  -2  -6   0 2476.74 43.9902  15
   2  -6   0 2377.07 43.2719   9
  -2  -6   0 2404.07 41.9340   9
   2  -6   0 2301.22 41.7043   6
  -2   6   0 2330.34 42.0852   5
   2   6   0 2405.66 43.3711  11
   2   6   0 2475.52 44.7624   5
  -2   6   0 2408.01 46.2386  13
  -2   6   0 2382.79 42.3823  11
   2   6   0 2284.61 41.6174  12
  -4  -6   0 2832.88 51.6478   6
  -4  -6   0 2729.06 52.1595  15
   4  -6   0 2778.93 50.9800   9
   4  -6   0 2802.31 53.5406   1
   4  -6   0 2707.83 48.8265   7
  -4  -6   0 2792.75 52.6658   2
  -4   6   0 2734.91 50.1163   4
   4   6   0 2890.78 50.9858  11
   4   6   0 2783.07 52.8426   5
   4   6   0 2746.50 50.3993  12
  -4   6   0 2816.06 51.5128  14
   6  -6   0 1696.93 34.1836   9
  -6  -6   0 1730.75 35.0046   6
  -6  -6   0 1671.31 36.5251  15
  -6  -6   0 1728.23 37.0050   2
   6  -6   0 1736.43 38.5522   1
   6   6   0 1707.92 33.5399  11
  -6   6   0 1793.00 38.6659   2
   6   6   0 1718.65 36.9569   5
  -6   6   0 1695.29 34.8784  14
   6   6   0 1681.54 34.9331  12
  -8  -6   0 822.591 23.6352   2
  -8  -6   0 835.160 23.5751  15
  -8  -6   0 847.656 21.1605   6
   8  -6   0 830.183 25.4679   1
   8   6   0 843.336 23.0663   5
  -8   6   0 858.421 25.0483   2
  -1  -7   0 10.3965 1.67330   9
  -1  -7   0 5.13605 1.51362  15
  -1  -7   0 7.13276 1.74964   6
   1  -7   0 5.57452 1.48840   9
   1  -7   0 3.76364 1.18624   6
   1  -7   0 4.93622 1.24919   1
  -1   7   0 3.69502 1.49870   5
   1   7   0 5.46638 1.90730   5
  -1   7   0 5.33987 1.58913  11
   1   7   0 3.82234 1.68420  11
  -3  -7   0 5.19920 1.80790   6
  -3  -7   0 1.50969 0.77640   9
   3  -7   0 -0.1214 1.27883   1
   3  -7   0 1.45452 1.31407   9
  -3  -7   0 2.62083 1.75051  15
  -3   7   0 1.78721 1.11310  11
   3   7   0 -0.1825 1.26672   5
   3   7   0 1.86924 1.57622  12
  -3   7   0 -0.2247 0.92064   4
   3   7   0 0.08363 1.05228  11
   5  -7   0 244.860 10.3198   1
  -5  -7   0 238.451 9.70704  15
   5  -7   0 238.526 8.65984   9
  -5  -7   0 232.934 9.74191   2
  -5  -7   0 224.878 8.86299   6
   5   7   0 227.907 8.12445  12
  -5   7   0 230.934 8.98353  14
  -5   7   0 224.337 7.70925   4
   5   7   0 248.845 8.63661  11
   5   7   0 238.177 9.78217   5
   7  -7   0 14.2017 3.95470   1
  -7  -7   0 14.0374 3.78313   2
  -7  -7   0 17.7913 4.05198  15
  -7  -7   0 14.9485 3.37386   6
   7  -7   0 10.3530 2.64681   9
   7   7   0 12.3015 3.74670   5
  -7   7   0 15.7795 3.26708  14
  -7   7   0 9.13589 3.92638   2
   7   7   0 10.5119 2.54322  11
  -9  -7   0 72.1642 7.29639   2
  -9  -7   0 61.2190 7.35143  15
   9  -7   0 55.7477 7.89938   1
  -9   7   0 70.8156 8.82250  15
  -9   7   0 57.6959 7.81138   2
   9   7   0 61.3555 6.90353   5
   0  -8   0 434.414 11.5725   6
   0  -8   0 434.625 11.5159   9
   0   8   0 436.634 11.7001  11
   0   8   0 433.993 11.8042   5
  -2  -8   0 943.598 21.3132  15
   2  -8   0 939.311 21.1901   1
   2  -8   0 943.734 21.1602   9
   2  -8   0 936.673 19.5882   6
  -2  -8   0 943.955 19.6197   9
  -2  -8   0 940.909 21.3638   6
   2   8   0 971.426 21.3747  11
  -2   8   0 970.003 21.6741   4
  -2   8   0 949.985 20.1327  11
   2   8   0 955.984 22.1664   5
   4  -8   0 227.168 8.75889   9
  -4  -8   0 245.352 9.33980   6
   4  -8   0 252.249 10.2961   1
  -4  -8   0 240.310 9.47309  15
   4   8   0 236.534 9.75411   5
  -4   8   0 241.224 8.66979   4
   4   8   0 250.888 8.83637  11
   6  -8   0 12.8463 3.53691   1
   6  -8   0 6.97204 2.31088   9
  -6  -8   0 4.17018 2.68156  15
  -6  -8   0 6.83511 2.55273   6
  -6  -8   0 4.00206 2.70709   2
  -6   8   0 10.6592 2.65384  14
   6   8   0 8.26867 3.38220   5
   6   8   0 8.52786 2.57300  11
   8  -8   0 277.441 10.9265   9
  -8  -8   0 291.434 11.7888   6
   8  -8   0 286.559 14.3596   1
  -8  -8   0 302.737 13.4378   2
  -8  -8   0 295.927 12.9283  15
  -8   8   0 275.773 14.1012   2
   8   8   0 312.833 13.5042   5
  -1  -9   0 2431.97 45.6251   9
  -1  -9   0 2431.06 46.7081   6
   1  -9   0 2477.81 46.6147   9
   1  -9   0 2393.85 45.5820   6
  -1   9   0 2490.61 47.7317   4
  -1   9   0 2443.65 46.0117  11
   1   9   0 2457.50 46.8230  11
   1   9   0 2408.38 47.0289   5
   3  -9   0 405.360 12.4522   9
  -3  -9   0 411.084 12.7308  15
   3  -9   0 395.958 12.7112   1
  -3  -9   0 414.933 12.9156   6
   3   9   0 406.817 12.4360  11
  -3   9   0 404.173 12.7478   4
   3   9   0 420.420 13.5681   5
  -3   9   0 401.777 11.1042  11
   5  -9   0 631.111 19.1993   1
  -5  -9   0 652.481 18.3183   6
   5  -9   0 633.779 17.4851   9
  -5  -9   0 653.087 18.2614  15
   5   9   0 644.606 18.9899   5
   5   9   0 634.960 16.8183   4
  -5   9   0 628.833 18.1741  14
   5   9   0 638.134 17.1239  11
  -7  -9   0 373.771 14.3870  15
  -7  -9   0 393.679 15.2874   2
   7  -9   0 402.268 16.3264   1
  -7  -9   0 366.270 13.7794   6
   7  -9   0 375.468 13.1683   9
  -7   9   0 382.665 13.8666  14
   7   9   0 374.075 12.5797  11
   7   9   0 387.296 15.2242   5
  -7   9   0 394.816 16.8019   2
   0 -10   0 574.499 15.2726   9
   0 -10   0 580.357 15.4845   6
   0  10   0 575.468 16.5843   4
   0  10   0 574.787 15.6203  11
  -2 -10   0 22.1994 2.79913   9
  -2 -10   0 18.3296 3.36497   6
   2 -10   0 23.3914 3.43784   9
   2  10   0 25.6025 3.98142  11
   2  10   0 24.0836 3.58041   5
  -2  10   0 21.5151 2.90259  11
   2  10   0 28.7312 3.99339   4
  -2  10   0 27.1455 3.96454   4
  -4 -10   0 18.8154 3.71272  15
  -4 -10   0 16.0524 2.99425   6
   4 -10   0 13.6313 3.19119   1
   4 -10   0 19.1281 3.38907   9
   4  10   0 19.6623 3.76102  11
   4  10   0 17.5650 4.02474   5
   4  10   0 18.0711 3.40037   4
  -4  10   0 14.6512 3.35632   4
  -4  10   0 20.4846 3.81783  14
  -6 -10   0 171.048 9.43433   6
  -6 -10   0 179.973 9.18981  15
   6 -10   0 172.256 8.88785   9
   6 -10   0 170.760 10.1570   1
   6  10   0 176.291 8.76522  11
  -6  10   0 185.732 9.71533  14
   6  10   0 187.652 10.1775   5
  -1 -11   0 22.8214 3.86265   6
   1 -11   0 14.3682 2.79040   6
   1 -11   0 19.4717 3.33152   9
  -1 -11   0 20.2941 3.15519   9
  -1  11   0 15.2798 3.61193   4
   1  11   0 20.0009 3.97050   4
   1  11   0 16.8197 3.10016  11
  -1  11   0 16.2286 3.35383  11
   3 -11   0 5.26370 2.70271   9
  -3 -11   0 2.56160 1.85564   6
  -3  11   0 -0.1850 1.70018   4
   3  11   0 1.57575 2.51681   4
   3  11   0 0.95787 2.64548  11
   3  11   0 0.41315 2.56668   5
  -5 -11   0 401.225 14.7382   6
  -5 -11   0 407.906 14.5124  15
   5 -11   0 398.307 14.2472   9
   5  11   0 397.748 15.2810   5
  -5  11   0 420.962 15.2083  14
   5  11   0 403.672 13.9788  11
   0 -12   0 118.954 6.81161   9
   0 -12   0 122.632 7.18972   6
   0  12   0 111.945 7.14602  11
   0  12   0 119.513 8.07714   4
  -2 -12   0 455.409 15.4430   6
   2 -12   0 445.433 15.0174   9
   2  12   0 495.480 15.6219  11
  -2  12   0 445.103 13.8143  11
   2  12   0 470.030 15.9455   4
  -2  12   0 499.199 16.4413   4
  -4 -12   0 309.057 12.7301   6
   4 -12   0 278.992 11.6999   9
   4  12   0 291.459 11.6537  11
  -4  12   0 299.008 12.1582   4
   4  12   0 287.241 12.5342   5
  -4  12   0 277.183 12.5614  14
   4  12   0 280.384 11.8070   4
  -1 -13   0 6.48162 2.57294   6
   1 -13   0 11.1082 3.32485   9
   1  13   0 8.39027 3.26324   4
  -1  13   0 4.42866 2.22999  11
   1  13   0 12.1197 3.54469  11
  -1  13   0 8.58000 3.60610   4
   3 -13   0 167.517 9.15867   9
  -3 -13   0 174.581 9.84728   6
   3  13   0 176.988 9.73370   4
  -3  13   0 190.405 10.2353   4
   3  13   0 169.928 8.97768  11
 -10   0   1 0.81989 3.48521   2
 -10   0   1 11.8507 3.92212  15
  10   0  -1 1.56915 2.51319   1
 -10   0   1 3.87683 3.44181   8
  -8   0   1 -1.0389 2.50278   2
   8   0  -1 0.31632 1.72309   1
   8   0  -1 -0.4649 1.32607   5
  -8   0   1 -0.9823 3.01159  15
   6   0  -1 0.70007 0.75698   7
   6   0  -1 0.25497 1.12328   1
  -6   0   1 -0.9836 0.70116  14
   6   0  -1 1.78131 0.96142   5
   6   0  -1 1.78056 1.90073  13
  -6   0   1 0.00741 1.77996   2
  -6   0   1 3.26479 2.15155  15
  -2   0   1 0.05899 0.63769   2
   2   0  -1 1.51244 0.38481  11
   2   0  -1 1.62712 0.60528   5
   2   0  -1 -0.3283 0.40201   1
  -2   0   1 0.49388 0.20472  16
   2   0  -1 1.60929 0.78477  13
   2   0  -1 0.37385 0.19509  16
  -2   0   1 -0.4084 0.73259  15
   0   0  -1 0.85866 0.25877  16
   0   0   1 0.04546 0.13877  16
  -2   0  -1 2.30425 0.43871  16
   2   0   1 2.87551 0.78634   5
  -2   0  -1 2.12129 0.78139  14
   2   0   1 4.16202 0.89696   3
  -2   0  -1 1.75005 0.41456   4
   2   0   1 1.13132 0.78430  12
  -4   0  -1 0.34135 0.47170   6
   4   0   1 5.19853 1.27012   5
  -4   0  -1 11.1509 2.15950  15
  -4   0  -1 1.52463 1.64274   2
   4   0   1 2.72064 1.28089  12
   4   0   1 1.13405 0.36364  16
  -4   0  -1 -0.0936 1.02260  14
   6   0   1 0.51963 1.33661  12
  -6   0  -1 -0.4499 2.28290   2
  -6   0  -1 -1.4371 1.74514  15
   6   0   1 0.62221 1.59477   1
  -6   0  -1 0.82220 1.39547  14
   6   0   1 -0.0344 1.14155   5
  -8   0  -1 -4.1961 2.83211  15
  -8   0  -1 1.09409 3.12079   2
   8   0   1 0.98193 2.30238   1
   8   0   1 0.31014 1.48155   5
 -10   0  -1 -2.3038 4.64654  15
 -10   0  -1 -2.7485 3.37756   2
  10   0   1 0.50679 2.83215   1
 -11  -1   1 208.620 11.5264   2
 -11  -1   1 195.357 12.4774   8
 -11  -1   1 219.062 13.4276  15
  11  -1  -1 193.226 11.4284   1
 -11   1   1 188.372 11.2956   2
 -11   1   1 231.845 13.6647   8
 -11   1   1 206.971 12.5382  15
  -9  -1   1 376.133 15.4020  15
   9  -1  -1 348.499 14.0611   1
  -9  -1   1 360.468 13.7061   2
  -9  -1   1 350.263 14.7389   8
   9   1  -1 381.555 12.8354   5
  -9   1   1 347.642 13.4230   2
   9   1  -1 359.184 13.3756   1
  -9   1   1 362.620 15.4133  15
   7  -1  -1 390.532 9.80472   7
  -7  -1   1 433.598 14.1486  15
   7  -1  -1 428.507 13.4201   1
   7  -1  -1 408.392 11.4351   5
  -7  -1   1 407.435 12.7969   2
  -7   1   1 387.981 12.8726   2
  -7   1   1 412.413 13.9913  15
   7   1  -1 374.004 12.0782   1
   7   1  -1 410.236 11.9031   5
   5  -1  -1 12.7935 2.83914  13
   5  -1  -1 12.6925 1.09641   9
   5  -1  -1 16.3791 2.41307   1
   5  -1  -1 12.9147 1.40881   7
  -5  -1   1 7.88503 2.41786  15
   5  -1  -1 10.2974 1.63090   5
  -5  -1   1 10.7329 2.15556   2
  -5  -1   1 11.2484 1.27644  14
   5   1  -1 9.63038 1.84261  12
   5   1  -1 11.9172 1.96792   5
   5   1  -1 13.2234 2.04851   1
   5   1  -1 11.7975 1.25404  11
  -5   1   1 13.3950 2.37146   2
  -5   1   1 12.9773 1.50167  14
  -5   1   1 9.75928 2.37722  15
   3  -1  -1 401.574 11.3320  13
  -3  -1   1 389.382 7.57034  14
   3  -1  -1 398.856 7.80249   9
   3  -1  -1 398.306 8.47274   5
   3  -1  -1 392.569 7.96702   7
   3  -1  -1 391.626 9.33469   1
  -3  -1   1 401.521 8.84299   2
  -3  -1   1 372.396 9.33782  15
  -3   1   1 398.175 7.81665  14
  -3   1   1 401.493 7.20941  16
   3   1  -1 406.572 8.70746   1
  -3   1   1 394.349 8.91237   2
   3   1  -1 394.700 8.87614   5
   3   1  -1 400.758 7.89852  11
   3   1  -1 418.391 7.25970  16
   3   1  -1 389.641 8.69268  12
  -1  -1   1 3150.99 56.4848  15
  -1  -1   1 3097.53 55.4279  16
  -1  -1   1 3149.11 56.5789   8
   1  -1  -1 3088.94 53.2071   1
   1  -1  -1 3140.85 56.1124   7
   1   1  -1 3009.59 55.5938   5
   1   1  -1 3071.89 55.1798  16
  -1   1   1 3176.77 66.3773  13
   1   1  -1 2966.79 54.9378  11
   1  -1   1 4165.40 74.0422  16
   1  -1   1 4083.86 70.9767  12
  -1  -1  -1 4164.76 73.3471  14
  -1  -1  -1 4086.85 68.0577  15
  -1  -1  -1 4017.47 71.4815   6
   1  -1   1 3956.88 72.9799   3
  -1  -1  -1 4133.01 73.8109   2
   1   1   1 3876.25 72.5478  12
   1   1   1 4162.40 73.7061  16
  -1   1  -1 4072.69 73.9725  14
  -1   1  -1 4008.29 70.2047   4
   1   1   1 4061.94 72.0713   3
  -1   1  -1 4028.50 72.4838  16
   1   1   1 3993.03 75.3403   5
  -3  -1  -1 726.960 14.5554  14
  -3  -1  -1 711.675 15.5339  15
  -3  -1  -1 738.819 13.8752   6
   3  -1   1 711.326 12.9453   7
   3  -1   1 726.373 13.9879   5
  -3  -1  -1 732.255 15.7732   2
   3  -1   1 729.440 15.1018  12
   3  -1   1 761.454 13.4537  16
  -3   1  -1 742.214 14.7352  14
   3   1   1 751.114 13.3847  11
   3   1   1 730.336 15.1024   5
  -3   1  -1 741.002 15.8494   2
   3   1   1 732.633 13.3608  16
  -3   1  -1 715.377 13.1638   4
   3   1   1 726.401 15.3841  12
  -5  -1  -1 92.0629 4.29173  14
  -5  -1  -1 94.0095 5.63085   2
   5  -1   1 91.7980 5.34629   1
   5  -1   1 95.4256 4.89043  12
   5  -1   1 102.115 6.57778  13
   5  -1   1 90.9361 3.27410   9
   5  -1   1 108.827 4.23132   5
  -5  -1  -1 92.4885 3.48366   6
  -5  -1  -1 97.8720 5.69663  15
  -5   1  -1 98.9986 5.88437   2
  -5   1  -1 108.026 5.98981  15
   5   1   1 93.0549 4.61481   5
   5   1   1 99.7831 5.18121  12
  -5   1  -1 97.9113 4.60607  14
  -7  -1  -1 -4.6301 2.05324   2
   7  -1   1 0.93938 1.26611   5
   7  -1   1 1.34330 1.62498   1
  -7  -1  -1 -0.2910 1.27974  14
  -7  -1  -1 -0.0006 2.93453  15
  -7   1  -1 3.90843 3.01359  15
   7   1   1 12.6150 2.58880   5
  -7   1  -1 -2.2722 2.58694   2
   7   1   1 0.98778 1.66089   1
   7   1   1 -1.6042 1.51103  12
  -7   1  -1 1.77056 1.69508  14
  -9  -1  -1 108.752 9.47552  15
  -9  -1  -1 122.205 9.12057   2
   9  -1   1 121.965 9.02834   1
   9   1   1 118.561 8.31766   1
  -9   1  -1 115.840 8.43200   2
  -9   1  -1 137.763 10.3760  15
  10  -2  -1 190.515 11.0858   1
 -10  -2   1 172.425 10.7528   8
 -10  -2   1 179.301 9.97184   2
 -10  -2   1 190.340 12.0201  15
  10   2  -1 190.139 9.51892   5
 -10   2   1 180.754 12.1910  15
 -10   2   1 192.886 10.9745   2
  -8  -2   1 560.665 18.0253  15
  -8  -2   1 553.727 16.7916   2
   8  -2  -1 568.747 17.8933   1
  -8  -2   1 567.003 17.6158   8
  -8   2   1 584.249 19.0100  15
   8   2  -1 541.896 15.8308   1
  -8   2   1 570.870 17.5064   2
   8   2  -1 573.364 16.0797   5
  -6  -2   1 1882.29 38.0219  15
  -6  -2   1 1881.62 37.9200   8
   6  -2  -1 1855.44 37.9530   1
   6  -2  -1 1825.68 33.7375   7
  -6  -2   1 1856.81 36.7830   2
   6  -2  -1 1856.08 33.3960   9
  -6   2   1 1892.61 37.2028   2
   6   2  -1 1854.51 33.3674  11
   6   2  -1 1871.95 36.4506   5
   6   2  -1 1840.76 36.0073   1
  -6   2   1 1913.45 38.5991  15
  -6   2   1 1856.59 34.0725  14
  -4  -2   1 1273.08 25.4940   8
   4  -2  -1 1295.06 28.4705  13
   4  -2  -1 1306.44 23.4393   9
  -4  -2   1 1296.99 24.9570   2
   4  -2  -1 1281.07 23.3923   7
   4  -2  -1 1262.79 25.7635   1
  -4  -2   1 1297.21 25.7385  15
  -4   2   1 1281.16 23.5232  14
  -4   2   1 1319.62 25.4600   2
   4   2  -1 1309.07 24.7135  12
   4   2  -1 1312.18 23.4674  11
  -4   2   1 1271.94 22.3419   4
   4   2  -1 1294.50 24.9554   5
   4   2  -1 1307.27 24.1977   1
   4   2  -1 1258.63 22.3367   4
  -2  -2   1 5268.66 94.6900   2
  -2  -2   1 5358.88 89.0173   8
   2  -2  -1 5201.45 92.4308   6
   2  -2  -1 5286.58 93.9279   9
   2  -2  -1 5257.22 97.0643   1
   2  -2  -1 5324.15 88.9845   7
  -2  -2   1 5271.13 95.0351  15
   2   2  -1 5141.31 91.5377  12
   2   2  -1 5201.85 90.2594   4
  -2   2   1 5519.12 114.951  13
   2   2  -1 5143.97 94.2224  11
   2   2  -1 5299.46 91.7831   5
   0  -2  -1 6381.48 107.226   9
   0  -2  -1 6005.19 106.275   6
   0  -2  -1 6053.60 107.808   7
   0  -2   1 5992.84 107.624   3
   0  -2   1 6092.47 108.088   8
   0  -2  -1 5886.61 104.337  15
   0  -2  -1 6117.53 109.014   2
   0   2   1 6207.19 109.238  12
   0   2  -1 6103.20 106.563  11
   0   2  -1 6156.02 108.618   4
   0   2   1 6095.09 110.063   5
  -2  -2  -1 646.642 13.1677  15
   2  -2   1 648.794 12.9111  13
   2  -2   1 627.314 13.4459   3
  -2  -2  -1 646.041 13.4709   2
  -2  -2  -1 652.600 12.8189  14
   2  -2   1 632.950 12.5085  12
  -2  -2  -1 636.022 12.4737   6
   2   2   1 633.287 12.4889   3
   2   2   1 633.782 13.4882   5
  -2   2  -1 656.645 12.1325   4
  -2   2  -1 630.383 12.8327  14
   2   2   1 641.762 12.2704  11
   2   2   1 619.868 13.1660  12
   4  -2   1 2202.17 40.1398  12
  -4  -2  -1 2185.17 41.1253  15
   4  -2   1 2136.23 38.2133   5
   4  -2   1 2222.41 41.7923   1
   4  -2   1 2161.58 38.5047   9
   4  -2   1 2135.04 37.2416   7
  -4  -2  -1 2223.57 41.2989   2
   4  -2   1 2174.05 42.4417  13
  -4  -2  -1 2189.53 38.8187   6
  -4  -2  -1 2190.88 39.4798  14
   4   2   1 2199.75 40.7307  12
   4   2   1 2162.85 38.0189  11
   4   2   1 2247.07 40.7951   5
  -4   2  -1 2093.21 37.3810   4
  -4   2  -1 2221.54 39.7042  14
   4   2   1 2188.57 37.7581  16
  -4   2  -1 2207.82 41.5708   2
  -6  -2  -1 1265.72 28.1103  15
  -6  -2  -1 1211.81 23.9496   6
  -6  -2  -1 1229.11 27.7182   2
  -6  -2  -1 1214.97 24.9749  14
   6  -2   1 1124.08 24.4499   5
   6  -2   1 1243.35 28.7962   1
  -6   2  -1 1229.76 28.7917  15
   6   2   1 1261.90 27.1612  12
  -6   2  -1 1240.27 25.3849  14
  -6   2  -1 1253.52 28.3045   2
   6   2   1 1284.50 26.6757   5
  -8  -2  -1 333.727 13.6037   2
   8  -2   1 332.733 14.0303   1
  -8  -2  -1 340.806 14.1110  15
  -8   2  -1 348.694 14.2887   2
  -8   2  -1 380.981 15.6251  15
   8   2   1 349.410 12.8199  12
   8   2   1 343.785 12.0740   5
   8   2   1 353.289 13.2663   1
 -10  -2  -1 413.881 16.6654   2
 -10  -2  -1 413.555 17.4983  15
  10  -2   1 419.023 17.7560   1
 -10   2  -1 398.092 17.9864  15
 -10   2  -1 440.582 17.6823   2
 -11  -3   1 4.72537 3.71413   2
 -11  -3   1 2.85672 4.77182  15
  11  -3  -1 8.07375 4.08101   1
 -11   3   1 4.03810 5.48071  15
  11   3  -1 5.35874 2.75737   5
 -11   3   1 4.42603 3.09242   2
  -9  -3   1 260.525 11.9036   2
  -9  -3   1 266.264 12.0686   8
   9  -3  -1 249.869 12.4962   1
  -9  -3   1 252.002 12.8410  15
  -9   3   1 274.255 13.6693  15
  -9   3   1 272.397 12.6668   2
   9   3  -1 288.787 11.5059   5
  -7  -3   1 71.2140 5.46126   8
  -7  -3   1 72.5437 4.17475   6
  -7  -3   1 68.1169 5.06878   2
  -7  -3   1 70.0229 6.53225  15
   7  -3  -1 62.6987 5.39544   1
  -7   3   1 66.0424 5.70239   2
  -7   3   1 58.0864 6.16502  15
   7   3  -1 59.4937 4.30493   1
   7   3  -1 67.0187 3.36550  11
   7   3  -1 70.6232 5.07485   5
  -5  -3   1 174.264 6.83692   2
   5  -3  -1 164.432 8.19835  13
   5  -3  -1 173.424 5.34510   9
   5  -3  -1 176.759 7.35922   1
   5  -3  -1 176.350 5.17085   7
  -5  -3   1 176.825 6.84406   8
  -5  -3   1 182.706 7.51324  15
   5   3  -1 175.037 6.28304  12
   5   3  -1 174.112 5.68285   1
   5   3  -1 174.455 6.55610   5
   5   3  -1 169.848 4.36458   4
  -5   3   1 179.182 7.13255   2
   5   3  -1 186.777 5.48222  11
  -5   3   1 175.109 5.53423  14
   3  -3  -1 0.28755 0.50754   7
  -3  -3   1 1.50781 0.85518   2
  -3  -3   1 3.33206 1.33898  15
   3  -3  -1 1.19066 0.64201   9
   3  -3  -1 0.70359 0.38010   6
  -3  -3   1 2.16721 1.05686   8
   3  -3  -1 2.00394 1.00461   1
  -3   3   1 0.88206 0.95071  13
   3   3  -1 3.83687 1.10382   5
   3   3  -1 3.01737 0.95851  11
   3   3  -1 0.79994 0.46467   1
   1  -3  -1 267.631 6.19525   9
  -1  -3   1 269.448 6.47265   8
   1  -3  -1 272.104 6.57280   1
   1  -3  -1 267.999 6.01282   6
   1  -3  -1 284.791 6.12899   7
  -1  -3   1 272.069 6.63842  15
  -1  -3   1 276.533 5.83227   9
   1   3  -1 266.403 6.26946   5
   1   3  -1 263.553 6.16973  11
  -1  -3  -1 3001.89 51.8073   9
  -1  -3  -1 2994.30 51.8244   2
  -1  -3  -1 2994.30 51.1775  15
  -1  -3  -1 2996.89 51.3051   6
   1  -3   1 2958.58 51.0152   9
   1  -3   1 2951.08 51.3582   3
   1  -3   1 2969.11 51.6422   1
   1   3   1 3051.23 52.3575   5
  -1   3  -1 3044.00 57.9701  13
   1   3   1 2983.90 51.4703  12
  -1   3  -1 2891.84 50.2769  11
  -1   3  -1 2934.59 51.1495   4
  -3  -3  -1 476.568 10.6296   6
  -3  -3  -1 470.479 11.5160  15
   3  -3   1 471.507 10.3457   9
  -3  -3  -1 485.096 11.8741   2
  -3  -3  -1 451.990 10.2667   8
   3  -3   1 482.364 12.1726   1
  -3  -3  -1 463.444 10.7351  14
   3  -3   1 465.572 9.02199   7
   3  -3   1 475.760 11.1645  13
   3   3   1 473.428 11.3871  12
  -3   3  -1 479.878 11.0738  14
   3   3   1 468.254 10.2051  11
   3   3   1 483.948 12.0054   5
  -3   3  -1 467.109 9.87930   4
  -5  -3  -1 511.278 14.1463  15
  -5  -3  -1 502.392 12.0487   6
  -5  -3  -1 526.482 14.3136   2
  -5  -3  -1 512.700 12.4850  14
  -5  -3  -1 474.006 12.9589   8
   5  -3   1 536.946 15.2611   1
   5  -3   1 520.638 11.8108   9
   5   3   1 502.910 11.1729  11
  -5   3  -1 510.959 12.7890  14
   5   3   1 528.802 14.0192   5
   5   3   1 532.238 13.7906  12
  -5   3  -1 486.176 14.4251   2
  -7  -3  -1 13.5811 3.67762   2
  -7  -3  -1 14.4211 4.09022  15
   7  -3   1 11.1461 3.43181   1
  -7  -3  -1 11.8557 2.28346  14
  -7   3  -1 16.8902 3.82135   2
  -7   3  -1 7.02039 3.38505  15
  -7   3  -1 11.0905 2.64438  14
   7   3   1 14.0440 3.28860  12
   7   3   1 11.4533 2.57180   1
   7   3   1 9.32941 2.66607   5
   9  -3   1 5.53003 3.61667   1
  -9  -3  -1 0.39177 3.98846  15
  -9  -3  -1 1.05227 2.62733   2
   9   3   1 0.71153 1.58918   5
  -9   3  -1 -5.5254 3.71552  15
  -9   3  -1 -4.9476 3.32373   2
  10  -4  -1 229.373 12.8940   1
 -10  -4   1 218.900 11.6028   2
 -10  -4   1 213.233 12.2111  15
 -10   4   1 236.071 12.4649   2
  10   4  -1 228.637 10.9911   5
 -10   4   1 233.154 13.8090  15
  -8  -4   1 174.150 9.23270   8
  -8  -4   1 169.541 9.83479  15
   8  -4  -1 167.747 9.68183   1
  -8  -4   1 177.901 9.14743   2
  -8  -4   1 161.602 7.12243   6
  -8   4   1 164.686 10.1737  15
   8   4  -1 175.666 8.72079   5
  -8   4   1 174.005 9.05708   2
   6  -4  -1 123.357 4.88980   9
  -6  -4   1 112.192 6.18711   2
  -6  -4   1 116.299 6.15511   8
  -6  -4   1 118.651 5.37604   6
  -6  -4   1 124.642 7.08782  15
   6  -4  -1 125.720 7.02759   1
   6  -4  -1 120.750 4.48888   7
  -6   4   1 133.319 7.04138   2
   6   4  -1 119.864 6.37873   5
   6   4  -1 120.365 5.64280  12
  -6   4   1 119.986 5.20937  14
   6   4  -1 118.530 4.82638  11
   4  -4  -1 2725.92 47.6439   9
   4  -4  -1 2685.05 46.8793   7
  -4  -4   1 2736.05 48.9794   2
   4  -4  -1 2738.26 50.1847   1
  -4  -4   1 2683.52 49.5119  15
  -4  -4   1 2608.01 48.4371   8
   4   4  -1 2481.17 46.0510   1
   4   4  -1 2631.31 46.7455   4
   4   4  -1 2737.22 47.5227  11
   4   4  -1 2680.60 47.7032  12
   4   4  -1 2746.11 49.1506   5
  -4   4   1 2690.09 51.8259  13
  -2  -4   1 578.201 12.7591   2
  -2  -4   1 598.172 11.3793   9
  -2  -4   1 600.281 13.0305  15
   2  -4  -1 589.010 11.6072   6
   2  -4  -1 588.091 13.1137   1
   2  -4  -1 591.348 12.3290   9
  -2  -4   1 592.668 12.5809   8
   2  -4  -1 591.659 11.8906   7
   2   4  -1 561.760 11.1480  12
   2   4  -1 573.811 12.6976   5
  -2   4   1 594.530 15.2905  13
   2   4  -1 562.897 12.1869  11
   0  -4   1 3.36595 0.69467   1
   0  -4  -1 1.44560 0.63184  15
   0  -4  -1 1.28966 0.62742   9
   0  -4   1 2.06582 0.63018   3
   0  -4  -1 1.49283 0.68308   6
   0  -4   1 1.20259 0.68708   9
   0  -4   1 1.73552 0.64202   6
   0   4  -1 1.84896 0.67985  11
   0   4  -1 4.55729 0.96708   5
   0   4  -1 1.76191 0.93397   4
   0   4   1 1.13655 0.98788   5
   0   4   1 2.50865 0.81773  12
  -2  -4  -1 1760.15 31.8641   6
   2  -4   1 1706.72 32.7279   1
   2  -4   1 1730.26 31.5687   9
  -2  -4  -1 1735.30 30.1450   9
  -2  -4  -1 1750.32 32.0418  15
  -2  -4  -1 1721.92 30.0668   8
  -2  -4  -1 1716.97 32.6029   2
   2  -4   1 1766.94 29.8569   6
   2   4   1 1738.41 33.1312   5
   2   4   1 1737.60 31.6675  11
  -2   4  -1 1732.86 31.4401   4
   2   4   1 1723.96 31.9326  12
  -2   4  -1 1737.08 30.1607  11
  -2   4  -1 1697.28 32.3253  13
  -4  -4  -1 194.443 7.40319  15
   4  -4   1 187.459 6.04688   9
  -4  -4  -1 190.613 7.33931   2
   4  -4   1 191.318 7.81143   1
  -4  -4  -1 173.061 5.82040   8
   4  -4   1 182.223 4.64841   7
  -4  -4  -1 187.103 6.28904   6
  -4   4  -1 184.829 5.45285   4
   4   4   1 176.059 5.66026  16
  -4   4  -1 184.514 6.62502  14
   4   4   1 192.252 7.37143   5
   4   4   1 182.143 6.81456  12
   4   4   1 184.523 5.87428  11
   6  -4   1 400.803 14.2263   1
   6  -4   1 403.111 10.8412   9
  -6  -4  -1 430.663 13.7290  15
  -6  -4  -1 416.786 13.7669   2
  -6  -4  -1 423.069 11.4464   6
   6   4   1 407.937 11.1239  11
  -6   4  -1 433.431 14.2994   2
   6   4   1 415.281 12.8657  12
  -6   4  -1 406.656 11.9791  14
   6   4   1 423.204 13.2568   5
   8  -4   1 647.388 21.6275   1
  -8  -4  -1 651.420 20.2799  15
  -8  -4  -1 641.527 20.3007   2
  -8   4  -1 653.463 20.8838   2
  -8   4  -1 657.274 21.8987  15
   8   4   1 677.084 19.3023   5
   8   4   1 641.104 18.9413  12
  10  -4   1 -0.3691 3.43779   1
 -10  -4  -1 3.13615 2.92538   2
 -10  -4  -1 3.14437 4.24353  15
 -10   4  -1 7.79128 3.86970   2
  10   4   1 6.46773 3.01840   5
 -10   4  -1 -0.6238 4.42548  15
  -9  -5   1 196.948 11.2507  15
  -9  -5   1 188.804 10.2497   2
   9  -5  -1 189.165 11.3555   1
  -9   5   1 213.895 11.6549   2
   9   5  -1 206.160 10.1927   5
  -9   5   1 214.979 12.6067  15
  -7  -5   1 23.6175 3.94221   2
  -7  -5   1 31.0923 4.81215  15
  -7  -5   1 24.6510 3.39345   6
   7  -5  -1 18.9602 3.92216   1
   7  -5  -1 22.2904 2.59610   9
   7   5  -1 22.3649 3.63884   5
  -7   5   1 18.9282 4.13547   2
   7   5  -1 22.2748 2.74300  11
  -7   5   1 24.9553 3.14041  14
  -5  -5   1 1056.97 22.1956   6
  -5  -5   1 1035.34 22.4034   8
  -5  -5   1 1052.28 23.2424   2
  -5  -5   1 1028.21 23.5937  15
   5  -5  -1 1016.22 20.4029   7
   5  -5  -1 1054.81 24.5898   1
   5  -5  -1 1029.49 21.5282   9
   5   5  -1 1055.96 21.3606  11
  -5   5   1 989.691 20.2984   4
  -5   5   1 1062.78 21.8391  14
   5   5  -1 1026.45 20.5505   4
   5   5  -1 1045.90 21.7911  12
   5   5  -1 1078.03 23.5528   5
  -3  -5   1 2436.94 44.3334   8
  -3  -5   1 2414.31 45.2722  15
   3  -5  -1 2445.73 42.6088   6
   3  -5  -1 2463.66 43.2792   7
   3  -5  -1 2538.76 45.9958   1
  -3  -5   1 2423.21 42.1785   9
   3  -5  -1 2422.03 44.1325   9
  -3  -5   1 2458.66 45.0625   2
   3   5  -1 2459.03 45.1357   5
   3   5  -1 2379.34 42.8880  12
   3   5  -1 2464.63 44.0926  11
  -3   5   1 2499.78 48.3033  13
   1  -5  -1 185.073 4.24664  10
  -1  -5   1 187.200 5.90288  15
  -1  -5   1 188.518 5.32628   9
   1  -5  -1 191.206 5.65513   9
  -1  -5   1 190.492 5.62809   6
   1  -5  -1 186.750 5.38531   7
   1  -5  -1 189.594 5.47439   6
   1  -5  -1 194.329 5.79838   1
  -1  -5   1 193.112 5.71747   8
  -1   5   1 187.468 5.13016  12
  -1   5   1 189.070 6.01110   5
   1   5  -1 189.918 5.78302   5
   1   5  -1 192.065 5.70571  11
   1  -5   1 95.9176 4.01163   1
  -1  -5  -1 94.1434 3.42609   9
  -1  -5  -1 109.612 4.24175   6
   1  -5   1 97.5685 3.31846   6
  -1  -5  -1 96.5844 2.74291   8
   1  -5   1 97.8056 3.91694   9
  -1  -5  -1 101.595 3.93554  15
  -1  -5  -1 102.743 4.45629   2
   1   5   1 97.5458 3.76684  12
   1   5   1 103.043 4.08601  11
  -1   5  -1 101.593 4.28307   4
  -1   5  -1 99.5862 3.50073  11
  -1   5  -1 95.8666 3.07679   5
   1   5   1 98.5215 4.78047   5
   3  -5   1 487.773 13.1067   1
  -3  -5  -1 497.709 12.4011  15
   3  -5   1 491.585 11.7771   9
  -3  -5  -1 487.454 12.8667   2
  -3  -5  -1 488.433 11.9896   6
  -3   5  -1 447.338 9.62628  11
  -3   5  -1 483.554 11.3858   4
   3   5   1 486.216 11.6676  11
  -3   5  -1 497.792 12.3447  14
   3   5   1 498.262 13.3371   5
   3   5   1 468.977 11.8429  12
  -5  -5  -1 134.927 6.97835  15
   5  -5   1 126.524 5.57931   9
   5  -5   1 133.575 7.21146   1
  -5  -5  -1 143.874 6.16776   6
  -5  -5  -1 140.455 7.26589   2
  -5   5  -1 140.751 6.49131  14
   5   5   1 141.304 7.34312   5
   5   5   1 142.674 5.58092  11
   5   5   1 135.292 5.63742  16
  -5   5  -1 144.290 7.71975   2
   5   5   1 125.534 6.23808  12
  -7  -5  -1 874.548 23.3718  15
  -7  -5  -1 922.611 24.0761   2
   7  -5   1 871.971 20.0777   9
  -7  -5  -1 865.188 20.6333   6
   7  -5   1 905.469 25.5309   1
   7   5   1 908.326 23.3538   5
   7   5   1 909.196 22.9118  12
  -7   5  -1 868.450 21.3656  14
  -7   5  -1 885.747 24.6896   2
  -9  -5  -1 161.911 10.2662   2
   9  -5   1 145.687 10.2553   1
  -9  -5  -1 167.894 10.3365  15
  -9   5  -1 143.312 10.8717   2
  -9   5  -1 155.222 11.4862  15
   9   5   1 152.128 9.31328   5
  10  -6  -1 399.047 17.7439   1
 -10  -6   1 416.722 16.6618  15
 -10  -6   1 417.919 16.1959   2
 -10   6   1 374.831 16.5512   2
  10   6  -1 396.153 15.2764   5
 -10   6   1 431.466 19.1433  15
  -8  -6   1 233.442 9.64825   6
  -8  -6   1 230.511 11.4880  15
   8  -6  -1 248.343 12.5598   1
  -8  -6   1 262.791 11.4689   2
   8   6  -1 253.744 10.9924   5
  -8   6   1 258.997 12.1622   2
   6  -6  -1 0.72741 1.35830   1
  -6  -6   1 0.35645 1.70789   6
   6  -6  -1 6.01842 1.47448   7
   6  -6  -1 0.87852 1.30898   9
  -6  -6   1 1.67459 1.90063   2
  -6  -6   1 3.29678 2.45600  15
   6   6  -1 4.81899 1.84384  11
   6   6  -1 7.09707 2.59138   5
  -6   6   1 -0.3444 2.13516   2
  -6   6   1 3.62475 1.75082  14
  -4  -6   1 466.579 12.3367   6
  -4  -6   1 480.483 13.0784   2
   4  -6  -1 460.386 13.5135   1
   4  -6  -1 455.779 10.9878   7
   4  -6  -1 463.223 11.9953   9
  -4  -6   1 450.351 11.8608   8
  -4  -6   1 484.035 13.3546  15
   4   6  -1 475.857 11.9431  11
   4   6  -1 472.694 11.6361   4
   4   6  -1 472.524 13.1747   5
   4   6  -1 458.317 11.0292  12
  -2  -6   1 139.650 4.45640   9
  -2  -6   1 123.685 4.91043   6
  -2  -6   1 120.201 4.69691   8
   2  -6  -1 126.931 5.31067   1
  -2  -6   1 126.413 5.36575  15
   2  -6  -1 119.952 4.38917   6
   2  -6  -1 126.250 4.50233   7
   2  -6  -1 126.534 4.92923   9
  -2   6   1 128.159 4.99256   5
   2   6  -1 121.434 5.10254  11
   2   6  -1 124.435 5.36419   5
   0  -6   1 357.311 8.42988   1
   0  -6  -1 367.157 9.38565   6
   0  -6   1 366.999 8.90948   6
   0  -6  -1 356.193 8.99808   9
   0  -6   1 369.584 9.25895   9
   0  -6   1 353.488 9.31173   8
   0   6  -1 348.626 8.68738   5
   0   6   1 362.026 10.1146   5
   0   6  -1 365.808 9.20470  11
   0   6   1 358.809 8.49662  12
   0   6  -1 364.672 9.75999   4
   0   6   1 364.749 9.52769  11
   2  -6   1 2154.39 39.0034   6
  -2  -6  -1 2222.91 39.5354   9
  -2  -6  -1 2275.54 41.6161   6
  -2  -6  -1 2274.60 42.5640   2
   2  -6   1 2226.16 41.2336   9
   2  -6   1 2235.81 42.1457   1
  -2  -6  -1 2296.89 41.6535  15
   2   6   1 2159.90 40.5277  12
   2   6   1 2234.36 41.2944  11
   2   6   1 2236.83 42.9387   5
  -2   6  -1 2226.91 41.3436   4
  -2   6  -1 2222.43 39.7303  11
  -2   6  -1 2280.76 41.2120  13
  -4  -6  -1 37.9918 4.24402   2
  -4  -6  -1 31.9564 3.49380   6
   4  -6   1 38.4054 4.40302   1
   4  -6   1 38.9788 3.61834   9
  -4  -6  -1 38.9134 4.11558  15
  -4   6  -1 31.1267 3.43538  14
   4   6   1 35.2160 2.95852  11
   4   6   1 34.1346 3.58386  12
   4   6   1 45.7930 4.80487   5
  -4   6  -1 34.1736 3.04396   4
   6  -6   1 3.90895 2.12136   1
  -6  -6  -1 10.4897 3.23918  15
  -6  -6  -1 12.7336 3.20484   2
  -6  -6  -1 2.30551 1.98986   6
   6  -6   1 1.93094 1.65731   9
   6   6   1 6.11975 2.46512  12
  -6   6  -1 0.47662 2.09294  14
   6   6   1 7.73160 2.16743  11
   6   6   1 4.63937 2.87217   5
  -6   6  -1 2.97928 2.40483   2
  -8  -6  -1 259.642 12.4383   2
  -8  -6  -1 261.245 12.0340  15
   8  -6   1 275.168 13.8334   1
   8   6   1 256.924 11.0518  12
  -8   6  -1 271.815 13.7997   2
   8   6   1 260.074 11.9299   5
  -9  -7   1 4.65609 3.22281   2
   9  -7  -1 6.07509 3.57626   1
  -9  -7   1 2.06060 2.55741   6
  -9  -7   1 7.05101 3.97392  15
   9   7  -1 6.92388 3.16641   5
  -9   7   1 -2.0993 3.79879  15
  -9   7   1 8.95139 4.52552   2
  -7  -7   1 399.222 14.5597  15
  -7  -7   1 409.961 14.1962   2
   7  -7  -1 416.099 15.4743   1
  -7  -7   1 428.132 13.5842   6
   7  -7  -1 407.144 12.4499   9
   7   7  -1 431.394 14.8543   5
   7   7  -1 425.345 12.3000  11
  -7   7   1 438.998 15.9556   2
  -7   7   1 389.567 12.6746  14
  -5  -7   1 469.767 13.4768   6
   5  -7  -1 456.579 14.7850   1
   5  -7  -1 456.450 12.8864   9
  -5  -7   1 479.657 14.5283  15
  -5  -7   1 487.280 14.2916   2
   5  -7  -1 458.640 11.4391   7
  -5   7   1 482.963 13.3814  14
   5   7  -1 453.048 12.2638   4
   5   7  -1 478.643 12.9166  11
   5   7  -1 462.296 14.0777   5
  -5   7   1 478.716 12.3849   4
   3  -7  -1 281.699 9.40242   1
  -3  -7   1 260.708 8.61523   6
  -3  -7   1 256.721 6.90770   9
   3  -7  -1 263.173 8.46592   9
  -3  -7   1 269.349 9.05378  15
   3  -7  -1 247.088 7.05875   6
  -3  -7   1 258.576 7.84563   8
   3  -7  -1 260.678 7.55167   7
  -3   7   1 256.988 7.91715   5
   3   7  -1 258.589 8.29538  11
   3   7  -1 257.126 8.47899   4
   3   7  -1 256.594 8.99435   5
  -3   7   1 257.097 7.63593  11
  -1  -7   1 863.707 18.0630   9
  -1  -7   1 846.508 18.3728   6
   1  -7  -1 835.500 18.0757   1
   1  -7  -1 855.910 18.2595   6
   1  -7  -1 869.747 18.5907   9
  -1  -7   1 848.056 18.1334   8
  -1   7   1 860.680 19.0724   5
  -1   7   1 892.189 18.6940  11
   1   7  -1 862.152 19.2737   4
   1   7  -1 853.132 18.4850   5
   1   7  -1 879.645 18.6048  11
   1  -7   1 1.30112 1.14244   9
   1  -7   1 1.99631 0.96280   6
  -1  -7  -1 2.41712 1.39960   6
   1  -7   1 1.09340 0.99848   1
  -1  -7  -1 1.45979 0.99786   9
  -1  -7  -1 0.65986 1.11092  15
  -1   7  -1 2.23732 1.35525  11
   1   7   1 0.19468 1.41871  11
  -1   7  -1 2.58311 1.76848   4
   1   7   1 1.00521 1.17410  12
   1   7   1 2.76052 1.97835   5
  -3  -7  -1 55.3566 4.44147  15
  -3  -7  -1 61.0894 4.49214   2
   3  -7   1 53.1236 4.34719   1
   3  -7   1 64.0015 4.23650   9
  -3  -7  -1 63.7140 4.39600   6
  -3   7  -1 58.4351 3.81477   4
   3   7   1 50.5966 3.49029  12
   3   7   1 55.9551 5.03706   5
   3   7   1 55.5375 4.05583  11
  -5  -7  -1 935.980 22.1620   6
  -5  -7  -1 910.540 23.4317   2
  -5  -7  -1 942.482 22.7863  15
   5  -7   1 936.832 21.5880   9
   5  -7   1 916.907 24.2194   1
   5   7   1 906.250 20.9197  11
   5   7   1 917.243 23.7132   5
   5   7   1 919.163 21.5844  12
  -5   7  -1 948.748 22.5668  14
   7  -7   1 141.626 7.11886   9
   7  -7   1 165.790 10.4421   1
  -7  -7  -1 144.123 8.62260   2
  -7  -7  -1 146.114 7.74876   6
  -7  -7  -1 149.138 8.61331  15
   7   7   1 153.490 9.28248   5
  -7   7  -1 140.607 7.91878  14
  -7   7  -1 145.346 10.1608   2
   7   7   1 146.356 7.94087  12
  -9  -7  -1 58.8468 7.18924   2
   9  -7   1 49.9622 7.48912   1
  -9   7  -1 56.7066 7.39649   2
  -9   7  -1 57.9635 9.19976  15
   9   7   1 52.6037 6.20998   5
  -8  -8   1 531.648 16.7449   6
   8  -8  -1 511.063 15.2728   9
  -8  -8   1 527.362 18.0408  15
  -8  -8   1 540.742 18.0406   2
   8  -8  -1 543.097 19.7375   1
   8   8  -1 543.054 18.1620   5
  -8   8   1 538.652 19.3908   2
   8   8  -1 520.215 14.9038  11
   6  -8  -1 551.763 15.5268   9
  -6  -8   1 564.639 17.2746  15
  -6  -8   1 550.471 17.0066   2
   6  -8  -1 544.052 17.8274   1
  -6  -8   1 546.841 16.1147   6
   6   8  -1 574.365 17.4833   5
   6   8  -1 539.700 14.9760  11
  -6   8   1 530.438 15.4372  14
  -4  -8   1 51.8700 4.56540  15
  -4  -8   1 37.8717 4.07467   6
   4  -8  -1 51.4950 4.09239   9
   4  -8  -1 50.1630 5.14076   1
  -4   8   1 42.5612 3.19258  11
  -4   8   1 50.3543 4.10351   4
   4   8  -1 48.5771 4.04331   4
   4   8  -1 48.8012 4.69291   5
   4   8  -1 47.1034 4.43112  11
  -2  -8   1 759.471 18.1708  15
  -2  -8   1 727.124 16.6087   8
   2  -8  -1 755.141 16.7564   6
   2  -8  -1 767.683 17.7719   9
  -2  -8   1 747.883 16.4256   9
  -2  -8   1 743.353 17.6719   6
   2  -8  -1 752.346 17.7042   1
  -2   8   1 740.469 17.1615  11
   2   8  -1 758.058 18.1265   4
   2   8  -1 772.607 17.7024  11
   2   8  -1 735.718 17.7326   5
  -2   8   1 740.068 17.3407   5
   0  -8  -1 1986.20 37.3889   9
   0  -8   1 1928.40 37.1320   6
   0  -8  -1 1926.71 37.7083   6
   0  -8   1 1983.71 37.6423   9
   0   8   1 1983.13 38.0410  11
   0   8   1 1968.30 38.7295   5
   0   8  -1 1995.08 37.5201  11
   0   8  -1 1905.63 36.6298   5
   0   8  -1 2018.22 38.8978   4
   2  -8   1 697.523 17.3184   1
   2  -8   1 702.446 17.1097   9
  -2  -8  -1 708.996 15.5646   9
  -2  -8  -1 720.441 17.6361   6
  -2  -8  -1 741.827 17.2034  15
   2   8   1 736.778 17.4723  11
  -2   8  -1 722.396 15.9268  11
   2   8   1 692.779 18.4353   5
  -2   8  -1 731.852 17.6763   4
  -4  -8  -1 653.484 17.4430   6
  -4  -8  -1 661.479 18.6357   2
   4  -8   1 652.100 17.0682   9
  -4  -8  -1 654.787 17.4491  15
   4  -8   1 655.682 18.5658   1
   4   8   1 659.885 18.9050   5
  -4   8  -1 648.109 16.3788   4
   4   8   1 677.030 17.1050  11
  -4   8  -1 672.700 17.9468  14
   6  -8   1 218.793 9.30022   9
   6  -8   1 213.489 11.2427   1
  -6  -8  -1 235.931 9.96533   6
  -6  -8  -1 240.540 11.2210   2
  -6  -8  -1 236.443 10.3168  15
  -6   8  -1 230.752 10.2494  14
  -6   8  -1 233.268 12.2353   2
   6   8   1 209.024 8.75911  11
   6   8   1 241.053 11.4091   5
  -8  -8  -1 59.3847 7.09408   2
   8  -8   1 37.6027 5.95787   1
  -8  -8  -1 44.9740 5.29756   6
  -8   8  -1 49.3055 7.57586   2
   8   8   1 58.1178 6.53744   5
  -7  -9   1 68.6687 6.98392  15
  -7  -9   1 75.1744 6.43516   6
   7  -9  -1 62.9830 7.35036   1
   7  -9  -1 63.6579 5.84857   9
   7   9  -1 75.9059 7.11390   5
  -7   9   1 79.7037 8.00634   2
   7   9  -1 63.8970 5.55526  11
  -7   9   1 65.9608 5.84312  14
   5  -9  -1 -1.2536 1.92965   1
  -5  -9   1 -1.0956 1.77131  15
   5  -9  -1 -0.5316 1.66937   9
  -5  -9   1 2.87837 2.32266   6
  -5   9   1 -0.7801 2.01653  14
  -5   9   1 0.31071 1.79895   4
   5   9  -1 2.85276 2.64483   5
   5   9  -1 -0.3418 1.61467   4
   5   9  -1 2.81291 2.26642  11
  -3  -9   1 5.80255 2.34316  15
  -3  -9   1 5.09514 2.20589   6
   3  -9  -1 4.55207 1.67816   9
   3  -9  -1 5.31869 1.87858   1
   3   9  -1 3.92384 2.40297   5
   3   9  -1 2.39544 1.91577   4
  -3   9   1 6.04958 2.38253   4
  -3   9   1 5.16972 1.91577  11
   3   9  -1 4.24947 1.86242  11
  -1  -9   1 172.776 6.82264   9
   1  -9  -1 176.187 7.23155   9
   1  -9  -1 170.900 6.87688   6
  -1  -9   1 165.598 7.09230   6
   1   9  -1 177.857 7.14812  11
   1   9  -1 175.097 7.98133   4
  -1   9   1 172.937 7.14329  11
   1   9  -1 171.489 6.98581   5
  -1   9   1 175.322 7.44132   5
   1  -9   1 88.9578 5.29711   9
  -1  -9  -1 101.898 4.93200   9
   1  -9   1 90.2218 4.73561   6
  -1  -9  -1 88.6329 5.41426   6
   1   9   1 93.8404 5.53562  11
   1   9   1 85.0561 5.92856   5
  -1   9  -1 84.7799 4.87790  11
  -1   9  -1 87.0863 5.74583   4
  -3  -9  -1 22.8673 3.32993  15
   3  -9   1 19.3354 3.30517   1
  -3  -9  -1 23.9979 3.71087   6
   3  -9   1 25.3851 3.56020   9
  -3   9  -1 19.2494 3.23955   4
   3   9   1 26.1601 3.57722  11
   3   9   1 20.9187 3.99769   5
  -5  -9  -1 44.8370 5.23164   6
  -5  -9  -1 44.1232 5.15428  15
   5  -9   1 51.3658 5.89498   1
   5  -9   1 50.5087 5.14424   9
   5   9   1 42.3696 5.88204   5
  -5   9  -1 49.7103 5.52377  14
   5   9   1 35.9830 4.44855  11
   7  -9   1 2.97463 3.20039   1
  -7  -9  -1 3.77184 3.08788   6
  -7  -9  -1 -0.3437 2.78371   2
   7  -9   1 2.24902 2.36729   9
  -7   9  -1 1.80738 4.23475   2
   7   9   1 3.35934 3.30742   5
  -7   9  -1 1.84373 2.98880  14
   8 -10  -1 27.6020 4.25127   9
   8 -10  -1 24.5211 5.60036   1
  -8 -10   1 36.4149 5.48130   6
  -8 -10   1 40.5851 5.56436  15
  -8  10   1 31.5038 6.62998   2
   8  10  -1 23.0686 4.06408  11
   8  10  -1 43.1047 6.24947   5
   6 -10  -1 5.84995 3.40369   1
   6 -10  -1 6.37396 2.74199   9
  -6 -10   1 8.11256 3.16393   6
  -6 -10   1 5.49617 3.02481  15
   6  10  -1 3.73251 2.86719  11
  -6  10   1 4.61686 2.74831  14
   6  10  -1 5.36175 3.07967   5
   4 -10  -1 17.6650 3.40196   9
  -4 -10   1 24.3701 3.76509   6
   4 -10  -1 20.0215 3.51414   1
  -4 -10   1 27.2682 4.21488  15
   4  10  -1 34.5364 4.65215  11
   4  10  -1 20.6341 3.57251   4
   4  10  -1 26.9763 4.27481   5
  -4  10   1 20.8468 3.91549   4
   2 -10  -1 1.58293 1.78637   6
  -2 -10   1 -0.0802 1.79381   6
   2 -10  -1 2.61847 1.85221   9
  -2 -10   1 0.79634 1.48444   9
  -2  10   1 2.86954 1.92653  11
   2  10  -1 1.63818 1.68488  11
   2  10  -1 -2.8604 1.98581   4
   2  10  -1 -1.1285 1.62043   5
  -2  10   1 -0.0520 2.06396   4
   0 -10  -1 139.341 6.43599   9
   0 -10   1 118.009 6.06434   6
   0 -10   1 128.875 6.47356   9
   0 -10  -1 127.677 6.70755   6
   0  10   1 124.281 6.60787  11
   0  10  -1 118.069 7.10337   4
   0  10  -1 134.555 6.32045  11
   0  10   1 112.242 6.69131   5
  -2 -10  -1 198.896 8.85040   6
   2 -10   1 188.624 8.25824   9
  -2  10  -1 188.247 8.94689   4
   2  10   1 198.150 8.80888  11
  -2  10  -1 185.704 7.15258  11
   2  10   1 195.302 9.55365   5
   4 -10   1 2.48398 2.22649   9
  -4 -10  -1 3.16876 2.70004   6
  -4 -10  -1 3.47883 2.44566  15
   4  10   1 3.41618 3.07697   5
  -4  10  -1 -1.1367 2.40619  14
  -4  10  -1 -1.9176 1.27248   4
   4  10   1 5.25205 2.82235  11
   6 -10   1 37.7805 4.89351   9
  -6 -10  -1 46.8943 5.90875   6
   6 -10   1 28.8475 5.00052   1
  -6  10  -1 43.3053 5.82625  14
   6  10   1 46.9663 6.33526   5
   6  10   1 38.8588 4.80283  11
  -6  10  -1 43.7945 6.24297   2
  -7 -11   1 195.764 9.99747  15
  -7 -11   1 193.604 10.5673   6
   7 -11  -1 188.838 9.59553   9
   7 -11  -1 175.928 10.7397   1
  -7  11   1 197.717 12.1055   2
   7  11  -1 198.396 10.7978   5
   5 -11  -1 222.957 9.88324   9
  -5 -11   1 237.513 10.7210  15
  -5 -11   1 210.124 10.4479   6
   5  11  -1 227.595 9.89756   4
   5  11  -1 225.108 10.8037   5
  -5  11   1 216.700 10.5193  14
   5  11  -1 211.892 9.46218  11
  -5  11   1 218.087 9.85497   4
  -3 -11   1 218.064 9.66156   6
   3 -11  -1 227.233 9.79035   9
  -3  11   1 231.822 10.4208   4
   3  11  -1 220.965 9.66970   5
   3  11  -1 229.169 9.60847  11
   3  11  -1 249.072 10.5225   4
  -3  11   1 229.663 9.03151  11
  -1 -11   1 406.254 12.5671   9
  -1 -11   1 428.947 13.5442   6
   1 -11  -1 430.969 13.3391   9
   1 -11  -1 436.375 13.3890   6
   1  11  -1 421.138 14.3961   4
  -1  11   1 420.302 14.2906   4
   1  11  -1 432.619 13.5671  11
  -1  11   1 423.290 13.4531  11
  -1 -11  -1 385.750 13.2409   6
   1 -11   1 400.959 13.0950   9
  -1 -11  -1 384.209 11.8743   9
  -1  11  -1 407.484 14.0363   4
   1  11   1 386.435 13.1487  11
   1  11   1 396.789 13.7564   5
  -1  11  -1 392.407 12.2505  11
  -3 -11  -1 334.883 12.8553   6
   3 -11   1 346.389 12.6966   9
  -3  11  -1 334.017 12.6971   4
   3  11   1 359.238 13.8700   5
   3  11   1 344.258 12.6156  11
  -3  11  -1 342.770 13.1442  14
   5 -11   1 224.158 10.2774   9
  -5 -11  -1 215.439 10.7670   6
  -5  11  -1 225.718 10.8226  14
   5  11   1 213.419 11.3768   5
   5  11   1 213.718 9.96167  11
   6 -12  -1 268.348 11.7546   9
   4 -12  -1 316.806 12.5280   9
  -4 -12   1 315.424 12.9935   6
   4  12  -1 325.657 12.7395   4
   4  12  -1 326.144 12.6435  11
  -4  12   1 330.181 12.9683   4
   2 -12  -1 259.388 10.8350   9
  -2 -12   1 275.741 11.3683   6
  -2  12   1 272.969 10.6212  11
   2  12  -1 284.913 11.9559   4
   2  12  -1 292.472 11.4395  11
  -2  12   1 270.755 11.9451   4
   0 -12  -1 63.0418 5.22904   9
   0 -12   1 62.9129 5.34484   9
   0 -12  -1 71.9016 5.89743   6
   0  12   1 63.6500 5.99580  11
   0  12  -1 76.9292 5.91729  11
   0  12   1 69.5031 5.92778   4
   0  12  -1 71.0439 6.93389   4
   2 -12   1 9.12659 3.05602   9
  -2 -12  -1 3.66822 2.63294   6
   2  12   1 2.82555 2.66491   4
  -2  12  -1 6.79767 3.62358   4
   2  12   1 4.87776 2.96462  11
   2  12   1 4.59093 3.16340   5
  -4 -12  -1 270.507 12.2220   6
   4 -12   1 265.155 11.5212   9
   4  12   1 248.875 12.1008   5
   4  12   1 271.100 11.5811   4
  -4  12  -1 270.048 12.4680  14
   4  12   1 267.661 11.5335  11
  -3 -13   1 106.577 7.92803   6
   3 -13  -1 116.655 7.32585   9
   3  13  -1 109.941 8.10648   4
   3  13  -1 126.624 8.08535  11
  -3  13   1 128.102 8.18942   4
  -1 -13   1 6.86405 2.80746   6
  -1 -13   1 3.54810 1.98498   9
   1 -13  -1 5.55329 2.88410   9
  -1  13   1 6.74140 3.62154   4
   1  13  -1 7.13434 3.09269  11
  -1  13   1 7.34142 3.19708  11
   1  13  -1 7.10799 2.70114   4
   1 -13   1 93.3990 6.80917   9
  -1 -13  -1 93.3730 7.16817   6
  -1  13  -1 88.4045 6.22099  11
  -1  13  -1 92.5741 7.62792   4
   1  13   1 92.8476 7.74431   4
   1  13   1 90.8257 7.15719  11
  -3 -13  -1 67.7499 6.95908   6
   3 -13   1 78.1991 6.74763   9
  -3  13  -1 75.1414 7.40425   4
   3  13   1 81.5014 7.14721   4
  -3  13  -1 63.3106 7.03539  14
   3  13   1 88.7466 7.86942  11
 -10   0   2 78.8190 7.03056   2
 -10   0   2 85.3879 9.47199  15
 -10   0   2 75.3793 8.05223   8
  10   0  -2 84.0983 7.25442   1
  -8   0   2 1461.70 33.3972  15
  -8   0   2 1415.07 31.0219   2
   8   0  -2 1418.56 28.0900   7
   8   0  -2 1400.93 31.5634   1
   8   0  -2 1444.45 30.4787   5
   6   0  -2 371.183 8.98887   7
   6   0  -2 361.855 14.8462  13
   6   0  -2 365.341 8.15132  11
   6   0  -2 372.423 10.8533   1
   6   0  -2 386.039 10.3139   5
  -6   0   2 364.545 11.6413  15
  -6   0   2 366.660 10.3960   2
   4   0  -2 1173.67 21.3200  11
   4   0  -2 1212.23 27.7168  13
  -4   0   2 1198.72 20.2668  16
   4   0  -2 1174.19 23.0264   1
  -4   0   2 1203.73 22.4399   2
  -4   0   2 1191.54 23.6426  15
   4   0  -2 1190.72 22.6497   5
  -2   0   2 2184.78 38.4849   8
  -2   0   2 2219.61 47.3212  13
  -2   0   2 2227.86 37.7480  15
   2   0  -2 2179.45 37.9345   4
   2   0  -2 2118.52 40.0705  16
   2   0  -2 2145.60 37.1441  11
   2   0  -2 2189.49 37.7190   1
   2   0  -2 2148.74 37.3402  10
   2   0  -2 2226.38 51.6207  13
  -2   0   2 2248.49 40.1266  16
   0   0  -2 1971.62 34.1959  10
   0   0   2 1975.85 34.9087   3
   0   0  -2 1998.48 34.0699   2
   0   0  -2 2007.65 34.2701  14
   0   0   2 1964.35 34.1412   8
   0   0   2 1952.24 34.6167  12
   0   0   2 2041.55 37.7926  16
   0   0  -2 2047.15 35.7110   4
  -2   0  -2 1344.50 23.4726   6
  -2   0  -2 1347.40 25.7047   2
   2   0   2 1342.03 25.6559   3
  -2   0  -2 1357.82 23.9047   4
   2   0   2 1368.35 25.5834  12
   2   0   2 1341.09 24.6623   5
   2   0   2 1384.45 24.1943  16
  -2   0  -2 1357.32 25.0555  14
   4   0   2 2054.44 39.4723  12
  -4   0  -2 2102.67 40.3749   2
  -4   0  -2 2032.62 39.9745  15
   4   0   2 2057.35 36.3146  16
  -4   0  -2 2075.01 38.5362  14
   4   0   2 2056.06 38.1549   5
  -4   0  -2 2252.57 37.0668   6
   6   0   2 3.40311 1.47593   5
  -6   0  -2 3.91608 2.21738   2
   6   0   2 7.81457 2.44902  12
  -6   0  -2 6.77715 2.08975  14
  -6   0  -2 7.76401 2.92905  15
   8   0   2 2.50657 2.76487   1
  -8   0  -2 3.98726 2.81785   2
  -8   0  -2 3.08453 3.93876  15
 -10   0  -2 323.907 16.0377  15
  10   0   2 351.063 15.8223   1
 -10   0  -2 333.545 15.9441   2
  11  -1  -2 51.0026 6.30991   1
 -11  -1   2 74.8482 9.05253  15
 -11  -1   2 48.2922 7.03461   8
 -11  -1   2 56.9538 6.53263   2
 -11   1   2 58.0284 6.47777   2
 -11   1   2 74.6380 9.44463  15
 -11   1   2 55.3240 7.75665   8
   9  -1  -2 228.865 10.7387   1
  -9  -1   2 239.211 12.2965  15
  -9  -1   2 215.107 11.3851   8
  -9  -1   2 232.417 10.3970   2
   9   1  -2 242.549 10.2312   1
  -9   1   2 241.062 12.2615  15
  -9   1   2 229.799 10.5808   2
   9   1  -2 236.025 9.84329   5
   9   1  -2 232.705 8.02742   7
  -7  -1   2 1453.24 31.7040  15
   7  -1  -2 1426.22 30.9496   1
  -7  -1   2 1466.02 30.0131   2
   7  -1  -2 1427.10 27.4668   7
   7   1  -2 1437.44 29.4927   5
   7   1  -2 1364.07 26.4189  11
  -7   1   2 1427.42 30.0868   2
  -7   1   2 1435.31 31.8194  15
   7   1  -2 1428.99 29.8954   1
  -5  -1   2 239.238 7.20733   2
   5  -1  -2 244.974 10.6011  13
   5  -1  -2 250.523 7.94567   1
  -5  -1   2 243.210 8.30532  15
  -5  -1   2 227.064 4.99276  14
   5  -1  -2 230.351 6.17303   7
   5  -1  -2 240.475 5.47384   9
  -5   1   2 224.128 5.32698  14
   5   1  -2 234.923 7.10120   1
   5   1  -2 236.998 10.7815  13
  -5   1   2 238.938 8.23497  15
   5   1  -2 236.880 5.88167  11
   5   1  -2 242.451 7.26911   5
  -5   1   2 243.320 7.29046   2
   3  -1  -2 2568.49 48.1991  13
   3  -1  -2 2525.75 42.6769   9
  -3  -1   2 2494.70 44.8964   8
  -3  -1   2 2511.76 43.1654   2
   3  -1  -2 2516.38 43.1186   7
   3  -1  -2 2503.74 44.3564   1
  -3  -1   2 2503.94 46.0379  16
  -3  -1   2 2493.39 44.3384  15
   3   1  -2 2485.17 43.7477   5
  -3   1   2 2477.76 44.2000  15
  -3   1   2 2514.49 43.4150  16
  -3   1   2 2507.34 43.2390   2
  -3   1   2 2572.26 48.2500  13
   3   1  -2 2515.84 42.9318  11
   3   1  -2 2487.78 43.2680   1
   3   1  -2 2485.52 42.2906   4
   3   1  -2 2502.98 44.1265  16
   3   1  -2 2573.83 48.4581  13
   1  -1  -2 7050.44 123.385   7
  -1  -1   2 7285.54 138.506  13
   1  -1  -2 6924.82 123.617  10
   1  -1  -2 6962.15 122.942   4
  -1  -1   2 7205.99 126.944  16
  -1  -1   2 7050.05 127.133   8
   1  -1  -2 6993.27 124.100   6
  -1  -1   2 6995.35 125.502   3
  -1  -1   2 7124.04 124.618  15
   1  -1  -2 7021.35 123.703  14
  -1   1   2 7211.31 126.504  16
  -1   1   2 7070.29 124.533   8
   1   1  -2 6941.93 122.331  10
  -1   1   2 7092.63 128.072   3
   1   1  -2 7355.23 139.140  13
   1   1  -2 7238.49 123.371  14
   1   1  -2 7045.03 122.684  11
   1   1  -2 7018.99 124.039   4
  -1  -1  -2 19.6427 1.84200   2
  -1  -1  -2 13.2239 1.22317  14
   1  -1   2 19.0743 1.34719  16
  -1  -1  -2 15.4857 1.29501  15
  -1  -1  -2 17.0448 1.12501   6
  -1  -1  -2 24.8073 1.36673   4
   1  -1   2 18.6038 1.90153   3
   1   1   2 17.2620 1.70741   3
  -1   1  -2 18.9284 1.39368  14
   1   1   2 13.6530 1.56871  12
  -1   1  -2 16.2348 1.13694  10
  -1   1  -2 16.8977 1.28946   4
   1   1   2 16.9556 1.24632  16
  -1   1  -2 19.1810 1.68163   2
  -3  -1  -2 1803.61 34.1688  15
  -3  -1  -2 1827.95 32.0667   6
   3  -1   2 1804.59 33.8760  12
   3  -1   2 1834.12 34.7297   3
   3  -1   2 1805.81 32.3119   5
   3  -1   2 1850.43 32.1512  16
  -3  -1  -2 1856.28 34.7663   2
  -3  -1  -2 1800.87 33.4315  14
   3   1   2 1772.67 33.6769   5
   3   1   2 1851.32 32.0980  16
   3   1   2 1778.65 31.4102  11
  -3   1  -2 1847.64 34.9055   2
  -3   1  -2 1871.16 33.6829  14
   3   1   2 1843.64 34.4596  12
  -3   1  -2 1808.46 31.7990   4
   3   1   2 1810.25 34.1107   3
  -5  -1  -2 1219.75 25.0245  14
   5  -1   2 1225.15 24.0158   5
   5  -1   2 1257.03 26.2279  12
   5  -1   2 1197.55 22.9547   9
  -5  -1  -2 1238.32 27.1164   2
  -5  -1  -2 1213.67 26.8076  15
  -5   1  -2 1241.55 27.5114   2
  -5   1  -2 1198.10 24.9754  14
   5   1   2 1235.18 25.3963   5
   5   1   2 1241.95 26.5158  12
  -5   1  -2 1226.63 27.4307  15
  -7  -1  -2 99.7765 7.73288   2
   7  -1   2 94.3473 6.26278  12
  -7  -1  -2 99.1866 5.67652  14
  -7  -1  -2 91.7195 7.51991  15
   7  -1   2 101.520 7.28177   1
  -7   1  -2 100.677 7.81510  15
  -7   1  -2 97.4625 5.80603  14
   7   1   2 96.5816 5.67693   5
   7   1   2 92.6763 6.55171  12
  -7   1  -2 95.6520 7.66846   2
   7   1   2 100.408 6.89273   1
  -9  -1  -2 405.523 17.0035  15
  -9  -1  -2 424.832 17.0645   2
   9  -1   2 457.552 17.8040   1
  -9   1  -2 440.082 17.9453  15
  -9   1  -2 417.175 17.1406   2
   9   1   2 445.901 17.1330   1
  10  -2  -2 883.876 25.7690   1
 -10  -2   2 871.095 25.9637   8
 -10  -2   2 886.043 24.3890   2
 -10  -2   2 879.326 26.4403  15
 -10   2   2 918.891 27.1643  15
 -10   2   2 896.508 24.5354   2
  10   2  -2 891.357 23.7488   5
  -8  -2   2 680.522 18.4352   2
   8  -2  -2 678.631 15.6180   7
  -8  -2   2 692.735 20.1225   8
  -8  -2   2 695.317 19.9931  15
   8  -2  -2 678.934 19.7033   1
   8   2  -2 676.786 17.7022   1
   8   2  -2 719.963 18.5407   5
  -8   2   2 689.471 18.8617   2
  -8   2   2 720.830 20.7093  15
  -6  -2   2 1038.54 23.7913   8
   6  -2  -2 1046.23 20.5264   7
  -6  -2   2 1047.69 23.7667  15
   6  -2  -2 1006.19 19.5243   9
   6  -2  -2 1005.83 27.4763  13
  -6  -2   2 1032.57 22.1786   2
   6  -2  -2 1061.89 23.7233   1
  -6   2   2 1072.71 24.0838  15
  -6   2   2 1039.89 19.7140  14
   6   2  -2 1025.58 21.5560   1
  -6   2   2 1042.16 22.5144   2
   6   2  -2 1041.85 20.0562  11
   6   2  -2 1052.11 22.2844   5
  -4  -2   2 1305.67 25.6393  15
   4  -2  -2 1304.83 25.7071   1
   4  -2  -2 1301.77 23.3610   9
  -4  -2   2 1270.08 25.6401   8
  -4  -2   2 1309.83 24.4670   2
   4  -2  -2 1288.90 23.7338   7
   4  -2  -2 1282.78 29.0043  13
   4   2  -2 1304.53 23.6848   1
  -4   2   2 1263.32 22.9558  14
   4   2  -2 1245.87 22.5197   4
  -4   2   2 1304.21 24.6314   2
  -4   2   2 1306.00 29.1979  13
   4   2  -2 1290.40 23.5537  11
  -4   2   2 1304.76 22.8840  16
   4   2  -2 1253.10 24.6905   5
  -2  -2   2 186.806 5.16744  15
  -2  -2   2 179.990 4.47205   2
  -2  -2   2 179.816 4.90515   3
   2  -2  -2 177.365 5.22078   1
   2  -2  -2 183.509 4.19576  10
  -2  -2   2 179.628 5.43552   8
   2  -2  -2 189.998 4.65349   7
   2  -2  -2 179.328 4.51361   9
  -2  -2   2 186.286 4.75030  16
   2  -2  -2 184.258 4.49168   6
   2   2  -2 187.421 4.51930   4
   2   2  -2 181.600 4.70195   5
  -2   2   2 192.605 7.24865  13
   2   2  -2 180.414 4.49598  11
   0  -2   2 6224.43 109.339   3
   0  -2   2 6328.35 114.962  16
   0  -2  -2 6301.62 109.464   7
   0  -2   2 6020.32 109.424  12
   0  -2  -2 6028.68 112.999   2
   0  -2  -2 6407.02 107.598  14
   0  -2  -2 5986.92 108.224   6
   0  -2   2 6360.00 113.920   8
   0   2  -2 6253.52 109.529  10
   0   2  -2 6514.57 112.955  13
   0   2   2 6336.28 114.907  12
   0   2  -2 6052.82 108.275  11
   0   2   2 6457.47 115.665  16
   0   2  -2 6074.11 106.997   4
   0   2  -2 6075.63 111.922  14
   0   2   2 6610.66 111.658   3
   2  -2   2 8284.30 147.706  16
  -2  -2  -2 8288.34 143.003   6
  -2  -2  -2 8047.16 147.399  14
  -2  -2  -2 7952.72 143.246  15
  -2  -2  -2 8347.58 148.060   2
   2  -2   2 7901.72 140.905   3
   2  -2   2 7893.36 141.128  12
   2   2   2 8050.95 148.138  12
   2   2   2 8102.41 145.586   5
   2   2   2 7861.98 145.278   3
  -2   2  -2 8050.20 144.194   2
   2   2   2 8216.00 145.221  16
  -2   2  -2 8096.90 141.782  10
  -2   2  -2 8014.02 141.036   4
  -2   2  -2 8161.39 147.369  14
  -4  -2  -2 604.379 12.9057   6
  -4  -2  -2 608.202 14.0306  14
   4  -2   2 605.315 14.2990  12
   4  -2   2 591.381 12.1801   5
  -4  -2  -2 617.549 15.4612   2
   4  -2   2 598.271 15.5808  13
   4  -2   2 601.369 12.8397   9
  -4  -2  -2 611.755 15.0075  15
   4   2   2 630.928 15.1641  12
  -4   2  -2 629.477 14.2906  14
   4   2   2 595.615 14.6155   5
   4   2   2 585.275 12.0589  11
  -4   2  -2 594.845 15.5035   2
  -4   2  -2 594.142 11.9676   4
   4   2   2 594.841 12.2996  16
   6  -2   2 497.883 14.1640  12
  -6  -2  -2 470.753 14.8981  15
  -6  -2  -2 494.406 13.3644  14
  -6  -2  -2 487.282 15.2187   2
   6  -2   2 509.637 16.2180   1
  -6   2  -2 486.270 15.8926  15
  -6   2  -2 497.504 15.7095   2
   6   2   2 485.051 14.6998  12
  -6   2  -2 486.232 13.4804  14
   6   2   2 527.233 14.3920   5
   8  -2   2 160.128 10.2547   1
  -8  -2  -2 163.634 10.0856  15
  -8  -2  -2 143.088 9.51736   2
   8   2   2 142.902 7.65528   5
  -8   2  -2 164.691 10.3734  15
   8   2   2 149.285 8.76321  12
  -8   2  -2 143.888 10.0863   2
   8   2   2 147.359 8.91169   1
 -11  -3   2 45.6187 6.03343   2
  11  -3  -2 52.9475 6.90406   1
 -11  -3   2 61.6887 8.62009  15
 -11   3   2 54.5579 8.27717  15
 -11   3   2 51.4659 6.61395   2
  11   3  -2 58.8265 6.28723   5
  -9  -3   2 -0.7037 3.55095  15
  -9  -3   2 10.5833 3.86637   8
   9  -3  -2 1.69063 2.00683   1
  -9  -3   2 0.82071 2.64417   2
  -9   3   2 2.26252 2.48755   2
   9   3  -2 -0.3869 1.91969   5
  -9   3   2 7.31816 4.13542  15
   7  -3  -2 89.1096 4.12144   7
   7  -3  -2 75.2390 3.51152   9
  -7  -3   2 84.2677 6.42311  15
   7  -3  -2 81.5361 5.85183   1
  -7  -3   2 85.9020 5.54854   2
  -7  -3   2 80.5107 5.84512   8
   7   3  -2 86.9927 3.82499  11
  -7   3   2 92.2697 6.54652  15
  -7   3   2 92.1536 5.98355   2
   7   3  -2 85.0092 5.32180   5
  -5  -3   2 194.962 7.70701  15
   5  -3  -2 186.955 9.23030  13
   5  -3  -2 188.193 5.67887   7
  -5  -3   2 188.489 6.64124   2
  -5  -3   2 185.762 7.30978   8
   5  -3  -2 191.235 5.59212   9
   5  -3  -2 179.460 7.26513   1
  -5   3   2 185.209 6.83095   2
   5   3  -2 188.555 5.69422  11
  -5   3   2 189.132 5.43684  14
   5   3  -2 183.411 5.39039   1
   5   3  -2 196.899 6.74596   5
  -5   3   2 189.460 4.91927  16
   5   3  -2 186.797 4.76177   4
   3  -3  -2 10.5328 1.15127   6
  -3  -3   2 8.00765 0.76940   9
   3  -3  -2 7.48096 1.13559   7
  -3  -3   2 6.93412 1.25582   2
  -3  -3   2 9.07644 1.81770  15
   3  -3  -2 8.06573 0.70960  10
   3  -3  -2 8.11821 1.55272   1
  -3  -3   2 7.54927 1.65808   8
   3  -3  -2 6.79869 1.03437   9
   3   3  -2 9.00297 1.20247   4
   3   3  -2 8.17589 1.40999   5
   3   3  -2 8.24685 1.30716  11
  -3   3   2 10.0747 2.19201  13
  -1  -3   2 706.568 13.6889   3
  -1  -3   2 694.296 13.9941  15
   1  -3  -2 709.871 13.2284  10
  -1  -3   2 701.602 14.4970   8
   1  -3  -2 700.430 13.6369   9
   1  -3  -2 719.634 13.8394   6
   1  -3  -2 717.320 13.6869   7
   1  -3  -2 724.366 14.2109   1
   1   3  -2 693.464 13.8606   4
   1   3  -2 700.741 13.1241   5
   1   3  -2 703.574 13.4717  11
  -1  -3  -2 12.9677 1.58397  14
  -1  -3  -2 9.46738 1.35787   6
   1  -3   2 10.2050 0.90327  12
  -1  -3  -2 13.1865 1.76106   2
  -1  -3  -2 10.1289 1.25117  15
   1  -3   2 12.2103 1.66103   3
  -1   3  -2 11.6304 1.53172  14
  -1   3  -2 14.1490 0.88169  10
   1   3   2 8.91584 1.68769   5
  -1   3  -2 8.37400 1.32636   4
  -1   3  -2 11.7336 1.01572  11
   1   3   2 10.1936 1.72608  12
   1   3   2 11.5151 1.28555   3
   3  -3   2 180.820 5.78840  12
  -3  -3  -2 181.941 6.44928  15
  -3  -3  -2 192.954 5.78025   6
   3  -3   2 184.713 5.55680   9
   3  -3   2 179.615 5.03960  13
  -3  -3  -2 183.924 6.11340  14
  -3  -3  -2 189.123 6.94588   2
  -3   3  -2 187.020 5.26697   4
   3   3   2 172.204 6.84908   5
  -3   3  -2 190.826 7.00667   2
  -3   3  -2 175.357 4.74774  10
   3   3   2 183.460 5.38261  11
  -3   3  -2 181.309 6.30409  14
   3   3   2 190.799 6.84707  12
   3   3   2 188.731 5.54562  16
   5  -3   2 2.94857 1.56967  12
  -5  -3  -2 4.27699 2.35833   2
   5  -3   2 4.64518 2.11787   1
   5  -3   2 4.37626 1.23772   9
  -5  -3  -2 1.28020 1.08768   6
  -5  -3  -2 2.67449 2.16244  15
  -5  -3  -2 12.9677 2.38607  14
  -5   3  -2 1.30991 2.18865   2
  -5   3  -2 5.94110 1.79415  14
   5   3   2 3.67526 2.00528  12
   5   3   2 5.91512 1.86186   5
  -7  -3  -2 207.295 8.38530  14
  -7  -3  -2 218.949 10.6964   2
   7  -3   2 213.962 11.2017   1
  -7  -3  -2 197.506 10.1357  15
  -7   3  -2 211.781 8.74848  14
  -7   3  -2 229.915 11.4962  15
   7   3   2 222.445 10.0858  12
  -7   3  -2 210.695 11.2062   2
   7   3   2 225.821 9.59930   5
   9  -3   2 2.86806 3.38884   1
  -9  -3  -2 3.85275 3.76118   2
  -9  -3  -2 5.57447 4.35913  15
  -9   3  -2 2.67184 4.20807   2
   9   3   2 1.32582 2.41056   5
  -9   3  -2 4.24278 4.13771  15
  10  -4  -2 512.269 19.1396   1
 -10  -4   2 489.034 17.1972   2
 -10  -4   2 510.704 18.9766  15
 -10   4   2 485.766 17.2033   2
 -10   4   2 555.323 20.7012  15
  10   4  -2 550.133 17.6102   5
  -8  -4   2 347.757 11.2018   6
  -8  -4   2 374.735 14.2995  15
  -8  -4   2 354.750 13.1897   8
  -8  -4   2 369.801 12.5252   2
   8  -4  -2 359.326 13.9345   1
  -8   4   2 356.420 13.0499   2
   8   4  -2 344.921 12.2732   5
  -8   4   2 342.620 14.1518  15
   8   4  -2 383.580 11.2988  11
   6  -4  -2 1667.32 32.1776   9
  -6  -4   2 1741.75 35.7707  15
  -6  -4   2 1746.88 34.4841   2
   6  -4  -2 1749.12 36.3507   1
  -6  -4   2 1685.35 34.9224   8
   6  -4  -2 1708.63 32.1806   7
  -6   4   2 1747.07 35.0489   2
   6   4  -2 1724.41 32.2777  11
   6   4  -2 1715.88 34.5656   5
  -6   4   2 1664.27 32.0122  14
  -4  -4   2 6764.23 112.640  15
   4  -4  -2 6524.26 110.411   9
   4  -4  -2 6508.49 112.769   1
  -4  -4   2 6513.91 112.111   8
   4  -4  -2 6662.02 110.270   7
   4  -4  -2 6372.64 110.718   6
  -4  -4   2 6519.09 111.209   2
   4   4  -2 6421.67 116.477   5
   4   4  -2 6517.40 109.703   4
   4   4  -2 6540.83 114.174  11
  -4   4   2 6234.65 116.376  13
  -2  -4   2 5817.08 105.969  15
   2  -4  -2 5907.96 105.802   1
  -2  -4   2 6014.72 103.015   9
  -2  -4   2 5853.79 105.576   3
   2  -4  -2 5956.16 103.584  10
  -2  -4   2 5951.18 101.682   8
   2  -4  -2 6096.91 106.648   9
   2  -4  -2 6098.56 103.662   7
   2  -4  -2 5958.10 103.128   6
   2   4  -2 5922.73 103.166  11
   2   4  -2 5805.63 108.106   5
   2   4  -2 6058.53 107.356   4
   0  -4  -2 3718.33 63.3518   6
   0  -4   2 3640.80 62.9586   3
   0  -4  -2 3588.52 62.1236  15
   0  -4  -2 3609.46 63.4586   2
   0  -4  -2 3781.25 62.7142   9
   0  -4   2 3656.77 62.7963   9
   0  -4   2 3651.80 62.7320   1
   0  -4   2 3632.21 63.9004   8
   0   4  -2 3597.14 63.7883   5
   0   4  -2 3652.94 63.3615   4
   0   4   2 3684.78 63.5320  12
   0   4   2 3647.15 64.5296   5
   0   4   2 3839.22 63.4078   3
   0   4  -2 3629.44 62.3497  11
  -2  -4  -2 1816.16 33.3096   6
   2  -4   2 1778.98 34.1138   3
   2  -4   2 1815.81 32.9634   9
   2  -4   2 1777.82 34.3197   1
  -2  -4  -2 1853.20 34.5283   2
  -2  -4  -2 1803.22 33.1377  15
  -2   4  -2 1809.01 32.8728   4
   2   4   2 1822.57 34.0525  12
  -2   4  -2 1745.98 30.8970  11
   2   4   2 1793.07 32.9710  11
  -2   4  -2 1801.55 31.0378  10
  -2   4  -2 1841.32 33.8482  14
   2   4   2 1727.77 31.7511   3
   2   4   2 1807.34 34.9486   5
  -4  -4  -2 1062.70 22.0015   6
   4  -4   2 1066.74 21.8036   9
  -4  -4  -2 1078.08 22.6090  14
  -4  -4  -2 1083.30 24.0579   2
   4  -4   2 1064.53 24.6865   1
  -4  -4  -2 1029.94 22.8752  15
   4   4   2 1114.29 24.3476   5
  -4   4  -2 1099.97 24.9288   2
   4   4   2 1037.92 21.1878  16
   4   4   2 1056.18 21.1917  11
  -4   4  -2 1081.90 22.9375  14
   4   4   2 1084.74 23.4430  12
  -4   4  -2 1030.41 20.6602   4
  -6  -4  -2 1775.99 35.4952   6
  -6  -4  -2 1800.37 38.3305  15
  -6  -4  -2 1834.44 36.6377  14
   6  -4   2 1811.06 40.9100   1
  -6  -4  -2 1866.24 39.7559   2
   6   4   2 1877.26 38.7704  12
  -6   4  -2 1863.69 40.5216   2
   6   4   2 1832.84 38.5014   5
  -6   4  -2 1845.97 37.2355  14
   8  -4   2 1217.37 32.8505   1
  -8  -4  -2 1112.68 29.2773  15
  -8  -4  -2 1233.47 31.2461   2
   8   4   2 1129.78 28.4292   5
  -8   4  -2 1187.60 31.6941   2
   8   4   2 1184.51 29.5878  12
  -8   4  -2 1219.02 32.5699  15
 -11  -5   2 111.000 9.77121  15
 -11  -5   2 114.872 8.47835   2
  11  -5  -2 122.253 10.0111   1
   9  -5  -2 121.558 8.84157   1
  -9  -5   2 112.021 8.83848  15
  -9  -5   2 114.498 7.69745   2
  -9  -5   2 114.050 6.90933   6
  -9   5   2 120.865 9.70170  15
  -9   5   2 122.801 8.72435   2
   9   5  -2 105.938 7.42468   5
  -7  -5   2 310.891 11.0109   2
   7  -5  -2 300.349 9.10890   9
   7  -5  -2 308.650 12.3727   1
  -7  -5   2 311.481 12.0607  15
   7  -5  -2 303.635 8.79988   7
  -7  -5   2 298.227 11.0326   8
   7   5  -2 309.779 11.2176   5
  -7   5   2 329.627 11.8766   2
   7   5  -2 299.252 9.13544  11
  -5  -5   2 1041.77 23.3740  15
   5  -5  -2 1035.47 20.6710   7
   5  -5  -2 1011.97 23.6647   1
  -5  -5   2 1037.67 22.3498   2
   5  -5  -2 1040.08 21.2148   9
  -5  -5   2 1008.53 22.5019   8
   5   5  -2 1023.54 21.0380  11
   5   5  -2 996.500 20.1208   4
  -5   5   2 1000.27 26.3634  13
   5   5  -2 1019.56 22.5245   5
   3  -5  -2 2302.56 41.3210   9
  -3  -5   2 2277.55 42.1794   8
   3  -5  -2 2277.94 40.8493   7
  -3  -5   2 2300.95 42.5697  15
   3  -5  -2 2241.81 40.2498   6
   3  -5  -2 2286.48 42.6881   1
  -3  -5   2 2210.37 39.3517   3
   3   5  -2 2225.10 41.0628   4
  -3   5   2 2321.67 47.1929  13
   3   5  -2 2302.09 41.7424   5
   3   5  -2 2287.45 41.1888  11
  -1  -5   2 1822.14 33.1955  15
  -1  -5   2 1746.08 31.2763   3
   1  -5  -2 1803.81 31.3022  10
  -1  -5   2 1773.32 32.1168   9
  -1  -5   2 1760.96 33.2458   8
   1  -5  -2 1817.28 32.4367   7
   1  -5  -2 1782.83 32.6145   6
   1  -5  -2 1787.64 32.8189   1
   1  -5  -2 1802.78 32.5033   9
  -1  -5   2 1728.25 30.7332   1
  -1   5   2 1745.02 31.6717   3
  -1   5   2 1763.02 32.5905  12
  -1   5   2 1792.92 33.7939   5
   1   5  -2 1771.05 31.8034   5
   1   5  -2 1797.65 33.0805   4
   1   5  -2 1765.39 32.3206  11
   1  -5   2 572.866 12.6564   9
  -1  -5  -2 568.466 12.1606  15
  -1  -5  -2 570.677 13.5378   2
   1  -5   2 575.054 13.1135   1
   1  -5   2 549.264 11.2614   6
  -1  -5  -2 559.271 11.7772   9
   1  -5   2 552.084 12.7336   3
  -1  -5  -2 583.922 13.0387   6
   1   5   2 566.259 13.0758  12
   1   5   2 578.170 14.2675   5
  -1   5  -2 577.365 12.9575   4
  -1   5  -2 548.714 11.5569  11
  -1   5  -2 563.791 10.4906  13
   3  -5   2 489.189 12.3244   9
  -3  -5  -2 491.212 12.6186  15
  -3  -5  -2 533.452 13.9491   2
  -3  -5  -2 521.512 12.7356   6
   3  -5   2 521.752 14.2237   1
  -3   5  -2 509.239 13.1062  14
   3   5   2 494.627 13.0196  12
  -3   5  -2 497.706 11.9159   4
   3   5   2 526.313 14.3940   5
   3   5   2 501.388 12.2169  11
   3   5   2 503.743 12.5547  16
  -5  -5  -2 698.361 18.6787   2
   5  -5   2 695.261 19.7662   1
  -5  -5  -2 669.956 16.4517   6
   5  -5   2 685.839 16.2731   9
  -5  -5  -2 673.736 17.6033  15
  -5   5  -2 656.020 16.9018  14
  -5   5  -2 659.467 19.2299   2
   5   5   2 679.288 15.5045  11
   5   5   2 676.716 18.4983   5
   5   5   2 670.893 17.6605  12
  -7  -5  -2 426.058 14.8591  15
   7  -5   2 428.764 17.0334   1
  -7  -5  -2 430.215 15.8410   2
   7   5   2 450.001 15.4053   5
  -7   5  -2 435.289 16.7434   2
  -7   5  -2 432.019 14.0921  14
   7   5   2 439.113 15.0042  12
   9  -5   2 204.525 12.5224   1
  -9  -5  -2 204.118 11.9138   2
   9   5   2 208.216 10.7946   5
  -9   5  -2 215.070 13.5281  15
  -9   5  -2 201.223 13.1143   2
 -10  -6   2 34.9661 5.51812   2
  10  -6  -2 31.6691 6.02427   1
 -10  -6   2 25.1450 5.42217  15
 -10   6   2 37.9390 7.38898  15
  10   6  -2 40.2876 5.39576   5
 -10   6   2 28.9113 5.64511   2
  -8  -6   2 1.88460 2.25748   2
   8  -6  -2 0.12866 1.23960   9
  -8  -6   2 0.74430 2.02489   6
  -8  -6   2 -1.7155 2.98842  15
   8  -6  -2 -0.0894 1.62133   1
   8   6  -2 -1.8817 2.21315   5
   8   6  -2 0.51740 1.59821  11
  -8   6   2 -0.3777 2.84522   2
  -6  -6   2 63.2988 5.87965  15
   6  -6  -2 54.3205 3.30233   7
   6  -6  -2 55.9630 3.86139   9
   6  -6  -2 56.6762 5.16914   1
  -6  -6   2 46.1379 4.39693   6
  -6  -6   2 55.0820 4.49772   8
  -6  -6   2 49.7292 4.06128   2
   6   6  -2 48.0976 4.57179   5
  -6   6   2 49.4993 3.82272  14
   6   6  -2 54.5065 4.03940  11
   4  -6  -2 509.540 12.5906   9
  -4  -6   2 512.929 13.9476  15
   4  -6  -2 509.329 11.1184   6
  -4  -6   2 484.790 12.9485   8
   4  -6  -2 496.176 13.9670   1
  -4  -6   2 485.311 13.0997   2
   4  -6  -2 501.119 11.8670   7
   4   6  -2 507.377 12.4959  11
   4   6  -2 504.906 13.2086   5
  -4   6   2 474.884 16.2071  13
   4   6  -2 483.507 12.0480   4
  -2  -6   2 253.940 7.95938   8
  -2  -6   2 267.003 8.19960  15
   2  -6  -2 269.283 7.40823   7
   2  -6  -2 250.308 8.00920   1
   2  -6  -2 252.691 7.24919   6
  -2  -6   2 253.091 6.91358   9
   2  -6  -2 257.930 7.61695   9
   2   6  -2 255.943 7.95355   4
   2   6  -2 264.522 7.65831   5
   2   6  -2 266.129 7.64861  11
   0  -6  -2 28.9162 2.26923   9
   0  -6   2 34.0266 2.61357   9
   0  -6  -2 31.8882 2.93833   6
   0  -6   2 31.2493 2.23192   6
   0  -6   2 32.5060 2.87208   8
   0  -6   2 31.2401 2.19991   1
   0   6   2 34.7585 2.93053  12
   0   6   2 42.5400 3.72197   5
   0   6  -2 29.8077 1.87998   5
   0   6  -2 33.6392 3.19774   4
   0   6  -2 31.9150 2.55616  11
  -2  -6  -2 6.70366 1.76588   2
   2  -6   2 6.01990 1.75624   1
  -2  -6  -2 6.89320 1.81535  15
  -2  -6  -2 7.24680 1.87173   6
   2  -6   2 11.6759 2.07133   9
  -2   6  -2 5.01245 1.84753   4
  -2   6  -2 8.10056 1.31275  11
   2   6   2 9.81525 2.35718   5
   2   6   2 8.04746 1.92101  11
  -2   6  -2 5.33555 1.88752  14
   2   6   2 8.58061 2.09364  12
  -4  -6  -2 4.74142 2.20745   2
  -4  -6  -2 10.4279 2.48231  15
   4  -6   2 6.32618 2.33646   1
   4  -6   2 6.04378 1.65431   9
  -4  -6  -2 5.55095 1.69242   6
   4   6   2 7.97448 2.91005   5
   4   6   2 4.39685 2.06985  12
  -4   6  -2 4.97407 1.78064   4
   4   6   2 5.83692 1.89865  11
   4   6   2 4.82138 1.44771  16
  -4   6  -2 8.95866 2.46478  14
  -6  -6  -2 256.650 10.4901  15
  -6  -6  -2 258.044 11.3211   2
  -6  -6  -2 248.456 9.51067   6
   6  -6   2 258.318 12.2411   1
   6  -6   2 261.637 9.30358   9
   6   6   2 263.362 11.3996   5
  -6   6  -2 257.278 10.3779  14
  -6   6  -2 256.550 12.1712   2
   6   6   2 259.970 10.6651  12
   8  -6   2 172.533 11.5135   1
  -8  -6  -2 170.142 10.2955   2
   8   6   2 175.595 9.52518  12
   8   6   2 161.900 9.63197   5
  -8   6  -2 166.176 11.4854   2
  -9  -7   2 629.173 20.4565  15
  -9  -7   2 603.660 18.9993   2
   9  -7  -2 608.529 21.1310   1
  -9  -7   2 585.843 17.6325   6
  -9   7   2 587.735 19.7022   2
  -9   7   2 586.331 21.6628  15
   9   7  -2 608.219 19.4171   5
  -7  -7   2 511.228 15.2555   6
   7  -7  -2 512.573 17.2877   1
   7  -7  -2 498.117 13.9644   9
  -7  -7   2 510.350 16.4935  15
  -7  -7   2 495.043 15.5593   2
  -7   7   2 404.356 14.8484  14
   7   7  -2 503.322 15.8518   5
   7   7  -2 526.551 13.9521  11
  -7   7   2 525.534 17.1433   2
   5  -7  -2 792.893 18.5223   9
  -5  -7   2 799.173 20.3169  15
  -5  -7   2 788.521 18.9471   6
  -5  -7   2 761.160 18.5935   8
   5  -7  -2 773.599 17.4165   7
   5  -7  -2 768.679 20.4968   1
   5   7  -2 776.233 18.2050  11
   5   7  -2 781.122 19.6003   5
   5   7  -2 790.774 17.8154   4
   3  -7  -2 346.652 9.29418   6
  -3  -7   2 354.317 10.3481   6
   3  -7  -2 350.448 10.9181   1
   3  -7  -2 361.419 9.70669   7
  -3  -7   2 362.936 10.3334   8
  -3  -7   2 357.561 10.8762  15
  -3  -7   2 348.049 8.82724   9
   3  -7  -2 354.443 10.2590   9
   3   7  -2 378.437 10.6105   4
   3   7  -2 378.161 10.3125  11
   3   7  -2 361.637 10.4617   5
  -3   7   2 332.403 13.7510  13
  -1  -7   2 598.475 13.9457   6
  -1  -7   2 610.439 13.8915   9
   1  -7  -2 602.575 14.0364   9
  -1  -7   2 606.415 14.6906   8
   1  -7  -2 582.018 14.0612   6
   1   7  -2 638.693 15.1157   4
   1   7  -2 584.552 13.2332   5
   1   7  -2 612.896 14.1063  11
  -1   7   2 577.516 13.4296  12
  -1   7   2 592.941 15.1656   5
  -1  -7  -2 2353.68 43.7232  15
   1  -7   2 2451.47 44.8286   9
  -1  -7  -2 2488.90 45.2854   6
   1  -7   2 2347.57 44.4896   1
  -1  -7  -2 2401.53 43.3843   9
   1  -7   2 2370.77 42.7546   6
  -1   7  -2 2455.62 45.2563   4
  -1   7  -2 2365.25 43.2130  11
   1   7   2 2332.73 44.0271  12
   1   7   2 2418.28 46.6856   5
   1   7   2 2451.94 45.1256  11
  -3  -7  -2 1078.41 23.3058  15
   3  -7   2 1075.58 23.4571   9
   3  -7   2 1056.42 24.7692   1
  -3  -7  -2 1047.81 23.5826   6
  -3  -7  -2 1072.34 24.9368   2
  -3   7  -2 1113.16 24.4488  14
  -3   7  -2 1060.71 22.8335   4
   3   7   2 1038.21 23.0553  12
   3   7   2 1044.08 25.5064   5
   3   7   2 1076.94 23.2255  11
  -5  -7  -2 391.153 13.9226   2
   5  -7   2 399.704 14.6893   1
  -5  -7  -2 389.750 12.4974   6
   5  -7   2 366.447 12.0057   9
   5   7   2 394.013 14.3317   5
  -5   7  -2 381.951 14.3781   2
   5   7   2 370.380 12.4592  12
  -5   7  -2 383.482 12.8618  14
   5   7   2 393.957 11.6681  11
   7  -7   2 252.740 13.2751   1
  -7  -7  -2 232.493 9.97348   6
  -7  -7  -2 240.346 11.9045   2
   7  -7   2 234.910 9.60427   9
   7   7   2 249.831 12.0164   5
   7   7   2 241.517 10.7194  12
  -7   7  -2 235.743 10.9591  14
  -7   7  -2 247.691 12.7176   2
  -8  -8   2 21.9916 4.30004   2
   8  -8  -2 34.2585 5.90184   1
   8  -8  -2 20.8442 3.43756   9
  -8  -8   2 22.6967 4.23967   6
  -8  -8   2 26.2749 5.20228  15
   8   8  -2 20.9380 4.57651   5
  -8   8   2 26.8111 5.33213   2
   8   8  -2 30.4741 3.84325  11
   6  -8  -2 46.9640 4.54190   9
   6  -8  -2 44.4174 3.60503   7
  -6  -8   2 59.0086 6.26753  15
  -6  -8   2 53.2683 5.29126   6
   6  -8  -2 48.7715 5.68377   1
   6   8  -2 55.6399 5.80182   5
   6   8  -2 52.5138 4.93202  11
  -6   8   2 48.6466 4.11416  14
   4  -8  -2 59.8216 3.83568   6
  -4  -8   2 53.3534 4.43583   6
  -4  -8   2 56.1422 4.76136  15
   4  -8  -2 56.0634 4.81583   1
   4  -8  -2 53.8185 3.72555   7
   4  -8  -2 64.2672 4.22917   9
   4   8  -2 57.9507 4.56690  11
  -4   8   2 61.9907 3.88374  11
   4   8  -2 56.4319 4.03186   4
   4   8  -2 57.6213 4.78095   5
   2  -8  -2 680.320 15.8186   6
   2  -8  -2 669.242 16.3417   1
  -2  -8   2 655.478 16.2086   8
  -2  -8   2 672.772 15.4233   9
   2  -8  -2 686.267 16.3551   9
  -2  -8   2 695.862 16.9757  15
  -2  -8   2 666.413 16.2642   6
   2   8  -2 646.849 15.6049   5
  -2   8   2 684.623 17.0605   5
  -2   8   2 680.924 16.2051  11
   2   8  -2 680.686 16.2953  11
   2   8  -2 708.840 17.1529   4
   0  -8   2 29.4900 3.19231   9
   0  -8  -2 30.5462 3.37834   6
   0  -8   2 31.7925 3.06535   6
   0  -8  -2 33.0944 3.11893   9
   0   8  -2 24.9723 3.39866   4
   0   8   2 32.5410 4.18691   5
   0   8  -2 27.8806 3.03823  11
   0   8   2 28.6191 3.22223  11
  -2  -8  -2 10.8477 2.36920  15
   2  -8   2 8.41167 2.22072   9
  -2  -8  -2 9.79942 2.37722   6
  -2  -8  -2 10.3887 1.77617   9
   2  -8   2 7.74809 2.11103   1
   2   8   2 8.55228 3.06968   5
  -2   8  -2 8.98532 1.76134  11
   2   8   2 9.88740 2.48156  11
  -2   8  -2 7.77296 2.05080   4
   4  -8   2 159.023 8.49878   1
   4  -8   2 147.348 7.26249   9
  -4  -8  -2 144.298 7.43357   6
  -4  -8  -2 153.445 8.39721   2
  -4  -8  -2 140.249 7.02419  15
   4   8   2 153.825 7.13765  12
  -4   8  -2 153.520 6.98960   4
   4   8   2 150.368 7.25712  16
  -4   8  -2 155.005 8.01706  14
   4   8   2 151.901 7.00050  11
   4   8   2 144.708 8.66492   5
  -6  -8  -2 18.9906 4.32556   2
  -6  -8  -2 16.3334 3.49001   6
   6  -8   2 16.5419 3.02061   9
   6  -8   2 18.2858 4.44284   1
  -6   8  -2 16.8875 3.86680  14
   6   8   2 11.0853 3.01353  12
   6   8   2 21.6154 3.58365  11
  -6   8  -2 35.5298 6.19135   2
   6   8   2 16.8333 3.82639   5
  -8  -8  -2 41.8887 6.20470   2
   8  -8   2 38.4488 6.71419   1
   8   8   2 45.2975 6.32513   5
  -8   8  -2 40.7405 7.69041   2
   9  -9  -2 103.920 9.33982   1
  -9  -9   2 111.613 8.16197  15
  -9  -9   2 95.7150 7.51684   6
   9   9  -2 82.9452 7.59327   5
  -9   9   2 103.843 9.12263   2
  -7  -9   2 376.149 13.7613   6
   7  -9  -2 377.322 15.4453   1
   7  -9  -2 357.925 12.5724   9
  -7  -9   2 376.716 14.6638  15
   7   9  -2 395.805 12.7639  11
  -7   9   2 370.393 14.9854   2
   7   9  -2 383.531 14.3676   5
  -5  -9   2 29.8454 4.23467   6
  -5  -9   2 36.2319 4.84677  15
   5  -9  -2 32.1572 4.52895   1
   5  -9  -2 38.9231 4.18111   9
   5   9  -2 32.2370 4.08448  11
  -5   9   2 28.5690 3.77411   4
   5   9  -2 27.5499 3.49290   4
   5   9  -2 29.1382 4.17733   5
  -3  -9   2 13.9216 2.98951  15
   3  -9  -2 8.58600 2.30804   9
   3  -9  -2 12.2569 2.21184   6
  -3  -9   2 8.28812 1.81626   9
  -3  -9   2 13.7144 2.75518   6
   3  -9  -2 10.0770 2.49684   1
  -3   9   2 8.10318 2.30044  11
   3   9  -2 11.3730 2.43140   4
   3   9  -2 12.6395 2.74709   5
   3   9  -2 10.8180 2.66056  11
   1  -9  -2 137.824 6.45596   6
   1  -9  -2 123.485 6.02976   9
  -1  -9   2 148.669 6.36204   9
  -1  -9   2 140.708 6.34607   6
   1   9  -2 133.314 6.29497  11
   1   9  -2 134.651 6.96910   4
  -1   9   2 141.906 6.53184  11
  -1   9   2 125.184 6.97256   5
  -1  -9  -2 32.2548 3.98558   6
  -1  -9  -2 28.1372 3.03151   9
   1  -9   2 28.9466 3.57050   9
  -1   9  -2 29.8338 3.18386  11
   1   9   2 34.5065 4.06708  11
  -1   9  -2 35.4809 4.36987   4
   1   9   2 31.8031 4.42850   5
   3  -9   2 343.027 12.2833   1
  -3  -9  -2 355.943 12.2727   6
   3  -9   2 350.231 11.8812   9
  -3  -9  -2 369.928 11.3917  15
  -3   9  -2 361.819 11.9210   4
  -3   9  -2 363.567 12.8322  14
   3   9   2 377.594 14.1950   5
   3   9   2 369.109 12.2154  11
  -5  -9  -2 73.5498 6.05683   6
   5  -9   2 72.6061 5.45730   9
   5  -9   2 72.0454 6.80384   1
  -5  -9  -2 78.4431 7.60292   2
  -5   9  -2 60.8826 6.27322  14
   5   9   2 81.6689 7.55610   5
   5   9   2 66.7643 5.39537  11
   7  -9   2 55.9391 6.98077   1
  -7  -9  -2 72.7988 7.86707   2
  -7  -9  -2 60.1345 6.10994   6
   7  -9   2 70.2956 5.93535   9
   7   9   2 66.6637 7.68993   5
  -7   9  -2 52.1618 6.16366  14
  -7   9  -2 75.4667 9.35938   2
   8 -10  -2 840.016 22.3791   9
  -8 -10   2 846.362 23.9549   6
   8 -10  -2 887.577 26.6329   1
  -8 -10   2 885.004 24.6209  15
   8  10  -2 883.188 22.2098  11
   8  10  -2 878.425 24.8954   5
  -8  10   2 855.394 26.1842   2
   6 -10  -2 730.155 22.0796   1
  -6 -10   2 736.827 20.9432   6
  -6 -10   2 741.574 21.3779  15
   6 -10  -2 747.170 20.1038   9
  -6  10   2 721.792 20.1908  14
   6  10  -2 747.148 19.7764  11
   6  10  -2 757.285 21.4011   5
   4 -10  -2 364.687 12.8290   1
  -4 -10   2 374.315 13.1028  15
  -4 -10   2 344.402 12.5168   6
   4 -10  -2 364.618 12.1779   9
   4  10  -2 355.628 12.2801   4
   4  10  -2 368.385 12.5035   5
  -4  10   2 367.409 11.2607  11
  -4  10   2 362.925 12.3809   4
   4  10  -2 357.921 12.1620  11
  -2 -10   2 1515.83 31.1063   9
   2 -10  -2 1521.67 31.7379   6
   2 -10  -2 1511.79 32.0679   9
  -2 -10   2 1510.55 32.3635   6
   2  10  -2 1529.90 33.2725   4
  -2  10   2 1540.53 32.1724  11
   2  10  -2 1520.22 32.0744  11
   0 -10   2 973.334 22.4912   9
   0 -10   2 948.682 21.4559   6
   0 -10  -2 904.394 22.4767   6
   0 -10  -2 967.472 21.7456   9
   0  10  -2 974.405 23.4762   4
   0  10  -2 949.953 21.6117  11
   0  10   2 933.975 22.4431  11
   0  10   2 920.220 23.6920   5
  -2 -10  -2 805.034 20.9572   6
   2 -10   2 769.457 20.3146   9
   2  10   2 795.042 22.3092   5
  -2  10  -2 793.141 20.4418   4
  -2  10  -2 774.993 21.2260  14
   2  10   2 814.094 20.5404  11
   4 -10   2 1379.06 31.5186   9
  -4 -10  -2 1377.10 31.9536   6
  -4  10  -2 1364.66 30.3691   4
  -4  10  -2 1393.05 32.4241  14
   4  10   2 1278.13 31.0868  16
   4  10   2 1359.16 33.2091   5
   4  10   2 1357.95 30.6587  11
   6 -10   2 265.263 13.2263   1
   6 -10   2 261.925 11.4507   9
  -6 -10  -2 255.387 11.5823   6
   6  10   2 251.348 10.4735  11
  -6  10  -2 272.043 14.5876   2
   6  10   2 258.584 13.0202   5
  -6  10  -2 246.601 11.8758  14
  -7 -11   2 39.3878 5.74926   6
   7 -11  -2 43.0020 5.12930   9
  -7 -11   2 45.5147 5.68685  15
   7 -11  -2 39.4816 5.90335   1
   7  11  -2 46.7750 5.41784  11
   7  11  -2 44.8879 5.85702   5
   5 -11  -2 137.548 8.99947   1
  -5 -11   2 190.742 9.62794   6
  -5 -11   2 195.956 9.83553  15
   5 -11  -2 174.334 8.84544   9
  -5  11   2 177.995 8.98891   4
   5  11  -2 176.711 8.71922   4
   5  11  -2 183.503 9.33031   5
   5  11  -2 165.906 8.65365  11
  -3 -11   2 5.11718 2.55164   6
   3 -11  -2 1.08014 2.27760   9
   3  11  -2 -0.0548 2.34829  11
  -3  11   2 1.07985 2.00932  11
  -3  11   2 3.56932 2.57598   4
   3  11  -2 3.73890 2.08529   4
  -1 -11   2 7.82688 2.80869   6
   1 -11  -2 6.33235 2.44009   6
  -1 -11   2 8.74173 2.44648   9
   1 -11  -2 6.66058 2.53435   9
   1  11  -2 4.99801 3.06906   4
   1  11  -2 9.48782 2.86300  11
  -1  11   2 12.6821 3.12427  11
   1 -11   2 803.858 20.7843   9
  -1 -11  -2 782.646 18.8624   9
  -1 -11  -2 797.650 21.1335   6
   1  11   2 799.484 20.8911  11
  -1  11  -2 764.510 21.0336   4
  -1  11  -2 775.498 18.9259  11
   1  11   2 783.745 22.0858   5
  -3 -11  -2 216.335 10.2603   6
   3 -11   2 216.053 10.0510   9
  -3  11  -2 201.127 9.73856   4
  -3  11  -2 217.607 10.8487  14
   3  11   2 198.299 10.4325   5
   3  11   2 216.785 9.99193  11
  -5 -11  -2 9.15278 3.47169   6
   5 -11   2 14.9209 3.80510   9
  -5  11  -2 7.79953 3.61180  14
   5  11   2 7.11500 3.11133  11
   5  11   2 17.3910 4.63545   5
  -6 -12   2 1.33258 2.00475   6
   6 -12  -2 0.08625 1.76561   9
   6  12  -2 -1.9290 2.70665  11
   6  12  -2 1.43860 2.65013   5
  -6  12   2 3.62092 2.85710  14
   4 -12  -2 33.3353 4.83242   9
  -4 -12   2 24.4307 4.50628   6
   4  12  -2 21.2474 4.03002   4
   4  12  -2 22.7933 4.31493  11
  -4  12   2 19.3121 4.42238   4
   2 -12  -2 59.3249 5.62641   9
  -2 -12   2 54.2471 5.56521   6
   2  12  -2 56.4257 5.65290  11
   2  12  -2 71.8417 6.01013   4
  -2  12   2 70.9473 6.94372   4
  -2  12   2 62.9708 5.87251  11
   0 -12  -2 2.03417 2.08575   9
   0 -12   2 2.68529 2.41234   9
   0 -12  -2 2.22501 2.50987   6
   0  12   2 2.48722 2.17628  11
   0  12  -2 3.73942 2.25996   4
   0  12  -2 1.57353 2.27461  11
  -2 -12  -2 33.1979 5.10073   6
   2 -12   2 35.8907 4.78399   9
   2  12   2 26.0429 4.78432   5
  -2  12  -2 35.0410 5.11052  14
   2  12   2 34.8791 5.06687  11
  -2  12  -2 33.1065 5.20132   4
  -4 -12  -2 36.6852 5.50169   6
   4 -12   2 28.4748 5.01815   9
  -4  12  -2 27.7307 5.21541  14
   4  12   2 26.5438 5.16227   5
   4  12   2 28.5233 4.21795   4
   4  12   2 31.5075 4.85374  11
  -4  12  -2 30.0636 5.06639   4
   3 -13  -2 754.144 21.2611   9
  -3 -13   2 757.771 21.7280   6
   3  13  -2 764.035 21.1252  11
   3  13  -2 758.147 21.9621   4
  -3  13   2 796.109 22.9452   4
   1 -13  -2 361.426 12.8366   9
   1 -13  -2 352.160 13.0239   6
  -1 -13   2 342.604 12.5184   9
  -1  13   2 364.885 14.4159   4
   1  13  -2 366.172 12.6229  11
  -1  13   2 376.652 13.6993  11
   1  13  -2 359.327 14.2693   4
  -1 -13  -2 359.994 13.9014   6
   1 -13   2 362.607 13.6029   9
  -1  13  -2 380.568 14.9267  14
  -1  13  -2 388.461 14.9147   4
   1  13   2 356.804 13.8964  11
   1  13   2 387.757 14.8303   4
 -12   0   3 3.70559 4.58188   8
 -12   0   3 -2.3372 5.49017  15
 -10   0   3 0.14452 3.40107   8
  10   0  -3 -0.5401 2.02421   1
 -10   0   3 1.30774 2.57250   2
 -10   0   3 -0.5629 3.95467  15
   8   0  -3 1.34844 1.71143   1
   8   0  -3 0.28560 1.20693   7
  -8   0   3 4.35747 2.73831   8
  -8   0   3 1.37796 2.11174   2
  -8   0   3 0.44902 3.08625  15
   6   0  -3 1.07838 0.96075   7
   6   0  -3 0.96794 1.09324   1
  -6   0   3 -0.3220 1.92172  15
  -6   0   3 1.66046 1.37788   2
   6   0  -3 0.93360 0.75737  11
   6   0  -3 0.17741 1.49059  13
  -4   0   3 -1.3999 1.05034  15
   4   0  -3 1.02218 0.47441   4
  -4   0   3 2.89914 1.47092   8
  -4   0   3 -0.2900 0.77890   2
   4   0  -3 1.05132 0.52324  11
  -4   0   3 0.52145 0.52776  16
   4   0  -3 0.83010 0.92906  13
   4   0  -3 0.68469 0.65620   1
  -2   0   3 2.34494 1.00451   8
  -2   0   3 1.84630 1.18090  13
   2   0  -3 3.91457 1.25824  13
   2   0  -3 1.69294 0.61908  10
  -2   0   3 3.54123 0.84644  15
  -2   0   3 2.00137 0.98633   3
   2   0  -3 2.01933 0.52924  14
   0   0   3 -0.2075 0.86959  12
   0   0   3 1.81608 0.68821   8
   0   0  -3 3.82373 0.94212  14
   0   0  -3 1.74972 0.70416   4
   0   0  -3 1.10097 0.73947   2
   0   0   3 1.00004 0.69062  16
   0   0   3 5.00107 1.30584   3
   0   0  -3 1.15013 0.31418   7
   0   0  -3 5.90546 0.93536  10
   0   0  -3 1.66568 0.52169   6
   2   0   3 0.69121 1.21535  12
  -2   0  -3 1.52148 0.73404   4
   2   0   3 2.06743 0.78755  16
  -2   0  -3 1.56571 0.53052   6
  -2   0  -3 1.24341 1.37499   2
  -2   0  -3 0.62095 1.08933  14
   2   0   3 2.62907 1.23959   5
   2   0   3 0.92628 1.17485   3
  -4   0  -3 0.18781 1.98511  15
  -4   0  -3 0.85419 1.54701  14
  -4   0  -3 -0.1649 2.10257   2
   4   0   3 -0.6550 0.64739  16
   4   0   3 4.63452 1.49346   5
   4   0   3 0.22442 1.41448  12
  -6   0  -3 2.40496 2.79477  15
   6   0   3 0.65743 1.97307  12
  -6   0  -3 -0.4906 1.87601  14
  -6   0  -3 5.04125 2.44490   2
  -8   0  -3 9.45576 4.35470   2
   8   0   3 1.32384 2.60516  12
   8   0   3 1.04639 2.93429   1
  -8   0  -3 3.51911 4.13595  15
 -11  -1   3 -0.4208 4.82453  15
  11  -1  -3 1.47895 2.78977   1
 -11  -1   3 8.83603 4.68766   8
 -11   1   3 4.79044 4.95197  15
 -11   1   3 2.04540 3.06053   8
   9  -1  -3 450.448 12.3256   7
  -9  -1   3 448.618 14.0976   2
   9  -1  -3 456.933 15.2249   1
  -9  -1   3 446.435 16.6422   8
  -9  -1   3 463.709 16.5377  15
   9   1  -3 462.347 12.5900   7
   9   1  -3 426.315 13.8120   1
  -9   1   3 438.977 14.0363   2
  -9   1   3 449.436 16.1567  15
  -7  -1   3 1033.72 24.4501  15
   7  -1  -3 1009.74 21.0478   7
  -7  -1   3 1026.96 24.8999   8
   7  -1  -3 1046.82 23.9124   1
  -7  -1   3 1035.21 22.1772   2
   7   1  -3 1005.89 20.1163  11
   7   1  -3 1026.95 22.7657   5
  -7   1   3 1040.61 24.4684  15
  -7   1   3 1024.41 22.3143   2
   7   1  -3 1022.07 22.5932   1
   5  -1  -3 200.652 5.82160   7
   5  -1  -3 209.761 7.14930   1
  -5  -1   3 204.856 6.04777   2
   5  -1  -3 214.061 10.1350  13
   5  -1  -3 214.419 5.09635   9
  -5  -1   3 215.543 7.56316  15
  -5  -1   3 224.073 8.10342   8
   5   1  -3 211.553 5.66756  11
   5   1  -3 205.832 6.32061   1
   5   1  -3 200.315 6.60804   5
   5   1  -3 223.684 10.5522  13
   5   1  -3 205.068 4.55358   4
  -5   1   3 214.235 4.79367  16
  -5   1   3 201.531 6.11217   2
  -5   1   3 205.202 7.27509  15
  -3  -1   3 39.2619 2.47666  15
   3  -1  -3 35.7841 1.86427  10
  -3  -1   3 40.4758 1.93076  16
   3  -1  -3 38.6375 1.95432   7
   3  -1  -3 38.3806 3.58295  13
   3  -1  -3 35.6261 2.32743   1
  -3  -1   3 38.5148 2.88690   8
  -3  -1   3 36.0822 1.50184   2
   3   1  -3 41.3012 2.06736  10
   3   1  -3 38.3706 1.95427   1
   3   1  -3 42.6464 1.89162  11
  -3   1   3 38.4020 2.29848  15
  -3   1   3 38.8522 1.87204  16
  -3   1   3 36.6769 1.52285   2
   3   1  -3 39.4544 3.58686  13
  -3   1   3 37.9878 3.61773  13
   3   1  -3 43.7222 2.30451   5
   3   1  -3 39.9319 1.82739   4
  -3   1   3 38.5947 2.70064   8
   1  -1  -3 397.722 8.22377   6
   1  -1  -3 392.792 8.38973  10
   1  -1  -3 402.171 7.95988   7
  -1  -1   3 387.650 8.38386  12
  -1  -1   3 383.512 7.75549  15
  -1  -1   3 404.263 8.58524  16
   1  -1  -3 379.478 8.15308  14
  -1  -1   3 379.648 9.14390   3
  -1  -1   3 386.748 8.92186   8
   1  -1  -3 374.066 8.21480   4
   1  -1  -3 401.963 7.75917   2
  -1  -1   3 400.823 10.2323  13
   1   1  -3 387.530 7.85821  11
   1   1  -3 396.250 8.28625  10
   1   1  -3 395.410 10.1869  13
  -1   1   3 385.482 8.96983  12
   1   1  -3 397.706 8.30494   4
  -1   1   3 397.510 8.61388  16
  -1   1   3 397.084 8.27286   8
  -1   1   3 386.280 9.18304   3
   1   1  -3 385.552 8.05420  14
  -1  -1  -3 396.110 8.59890  15
  -1  -1  -3 395.165 9.41413  14
  -1  -1  -3 405.991 9.55169   2
  -1  -1  -3 407.887 8.91113   4
  -1  -1  -3 413.381 8.63662   6
   1  -1   3 404.330 8.40167   5
   1  -1   3 402.211 10.1061   3
   1  -1   3 418.473 9.63888  12
   1  -1   3 425.086 9.27290  16
   1   1   3 420.924 9.17883  16
  -1   1  -3 412.932 8.96639  10
  -1   1  -3 406.801 9.40183  14
   1   1   3 410.862 9.92116   3
  -1   1  -3 399.649 8.81000   4
   1   1   3 416.406 10.1993  12
  -1   1  -3 403.405 9.65441   2
   1   1   3 423.534 9.74936   5
   3  -1   3 2019.29 35.6463  16
  -3  -1  -3 2036.27 37.0837  14
   3  -1   3 1985.94 37.3282  12
   3  -1   3 1974.93 38.2930   3
   3  -1   3 1916.28 35.2221   5
  -3  -1  -3 1946.30 37.1012  15
  -3  -1  -3 1934.90 37.8747   2
  -3  -1  -3 1946.71 34.9256   6
  -3   1  -3 1965.22 35.0807   4
  -3   1  -3 1991.60 38.2212   2
   3   1   3 1973.98 37.6825   3
   3   1   3 1934.21 36.8937   5
   3   1   3 2001.94 35.4731  16
   3   1   3 2047.53 38.1020  12
  -3   1  -3 2003.59 37.0995  14
  -5  -1  -3 376.636 12.6479   2
  -5  -1  -3 362.916 11.9401  15
  -5  -1  -3 375.985 11.1342  14
   5  -1   3 377.856 11.8132  12
  -5   1  -3 362.024 12.3145   2
  -5   1  -3 345.415 12.1315  15
   5   1   3 366.333 11.9467  12
   5   1   3 361.107 10.6852   5
  -5   1  -3 362.228 11.0418  14
   7  -1   3 14.3875 3.46736  12
  -7  -1  -3 16.9311 3.28583  14
  -7  -1  -3 17.3620 4.58285  15
  -7  -1  -3 18.4659 4.66624   2
   7  -1   3 24.1897 4.69007   1
   7   1   3 15.8535 3.67135   1
  -7   1  -3 14.5426 3.23971  14
  -7   1  -3 16.7883 4.76019   2
   7   1   3 25.0222 4.41006  12
  -7   1  -3 18.7914 4.61385  15
   9  -1   3 19.1374 4.98551   1
  -9  -1  -3 23.3546 5.72045   2
  -9  -1  -3 21.6254 5.60610  15
  -9   1  -3 13.5740 5.65716  15
  -9   1  -3 12.7613 5.39777   2
   9   1   3 19.6398 4.73205   1
 -10  -2   3 347.752 13.1331   2
 -10  -2   3 334.619 14.9957   8
  10  -2  -3 359.377 14.4310   1
 -10  -2   3 370.983 15.9147  15
  10   2  -3 361.708 11.3827   7
 -10   2   3 339.037 13.1770   2
  10   2  -3 389.582 14.0276   5
 -10   2   3 361.881 15.9335  15
  -8  -2   3 964.036 25.4279   8
  -8  -2   3 990.181 23.0759   2
  -8  -2   3 999.744 25.4584  15
   8  -2  -3 990.650 21.3344   7
   8  -2  -3 1004.61 24.9929   1
   8   2  -3 977.270 23.5182   5
   8   2  -3 1097.74 25.3764   1
  -8   2   3 1003.76 25.6431  15
  -8   2   3 981.439 23.4458   2
   6  -2  -3 531.242 12.4026   7
   6  -2  -3 517.466 18.2933  13
   6  -2  -3 545.014 11.4332   9
   6  -2  -3 548.083 14.6108   1
  -6  -2   3 542.954 13.1392   2
  -6  -2   3 559.937 14.9890  15
  -6  -2   3 552.380 15.1901   8
  -6   2   3 530.540 13.2203   2
   6   2  -3 559.324 13.9148   5
   6   2  -3 534.410 12.6898   1
  -6   2   3 569.994 15.0833  15
   6   2  -3 555.312 12.0689  11
  -4  -2   3 2250.98 40.8291  15
   4  -2  -3 2215.93 39.3145   7
   4  -2  -3 2256.50 38.7343   9
  -4  -2   3 2200.95 41.5001   8
  -4  -2   3 2181.86 38.9882   2
   4  -2  -3 2210.59 40.9580   1
   4  -2  -3 2233.08 46.1191  13
   4   2  -3 2228.71 38.3172   4
  -4   2   3 2262.60 38.6999  16
   4   2  -3 2182.86 45.8419  13
   4   2  -3 2210.61 38.6085   1
  -4   2   3 2194.49 39.0893   2
   4   2  -3 2210.99 39.9922   5
  -4   2   3 2184.44 40.3593  15
   4   2  -3 2184.27 38.9420  11
  -4   2   3 2224.40 45.8601  13
  -2  -2   3 6889.40 126.675  15
   2  -2  -3 6964.63 124.763   7
  -2  -2   3 7164.55 125.775  16
  -2  -2   3 6940.82 129.229   8
   2  -2  -3 7092.04 124.997   6
   2  -2  -3 6925.76 122.738  10
  -2  -2   3 7029.73 126.689   3
   2  -2  -3 6968.66 124.317   9
   2  -2  -3 6848.83 123.119   1
   2   2  -3 7015.65 126.160   4
   2   2  -3 7162.08 141.170  13
  -2   2   3 7045.75 129.938  16
   2   2  -3 6953.87 123.794  14
   2   2  -3 6843.99 123.677  11
   2   2  -3 7053.69 125.054  10
  -2   2   3 7129.16 117.665   8
  -2   2   3 6968.52 156.141  13
   2   2  -3 7033.18 125.193   5
   0  -2   3 1363.41 24.6835  12
   0  -2  -3 1353.93 25.2745  14
   0  -2   3 1435.86 25.4659  16
   0  -2  -3 1340.60 25.0218  10
   0  -2   3 1347.72 25.6772   8
   0  -2  -3 1368.84 24.9099   6
   0  -2  -3 1361.43 24.2854   7
   0  -2   3 1403.93 29.0695  13
   0  -2  -3 1325.07 24.8702   2
   0  -2   3 1328.87 25.9149   3
   0   2   3 1379.77 25.5786   3
   0   2  -3 1383.63 25.1873  14
   0   2   3 1343.31 26.0142  12
   0   2  -3 1397.97 24.5206  10
   0   2  -3 1403.20 24.9476   4
   0   2   3 1365.53 25.3220  16
   0   2  -3 1380.93 23.8998  11
   2  -2   3 1681.06 30.3689  16
   2  -2   3 1646.20 32.0094   3
   2  -2   3 1585.47 28.2281   5
  -2  -2  -3 1635.67 30.2547  15
  -2  -2  -3 1667.43 31.5430   2
   2  -2   3 1644.48 30.7486  12
  -2  -2  -3 1650.48 29.9255   6
  -2  -2  -3 1666.92 31.0718  14
   2   2   3 1695.33 30.3373  16
   2   2   3 1629.92 31.8643  12
   2   2   3 1677.95 31.7147   5
  -2   2  -3 1650.57 31.9521   2
   2   2   3 1638.50 31.0264   3
  -2   2  -3 1643.17 29.7637  10
  -2   2  -3 1643.11 31.0409  14
  -2   2  -3 1637.34 29.7542   4
  -4  -2  -3 1133.71 24.8808  15
  -4  -2  -3 1157.94 22.6949   6
   4  -2   3 1221.45 25.0825  12
  -4  -2  -3 1204.73 24.7913  14
  -4  -2  -3 1172.42 25.9919   2
   4   2   3 1171.40 22.6257  16
   4   2   3 1216.88 25.2649   5
  -4   2  -3 1148.72 22.2090   4
  -4   2  -3 1198.22 24.9451  14
   4   2   3 1174.80 25.5947  12
  -4   2  -3 1206.51 26.5969   2
  -6  -2  -3 368.904 13.6371   2
  -6  -2  -3 360.337 12.8975  15
  -6  -2  -3 368.302 11.8613  14
   6  -2   3 370.146 12.5213  12
   6  -2   3 385.130 14.1819   1
  -6   2  -3 375.393 12.1230  14
  -6   2  -3 367.357 13.8277  15
   6   2   3 371.565 13.0451  12
   6   2   3 387.662 12.2816   5
  -6   2  -3 395.397 14.4030   2
  -8  -2  -3 618.559 20.0184  15
   8  -2   3 622.115 21.6055   1
  -8  -2  -3 625.327 20.8960   2
   8   2   3 665.585 20.3135  12
   8   2   3 597.079 19.9241   1
  -8   2  -3 626.886 21.3259   2
  -8   2  -3 624.994 21.2917  15
  11  -3  -3 6.36598 3.68497   1
 -11  -3   3 1.55475 3.93680   8
 -11  -3   3 4.71746 4.67732  15
 -11   3   3 8.70202 5.40978  15
   9  -3  -3 0.66127 1.28474   7
  -9  -3   3 0.40438 2.62462   8
  -9  -3   3 2.65130 2.27599   2
   9  -3  -3 2.39426 2.52580   1
  -9  -3   3 -0.8012 3.29315  15
   9   3  -3 0.48738 1.42403   5
  -9   3   3 -1.5808 3.25594  15
  -9   3   3 -1.0749 2.64514   2
  -7  -3   3 103.024 5.53715   2
   7  -3  -3 104.845 6.38441   1
  -7  -3   3 112.470 6.97985  15
   7  -3  -3 106.654 4.12817   9
  -7  -3   3 94.4644 6.60568   8
   7  -3  -3 108.439 4.77509   7
  -7   3   3 116.741 6.11191   2
   7   3  -3 102.783 5.58007   5
  -7   3   3 103.861 6.68705  15
   7   3  -3 105.819 4.54097  11
   5  -3  -3 337.393 10.3711   1
   5  -3  -3 335.788 8.64985   7
  -5  -3   3 319.670 10.1502  15
  -5  -3   3 333.700 8.89938   2
   5  -3  -3 360.104 8.44084   9
  -5  -3   3 327.172 10.3444   8
   5  -3  -3 329.432 13.1553  13
   5   3  -3 327.159 7.60164   4
  -5   3   3 348.486 9.27349   2
   5   3  -3 333.550 7.67811   1
   5   3  -3 338.765 9.50964   5
   5   3  -3 339.398 8.44952  11
  -5   3   3 346.885 13.5852  13
  -5   3   3 339.332 7.92987  16
  -3  -3   3 1828.20 34.9460   8
  -3  -3   3 1842.33 34.2266  15
   3  -3  -3 1886.14 32.9981   6
   3  -3  -3 1891.76 33.3763   7
  -3  -3   3 1818.16 33.7761   3
   3  -3  -3 1854.06 32.4038  10
   3  -3  -3 1850.69 33.0916   9
   3  -3  -3 1849.34 34.6749   1
   3   3  -3 1808.67 33.2997   5
  -3   3   3 1876.31 33.5380  16
   3   3  -3 1828.91 33.0528  11
   3   3  -3 1824.65 32.9193   4
  -3   3   3 1892.39 39.5254  13
   1  -3  -3 449.620 9.59154   7
   1  -3  -3 475.449 9.97905   6
  -1  -3   3 423.191 10.4981   8
   1  -3  -3 445.142 9.47799   9
  -1  -3   3 455.093 10.3257  16
  -1  -3   3 437.836 10.2893   3
  -1  -3   3 435.599 9.77926  15
   1  -3  -3 435.733 9.51013  10
  -1  -3   3 427.983 8.58208  12
  -1   3   3 452.418 10.3527  16
  -1   3   3 440.946 10.1545   3
   1   3  -3 435.232 9.64638  14
   1   3  -3 451.700 9.28140  11
  -1   3   3 441.118 10.5380  12
   1   3  -3 443.476 9.14633  10
   1   3  -3 449.507 9.88102   4
   1   3  -3 467.655 11.1478  13
  -1   3   3 441.703 8.70082   8
   1  -3   3 639.920 14.5131   8
  -1  -3  -3 648.766 12.7853  15
  -1  -3  -3 661.628 13.7336   6
   1  -3   3 661.754 14.0982  16
   1  -3   3 662.150 14.8729   3
  -1  -3  -3 645.210 14.2866   2
   1  -3   3 638.269 12.9878  12
  -1  -3  -3 647.130 14.2389  14
   1   3   3 656.729 14.1756  16
   1   3   3 660.605 15.0025  12
  -1   3  -3 646.922 13.5534   4
  -1   3  -3 641.553 12.0265  11
  -1   3  -3 668.487 14.1701  14
   1   3   3 639.891 13.6725   3
   1   3   3 660.581 15.1322   5
  -1   3  -3 646.311 12.6363  10
   3  -3   3 18.6028 2.24871  12
  -3  -3  -3 17.5905 2.39019  15
  -3  -3  -3 19.0687 2.94399   2
   3  -3   3 24.5550 3.17226   3
  -3  -3  -3 26.1220 2.45978   6
  -3  -3  -3 20.5699 2.67694  14
   3   3   3 22.4597 3.17299  12
  -3   3  -3 26.4563 1.99679  10
  -3   3  -3 25.0232 3.46910   2
  -3   3  -3 20.5949 2.79238  14
  -3   3  -3 25.2962 2.35673   4
   3   3   3 19.7045 2.04556  11
   3   3   3 20.8611 2.51438   3
   3   3   3 21.7288 2.05290  16
   3   3   3 18.1246 2.95208   5
  -5  -3  -3 89.1297 6.39324   2
   5  -3   3 96.1976 6.66897   1
  -5  -3  -3 93.1883 5.84422  15
   5  -3   3 98.1231 5.52454  12
  -5  -3  -3 97.6556 4.63324   6
  -5  -3  -3 101.181 5.60365  14
   5  -3   3 98.5483 4.53076   9
  -5   3  -3 102.763 7.16809   2
   5   3   3 104.342 6.05457  12
  -5   3  -3 97.0089 5.95035  14
   5   3   3 86.2137 5.78514   5
   7  -3   3 10.0211 3.28983   1
  -7  -3  -3 9.96883 2.61812  14
  -7  -3  -3 1.47269 3.30491   2
  -7  -3  -3 3.12259 3.29779  15
   7   3   3 6.07624 3.30950  12
  -7   3  -3 10.4452 4.18728  15
  -7   3  -3 7.42808 4.16945   2
  -7   3  -3 6.34902 2.78753  14
   7   3   3 7.74179 2.72878   5
   9  -3   3 177.883 11.9863   1
  -9  -3  -3 171.940 11.3627   2
  -9   3  -3 168.432 11.7606   2
  -9   3  -3 167.864 11.8747  15
 -10  -4   3 276.079 11.5784   2
 -10  -4   3 261.508 13.3901  15
  10  -4  -3 267.842 13.1475   1
 -10  -4   3 286.249 13.3071   8
 -10   4   3 274.621 12.5656   2
 -10   4   3 266.907 14.4054  15
  10   4  -3 272.653 11.9882   5
  -8  -4   3 2.32738 2.16582   2
   8  -4  -3 0.61142 1.19986   7
  -8  -4   3 1.05629 2.44470   8
  -8  -4   3 -1.8406 2.76016  15
   8  -4  -3 -2.6799 1.54647   1
   8   4  -3 3.94174 1.75303   5
   8   4  -3 0.31709 0.87940  11
  -8   4   3 5.63570 2.66327   2
  -8   4   3 -1.2758 2.59242  15
   6  -4  -3 672.821 17.7388   1
  -6  -4   3 657.964 17.4056   8
  -6  -4   3 660.543 17.4379  15
   6  -4  -3 651.847 14.5540   9
   6  -4  -3 646.408 14.8274   7
  -6  -4   3 644.840 15.6687   2
   6   4  -3 656.647 14.7063  11
  -6   4   3 647.811 16.2617   2
   6   4  -3 692.949 16.6237   5
  -6   4   3 654.229 14.1059  14
  -4  -4   3 866.469 18.1332   3
   4  -4  -3 866.533 17.7083   9
   4  -4  -3 907.288 18.0311   7
  -4  -4   3 871.452 19.6108   8
   4  -4  -3 869.520 17.1161   6
  -4  -4   3 880.825 16.0251   9
  -4  -4   3 878.219 19.3360  15
   4  -4  -3 876.456 19.7391   1
  -4  -4   3 877.908 18.0794   2
   4  -4  -3 853.177 16.1643  10
   4   4  -3 874.852 18.4934   5
   4   4  -3 851.915 17.2991   4
  -4   4   3 888.183 18.0254  16
   4   4  -3 871.568 17.7295  11
  -4   4   3 875.584 23.7359  13
  -2  -4   3 365.568 9.69502   8
   2  -4  -3 361.716 7.95030  10
   2  -4  -3 372.985 8.77192   6
  -2  -4   3 360.655 9.11760  15
   2  -4  -3 358.742 8.60829   9
   2  -4  -3 358.623 9.38626   1
  -2  -4   3 360.557 8.79156   3
   2  -4  -3 369.300 8.70390   7
   2   4  -3 353.631 8.76353   4
   2   4  -3 357.123 8.47533  11
   2   4  -3 360.006 8.26666   5
   0  -4  -3 2798.02 48.3902  15
   0  -4   3 2871.98 50.7207   3
   0  -4  -3 2896.32 50.4668   6
   0  -4   3 2899.72 51.3845   8
   0  -4  -3 2864.03 49.6957   7
   0  -4  -3 2824.04 50.3828   2
   0   4   3 2868.10 52.0122   5
   0   4   3 2855.49 51.2304  12
   0   4  -3 2852.86 48.5407  10
   0   4   3 2865.75 51.0830  16
   0   4  -3 2880.70 50.5445  14
   0   4  -3 2761.21 48.8436  11
   0   4   3 2786.95 49.4792   3
   0   4  -3 2854.66 50.3276   4
   0   4  -3 2839.19 52.4656  13
  -2  -4  -3 113.776 5.09336  14
  -2  -4  -3 118.788 4.54466  15
   2  -4   3 119.177 5.56583   3
  -2  -4  -3 126.580 5.65792   2
   2  -4   3 109.022 3.96502  12
  -2  -4  -3 113.693 4.73331   6
   2   4   3 116.447 5.67021  12
   2   4   3 117.671 5.92844   5
   2   4   3 122.629 4.98124  16
  -2   4  -3 113.023 3.50350  10
  -2   4  -3 112.038 4.62097   4
   2   4   3 113.758 4.37900   3
  -2   4  -3 123.394 5.36706  14
  -4  -4  -3 34.1613 3.63739  14
   4  -4   3 35.5179 3.16340  12
   4  -4   3 36.4430 2.94248   9
   4  -4   3 31.0134 4.07808   1
  -4  -4  -3 41.6279 4.20620  15
  -4  -4  -3 40.0000 4.61367   2
  -4  -4  -3 37.0906 3.37687   6
   4   4   3 34.4315 2.62819  16
   4   4   3 40.3419 4.60499   5
   4   4   3 36.0106 4.15108  12
  -4   4  -3 32.5396 3.80824  14
  -4   4  -3 28.9254 2.57869   4
  -4   4  -3 42.4658 4.88439   2
   4   4   3 33.4179 2.64538  11
  -6  -4  -3 731.837 19.7653  15
  -6  -4  -3 738.842 19.0000  14
   6  -4   3 730.821 17.5191   9
  -6  -4  -3 759.546 21.4700   2
   6  -4   3 756.878 22.9063   1
  -6   4  -3 760.249 21.9509   2
   6   4   3 750.325 20.6219  12
   6   4   3 723.744 20.0317   5
  -6   4  -3 740.541 19.5485  14
  -8  -4  -3 118.633 8.59084   2
   8  -4   3 117.196 9.78274   1
  -8   4  -3 141.262 10.5934  15
   8   4   3 114.416 7.48879   5
  -8   4  -3 128.435 8.40736  14
  -8   4  -3 131.632 10.5743   2
   8   4   3 117.015 8.00208  12
 -11  -5   3 474.062 18.7316  15
  11  -5  -3 466.881 18.8453   1
 -11   5   3 465.483 19.9590  15
  11   5  -3 478.148 17.0286   5
  -9  -5   3 3.99480 2.43837   2
   9  -5  -3 6.27451 3.12806   1
  -9  -5   3 -0.0240 2.05861   6
  -9  -5   3 0.31861 3.44575  15
  -9  -5   3 1.28185 2.93478   8
   9   5  -3 5.00364 2.77991   5
  -9   5   3 4.90650 4.11135  15
  -9   5   3 6.84149 3.11696   2
   7  -5  -3 7.30145 1.55272   7
  -7  -5   3 7.65712 2.84500   8
  -7  -5   3 8.44658 2.41678   2
   7  -5  -3 10.4622 2.81883   1
  -7  -5   3 10.8238 3.34285  15
   7  -5  -3 9.51654 1.93965   9
   7   5  -3 11.9444 2.24428  11
  -7   5   3 12.7554 3.02288   2
   7   5  -3 14.6799 2.88648   5
   5  -5  -3 1017.90 23.1291   1
  -5  -5   3 988.867 22.4874   8
   5  -5  -3 973.024 20.3685   7
  -5  -5   3 959.164 20.9493   2
  -5  -5   3 939.287 20.3394   3
   5  -5  -3 974.408 20.3667   9
   5  -5  -3 963.471 19.0823   6
  -5  -5   3 1002.16 22.6152  15
  -5   5   3 999.982 20.4730  16
  -5   5   3 957.710 26.7343  13
   5   5  -3 1002.39 19.7509   4
   5   5  -3 1001.24 20.4207  11
   5   5  -3 974.143 21.5109   5
  -3  -5   3 298.969 7.10520   9
   3  -5  -3 292.385 7.72560   6
   3  -5  -3 281.720 6.48857  10
   3  -5  -3 298.797 9.14228   1
  -3  -5   3 296.584 9.25318   8
   3  -5  -3 293.770 8.01685   7
   3  -5  -3 292.072 8.02411   9
  -3  -5   3 290.321 9.00892  15
   3   5  -3 300.239 8.16026   4
   3   5  -3 294.633 8.05101  11
   3   5  -3 290.773 8.00779   5
  -3   5   3 289.420 12.3570  13
  -1  -5   3 1261.43 23.7981   1
   1  -5  -3 1320.48 25.5053   6
   1  -5  -3 1353.86 25.1177   7
  -1  -5   3 1316.62 24.9534   3
   1  -5  -3 1341.70 24.9990   9
   1  -5  -3 1353.38 24.5200  10
  -1  -5   3 1307.61 26.3171   8
   1   5  -3 1283.49 23.5374   5
  -1   5   3 1279.28 24.5922   3
   1   5  -3 1319.40 25.5371   4
  -1   5   3 1322.54 25.8862  12
   1   5  -3 1311.79 24.6326  11
   1  -5   3 863.736 17.9009   9
   1  -5   3 849.451 15.8548   6
  -1  -5  -3 893.657 18.3958   6
   1  -5   3 836.115 18.3103   1
  -1  -5  -3 828.817 16.5711  15
  -1  -5  -3 853.789 18.7382   2
   1  -5   3 839.433 18.4741   3
   1   5   3 837.745 18.7905  12
   1   5   3 852.494 18.7400  16
   1   5   3 858.184 19.9786   5
   1   5   3 805.453 16.2370   3
  -1   5  -3 868.868 18.6875  14
  -1   5  -3 818.480 16.0796  11
  -1   5  -3 855.182 18.0404   4
  -3  -5  -3 83.9133 5.33248   2
  -3  -5  -3 80.4271 4.48707   6
  -3  -5  -3 82.3093 4.33825  15
   3  -5   3 86.5871 4.43286   9
   3  -5   3 84.3399 5.49715   1
  -3   5  -3 90.5197 5.29296  14
   3   5   3 82.9112 5.26879  12
  -3   5  -3 76.8849 4.21732   4
   3   5   3 87.0866 5.93227   5
   3   5   3 80.2376 4.33197  16
   3   5   3 83.2253 4.36028  11
  -5  -5  -3 274.979 11.2846   2
   5  -5   3 270.885 9.23491   9
   5  -5   3 287.827 12.1994   1
  -5  -5  -3 283.715 9.47517   6
  -5  -5  -3 274.911 10.0076  15
  -5   5  -3 264.605 10.0896  14
   5   5   3 276.353 10.8911   5
   5   5   3 269.518 10.6680  12
  -5   5  -3 291.016 11.8780   2
  -7  -5  -3 464.699 16.9585   2
   7  -5   3 529.393 19.4061   1
  -7   5  -3 458.669 15.4927  14
   7   5   3 495.924 16.7109  12
   7   5   3 485.993 16.3999   5
  -7   5  -3 499.334 18.6487   2
 -10  -6   3 164.475 8.81451   2
 -10  -6   3 165.800 10.7250  15
 -10  -6   3 166.743 8.78454   6
  10  -6  -3 157.309 10.7201   1
  10   6  -3 172.055 9.90591   5
 -10   6   3 137.298 11.2138  15
   8  -6  -3 67.0528 7.05393   1
  -8  -6   3 83.8442 7.10526  15
  -8  -6   3 75.0595 5.76602   2
   8  -6  -3 79.0126 4.75712   7
  -8  -6   3 80.1247 6.55297   8
   8  -6  -3 78.8547 4.78820   9
  -8  -6   3 78.5636 5.85641   6
  -8   6   3 79.7442 6.01063   2
   8   6  -3 85.5136 6.29089   5
   8   6  -3 85.5971 5.06312  11
   6  -6  -3 960.087 23.9177   1
   6  -6  -3 980.220 20.6561   7
  -6  -6   3 945.883 21.8842   2
  -6  -6   3 958.884 23.3460  15
   6  -6  -3 962.052 20.8668   9
  -6  -6   3 938.720 22.7628   8
   6   6  -3 812.510 20.1472   4
   6   6  -3 949.623 22.4009   5
   6   6  -3 993.622 20.9464  11
   4  -6  -3 203.843 8.17124   1
  -4  -6   3 207.407 5.73045   9
   4  -6  -3 207.020 6.88617   7
   4  -6  -3 199.426 6.92235   9
  -4  -6   3 204.939 7.94510   8
   4  -6  -3 210.874 6.45454   6
  -4  -6   3 200.511 8.10543  15
   4   6  -3 213.103 6.92699   4
   4   6  -3 228.162 7.21889  11
  -4   6   3 197.233 10.5509  13
   4   6  -3 212.349 7.35092   5
  -2  -6   3 88.2450 4.84000   8
   2  -6  -3 83.4126 3.85093   7
  -2  -6   3 85.6132 4.51448  15
   2  -6  -3 84.2277 3.99159   9
   2  -6  -3 78.9754 2.99979  10
  -2  -6   3 82.1046 3.65963   9
  -2  -6   3 74.3676 3.21146   3
   2  -6  -3 83.9224 4.03833   6
   2  -6  -3 82.8402 4.38375   1
   2   6  -3 80.7596 4.43809   4
  -2   6   3 81.3743 4.27618  12
   2   6  -3 85.3860 4.13528  11
  -2   6   3 79.3335 3.84152   3
   2   6  -3 74.4070 3.43487   5
   0  -6   3 934.802 19.5954   1
   0  -6   3 953.800 20.0545   9
   0  -6  -3 992.736 20.7707   6
   0  -6  -3 1001.63 19.7176   9
   0  -6   3 993.311 21.5417   8
   0  -6   3 958.027 19.0319   6
   0  -6   3 975.287 20.0010   3
   0   6   3 988.240 22.2509   5
   0   6   3 957.748 20.8098  12
   0   6  -3 989.070 20.7834   4
   0   6  -3 976.070 19.2234  11
  -2  -6  -3 432.763 12.7449   2
   2  -6   3 456.460 11.8964   9
  -2  -6  -3 445.189 12.1981   6
   2  -6   3 436.940 12.8072   1
   2   6   3 432.971 13.5135   5
   2   6   3 451.272 11.9405  11
  -2   6  -3 459.584 12.6673  14
   2   6   3 441.143 12.4226  16
   2   6   3 428.648 12.5278  12
  -2   6  -3 449.481 11.8267   4
   4  -6   3 151.900 6.68924   9
  -4  -6  -3 175.059 7.12703  15
  -4  -6  -3 157.674 7.10733   6
  -4  -6  -3 160.012 8.18431   2
   4  -6   3 156.329 8.43776   1
  -4   6  -3 167.513 7.63806  14
  -4   6  -3 160.660 6.45518   4
   4   6   3 156.192 8.57314   5
   4   6   3 157.337 6.49658  11
   4   6   3 166.479 7.80573  12
   4   6   3 162.537 6.65564  16
  -4   6  -3 169.578 8.96305   2
  -6  -6  -3 367.891 12.1201   6
   6  -6   3 388.303 12.4507   9
   6  -6   3 389.746 16.0048   1
  -6  -6  -3 401.428 14.9583   2
   6   6   3 393.119 14.6857   5
   6   6   3 380.783 13.9071  12
  -6   6  -3 393.209 15.8007   2
  -6   6  -3 391.618 13.7761  14
   8  -6   3 -1.7847 1.78717   1
  -8  -6  -3 2.01957 3.42304   2
  -8   6  -3 -1.6949 2.64413   2
   8   6   3 3.49144 3.02303   5
   8   6   3 4.93159 2.95984  12
  -8   6  -3 -0.9856 3.75541  15
  -9  -7   3 170.355 8.98397   6
   9  -7  -3 173.402 11.0076   1
  -9  -7   3 164.317 10.1598  15
  -9  -7   3 169.484 9.10495   2
  -9   7   3 173.692 10.2287   2
   9   7  -3 179.625 7.82687  11
   9   7  -3 173.785 9.87325   5
  -9   7   3 187.880 11.6617  15
   7  -7  -3 70.7100 4.45740   7
   7  -7  -3 78.5207 6.66987   1
  -7  -7   3 82.8510 6.71444  15
  -7  -7   3 83.9808 5.62624   2
   7  -7  -3 73.5334 4.94776   9
  -7  -7   3 80.6864 5.87920   6
  -7   7   3 80.2195 6.29176   2
   7   7  -3 82.5100 6.18324   5
   7   7  -3 76.5148 4.85616  11
  -5  -7   3 19.6719 3.21015   8
   5  -7  -3 18.5630 3.30489   1
   5  -7  -3 13.7013 1.90507   6
   5  -7  -3 20.0544 2.67528   9
   5  -7  -3 23.2098 2.81082   7
  -5  -7   3 21.2842 3.66172  15
   5   7  -3 19.8397 2.70726   4
   5   7  -3 20.0670 3.15270   5
   5   7  -3 22.8710 2.87629  11
   3  -7  -3 1323.52 26.8747   7
  -3  -7   3 1365.92 28.3501  15
   3  -7  -3 1342.45 26.7573   6
   3  -7  -3 1388.62 28.6759   1
  -3  -7   3 1353.21 26.0164   9
   3  -7  -3 1369.13 27.4527   9
  -3  -7   3 1336.79 28.2480   8
   3   7  -3 1331.51 26.9648   5
  -3   7   3 1278.23 34.3723  13
   3   7  -3 1386.02 27.3049  11
   3   7  -3 1374.60 27.7553   4
   1  -7  -3 644.218 15.4118   6
   1  -7  -3 632.877 14.7039   9
   1  -7  -3 612.620 13.4782  10
  -1  -7   3 638.935 16.0154   8
  -1  -7   3 652.195 14.5890   6
  -1  -7   3 649.162 14.8734   9
  -1   7   3 636.974 15.1175  12
   1   7  -3 624.295 15.5576   4
  -1   7   3 636.592 16.6936   5
   1   7  -3 639.093 14.5183  11
  -1  -7  -3 27.8145 3.28885   6
   1  -7   3 29.3622 3.11088   9
   1  -7   3 23.2002 2.78881   1
  -1   7  -3 33.4355 3.81140  14
   1   7   3 29.9155 3.49077  12
  -1   7  -3 29.2589 3.55362   4
  -1   7  -3 28.0090 2.41326  11
   1   7   3 26.2552 3.10555  11
   1   7   3 27.9241 4.04005   5
   3  -7   3 333.184 11.7926   1
   3  -7   3 347.831 10.9383   9
  -3  -7  -3 326.453 10.8854   6
  -3  -7  -3 280.364 9.72672  15
  -3  -7  -3 361.552 12.2171   2
   3   7   3 345.020 12.7479   5
  -3   7  -3 330.509 11.4704  14
   3   7   3 325.369 10.9738  12
   3   7   3 331.792 10.4345  11
   3   7   3 319.765 10.7125  16
  -3   7  -3 336.036 10.3619   4
  -5  -7  -3 40.5866 4.66149   6
   5  -7   3 48.8893 6.01337   1
   5  -7   3 53.0502 5.14724   9
  -5  -7  -3 51.7509 5.73420   2
   5   7   3 45.2924 5.60809   5
   5   7   3 41.8211 4.11251  11
   5   7   3 49.8026 5.53499  12
  -5   7  -3 45.3153 6.52176   2
  -5   7  -3 41.0202 4.78773  14
   7  -7   3 101.563 10.2118   9
  -7  -7  -3 92.4013 8.20233   2
   7  -7   3 83.0410 9.06385   1
   7   7   3 85.6864 6.96443  12
   7   7   3 89.0768 7.72840   5
  -7   7  -3 74.7275 8.90165   2
 -10  -8   3 147.740 11.6823  15
 -10   8   3 138.006 14.8622  15
   8  -8  -3 975.645 23.5293   9
  -8  -8   3 994.014 27.1278  15
   8  -8  -3 1047.00 28.7334   1
  -8  -8   3 1029.73 25.6406   6
   8   8  -3 1025.83 23.5816  11
  -8   8   3 979.191 26.7985   2
   8   8  -3 993.159 25.9369   5
  -6  -8   3 529.967 16.6962  15
   6  -8  -3 512.785 13.6979   7
   6  -8  -3 526.691 14.6742   9
   6  -8  -3 533.978 17.0364   1
  -6  -8   3 497.511 15.2509   6
   6   8  -3 509.349 15.5609   5
   6   8  -3 503.292 13.6254   4
   6   8  -3 527.517 14.6260  11
   4  -8  -3 378.737 11.5007   9
  -4  -8   3 368.477 11.7815   8
   4  -8  -3 393.829 10.5866   6
   4  -8  -3 390.182 12.6227   1
  -4  -8   3 376.481 11.8217   6
   4  -8  -3 398.168 11.1473   7
  -4  -8   3 378.268 12.4613  15
   4   8  -3 385.135 11.6241   5
   4   8  -3 387.305 11.6389   4
   4   8  -3 375.606 11.4260  11
  -2  -8   3 526.672 13.6846   6
   2  -8  -3 528.620 13.7466   6
  -2  -8   3 541.255 13.3449   9
  -2  -8   3 502.320 14.2760   8
   2  -8  -3 546.125 13.9464   9
   2   8  -3 531.403 13.5744  11
   2   8  -3 530.814 14.3634   4
  -2   8   3 530.481 14.9930   5
   0  -8  -3 222.360 7.48948   9
   0  -8   3 221.398 8.05878   9
   0  -8  -3 221.092 7.05072  10
   0  -8   3 244.109 7.40084   6
   0  -8  -3 239.700 8.65396   6
   0   8   3 236.129 9.79809   5
   0   8   3 233.038 8.45534  11
   0   8  -3 230.793 8.72302   4
   0   8   3 214.898 7.84387  12
   0   8  -3 216.225 7.31294  11
   2  -8   3 1115.58 25.6791   1
  -2  -8  -3 1138.68 25.7123   6
   2  -8   3 1142.64 25.3570   9
   2   8   3 1109.81 26.0571  16
   2   8   3 1142.12 25.4134  11
  -2   8  -3 1162.11 25.4128   4
  -2   8  -3 1148.58 26.3035  14
   2   8   3 1174.93 28.0172   5
   2   8   3 1107.18 24.8686  12
  -4  -8  -3 1146.69 26.5085   6
   4  -8   3 1115.07 28.3489   1
   4  -8   3 1093.06 26.1907   9
  -4  -8  -3 1125.39 27.8070   2
  -4   8  -3 1137.65 25.0352   4
   4   8   3 1101.39 25.9653  12
   4   8   3 1161.22 29.1465   5
   4   8   3 1091.95 25.8863  16
   4   8   3 1136.98 25.5764  11
  -4   8  -3 1140.87 27.2409  14
  -6  -8  -3 103.902 8.17743   2
  -6  -8  -3 88.8055 6.58737   6
   6  -8   3 115.431 9.02701   1
   6  -8   3 106.607 6.91209   9
   6   8   3 117.698 8.93616   5
   6   8   3 105.183 7.27051  12
  -6   8  -3 98.9943 7.83472  14
  -6   8  -3 96.9584 9.55527   2
  -9  -9   3 64.6388 6.93741   6
   9  -9  -3 72.4997 8.27384   1
  -9  -9   3 81.0477 8.19103  15
  -9   9   3 61.5567 8.12909  15
   9   9  -3 80.0594 7.31667   5
   9   9  -3 82.7432 6.04760  11
  -7  -9   3 82.7095 7.10203  15
   7  -9  -3 77.1296 5.21876   7
   7  -9  -3 99.2377 6.52431   9
  -7  -9   3 91.8674 7.11845   6
   7  -9  -3 95.5106 7.97292   1
   7   9  -3 90.1138 7.08166   5
   7   9  -3 91.7375 6.26303  11
   5  -9  -3 3.51640 1.79152   7
  -5  -9   3 8.34946 2.39182   6
   5  -9  -3 3.30062 1.68682   9
   5  -9  -3 6.60987 2.70378   1
  -5  -9   3 5.56880 2.70778  15
   5   9  -3 3.49007 1.79342   5
  -5   9   3 5.85259 1.91815  11
   5   9  -3 3.27586 2.49084  11
   5   9  -3 4.65714 1.77429   4
   3  -9  -3 33.5026 4.03558   1
  -3  -9   3 31.0197 3.12792   9
   3  -9  -3 36.6420 3.78636   6
  -3  -9   3 36.8079 4.27922   6
  -3  -9   3 31.5501 4.12556  15
  -3  -9   3 30.2838 3.74497   8
   3  -9  -3 28.2251 3.58093   9
  -3   9   3 38.2481 4.51061   5
  -3   9   3 32.5647 3.78067  11
   3   9  -3 36.6294 4.37444   4
   3   9  -3 28.8216 3.24452   5
   3   9  -3 32.3502 3.89513  11
   1  -9  -3 0.82254 1.49294   9
   1  -9  -3 2.49866 1.75094   6
  -1  -9   3 4.60034 1.52357   9
  -1  -9   3 5.04719 1.84448   6
   1   9  -3 2.12471 1.43518  11
  -1   9   3 4.35775 1.95209  11
   1   9  -3 3.94668 1.81547   4
  -1   9   3 2.26859 2.47736   5
  -1  -9  -3 7.22272 1.83926  10
  -1  -9  -3 4.93832 1.68023   9
   1  -9   3 3.70238 1.62322   9
  -1  -9  -3 7.66141 2.47489   6
   1   9   3 6.88075 2.12824  11
  -1   9  -3 5.60562 2.15763  14
  -1   9  -3 4.66511 2.65229   4
   1   9   3 2.89813 2.21357   5
  -1   9  -3 5.04178 1.74521  11
   3  -9   3 179.851 8.41058   9
   3  -9   3 235.282 12.2110   1
  -3  -9  -3 187.137 8.72833   6
   3   9   3 176.381 8.45505  16
   3   9   3 177.167 8.29273  11
   3   9   3 194.850 10.6697   5
  -3   9  -3 183.415 9.30127  14
  -3   9  -3 175.968 8.32441   4
  -5  -9  -3 31.4596 4.66431   6
  -5  -9  -3 49.2523 6.22506   2
   5  -9   3 36.8621 4.95850   9
   5  -9   3 35.3536 5.72220   1
   5   9   3 41.3364 6.22988   5
  -5   9  -3 28.7140 5.90843   2
  -5   9  -3 27.7953 4.73776  14
   5   9   3 34.2044 4.39391  11
  -8 -10   3 70.1410 7.09353   6
   8 -10  -3 78.6880 8.60493   1
  -8 -10   3 84.3178 7.33479  15
   8 -10  -3 75.2646 5.64644   9
  -8  10   3 50.0797 10.7338   2
   8  10  -3 75.6061 6.19193  11
   8  10  -3 76.9076 7.07215   5
  -6 -10   3 110.143 7.66816  15
   6 -10  -3 117.909 8.10759   1
   6 -10  -3 112.511 6.92836   9
  -6 -10   3 103.737 7.46832   6
   6  10  -3 108.775 7.02556  11
   6  10  -3 110.166 7.38795   5
   4 -10  -3 -0.4487 1.26009   9
  -4 -10   3 -1.6465 2.06530   6
   4 -10  -3 1.17396 2.13199   1
  -4 -10   3 -0.2461 2.10271  15
   4  10  -3 1.83948 1.86511   5
  -4  10   3 1.92323 1.82115  11
   4  10  -3 -2.0227 1.43094  11
   4  10  -3 -0.0080 2.09025   4
   2 -10  -3 65.4872 5.03879   9
   2 -10  -3 69.4707 5.13694   6
  -2 -10   3 78.2015 5.37998   6
  -2 -10   3 70.1482 4.52951   9
   2  10  -3 70.4206 5.17296  11
  -2  10   3 64.6102 5.90501   5
  -2  10   3 69.8891 5.29395  11
   2  10  -3 66.6003 5.24111   4
   0 -10  -3 17.7034 3.54834   6
   0 -10  -3 4.64255 2.03602   9
   0 -10   3 3.46406 1.93214   9
   0  10   3 5.64427 2.55399  11
   0  10  -3 7.87450 2.93189   4
   0  10   3 10.7016 3.62287   5
   0  10  -3 4.54572 2.10771  11
   2 -10   3 133.584 7.47644   9
  -2 -10  -3 138.823 7.86910   6
   2  10   3 119.943 7.57028  16
  -2  10  -3 137.049 7.88453  14
  -2  10  -3 143.866 8.02100   4
   2  10   3 150.137 9.47570   5
   2  10   3 138.979 7.71938  11
   4 -10   3 64.5166 6.23658   9
  -4 -10  -3 65.4235 6.44239   6
  -4  10  -3 53.7742 5.32289   4
   4  10   3 65.5293 6.11242  11
   4  10   3 69.0873 7.85444   5
  -4  10  -3 72.0609 7.25090  14
   6 -10   3 2.58428 2.01941   9
  -6 -10  -3 5.60183 3.22963   6
   6 -10   3 3.41578 3.59776   1
  -6  10  -3 4.64795 4.08850   2
  -6  10  -3 0.45221 3.41410  14
   6  10   3 5.55135 3.99972   5
   7 -11  -3 257.682 11.1845   9
  -7 -11   3 301.278 12.9053  15
  -7 -11   3 258.738 12.2990   6
   7 -11  -3 261.776 13.0265   1
   7  11  -3 273.412 11.1104  11
   7  11  -3 279.576 12.0885   5
   5 -11  -3 232.270 10.2642   9
  -5 -11   3 258.599 11.4329  15
  -5 -11   3 239.821 10.9840   6
   5 -11  -3 231.700 10.9397   1
   5  11  -3 252.259 10.6358  11
   5  11  -3 232.094 10.2581   4
  -5  11   3 237.431 10.0908   4
   3 -11  -3 294.202 10.3792   6
  -3 -11   3 291.161 11.3799   6
   3 -11  -3 264.899 10.7070   9
   3  11  -3 285.131 11.4003   4
   3  11  -3 285.799 10.9476  11
  -3  11   3 300.522 11.0426  11
   1 -11  -3 242.430 10.1329   6
   1 -11  -3 234.815 9.29954   9
  -1 -11   3 228.609 9.08178   6
  -1 -11   3 214.449 8.97262   9
  -1  11   3 232.604 10.0546  11
   1  11  -3 236.900 9.28882  11
   1  11  -3 229.417 10.4317   4
  -1  11   3 238.798 11.0430   5
   1 -11   3 285.228 11.2743   9
  -1 -11  -3 280.647 11.4609   6
  -1  11  -3 308.600 12.2451  14
   1  11   3 303.778 13.2244   5
  -1  11  -3 292.700 11.9164   4
   1  11   3 286.016 11.5535  11
   3 -11   3 343.192 13.2340   9
  -3 -11  -3 334.149 13.4523   6
  -3  11  -3 353.570 14.1998  14
   3  11   3 339.010 13.0549  11
  -3  11  -3 345.324 13.0130   4
   3  11   3 359.503 15.0668   5
  -5 -11  -3 176.808 10.0350   6
   5 -11   3 176.726 9.89376   9
  -5  11  -3 158.302 10.0867  14
   5  11   3 175.062 12.4131   5
  -5  11  -3 186.150 12.6572   2
   6 -12  -3 15.3891 3.73696   9
  -6 -12   3 18.3477 4.43408   6
   6  12  -3 22.0991 4.22058  11
  -6  12   3 15.3469 3.64433  14
   4 -12  -3 264.431 10.9431   9
  -4 -12   3 281.658 11.9175   6
   4  12  -3 261.453 11.5597   4
  -4  12   3 277.242 11.8770   4
   4  12  -3 264.526 11.2211  11
   2 -12  -3 578.013 17.1396   9
   2 -12  -3 578.707 17.0753   6
  -2 -12   3 579.547 16.9894   9
  -2 -12   3 625.468 17.8319   6
   2  12  -3 634.123 17.5594  11
   2  12  -3 629.885 18.9073   4
  -2  12   3 604.640 17.7083  11
   0 -12  -3 157.382 8.72244   6
   0 -12  -3 150.803 7.49157   9
   0 -12   3 155.034 8.35900   9
   0  12  -3 160.837 9.25184  14
   0  12  -3 146.756 8.54718   4
   0  12   3 153.838 8.64334  11
   0  12  -3 155.195 7.58812  11
  -2 -12  -3 66.1297 6.76694   6
   2 -12   3 60.9109 6.07688   9
   2  12   3 50.5129 6.65639   5
   2  12   3 69.0789 5.92204  11
  -2  12  -3 65.1885 7.07015  14
  -2  12  -3 48.5905 5.88847   4
   3 -13  -3 13.1013 3.16233   9
  -3 -13   3 9.59457 3.41582   6
  -3  13   3 11.6522 3.22509   4
   3  13  -3 16.0129 3.66089   4
   3  13  -3 8.70116 3.51187  11
  -3  13   3 10.4323 3.35848  11
  -1 -13   3 60.8448 5.77024   9
   1 -13  -3 59.8462 5.86115   9
   1 -13  -3 60.5590 6.20662   6
   1  13  -3 67.4803 7.15620   4
  -1  13   3 63.2870 6.39887  11
   1  13  -3 53.4704 5.29374  11
  -1 -13  -3 84.1127 7.67394   6
   1 -13   3 84.5322 6.86973   9
   1  13   3 85.9741 7.35542  11
  -1  13  -3 82.4595 7.52165  14
  -1  13  -3 76.5333 7.22143   4
 -12   0   4 79.9073 9.50048   8
 -12   0   4 69.5363 9.06995  15
  10   0  -4 1079.59 24.5027   7
 -10   0   4 1114.49 30.8803   8
 -10   0   4 1094.47 29.3196  15
  10   0  -4 1038.42 26.5643   1
   8   0  -4 3342.23 59.5628   7
  -8   0   4 3175.57 59.6462   2
  -8   0   4 3328.19 63.4777  15
   8   0  -4 3257.48 61.6413   1
  -8   0   4 3309.90 65.0440   8
   6   0  -4 3392.20 60.8981   1
  -6   0   4 3444.83 61.9390  15
  -6   0   4 3388.42 63.3944   8
  -6   0   4 3300.81 58.8832   2
   6   0  -4 3360.77 59.4634   7
   6   0  -4 3366.76 58.8351  11
  -6   0   4 3394.62 57.2918  16
   4   0  -4 9464.35 168.324   1
   4   0  -4 9518.84 169.951   7
  -4   0   4 9749.28 161.730  15
   4   0  -4 9592.85 166.047   4
   4   0  -4 9599.41 173.024  11
  -4   0   4 9327.59 162.022   2
   4   0  -4 9656.58 199.660  13
  -4   0   4 9999.99 170.169   8
  -4   0   4 9530.60 197.347  13
  -4   0   4 9897.34 171.366  16
   4   0  -4 9640.51 171.164  10
   2   0  -4 3696.61 62.4412   4
  -2   0   4 3657.00 67.6456  13
   2   0  -4 3716.21 61.9238   7
  -2   0   4 3604.10 63.3888   8
   2   0  -4 3591.57 64.9222  11
  -2   0   4 3600.68 64.2648   3
  -2   0   4 3565.82 61.2735  15
   2   0  -4 3646.04 62.6462  10
  -2   0   4 3720.09 68.8973  16
   2   0  -4 3703.67 63.6174  14
   0   0   4 844.914 16.4484  16
   0   0  -4 813.877 16.3619  14
   0   0  -4 813.307 16.2345  10
   0   0  -4 796.585 15.9212   4
   0   0  -4 814.893 15.3244   6
   0   0   4 797.986 16.9598  12
   0   0   4 790.921 17.3842   3
   0   0   4 800.833 16.0304   8
   0   0  -4 811.983 15.9276   2
   0   0  -4 811.577 14.5335   7
   2   0   4 7764.24 133.073   3
  -2   0  -4 7767.84 132.253   2
   2   0   4 7611.07 134.096   5
  -2   0  -4 7855.51 135.223  10
   2   0   4 7775.23 138.533  16
   2   0   4 7801.24 132.641  12
  -2   0  -4 7876.34 131.859  14
  -2   0  -4 7502.48 132.663   6
  -2   0  -4 7745.17 135.996   4
  -4   0  -4 3495.19 64.7301   2
   4   0   4 3512.47 64.2230  12
   4   0   4 3428.54 61.5644   5
  -4   0  -4 3498.23 63.2336  14
   4   0   4 3411.32 60.6359  16
  -4   0  -4 3414.98 63.7233  15
   4   0   4 3429.13 64.7253   3
  -6   0  -4 1176.48 28.6446  15
  -6   0  -4 1170.29 27.0961  14
  -6   0  -4 1201.47 29.6517   2
   6   0   4 1191.96 28.4677  12
   8   0   4 993.119 26.4539  12
  -8   0  -4 963.505 27.7531   2
   8   0   4 968.794 28.6310   1
  -8   0  -4 955.001 27.1466  15
 -11  -1   4 57.2869 8.23538  15
 -11  -1   4 50.2913 7.18809   8
  11  -1  -4 33.6175 4.88381   1
 -11   1   4 42.2481 7.40918   8
  11   1  -4 42.6168 4.65090   7
 -11   1   4 35.1124 7.05337  15
  -9  -1   4 53.4007 6.56771   8
  -9  -1   4 49.2669 6.54005  15
   9  -1  -4 42.4906 5.08647   1
  -9  -1   4 44.3116 4.54117   2
   9  -1  -4 45.8944 3.86695   7
   9   1  -4 44.3887 4.19173   1
  -9   1   4 37.8540 5.43660   8
  -9   1   4 35.7059 4.86881   2
  -9   1   4 45.6506 6.39363  15
   9   1  -4 40.8507 4.00155   7
  -7  -1   4 399.404 12.8238  15
  -7  -1   4 413.629 13.7259   8
   7  -1  -4 412.591 10.7385   7
   7  -1  -4 413.418 12.3023   1
  -7  -1   4 392.115 10.5161   2
  -7   1   4 391.305 10.6314   2
   7   1  -4 387.177 11.1068   1
   7   1  -4 383.776 9.87144  11
  -7   1   4 393.266 12.6913  15
  -7   1   4 414.115 14.0317   8
  -5  -1   4 461.690 9.84743  16
   5  -1  -4 481.743 10.8200   7
  -5  -1   4 457.656 12.9861   8
   5  -1  -4 472.087 11.9941   1
  -5  -1   4 446.783 9.79935   2
  -5  -1   4 469.474 12.0322  15
   5  -1  -4 462.847 16.2772  13
   5   1  -4 456.913 16.3400  13
  -5   1   4 451.745 12.8638   8
   5   1  -4 454.095 9.50478   4
   5   1  -4 457.295 10.8430   1
   5   1  -4 465.056 10.4096  11
  -5   1   4 463.648 9.76398  16
  -5   1   4 459.934 11.7450  15
  -5   1   4 454.006 16.1613  13
  -5   1   4 455.838 9.87609   2
   3  -1  -4 116.349 6.68868  13
   3  -1  -4 110.042 4.24382   1
   3  -1  -4 115.282 3.87324  10
  -3  -1   4 115.191 4.97803   3
  -3  -1   4 119.212 5.03383   8
   3  -1  -4 112.898 3.73434   4
   3  -1  -4 113.731 3.80579   7
  -3  -1   4 115.985 4.00446  16
  -3  -1   4 113.641 4.08241  15
  -3  -1   4 119.309 6.44141  13
   3   1  -4 114.309 6.30528  13
  -3   1   4 119.926 6.71620  13
   3   1  -4 112.361 3.68756  11
   3   1  -4 117.915 3.77385   4
  -3   1   4 116.304 3.94919  16
   3   1  -4 113.674 3.94192  10
  -3   1   4 111.035 3.63219  15
   3   1  -4 119.064 3.01819  14
  -3   1   4 119.489 4.84473   8
  -1  -1   4 1991.33 37.0438   3
   1  -1  -4 1996.82 34.5952   7
   1  -1  -4 2008.86 35.1077   6
  -1  -1   4 1937.19 35.6265  12
   1  -1  -4 2017.61 35.6174  10
   1  -1  -4 1928.30 35.3392   4
  -1  -1   4 2029.26 38.5467  13
   1  -1  -4 1943.29 35.3154  14
   1  -1  -4 1980.20 34.2662   2
  -1  -1   4 2057.94 35.8883  16
  -1  -1   4 1948.65 36.0533   8
   1   1  -4 1976.83 35.3228   4
  -1   1   4 2025.03 36.9419   3
  -1   1   4 1967.89 36.4650  12
  -1   1   4 1985.79 35.1360   8
   1   1  -4 1974.96 34.6479  11
   1   1  -4 1980.22 34.6063   2
  -1   1   4 2001.32 35.7925  16
   1   1  -4 2002.50 34.0541   7
   1   1  -4 1996.42 35.3657  10
   1   1  -4 2010.66 35.2419  14
  -1  -1  -4 222.914 5.74457   6
   1  -1   4 215.346 6.38028  16
   1  -1   4 234.361 7.03751  12
  -1  -1  -4 208.014 5.54244  15
  -1  -1  -4 224.572 6.16193   4
   1  -1   4 218.141 7.49900   3
  -1  -1  -4 219.521 6.71771  14
  -1  -1  -4 207.112 6.56451   2
  -1  -1  -4 218.430 6.45942  10
   1  -1   4 210.418 5.64534   5
   1   1   4 215.205 6.25277  16
  -1   1  -4 217.358 6.19641  10
  -1   1  -4 217.797 6.07709   4
  -1   1  -4 215.117 6.77062   2
   1   1   4 220.471 7.27884   3
   1   1   4 223.363 7.44760  12
  -1   1  -4 223.530 6.71019  14
   1   1   4 210.253 6.68985   5
  -3  -1  -4 0.97432 1.51260  15
   3  -1   4 0.33125 1.40087  12
   3  -1   4 0.51519 1.58206   3
   3  -1   4 2.00580 1.12060   5
   3  -1   4 1.84301 1.05102  16
  -3  -1  -4 1.80545 0.91373   6
  -3  -1  -4 1.85138 1.60687  14
  -3  -1  -4 5.70687 2.36371   2
   3   1   4 0.75746 1.42458   5
   3   1   4 3.18939 1.11674  16
  -3   1  -4 -0.3655 1.62631  14
   3   1   4 1.32267 1.79227  12
  -3   1  -4 1.45229 0.97660   4
   3   1   4 3.30800 1.80739   3
  -3   1  -4 -0.0427 0.97858  10
  -3   1  -4 3.14686 2.12258   2
  -5  -1  -4 334.313 12.6035   2
  -5  -1  -4 332.399 11.6635  15
   5  -1   4 355.645 12.0723  12
  -5  -1  -4 366.470 11.7655  14
  -5   1  -4 371.604 11.8814  14
  -5   1  -4 354.121 13.2416   2
  -5   1  -4 352.686 12.4758  15
   5   1   4 352.653 10.8514   5
   5   1   4 384.080 12.7599  12
  -7  -1  -4 -0.6308 3.23295  15
   7  -1   4 -0.7679 2.34409  12
  -7  -1  -4 2.56851 3.33188   2
   7  -1   4 1.63518 3.07617   1
  -7  -1  -4 3.18048 2.48724  14
  -7   1  -4 2.30009 3.92568   2
   7   1   4 -0.5713 2.64387   1
   7   1   4 3.25708 2.16474  12
  -7   1  -4 0.49059 3.43435  15
  -7   1  -4 2.98269 2.58958  14
 -12  -2   4 1.10555 4.81327  15
  12  -2  -4 2.78318 3.23459   1
 -12  -2   4 7.95208 4.97372   8
 -12   2   4 7.59376 4.84482   8
 -12   2   4 12.1963 5.54482  15
 -10  -2   4 168.963 10.9676   8
  10  -2  -4 148.890 7.00037   7
  10  -2  -4 147.671 9.06789   1
 -10  -2   4 147.025 10.4649  15
 -10   2   4 155.130 11.0951   8
  10   2  -4 159.419 7.33384   7
 -10   2   4 147.795 10.5522  15
   8  -2  -4 5.71204 1.73206   7
   8  -2  -4 4.46905 2.15016   1
  -8  -2   4 5.90849 2.02977   2
  -8  -2   4 7.19322 3.20224  15
  -8  -2   4 3.37761 2.77421   8
   8   2  -4 3.98000 1.96262   5
  -8   2   4 2.98044 2.19173   2
  -8   2   4 7.61230 3.14557  15
   8   2  -4 14.9081 2.07275  11
  -6  -2   4 526.203 14.8831   8
  -6  -2   4 518.314 14.1464  15
   6  -2  -4 520.039 12.2820   7
  -6  -2   4 489.874 11.7462   2
   6  -2  -4 518.075 13.9635   1
   6   2  -4 497.284 11.8199   1
  -6   2   4 513.426 13.8117  15
  -6   2   4 517.614 10.5989  16
   6   2  -4 518.277 13.2481   5
   6   2  -4 515.133 11.6940  11
  -6   2   4 489.105 11.8117   2
   4  -2  -4 600.788 12.7256   7
   4  -2  -4 595.815 13.9217   1
  -4  -2   4 570.388 11.5446   2
   4  -2  -4 593.750 12.2587  10
  -4  -2   4 585.407 14.6295   8
  -4  -2   4 572.783 14.0685   3
   4  -2  -4 580.816 18.2597  13
  -4  -2   4 573.564 13.4258  15
  -4  -2   4 597.590 12.4877  16
   4   2  -4 585.303 13.0768   5
   4   2  -4 579.020 12.2866  11
  -4   2   4 576.092 12.8756  15
  -4   2   4 600.688 14.3975   8
  -4   2   4 593.511 12.4423  16
  -4   2   4 550.212 11.4409   2
  -4   2   4 591.028 18.3362  13
   4   2  -4 576.370 17.6166  13
   4   2  -4 592.097 12.0712   4
  -2  -2   4 1738.30 31.5075  15
   2  -2  -4 1751.13 31.5215  14
   2  -2  -4 1776.76 31.6142   7
  -2  -2   4 1727.53 33.2210   3
   2  -2  -4 1805.57 31.8948  10
   2  -2  -4 1743.87 31.7516   6
  -2  -2   4 1769.48 33.3044   8
  -2  -2   4 1788.01 32.3212  16
  -2   2   4 1731.80 33.2227   3
  -2   2   4 1764.22 37.9414  13
   2   2  -4 1779.71 31.6489  10
   2   2  -4 1759.89 31.1717  14
  -2   2   4 1797.59 32.3941  16
   2   2  -4 1752.30 31.2756  11
  -2   2   4 1755.83 31.8407   8
   2   2  -4 1796.60 35.5380  13
   2   2  -4 1785.92 31.7708   4
   0  -2  -4 172.247 5.25733   2
   0  -2   4 178.218 5.62909  16
   0  -2  -4 170.013 5.08567   6
   0  -2   4 172.209 5.62377  13
   0  -2  -4 170.453 5.44231  10
   0  -2   4 163.781 5.22852  12
   0  -2   4 174.876 5.87326   8
   0  -2   4 174.981 6.34303   3
   0  -2  -4 168.163 4.56090   7
   0  -2  -4 165.298 5.48499  14
   0   2  -4 165.536 4.88810  10
   0   2   4 161.943 6.18295  12
   0   2  -4 166.227 4.33790  11
   0   2   4 169.399 5.92542   3
   0   2  -4 168.239 5.42426  14
   0   2   4 172.857 5.55518  16
   0   2  -4 166.843 3.60601   7
   0   2   4 163.957 4.09644   8
   0   2  -4 171.163 5.34032   4
  -2  -2  -4 373.789 9.43940  15
   2  -2   4 415.101 10.2037  16
   2  -2   4 388.679 11.5815   3
   2  -2   4 392.546 10.4481  12
  -2  -2  -4 409.238 10.7834  14
  -2  -2  -4 387.827 10.8250   2
  -2  -2  -4 381.920 9.34410   6
   2   2   4 392.967 10.9084   3
  -2   2  -4 397.229 10.7833  14
  -2   2  -4 402.770 9.65691  10
  -2   2  -4 399.386 11.2457   2
  -2   2  -4 420.664 9.74725   4
   2   2   4 414.040 10.0821  16
   2   2   4 398.263 11.6038  12
   2   2   4 389.343 11.0183   5
   4  -2   4 96.7659 5.56931  12
  -4  -2  -4 98.5243 5.53705  14
   4  -2   4 98.0696 6.19276   3
   4  -2   4 90.1611 4.19989  16
  -4  -2  -4 96.9338 6.25891   2
  -4  -2  -4 87.6687 5.38622  15
  -4   2  -4 102.702 5.54726  14
   4   2   4 96.9369 5.54269   5
  -4   2  -4 88.9931 4.01753   4
  -4   2  -4 95.9626 4.55164  10
  -4   2  -4 103.353 6.57588   2
   4   2   4 92.6013 4.17466  16
   4   2   4 98.6698 6.07968  12
   4   2   4 96.5799 5.63244   3
   6  -2   4 71.2710 6.63458   1
  -6  -2  -4 65.8970 5.99585   2
   6  -2   4 67.0838 5.53008  12
  -6  -2  -4 53.1818 5.79110  15
  -6  -2  -4 57.4873 5.15884  14
  -6   2  -4 61.3870 5.53514  14
   6   2   4 61.6125 5.09731   5
  -6   2  -4 60.4609 6.80538  15
   6   2   4 57.6137 6.16956  12
  -6   2  -4 61.2870 6.80300   2
   8  -2   4 209.018 12.6661   1
  -8  -2  -4 183.687 11.3635   2
  -8   2  -4 172.615 10.8887   2
   8   2   4 187.769 11.1923   1
  -8   2  -4 177.806 9.56237  14
   8   2   4 180.295 10.7461  12
  -8   2  -4 206.925 12.0757  15
 -11  -3   4 647.524 21.7394  15
  11  -3  -4 607.864 20.6567   1
 -11  -3   4 634.316 21.9162   8
  11   3  -4 645.157 17.5591   7
 -11   3   4 643.890 22.8175  15
 -11   3   4 639.150 24.1408   8
  -9  -3   4 378.064 15.0880   8
  -9  -3   4 369.943 12.2067   2
  -9  -3   4 381.451 14.9448  15
   9  -3  -4 383.527 14.3589   1
   9  -3  -4 388.183 11.5708   7
   9   3  -4 382.347 10.8100  11
   9   3  -4 384.339 13.2326   5
  -9   3   4 385.806 15.0739  15
   7  -3  -4 1229.53 27.9301   1
  -7  -3   4 1188.47 24.9776   2
  -7  -3   4 1235.31 28.5399   8
  -7  -3   4 1227.90 27.9881  15
   7  -3  -4 1216.62 24.9073   7
   7  -3  -4 1203.41 23.4262   9
   7   3  -4 1231.37 24.3568  11
  -7   3   4 1168.07 25.1837   2
   7   3  -4 1213.36 26.5197   5
  -7   3   4 1251.50 28.0205  15
   5  -3  -4 1670.11 32.9809   1
   5  -3  -4 1627.06 29.9913   9
   5  -3  -4 1661.31 30.8776   7
  -5  -3   4 1627.35 33.3585   8
  -5  -3   4 1647.50 32.4447  15
  -5  -3   4 1604.81 30.0908   2
   5   3  -4 1642.83 30.4029  11
   5   3  -4 1606.26 38.8133  13
  -5   3   4 1665.91 30.1120  16
  -5   3   4 1622.78 31.7732  15
   5   3  -4 1617.76 31.3669   5
  -5   3   4 1608.03 38.4940  13
   5   3  -4 1608.05 29.5087   4
  -5   3   4 1570.46 30.1699   2
  -3  -3   4 1296.48 26.3867   8
  -3  -3   4 1301.68 25.6409   3
  -3  -3   4 1297.31 24.9018  16
   3  -3  -4 1292.05 24.3370   6
   3  -3  -4 1294.14 24.1674   9
   3  -3  -4 1309.69 25.7218   1
  -3  -3   4 1294.26 25.1187  15
   3  -3  -4 1335.23 24.6358   7
   3  -3  -4 1311.90 24.0497  10
   3   3  -4 1295.12 24.1403  11
   3   3  -4 1254.97 24.2485   4
  -3   3   4 1309.07 24.9283  16
  -3   3   4 1283.88 31.1589  13
   3   3  -4 1327.63 29.5340  13
   3   3  -4 1224.15 23.2828  14
   3   3  -4 1286.76 24.3325   5
  -3   3   4 1294.69 25.2397   8
   1  -3  -4 5046.18 84.5653   6
  -1  -3   4 4860.50 85.2917  12
   1  -3  -4 4851.06 83.9096   7
  -1  -3   4 4947.04 85.7689   8
   1  -3  -4 4766.25 86.3355   2
   1  -3  -4 4991.35 84.7702  14
   1  -3  -4 4864.86 84.3821  10
  -1  -3   4 4983.50 92.9234  16
  -1  -3   4 4898.52 85.7012   3
  -1   3   4 4964.71 85.4084   3
   1   3  -4 5068.02 84.6147   4
  -1   3   4 5036.28 85.9425  12
   1   3  -4 5061.68 95.0987  13
   1   3  -4 4903.51 85.8022  11
   1   3  -4 4992.17 84.4251  14
  -1   3   4 4759.56 85.0644   8
   1   3  -4 4964.80 86.5856  10
  -1   3   4 5005.45 89.6629  16
  -1  -3  -4 2116.63 39.1786   2
   1  -3   4 2142.57 38.1548  12
   1  -3   4 2081.60 39.5939   8
   1  -3   4 2098.57 40.3274   3
  -1  -3  -4 2093.63 39.2146  14
  -1  -3  -4 2074.39 38.2657   6
  -1  -3  -4 2051.28 36.5884  15
   1  -3   4 2159.27 39.0714  16
  -1   3  -4 2111.67 38.2128   4
   1   3   4 2141.54 38.9429  16
  -1   3  -4 2091.23 36.2926  11
  -1   3  -4 2149.21 39.1399  14
  -1   3  -4 2098.16 37.4391  10
   1   3   4 2076.11 38.8688   3
   1   3   4 2118.49 40.2883   5
   1   3   4 2093.50 40.2905  12
  -3  -3  -4 609.066 14.5728  15
   3  -3   4 658.309 17.2341   3
   3  -3   4 651.818 14.9588  16
  -3  -3  -4 628.228 14.3358   6
   3  -3   4 634.129 15.1879  12
  -3  -3  -4 662.614 16.6350   2
  -3  -3  -4 634.259 15.8058  14
  -3   3  -4 625.297 14.0605   4
  -3   3  -4 607.507 16.6528   2
   3   3   4 635.232 14.5029  16
  -3   3  -4 636.828 13.9516  10
   3   3   4 631.761 15.4812   3
   3   3   4 656.877 16.9090  12
   3   3   4 632.350 16.4664   5
  -3   3  -4 634.594 15.9844  14
   5  -3   4 1052.62 22.9305   9
  -5  -3  -4 1101.81 26.8052   2
  -5  -3  -4 1139.70 25.4800  14
   5  -3   4 1104.38 25.1014  12
  -5  -3  -4 1057.01 24.6231  15
   5   3   4 1058.31 25.2311   5
  -5   3  -4 1122.24 27.5637   2
  -5   3  -4 1090.71 25.2912  14
   5   3   4 1087.83 26.3472  12
  -7  -3  -4 422.055 16.0628   2
   7  -3   4 431.859 17.7699   1
  -7  -3  -4 413.483 14.0749  14
  -7   3  -4 435.939 17.3264   2
   7   3   4 436.881 15.8392  12
   7   3   4 394.764 13.6942   5
  -7   3  -4 401.618 14.2964  14
  -7   3  -4 399.431 16.3318  15
  10  -4  -4 100.271 8.11224   1
 -10  -4   4 121.129 9.24355   8
 -10  -4   4 118.199 9.41115  15
  10   4  -4 105.395 7.45898   5
 -10   4   4 117.594 9.59092  15
   8  -4  -4 -0.8766 0.83956   9
  -8  -4   4 1.18929 1.57813   2
  -8  -4   4 1.67438 2.91406   8
  -8  -4   4 1.33737 2.89946  15
   8  -4  -4 0.67824 1.20498   7
   8  -4  -4 0.10337 1.92822   1
  -8   4   4 2.86691 2.14359   2
  -8   4   4 -1.6580 2.48644  15
   8   4  -4 1.01723 1.38229  11
   8   4  -4 -0.3505 1.72994   5
  -6  -4   4 2.73369 2.27081  15
  -6  -4   4 0.82453 1.20150   2
  -6  -4   4 0.11318 1.96849   8
   6  -4  -4 2.18479 1.07881   9
   6  -4  -4 2.57780 1.41418   1
   6  -4  -4 2.73482 1.22465   7
  -6   4   4 1.64175 0.96419  16
   6   4  -4 1.29517 1.50889   5
   6   4  -4 3.55382 1.27336  11
  -6   4   4 0.92767 1.38553   2
   4  -4  -4 0.20002 0.88364   6
  -4  -4   4 1.19691 1.60656  15
   4  -4  -4 1.23385 0.95850   7
  -4  -4   4 1.88132 1.54417   3
   4  -4  -4 1.50145 1.31306   1
   4  -4  -4 1.14776 0.91442   9
   4  -4  -4 1.21177 0.66032  10
   4   4  -4 1.14348 1.16749  11
   4   4  -4 0.92563 1.54379  13
  -4   4   4 3.26470 1.12375  16
  -4   4   4 1.27081 1.72129  13
   4   4  -4 1.28974 1.16652   5
   4   4  -4 1.92339 1.20826   4
  -2  -4   4 632.476 15.2702   8
  -2  -4   4 652.956 14.6935   3
  -2  -4   4 611.586 12.2433  12
  -2  -4   4 646.435 14.1961  15
   2  -4  -4 642.060 13.4892  10
   2  -4  -4 650.448 13.7433   9
   2  -4  -4 645.310 14.0377   6
   2  -4  -4 646.803 13.8757   7
   2   4  -4 680.964 14.2908   4
  -2   4   4 648.220 15.0987  12
  -2   4   4 654.213 14.8484  16
   2   4  -4 666.193 16.8145  13
   2   4  -4 645.653 13.6484  14
   2   4  -4 657.511 13.3323  10
  -2   4   4 635.932 13.1585   8
  -2   4   4 626.968 14.6621   3
   2   4  -4 641.596 13.4055  11
   2   4  -4 648.273 13.0223   5
   0  -4   4 950.334 20.3162   3
   0  -4   4 918.996 20.3468   8
   0  -4   4 953.201 20.0647  16
   0  -4  -4 927.163 18.4954   7
   0  -4  -4 906.945 19.2016   2
   0  -4  -4 952.546 19.4457   6
   0  -4   4 894.757 17.4131  12
   0  -4  -4 969.948 19.3692  10
   0   4   4 955.923 20.1554  16
   0   4  -4 928.148 17.8572  10
   0   4  -4 939.018 17.7401  11
   0   4  -4 947.105 19.7004  14
   0   4   4 970.213 20.8178  12
   0   4   4 916.743 19.1113   3
   0   4   4 936.309 21.0415   5
   0   4  -4 968.989 19.4679   4
  -2  -4  -4 2.79980 1.39611   6
   2  -4   4 4.29707 1.20031  12
   2  -4   4 4.73074 2.00567   3
  -2  -4  -4 7.00548 1.47937  15
  -2  -4  -4 3.22209 1.68977  14
  -2  -4  -4 6.76952 1.86965   2
   2   4   4 6.83535 1.62366   3
  -2   4  -4 4.82218 1.60343   4
  -2   4  -4 3.43012 1.01714  10
  -2   4  -4 4.97641 1.87983  14
   2   4   4 2.74120 2.18863   5
   2   4   4 3.96307 2.22372  12
   2   4   4 6.59398 1.65588  16
   4  -4   4 5.94075 1.73122   9
  -4  -4  -4 9.06050 2.88712   2
   4  -4   4 7.24811 1.90301  12
  -4  -4  -4 10.3855 2.17722   6
  -4  -4  -4 7.59852 2.00710  14
   4   4   4 9.15656 1.80144  11
  -4   4  -4 8.08011 2.55843   2
   4   4   4 11.9258 3.05469   5
   4   4   4 6.58768 2.83896  12
  -4   4  -4 12.6130 2.10691   4
   4   4   4 10.6595 1.96798  16
  -4   4  -4 8.04360 2.76018  14
  -6  -4  -4 60.7950 6.52415   2
   6  -4   4 46.4363 6.40990   1
  -6  -4  -4 46.2462 5.16809  14
  -6   4  -4 40.7227 5.45692  14
   6   4   4 49.4672 6.23227  12
   6   4   4 45.9224 5.01418   5
  -6   4  -4 50.9346 6.39090   2
  -8  -4  -4 59.3783 7.45877   2
   8  -4   4 56.7628 8.03586   1
  -8   4  -4 57.4837 8.67393   2
  -8   4  -4 43.8311 7.39898  15
   8   4   4 59.7909 6.97684  12
  -8   4  -4 41.8219 5.46011  14
 -11  -5   4 8.87469 4.92680  15
  11  -5  -4 4.59128 3.73616   1
  11   5  -4 1.92781 2.52594   5
 -11   5   4 3.68019 5.20439  15
   9  -5  -4 12.5369 3.65696   1
   9  -5  -4 9.68953 2.30606   7
  -9  -5   4 12.1217 3.03641   2
  -9  -5   4 8.30030 4.00395  15
  -9  -5   4 9.88231 3.78790   8
  -9   5   4 11.2760 4.30645  15
   9   5  -4 4.54031 2.65198   5
   9   5  -4 10.9754 2.41227  11
   7  -5  -4 190.011 9.27657   1
  -7  -5   4 190.126 9.14352  15
  -7  -5   4 192.914 7.66037   2
  -7  -5   4 185.834 9.17567   8
   7  -5  -4 195.846 7.36373   7
   7  -5  -4 187.267 6.80540   9
  -7   5   4 202.243 8.23832   2
  -7   5   4 198.665 9.30732  15
   7   5  -4 187.020 6.95154  11
   7   5  -4 193.035 8.18862   5
  -5  -5   4 231.873 7.72573   3
   5  -5  -4 244.259 7.80121   7
  -5  -5   4 251.195 9.14322  15
   5  -5  -4 247.199 9.22091   1
  -5  -5   4 242.573 9.38235   8
   5  -5  -4 238.943 6.92922   6
   5  -5  -4 245.147 7.60291   9
  -5   5   4 227.514 12.1487  13
   5   5  -4 246.721 8.19673   5
  -5   5   4 237.788 7.69524  16
   5   5  -4 248.184 7.31484   4
   5   5  -4 243.490 7.64874  11
   3  -5  -4 24.4968 2.54437   6
   3  -5  -4 28.5509 3.16009   1
   3  -5  -4 27.5555 2.28239   7
  -3  -5   4 25.8691 3.28108   8
  -3  -5   4 28.1117 2.71809   3
   3  -5  -4 26.3280 1.87593  10
  -3  -5   4 29.0009 3.08997  15
   3  -5  -4 24.3023 2.40355   9
   3   5  -4 25.2247 2.15693   5
   3   5  -4 24.7577 3.47818  13
   3   5  -4 24.0294 2.56582   4
   3   5  -4 28.0699 2.56654  11
  -3   5   4 34.7143 4.41037  13
  -3   5   4 26.7811 2.68827  16
  -1  -5   4 4.32566 1.52029   3
  -1  -5   4 2.81930 1.68922   8
   1  -5  -4 14.9691 1.87767  10
   1  -5  -4 5.20727 1.49623   6
   1  -5  -4 3.25617 1.26885   7
  -1   5   4 3.84932 1.45633  16
   1   5  -4 4.45073 1.39358   4
   1   5  -4 4.89206 1.35975  13
   1   5  -4 5.86058 1.59599  14
  -1   5   4 3.38840 1.40708   3
   1   5  -4 6.10681 1.01904  10
   1   5  -4 5.77778 1.21839  11
  -1   5   4 3.02217 1.86509  12
   1  -5   4 59.8337 4.26021   3
  -1  -5  -4 58.6586 4.01599   2
  -1  -5  -4 55.8456 3.75001   6
  -1   5  -4 56.6064 2.59746  11
   1   5   4 48.7089 3.01349   3
   1   5   4 59.0376 4.56577  12
   1   5   4 52.4331 3.79983  16
   1   5   4 52.7249 4.68396   5
  -1   5  -4 58.5646 4.20008  14
  -1   5  -4 67.4148 4.14083   4
   3  -5   4 114.658 6.71692   1
  -3  -5  -4 111.437 5.93504  14
  -3  -5  -4 113.750 6.48563   2
   3  -5   4 106.456 5.19802   9
  -3  -5  -4 116.498 5.63346   6
  -3   5  -4 126.783 7.26316   2
   3   5   4 105.336 4.90228  11
  -3   5  -4 106.188 5.16565   4
  -3   5  -4 108.837 6.06541  14
   3   5   4 111.359 5.36305  16
   3   5   4 111.991 6.29323  12
   3   5   4 108.561 6.53354   5
   5  -5   4 100.113 5.71245   9
  -5  -5  -4 98.3091 5.76003   6
   5  -5   4 103.419 7.98511   1
  -5  -5  -4 88.5841 7.16987   2
  -5   5  -4 97.5088 6.92113  14
  -5   5  -4 101.788 7.98085   2
   5   5   4 96.0788 7.00863  12
   5   5   4 94.0875 7.10272   5
  -7  -5  -4 3.39721 3.45939   2
   7  -5   4 10.8468 4.11895   1
   7   5   4 6.65450 2.60079   5
   7   5   4 7.80990 3.58059  12
  -7   5  -4 0.45870 4.42369   2
  -7   5  -4 5.45235 3.29110  14
  10  -6  -4 720.382 23.8075   1
 -10  -6   4 725.285 20.3423   6
 -10  -6   4 729.165 23.1990  15
  10   6  -4 751.379 22.2977   5
 -10   6   4 757.454 24.4457  15
   8  -6  -4 653.357 20.2998   1
  -8  -6   4 617.748 17.1317   2
  -8  -6   4 624.545 18.9477   8
  -8  -6   4 633.092 19.3675  15
   8  -6  -4 638.674 16.1530   7
   8  -6  -4 616.875 15.6548   9
   8   6  -4 614.699 15.8801  11
  -8   6   4 617.925 17.9460   2
   8   6  -4 637.958 18.4202   5
  -8   6   4 648.782 19.9281  15
   6  -6  -4 948.005 23.8830   1
  -6  -6   4 956.524 23.4238   8
   6  -6  -4 933.611 20.8065   9
  -6  -6   4 970.029 23.5112  15
   6  -6  -4 965.839 21.0883   7
   6   6  -4 944.079 20.7470  11
  -6   6   4 937.492 20.7674  16
   6   6  -4 964.628 22.1749   5
   6   6  -4 920.914 19.8614   4
  -4  -6   4 1519.86 28.3450   9
   4  -6  -4 1496.04 29.4699   6
   4  -6  -4 1540.76 30.1423   7
  -4  -6   4 1506.95 31.5787  15
   4  -6  -4 1546.70 32.0786   1
  -4  -6   4 1533.77 32.0611   8
   4  -6  -4 1530.88 30.1276   9
   4   6  -4 1517.94 29.8770  11
   4   6  -4 1552.51 30.1884   4
   4   6  -4 1537.82 30.0555   5
  -4   6   4 1546.51 31.1702  16
  -2  -6   4 3477.12 63.4115   8
   2  -6  -4 3521.96 61.3917   7
  -2  -6   4 3375.19 60.8930   3
   2  -6  -4 3414.29 60.0328  10
   2  -6  -4 3425.44 61.1353   9
  -2  -6   4 3401.15 61.9594  15
  -2  -6   4 3471.36 60.7589   9
   2  -6  -4 3453.52 61.6860   6
   2   6  -4 3466.75 60.8094  11
   2   6  -4 3340.08 59.6013   5
   2   6  -4 3528.38 62.0773   4
  -2   6   4 3443.51 62.5624  12
  -2   6   4 3507.18 63.1593  16
   0  -6   4 3413.73 62.4615   8
   0  -6   4 3387.53 60.5502   9
   0  -6   4 3406.14 61.0884   3
   0  -6   4 3295.38 60.1517   1
   0  -6  -4 3439.22 61.2730   6
   0   6  -4 3406.81 61.0812   4
   0   6   4 3431.88 62.1887  16
   0   6  -4 3349.92 61.3583  14
   0   6   4 3295.22 61.8057  12
   0   6  -4 3312.09 58.8687  11
   0   6   4 3433.91 63.5157   5
  -2  -6  -4 1234.74 26.3461   6
   2  -6   4 1256.24 26.1085   9
  -2  -6  -4 1214.50 27.1767   2
   2  -6   4 1236.96 27.4366   3
   2  -6   4 1230.72 27.4024   1
   2   6   4 1241.86 26.6862  16
   2   6   4 1209.69 27.2665  12
   2   6   4 1232.83 25.8181  11
  -2   6  -4 1239.69 25.7765   4
   2   6   4 1232.32 28.6250   5
  -2   6  -4 1227.78 26.9326  14
   4  -6   4 746.752 18.6310   9
  -4  -6  -4 728.801 18.4663   6
  -4  -6  -4 734.453 20.3105   2
   4  -6   4 741.308 21.5769   1
   4   6   4 709.682 17.3125  11
   4   6   4 738.500 20.1906  16
  -4   6  -4 745.160 21.7328   2
   4   6   4 712.097 20.7927   5
   4   6   4 732.079 19.9640  12
  -4   6  -4 740.336 19.7031  14
  -4   6  -4 700.921 17.2076   4
   6  -6   4 506.784 15.1950   9
   6  -6   4 536.788 19.8475   1
  -6  -6  -4 514.776 17.8533   2
   6   6   4 509.078 17.0881  12
   6   6   4 541.008 18.0035   5
  -6   6  -4 502.022 18.9006   2
  -6   6  -4 522.754 17.1741  14
   9  -7  -4 11.0533 4.21027   1
  -9  -7   4 18.4029 3.57749   6
  -9  -7   4 18.3558 4.91507  15
  -9   7   4 7.23992 4.22098  15
   9   7  -4 19.1900 3.32789  11
   9   7  -4 18.3206 4.13758   5
   7  -7  -4 117.765 5.95792   7
  -7  -7   4 112.095 7.36051   8
   7  -7  -4 123.531 6.28110   9
   7  -7  -4 131.816 8.30555   1
  -7  -7   4 125.602 8.10231  15
   7   7  -4 125.259 7.19481   5
   7   7  -4 124.154 6.33327  11
  -7   7   4 117.025 6.99810   2
   5  -7  -4 49.9797 3.95448   9
   5  -7  -4 40.7015 3.15265   6
   5  -7  -4 42.7698 3.31914   7
  -5  -7   4 47.5150 5.19059  15
  -5  -7   4 43.6399 4.65921   8
   5  -7  -4 48.6935 5.22650   1
  -5   7   4 44.5049 3.86663  16
   5   7  -4 55.7535 4.15586   4
   5   7  -4 51.7374 4.18688  11
   5   7  -4 46.0987 3.96187   5
   3  -7  -4 197.836 7.89566   1
   3  -7  -4 195.318 7.03598   6
  -3  -7   4 190.914 8.09553   8
   3  -7  -4 194.402 7.08939   7
   3  -7  -4 191.579 6.97346   9
  -3  -7   4 190.149 7.64746  15
  -3  -7   4 190.085 6.43451   9
  -3   7   4 189.428 7.58754  12
   3   7  -4 189.517 7.27102   4
   3   7  -4 196.578 6.48353   5
   3   7  -4 190.730 6.90455  11
   1  -7  -4 63.8033 3.47765  10
  -1  -7   4 65.2776 4.52317   8
   1  -7  -4 63.4142 3.80078   9
   1  -7  -4 62.2454 4.26561   6
  -1  -7   4 66.1287 4.27189   3
  -1  -7   4 58.8349 3.77893   9
   1   7  -4 60.2552 3.70197  11
   1   7  -4 64.1157 4.34467  14
  -1   7   4 63.5366 4.67298  16
  -1   7   4 67.5808 4.74198  12
  -1   7   4 54.9265 4.52510   5
   1   7  -4 62.0453 4.63988   4
   1  -7   4 48.0102 3.90212   3
  -1  -7  -4 47.9256 4.07665   6
   1  -7   4 39.8121 3.54599   1
   1  -7   4 44.5726 3.82928   9
  -1   7  -4 50.8170 4.60782   4
   1   7   4 54.8376 5.21332  12
  -1   7  -4 38.4189 2.59228  11
   1   7   4 47.0891 5.29019   5
   1   7   4 48.0586 4.10623  16
  -1   7  -4 49.1790 4.30240  14
  -3  -7  -4 5.38905 2.39983   6
   3  -7   4 6.87666 2.04709   9
   3  -7   4 4.67456 2.38357   1
  -3  -7  -4 5.70686 2.22474   2
   3   7   4 9.75493 3.67082   5
   3   7   4 3.94756 2.71684  12
   3   7   4 6.90842 2.20227  11
   3   7   4 10.3441 2.16930  16
  -3   7  -4 5.95726 2.43177   4
  -3   7  -4 6.89337 2.43173  14
  -5  -7  -4 116.076 6.95493   6
   5  -7   4 125.041 8.98064   1
  -5  -7  -4 128.862 8.06013   2
   5  -7   4 125.651 7.11521   9
  -5   7  -4 114.262 7.39577  14
   5   7   4 128.710 8.08716  12
  -5   7  -4 114.777 9.03615   2
   5   7   4 109.647 8.37315   5
   7  -7   4 22.0184 5.47823   1
  -7  -7  -4 9.22256 3.25447   2
   7   7   4 14.5180 3.98165  12
  -7   7  -4 10.8208 4.09050  14
  -7   7  -4 25.9256 6.57793   2
   7   7   4 3.38988 3.55421   5
 -10  -8   4 21.2744 4.47404   6
 -10  -8   4 27.5970 5.89978  15
  10  -8  -4 24.2216 5.96457   1
 -10   8   4 27.3521 6.04786  15
  10   8  -4 19.1932 4.50159   5
  -8  -8   4 146.754 8.60014   6
   8  -8  -4 152.842 7.25883   7
   8  -8  -4 155.889 7.60674   9
  -8  -8   4 165.207 9.37291  15
   8  -8  -4 145.732 9.92060   1
   8   8  -4 146.318 8.35346   5
   8   8  -4 181.044 8.17436  11
  -6  -8   4 843.045 22.7876  15
  -6  -8   4 832.784 22.0784   8
   6  -8  -4 880.079 20.9602   9
   6  -8  -4 881.297 23.6926   1
   6  -8  -4 879.810 20.6375   7
   6   8  -4 877.865 21.6447   5
   6   8  -4 838.292 19.8883   4
   6   8  -4 886.854 20.9788  11
  -4  -8   4 206.676 8.74990  15
   4  -8  -4 190.409 7.65460   9
   4  -8  -4 200.102 7.49802   6
   4  -8  -4 201.605 8.81624   1
   4  -8  -4 197.073 7.68277   7
  -4  -8   4 209.173 8.91152   8
  -4   8   4 204.448 8.32752  12
   4   8  -4 194.614 7.52781   5
   4   8  -4 203.833 7.96953   4
   4   8  -4 214.028 8.11055  11
  -2  -8   4 182.350 8.16703   8
  -2  -8   4 184.692 7.11210   6
   2  -8  -4 181.476 7.38248   6
  -2  -8   4 186.487 6.94396   9
   2  -8  -4 181.036 7.17654   9
  -2   8   4 177.415 7.57655  12
   2   8  -4 184.273 7.08455  11
  -2   8   4 175.426 8.54985   5
   2   8  -4 189.824 7.94122   4
   0  -8  -4 398.664 12.2856   6
   0  -8   4 389.422 11.7443   9
   0  -8  -4 371.536 10.6715  10
   0   8  -4 403.084 12.4733  14
   0   8  -4 411.369 12.3471   4
   0   8   4 372.576 11.9728  12
   0   8   4 401.777 13.9454   5
   0   8   4 379.881 12.7706  16
   0   8  -4 397.353 10.3955  11
  -2  -8  -4 99.8800 6.31697   6
   2  -8   4 106.054 5.97092   9
   2  -8   4 99.1661 6.13085   1
   2   8   4 93.2296 6.10303  16
   2   8   4 111.927 6.70295  12
   2   8   4 99.6787 7.88551   5
  -2   8  -4 115.789 7.11790  14
  -2   8  -4 111.116 6.43301   4
   2   8   4 99.3379 6.09595  11
  -4  -8  -4 444.663 14.6451   6
  -4  -8  -4 454.203 15.9068   2
   4  -8   4 457.454 16.4052   1
   4  -8   4 455.846 14.6155   9
   4   8   4 440.561 13.6935  11
  -4   8  -4 462.998 15.6251  14
  -4   8  -4 449.703 17.0533   2
   4   8   4 462.797 15.0623  12
   4   8   4 459.807 17.0309   5
  -6  -8  -4 257.029 12.7908   2
   6  -8   4 264.684 11.0531   9
   6  -8   4 273.131 14.0286   1
  -6   8  -4 272.558 12.5439  14
  -6   8  -4 262.076 14.2015   2
   6   8   4 273.575 13.3689   5
   6   8   4 261.331 11.9610  12
   9  -9  -4 734.629 24.0882   1
  -9  -9   4 720.951 21.7318   6
  -9  -9   4 731.320 22.9203  15
   9   9  -4 755.507 19.8496  11
   9   9  -4 741.726 22.2499   5
  -9   9   4 744.275 24.1678  15
   7  -9  -4 752.246 19.7280   9
  -7  -9   4 754.300 21.7984  15
   7  -9  -4 737.395 18.7539   7
  -7  -9   4 754.512 21.1254   6
   7  -9  -4 771.799 22.8881   1
   7   9  -4 731.893 20.5968   5
   7   9  -4 797.516 19.7532  11
  -5  -9   4 1069.29 25.6519   8
   5  -9  -4 1076.23 24.1528   7
  -5  -9   4 1091.90 26.3140  15
  -5  -9   4 1056.00 25.2791   6
   5  -9  -4 1062.42 24.6386   9
   5  -9  -4 1079.37 26.5378   1
   5   9  -4 1053.05 24.4518   4
   5   9  -4 1059.07 24.4178  11
  -5   9   4 1029.24 25.5660  16
  -3  -9   4 1240.09 26.1905   9
  -3  -9   4 1271.88 28.7635   8
  -3  -9   4 1284.78 27.6566   6
   3  -9  -4 1265.07 27.3226   9
   3  -9  -4 1242.55 27.0361   6
   3   9  -4 1240.22 26.9446  11
  -3   9   4 1255.24 29.3867   5
   3   9  -4 1232.98 27.9488   4
  -1  -9   4 155.016 7.10303   9
  -1  -9   4 173.726 7.13958   6
   1  -9  -4 163.819 7.00676   9
   1  -9  -4 175.762 7.91496   6
  -1  -9   4 176.571 8.39917   8
   1   9  -4 159.308 6.55126  11
  -1   9   4 153.137 8.89036   5
   1   9  -4 163.537 8.05169   4
  -1  -9  -4 784.010 18.9781  10
   1  -9   4 786.095 20.0106   9
  -1  -9  -4 783.796 20.5521   6
  -1   9  -4 800.116 21.0898  14
   1   9   4 796.791 21.2777  16
   1   9   4 783.144 22.6283   5
   1   9   4 794.515 20.4278  11
  -1   9  -4 807.841 20.5294   4
   3  -9   4 1511.17 33.4413   9
  -3  -9  -4 1437.65 33.1683   6
  -3   9  -4 1484.19 32.2003   4
   3   9   4 1446.38 32.2270  11
   3   9   4 1461.51 35.8123   5
  -3   9  -4 1510.25 34.3550  14
   5  -9   4 399.088 14.3418   9
  -5  -9  -4 433.987 16.2855   2
  -5  -9  -4 393.459 14.2901   6
   5  -9   4 373.463 15.9547   1
   5   9   4 384.447 15.8318   5
   5   9   4 367.174 14.4653  11
  -5   9  -4 418.394 15.6188  14
  -5   9  -4 423.820 17.1993   2
   8 -10  -4 146.306 10.0790   1
  -8 -10   4 136.613 9.14054   6
  -8 -10   4 146.981 9.41787  15
   8 -10  -4 143.215 8.02219   9
   8  10  -4 157.509 7.97153  11
   6 -10  -4 14.3577 3.25234   9
   6 -10  -4 10.9656 3.45880   1
  -6 -10   4 17.0725 4.04832  15
  -6 -10   4 10.1968 3.27916   6
   6  10  -4 10.4251 2.94097   5
   6  10  -4 15.3857 3.67015  11
   6  10  -4 16.1694 3.28598   4
   4 -10  -4 277.793 10.4056   9
  -4 -10   4 279.060 11.0314   6
   4 -10  -4 299.080 10.1961   6
  -4  10   4 282.985 10.4354  11
  -4  10   4 294.965 12.1408   5
  -4  10   4 282.772 11.7048  16
   4  10  -4 330.639 11.8224   4
   4  10  -4 301.593 10.8516  11
   2 -10  -4 57.0202 5.35028   6
  -2 -10   4 56.2184 5.12969   8
  -2 -10   4 46.6675 4.59298   6
  -2 -10   4 48.4136 4.61788   9
   2 -10  -4 55.8937 4.69591   9
   2  10  -4 52.2739 5.55741   4
  -2  10   4 52.5394 6.04591   5
  -2  10   4 58.8343 5.69565  11
   2  10  -4 60.0844 4.47551  11
   0 -10   4 5.02523 2.33320   9
   0 -10  -4 7.78795 2.77621   6
   0  10  -4 4.99789 2.64646  14
   0  10  -4 5.28800 2.97355   4
   0  10   4 2.95480 1.82304  11
   0  10  -4 6.78449 2.07456  11
   0  10   4 3.25454 3.28976   5
   0  10   4 6.42460 2.52071  16
   2 -10   4 275.605 11.4245   9
  -2 -10  -4 284.194 11.7948   6
   2  10   4 300.926 13.7075   5
  -2  10  -4 286.742 12.3193  14
   2  10   4 300.020 11.5447  11
  -2  10  -4 295.649 11.7186   4
  -4 -10  -4 68.8727 6.16443  10
  -4 -10  -4 61.6220 6.56380   6
   4 -10   4 57.9685 6.07884   9
   4  10   4 76.5699 7.34365   5
   4  10   4 63.3134 5.95855  11
  -4  10  -4 72.6714 8.54099   2
  -4  10  -4 61.5468 7.18568  14
  -7 -11   4 60.3828 6.89111  15
   7 -11  -4 41.7925 4.93998   9
   7 -11  -4 50.5945 6.73890   1
  -7 -11   4 51.5852 6.27571   6
   7  11  -4 52.9510 5.91549  11
   7  11  -4 44.1158 5.31515   5
   5 -11  -4 7.49280 2.97197   9
  -5 -11   4 0.68354 2.61434   6
   5  11  -4 10.8302 3.34202   4
   5  11  -4 3.28554 2.86978  11
  -3 -11   4 365.725 12.8588   6
   3 -11  -4 350.460 12.0698   6
   3 -11  -4 380.647 12.6963   9
   3  11  -4 376.228 13.6879   4
  -3  11   4 351.578 12.8359  11
   3  11  -4 359.904 12.3684  11
   1 -11  -4 77.8953 5.59663   9
   1 -11  -4 85.6885 6.36732   6
  -1 -11   4 87.9992 6.05654   9
  -1  11   4 85.3833 7.63507   5
  -1  11   4 81.1938 6.01353  11
   1  11  -4 88.6828 5.30732  11
   1  11  -4 86.1901 7.06631   4
   1  11  -4 88.1091 6.73169  14
   1 -11   4 95.5179 6.74462   9
  -1 -11  -4 95.6924 7.02389   6
  -1  11  -4 88.4235 6.72487  14
  -1  11  -4 100.558 7.70879   4
   1  11   4 97.1434 7.09898  11
   1  11   4 97.5515 8.58810   5
  -3 -11  -4 43.4302 5.71684   6
   3 -11   4 40.2315 5.25665   9
   3  11   4 31.1631 4.86355  11
   3  11   4 30.4996 5.80268   5
  -3  11  -4 24.2448 4.37462   4
  -3  11  -4 33.1334 5.41730  14
  -6 -12   4 418.959 15.7231   6
   6 -12  -4 428.262 14.7697   9
   6  12  -4 436.604 14.8682  11
  -4 -12   4 102.318 7.50059   6
   4 -12  -4 125.003 7.60700   9
  -4  12   4 120.780 7.41066  11
   4  12  -4 124.232 7.62327  11
   4  12  -4 109.534 7.74555   4
  -2 -12   4 205.871 9.16559   9
   2 -12  -4 212.238 9.40269   9
   2 -12  -4 201.113 9.54055   6
  -2  12   4 217.856 10.2597  11
   2  12  -4 216.342 10.7540   4
   2  12  -4 188.912 8.82234  11
   0 -12  -4 414.573 14.8327   6
   0 -12   4 429.371 14.5978   9
   0  12  -4 406.736 14.8541   4
   0  12  -4 415.224 15.4656  14
   0  12   4 420.102 15.0258  11
  -2 -12  -4 76.6594 7.31064   6
   2 -12   4 58.3754 6.60975   9
   2  12   4 61.1805 6.61391  11
  -2  12  -4 59.6121 6.93012  14
   2  12   4 63.7214 7.00622   5
  -2  12  -4 59.5442 6.08566   4
  -3 -13   4 20.5185 4.38908   6
   3 -13  -4 14.5977 3.59503   9
   3  13  -4 21.6792 4.15223  14
  -3  13   4 15.4745 3.79292  11
   3  13  -4 27.4861 4.48460  11
   3  13  -4 25.4571 4.93178   4
   1 -13  -4 294.857 12.4370   6
   1  13  -4 306.901 12.9233  14
   1  13  -4 308.887 13.0247   4
  -1  13   4 314.026 12.8421  11
 -12   0   5 -3.7108 4.79304  15
 -12   0   5 0.05965 4.12796   8
  10   0  -5 -0.6388 1.74818   1
  10   0  -5 0.15055 1.77728   7
 -10   0   5 -3.3006 3.05764   8
 -10   0   5 -3.7167 3.41101  15
  -8   0   5 4.25229 2.93197  15
  -8   0   5 0.73174 1.86170   8
   8   0  -5 1.06029 1.48882   1
   8   0  -5 1.51467 1.32336   7
   6   0  -5 1.07287 1.13216   7
   6   0  -5 -1.2070 0.80947   1
   6   0  -5 0.45158 0.85793  11
  -6   0   5 0.84024 0.83998  16
  -6   0   5 2.08343 1.87443  15
  -6   0   5 3.56673 2.22346   8
   4   0  -5 1.68580 0.95625  11
   4   0  -5 5.14570 0.64237  14
  -4   0   5 -0.9782 1.50313   8
  -4   0   5 1.71657 0.97773  16
  -4   0   5 1.79969 1.77177   3
  -4   0   5 4.54403 1.90373  13
  -4   0   5 3.16300 1.45684  15
   4   0  -5 3.85574 1.02501   7
   4   0  -5 2.61594 0.97205   4
   4   0  -5 2.81534 1.08393  10
   2   0  -5 0.61341 0.59466  10
   2   0  -5 0.19408 0.70638  14
  -2   0   5 0.64705 1.03704  12
  -2   0   5 0.68206 0.71569  16
  -2   0   5 0.50244 1.54997   3
  -2   0   5 2.66457 1.34460   8
  -2   0   5 0.28932 1.09214  13
   2   0  -5 0.41301 0.85235   4
   2   0  -5 -0.0358 0.47951   7
   0   0  -5 0.56530 0.38492   7
   0   0  -5 2.25328 1.09491   4
   0   0   5 -0.1862 1.38200  12
   0   0  -5 2.25462 0.81309   6
   0   0  -5 3.25171 1.29436   2
   0   0   5 0.99579 0.80953  16
   0   0  -5 1.11852 0.90698  10
   0   0  -5 1.43202 1.24369  14
   0   0   5 0.92428 1.65536   3
   2   0   5 2.01013 1.89053   3
  -2   0  -5 2.06259 1.63937  14
   2   0   5 1.01103 1.22382   5
   2   0   5 0.35253 1.68271  12
   2   0   5 0.29212 1.04878  16
  -2   0  -5 1.12653 1.09883   4
  -2   0  -5 -1.0016 0.99463  10
  -2   0  -5 0.92707 0.63995   6
  -2   0  -5 -0.5958 1.13993   2
   4   0   5 2.15188 2.32702   3
   4   0   5 0.92049 1.44986  12
  -4   0  -5 1.04162 1.83463  15
  -4   0  -5 -2.7070 2.12122   2
  -4   0  -5 3.15782 1.69553  10
  -4   0  -5 3.67094 2.28709  14
   6   0   5 0.59671 2.61961  12
  -6   0  -5 1.48918 3.41345   2
  -6   0  -5 1.73259 2.02801  10
  -6   0  -5 -0.2641 2.33590  14
  -8   0  -5 3.34972 3.96926   2
   8   0   5 4.64741 3.19832  12
   8   0   5 -3.1962 3.02209   1
 -11  -1   5 3.54949 4.56200  15
 -11  -1   5 5.87453 4.61834   8
  11  -1  -5 5.92807 2.91449   1
  11  -1  -5 1.91997 2.04146   7
  11   1  -5 4.41203 2.27403   7
 -11   1   5 0.53228 4.45840  15
 -11   1   5 -0.0619 2.55359   8
  -9  -1   5 65.9663 6.74951  15
  -9  -1   5 66.8351 7.41683   8
   9  -1  -5 57.2873 5.15421   1
   9  -1  -5 57.3822 4.35471   7
   9   1  -5 66.9519 4.60819   7
   9   1  -5 58.8457 3.81808  11
  -9   1   5 58.3363 7.20532   8
  -9   1   5 71.4913 7.33387  15
   9   1  -5 42.4748 5.19325   1
   7  -1  -5 366.852 11.4923   1
   7  -1  -5 379.556 10.4517   7
  -7  -1   5 362.638 13.0005   8
  -7  -1   5 388.162 12.2792  15
   7   1  -5 353.497 10.3866   1
   7   1  -5 361.739 9.78115  11
  -7   1   5 348.406 12.9585   8
  -7   1   5 368.397 11.9208  15
   7   1  -5 381.158 10.2990   7
   5  -1  -5 1637.06 40.1237  13
   5  -1  -5 1700.20 31.8938   7
   5  -1  -5 1720.01 31.7151  10
  -5  -1   5 1697.28 32.8149  15
   5  -1  -5 1746.60 33.2127   1
  -5  -1   5 1744.90 34.7787   8
  -5  -1   5 1678.41 31.2551  16
   5   1  -5 1718.20 30.9251   4
  -5   1   5 1742.86 31.3199  16
   5   1  -5 1714.90 31.6259  11
   5   1  -5 1672.50 39.9880  13
   5   1  -5 1700.99 31.8037   1
  -5   1   5 1684.20 40.4071  13
  -5   1   5 1721.10 34.4937   8
  -5   1   5 1711.22 32.3206  15
  -3  -1   5 533.973 13.3054   8
   3  -1  -5 530.562 11.5010   7
  -3  -1   5 526.178 16.1266  13
  -3  -1   5 532.481 12.0065  16
  -3  -1   5 541.245 13.7189   3
   3  -1  -5 540.100 11.9756  10
   3  -1  -5 528.813 10.9213  14
   3  -1  -5 535.734 11.7510   4
  -3  -1   5 526.274 11.2647  15
   3   1  -5 524.371 10.7364  14
  -3   1   5 517.893 12.6892   8
   3   1  -5 533.558 11.5486  11
  -3   1   5 550.459 12.1087  16
   3   1  -5 542.858 16.4780  13
  -3   1   5 551.672 13.8245   3
   3   1  -5 531.107 11.8705  10
   3   1  -5 537.482 11.6673   4
  -3   1   5 511.015 10.3512  15
  -3   1   5 533.918 16.9912  13
   3   1  -5 535.162 11.1407   7
   1  -1  -5 164.766 5.45669  10
   1  -1  -5 168.884 4.59932   7
  -1  -1   5 169.780 7.26645  13
   1  -1  -5 167.187 5.45792   4
  -1  -1   5 169.373 5.89989  12
  -1  -1   5 159.449 5.59448  16
  -1  -1   5 162.535 6.60557   3
   1  -1  -5 169.525 5.46836  14
   1  -1  -5 169.079 5.07962   6
   1  -1  -5 165.213 4.57031   2
  -1  -1   5 155.287 5.62324   8
  -1   1   5 165.566 5.55448  16
   1   1  -5 163.742 5.37055  10
  -1   1   5 168.122 6.47682   3
   1   1  -5 162.805 4.15029   7
   1   1  -5 158.756 4.68371   2
   1   1  -5 166.016 5.36537   4
  -1   1   5 164.870 5.15067   8
   1   1  -5 165.102 5.35970  14
  -1   1   5 157.963 6.07488  12
  -1  -1  -5 41.9729 2.88890  10
  -1  -1  -5 37.4577 2.26047  15
   1  -1   5 38.5570 3.67700  12
   1  -1   5 40.6236 4.13748   3
   1  -1   5 39.9077 2.47402   5
   1  -1   5 36.1691 2.93621  16
  -1  -1  -5 39.0261 3.35649  14
  -1  -1  -5 42.3459 2.88600   4
  -1  -1  -5 44.7990 2.49601   6
  -1  -1  -5 36.5241 2.85659   2
  -1   1  -5 38.9979 2.81624  10
  -1   1  -5 37.5475 3.21072   2
  -1   1  -5 40.4146 2.88822   4
  -1   1  -5 41.2176 3.54824  14
   1   1   5 40.2484 4.13879  12
   1   1   5 42.2704 3.05196  16
   1   1   5 39.8286 3.77222   3
   1   1   5 35.2987 2.99114   5
  -3  -1  -5 345.691 11.0822   2
   3  -1   5 363.339 11.2976  12
   3  -1   5 332.159 9.55076  16
  -3  -1  -5 335.594 10.7317  14
  -3  -1  -5 327.194 9.69994  15
  -3  -1  -5 336.173 10.3199  10
   3  -1   5 338.041 11.7782   3
  -3   1  -5 338.382 10.8291  14
   3   1   5 327.353 11.2976   3
  -3   1  -5 344.202 11.4699   2
   3   1   5 331.256 9.39013  16
  -3   1  -5 334.417 9.77616  10
   3   1   5 341.734 11.5508  12
  -3   1  -5 336.689 9.17665   4
   3   1   5 321.567 10.0997   5
   5  -1   5 429.616 14.0808  12
  -5  -1  -5 430.808 13.6312  14
  -5  -1  -5 423.901 13.2533  10
  -5  -1  -5 406.068 14.5098   2
   5   1   5 436.400 14.6699  12
  -5   1  -5 411.649 12.5711  10
  -5   1  -5 406.767 14.1360  15
  -5   1  -5 423.861 13.7428  14
  -5   1  -5 402.842 14.9491   2
  -7  -1  -5 266.426 11.1623  14
   7  -1   5 269.835 12.3051  12
   7  -1   5 269.849 13.8754   1
  -7  -1  -5 266.301 12.7154   2
  -7  -1  -5 254.949 11.1553  10
  -7   1  -5 266.090 13.4930   2
  -7   1  -5 237.576 11.0321  14
   7   1   5 280.064 12.6986  12
  12  -2  -5 222.204 11.7547   1
 -12  -2   5 207.602 13.2094   8
 -12  -2   5 208.378 13.0210  15
 -12   2   5 214.980 13.3557   8
 -12   2   5 212.855 13.3564  15
  10  -2  -5 872.370 21.4731   7
  10  -2  -5 880.851 24.5427   1
 -10  -2   5 912.478 26.8440   8
 -10  -2   5 899.481 25.3632  15
 -10   2   5 889.337 27.4969   8
 -10   2   5 914.963 26.0216  15
  10   2  -5 923.423 21.9793   7
  -8  -2   5 573.297 17.1421  15
  -8  -2   5 561.610 18.0906   8
   8  -2  -5 601.260 14.9569   7
   8  -2  -5 567.077 16.7625   1
   8   2  -5 603.310 14.2287  11
  -8   2   5 569.442 18.5911   8
  -8   2   5 566.155 17.0053  15
  -6  -2   5 628.521 13.7064  16
   6  -2  -5 642.767 16.2298   1
  -6  -2   5 632.593 17.3525   8
  -6  -2   5 677.045 16.3391  15
   6  -2  -5 645.830 14.8101   7
   6   2  -5 625.323 13.9514   1
  -6   2   5 650.819 17.4843   8
  -6   2   5 622.798 13.4333  16
   6   2  -5 644.632 14.3468  11
  -6   2   5 616.441 15.5493  15
   6   2  -5 619.396 13.1415   4
  -4  -2   5 2297.81 42.0694  15
  -4  -2   5 2283.06 43.7400   3
  -4  -2   5 2351.05 44.2439   8
  -4  -2   5 2360.90 41.8348  16
   4  -2  -5 2357.89 43.0353   1
   4  -2  -5 2317.85 41.6906   7
   4  -2  -5 2319.69 41.4490  10
   4   2  -5 2305.23 41.3490  11
   4   2  -5 2344.12 41.7778  10
  -4   2   5 2249.41 40.8818  15
  -4   2   5 2306.18 43.2879   8
  -4   2   5 2359.30 41.7529  16
   4   2  -5 2340.88 48.9942  13
   4   2  -5 2199.38 39.3918  14
  -4   2   5 2271.09 49.8129  13
   4   2  -5 2300.96 41.2008   4
   2  -2  -5 1217.68 22.9940   7
  -2  -2   5 1082.36 24.8269   3
  -2  -2   5 1232.36 24.0140  16
   2  -2  -5 1193.14 23.2627  14
  -2  -2   5 1184.61 23.4334  12
  -2  -2   5 1234.37 24.8612   8
   2  -2  -5 1198.40 23.2719   6
   2  -2  -5 1227.63 23.6368  10
  -2  -2   5 1210.32 27.0103  13
  -2  -2   5 1205.25 22.6517  15
  -2   2   5 1211.89 29.9326  13
  -2   2   5 1243.77 25.3568   3
   2   2  -5 1289.89 23.0225  11
  -2   2   5 1253.99 25.0769  12
   2   2  -5 1253.77 27.3980  13
   2   2  -5 1237.36 23.4222  10
   2   2  -5 1235.50 23.4764   4
  -2   2   5 1196.30 23.1498   8
   2   2  -5 1229.99 22.9877  14
  -2   2   5 1263.02 24.1717  16
   0  -2   5 1832.65 34.7128   8
   0  -2  -5 1834.49 33.3832   6
   0  -2  -5 1790.01 34.3087  14
   0  -2  -5 1806.96 33.5494   2
   0  -2   5 1786.29 34.9516  13
   0  -2  -5 1794.09 32.2275   7
   0  -2  -5 1873.03 34.3663  10
   0  -2   5 1847.23 34.1757  12
   0  -2   5 1827.83 34.3092  16
   0  -2   5 1844.04 35.7924   3
   0   2   5 1759.55 31.9878   8
   0   2  -5 1787.26 34.0290  14
   0   2  -5 1794.90 33.9424   2
   0   2   5 1841.13 35.2152   5
   0   2  -5 1855.80 33.7733   4
   0   2  -5 1811.76 33.4422  10
   0   2  -5 1823.53 32.2350  11
   0   2   5 1824.66 34.2380  16
   0   2   5 1814.18 35.1863   3
   0   2   5 1820.30 35.6251  12
  -2  -2  -5 1680.32 33.5056   2
   2  -2   5 1699.76 33.3107  12
   2  -2   5 1699.60 35.0855   3
  -2  -2  -5 1683.81 33.4819  14
  -2  -2  -5 1672.02 31.3842   6
   2  -2   5 1695.34 32.6580  16
  -2  -2  -5 1691.32 33.2269  10
   2   2   5 1685.33 32.4143  16
  -2   2  -5 1655.47 31.8482   4
   2   2   5 1665.08 34.0117   3
   2   2   5 1724.93 34.8736  12
   2   2   5 1674.50 33.7992   5
  -2   2  -5 1674.15 32.0648  10
  -2   2  -5 1707.42 33.6220  14
  -2   2  -5 1650.60 33.9378   2
  -4  -2  -5 343.546 12.0797   2
   4  -2   5 306.657 12.1025   3
  -4  -2  -5 308.490 10.8300  14
   4  -2   5 324.192 11.1381  12
  -4   2  -5 326.954 12.4913   2
   4   2   5 311.433 11.3325   3
  -4   2  -5 324.976 11.2891  14
   4   2   5 320.795 11.9635  12
   4   2   5 295.555 10.5340   5
  -4   2  -5 317.776 9.72442  10
   6  -2   5 451.194 15.1032  12
  -6  -2  -5 461.812 16.1296   2
  -6  -2  -5 423.936 14.4428  14
   6  -2   5 450.980 17.2606   1
  -6   2  -5 425.916 16.0688   2
  -6   2  -5 408.490 14.1634  14
  -6   2  -5 430.683 15.9349  15
   6   2   5 423.655 15.3470  12
   8  -2   5 382.127 17.6949   1
  -8  -2  -5 366.454 14.0632  10
  -8  -2  -5 374.913 15.7874   2
  -8   2  -5 271.191 14.4509  14
   8   2   5 366.383 16.1780   1
  -8   2  -5 350.125 16.1937   2
   8   2   5 303.454 15.6719  12
 -11  -3   5 117.445 10.0491   8
 -11  -3   5 108.279 8.66877  15
  11  -3  -5 100.554 8.38028   1
  11   3  -5 106.557 6.65013   7
 -11   3   5 112.593 9.98007  15
 -11   3   5 116.309 10.5251   8
   9  -3  -5 130.429 6.49598   7
  -9  -3   5 140.872 8.96459  15
  -9  -3   5 140.792 9.34884   8
   9  -3  -5 136.540 8.27575   1
  -9   3   5 142.419 10.0062   8
  -9   3   5 136.747 9.01238  15
   9   3  -5 138.666 6.09550  11
  -7  -3   5 320.996 12.1901   8
  -7  -3   5 312.097 11.2362  15
   7  -3  -5 300.727 9.40196   7
   7  -3  -5 304.200 11.0772   1
   7   3  -5 311.746 9.07464  11
  -7   3   5 316.540 12.4592   8
   7   3  -5 296.115 10.2642   5
  -7   3   5 310.596 10.8943  15
   5  -3  -5 62.9576 3.16897  10
   5  -3  -5 68.1403 4.46718   1
  -5  -3   5 66.8241 4.82398   8
  -5  -3   5 67.3429 4.54451   3
  -5  -3   5 65.0998 4.32461  15
  -5  -3   5 69.4422 3.62949  16
   5  -3  -5 79.3075 3.97755   7
   5   3  -5 71.6928 3.46999   4
  -5   3   5 61.3840 3.79755  15
   5   3  -5 72.5579 4.11829   5
  -5   3   5 66.8095 6.49043  13
   5   3  -5 64.8581 5.99568  13
  -5   3   5 89.2342 5.31387   8
   5   3  -5 65.3673 3.53251  11
  -5   3   5 70.9582 3.59001  16
  -3  -3   5 1.41888 1.04293  15
  -3  -3   5 0.01056 1.74412   8
  -3  -3   5 1.92706 1.85310   3
   3  -3  -5 0.02171 0.80116  10
   3  -3  -5 0.70678 0.87016   7
  -3  -3   5 1.58253 0.90632  16
   3  -3  -5 2.33700 1.12520   6
   3   3  -5 1.39829 0.78601  14
  -3   3   5 2.15052 0.78992  15
  -3   3   5 1.38459 1.27722   8
  -3   3   5 1.29461 1.62103  13
   3   3  -5 2.91583 1.05362  10
  -3   3   5 2.57444 1.69673   3
  -3   3   5 1.72100 1.05478  16
   3   3  -5 1.89163 1.25422   4
   3   3  -5 4.31890 1.20250  11
   1  -3  -5 2.98134 0.85038   7
   1  -3  -5 2.72729 1.06468  14
   1  -3  -5 4.50154 1.31398  10
   1  -3  -5 3.97970 1.05379   2
  -1  -3   5 5.36537 1.82694   8
   1  -3  -5 4.60286 1.29304   6
  -1  -3   5 2.51178 1.73629   3
  -1  -3   5 2.36234 1.11079  12
  -1  -3   5 6.17208 1.59264  16
   1   3  -5 6.60320 1.21022  10
  -1   3   5 3.85366 1.36255  16
  -1   3   5 3.72072 1.90424  12
   1   3  -5 7.74202 1.28147  11
  -1   3   5 3.24727 2.15951   3
  -1   3   5 2.00860 0.75428   8
   1   3  -5 8.74680 1.68903  14
  -1  -3  -5 603.711 14.5914   2
  -1  -3  -5 591.056 14.7582  14
   1  -3   5 617.535 16.0991   3
  -1  -3  -5 602.427 13.7358   6
   1  -3   5 615.178 14.5923  16
   1  -3   5 589.903 13.8303  12
  -1  -3  -5 596.906 14.5020  10
   1   3   5 597.897 15.8820  12
   1   3   5 595.816 15.5800   5
  -1   3  -5 616.824 14.8603  14
   1   3   5 608.291 14.4310  16
  -1   3  -5 588.673 15.0552   2
  -1   3  -5 582.457 13.1922  10
  -1   3  -5 604.726 13.9018   4
   1   3   5 577.657 14.6114   3
   3  -3   5 15.2489 2.64433  12
   3  -3   5 17.7624 2.48267  16
   3  -3   5 21.9366 3.87014   3
  -3  -3  -5 22.8676 3.36865   2
  -3  -3  -5 18.6553 2.34633   6
  -3  -3  -5 22.0890 3.25796  14
   3   3   5 16.8386 2.39310  16
  -3   3  -5 17.2238 3.25791  14
  -3   3  -5 17.6116 3.32270   2
   3   3   5 14.8656 3.18136   5
  -3   3  -5 21.3075 2.66863   4
   3   3   5 21.5172 3.74841  12
   3   3   5 20.3750 3.17362   3
  -3   3  -5 17.0954 2.23039  10
   5  -3   5 210.845 7.83051   9
   5  -3   5 227.489 9.73273  12
  -5  -3  -5 220.691 9.76103  14
  -5  -3  -5 216.463 10.5457   2
   5   3   5 213.005 9.55790   5
   5   3   5 241.609 10.9133  12
  -5   3  -5 220.970 11.4474   2
  -5   3  -5 217.840 9.84180  14
  -7  -3  -5 13.6479 3.90208  10
   7  -3   5 12.6426 4.72368   1
  -7  -3  -5 15.2107 4.08266   2
  -7  -3  -5 14.0490 3.59088  14
  -7   3  -5 14.0070 5.24973   2
  -7   3  -5 17.0869 5.05364  15
   7   3   5 11.1670 3.96502  12
  -7   3  -5 17.8210 4.18568  14
 -10  -4   5 87.8420 8.33802  15
 -10  -4   5 75.5155 8.14532   8
  10  -4  -5 83.1319 8.19769   1
  10  -4  -5 82.5323 5.55340   7
 -10   4   5 72.5310 8.71275   8
 -10   4   5 68.1814 7.90590  15
  -8  -4   5 452.032 15.1939  15
   8  -4  -5 453.015 12.6974   7
  -8  -4   5 447.187 15.7777   8
   8  -4  -5 460.505 15.3693   1
   8   4  -5 441.574 14.0497   5
   8   4  -5 435.044 12.0029  11
  -8   4   5 447.248 14.9458  15
   6  -4  -5 318.401 11.0518   1
  -6  -4   5 316.966 10.5122   3
   6  -4  -5 312.210 9.39299   7
  -6  -4   5 317.567 11.6126   8
   6  -4  -5 307.544 8.57391   9
  -6  -4   5 316.708 10.6564  15
   6   4  -5 287.794 8.15973   4
  -6   4   5 301.230 8.58615  16
   6   4  -5 299.565 9.69175   5
   6   4  -5 309.310 9.03638  11
  -6   4   5 314.239 10.0928  15
   4  -4  -5 1.91980 0.91143  10
   4  -4  -5 2.18381 1.19739   6
   4  -4  -5 0.65003 1.29540   1
   4  -4  -5 2.81566 1.16308   7
  -4  -4   5 4.74579 1.82665  15
  -4  -4   5 -1.3529 1.82645   8
  -4  -4   5 0.59072 1.60875   3
   4   4  -5 2.70303 0.93227  14
   4   4  -5 0.34285 1.28147   4
   4   4  -5 2.02219 1.31196  11
  -4   4   5 1.48205 1.11335  16
   4   4  -5 1.18959 1.52553  13
  -4   4   5 3.38151 1.98751  13
   4   4  -5 1.26999 0.81238   5
  -4   4   5 2.59035 1.18449  15
  -4   4   5 2.35324 1.45765   8
   2  -4  -5 1791.70 32.3961  10
  -2  -4   5 1717.65 33.7385   3
  -2  -4   5 1759.65 34.3094   8
   2  -4  -5 1760.23 32.2209   7
  -2  -4   5 1737.62 33.4685  16
   2  -4  -5 1725.47 32.5619   6
  -2  -4   5 1676.20 30.8332  12
   2   4  -5 1754.34 35.5012  13
  -2   4   5 1733.09 34.0886  12
  -2   4   5 1700.99 33.6396   3
   2   4  -5 1678.06 32.3919   4
  -2   4   5 1769.31 33.4652  16
   2   4  -5 1685.69 31.5273  11
   2   4  -5 1681.27 32.0076  14
   2   4  -5 1752.16 31.7143  10
  -2   4   5 1620.58 30.8469   8
   0  -4   5 1026.68 22.7019   3
   0  -4  -5 1042.47 21.8750  14
   0  -4  -5 1018.75 21.0984   6
   0  -4   5 1030.22 22.5559   8
   0  -4  -5 1015.28 20.0181   7
   0  -4  -5 1002.99 21.2574  10
   0  -4  -5 989.974 20.8763   2
   0  -4   5 1001.26 21.7971  16
   0  -4   5 980.603 19.6488  12
   0   4   5 1005.30 21.7386  16
   0   4   5 985.921 21.2805   3
   0   4   5 993.182 23.0154   5
   0   4  -5 1027.38 21.1234   4
   0   4  -5 991.580 19.1500  11
   0   4  -5 1011.71 21.5045  14
   0   4  -5 1022.53 19.8170  10
   0   4   5 1021.42 22.9157  12
  -2  -4  -5 93.4090 4.79839   6
   2  -4   5 101.854 5.27585  16
   2  -4   5 105.267 6.34611   3
  -2  -4  -5 95.2110 5.35094   2
  -2  -4  -5 91.3183 5.45464  14
   2  -4   5 90.3495 4.53793  12
  -2   4  -5 109.419 6.42124   2
   2   4   5 90.3590 6.16409  12
   2   4   5 99.3590 6.28071   5
  -2   4  -5 89.4569 3.92277  10
   2   4   5 96.3334 5.02247  16
  -2   4  -5 96.9569 5.78430  14
  -2   4  -5 102.378 5.00890   4
   2   4   5 90.9010 5.03628   3
  -4  -4  -5 478.338 15.5457   2
   4  -4   5 488.241 13.4958   9
  -4  -4  -5 479.723 14.8778  14
  -4  -4  -5 482.410 12.9588   6
   4  -4   5 508.364 14.1604  12
  -4   4  -5 477.395 16.3304   2
   4   4   5 514.528 15.9612   5
   4   4   5 506.354 16.1403  12
  -4   4  -5 517.519 15.5466  14
  -6  -4  -5 56.6273 5.83321  14
  -6  -4  -5 58.6034 6.93940   2
   6  -4   5 62.8336 7.89016   1
  -6   4  -5 52.4061 5.93554  14
   6   4   5 52.9605 5.76450   5
  -6   4  -5 44.2720 6.37963   2
   6   4   5 67.9568 7.63835  12
 -11  -5   5 183.582 9.37246   6
 -11  -5   5 194.721 11.8480  15
  11  -5  -5 214.143 12.2005   1
 -11   5   5 202.464 12.6957  15
 -11   5   5 188.335 12.6987   8
   9  -5  -5 176.156 7.64837   7
  -9  -5   5 187.778 10.4254  15
   9  -5  -5 167.967 9.87623   1
  -9  -5   5 178.112 10.4445   8
   9   5  -5 169.667 7.33541  11
  -9   5   5 189.458 10.5840  15
   9   5  -5 179.130 9.18306   5
   7  -5  -5 527.857 14.3190   7
   7  -5  -5 546.617 13.5679   9
  -7  -5   5 544.320 16.3144  15
  -7  -5   5 542.792 17.0728   8
   7  -5  -5 569.581 17.0522   1
   7   5  -5 555.874 15.4736   5
  -7   5   5 544.277 15.9602  15
   7   5  -5 539.882 14.0160  11
   5  -5  -5 10.8929 1.99643   9
  -5  -5   5 8.69855 2.53961  15
   5  -5  -5 12.0466 1.58115  10
   5  -5  -5 15.3033 2.87943   1
   5  -5  -5 7.76352 1.70613   6
   5  -5  -5 10.4918 2.13108   7
  -5  -5   5 12.7839 3.13482   8
  -5  -5   5 13.8944 2.56870   3
   5   5  -5 10.3103 2.11441  11
  -5   5   5 12.4624 2.05513  16
   5   5  -5 18.2189 2.63330   5
   5   5  -5 10.6785 2.14329   4
  -3  -5   5 124.233 5.84405   3
   3  -5  -5 127.281 5.31713   6
  -3  -5   5 135.729 6.66805   8
   3  -5  -5 133.572 4.80266  10
  -3  -5   5 125.575 5.48873  15
   3  -5  -5 128.655 5.30767   7
   3   5  -5 124.218 5.49885   4
   3   5  -5 125.331 7.28812  13
  -3   5   5 136.708 6.00775  16
   3   5  -5 119.074 4.91277  11
  -3   5   5 114.998 4.67150   8
  -3   5   5 126.069 5.95422   3
   3   5  -5 132.342 4.94305  14
  -1  -5   5 2164.34 41.1041   3
   1  -5  -5 2105.81 39.1143   7
   1  -5  -5 2124.93 40.0304   6
  -1  -5   5 2178.51 41.8544   8
   1  -5  -5 2091.50 39.5509  10
  -1   5   5 2138.35 41.7832  12
  -1   5   5 2109.42 42.2583   5
   1   5  -5 2114.05 38.3261  11
   1   5  -5 2182.15 40.2291   4
  -1   5   5 2056.06 39.8921   3
   1   5  -5 2107.15 38.1077  10
   1   5  -5 2144.64 40.1237  14
  -1   5   5 2136.84 41.0295  16
  -1  -5  -5 236.162 8.20884  10
   1  -5   5 242.712 9.21478   3
  -1  -5  -5 227.303 8.06050   6
  -1  -5  -5 230.428 8.40194   2
  -1   5  -5 242.870 8.17581   4
   1   5   5 249.141 9.72269  12
  -1   5  -5 246.696 8.89796  14
   1   5   5 231.428 8.44617  16
   1   5   5 218.809 7.37622   3
   1   5   5 238.084 9.82131   5
   3  -5   5 235.320 8.62868   9
  -3  -5  -5 208.631 8.67845  14
   3  -5   5 215.862 9.93451   3
  -3  -5  -5 224.338 9.59667   2
  -3  -5  -5 216.105 8.23174   6
  -3   5  -5 207.004 9.95851   2
   3   5   5 216.782 8.19507  16
   3   5   5 222.819 9.99134  12
  -3   5  -5 219.962 9.11474  14
  -3   5  -5 224.440 7.99026   4
   3   5   5 200.335 7.49694  11
   3   5   5 225.280 9.92212   5
   5  -5   5 189.119 8.21008   9
   5  -5   5 177.618 10.4228   1
  -5  -5  -5 185.468 10.0854   2
  -5   5  -5 182.088 10.7369   2
   5   5   5 185.516 9.98675  12
   5   5   5 185.437 9.41379   5
  -5   5  -5 172.908 9.45680  14
  -7  -5  -5 1.38508 3.27908   2
   7  -5   5 4.65823 3.86631   1
   7   5   5 1.46720 2.69227   5
  -7   5  -5 2.66948 3.28972  14
  -7   5  -5 5.69646 5.08151  15
  -7   5  -5 2.24913 4.22186   2
   7   5   5 2.69218 3.10379  12
  10  -6  -5 20.8073 4.65266   1
 -10  -6   5 15.6275 4.83040   8
 -10  -6   5 23.1135 4.62815  15
 -10   6   5 24.6688 6.38576  15
  10   6  -5 25.4428 4.71367   5
  10   6  -5 13.9321 2.92562  11
   8  -6  -5 287.088 9.48843   9
  -8  -6   5 287.922 11.9544  15
  -8  -6   5 283.164 12.4245   8
   8  -6  -5 297.021 10.1671   7
   8  -6  -5 288.321 12.5625   1
   8   6  -5 286.638 9.90536  11
   8   6  -5 268.794 10.9232   5
  -8   6   5 300.929 12.4895  15
   6  -6  -5 774.774 20.7040   1
   6  -6  -5 769.174 18.3257   7
  -6  -6   5 765.086 20.1954  15
  -6  -6   5 789.288 21.1219   8
   6  -6  -5 784.645 18.0510   9
   6   6  -5 778.549 17.4824   4
   6   6  -5 761.047 18.7877   5
  -6   6   5 749.993 18.0320  16
   6   6  -5 792.275 18.2088  11
   4  -6  -5 92.0824 4.78066   9
  -4  -6   5 89.4654 4.01742   9
  -4  -6   5 102.367 6.11311   3
   4  -6  -5 87.4277 3.76816  10
  -4  -6   5 106.624 6.36696   8
   4  -6  -5 92.4766 4.72405   6
   4  -6  -5 91.7711 4.72461   7
  -4  -6   5 102.072 5.53260  15
   4  -6  -5 99.9390 5.83956   1
   4   6  -5 98.2493 4.92313  11
  -4   6   5 98.0905 5.34002  16
   4   6  -5 102.969 5.00592   4
   4   6  -5 100.544 4.69569   5
   4   6  -5 95.2670 4.22708  14
  -4   6   5 95.0168 5.78709   3
  -4   6   5 92.8783 5.15955   8
  -2  -6   5 524.041 14.6094   8
   2  -6  -5 517.865 12.7166   7
   2  -6  -5 502.606 13.0922   6
  -2  -6   5 497.216 13.0528   3
   2  -6  -5 508.967 12.1405  10
   2   6  -5 490.077 11.9841  11
  -2   6   5 506.453 14.0467  12
   2   6  -5 500.944 12.7679  14
  -2   6   5 465.954 12.7035   3
  -2   6   5 503.697 13.9621  16
   2   6  -5 506.068 13.1524   4
   0  -6  -5 53.5650 3.84029   6
   0  -6  -5 60.1902 3.76592  10
   0  -6  -5 60.6536 4.15190   2
   0  -6   5 63.1543 4.63119   3
   0  -6   5 65.5405 5.02380   8
   0   6   5 62.2600 4.54726  16
   0   6  -5 62.9540 4.65571  14
   0   6  -5 62.0612 3.16711  11
   0   6   5 65.1639 5.27876  12
   0   6   5 54.3219 4.75414   5
   0   6  -5 61.6822 4.56014   4
   2  -6   5 6.95658 2.33793   1
  -2  -6  -5 3.10691 1.93729   6
  -2  -6  -5 1.43821 1.85030   2
   2  -6   5 2.78098 2.20773   3
  -2  -6  -5 3.19804 1.83920  10
   2  -6   5 2.88006 1.79138   9
   2   6   5 0.13743 2.54469   5
   2   6   5 0.76221 1.45016  16
  -2   6  -5 5.68388 2.08619  14
   2   6   5 1.97350 2.67817  12
  -2   6  -5 2.81824 2.07148   4
  -4  -6  -5 690.494 19.9219   2
   4  -6   5 687.784 18.1321   9
  -4  -6  -5 643.860 17.5236   6
   4  -6   5 683.497 21.3006   1
   4   6   5 697.786 20.8014   5
  -4   6  -5 647.977 20.3861   2
  -4   6  -5 670.595 19.6262  14
   4   6   5 660.237 19.7867  12
   6  -6   5 159.730 11.2480   1
   6  -6   5 145.405 7.65755   9
  -6  -6  -5 157.744 9.79845   2
   6   6   5 164.046 9.84036   5
  -6   6  -5 146.260 9.47635  14
  -6   6  -5 157.887 10.3892   2
   6   6   5 147.713 9.45209  12
   9  -7  -5 368.644 15.4980   1
   9  -7  -5 351.753 11.3504   9
  -9  -7   5 373.663 15.0882  15
  -9  -7   5 358.184 14.5600   8
   9   7  -5 363.677 14.0053   5
   9   7  -5 370.642 12.0851  11
  -9   7   5 343.208 14.9200  15
  -7  -7   5 -1.8501 2.32307   8
   7  -7  -5 0.58236 1.67906   9
   7  -7  -5 -1.0225 1.52932   7
   7  -7  -5 5.96585 2.80225   1
  -7  -7   5 9.33759 2.94027  15
   7   7  -5 3.11788 2.18420   5
   7   7  -5 1.28061 1.48422  11
   5  -7  -5 171.245 8.34348   1
   5  -7  -5 165.431 6.56639   6
  -5  -7   5 170.275 8.53086   8
   5  -7  -5 162.720 6.88888   9
   5  -7  -5 181.184 7.23453   7
  -5  -7   5 159.144 7.72504  15
   5   7  -5 171.295 7.10786   5
  -5   7   5 167.344 7.50033  16
   5   7  -5 164.525 7.02277   4
   5   7  -5 158.830 6.86236  11
  -3  -7   5 276.965 10.4852   8
   3  -7  -5 289.075 9.22425   6
   3  -7  -5 282.493 8.89363   9
  -3  -7   5 271.297 9.48092  15
   3  -7  -5 263.731 8.83940   7
  -3  -7   5 274.719 8.32358   9
  -3   7   5 273.991 9.99555  16
   3   7  -5 263.082 8.64150  14
  -3   7   5 267.255 10.0787  12
   3   7  -5 259.668 8.45382  11
   3   7  -5 267.339 9.26467   4
   1  -7  -5 145.623 5.90802  10
   1  -7  -5 151.389 6.75676   6
  -1  -7   5 137.670 7.28704   8
  -1  -7   5 140.349 5.99083   9
  -1  -7   5 144.831 6.49978   3
  -1   7   5 141.867 7.56246   5
   1   7  -5 141.582 5.53004  11
  -1   7   5 145.947 7.17376  16
   1   7  -5 133.631 6.28783  14
  -1   7   5 146.688 7.35992  12
   1   7  -5 134.404 6.68944   4
   1  -7   5 856.142 21.3500   1
   1  -7   5 936.448 21.3640   9
   1  -7   5 892.890 22.0775   3
  -1  -7  -5 897.513 20.9598  10
  -1  -7  -5 907.888 21.6439   6
  -1  -7  -5 899.911 21.8564   2
   1   7   5 895.991 22.5203  12
  -1   7  -5 916.754 22.1017  14
   1   7   5 897.993 22.1352  16
   1   7   5 909.903 24.1324   5
  -1   7  -5 912.644 21.1637   4
  -3  -7  -5 157.038 7.78305   6
   3  -7   5 150.701 8.90393   1
   3  -7   5 158.443 7.72861   9
  -3  -7  -5 162.779 8.61217   2
   3   7   5 144.539 7.07741  11
   3   7   5 142.670 7.13955  16
   3   7   5 156.876 9.62772   5
   3   7   5 151.648 8.68602  12
  -3   7  -5 139.416 8.12585  14
  -3   7  -5 144.735 6.84923   4
  -3   7  -5 151.734 9.25842   2
   5  -7   5 2.13093 2.24423   9
   5  -7   5 -2.2709 2.52398   1
  -5  -7  -5 -1.4884 2.03210   6
  -5  -7  -5 2.30595 2.71795   2
  -5   7  -5 4.74558 2.86249   2
   5   7   5 3.30829 2.57534   5
  -5   7  -5 -5.3073 2.80244  14
   5   7   5 -1.4531 2.76858  12
  10  -8  -5 212.814 12.5963   1
 -10  -8   5 212.714 12.0697  15
 -10  -8   5 207.566 10.7750   6
  10   8  -5 192.864 10.3244   5
  10   8  -5 209.869 9.16075  11
  -8  -8   5 260.388 12.2847  15
   8  -8  -5 252.124 12.3105   1
   8  -8  -5 241.739 9.57702   9
   8  -8  -5 243.176 9.47007   7
   8   8  -5 259.284 11.0712   5
   8   8  -5 239.439 9.56586  11
  -6  -8   5 727.702 20.4872   8
  -6  -8   5 766.896 20.7050  15
   6  -8  -5 752.254 18.6899   9
   6  -8  -5 769.135 18.8902   7
   6  -8  -5 767.031 21.3887   1
   6   8  -5 742.358 18.5778  11
  -6   8   5 708.987 19.2732  16
   6   8  -5 723.055 18.1380   4
   6   8  -5 739.256 19.2856   5
  -4  -8   5 1477.74 33.1433   8
   4  -8  -5 1467.40 30.7291   7
   4  -8  -5 1445.14 30.7806   9
  -4  -8   5 1507.50 32.3917  15
   4  -8  -5 1514.18 30.7879   6
  -4  -8   5 1469.58 29.3848   9
   4   8  -5 1526.56 30.8817  11
  -4   8   5 1447.82 32.3672  16
   4   8  -5 1508.37 31.4300   4
  -2  -8   5 214.151 9.46792   8
  -2  -8   5 200.789 7.74525   9
   2  -8  -5 213.589 8.48701   6
   2  -8  -5 211.872 7.91961   9
  -2   8   5 219.944 10.2025   5
  -2   8   5 222.223 9.39463  12
   2   8  -5 220.669 8.95220   4
   2   8  -5 208.529 7.58348  11
   2   8  -5 215.146 8.43046  14
  -2   8   5 210.122 9.12846  16
   0  -8   5 154.799 7.16015   9
   0  -8  -5 149.239 7.31791   6
   0  -8  -5 143.885 6.56384  10
   0   8   5 157.162 7.73941  16
   0   8   5 144.309 8.89538   5
   0   8  -5 146.399 7.49733  14
   0   8  -5 141.922 7.45288   4
   0   8  -5 151.651 5.75419  11
   0   8   5 158.973 8.06476  12
  -2  -8  -5 649.064 17.7317  10
   2  -8   5 659.240 18.0875   9
  -2  -8  -5 663.520 18.1774   6
  -2  -8  -5 667.874 18.9975   2
   2   8   5 642.165 20.5770   5
  -2   8  -5 647.824 18.7072  14
   2   8   5 673.212 17.8430  11
   2   8   5 609.858 17.8378  16
  -2   8  -5 649.354 17.5110   4
   2   8   5 649.696 18.8000  12
   4  -8   5 354.407 12.9418   9
   4  -8   5 361.707 14.7647   1
  -4  -8  -5 335.023 12.6165   6
  -4  -8  -5 337.866 13.0822  10
  -4  -8  -5 342.614 13.8492   2
   4   8   5 320.253 13.3873  12
   4   8   5 362.408 15.2310   5
  -4   8  -5 345.106 14.9593   2
  -4   8  -5 335.206 13.8109  14
   4   8   5 341.626 11.8033  11
  -6  -8  -5 353.952 14.4816  10
   6  -8   5 371.918 13.7422   9
  -6  -8  -5 360.685 14.9995   2
   6  -8   5 374.437 17.0300   1
   6   8   5 347.746 14.4419  12
  -9  -9   5 9.06377 3.81956   6
   9  -9  -5 6.59076 3.96654   1
   9  -9  -5 9.02913 2.98567   9
  -9  -9   5 7.06523 3.09753  15
   9   9  -5 8.83713 3.39392   5
   9   9  -5 9.48795 3.13841  11
   7  -9  -5 2.55880 3.04066   1
  -7  -9   5 7.66399 3.31439   6
   7  -9  -5 5.56147 1.84954   7
   7  -9  -5 2.85514 2.29843   9
  -7  -9   5 2.69473 2.83675  15
   7   9  -5 8.84479 2.47897  11
   7   9  -5 9.34416 2.99861   5
   5  -9  -5 144.099 8.04258   1
  -5  -9   5 159.632 8.60604   8
   5  -9  -5 136.110 6.52522   6
  -5  -9   5 143.368 7.81912  15
   5  -9  -5 145.152 7.22278   7
   5  -9  -5 141.688 7.24402   9
  -5   9   5 137.733 7.75917  16
   5   9  -5 151.839 7.40773  11
   5   9  -5 150.274 7.22743   4
  -3  -9   5 80.7734 4.69171   9
   3  -9  -5 81.8797 5.35769   9
  -3  -9   5 91.3544 6.44630   8
   3  -9  -5 78.9207 5.41233   6
  -3  -9   5 82.3630 5.50345   6
   3   9  -5 88.9749 5.58103  14
   3   9  -5 79.3512 5.61885   4
  -3   9   5 85.3184 7.08713   5
  -3   9   5 68.3705 5.38811  16
   3   9  -5 86.9807 5.20092  11
   1  -9  -5 14.4519 3.01513   6
  -1  -9   5 9.54967 2.42944   9
   1   9  -5 10.6170 2.72340   4
   1   9  -5 9.95013 2.23126  11
  -1   9   5 13.2303 3.82977  12
  -1   9   5 10.2639 2.77666  16
  -1   9   5 10.6876 3.72537   5
   1   9  -5 13.8230 3.21022  14
  -1  -9  -5 12.7297 2.82540  10
  -1  -9  -5 14.0848 3.33170   6
   1  -9   5 11.8296 3.09925   9
   1   9   5 13.6232 3.82968  12
  -1   9  -5 10.2818 3.33976   4
   1   9   5 13.2022 3.31917  11
   1   9   5 12.6992 3.07106  16
   1   9   5 11.9650 3.68167   5
  -1   9  -5 10.6193 3.40621  14
  -3  -9  -5 24.5045 4.31203   6
  -3  -9  -5 25.5657 4.18990  10
   3  -9   5 28.0540 4.37580   9
   3   9   5 42.4762 6.11662   5
   3   9   5 34.9606 4.48837  11
  -3   9  -5 29.6575 4.66204  14
  -3   9  -5 28.5514 4.24829   4
   3   9   5 40.0365 5.25785  12
  -5  -9  -5 10.6652 3.73660   2
  -5  -9  -5 10.1190 3.43346  10
  -5  -9  -5 9.27339 3.34161   6
   5  -9   5 8.95077 3.37537   9
   5  -9   5 6.26323 3.80894   1
  -5   9  -5 11.2565 4.72638  14
   5   9   5 8.42204 3.60359   5
  -5   9  -5 14.2937 5.14040   2
  -8 -10   5 8.42611 3.62877   6
   8 -10  -5 10.0993 3.11107   9
  -8 -10   5 10.0881 3.72052  15
   8 -10  -5 4.82789 3.76419   1
   8 -10  -5 7.38495 2.33782   7
   8  10  -5 9.41482 2.68716   5
   8  10  -5 6.66632 2.89189  11
  -6 -10   5 129.396 8.39600  15
   6 -10  -5 132.957 8.51071   1
   6 -10  -5 131.977 7.48809   9
   6 -10  -5 139.649 7.40855   7
  -6 -10   5 136.668 8.18666   6
   6  10  -5 124.528 7.25971   4
   6  10  -5 127.578 7.50114  11
  -4 -10   5 66.5232 5.69676   6
   4 -10  -5 71.8487 5.60157   9
   4 -10  -5 58.6245 5.02070   6
  -4 -10   5 65.2794 5.79003   8
  -4  10   5 57.9277 5.58493  16
   4  10  -5 62.1144 5.32717  11
   4  10  -5 69.4237 6.07690   4
  -4  10   5 70.0693 7.10200   5
   2 -10  -5 -0.4634 1.82920   6
  -2 -10   5 1.19177 1.81119   6
  -2 -10   5 0.90047 1.89035   8
  -2 -10   5 2.30105 1.94292   9
   2  10  -5 0.07499 1.98462  14
  -2  10   5 -1.0065 2.85093   5
   2  10  -5 -0.2888 2.63470   4
  -2  10   5 -0.5516 1.78911  16
   2  10  -5 -2.4559 1.79149  11
   0 -10  -5 18.0928 3.61261   6
   0 -10   5 22.5053 3.79959   9
   0  10  -5 20.8611 4.21012   4
   0  10   5 21.2879 5.04833   5
   0  10  -5 25.2800 3.89526  14
   0  10   5 21.6396 3.65656  11
  -2 -10  -5 -3.2030 2.48895   6
   2 -10   5 2.60265 2.49390   9
  -2 -10  -5 -0.3013 1.97115  10
   2  10   5 7.66349 4.27258   5
  -2  10  -5 2.15378 2.93188   4
   2  10   5 4.88390 2.17371  11
  -2  10  -5 2.09503 3.15399  14
  -4 -10  -5 59.4773 6.43580   6
  -4 -10  -5 63.4085 6.40653  10
   4 -10   5 73.5414 6.21361   9
  -4  10  -5 67.5564 7.96440   2
  -4  10  -5 56.6938 7.15268  14
   4  10   5 76.4318 7.96092   5
  -7 -11   5 194.580 10.2149  15
   7 -11  -5 170.086 10.4032   1
  -7 -11   5 180.363 10.2158   6
   7 -11  -5 173.819 9.02379   9
   7  11  -5 187.860 9.33582  11
   5 -11  -5 356.710 12.8766   9
  -5 -11   5 345.124 13.3023   6
   5  11  -5 340.311 12.8254   4
  -5  11   5 341.437 12.2860  11
   5  11  -5 337.477 12.2744  11
  -3 -11   5 293.645 11.3251   6
   3 -11  -5 296.929 11.3642   6
  -3 -11   5 290.776 12.2931   8
   3 -11  -5 305.571 11.3282   9
  -3  11   5 314.108 11.9933  11
   3  11  -5 304.231 12.3104   4
   3  11  -5 296.440 10.9673  11
   3  11  -5 302.981 11.7710  14
  -3  11   5 291.715 13.2185   5
  -1 -11   5 208.810 9.53326   9
   1 -11  -5 230.271 10.3374   6
  -1  11   5 206.069 11.4944   5
   1  11  -5 217.225 8.53864  11
   1  11  -5 209.513 10.3349  14
   1  11  -5 222.040 10.6566   4
  -1  11   5 225.105 10.5775  11
   1 -11   5 223.997 10.5301   9
  -1 -11  -5 220.297 10.6508   6
   1  11   5 244.686 12.9721   5
   1  11   5 212.675 9.94110  11
  -1  11  -5 216.146 10.2561   4
  -1  11  -5 221.114 11.2641  14
  -3 -11  -5 136.064 8.78099   6
   3 -11   5 146.742 8.89473   9
   3  11   5 138.509 10.4506   5
   3  11   5 137.266 8.39206  11
  -3  11  -5 121.351 9.26019  14
  -3  11  -5 120.755 8.03683   4
  -6 -12   5 4.16612 3.23851   6
   6 -12  -5 7.19271 2.53974   9
   6  12  -5 2.06775 3.19217  11
  -4 -12   5 83.0485 6.76655   6
   4 -12  -5 87.2868 6.66726   9
   4  12  -5 78.6061 6.25419  11
   4  12  -5 90.7849 7.35325   4
  -4  12   5 76.2692 6.57913  11
  -2 -12   5 149.794 8.11180   9
   2 -12  -5 166.554 8.90067   6
  -2  12   5 163.880 10.3580   5
   2  12  -5 158.986 9.14240  14
   2  12  -5 163.889 8.01091  11
   2  12  -5 167.925 9.77415   4
  -2  12   5 156.987 9.14918  11
   0 -12  -5 424.458 15.2330   6
   0 -12   5 380.982 14.2205   9
   0  12  -5 429.073 15.3486   4
   0  12   5 438.724 15.5162  11
   0  12   5 407.023 16.9162   5
   0  12  -5 404.342 15.4754  14
 -12   0   6 129.621 10.8010  15
  12   0  -6 139.589 7.89493   7
 -12   0   6 142.541 11.9599   8
  10   0  -6 106.829 6.40789   7
  10   0  -6 110.895 7.07054   1
 -10   0   6 108.743 8.73281  15
 -10   0   6 112.404 9.71288   8
  -8   0   6 36.5573 5.35049   8
   8   0  -6 34.4877 3.93291   1
  -8   0   6 39.9690 4.92197  15
   8   0  -6 36.8531 3.76158   7
   6   0  -6 973.087 19.6259   4
   6   0  -6 992.332 21.3963   1
  -6   0   6 982.894 21.5930  15
  -6   0   6 997.963 23.9801   8
  -6   0   6 1021.73 20.2243  16
   6   0  -6 996.136 20.7665   7
   4   0  -6 2201.22 39.7226   7
   4   0  -6 2115.87 38.0719  14
  -4   0   6 2290.86 42.6188   8
  -4   0   6 2227.84 43.1565   3
  -4   0   6 2186.01 40.2752  16
  -4   0   6 2203.82 48.2694  13
   4   0  -6 2194.90 40.2543  10
   4   0  -6 2201.48 39.9168   4
  -4   0   6 2142.99 38.9036  15
   2   0  -6 4.95499 0.97080   2
   2   0  -6 9.58310 1.29933   7
  -2   0   6 11.9590 2.27806  12
   2   0  -6 7.88296 1.57071  10
  -2   0   6 9.49606 1.94234   8
  -2   0   6 6.81962 2.38396  13
  -2   0   6 7.48079 2.07698   3
   2   0  -6 6.24600 1.41629  14
   2   0  -6 6.56609 1.52050   4
   0   0   6 210.935 6.92076   8
   0   0  -6 210.853 7.08151  10
   0   0  -6 216.255 7.41536  14
   0   0  -6 220.330 6.12439   6
   0   0  -6 214.731 7.01857   4
   0   0  -6 212.200 6.76191   2
   0   0   6 208.704 6.99778   5
   0   0   6 218.600 8.61234   3
   0   0   6 214.075 9.70589  13
   0   0   6 222.935 8.19070  12
   0   0   6 208.271 7.21320  16
   2   0   6 31.6494 4.26378   3
   2   0   6 32.6451 4.20276  12
  -2   0  -6 32.7866 3.24809   4
   2   0   6 31.6236 3.10862  16
  -2   0  -6 33.5830 4.00107   2
  -2   0  -6 37.8959 4.10618  14
  -2   0  -6 30.1424 3.29067  10
   2   0   6 29.1064 3.09647   5
   4   0   6 41.2942 5.48942   3
   4   0   6 52.5290 5.79898  12
  -4   0  -6 43.5885 4.45674  10
  -4   0  -6 40.1656 5.01234  14
  -4   0  -6 45.7598 5.63582   2
   6   0   6 779.168 22.7500  12
  -6   0  -6 795.396 21.9808  14
  -6   0  -6 794.230 23.8152   2
  -6   0  -6 736.371 20.6360  10
  11  -1  -6 562.023 18.0752   1
 -11  -1   6 570.892 21.5741   8
  11  -1  -6 555.849 16.5211   7
 -11  -1   6 547.598 19.2324  15
 -11   1   6 555.877 19.7175  15
 -11   1   6 541.645 21.3360   8
  11   1  -6 576.773 16.8043   7
  -9  -1   6 300.746 12.6651  15
  -9  -1   6 305.952 13.8040   8
   9  -1  -6 312.611 10.5547   7
   9  -1  -6 294.703 11.4197   1
   9   1  -6 328.138 10.5799   7
  -9   1   6 309.047 12.5799  15
  -9   1   6 312.751 13.9595   8
  -7  -1   6 301.225 10.4421  15
   7  -1  -6 289.443 10.0590   1
   7  -1  -6 314.172 9.49039   7
  -7  -1   6 295.651 11.7946   8
  -7   1   6 297.873 11.7218   8
   7   1  -6 303.404 8.93324  11
   7   1  -6 294.920 9.24294   1
  -7   1   6 276.938 9.96811  15
   7   1  -6 306.942 9.15006   7
  -5  -1   6 2043.55 40.8322   3
  -5  -1   6 2053.73 37.5194  16
   5  -1  -6 2004.69 37.5003   7
  -5  -1   6 2050.29 40.5978   8
   5  -1  -6 2030.78 37.6129  10
  -5  -1   6 2032.61 37.8303  15
   5   1  -6 2025.91 36.9498   4
   5   1  -6 2008.49 37.1601   7
  -5   1   6 2003.69 37.3522  16
   5   1  -6 2048.72 37.7797  10
  -5   1   6 2026.49 41.1786   3
  -5   1   6 2029.37 40.1220   8
  -5   1   6 2016.52 37.1288  15
  -5   1   6 1949.43 46.7283  13
   5   1  -6 2007.37 37.3309  11
  -3  -1   6 326.424 12.7547  13
  -3  -1   6 345.456 10.8676   3
   3  -1  -6 339.497 9.15609  10
  -3  -1   6 322.976 7.71185  15
  -3  -1   6 352.279 10.4385   8
  -3  -1   6 335.106 9.27761  16
   3  -1  -6 331.762 8.88291   4
   3  -1  -6 338.175 8.47816   7
   3  -1  -6 328.184 8.23688  14
  -3   1   6 322.291 13.4683  13
  -3   1   6 356.210 10.9616   3
   3   1  -6 333.831 8.08667  14
   3   1  -6 331.300 8.98598  10
  -3   1   6 335.531 9.22246  16
   3   1  -6 328.862 8.01708   7
   3   1  -6 342.294 8.98337   4
  -3   1   6 338.929 9.64715   8
   3   1  -6 342.221 8.56642  11
   1  -1  -6 685.677 14.1893   2
  -1  -1   6 700.362 16.3349  12
  -1  -1   6 695.825 18.9094  13
   1  -1  -6 699.773 15.6890  14
   1  -1  -6 693.497 15.5836   4
  -1  -1   6 691.622 16.0155   8
   1  -1  -6 703.976 14.9013   6
   1  -1  -6 695.032 13.9842   7
  -1  -1   6 716.372 17.6601   3
   1  -1  -6 689.977 15.7332  10
  -1  -1   6 697.126 15.9738  16
   1   1  -6 680.793 14.3763   2
   1   1  -6 713.166 15.6387  10
   1   1  -6 729.139 15.6083  14
  -1   1   6 697.149 15.0033   8
  -1   1   6 703.873 16.0339  16
  -1   1   6 717.032 17.4804   3
  -1   1   6 703.651 20.8011  13
  -1   1   6 714.995 17.2376  12
   1   1  -6 672.489 13.4077   7
   1   1  -6 709.934 15.5825   4
   1  -1   6 1819.34 35.2576   5
  -1  -1  -6 1888.34 36.8275   2
  -1  -1  -6 1927.28 37.1643  10
  -1  -1  -6 1964.08 37.6462  14
  -1  -1  -6 1948.17 36.5198   4
   1  -1   6 1930.88 37.0968  16
   1  -1   6 1926.96 37.9604  12
   1  -1   6 1933.29 39.1350   3
  -1  -1  -6 1881.22 34.9675   6
   1   1   6 1942.55 38.8158   3
   1   1   6 1922.57 36.8599  16
   1   1   6 1899.82 37.2736   5
  -1   1  -6 1898.12 36.6463  10
  -1   1  -6 1964.34 37.6131  14
  -1   1  -6 1975.15 36.4709   4
  -1   1  -6 1886.25 37.0563   2
   1   1   6 1939.84 39.0067  12
  -3  -1  -6 157.074 7.66040  14
  -3  -1  -6 169.257 8.20354   2
   3  -1   6 162.331 6.68583  16
  -3  -1  -6 164.778 7.43965  10
   3  -1   6 150.076 8.17812   3
   3  -1   6 156.604 7.79847  12
   3   1   6 160.060 8.29245  12
   3   1   6 158.009 6.97109   5
  -3   1  -6 161.085 7.80237  14
  -3   1  -6 158.778 6.28788   4
   3   1   6 149.436 8.03927   3
  -3   1  -6 175.679 8.57180   2
   3   1   6 146.454 6.33401  16
  -3   1  -6 155.552 6.62783  10
  -5  -1  -6 259.840 11.0969  14
   5  -1   6 260.941 11.3379  12
  -5  -1  -6 248.867 10.2921  10
  -5  -1  -6 268.899 12.0744   2
  -5   1  -6 267.311 10.0890  10
   5   1   6 266.821 11.8987  12
  -5   1  -6 255.205 10.7513  14
  -5   1  -6 262.352 12.3159   2
  -7  -1  -6 311.093 14.6318   2
  -7  -1  -6 305.642 12.7363  10
   7  -1   6 321.278 15.8193   1
  -7  -1  -6 327.545 13.3240  14
   7  -1   6 337.158 13.9925  12
   7   1   6 332.014 15.4127   1
  -7   1  -6 304.189 12.9739  14
   7   1   6 315.131 14.0316  12
  -7   1  -6 318.431 14.6181   2
 -12  -2   6 131.237 10.6262  15
  12  -2  -6 110.810 8.66411   1
 -12  -2   6 133.422 10.5308   8
  12   2  -6 122.019 7.69735   7
 -12   2   6 103.229 11.0982   8
 -12   2   6 133.781 10.7505  15
  10  -2  -6 5.57298 2.64731   1
 -10  -2   6 6.71080 4.00150   8
  10  -2  -6 3.77089 1.76822   7
 -10  -2   6 2.75689 3.94126  15
  10   2  -6 8.83485 2.73130   7
 -10   2   6 3.14806 4.01536   8
  10   2  -6 6.03070 2.04561  11
 -10   2   6 7.04443 4.26590  15
   8  -2  -6 614.613 15.9380   7
  -8  -2   6 608.750 19.1945   8
   8  -2  -6 609.883 17.5715   1
  -8  -2   6 626.588 17.7663  15
  -8   2   6 636.617 19.8748   8
   8   2  -6 627.580 15.6856   7
  -8   2   6 647.957 17.7310  15
   8   2  -6 631.568 15.4233  11
   6  -2  -6 904.733 20.9986   1
  -6  -2   6 898.089 22.6221   8
   6  -2  -6 912.647 19.7385   7
  -6  -2   6 879.346 20.4267  15
   6  -2  -6 913.108 19.1623  10
  -6  -2   6 918.092 22.4860   3
  -6  -2   6 874.197 18.8749  16
  -6   2   6 922.342 22.3873   8
  -6   2   6 893.321 19.7561  15
  -6   2   6 912.639 18.9246  16
   6   2  -6 924.682 19.3685  11
   6   2  -6 885.831 18.3551   4
   4  -2  -6 2061.44 37.3110   7
  -4  -2   6 2036.79 39.9426   8
  -4  -2   6 2024.56 37.1174  15
  -4  -2   6 2005.44 37.7101  16
  -4  -2   6 2036.16 40.0159   3
   4  -2  -6 2046.58 37.4107  10
  -4   2   6 2044.56 40.3482   3
   4   2  -6 1950.58 35.2832  14
  -4   2   6 1999.97 38.6774   8
  -4   2   6 1962.52 46.0708  13
   4   2  -6 2028.45 36.9779  11
   4   2  -6 1996.99 37.3496  10
   4   2  -6 1969.25 44.3606  13
   4   2  -6 1958.29 36.9049   4
  -4   2   6 2035.19 37.6889  16
   2  -2  -6 3114.96 55.5089  14
  -2  -2   6 3058.54 60.1067  13
   2  -2  -6 3206.69 55.3841   6
  -2  -2   6 3148.33 58.0947   3
   2  -2  -6 3103.42 54.6708   7
  -2  -2   6 3095.89 56.1869  16
   2  -2  -6 3158.08 55.9018  10
  -2  -2   6 3087.18 55.7280  12
  -2  -2   6 3121.78 57.0756   8
   2   2  -6 3085.73 53.6455   7
   2   2  -6 3152.99 55.6029   4
  -2   2   6 3161.06 58.0889   3
  -2   2   6 3201.85 57.7471  12
   2   2  -6 3125.98 55.4620  10
  -2   2   6 3076.62 54.9329   8
   2   2  -6 3138.90 55.1277  14
  -2   2   6 3052.65 63.9762  13
   2   2  -6 3002.31 53.8223   2
  -2   2   6 3159.54 56.3774  16
   2   2  -6 3150.68 54.6677  11
   0  -2  -6 55.6338 2.57717   7
   0  -2   6 60.7651 4.49060   3
   0  -2   6 78.0050 4.36812  16
   0  -2  -6 58.9952 3.38425   6
   0  -2  -6 65.6672 4.03004  10
   0  -2   6 53.3315 3.86522  13
   0  -2   6 55.2041 3.89840   8
   0  -2  -6 56.1609 3.39940   2
   0  -2  -6 61.4369 3.85218  14
   0  -2   6 57.8199 4.02018  12
   0   2  -6 55.8251 4.04749  14
   0   2   6 55.1697 4.76054  12
   0   2  -6 57.8246 3.46891  10
   0   2  -6 59.5103 3.64854   2
   0   2   6 57.6095 3.78001  16
   0   2   6 59.4412 4.61938   3
   0   2  -6 52.6058 3.59097   4
   0   2   6 59.5396 4.27327   5
  -2  -2  -6 188.389 7.71827  10
  -2  -2  -6 179.072 7.78490  14
   2  -2   6 176.394 7.57733  12
  -2  -2  -6 186.962 7.78401   2
  -2  -2  -6 182.762 6.17297   6
   2  -2   6 179.766 8.47857   3
   2  -2   6 187.927 7.14375  16
   2   2   6 180.599 6.97731  16
   2   2   6 175.038 7.70951   5
  -2   2  -6 185.848 6.85064   4
  -2   2  -6 184.448 8.09605   2
   2   2   6 192.377 8.82968  12
   2   2   6 181.477 8.12088   3
  -2   2  -6 185.077 6.90327  10
  -2   2  -6 183.701 7.77009  14
  -4  -2  -6 898.211 22.4580  10
   4  -2   6 910.537 22.8410  12
  -4  -2  -6 911.743 23.4941   2
  -4  -2  -6 923.038 23.1798  14
   4  -2   6 924.251 24.9369   3
  -4   2  -6 933.929 23.2605  14
   4   2   6 881.796 21.9013   5
   4   2   6 929.079 24.2479  12
  -4   2  -6 929.311 24.5691   2
  -4   2  -6 882.506 20.9977  10
   4   2   6 925.440 23.7398   3
  -6  -2  -6 257.766 12.6464   2
  -6  -2  -6 257.922 11.4098  10
   6  -2   6 247.394 11.3631  12
   6  -2   6 269.566 13.8359   1
  -6  -2  -6 271.590 11.8340  14
  -6   2  -6 249.778 11.5621  14
  -6   2  -6 260.309 13.1108   2
   6   2   6 275.441 12.7052  12
 -11  -3   6 -2.8628 3.83946   8
  11  -3  -6 1.77295 3.16941   1
  11  -3  -6 3.70568 2.25779   7
 -11  -3   6 2.99745 4.39580  15
 -11   3   6 -2.8727 3.95730   8
  11   3  -6 0.00068 1.45062   7
 -11   3   6 5.98113 4.53337  15
  -9  -3   6 103.107 8.50424   8
   9  -3  -6 109.056 6.14569   7
   9  -3  -6 98.4090 7.08868   1
  -9  -3   6 94.6186 7.78324  15
  -9   3   6 91.6968 8.88535   8
  -9   3   6 92.1068 7.52754  15
   9   3  -6 93.5256 5.17092  11
  -7  -3   6 58.9280 5.14859  15
   7  -3  -6 52.7139 3.93276   7
   7  -3  -6 57.7301 4.86742   1
  -7  -3   6 54.1823 5.07156   3
  -7  -3   6 61.7087 6.43685   8
  -7   3   6 69.9659 6.22605   8
   7   3  -6 57.3463 3.86623  11
  -7   3   6 60.4587 4.87206  15
   5  -3  -6 237.174 7.30797  10
  -5  -3   6 241.140 8.20004  15
  -5  -3   6 230.915 7.68497  16
   5  -3  -6 235.080 8.64864   1
  -5  -3   6 245.218 9.53233   8
  -5  -3   6 228.238 9.16304   3
   5  -3  -6 242.232 7.81114   7
  -5   3   6 251.990 8.64275  15
   5   3  -6 238.544 7.29869   4
  -5   3   6 237.665 8.87592   8
  -5   3   6 240.520 9.78558   3
   5   3  -6 245.014 7.51746  11
  -5   3   6 242.724 7.65399  16
  -3  -3   6 7.17149 2.45438   3
  -3  -3   6 2.77433 2.03974   8
   3  -3  -6 6.40296 1.51557  10
  -3  -3   6 6.87460 1.46199  12
  -3  -3   6 3.61188 1.48793  16
  -3  -3   6 4.09545 1.43622  15
   3   3  -6 2.34714 1.03603  14
  -3   3   6 1.60484 1.63108   8
   3   3  -6 5.57005 1.16804  10
  -3   3   6 4.26061 1.56542  16
  -3   3   6 3.64714 2.33807  13
  -3   3   6 4.28471 1.87279  12
   3   3  -6 4.69791 1.91651  13
   3   3  -6 5.00668 1.62675   4
   3   3  -6 5.43228 1.34113  11
  -3   3   6 1.51798 1.99424   3
  -1  -3   6 29.6325 2.71862  12
  -1  -3   6 32.6819 3.54617   8
  -1  -3   6 33.2684 3.17022  16
  -1  -3   6 27.6395 3.84069   3
   1  -3  -6 34.8322 2.59983   6
   1  -3  -6 31.6016 2.23930   2
   1  -3  -6 32.4170 3.37525  14
   1  -3  -6 30.2937 2.24058   7
   1  -3  -6 33.0759 2.75369  10
  -1   3   6 31.3074 2.81912  16
   1   3  -6 35.8972 3.38377  14
  -1   3   6 27.8202 3.85824  12
   1   3  -6 29.8830 2.47256  10
  -1   3   6 32.9625 3.80175   3
   1   3  -6 30.1809 2.20807  11
   1   3  -6 37.4008 3.28978   4
   1   3  -6 24.0696 1.77687   7
  -1  -3  -6 6.34859 1.98466   2
   1  -3   6 6.51219 1.86614  16
  -1  -3  -6 8.35004 1.77450   6
   1  -3   6 10.2449 2.38372  12
  -1  -3  -6 6.73573 2.03089  10
   1  -3   6 4.98678 2.53269   3
  -1  -3  -6 6.59531 2.14782  14
   1   3   6 10.6817 2.95571  12
  -1   3  -6 8.92971 2.32758   2
   1   3   6 7.13264 2.26621   3
   1   3   6 9.30969 2.61430   5
  -1   3  -6 7.24171 2.00881   4
   1   3   6 6.26121 1.63134  16
  -1   3  -6 7.01985 1.46935  10
  -1   3  -6 7.83091 2.43636  14
   3  -3   6 104.048 5.63196  16
   3  -3   6 106.512 7.26342   3
  -3  -3  -6 101.378 4.90703   6
   3  -3   6 112.202 6.16428  12
  -3  -3  -6 109.568 6.61280  14
  -3  -3  -6 114.627 6.50341  10
  -3  -3  -6 108.493 6.79734   2
  -3   3  -6 100.655 6.24408  14
   3   3   6 105.444 6.67038   5
  -3   3  -6 103.179 7.08532   2
  -3   3  -6 106.315 5.34667   4
  -3   3  -6 98.1154 5.03245  10
   3   3   6 95.1848 5.29075  16
   3   3   6 110.007 7.35406  12
   3   3   6 113.056 6.62932   3
  -5  -3  -6 1.90311 2.05267  14
   5  -3   6 7.88377 2.72370  12
  -5  -3  -6 3.34646 2.84419  10
   5  -3   6 5.43804 2.01429   9
  -5  -3  -6 1.84558 3.13316   2
   5   3   6 5.89635 3.36589  12
  -5   3  -6 -4.4265 3.36751   2
  -5   3  -6 8.37034 3.53944  14
   5   3   6 5.58007 2.85454   5
  -7  -3  -6 11.6947 3.60079  14
  -7  -3  -6 21.6198 5.20288   2
   7  -3   6 17.1665 5.28036   1
  -7  -3  -6 11.4759 3.91072  10
  -7   3  -6 11.3329 4.05633  14
   7   3   6 16.9175 4.18020  12
  -7   3  -6 4.21013 4.60691   2
  10  -4  -6 957.211 23.6905   7
 -10  -4   6 986.730 27.2478  15
 -10  -4   6 1005.14 28.7454   8
  10  -4  -6 982.999 27.2088   1
 -10   4   6 1000.25 29.8836   8
 -10   4   6 1007.66 27.4201  15
  10   4  -6 985.408 22.8642  11
  -8  -4   6 1868.48 41.9385   8
  -8  -4   6 1895.12 40.2654  15
  -8  -4   6 1859.07 40.4013   3
   8  -4  -6 1875.52 40.8921   1
   8  -4  -6 1841.78 37.7339   7
  -8   4   6 1902.39 42.5984   8
  -8   4   6 1898.70 39.6602  15
   8   4  -6 1915.11 37.2456  11
  -6  -4   6 1010.48 23.8274   3
   6  -4  -6 1018.74 23.9829   1
  -6  -4   6 1028.53 25.1125   8
  -6  -4   6 1013.66 23.2367  15
   6  -4  -6 987.308 21.9680   7
   6  -4  -6 989.359 20.5632  10
  -6   4   6 992.234 21.9492  15
  -6   4   6 1045.83 24.6594   8
   6   4  -6 1036.50 21.5941  11
   6   4  -6 981.410 20.6892   4
  -6   4   6 1000.26 21.4198  16
   4  -4  -6 781.600 17.4975   7
  -4  -4   6 801.287 17.7212  15
   4  -4  -6 769.000 17.2331   6
  -4  -4   6 801.580 19.9891   8
  -4  -4   6 781.068 18.1245  16
   4  -4  -6 779.567 16.9342  10
  -4  -4   6 764.163 18.9428   3
  -4   4   6 781.268 19.5516   3
  -4   4   6 792.722 18.0037   8
   4   4  -6 771.696 22.9053  13
   4   4  -6 770.000 16.8447  11
  -4   4   6 798.053 18.1107  16
   4   4  -6 789.233 17.3435   4
  -2  -4   6 2390.86 46.0702   3
   2  -4  -6 2387.19 43.5489   7
  -2  -4   6 2401.10 45.3511  16
  -2  -4   6 2383.90 46.1213   8
   2  -4  -6 2384.75 44.0501  10
  -2  -4   6 2304.80 42.6297  12
   2  -4  -6 2416.21 44.2419   6
   2   4  -6 2384.48 43.6881  14
   2   4  -6 2426.35 44.3633   4
  -2   4   6 2391.00 45.2197  16
  -2   4   6 2395.85 45.9118   3
  -2   4   6 2357.41 46.2201  12
   2   4  -6 2415.66 43.0003  11
   2   4  -6 2377.62 43.3423  10
   0  -4   6 2450.71 44.8409  12
   0  -4  -6 2473.75 46.9088  14
   0  -4  -6 2468.62 46.4421  10
   0  -4  -6 2411.22 45.5499   2
   0  -4  -6 2480.79 45.7721   6
   0  -4   6 2449.02 47.5405   8
   0  -4   6 2505.43 48.2692   3
   0  -4   6 2479.00 47.0904  16
   0   4   6 2439.14 46.6565   3
   0   4   6 2449.55 48.4181   5
   0   4  -6 2458.76 46.4801  14
   0   4   6 2480.73 46.8264  16
   0   4  -6 2451.61 43.5431  11
   0   4   6 2478.44 48.5007  12
   0   4  -6 2433.33 44.5633  10
   0   4  -6 2462.21 45.8033   4
   2  -4   6 1857.33 36.6981  12
  -2  -4  -6 1891.72 37.9934  10
   2  -4   6 1883.26 40.0536   3
  -2  -4  -6 1885.89 38.1333   2
   2  -4   6 1853.66 37.6279  16
  -2  -4  -6 1840.21 38.2628  14
  -2  -4  -6 1846.70 36.1096   6
  -2   4  -6 1856.20 38.7834   2
   2   4   6 1800.04 36.8776  16
   2   4   6 1822.99 39.5340  12
  -2   4  -6 1888.60 38.2737  14
  -2   4  -6 1882.76 36.3510   4
   2   4   6 1818.57 37.4156   3
   2   4   6 1853.64 39.1883   5
  -4  -4  -6 971.057 24.5163  14
  -4  -4  -6 949.409 24.8214   2
  -4  -4  -6 970.254 24.3768  10
   4  -4   6 971.065 22.5958   9
  -4   4  -6 1005.62 26.0701   2
   4   4   6 941.096 24.7560   5
   4   4   6 986.917 25.9585  12
  -4   4  -6 950.584 24.6657  14
  -6  -4  -6 183.787 10.1631  10
  -6  -4  -6 174.988 9.66567  14
   6  -4   6 201.083 11.9299   1
  -6  -4  -6 177.866 10.6299   2
   6   4   6 169.886 10.5025  12
  -6   4  -6 173.424 9.54061  14
  -6   4  -6 197.981 12.1027   2
  -6   4  -6 164.746 10.7699  15
 -11  -5   6 253.115 13.8119   8
 -11  -5   6 276.383 13.1402  15
  11  -5  -6 268.950 13.5947   1
  11  -5  -6 270.846 10.6752   7
 -11   5   6 260.824 14.6418   8
 -11   5   6 259.673 13.8067  15
  11   5  -6 259.247 10.6587   7
   9  -5  -6 448.788 16.7309   1
  -9  -5   6 467.202 17.4586   8
  -9  -5   6 465.898 16.4855  15
   9  -5  -6 472.347 14.2597   7
  -9   5   6 483.873 18.5170   8
   9   5  -6 454.876 13.4789  11
  -9   5   6 473.975 16.2391  15
  -7  -5   6 373.860 12.9072   3
   7  -5  -6 402.064 13.9630   1
  -7  -5   6 400.487 13.4289  15
   7  -5  -6 378.232 11.8022   7
  -7  -5   6 389.760 14.1347   8
   7   5  -6 377.907 11.2959  11
   7   5  -6 394.843 12.6329   5
  -7   5   6 406.225 14.5579   8
  -5  -5   6 301.206 10.5054   3
  -5  -5   6 302.500 11.5796   8
   5  -5  -6 302.313 8.41976  10
   5  -5  -6 301.100 9.49361   7
  -5  -5   6 299.264 10.2556  15
   5  -5  -6 297.847 8.99507   6
   5  -5  -6 301.318 10.7554   1
  -5   5   6 303.939 10.3731   8
   5   5  -6 311.600 9.15641  11
  -5   5   6 317.172 11.6785   3
  -5   5   6 296.635 9.62075  16
   5   5  -6 312.636 9.27687   4
  -3  -5   6 384.255 12.4000   8
  -3  -5   6 366.918 11.5350   3
  -3  -5   6 382.529 10.6524  15
   3  -5  -6 390.443 10.2613  10
   3  -5  -6 378.783 10.4554   7
   3  -5  -6 389.512 10.7384   6
   3   5  -6 379.413 10.0131  11
  -3   5   6 374.385 12.2009  12
   3   5  -6 375.140 10.8386   4
  -3   5   6 386.585 11.4967  16
  -3   5   6 370.434 11.7996   3
  -1  -5   6 765.658 19.3655   8
  -1  -5   6 761.269 18.7811  16
   1  -5  -6 772.403 16.9008   7
   1  -5  -6 777.532 17.8781  10
  -1  -5   6 781.113 19.2547   3
   1  -5  -6 790.837 17.9601   6
   1   5  -6 744.002 15.9977  11
  -1   5   6 772.768 18.6259  16
  -1   5   6 783.339 19.8033  12
  -1   5   6 763.317 20.0192   5
   1   5  -6 762.921 17.8511   4
   1   5  -6 758.803 17.8785  14
  -1   5   6 734.139 17.8927   3
   1   5  -6 756.428 16.2353  10
  -1  -5  -6 1015.33 22.7616   2
   1  -5   6 995.545 24.2321   3
  -1  -5  -6 980.664 21.9974   6
  -1  -5  -6 1003.18 22.7996  10
  -1  -5  -6 985.188 23.1014  14
  -1   5  -6 986.884 23.0261  14
   1   5   6 982.145 24.8278   5
   1   5   6 948.393 22.4985  16
   1   5   6 1009.46 24.8631  12
  -1   5  -6 977.460 21.8643   4
  -1   5  -6 977.923 23.3193   2
   1   5   6 959.592 22.2303   3
  -3  -5  -6 404.445 13.5790  14
  -3  -5  -6 379.105 11.7990   6
   3  -5   6 405.651 14.9124   3
  -3  -5  -6 381.032 13.4456   2
  -3  -5  -6 401.390 13.4566  10
   3   5   6 390.242 14.5387  12
  -3   5  -6 380.160 13.3084  14
  -3   5  -6 387.677 11.7083   4
  -3   5  -6 408.925 14.6971   2
   3   5   6 400.698 14.5164   5
   3   5   6 383.973 12.1636  16
  -5  -5  -6 90.8262 7.61106   2
   5  -5   6 93.0957 6.14444   9
   5  -5   6 103.603 8.99371   1
  -5  -5  -6 74.0243 6.26662  10
   5   5   6 88.7548 7.71272  12
   5   5   6 97.3046 7.58239   5
  -5   5  -6 90.0337 7.72323   2
  -5   5  -6 78.7032 6.67064  14
 -10  -6   6 175.970 10.6719  15
  10  -6  -6 149.056 7.74768   7
 -10  -6   6 159.818 10.7409   8
  10  -6  -6 166.046 10.5591   1
 -10   6   6 162.790 11.5589   8
  10   6  -6 156.097 7.67019  11
  -8  -6   6 250.437 11.4343  15
  -8  -6   6 275.463 12.5455   8
   8  -6  -6 258.339 9.78096   7
   8  -6  -6 257.314 11.9150   1
   8   6  -6 269.752 10.9028   5
   8   6  -6 253.193 9.40455  11
  -8   6   6 275.176 12.9558   8
  -6  -6   6 14.4935 3.37125  15
   6  -6  -6 14.2523 3.17644   1
   6  -6  -6 13.6665 2.39447   7
  -6  -6   6 16.8226 3.85523   8
   6  -6  -6 11.8229 2.22440   6
   6   6  -6 13.2887 2.35692  11
  -6   6   6 10.8650 2.32185  16
  -6   6   6 13.1111 3.04659   8
   6   6  -6 10.6285 2.45049   5
   6   6  -6 11.5572 2.41501   4
  -4  -6   6 6.10192 2.18415   3
  -4  -6   6 3.69586 1.83720  15
  -4  -6   6 4.25724 2.38309   8
   4  -6  -6 0.79915 1.35675   6
   4  -6  -6 6.12874 1.84579   7
   4  -6  -6 4.21834 1.33496  10
   4   6  -6 4.22478 1.67734  11
  -4   6   6 5.64815 2.31728   3
   4   6  -6 1.32644 1.71795   4
   4   6  -6 4.22609 1.36155  14
  -4   6   6 3.12036 2.13809  12
  -4   6   6 7.85229 2.13340  16
   2  -6  -6 69.3941 3.97515   7
  -2  -6   6 74.9580 5.04000   3
   2  -6  -6 75.7931 4.70143   6
  -2  -6   6 72.4264 5.48709   8
   2  -6  -6 66.7087 4.06236  10
   2   6  -6 64.6343 4.33785  14
  -2   6   6 71.3127 4.93289  16
   2   6  -6 69.9014 3.92827  11
  -2   6   6 68.6646 4.98976   3
   2   6  -6 80.3283 4.73227   4
  -2   6   6 80.1524 5.85436  12
   0  -6   6 193.317 8.77829   8
   0  -6  -6 197.591 7.88700  10
   0  -6  -6 182.000 7.49647   6
   0  -6  -6 184.051 7.48618   2
   0  -6   6 201.571 8.81370   3
   0   6   6 189.853 9.51012   5
   0   6   6 193.012 9.23993  12
   0   6  -6 191.668 8.28042  14
   0   6  -6 188.892 7.86895   4
   0   6   6 190.255 8.21957  16
   0   6  -6 198.393 6.49307  11
   2  -6   6 287.908 11.8238   3
   2  -6   6 262.658 11.1165   1
   2  -6   6 282.333 10.3032   9
  -2  -6  -6 282.070 10.7842   2
  -2  -6  -6 274.476 10.0376   6
  -2  -6  -6 295.211 10.8550  10
  -2   6  -6 281.372 9.96380   4
  -2   6  -6 274.083 11.0541  14
   2   6   6 288.291 12.0689  12
  -2   6  -6 259.668 11.5476   2
   2   6   6 278.966 11.9291   5
   2   6   6 264.122 10.1509  16
   4  -6   6 58.9229 5.65663   9
   4  -6   6 72.4493 7.89765   1
  -4  -6  -6 78.6212 6.69221   2
  -4  -6  -6 70.2344 6.69172  10
  -4  -6  -6 66.4319 5.17685   6
   4   6   6 68.7383 7.53248  12
   4   6   6 64.8464 7.05990   5
  -4   6  -6 60.1928 7.06230   2
  -4   6  -6 68.5697 6.83469  14
   6  -6   6 8.31706 4.35340   1
  -6  -6  -6 5.87361 3.32703  10
  -6  -6  -6 9.18747 3.49845   2
   6   6   6 3.44193 2.98165   5
  -6   6  -6 6.35982 4.73360   2
  -6   6  -6 4.14793 3.66562  14
   6   6   6 4.90603 2.73829  12
   9  -7  -6 137.107 7.43327   7
   9  -7  -6 149.238 9.99825   1
  -9  -7   6 146.250 9.78709   8
  -9  -7   6 151.520 9.72914  15
  -9   7   6 144.397 10.4360   8
   9   7  -6 154.493 8.58325   5
   9   7  -6 159.871 7.79583  11
   7  -7  -6 579.367 18.4185   1
   7  -7  -6 576.480 16.1042   7
  -7  -7   6 607.775 18.3809  15
  -7  -7   6 597.648 18.6089   8
   7   7  -6 595.514 16.8666   5
   7   7  -6 587.692 15.9471  11
  -7   7   6 557.592 18.2569   8
  -5  -7   6 799.583 21.4635   8
   5  -7  -6 772.580 18.8465   7
   5  -7  -6 754.596 18.2785   6
  -5  -7   6 772.967 19.7930  15
  -5   7   6 759.584 20.6701   3
   5   7  -6 744.682 18.5268   4
   5   7  -6 784.772 18.5304  11
   5   7  -6 777.221 18.3582   5
  -5   7   6 760.486 19.5601  16
  -3  -7   6 1404.79 31.3165   8
   3  -7  -6 1385.85 28.8957   6
   3  -7  -6 1349.80 28.3526   7
   3  -7  -6 1346.50 27.0997  10
  -3  -7   6 1337.49 27.6634   9
   3   7  -6 1341.63 27.6443  11
   3   7  -6 1380.64 29.1763   4
  -3   7   6 1365.85 30.2409  16
   3   7  -6 1328.72 27.9397  14
  -3   7   6 1381.23 30.5747  12
   1  -7  -6 494.040 13.5361  10
   1  -7  -6 504.325 14.2719   6
  -1  -7   6 493.218 14.3691   3
  -1  -7   6 508.596 13.7017   9
  -1  -7   6 503.889 15.6820   8
  -1   7   6 533.221 16.8519   5
  -1   7   6 477.674 15.2246  12
   1   7  -6 478.852 12.1336  11
  -1   7   6 504.558 15.0699  16
   1   7  -6 487.463 14.1627  14
   1   7  -6 505.701 14.3455   4
  -1  -7  -6 105.540 6.39199  10
  -1  -7  -6 115.754 6.67722   6
   1  -7   6 113.503 6.18196   9
  -1  -7  -6 118.920 6.72679   2
   1  -7   6 115.298 7.19806   3
   1  -7   6 107.335 6.59315   1
  -1   7  -6 116.619 6.76074   4
  -1   7  -6 120.443 6.91851  14
   1   7   6 115.176 8.46469   5
   1   7   6 105.459 6.27611  16
   1   7   6 103.198 7.55348  12
   3  -7   6 464.496 14.7397   9
  -3  -7  -6 485.340 15.8181   2
  -3  -7  -6 460.178 15.1396  10
   3  -7   6 482.877 17.1318   1
  -3  -7  -6 459.216 14.5282   6
   3   7   6 429.208 14.2238  16
   3   7   6 471.816 14.0241  11
   3   7   6 486.188 16.6770  12
   3   7   6 483.165 17.5340   5
  -3   7  -6 490.026 17.4692   2
  -3   7  -6 488.185 16.3702  14
  -3   7  -6 443.382 13.8047   4
  -5  -7  -6 346.692 14.3230   2
  -5  -7  -6 319.905 13.5712  10
   5  -7   6 328.134 12.6413   9
  -5   7  -6 334.833 15.6101   2
   5   7   6 344.311 14.8697   5
   5   7   6 331.379 14.2135  12
  -5   7  -6 321.524 14.1073  14
  10  -8  -6 152.245 10.0878   7
 -10  -8   6 153.237 10.2909  15
  10  -8  -6 128.012 10.0310   1
 -10  -8   6 151.852 9.39656   6
 -10   8   6 135.013 10.8001   8
  10   8  -6 145.557 7.91260  11
  -8  -8   6 8.55044 3.75886  15
   8  -8  -6 9.37875 3.61275   1
  -8  -8   6 7.74168 3.24256   8
   8  -8  -6 4.99496 2.00795   7
   8   8  -6 7.58081 2.36323  11
   8   8  -6 6.04402 2.76016   5
   6  -8  -6 61.2863 4.89971   7
  -6  -8   6 60.4356 6.28653   8
  -6  -8   6 63.9185 6.42544  15
   6  -8  -6 54.2107 5.92592   1
   6  -8  -6 64.6371 4.61326   9
   6  -8  -6 61.7013 4.56158   6
   6   8  -6 57.8958 4.74257   5
  -6   8   6 53.0358 4.78468  16
   6   8  -6 62.4814 5.61882  11
   6   8  -6 49.0289 4.77669   4
  -4  -8   6 10.5539 3.24141   8
  -4  -8   6 14.5109 2.40192   9
   4  -8  -6 17.3042 2.80558   7
   4  -8  -6 19.9657 3.31389   6
   4   8  -6 19.7301 3.17820  11
  -4   8   6 14.6413 3.56919  12
   4   8  -6 20.1797 3.47751   4
   4   8  -6 14.1866 2.66545  14
  -4   8   6 15.5097 3.05889  16
   2  -8  -6 6.39913 2.40429   6
  -2  -8   6 7.55478 2.77076   8
  -2  -8   6 3.60491 1.85970   9
   2   8  -6 4.81611 2.29401  14
  -2   8   6 6.88522 2.49226  16
   2   8  -6 1.85583 1.74794  11
   2   8  -6 3.54520 2.08675   4
  -2   8   6 4.47763 2.85387  12
  -2   8   6 3.63588 3.04511   5
   0  -8   6 285.792 10.3593   9
   0  -8  -6 306.950 11.2450   6
   0  -8   6 313.869 13.2359   3
   0  -8  -6 298.787 10.4700  10
   0   8   6 308.861 12.2666  12
   0   8   6 293.717 13.1492   5
   0   8  -6 299.591 10.8271   4
   0   8  -6 284.044 11.2989  14
   0   8   6 295.386 11.5169  16
  -2  -8  -6 112.342 7.13152  10
  -2  -8  -6 111.715 7.01828   6
  -2  -8  -6 102.914 7.02756   2
   2  -8   6 104.687 6.88052   9
   2   8   6 112.740 7.97324  12
  -2   8  -6 108.152 6.48286   4
   2   8   6 105.192 6.87497  16
   2   8   6 99.8723 6.46871  11
   2   8   6 113.662 8.41556   5
  -2   8  -6 97.4320 7.39828  14
  -4  -8  -6 2.02330 1.89325   2
  -4  -8  -6 -0.2442 2.45561  10
   4  -8   6 0.23271 2.45373   9
  -4  -8  -6 1.88235 2.56443   6
   4  -8   6 2.06096 3.31252   1
   4   8   6 4.00684 3.34616  12
   4   8   6 -3.2905 3.22121   5
  -4   8  -6 1.19775 3.57145   2
  -4   8  -6 2.59533 2.62642  14
  -9  -9   6 7.48704 3.70823  15
   9  -9  -6 10.1268 2.96019   7
  -9  -9   6 8.00713 3.12790   6
   9  -9  -6 19.3841 5.20772   1
   9   9  -6 10.9309 2.77254   5
   9   9  -6 12.0176 3.04764  11
   7  -9  -6 1.72292 2.76661   1
   7  -9  -6 5.66280 2.69150   9
  -7  -9   6 3.97482 3.03781  15
  -7  -9   6 4.33816 2.70705   8
   7  -9  -6 1.66840 2.30129   7
   7   9  -6 4.52923 2.28108   5
   7   9  -6 6.41947 2.85824  11
  -5  -9   6 501.196 15.9745  15
  -5  -9   6 524.402 17.1409   8
   5  -9  -6 516.189 14.6586   6
   5  -9  -6 517.756 15.0622   9
   5  -9  -6 521.492 15.2402   7
  -5   9   6 496.703 16.0153  16
   5   9  -6 526.722 15.3121   4
   5   9  -6 532.862 15.0748  11
  -5   9   6 485.514 18.4973  12
  -3  -9   6 66.0211 6.52883   8
   3  -9  -6 56.7571 5.45258   6
  -3  -9   6 59.7824 4.59859   9
   3   9  -6 61.3426 4.78528  11
  -3   9   6 57.8610 5.18520  16
   3   9  -6 55.1738 4.89336  14
  -3   9   6 63.6244 7.11742   5
   3   9  -6 59.6378 5.84908   4
  -3   9   6 57.3915 6.26840  12
   1  -9  -6 0.99020 2.11298   6
  -1  -9   6 3.03154 2.19739   9
   1   9  -6 2.47466 2.75344   4
  -1   9   6 -2.9453 2.36061  12
   1   9  -6 2.72573 1.63674  11
  -1   9   6 1.38013 3.07420   5
   1   9  -6 -3.1580 1.88212  14
  -1   9   6 0.08602 1.36608  16
   1  -9   6 26.0358 4.31866   9
  -1  -9  -6 32.0241 4.60274   6
  -1  -9  -6 39.1007 4.54896  10
   1   9   6 31.9407 4.54245  11
  -1   9  -6 29.5094 4.83129  14
   1   9   6 32.4108 5.93659   5
  -1   9  -6 23.9497 4.43964   4
   1   9   6 33.8514 4.97797  12
  -3  -9  -6 8.73430 3.23405  10
  -3  -9  -6 7.58839 3.20159   6
   3  -9   6 5.38143 2.77919   9
  -3   9  -6 7.11852 3.05475  14
  -3   9  -6 6.58357 2.38780   4
   3   9   6 10.3091 3.24912  11
   3   9   6 6.74573 4.02797   5
  -3   9  -6 14.2612 4.07953   2
   3   9   6 9.20660 3.71667  12
   8 -10  -6 141.543 7.50129   7
  -8 -10   6 150.360 9.34800   6
  -8 -10   6 139.459 9.14368  15
   8 -10  -6 140.695 9.79793   1
   8  10  -6 147.472 8.35953  11
   6 -10  -6 839.941 21.9725   9
   6 -10  -6 857.683 21.9766   7
  -6 -10   6 857.688 23.7349  15
  -6 -10   6 840.458 22.9880   6
  -6 -10   6 839.472 23.7638   8
   6  10  -6 830.612 21.9049   4
   6  10  -6 874.012 22.0832  11
  -6  10   6 1063.01 35.8324   5
  -4 -10   6 1122.83 26.8333   6
   4 -10  -6 1122.36 26.4539   6
  -4 -10   6 1151.97 28.9879   8
   4  10  -6 1086.67 25.7655  11
   4  10  -6 1153.95 27.5975   4
  -4  10   6 1158.73 29.8123   5
   2 -10  -6 405.201 13.7850   6
  -2 -10   6 425.198 15.4281   8
  -2 -10   6 389.018 13.1118   9
   2  10  -6 426.268 14.6869   4
  -2  10   6 421.063 16.7264   5
   2  10  -6 417.489 12.4855  11
   2  10  -6 418.812 14.0421  14
   0 -10  -6 907.716 23.6264   6
   0 -10   6 892.238 23.4050   9
   0  10  -6 894.984 24.1262  14
   0  10   6 912.561 26.7620   5
   0  10  -6 901.048 23.6931   4
   2 -10   6 451.786 15.6864   9
  -2 -10  -6 424.452 14.6501  10
  -2 -10  -6 426.119 15.1325   6
   2  10   6 443.656 18.0048   5
  -2  10  -6 427.591 14.8143   4
   2  10   6 426.075 14.4860  11
  -2  10  -6 452.417 16.2864  14
  -7 -11   6 147.995 9.22820  15
  -7 -11   6 145.498 9.37078   6
   7  11  -6 148.348 8.59513  11
   5 -11  -6 81.9155 5.96290   6
  -5 -11   6 96.0981 7.23313   6
   5  11  -6 101.380 6.91184  11
   5  11  -6 101.123 6.80365   4
  -5  11   6 98.8837 6.91265  11
  -3 -11   6 390.749 13.1062   9
  -3 -11   6 455.892 15.9569   8
   3 -11  -6 410.023 14.2295   6
   3  11  -6 412.163 14.1519  14
   3  11  -6 404.261 14.8461   4
  -3  11   6 405.738 14.4435  11
   3  11  -6 422.990 13.3120  11
  -3  11   6 421.606 16.7883   5
  -1 -11   6 78.6809 5.98704   9
   1 -11  -6 75.3745 6.88610   6
  -1  11   6 70.6861 6.03156  11
   1  11  -6 87.3907 7.57030   4
  -1  11   6 70.7270 8.13568   5
   1  11  -6 74.7711 6.35195  14
   1 -11   6 32.6182 5.22553   9
  -1 -11  -6 36.6538 4.91681   6
  -1  11  -6 29.6733 5.10072   4
   1  11   6 35.1115 5.07342  11
   1  11   6 30.7898 6.38071   5
  -1  11  -6 27.0940 5.30252  14
   4 -12  -6 3.23830 2.63789   6
  -4 -12   6 3.95800 2.94619   6
  -4  12   6 6.58155 3.23133  11
   4  12  -6 6.13060 2.70959   4
   4  12  -6 5.46507 2.33437  11
  -2 -12   6 51.1002 5.62156   9
   2 -12  -6 61.6295 6.14828   6
  -2  12   6 46.8672 6.49581   5
  -2  12   6 50.9414 6.19380  11
   2  12  -6 53.3867 6.34015  14
   2  12  -6 54.9988 6.57721   4
   0 -12  -6 21.7967 4.54686   6
   0 -12   6 19.6896 3.90277   9
   0  12   6 24.0717 5.09516   5
   0  12  -6 20.7696 4.15967   4
   0  12   6 18.7693 4.14753  11
   0  12  -6 18.7212 4.13539  14
 -12   0   7 -4.7184 3.80584  15
 -12   0   7 7.07768 4.86326   8
  12   0  -7 -0.5277 1.61194   7
 -10   0   7 1.51433 3.57831  15
  10   0  -7 -0.7396 1.17007   7
 -10   0   7 -1.0335 3.61758   8
  -8   0   7 1.77058 2.14177   8
   8   0  -7 0.60574 1.46014   7
  -8   0   7 0.50486 2.72212  15
   8   0  -7 0.27010 1.39215   1
  -6   0   7 1.28574 2.31650   3
  -6   0   7 2.13523 1.57689  15
   6   0  -7 0.59029 1.15560   4
   6   0  -7 1.81230 1.33631  10
  -6   0   7 6.29678 2.78803   8
   6   0  -7 -0.3313 1.16092   7
  -6   0   7 2.70929 1.37997  16
  -4   0   7 0.76468 1.86960  13
   4   0  -7 0.29707 1.05493  10
  -4   0   7 1.83580 2.02266   8
   4   0  -7 0.79302 0.65767   7
  -4   0   7 0.81710 1.32094  16
  -4   0   7 2.58302 2.42443   3
   4   0  -7 0.32055 0.79955   4
   4   0  -7 0.02304 0.70577  14
  -2   0   7 0.22547 1.64245  12
  -2   0   7 -1.3344 1.13325   8
  -2   0   7 1.88534 2.22610   3
   2   0  -7 -0.4987 1.17047  14
   2   0  -7 -0.2805 0.63011   7
   2   0  -7 -0.4925 1.02580  10
  -2   0   7 1.22168 1.04835  16
  -2   0   7 2.29923 1.86972  13
   2   0  -7 -1.4575 1.11914   4
   0   0   7 3.20290 2.36159  12
   0   0  -7 5.63044 1.74298  10
   0   0  -7 -0.1083 1.35034   2
   0   0   7 0.30701 1.20052   5
   0   0   7 1.96234 2.22698   3
   0   0   7 0.86037 1.54345  16
   0   0   7 7.41826 2.44308  13
   0   0  -7 -0.1978 1.15201  14
   0   0  -7 2.46883 1.22018   4
   0   0   7 2.75047 1.30318   8
   2   0   7 2.41055 2.44860  12
  -2   0  -7 9.43089 2.53078  10
  -2   0  -7 0.76143 1.36922   4
   2   0   7 -1.8275 1.94094   3
   2   0   7 -0.2348 1.30832  16
  -2   0  -7 1.48441 2.27423   2
  -2   0  -7 -0.8786 1.32600  14
   4   0   7 2.38303 2.75766  12
   4   0   7 -1.1743 2.37796   3
  -4   0  -7 -1.4070 2.22659  14
  -4   0  -7 0.09907 2.96526   2
  -4   0  -7 -2.2454 1.83056  10
  -6   0  -7 0.65031 2.11238  14
  -6   0  -7 -4.0200 3.65028   2
   6   0   7 -0.4464 2.74012  12
  -6   0  -7 1.92149 1.98766  10
 -11  -1   7 138.569 10.9923   8
 -11  -1   7 123.600 9.55655  15
  11  -1  -7 138.867 7.82892   7
 -11   1   7 148.196 10.0634  15
  11   1  -7 129.951 7.32808   7
 -11   1   7 121.369 10.0319   8
   9  -1  -7 2.03914 1.63861   7
  -9  -1   7 7.11951 3.91728   8
  -9  -1   7 0.71352 2.86219  15
   9  -1  -7 2.24755 2.04075   1
  -9   1   7 0.50020 3.38076   8
  -9   1   7 6.43525 3.93557  15
   9   1  -7 -1.2474 1.35582   7
  -7  -1   7 44.5552 3.35010  16
   7  -1  -7 53.5028 3.70767   7
  -7  -1   7 50.0729 5.87924   3
  -7  -1   7 53.7304 4.88345  15
   7  -1  -7 51.0016 4.22307   1
  -7  -1   7 53.0493 6.00033   8
   7   1  -7 49.6151 3.64706  11
  -7   1   7 52.2422 6.09436   3
  -7   1   7 47.7589 4.45229  15
   7   1  -7 46.6893 3.41764   7
   7   1  -7 47.2620 3.03875   4
  -7   1   7 51.8390 5.76682   8
  -7   1   7 48.6294 3.24360  16
   5  -1  -7 675.604 15.4364   7
  -5  -1   7 689.064 18.7321   3
   5  -1  -7 664.449 15.7018  10
   5  -1  -7 657.309 15.3299   4
  -5  -1   7 666.509 15.8188  16
  -5  -1   7 637.405 14.8468  15
  -5  -1   7 667.744 18.0171   8
   5   1  -7 673.418 15.7660  10
   5   1  -7 671.627 15.0918   7
  -5   1   7 675.542 15.7354  16
   5   1  -7 675.482 15.3738   4
  -5   1   7 677.597 17.6018   8
  -5   1   7 707.050 18.9617   3
   5   1  -7 697.548 15.5617  11
   3  -1  -7 755.209 16.9267   4
   3  -1  -7 732.569 15.8178   7
  -3  -1   7 753.912 18.0641   8
   3  -1  -7 746.393 16.9681  10
   3  -1  -7 744.776 16.1314  14
  -3  -1   7 768.351 17.8222  12
  -3  -1   7 754.773 17.3300  16
  -3  -1   7 716.577 21.7705  13
  -3  -1   7 777.964 19.4731   3
  -3   1   7 740.043 17.2357   8
  -3   1   7 733.809 17.1069  16
  -3   1   7 754.269 19.2975   3
   3   1  -7 738.712 15.4499   7
   3   1  -7 731.844 15.7731  14
   3   1  -7 758.800 16.8442   4
  -3   1   7 709.230 22.9690  13
  -3   1   7 748.389 18.4310  12
   3   1  -7 744.193 16.8376  10
  -1  -1   7 489.791 14.6373   3
  -1  -1   7 487.117 12.8664   8
   1  -1  -7 482.440 12.5778  10
   1  -1  -7 484.388 11.5812   6
  -1  -1   7 480.640 13.3004  12
  -1  -1   7 462.256 15.6477  13
   1  -1  -7 492.430 12.7504  14
   1  -1  -7 486.897 12.5955   4
   1  -1  -7 458.330 10.4289   7
  -1  -1   7 486.139 12.9820  16
  -1   1   7 462.872 11.6814   8
   1   1  -7 460.609 12.3479  14
   1   1  -7 478.863 12.4245  10
  -1   1   7 492.535 12.9841  16
  -1   1   7 498.214 14.5519   3
   1   1  -7 479.130 12.3546   4
  -1   1   7 500.744 14.2468  12
   1   1  -7 455.555 11.1595   2
  -1   1   7 481.556 17.4978  13
   1  -1   7 26.7439 4.23752   3
  -1  -1  -7 32.3668 3.68358  10
  -1  -1  -7 27.1286 3.34402   2
  -1  -1  -7 27.1745 3.63753  14
   1  -1   7 33.0621 4.16024  12
   1  -1   7 27.9645 3.40348  16
  -1  -1  -7 29.8819 2.54765   6
  -1  -1  -7 30.3805 3.41822   4
   1   1   7 35.9587 3.83913   5
  -1   1  -7 27.0933 3.12226  10
   1   1   7 24.0653 4.02695   3
   1   1   7 32.8977 4.64408  12
  -1   1  -7 24.9686 3.34249  14
   1   1   7 31.7590 3.35679  16
  -1   1  -7 28.2413 3.19619   4
  -1   1  -7 28.8801 3.60448   2
  -3  -1  -7 4.72995 2.40304  10
   3  -1   7 2.15543 2.68521   3
  -3  -1  -7 2.01438 2.62048   2
   3  -1   7 4.59436 2.79984  12
  -3  -1  -7 0.73589 1.71603  14
   3  -1   7 0.97148 1.53731  16
  -3   1  -7 2.31812 1.65670   4
  -3   1  -7 0.52285 1.97793   2
   3   1   7 8.60649 3.42209  12
  -3   1  -7 4.91294 2.15540  10
   3   1   7 4.96964 2.95760   3
  -3   1  -7 1.30705 2.43236  14
   3   1   7 2.19175 1.69416  16
  -5  -1  -7 196.716 10.2766  14
  -5  -1  -7 197.108 10.7897   2
  -5  -1  -7 199.637 9.77551  10
   5  -1   7 189.535 10.0148  12
  -5   1  -7 197.016 11.0857   2
  -5   1  -7 184.937 10.0793  14
   5   1   7 187.941 10.1273  12
 -12  -2   7 375.536 18.0106   8
 -12  -2   7 404.078 16.8933  15
  12  -2  -7 397.296 13.8084   7
 -12  -2   7 405.667 17.6226   3
 -12   2   7 366.004 16.3815  15
  12   2  -7 385.646 13.9990   7
 -12   2   7 368.631 18.6339   8
 -10  -2   7 503.410 19.2120   8
 -10  -2   7 475.195 18.0364   3
 -10  -2   7 485.247 17.0665  15
  10  -2  -7 464.360 16.0640   1
  10  -2  -7 509.373 15.2122   7
  10   2  -7 485.605 14.7730   7
 -10   2   7 483.172 19.0473   8
 -10   2   7 465.570 16.5325  15
  -8  -2   7 564.013 18.7110   8
   8  -2  -7 568.915 16.5901   1
  -8  -2   7 588.338 18.6154   3
   8  -2  -7 576.544 15.4791   7
  -8  -2   7 567.685 16.5205  15
  -8   2   7 594.318 19.1058   8
  -8   2   7 567.062 15.9569  15
   8   2  -7 582.370 14.9427  11
   8   2  -7 560.612 14.9929   7
  -6  -2   7 1424.94 31.9306   8
   6  -2  -7 1381.50 28.0680  10
  -6  -2   7 1363.76 28.0338  16
   6  -2  -7 1397.93 28.5254   7
  -6  -2   7 1410.08 31.6700   3
  -6  -2   7 1388.89 28.7286  15
   6   2  -7 1424.15 27.9432   7
  -6   2   7 1399.87 28.0607  16
  -6   2   7 1429.98 31.2483   8
   6   2  -7 1377.72 27.5129   4
  -6   2   7 1423.71 32.6362   3
   6   2  -7 1412.73 28.2272  11
   4  -2  -7 587.696 13.9328   7
  -4  -2   7 586.490 16.6520   3
   4  -2  -7 610.268 14.5072  10
  -4  -2   7 591.126 14.7193  16
  -4  -2   7 591.765 13.2850  15
  -4  -2   7 591.936 16.3489   8
   4   2  -7 611.401 14.4442  10
  -4   2   7 616.734 15.2529   8
   4   2  -7 608.435 13.9281  11
   4   2  -7 569.930 12.6086  14
  -4   2   7 604.271 14.7614  16
   4   2  -7 604.771 14.1767   4
   4   2  -7 560.291 19.3713  13
  -4   2   7 621.523 17.1704   3
   4   2  -7 592.585 13.2633   7
   2  -2  -7 689.362 15.4293   6
  -2  -2   7 653.984 19.1986  13
  -2  -2   7 684.190 16.4161  16
   2  -2  -7 672.626 16.1044  10
   2  -2  -7 690.321 14.6983   7
  -2  -2   7 671.778 18.0120   3
   2  -2  -7 678.353 15.8413  14
  -2  -2   7 704.938 17.0270   8
  -2  -2   7 669.343 16.2613  12
  -2   2   7 727.579 18.5123   3
   2   2  -7 692.429 15.6026  14
   2   2  -7 678.033 15.7337  10
   2   2  -7 676.880 13.8064   7
  -2   2   7 677.911 16.3882  16
   2   2  -7 693.784 15.9320   4
  -2   2   7 622.538 24.8453  13
  -2   2   7 667.858 17.4410  12
  -2   2   7 654.741 14.8246   8
   0  -2   7 1528.48 31.3704   8
   0  -2  -7 1504.91 29.4633   6
   0  -2   7 1527.75 31.2568  12
   0  -2   7 1492.18 31.0921  16
   0  -2  -7 1516.59 29.9053   2
   0  -2  -7 1540.92 31.4720  14
   0  -2  -7 1515.59 31.2470  10
   0  -2   7 1547.96 33.5497   3
   0   2   7 1526.34 33.0411  12
   0   2  -7 1413.52 29.8502   2
   0   2  -7 1528.99 31.1894  14
   0   2   7 1520.87 32.0240   5
   0   2  -7 1525.47 30.4484   4
   0   2   7 1515.79 32.6294   3
   0   2  -7 1509.65 30.2668  10
   0   2   7 1544.62 31.2152  16
  -2  -2  -7 546.852 15.3629   2
   2  -2   7 511.340 14.6105  16
  -2  -2  -7 539.919 15.4471  10
   2  -2   7 528.395 16.9697   3
  -2  -2  -7 525.871 15.6680  14
  -2  -2  -7 580.104 14.0419   6
   2  -2   7 526.306 15.3147  12
  -2   2  -7 543.703 15.8604  14
  -2   2  -7 546.100 14.3714  10
   2   2   7 541.968 15.5010   5
   2   2   7 526.879 16.7070  12
   2   2   7 549.906 16.3864   3
  -2   2  -7 526.743 15.6068   2
  -2   2  -7 547.163 14.2484   4
   2   2   7 514.546 14.4663  16
  -4  -2  -7 479.458 16.0181   2
  -4  -2  -7 453.871 15.5657  14
   4  -2   7 466.274 17.1758   3
   4  -2   7 467.450 15.3165  12
  -4  -2  -7 458.345 15.0508  10
  -4   2  -7 455.971 15.5706  14
   4   2   7 456.678 16.2428  12
   4   2   7 450.105 15.8890   3
  -4   2  -7 455.894 15.9330   2
  -4   2  -7 454.081 13.6548  10
   6  -2   7 374.408 14.4518  12
  -6  -2  -7 356.615 15.0000   2
  -6  -2  -7 347.540 13.9041  10
   6  -2   7 361.848 16.8075   1
  -6  -2  -7 364.724 14.5169  14
  -6   2  -7 348.120 14.4009  14
   6   2   7 369.994 15.4699  12
  -6   2  -7 362.361 15.3364   2
  11  -3  -7 48.1125 5.46075   7
 -11  -3   7 42.2289 6.61066   3
  11  -3  -7 29.8649 5.33616   1
 -11  -3   7 56.8499 7.59043  15
 -11  -3   7 48.2196 7.71033   8
 -11   3   7 29.6777 6.65731   8
  11   3  -7 38.4549 4.59604   7
 -11   3   7 34.1116 6.07474  15
  -9  -3   7 21.1451 5.39070   8
  -9  -3   7 9.06901 3.73379   3
   9  -3  -7 3.15596 2.57506   1
   9  -3  -7 9.75802 2.65340   7
  -9  -3   7 8.86289 3.85767  15
   9   3  -7 6.95225 2.39639   7
  -9   3   7 6.92426 3.19459   8
   9   3  -7 9.37886 2.50619  11
  -9   3   7 12.5563 3.77717  15
   7  -3  -7 140.521 7.31880   1
   7  -3  -7 132.448 6.33332   7
  -7  -3   7 137.415 7.03173  15
  -7  -3   7 139.256 8.04061   3
  -7  -3   7 142.564 8.20229   8
  -7   3   7 127.749 8.08250   8
   7   3  -7 129.233 5.36293   4
   7   3  -7 128.613 5.81659  11
  -5  -3   7 1.98001 1.48522  15
  -5  -3   7 0.08282 2.31548   8
  -5  -3   7 -0.8371 2.09698   3
   5  -3  -7 0.65520 1.25229   7
  -5  -3   7 0.43107 1.23259  16
   5  -3  -7 1.37773 1.34935  10
  -5   3   7 8.53723 2.06333  16
   5   3  -7 0.88248 1.26106  10
  -5   3   7 -1.7867 2.01527   3
   5   3  -7 0.11876 1.31688   4
   5   3  -7 2.00872 1.40419  11
  -5   3   7 1.31099 1.90728   8
  -3  -3   7 662.357 17.4173   8
   3  -3  -7 693.839 15.6843   6
  -3  -3   7 672.073 17.9397   3
  -3  -3   7 658.567 16.3711  16
   3  -3  -7 679.030 15.8544  10
  -3  -3   7 646.570 15.3709  12
   3  -3  -7 669.184 15.1376   7
   3   3  -7 638.626 14.7264  14
  -3   3   7 665.503 17.7848   3
   3   3  -7 648.246 13.8981   7
   3   3  -7 655.854 15.4368  10
  -3   3   7 658.247 15.0855   8
  -3   3   7 673.550 17.6386  12
   3   3  -7 662.029 14.9630  11
   3   3  -7 667.272 15.7451   4
  -3   3   7 669.381 16.3530  16
   1  -3  -7 20.9088 3.01369  14
   1  -3  -7 22.6403 2.71246   6
  -1  -3   7 10.3785 2.43561   8
  -1  -3   7 17.4391 2.77661  16
   1  -3  -7 15.3865 2.54737  10
  -1  -3   7 21.4009 3.82836   3
   1  -3  -7 17.9426 2.16921   7
  -1  -3   7 14.8161 2.58209  12
  -1   3   7 21.5922 3.69294   3
   1   3  -7 21.2622 2.29470  11
   1   3  -7 10.4564 2.35371   4
  -1   3   7 17.0793 3.54472  12
   1   3  -7 18.4928 2.47416   2
  -1   3   7 19.2000 2.74124  16
   1   3  -7 19.1175 2.46128  10
   1   3  -7 19.2085 2.89403  14
  -1  -3  -7 138.795 6.85725  10
  -1  -3  -7 147.545 7.32614  14
   1  -3   7 142.691 6.63553  12
  -1  -3  -7 136.458 6.45279   2
  -1  -3  -7 124.270 5.65116   6
   1  -3   7 129.710 6.57759  16
   1  -3   7 146.573 8.19338   3
   1   3   7 136.652 6.56683  16
  -1   3  -7 128.182 7.02690  14
   1   3   7 139.085 7.61823   5
  -1   3  -7 143.452 7.12797   2
   1   3   7 144.972 7.37662   3
  -1   3  -7 133.128 5.85344  10
   1   3   7 126.124 7.94472  12
  -1   3  -7 133.589 6.37416   4
   3  -3   7 4.44936 3.10396   3
   3  -3   7 3.93248 2.31863  12
  -3  -3  -7 2.16029 2.31470  10
  -3  -3  -7 1.65495 2.31837  14
  -3  -3  -7 -1.8348 2.09355   2
  -3   3  -7 -0.9143 2.96726   2
   3   3   7 -1.3350 1.91726   3
   3   3   7 -3.5265 2.52842  12
  -3   3  -7 3.77587 1.88525   4
  -3   3  -7 -0.2000 2.62427  14
   3   3   7 0.93934 2.45187   5
  -5  -3  -7 18.9600 4.33084  10
  -5  -3  -7 21.3288 4.41007  14
  -5  -3  -7 22.3532 4.77460   2
  -5   3  -7 25.8954 4.83783   2
  -5   3  -7 22.5126 4.73524  14
   5   3   7 32.0627 5.85300  12
  10  -4  -7 285.198 13.0552   1
 -10  -4   7 310.939 13.5275  15
 -10  -4   7 290.116 14.5525   8
  10  -4  -7 303.981 11.4476   7
  10   4  -7 299.943 11.1677   7
 -10   4   7 318.201 15.4833   8
  10   4  -7 291.013 10.6209  11
  -8  -4   7 754.490 22.6119   8
  -8  -4   7 730.382 21.0428   3
   8  -4  -7 793.573 19.4766   7
  -8  -4   7 727.213 20.4086  15
   8  -4  -7 754.741 21.0261   1
   8   4  -7 781.651 18.8759  11
  -8   4   7 806.365 22.9918   8
  -6  -4   7 45.7506 5.23440   3
   6  -4  -7 35.8324 3.63329   7
  -6  -4   7 38.8242 5.21792   8
   6  -4  -7 46.6018 3.27572  10
  -6  -4   7 44.3121 4.53742  15
   6   4  -7 38.7048 3.38654   4
  -6   4   7 41.4124 4.92173   8
   6   4  -7 36.9549 3.14980  11
  -6   4   7 52.3592 6.00862   3
  -6   4   7 39.1228 3.49385  16
   4  -4  -7 355.510 10.2415   7
   4  -4  -7 351.223 10.1652   6
  -4  -4   7 336.615 9.85932  15
  -4  -4   7 357.859 12.2419   8
   4  -4  -7 363.386 10.2242  10
  -4  -4   7 352.146 10.9821  16
  -4  -4   7 320.039 11.7239   3
  -4   4   7 349.013 12.3692   3
   4   4  -7 351.909 10.0232  10
  -4   4   7 321.387 10.0908   8
   4   4  -7 359.045 9.92513  11
  -4   4   7 360.017 10.9289  16
   4   4  -7 356.815 10.3351   4
   4   4  -7 342.467 14.1646  13
   4   4  -7 333.881 8.96204  14
  -4   4   7 352.091 12.0508  12
  -2  -4   7 419.005 13.1959   8
   2  -4  -7 423.740 11.8558  10
  -2  -4   7 425.498 12.5346  16
  -2  -4   7 451.645 13.7947   3
   2  -4  -7 428.203 10.9825   7
   2  -4  -7 434.968 11.8282   6
  -2   4   7 411.220 13.5322  12
  -2   4   7 435.054 12.6192  16
   2   4  -7 403.454 10.5421  11
   2   4  -7 426.250 11.8250   4
   2   4  -7 414.284 11.0796  10
  -2   4   7 431.352 13.3899   3
   2   4  -7 421.406 11.5972  14
   0  -4  -7 81.0422 5.20846  10
   0  -4  -7 76.7703 4.50334   2
   0  -4   7 81.7031 5.64604   8
   0  -4  -7 79.0508 5.27922  14
   0  -4  -7 89.4012 4.97225   6
   0  -4   7 83.4710 6.16290   3
   0  -4   7 81.9883 5.39009  16
   0   4   7 76.7020 6.32909  12
   0   4   7 70.7650 5.24289   3
   0   4   7 75.8106 5.07463  16
   0   4  -7 86.1478 5.22229   4
   0   4  -7 81.9836 5.42272  14
   0   4  -7 95.6429 5.51999   2
   0   4  -7 80.8103 4.25358  10
   0   4   7 81.4428 6.14164   5
  -2  -4  -7 768.095 20.0132   2
  -2  -4  -7 766.737 20.6030  14
   2  -4   7 748.777 21.8673   3
  -2  -4  -7 777.287 20.3138  10
   2  -4   7 789.477 20.0833  16
  -2  -4  -7 764.101 18.3170   6
  -2   4  -7 774.336 18.8386   4
   2   4   7 748.199 19.1232  16
   2   4   7 797.851 22.1484  12
  -2   4  -7 745.928 20.6793   2
  -2   4  -7 780.573 20.6774  14
   2   4   7 787.286 21.4719   5
  -4  -4  -7 232.443 10.9740   2
  -4  -4  -7 221.642 10.6042  14
  -4  -4  -7 218.371 10.2211  10
   4  -4   7 224.151 9.22608   9
   4   4   7 237.847 11.8652  12
   4   4   7 213.698 10.5152   5
  -4   4  -7 221.615 11.5072   2
  -4   4  -7 208.544 10.6819  14
  -6  -4  -7 1.01197 2.66606  14
   6  -4   7 -0.6520 3.44008   1
  -6  -4  -7 1.68723 3.22089  10
  -6  -4  -7 3.60391 3.55215   2
  -6   4  -7 6.65002 3.98684  14
  -6   4  -7 4.80281 4.52690   2
   6   4   7 2.74641 5.42561  12
 -11  -5   7 15.7976 5.37372   8
  11  -5  -7 8.04295 3.82253   1
 -11  -5   7 13.8451 4.81246  15
  11  -5  -7 12.7135 2.92142   7
  11   5  -7 14.8655 3.32416  11
 -11   5   7 28.1112 6.48323   8
  11   5  -7 18.2590 3.72519   7
   9  -5  -7 891.299 24.8933   1
  -9  -5   7 905.161 26.0348   8
  -9  -5   7 867.322 23.9975  15
   9  -5  -7 824.667 21.7575   7
  -9   5   7 896.081 26.5030   8
   9   5  -7 879.894 21.4655  11
   7  -5  -7 344.418 11.2835   7
  -7  -5   7 335.526 13.6910   8
   7  -5  -7 321.463 12.4200   1
  -7  -5   7 322.903 12.1353   3
  -7  -5   7 325.713 12.0070  15
   7   5  -7 333.640 9.96719   4
  -7   5   7 351.661 13.1624   8
   7   5  -7 340.082 10.6460  11
   5  -5  -7 24.2311 2.75030  10
   5  -5  -7 27.5622 3.19473   6
  -5  -5   7 25.8725 3.44883  15
  -5  -5   7 22.1911 4.05816   8
   5  -5  -7 23.8572 3.11468   7
  -5  -5   7 21.6743 3.77206   3
   5   5  -7 21.2945 2.65890  11
   5   5  -7 27.7853 3.37990   4
  -5   5   7 18.9203 3.92455   3
  -5   5   7 24.5729 3.28933  16
   3  -5  -7 339.097 10.2035  10
  -3  -5   7 342.733 11.7986   3
   3  -5  -7 349.698 10.1299   7
  -3  -5   7 359.101 12.3301   8
   3  -5  -7 345.739 10.5377   6
  -3  -5   7 335.848 11.3395  16
   3   5  -7 352.793 9.93779  14
  -3   5   7 345.202 11.9904   3
   3   5  -7 341.007 9.72933  11
  -3   5   7 338.151 11.2243  16
   3   5  -7 357.365 9.91112  10
   3   5  -7 354.522 10.9258   4
  -3   5   7 349.793 12.3262  12
  -1  -5   7 34.6061 4.53997   3
  -1  -5   7 33.4066 4.21135   8
  -1  -5   7 31.8977 3.91707  16
   1  -5  -7 42.7553 3.51003   6
   1  -5  -7 37.4296 3.48737   7
   1  -5  -7 34.0928 3.65072  10
   1   5  -7 36.8387 2.74862  11
  -1   5   7 34.2408 4.72172  12
  -1   5   7 35.5184 4.23971   3
   1   5  -7 46.1868 3.08780  10
  -1   5   7 33.4748 3.92450  16
   1   5  -7 36.9707 3.90191   4
  -1   5   7 38.2747 4.61752   5
   1   5  -7 40.4729 3.65223  14
  -1  -5  -7 358.184 12.4088  14
  -1  -5  -7 375.338 12.3657  10
   1  -5   7 376.536 13.6368   3
  -1  -5  -7 351.786 11.5535   2
  -1  -5  -7 343.715 11.1289   6
   1   5   7 348.977 13.5679   5
   1   5   7 341.748 13.6074  12
   1   5   7 339.722 11.6893  16
  -1   5  -7 346.772 12.4659   2
  -1   5  -7 365.932 11.6733   4
  -1   5  -7 363.653 12.2498  14
  -3  -5  -7 783.181 21.7634  14
   3  -5   7 805.484 23.7159   3
  -3  -5  -7 777.681 21.4094   2
  -3  -5  -7 801.615 21.6867  10
  -3  -5  -7 761.085 19.2519   6
  -3   5  -7 801.737 22.9582   2
   3   5   7 807.619 23.4115  12
  -3   5  -7 774.510 19.4701   4
   3   5   7 796.839 22.8487   5
  -3   5  -7 783.763 21.8380  14
  -5  -5  -7 9.45348 3.51197   2
   5  -5   7 8.15388 2.81907   9
   5  -5   7 10.8412 4.33172   1
  -5  -5  -7 7.76816 2.95194  10
   5   5   7 1.28120 3.02483   5
   5   5   7 15.0700 4.67532  12
  -5   5  -7 7.21731 4.64095   2
  -5   5  -7 7.65952 3.90346  14
  10  -6  -7 47.7708 5.18522   7
 -10  -6   7 45.0440 6.73701   8
  10  -6  -7 52.9842 7.07847   1
 -10  -6   7 55.3425 7.18407  15
  10   6  -7 50.2600 4.95336  11
 -10   6   7 35.1166 6.72081   8
  -8  -6   7 146.756 9.87225   8
   8  -6  -7 124.876 8.59007   1
  -8  -6   7 145.431 8.74091  15
   8  -6  -7 130.111 6.89377   7
  -8   6   7 153.972 9.60882   8
   8   6  -7 157.445 7.44215  11
  -6  -6   7 10.8487 3.49865   8
  -6  -6   7 16.2329 3.32985  15
   6  -6  -7 11.7116 2.51838   6
   6  -6  -7 10.3036 2.47406   7
   6   6  -7 11.1005 2.64337   4
  -6   6   7 9.38444 3.59991   3
   6   6  -7 12.9533 2.33072  11
  -6   6   7 10.8168 2.48867  16
  -4  -6   7 729.825 20.0182   8
   4  -6  -7 706.061 16.5977  10
  -4  -6   7 711.260 17.6828  15
   4  -6  -7 704.177 17.3878   6
   4  -6  -7 708.698 17.3456   7
  -4  -6   7 704.019 18.6334   3
  -4   6   7 736.703 19.8981  12
   4   6  -7 698.941 17.3891   4
  -4   6   7 695.749 19.1777   3
  -4   6   7 705.161 18.5600  16
   4   6  -7 738.954 16.9807  11
   4   6  -7 695.284 16.2736  14
   2  -6  -7 621.945 15.6412  10
  -2  -6   7 614.866 17.1905   3
   2  -6  -7 597.670 15.9767   6
  -2  -6   7 627.829 18.0254   8
   2  -6  -7 613.245 15.1441   7
  -2   6   7 604.437 16.8949  16
   2   6  -7 614.477 14.5194  11
  -2   6   7 598.536 17.8406  12
  -2   6   7 604.792 18.2965   5
   2   6  -7 604.181 14.2730  10
  -2   6   7 586.370 16.2512   3
   2   6  -7 618.385 15.7318  14
   2   6  -7 643.075 16.4209   4
   0  -6  -7 -1.5422 1.63938   6
   0  -6  -7 0.82347 1.43256   2
   0  -6  -7 1.89202 1.97067  10
   0  -6   7 1.47233 2.54204   3
   0   6  -7 3.46229 2.46961   4
   0   6  -7 4.04319 2.64921  14
   0   6   7 0.79909 1.82291  16
   0   6   7 -0.5964 2.90751  12
   0   6   7 0.77548 2.69803   5
  -2  -6  -7 144.150 7.34331   6
   2  -6   7 166.469 9.52946   3
   2  -6   7 142.277 7.47548   9
  -2  -6  -7 141.185 7.79214   2
  -2  -6  -7 134.001 7.60771  10
   2   6   7 144.706 9.30895  12
  -2   6  -7 151.573 8.69715  14
   2   6   7 130.756 7.31447  16
   2   6   7 130.111 9.31867   5
  -2   6  -7 138.614 7.41490   4
  -2   6  -7 142.146 8.66190   2
   4  -6   7 92.3210 8.52814   1
  -4  -6  -7 104.926 7.67435   2
   4  -6   7 88.0691 6.45974   9
  -4  -6  -7 85.3785 6.80454  10
   4   6   7 82.7121 7.79013   5
  -4   6  -7 90.5021 7.97975  14
  -4   6  -7 91.5869 9.34259   2
   4   6   7 90.7369 7.91564  12
   9  -7  -7 92.8810 8.17411   1
   9  -7  -7 84.4112 6.17848   7
  -9  -7   7 91.4225 7.78837  15
  -9  -7   7 83.0267 7.43009   8
   9   7  -7 80.3296 5.58805  11
  -9   7   7 94.7037 8.69193   8
   7  -7  -7 387.721 12.7949   7
  -7  -7   7 399.191 13.9818  15
   7  -7  -7 392.815 14.7615   1
  -7  -7   7 397.612 15.1685   8
  -7   7   7 390.384 15.5497   3
   7   7  -7 369.508 12.2318  11
  -5  -7   7 261.981 10.2197  15
   5  -7  -7 272.112 9.72763   6
   5  -7  -7 261.479 9.54465   7
  -5  -7   7 266.660 11.6216   8
   5   7  -7 283.881 9.61722  11
  -5   7   7 254.723 11.2634   3
  -5   7   7 265.652 11.4346  12
  -5   7   7 248.828 10.1538  16
   5   7  -7 289.237 10.1235   4
   3  -7  -7 8.52246 2.38911   7
   3  -7  -7 6.04922 1.79320  10
  -3  -7   7 5.58880 2.69150   8
   3  -7  -7 7.60548 2.36276   6
  -3  -7   7 9.63095 3.09589   3
   3   7  -7 8.72215 2.75993   4
  -3   7   7 16.4524 3.91396  12
   3   7  -7 13.9188 2.65478  14
  -3   7   7 10.4560 2.77097  16
   3   7  -7 11.9809 2.30587  11
   1  -7  -7 243.467 9.63710   6
  -1  -7   7 253.893 11.0252   8
  -1  -7   7 261.414 10.4704   3
   1  -7  -7 237.563 9.25720  10
   1   7  -7 241.756 7.82409  11
   1   7  -7 247.222 9.60301  14
  -1   7   7 239.420 11.6902   5
  -1   7   7 261.750 11.6058  12
  -1   7   7 249.897 10.3355  16
   1   7  -7 243.696 9.48279   4
  -1  -7  -7 403.512 13.3736   2
  -1  -7  -7 414.222 13.7451  10
  -1  -7  -7 408.431 13.3440   6
   1  -7   7 403.994 14.9489   3
   1  -7   7 442.681 13.9139   9
  -1   7  -7 409.814 14.3909  14
   1   7   7 423.670 16.3916   5
  -1   7  -7 406.805 14.7495   2
   1   7   7 391.861 13.8023  16
   1   7   7 416.571 15.1860  12
  -1   7  -7 423.637 13.5170   4
  -3  -7  -7 70.0398 6.83986   2
  -3  -7  -7 63.2446 6.34970  10
   3  -7   7 76.9587 8.34173   1
  -3  -7  -7 61.4703 5.72635   6
   3  -7   7 62.0336 5.98062   9
  -3   7  -7 67.3614 5.53483   4
  -3   7  -7 68.3620 7.81217   2
  -3   7  -7 69.0235 7.47821  14
   3   7   7 71.2468 7.94561   5
   3   7   7 78.7295 8.09933  12
  10  -8  -7 96.3904 8.93217   1
  10  -8  -7 79.8494 6.20379   7
  10   8  -7 94.0067 6.73778  11
  -8  -8   7 45.9438 5.89342  15
  -8  -8   7 41.7015 6.08259   8
   8  -8  -7 43.5440 4.56225   7
   8  -8  -7 31.9569 5.13401   1
   8   8  -7 42.2474 4.52958  11
  -8   8   7 30.5552 5.61002   3
   6  -8  -7 640.069 16.9638   6
  -6  -8   7 679.338 19.1686  15
   6  -8  -7 654.349 17.8116   7
  -6  -8   7 666.119 20.3241   8
  -6   8   7 646.541 19.7778  12
   6   8  -7 655.105 17.3066  11
  -6   8   7 611.498 18.0873  16
   6   8  -7 665.319 17.5595   4
  -4  -8   7 726.181 20.8899   8
   4  -8  -7 707.589 18.2644   7
  -4  -8   7 689.850 17.1041   9
   4  -8  -7 697.205 18.3584   6
   4   8  -7 708.526 18.8645   4
  -4   8   7 674.607 19.5684  16
   4   8  -7 719.859 17.6229  11
  -4   8   7 692.706 20.0189  12
  -2  -8   7 534.926 15.0448   9
   2  -8  -7 511.059 14.3416  10
  -2  -8   7 548.118 17.6529   8
   2  -8  -7 542.422 15.8977   6
   2   8  -7 528.733 15.5082  14
  -2   8   7 536.500 16.7673  16
   2   8  -7 538.607 15.9872   4
  -2   8   7 539.522 17.3573  12
  -2   8   7 545.040 18.5436   5
   2   8  -7 507.578 13.6023  11
   0  -8  -7 514.381 15.7922   6
   0  -8  -7 545.299 15.8740  10
   0  -8   7 521.387 15.6840   9
   0  -8   7 524.298 16.7513   3
   0   8   7 550.723 19.3054   5
   0   8   7 514.545 16.5606  16
   0   8  -7 517.511 16.3337  14
   0   8   7 534.000 17.8081  12
   0   8  -7 529.768 16.0752   4
  -2  -8  -7 56.4661 5.97273   6
   2  -8   7 55.1234 5.86679   9
  -2  -8  -7 62.5378 6.29671  10
  -2   8  -7 63.6447 6.09036   4
   2   8   7 67.7452 6.19414  11
  -2   8  -7 59.2825 6.81885  14
   2   8   7 56.5059 6.68012  12
   2   8   7 54.8673 7.28356   5
  -2   8  -7 50.6200 6.59523   2
  -4  -8  -7 128.542 8.76581   2
   4  -8   7 130.026 8.04669   9
  -4  -8  -7 120.810 8.11292  10
  -4  -8  -7 158.869 11.4795   6
   4   8   7 115.439 8.79058  12
  -4   8  -7 117.434 9.24792  14
   4   8   7 130.046 10.1169   5
  -4   8  -7 125.120 9.98608   2
  -9  -9   7 4.48358 3.23820  15
   9  -9  -7 3.38120 2.87089   1
   9  -9  -7 7.63213 2.69334   7
   9   9  -7 6.88237 2.53734  11
   7  -9  -7 4.60028 2.52661   7
  -7  -9   7 1.16921 2.76918   8
  -7  -9   7 0.27270 2.55497  15
  -7   9   7 6.78476 4.87143  12
   7   9  -7 5.27837 2.84856  11
  -5  -9   7 78.3254 6.48114   8
   5  -9  -7 73.2387 5.66067   6
   5  -9  -7 68.7822 5.65425   7
  -5   9   7 81.6424 7.29457  12
  -5   9   7 64.3254 7.16033   5
   5   9  -7 94.2640 6.12675  11
   5   9  -7 89.6397 6.69597   4
  -5   9   7 72.8555 6.78008  16
  -3  -9   7 39.9695 5.56318   8
  -3  -9   7 30.5128 3.82199   9
   3  -9  -7 38.5595 4.69162   6
   3   9  -7 26.5689 3.85247  14
  -3   9   7 31.2396 5.53209   5
   3   9  -7 30.7616 3.53081  11
   3   9  -7 27.6944 4.49400   4
  -3   9   7 27.8151 4.84285  12
   1  -9  -7 61.2192 5.14561   6
  -1  -9   7 65.5237 6.10831   9
   1   9  -7 59.8027 6.01307   4
  -1   9   7 52.3419 6.21741  12
   1   9  -7 71.0792 6.22038  14
  -1   9   7 60.1995 7.07637   5
   1  -9   7 17.4946 3.83388   9
  -1  -9  -7 15.9375 3.57840  10
  -1  -9  -7 13.7803 3.52708   6
   1   9   7 17.3152 5.28183   5
   1   9   7 9.64563 3.77573  12
  -1   9  -7 15.0211 3.97554   4
   1   9   7 23.0437 4.03067  11
  -1   9  -7 14.1811 4.11023  14
   3  -9   7 9.34831 3.52787   9
  -3  -9  -7 13.6803 3.81501  10
  -3  -9  -7 16.3279 3.87206   6
   3   9   7 13.0816 4.18089  12
   3   9   7 19.6080 4.53220   5
  -3   9  -7 11.7895 3.60403  14
  -3   9  -7 13.5793 4.61453   2
  -8 -10   7 16.7850 4.38494   6
   8 -10  -7 13.1158 3.58624   7
  -8 -10   7 13.0793 3.98759  15
   8  10  -7 15.7143 3.81596  11
   6 -10  -7 1.53938 2.47386   7
  -6 -10   7 -1.8026 2.45398   8
   6 -10  -7 5.44316 2.41078   6
  -6 -10   7 -0.1759 2.70363   6
   6  10  -7 5.74963 3.02791   4
   6  10  -7 -0.1466 2.51118  11
  -6  10   7 1.72445 1.97287   5
  -4 -10   7 114.282 8.18950   8
   4 -10  -7 103.817 6.93221   6
  -4 -10   7 113.790 7.09769   6
   4  10  -7 101.527 7.38208   4
   4  10  -7 103.633 6.53044  11
  -4  10   7 117.519 9.06008   5
  -2 -10   7 104.880 6.84335   9
   2 -10  -7 117.758 7.55215   6
  -2  10   7 117.124 9.58720   5
   2  10  -7 115.761 7.18359  14
   2  10  -7 100.690 5.76268  11
   2  10  -7 126.425 8.30585   4
   0 -10  -7 1.91854 2.93624   6
   0 -10   7 3.20380 2.82112   9
   0  10  -7 11.2316 3.90178  14
   0  10  -7 8.56979 3.64463   4
   0  10   7 6.84524 2.99124  11
   0  10   7 5.11685 4.25109   5
  -2 -10  -7 26.0194 4.77881  10
  -2 -10  -7 26.4893 4.62283   6
   2 -10   7 16.0494 4.00523   9
  -2  10  -7 34.0078 5.86139  14
  -2  10  -7 22.6499 5.02405   2
  -2  10  -7 17.8198 4.02786   4
   2  10   7 28.4307 5.48933   5
   2  10   7 25.1304 3.86935  11
  -5 -11   7 182.754 9.70753   6
  -5 -11   7 199.277 10.7950   8
   5 -11  -7 184.692 9.02472   6
   5  11  -7 199.876 10.1248   4
   5  11  -7 203.871 9.42978  11
  -5  11   7 202.431 11.7696   5
  -3 -11   7 219.529 9.60437   9
   3 -11  -7 233.577 10.6199   6
   3  11  -7 212.450 10.3099  14
  -3  11   7 239.805 13.4542   5
   3  11  -7 229.950 9.41321  11
   3  11  -7 247.294 11.4809   4
  -1 -11   7 276.475 11.5586   9
   1 -11  -7 294.539 12.4156   6
   1  11  -7 308.837 13.0429   4
  -1  11   7 287.320 14.2198   5
   1  11  -7 299.057 12.8687  14
  -1  11   7 305.116 12.9253  11
  12   0  -8 1661.60 36.8622   7
 -12   0   8 1593.79 42.6423   8
 -12   0   8 1585.54 42.5158   3
 -10   0   8 522.608 17.1601  15
 -10   0   8 551.531 20.6534   3
  10   0  -8 557.113 16.2460   7
 -10   0   8 551.167 20.4691   8
  -8   0   8 847.376 20.7593  15
  -8   0   8 854.909 24.3526   8
  -8   0   8 842.096 24.7116   3
   8   0  -8 833.922 20.3413   7
  -6   0   8 2088.80 44.1423   3
   6   0  -8 2061.45 39.3658   7
  -6   0   8 2025.96 39.5700  16
   6   0  -8 2069.13 39.8688  10
   6   0  -8 1986.80 38.9241   4
  -6   0   8 2055.95 42.8346   8
  -4   0   8 1798.67 35.4418  16
  -4   0   8 1774.07 36.2096   8
   4   0  -8 1694.62 34.3568   4
  -4   0   8 1746.60 36.3161  12
   4   0  -8 1768.30 33.5258   7
   4   0  -8 1776.70 34.9760  10
  -4   0   8 1787.91 38.4161   3
   2   0  -8 4638.28 81.4190  14
  -2   0   8 4673.21 85.1686   3
  -2   0   8 4652.46 81.9146   8
  -2   0   8 4351.72 89.5084  13
   2   0  -8 4581.92 81.9142  10
  -2   0   8 4665.65 82.6158  16
  -2   0   8 4692.19 83.7646  12
   2   0  -8 4510.87 78.9300   7
   2   0  -8 4628.89 81.7712   4
   0   0  -8 2648.80 50.5817  10
   0   0  -8 2714.51 50.4489   4
   0   0  -8 2674.70 51.1059  14
   0   0   8 2661.93 53.6187   3
   0   0   8 2714.60 52.6110  12
   0   0   8 2527.18 49.7655   5
   0   0   8 2651.81 50.8409  16
  -2   0  -8 316.434 12.0310  14
  -2   0  -8 319.628 11.6130   2
   2   0   8 310.058 11.0361  16
   2   0   8 330.874 12.7694  12
   2   0   8 309.148 13.0825   3
  -2   0  -8 327.167 11.5147  10
   4   0   8 806.591 23.0714  12
  -4   0  -8 797.080 22.6121  14
  -4   0  -8 764.207 22.4185   2
   4   0   8 826.969 24.5815   3
  -4   0  -8 805.093 21.7214  10
 -11  -1   8 15.7299 4.84225  15
  11  -1  -8 12.1990 3.21920   7
 -11  -1   8 13.9604 5.77630   8
 -11  -1   8 8.46092 4.45434   3
 -11   1   8 11.2227 4.47676  15
  11   1  -8 3.99682 2.54684   7
 -11   1   8 9.35855 5.17305   8
  -9  -1   8 123.209 9.30242   3
  -9  -1   8 121.152 9.53029   8
  -9  -1   8 133.506 8.22551  15
   9  -1  -8 114.365 6.67021   7
   9   1  -8 130.487 6.91336   7
  -9   1   8 130.372 9.50866   8
  -9   1   8 119.174 9.39750   3
   7  -1  -8 46.2270 3.84716   7
  -7  -1   8 43.7597 3.54925  16
  -7  -1   8 43.8493 5.79025   3
   7  -1  -8 52.7722 4.03527  10
  -7  -1   8 45.5475 4.34785  15
  -7  -1   8 48.5433 5.88956   8
   7   1  -8 48.3890 3.48590   4
  -7   1   8 46.5356 6.10382   3
  -7   1   8 38.0191 3.35299  16
   7   1  -8 49.5160 3.60639   7
  -7   1   8 48.6132 5.98673   8
  -5  -1   8 125.707 7.85536   3
  -5  -1   8 125.407 6.07294  16
   5  -1  -8 129.469 5.71757   4
   5  -1  -8 118.181 5.73231  10
  -5  -1   8 121.237 7.34484   8
   5  -1  -8 118.574 5.38404   7
  -5   1   8 119.868 7.74931   3
  -5   1   8 128.426 6.09215  16
   5   1  -8 122.031 5.64454   4
   5   1  -8 121.139 5.25321   7
   5   1  -8 126.641 5.91284  10
  -5   1   8 122.084 6.99475   8
   3  -1  -8 345.073 10.3658  10
  -3  -1   8 312.809 13.9118  13
  -3  -1   8 319.335 10.4246  16
   3  -1  -8 332.703 9.68067  14
  -3  -1   8 343.127 11.1471   8
  -3  -1   8 334.510 10.9180  12
  -3  -1   8 329.656 12.4141   3
   3  -1  -8 342.596 9.09118   7
   3  -1  -8 326.378 10.1821   4
  -3   1   8 343.426 12.5567   3
  -3   1   8 329.432 11.4390  12
  -3   1   8 339.232 10.6861  16
   3   1  -8 322.000 10.0389   4
   3   1  -8 320.584 9.31820  14
  -3   1   8 323.940 10.0913   8
   3   1  -8 324.454 8.60516   7
   3   1  -8 329.906 10.1639  10
   1  -1  -8 19.3569 2.76153   4
   1  -1  -8 23.8484 3.29771  14
  -1  -1   8 17.6401 3.02740  16
  -1  -1   8 16.8682 2.85382   8
  -1  -1   8 24.4887 4.35743   3
  -1  -1   8 22.8345 3.56962  12
   1  -1  -8 18.2723 2.96196  10
  -1   1   8 18.3660 2.43380   8
   1   1  -8 20.5806 3.05948   4
   1   1  -8 20.7028 3.16571  14
  -1   1   8 18.0000 3.61321  12
  -1   1   8 19.4687 4.10083   3
   1   1  -8 19.1142 2.66644  10
  -1   1   8 17.3980 3.02550  16
  -1  -1  -8 118.715 6.47675  14
  -1  -1  -8 113.526 5.99311   2
   1  -1   8 127.181 7.28230  12
   1  -1   8 110.555 6.26662  16
   1  -1   8 119.515 8.03820   3
  -1  -1  -8 123.243 6.50674  10
   1   1   8 114.850 6.42624   5
  -1   1  -8 121.953 6.22248   4
   1   1   8 105.247 7.53034   3
  -1   1  -8 111.592 6.74905  14
   1   1   8 118.658 6.51810  16
   1   1   8 115.159 7.67991  12
  -1   1  -8 115.842 6.20149  10
  -1   1  -8 108.441 6.27197   2
  -3  -1  -8 33.7379 4.51458  10
  -3  -1  -8 30.7718 4.79255  14
   3  -1   8 36.4209 5.94365   3
   3  -1   8 37.2845 5.19701  12
  -3  -1  -8 40.5427 5.27879   2
   3   1   8 39.6584 5.73045  12
  -3   1  -8 27.4470 3.99994  10
  -3   1  -8 24.4306 4.54458  14
  -3   1  -8 38.0157 5.17595   2
   3   1   8 36.6474 5.81110   3
  -5  -1  -8 28.5682 5.40608   2
   5  -1   8 35.7706 5.43045  12
  -5  -1  -8 25.8266 4.65128  10
  -5  -1  -8 31.6589 4.85591  14
  -5   1  -8 27.9328 5.55314   2
  -5   1  -8 31.4976 5.30660  14
   5   1   8 31.2124 5.79658  12
 -12  -2   8 -2.5487 3.50500   3
 -12  -2   8 3.13981 4.61351   8
 -12  -2   8 -1.8845 3.79405  15
  12  -2  -8 -1.8170 2.16580   7
 -12   2   8 7.73349 5.28594   8
  12   2  -8 -0.7782 2.25170   7
  10  -2  -8 23.7116 4.29143   1
 -10  -2   8 14.5437 4.64703   3
 -10  -2   8 18.8127 4.48976  15
  10  -2  -8 19.7017 3.21926   7
 -10  -2   8 17.8280 5.48578   8
 -10   2   8 21.8114 5.06082   8
  10   2  -8 17.7027 3.51334   7
  -8  -2   8 246.709 11.8129   3
  -8  -2   8 229.295 11.6954   8
  -8  -2   8 241.619 9.66567  15
   8  -2  -8 221.125 8.93910   7
   8   2  -8 236.988 8.90470   7
  -8   2   8 231.622 12.0708   3
  -8   2   8 240.286 11.7166   8
   8   2  -8 232.278 8.60918  11
   6  -2  -8 458.729 12.6755  10
  -6  -2   8 458.279 15.2175   8
  -6  -2   8 470.165 12.9616  16
  -6  -2   8 436.015 12.1982  15
   6  -2  -8 457.850 12.7170   7
  -6  -2   8 474.128 15.6358   3
  -6   2   8 456.693 12.7460  16
   6   2  -8 472.882 13.0067  10
   6   2  -8 456.977 12.2341   7
  -6   2   8 473.557 16.0502   3
  -6   2   8 471.614 14.8950   8
   6   2  -8 471.227 12.4486   4
   6   2  -8 480.098 12.7603  11
  -4  -2   8 125.913 6.23263  16
  -4  -2   8 118.460 6.99232   8
   4  -2  -8 118.698 5.19949   7
   4  -2  -8 133.727 6.09892  10
  -4  -2   8 129.009 7.33682   3
   4  -2  -8 127.325 5.07757  14
  -4  -2   8 129.415 6.30013  12
   4   2  -8 123.166 4.96821   7
  -4   2   8 128.716 6.31382   8
   4   2  -8 130.296 5.59367  11
   4   2  -8 128.242 5.92594   4
  -4   2   8 139.452 8.01210   3
   4   2  -8 125.276 4.89244  14
  -4   2   8 127.543 6.09524  16
  -4   2   8 123.487 6.96716  12
   4   2  -8 126.157 5.86926  10
  -2  -2   8 10.7860 3.35280   3
   2  -2  -8 12.9250 2.28201  10
  -2  -2   8 8.42113 2.41952   8
   2  -2  -8 7.68721 1.56729   7
  -2  -2   8 7.43916 2.25382  16
   2  -2  -8 26.2648 3.25668  14
  -2  -2   8 9.29031 2.80832  12
   2  -2  -8 10.3985 2.14689   6
   2   2  -8 8.10290 1.97682  10
   2   2  -8 12.6676 2.48236  14
  -2   2   8 21.1678 3.50156  12
  -2   2   8 10.0416 2.17248  16
   2   2  -8 5.80111 2.06069   4
  -2   2   8 6.97139 3.15868   3
   0  -2   8 45.9585 4.19158   8
   0  -2  -8 44.8968 3.74877   6
   0  -2   8 43.8643 5.57182   3
   0  -2   8 47.8219 4.06636  16
   0  -2  -8 41.0432 4.55818  14
   0  -2   8 45.9250 4.74139  12
   0  -2  -8 36.2208 4.04879  10
   0   2   8 45.2628 5.47658   3
   0   2  -8 46.0596 4.41423   4
   0   2   8 36.4557 4.35008   5
   0   2   8 41.5396 3.74130  16
   0   2   8 43.9041 5.54105  12
   0   2  -8 45.4123 4.77878  14
   0   2  -8 35.4684 3.77290  10
   2  -2   8 2.43375 1.94236  16
  -2  -2  -8 6.75662 2.90068  14
   2  -2   8 7.46612 3.20858  12
   2  -2   8 6.39992 3.11941   3
  -2  -2  -8 5.22935 2.44278  10
  -2  -2  -8 8.09173 2.89470   2
  -2   2  -8 0.54105 2.46179   2
  -2   2  -8 6.93462 3.17511  14
   2   2   8 5.19539 2.74386   5
   2   2   8 1.65987 1.84338  16
  -2   2  -8 5.22713 2.10829   4
   2   2   8 1.94149 2.80884   3
   2   2   8 4.41727 3.31128  12
  -2   2  -8 1.28414 1.70625  10
  -4  -2  -8 180.562 9.53441   2
  -4  -2  -8 168.434 9.30153  14
   4  -2   8 175.770 10.9067   3
   4  -2   8 162.260 9.23134  12
  -4  -2  -8 169.203 9.04875  10
  -4   2  -8 184.933 10.5599   2
  -4   2  -8 183.179 10.1159  14
   4   2   8 184.186 10.6969  12
 -11  -3   8 290.999 13.3808  15
 -11  -3   8 320.395 15.3560   8
 -11  -3   8 288.432 14.1654   3
  11  -3  -8 289.534 13.0442   1
  11  -3  -8 285.579 11.7426   7
  11   3  -8 292.489 11.4601   7
 -11   3   8 299.771 16.1574   8
   9  -3  -8 994.192 25.6451   1
  -9  -3   8 945.772 24.7715  15
  -9  -3   8 993.485 27.2098   3
  -9  -3   8 962.118 27.9116   8
   9  -3  -8 977.372 23.9826   7
  -9   3   8 1009.18 28.3506   8
   9   3  -8 986.678 23.1379  11
  -9   3   8 1019.71 29.3544   3
   9   3  -8 994.766 23.5593   7
   7  -3  -8 685.773 17.5396   7
   7  -3  -8 675.509 16.6664  10
  -7  -3   8 704.607 20.5810   3
  -7  -3   8 668.933 17.0470  16
  -7  -3   8 682.671 20.6882   8
  -7  -3   8 691.598 17.8680  15
  -7   3   8 680.194 16.7398  16
  -7   3   8 710.710 21.7501   3
   7   3  -8 682.893 17.0726  11
   7   3  -8 696.070 16.4023   4
  -7   3   8 697.577 19.9090   8
   7   3  -8 700.373 16.8572   7
   5  -3  -8 1146.65 24.5170   7
  -5  -3   8 1136.80 27.4642   8
  -5  -3   8 1176.29 28.0360   3
  -5  -3   8 1106.15 25.0830  16
  -5  -3   8 1147.07 23.8404  15
   5  -3  -8 1164.22 24.6664  10
   5   3  -8 1151.12 24.2951  11
   5   3  -8 1124.01 24.4984  10
  -5   3   8 1143.25 25.0955  16
   5   3  -8 1176.86 23.5176   7
  -5   3   8 1140.51 28.2237   3
  -5   3   8 1144.94 25.6019   8
   5   3  -8 1103.94 24.1734   4
  -3  -3   8 1083.22 25.4070   8
  -3  -3   8 1078.86 26.3763   3
   3  -3  -8 1116.88 23.3904   6
   3  -3  -8 1105.30 24.0404  10
  -3  -3   8 1071.36 24.5598  16
   3  -3  -8 1104.78 22.7682   7
   3  -3  -8 1090.51 23.3819  14
  -3  -3   8 1085.94 23.8420  12
   3   3  -8 1100.02 23.4469  10
  -3   3   8 1072.55 24.3697  16
   3   3  -8 1071.37 22.7863  14
  -3   3   8 1091.10 26.3189   3
  -3   3   8 1097.28 26.1330  12
   3   3  -8 1105.04 22.7471  11
   3   3  -8 1072.00 21.3771   7
   3   3  -8 1095.08 23.6872   4
  -1  -3   8 412.337 12.1536  12
  -1  -3   8 406.696 12.7771  16
   1  -3  -8 416.227 12.6019  10
  -1  -3   8 382.770 13.8494   3
   1  -3  -8 419.288 12.7517  14
  -1  -3   8 387.447 12.8225   8
   1  -3  -8 397.580 11.4296   6
  -1   3   8 408.178 13.7104   3
   1   3  -8 415.434 12.2511   4
   1   3  -8 400.530 11.6037  10
  -1   3   8 393.482 13.3952   5
   1   3  -8 413.269 12.3788  14
  -1   3   8 409.066 14.1908  12
  -1   3   8 398.105 12.4177  16
  -1  -3  -8 1022.19 24.7012  10
   1  -3   8 1010.49 23.8528  12
   1  -3   8 1021.59 26.6950   3
   1  -3   8 996.335 24.1688  16
  -1  -3  -8 1009.09 22.2188   6
  -1  -3  -8 1054.90 25.1571  14
  -1   3  -8 1000.40 23.2571   4
   1   3   8 1027.59 25.5326   5
   1   3   8 973.889 23.6784  16
  -1   3  -8 998.342 24.0684   2
   1   3   8 1046.13 25.7271   3
  -1   3  -8 1008.06 24.3569  14
   1   3   8 1043.60 26.8029  12
  -1   3  -8 1007.46 22.8112  10
  -3  -3  -8 780.599 21.5052  10
  -3  -3  -8 749.525 21.5814  14
   3  -3   8 749.737 23.4317   3
  -3  -3  -8 751.946 20.9576   2
  -3   3  -8 782.040 22.1148   2
   3   3   8 735.403 21.5841   3
  -3   3  -8 739.084 21.3096  14
   3   3   8 758.179 22.9572  12
  -5  -3  -8 164.627 9.84141  10
  -5  -3  -8 168.479 10.0972   2
  -5  -3  -8 173.534 9.72009  14
  -5   3  -8 161.551 9.53743  14
  -5   3  -8 163.545 10.8479   2
   5   3   8 176.418 10.9434  12
  10  -4  -8 110.964 8.21031   1
 -10  -4   8 111.206 10.7188   8
 -10  -4   8 101.786 7.96461  15
  10  -4  -8 100.398 6.70949   7
 -10  -4   8 95.7054 8.28535   3
  10   4  -8 99.3925 6.60983   7
  10   4  -8 104.861 6.48310  11
 -10   4   8 111.985 10.1478   8
   8  -4  -8 274.515 10.4945   7
  -8  -4   8 271.665 12.3028   3
  -8  -4   8 288.911 11.2865  15
  -8  -4   8 282.833 13.2917   8
  -8   4   8 283.050 12.8992   8
   8   4  -8 286.648 10.2186  11
   8   4  -8 288.871 9.98648   7
  -8   4   8 281.635 13.3704   3
  -6  -4   8 145.841 6.79979  15
  -6  -4   8 139.059 6.72105  16
   6  -4  -8 146.828 6.41054  10
  -6  -4   8 153.989 9.02245   8
   6  -4  -8 145.955 6.79777   7
  -6  -4   8 144.624 8.51144   3
  -6   4   8 156.943 9.21956   3
  -6   4   8 149.450 6.86177  16
   6   4  -8 147.412 6.57412   4
   6   4  -8 144.230 6.54752  11
  -6   4   8 137.838 7.76443   8
  -4  -4   8 56.9895 6.04313   3
   4  -4  -8 58.8418 4.05419   7
  -4  -4   8 50.2443 5.45178   8
   4  -4  -8 57.3024 4.17895   6
   4  -4  -8 59.1960 4.26044  10
  -4  -4   8 57.3982 4.65799  16
  -4   4   8 57.0251 5.93456  12
   4   4  -8 57.3530 4.01510  10
   4   4  -8 57.5161 3.34949   7
  -4   4   8 57.2086 6.14182   3
  -4   4   8 55.7520 4.55693  16
   4   4  -8 55.0098 3.92271  11
   4   4  -8 64.9245 4.62028   4
   2  -4  -8 24.3393 3.26018   6
   2  -4  -8 24.9601 3.42214  10
   2  -4  -8 20.2171 2.56399   7
  -2  -4   8 23.1888 3.72544   8
  -2  -4   8 26.5441 3.62147  16
  -2  -4   8 23.1256 4.18515   3
   2   4  -8 21.2382 3.21528  14
   2   4  -8 19.2966 2.62519  10
  -2   4   8 29.6973 4.47221   3
   2   4  -8 23.0348 3.26582   4
   2   4  -8 21.2906 2.61756  11
  -2   4   8 20.5741 4.01737  12
  -2   4   8 26.2275 3.57330  16
   0  -4  -8 4.07390 2.21182  14
   0  -4  -8 4.81738 2.03423   6
   0  -4  -8 2.07392 1.94135  10
   0  -4   8 3.21994 2.89006   3
   0  -4   8 5.51927 2.21013  16
   0   4   8 4.14299 1.75801  16
   0   4  -8 1.76869 2.40108  14
   0   4  -8 6.02831 2.44146   4
   0   4   8 13.3455 3.51460   5
   0   4   8 2.72290 2.47693   3
   0   4  -8 1.68575 1.45802  10
   0   4  -8 4.21620 2.26654   2
   0   4   8 4.01677 3.58446  12
   2  -4   8 306.049 13.4635   3
  -2  -4  -8 291.458 12.0176  14
  -2  -4  -8 266.805 9.59732   6
  -2  -4  -8 282.315 11.7018  10
   2  -4   8 281.976 11.0666  16
  -2  -4  -8 302.828 11.3627   2
  -2   4  -8 313.114 12.3627  14
   2   4   8 282.646 12.5181   5
   2   4   8 269.746 10.5737  16
   2   4   8 284.904 12.7369  12
  -2   4  -8 302.003 11.8823   2
  -2   4  -8 301.933 10.7070   4
  -4  -4  -8 113.774 8.23243  10
  -4  -4  -8 111.427 8.06692   2
  -4  -4  -8 113.454 8.07149  14
   4  -4   8 106.574 6.52788   9
   4   4   8 116.108 9.38657  12
  -4   4  -8 112.371 8.56172  14
  -4   4  -8 118.515 9.24572   2
 -11  -5   8 22.8327 5.24768  15
 -11  -5   8 21.0713 6.09634   8
  11  -5  -8 12.1093 4.16471   1
  11  -5  -8 17.5769 3.38544   7
  11   5  -8 27.3933 4.01720   7
  11   5  -8 24.9112 3.73144  11
 -11   5   8 17.5670 5.83962   8
  -9  -5   8 0.21533 3.75687   8
  -9  -5   8 2.88422 3.19076  15
   9  -5  -8 2.96821 3.03459   1
   9  -5  -8 4.17254 2.40126   7
   9   5  -8 -0.2536 1.93596  11
  -9   5   8 1.17665 2.73414   3
  -9   5   8 -4.2769 3.11301   8
  -7  -5   8 9.88521 4.00681   8
  -7  -5   8 10.8088 3.66304   3
   7  -5  -8 7.75265 1.88363  10
  -7  -5   8 4.09623 2.52138  15
   7  -5  -8 6.11202 1.92763   7
  -7   5   8 8.60850 4.13868   3
   7   5  -8 5.31870 1.73487   4
   7   5  -8 5.66908 2.46476  11
  -7   5   8 6.44570 3.12259   8
  -5  -5   8 30.3514 3.81795  15
  -5  -5   8 30.8406 4.81590   8
   5  -5  -8 29.6860 3.29434  10
   5  -5  -8 29.0648 3.60055   6
   5  -5  -8 31.1851 3.60322   7
  -5  -5   8 30.4569 4.66915   3
   5   5  -8 33.9188 3.98509   4
  -5   5   8 25.8770 3.30700  16
  -5   5   8 27.6410 4.67611  12
   5   5  -8 28.0736 3.41309  11
  -5   5   8 31.8529 5.32223   3
  -3  -5   8 201.077 9.48242   3
  -3  -5   8 199.128 8.85736  16
   3  -5  -8 204.580 8.06333  10
  -3  -5   8 193.833 9.39464   8
   3  -5  -8 187.424 7.36267   7
   3  -5  -8 190.883 7.91926   6
   3   5  -8 207.239 8.47075   4
   3   5  -8 208.713 7.55783  10
  -3   5   8 204.235 9.80161  12
   3   5  -8 216.215 7.48561  11
   3   5  -8 199.042 7.68275  14
  -3   5   8 190.827 8.48779  16
  -3   5   8 207.094 9.78114   3
  -1  -5   8 83.3312 6.35713   8
  -1  -5   8 80.0727 5.86901  16
   1  -5  -8 77.9479 5.23563   6
   1  -5  -8 79.1167 5.52377  10
  -1  -5   8 85.5713 6.64326   3
  -1   5   8 81.4857 6.30589   3
   1   5  -8 79.1388 5.57786   4
   1   5  -8 71.8432 4.36571  10
  -1   5   8 73.9621 5.48008  16
  -1   5   8 81.4773 6.74500   5
  -1   5   8 81.4699 7.10574  12
   1   5  -8 72.6365 5.59177  14
  -1  -5  -8 1.92310 2.04979   6
   1  -5   8 1.69500 3.02529   3
  -1  -5  -8 -0.5013 2.18427  10
  -1  -5  -8 3.62281 2.47340  14
  -1   5  -8 -1.7584 1.99654   4
   1   5   8 0.50625 3.53434  12
  -1   5  -8 -1.0467 2.09384   2
   1   5   8 0.54822 3.11997   5
   1   5   8 2.95078 2.09185  16
  -1   5  -8 7.10619 3.42591  14
   3  -5   8 0.97556 3.06500   3
  -3  -5  -8 -1.2682 2.44966  10
  -3  -5  -8 1.04936 2.51823   2
  -3  -5  -8 2.37822 2.64115  14
  -3   5  -8 5.44894 3.77693  14
   3   5   8 1.97046 3.81551  12
   3   5   8 6.84162 3.83603   5
  -3   5  -8 1.83671 3.45910   2
  10  -6  -8 556.248 17.1933   7
 -10  -6   8 541.605 18.9583  15
  10  -6  -8 559.359 19.6618   1
 -10  -6   8 578.065 21.1017   8
  10   6  -8 581.281 16.9098  11
 -10   6   8 579.749 21.2677   8
 -10   6   8 576.626 22.1795   3
   8  -6  -8 1123.04 26.3254   7
  -8  -6   8 1092.23 29.9337   8
  -8  -6   8 1075.24 27.3717  15
  -8   6   8 1090.15 30.5385   3
   8   6  -8 1112.65 25.7147  11
  -6  -6   8 1205.14 27.8562  15
  -6  -6   8 1265.28 31.2571   8
   6  -6  -8 1280.67 28.0835   7
   6   6  -8 1264.63 27.3144   4
  -6   6   8 1214.39 28.0024  16
  -6   6   8 1252.87 31.0210   3
   6   6  -8 1239.80 27.2373  11
  -4  -6   8 1022.63 26.3099   8
  -4  -6   8 974.120 24.6902   3
   4  -6  -8 1000.02 22.9488   7
   4  -6  -8 1064.63 23.7604   6
   4  -6  -8 1015.73 22.8212  10
  -4   6   8 1005.46 25.5005   3
   4   6  -8 1003.22 22.5412  11
  -4   6   8 1026.92 24.8091  16
   4   6  -8 1025.99 23.5206   4
  -4   6   8 1024.66 26.2630  12
  -2  -6   8 489.956 15.9102   3
   2  -6  -8 492.605 14.3860  10
   2  -6  -8 511.051 14.6054   6
   2  -6  -8 504.698 13.5081   7
  -2  -6   8 510.129 16.3965   8
   2   6  -8 489.654 14.3514  14
   2   6  -8 502.231 14.7195   4
  -2   6   8 481.431 16.9166   5
  -2   6   8 492.647 15.4753  16
  -2   6   8 509.547 17.0071  12
   2   6  -8 471.586 12.6581  10
   2   6  -8 500.930 12.8650  11
   0  -6  -8 735.189 19.9612  10
   0  -6  -8 730.245 19.1291   6
   0  -6   8 765.836 21.8858   3
   0   6  -8 724.083 19.2331   4
   0   6   8 750.948 22.6214   5
   0   6  -8 700.292 19.7396   2
   0   6   8 773.169 22.5603  12
   0   6   8 724.299 19.9909  16
   0   6  -8 726.816 19.9898  14
  -2  -6  -8 1002.12 25.8763  10
  -2  -6  -8 923.068 23.4277   6
   2  -6   8 978.114 24.5289   9
   2  -6   8 1034.35 28.1077   3
   2   6   8 999.867 27.4732   5
   2   6   8 1029.51 28.0781  12
  -2   6  -8 966.607 26.3331   2
  -2   6  -8 984.784 26.1710  14
  -2   6  -8 965.232 23.9267   4
   4  -6   8 543.479 20.6233   1
  -4  -6  -8 544.258 18.4934  10
   4  -6   8 498.079 16.2783   9
   4   6   8 538.432 19.3969  12
  -4   6  -8 521.884 18.4944  14
  -4   6  -8 549.519 19.7530   2
   4   6   8 528.846 18.6541   5
  -9  -7   8 5.78802 3.12769  15
  -9  -7   8 -0.3243 3.63418   8
   9  -7  -8 -0.6465 1.31809   7
  -9   7   8 2.26450 3.90013   3
   9   7  -8 0.77174 1.62139  11
  -7  -7   8 114.000 8.60608   8
  -7  -7   8 135.353 7.86581  15
   7  -7  -8 130.184 7.07171   7
   7   7  -8 130.646 6.81881  11
   7   7  -8 121.233 6.72962   4
  -7   7   8 138.518 9.36997   3
  -5  -7   8 2.70050 2.94230   8
   5  -7  -8 8.38089 2.56863   6
   5  -7  -8 2.35042 1.98468   7
   5   7  -8 2.33903 2.48711   4
  -5   7   8 4.18350 3.25318  12
  -5   7   8 -1.5204 3.18978   3
  -5   7   8 2.33864 1.63108  16
   5   7  -8 2.78477 1.90846  11
   3  -7  -8 87.3731 5.89428   6
   3  -7  -8 74.5686 5.17539   7
  -3  -7   8 87.2067 7.12288   8
   3  -7  -8 85.4610 5.41232  10
  -3  -7   8 83.4144 6.30508   3
  -3   7   8 84.5031 6.30443  16
   3   7  -8 87.4495 5.61153  14
  -3   7   8 84.7138 7.50782  12
   3   7  -8 87.1376 5.85971   4
  -3   7   8 74.3270 7.08458   5
   3   7  -8 85.2391 5.04192  11
  -1  -7   8 0.56877 2.55228   3
   1  -7  -8 -0.6914 2.04133   6
  -1  -7   8 0.19820 2.25715   8
   1  -7  -8 1.76197 2.01958  10
  -1   7   8 2.58713 1.96294  16
  -1   7   8 0.07364 3.60845  12
   1   7  -8 6.25826 2.90185   4
   1   7  -8 3.59675 2.78484  14
  -1   7   8 3.70631 3.62070   5
   1  -7   8 -1.3013 2.26072   9
   1  -7   8 0.86704 2.73481   3
  -1  -7  -8 -0.6250 1.57633  10
  -1  -7  -8 0.78609 2.20499   6
  -1   7  -8 3.16669 2.93983   2
  -1   7  -8 -2.2897 2.45198   4
  -1   7  -8 0.09823 3.00758  14
   1   7   8 2.08918 3.50698   5
   1   7   8 2.91396 3.53965  12
   3  -7   8 23.8859 4.25804   9
  -3  -7  -8 28.9747 5.16081   6
  -3  -7  -8 27.8470 5.01606  10
   3  -7   8 31.4342 5.80792   1
  -3   7  -8 26.7293 5.49993   2
   3   7   8 27.8325 5.84628   5
   3   7   8 29.5024 5.29760  12
  -3   7  -8 27.6160 5.83778  14
   8  -8  -8 35.4919 4.45951   7
  -8  -8   8 34.7868 5.07415  15
  -8  -8   8 39.8712 6.19655   8
   8   8  -8 45.5048 4.91781  11
   6  -8  -8 17.5878 3.54525   7
  -6  -8   8 22.5138 4.50061   8
   6  -8  -8 25.8533 3.90752   6
  -6  -8   8 18.4718 3.75543  15
   6   8  -8 24.4904 3.68090   4
  -6   8   8 16.8665 3.81455  16
   6   8  -8 29.8228 3.78906  11
  -6   8   8 21.3374 4.76753  12
   4  -8  -8 486.399 14.9146   6
   4  -8  -8 467.864 14.3388   7
  -4  -8   8 465.124 13.6338   9
  -4  -8   8 498.755 17.2978   8
   4   8  -8 483.856 14.9757   4
  -4   8   8 472.346 17.0845  12
   4   8  -8 478.212 13.7834  11
  -4   8   8 487.995 17.6682   5
  -4   8   8 462.734 15.7764  16
  -2  -8   8 242.859 9.77140   9
   2  -8  -8 231.781 9.40063  10
   2  -8  -8 239.047 10.2033   6
  -2  -8   8 218.205 10.8313   8
  -2   8   8 235.429 11.8106  12
   2   8  -8 231.165 9.91801  14
  -2   8   8 219.865 11.7557   5
   2   8  -8 216.454 8.05012  11
   2   8  -8 243.733 10.7243   4
   0  -8   8 154.125 8.42948   9
   0  -8   8 160.585 9.29883   3
   0  -8  -8 146.949 8.26407   6
   0  -8  -8 155.495 8.41487  10
   0   8   8 140.125 9.78473  12
   0   8  -8 166.804 9.26117   2
   0   8  -8 168.288 8.56253   4
   0   8   8 163.578 10.3748   5
   0   8  -8 157.995 8.74592  14
   2  -8   8 197.321 9.95703   9
  -2  -8  -8 170.094 9.02811   6
  -2  -8  -8 165.183 9.56781  10
   2   8   8 151.569 12.2548  11
  -2   8  -8 184.232 10.6463  14
  -2   8  -8 175.528 10.6160   2
   2   8   8 180.827 11.6902   5
  -2   8  -8 163.970 8.40065   4
   2   8   8 172.783 10.8353  12
  -7  -9   8 418.846 14.9902  15
   7  -9  -8 422.923 14.1770   7
  -7  -9   8 401.899 16.0816   8
  -7   9   8 393.358 15.8166  12
   7   9  -8 402.440 13.4478  11
   5  -9  -8 390.550 13.4259   7
  -5  -9   8 399.346 15.7771   8
   5  -9  -8 402.662 13.6184   6
  -5   9   8 403.262 15.5742  12
   5   9  -8 398.154 13.0088  11
   5   9  -8 404.219 14.0722   4
  -5   9   8 431.574 17.0469   5
  -3  -9   8 724.180 22.0638   8
   3  -9  -8 693.505 19.3140   6
   3   9  -8 680.498 19.7238   4
   3   9  -8 680.509 18.8903  14
  -3   9   8 725.554 23.3145   5
  -3   9   8 676.905 21.2676  12
   3   9  -8 668.267 17.4806  11
   1  -9  -8 1204.13 29.2725   6
   1   9  -8 1231.90 29.5394   4
  -1   9   8 1197.89 32.9236   5
   1   9  -8 1183.72 29.0803  14
  -1   9   8 1206.21 31.2044  12
   1  -9   8 187.604 9.92513   9
  -1  -9  -8 155.492 9.03626  10
  -1  -9  -8 166.061 9.28944   6
  -1   9  -8 175.885 9.89823  14
   1   9   8 161.207 10.3074  12
   1   9   8 185.228 12.0609   5
  -1   9  -8 178.623 10.6292   2
   1   9   8 166.403 8.93459  11
  -1   9  -8 168.495 8.90777   4
   6 -10  -8 95.7248 6.65387   6
   6 -10  -8 103.559 6.71554   7
  -6  10   8 98.1007 8.69449   5
   6  10  -8 102.567 6.77350  11
   6  10  -8 90.9854 7.16810   4
  -4 -10   8 2.37397 2.90598   8
   4 -10  -8 0.67836 1.70916   6
   4  10  -8 2.86734 2.28939  11
  -4  10   8 -1.9383 3.09409   5
   4  10  -8 2.56595 2.35419   4
   2 -10  -8 205.288 10.1095   6
  -2 -10   8 186.844 9.39792   9
   2  10  -8 188.317 10.2629   4
   2  10  -8 182.707 9.62070  14
  -2  10   8 204.754 11.9360   5
   0 -10  -8 147.033 8.94888   6
   0 -10   8 143.619 8.35110   9
   0  10  -8 153.023 9.67487  14
   0  10   8 139.501 11.0882   5
   0  10  -8 145.004 8.48240   4
   5 -11  -8 14.1459 3.59264   6
  -5 -11   8 21.3578 4.65356   8
  -5 -11   8 12.3965 3.78748   6
   5  11  -8 24.6450 4.78518   4
   5  11  -8 18.7822 3.75869  11
  -5  11   8 14.8645 4.84068   5
   3 -11  -8 43.0959 5.53598   6
  -3 -11   8 27.2318 4.20500   9
  -3  11   8 39.0155 6.83530   5
   3  11  -8 34.0666 5.40441   4
 -12   0   9 1.74063 4.69785   8
 -12   0   9 5.61935 4.88447   3
  12   0  -9 0.61531 2.48883   7
 -10   0   9 5.18226 4.02257   3
 -10   0   9 1.07591 4.10075   8
  10   0  -9 -3.4025 1.74571   7
   8   0  -9 1.96184 1.74925   7
  -8   0   9 -0.1839 3.67748   8
  -8   0   9 -2.6172 1.63751   3
  -6   0   9 23.1362 4.47404   8
  -6   0   9 0.31526 1.61056  16
   6   0  -9 -0.2462 1.38816   4
   6   0  -9 0.45008 1.00797   7
  -6   0   9 6.73422 3.53730   3
   6   0  -9 5.53287 1.90239  10
  -4   0   9 0.63787 2.78153   3
   4   0  -9 0.37361 1.37391  10
  -4   0   9 -0.2522 1.95449   8
  -4   0   9 7.42039 2.68204  12
   4   0  -9 1.63337 1.17160   7
  -4   0   9 0.38951 1.30619  16
   4   0  -9 -0.9939 0.93384  14
   4   0  -9 -0.6297 1.43786   4
  -2   0   9 -1.6248 1.44610   8
  -2   0   9 1.70118 1.40067  16
  -2   0   9 5.57540 2.82486  12
   2   0  -9 1.87541 1.90200   4
   2   0  -9 -0.3321 1.59850  14
   2   0  -9 0.31241 1.63205  10
  -2   0   9 2.44872 3.03401   3
   0   0  -9 1.45930 2.36718  14
   0   0  -9 -1.3447 1.66425  10
   0   0   9 1.02232 1.46457  16
   0   0  -9 -0.7096 1.70877   4
   0   0   9 -1.7952 2.38086  12
   0   0   9 4.30118 3.23354   3
  -2   0  -9 3.12951 2.70023  14
   2   0   9 -0.1166 1.85556  16
  -2   0  -9 1.95063 2.29408  10
   2   0   9 4.15381 3.38625  12
   2   0   9 2.00340 3.29364   3
  -4   0  -9 1.26103 2.04436  10
  -4   0  -9 3.27984 2.46327  14
   4   0   9 4.21007 3.18869  12
  11  -1  -9 246.269 10.9234   7
 -11  -1   9 245.392 14.0632   3
 -11  -1   9 267.308 15.0455   8
  11   1  -9 248.735 10.6394   7
 -11   1   9 246.247 14.5097   8
 -11   1   9 249.422 14.8160   3
  -9  -1   9 130.835 9.70807   3
   9  -1  -9 116.420 6.89962   7
  -9  -1   9 126.042 9.81043   8
  -9   1   9 136.451 10.4066   3
   9   1  -9 108.794 6.59002   7
  -9   1   9 132.954 9.97307   8
   7  -1  -9 17.4252 2.93793   7
  -7  -1   9 23.0804 4.26572   8
  -7  -1   9 36.9395 5.86583   3
  -7  -1   9 20.3766 3.12184  16
   7  -1  -9 22.8603 3.27229  10
   7   1  -9 22.4622 3.01674   4
  -7   1   9 20.3890 2.81304  16
   7   1  -9 24.9639 3.41888   7
  -7   1   9 20.5512 5.17899   3
  -7   1   9 29.6790 4.91808   8
  -5  -1   9 5.13460 2.80315   3
   5  -1  -9 -0.4099 1.36219   4
   5  -1  -9 1.71210 1.53014  10
   5  -1  -9 6.34251 1.80444   7
  -5  -1   9 1.86527 1.83274  16
  -5  -1   9 -2.7074 2.18209   8
  -5  -1   9 3.74932 2.21777  12
  -5   1   9 0.41064 2.29769   8
  -5   1   9 3.09014 2.38059   3
  -5   1   9 2.87970 1.91563  16
   5   1  -9 2.02108 1.61418   4
   5   1  -9 4.18529 1.83130  10
   5   1  -9 3.45914 1.48594   7
  -5   1   9 3.53639 2.41113  12
  -3  -1   9 387.419 14.3241   3
   3  -1  -9 356.840 9.97498   7
   3  -1  -9 387.254 11.3107  14
   3  -1  -9 379.994 11.9197  10
  -3  -1   9 375.936 12.2085   8
  -3  -1   9 358.471 11.9692  16
  -3  -1   9 376.439 12.8009  12
   3  -1  -9 378.711 11.8730   4
   3   1  -9 364.119 10.9015  14
  -3   1   9 398.140 13.6062  12
   3   1  -9 376.030 11.6908  10
   3   1  -9 366.962 11.4894   4
  -3   1   9 365.016 11.2196   8
  -3   1   9 406.667 14.5438   3
  -3   1   9 371.154 12.0751  16
   1  -1  -9 648.717 17.3650  14
  -1  -1   9 639.594 18.0521  12
  -1  -1   9 635.246 19.4589   3
   1  -1  -9 632.231 17.2863  10
   1  -1  -9 642.377 17.1348   4
  -1  -1   9 619.161 17.4262  16
  -1  -1   9 610.235 16.6015   8
   1   1  -9 648.190 17.0482   4
   1   1  -9 640.530 17.0841  14
   1   1  -9 659.181 17.0045  10
  -1   1   9 616.012 17.3495   5
  -1   1   9 625.825 18.7978  12
  -1   1   9 632.265 17.3602  16
  -1   1   9 651.817 19.3802   3
   1  -1   9 135.261 8.64551   3
   1  -1   9 135.668 8.33367  12
   1  -1   9 118.707 7.06472  16
  -1  -1  -9 134.616 7.62888  10
  -1  -1  -9 141.075 8.08821  14
   1   1   9 131.599 8.87220   3
  -1   1  -9 140.547 8.03027  14
  -1   1  -9 123.127 7.03483  10
  -1   1  -9 125.746 6.98683   4
   1   1   9 114.179 6.84247  16
   1   1   9 129.262 8.57386  12
   3  -1   9 33.7571 5.28881  12
  -3  -1  -9 27.7785 4.34456  10
  -3  -1  -9 24.5958 4.37281  14
   3  -1   9 30.5369 5.79710   3
   3   1   9 28.4851 5.55953  12
   3   1   9 26.2960 5.47408   3
  -3   1  -9 29.6966 5.21486  14
  -3   1  -9 24.2558 3.96839  10
 -12  -2   9 211.130 13.1877   3
  12  -2  -9 222.414 10.7797   7
 -12  -2   9 217.693 11.7647  15
 -12   2   9 235.713 15.0483   8
 -12   2   9 190.208 16.8033   3
  12   2  -9 226.801 10.6814   7
  10  -2  -9 207.305 9.38163   7
 -10  -2   9 199.370 12.5870   8
 -10  -2   9 200.990 9.95107  15
 -10  -2   9 183.345 11.7115   3
 -10   2   9 200.959 13.2038   3
  10   2  -9 188.456 8.87689   7
 -10   2   9 184.427 12.0772   8
   8  -2  -9 846.391 21.2715   7
  -8  -2   9 891.306 25.6205   3
  -8  -2   9 852.527 25.0724   8
  -8   2   9 867.995 24.7088   8
  -8   2   9 854.303 25.8314   3
   8   2  -9 869.291 20.9591   7
  -6  -2   9 727.419 18.7151  16
  -6  -2   9 774.077 22.2584   3
   6  -2  -9 758.320 18.6258  10
  -6  -2   9 800.760 22.1089   8
   6  -2  -9 733.549 18.2747   7
   6   2  -9 756.905 17.7941   7
   6   2  -9 737.195 18.0500   4
   6   2  -9 755.272 18.7023  10
  -6   2   9 760.687 20.4602   8
  -6   2   9 724.109 22.2398   3
  -6   2   9 734.453 18.7486  16
  -4  -2   9 471.237 15.0777   8
   4  -2  -9 486.793 12.7406   7
  -4  -2   9 494.771 16.4786   3
  -4  -2   9 483.403 14.2188  12
   4  -2  -9 476.673 13.7481  10
   4  -2  -9 473.536 12.5297  14
  -4  -2   9 464.438 14.1043  16
  -4   2   9 472.234 13.9226  16
  -4   2   9 474.153 16.3542   3
   4   2  -9 466.534 13.5255   4
  -4   2   9 487.609 15.7058  12
   4   2  -9 494.192 13.7286  10
   4   2  -9 485.127 11.9959   7
  -2  -2   9 837.673 21.0531  12
  -2  -2   9 844.187 23.2654   3
   2  -2  -9 867.085 20.9830  10
   2  -2  -9 853.329 20.6528  14
  -2  -2   9 850.579 21.3340   8
  -2  -2   9 816.019 21.0241  16
  -2   2   9 843.118 21.1007  16
  -2   2   9 872.612 23.3272   3
   2   2  -9 840.756 20.1214  14
   2   2  -9 842.854 20.2129  10
  -2   2   9 878.266 23.1877  12
   2   2  -9 830.857 20.4484   4
   0  -2  -9 329.659 10.1636   6
   0  -2   9 332.357 12.1485  16
   0  -2  -9 350.669 12.5165  14
   0  -2  -9 335.482 11.9404  10
   0  -2   9 359.091 14.2295   3
   0  -2   9 349.618 12.4499  12
   0   2  -9 336.479 11.4090  10
   0   2   9 326.916 11.8846  16
   0   2   9 335.915 13.4064   3
   0   2   9 338.435 12.4988   5
   0   2  -9 347.031 12.0733  14
   0   2   9 342.488 13.9135  12
   0   2  -9 357.994 11.6688   4
  -2  -2  -9 361.854 13.4027  10
   2  -2   9 352.321 13.1637  12
   2  -2   9 350.293 15.1888   3
   2  -2   9 320.738 12.2709  16
  -2  -2  -9 327.326 13.3815  14
  -2   2  -9 366.657 13.6284  14
   2   2   9 357.005 14.8517  12
  -2   2  -9 354.611 12.2144  10
   2   2   9 345.399 14.2280   3
  -2   2  -9 362.809 12.2247   4
  -4  -2  -9 480.640 16.8579  10
  -4  -2  -9 470.675 17.3973  14
  -4   2  -9 492.859 17.3825  14
   4   2   9 524.030 18.6385  12
  11  -3  -9 155.100 8.69788   7
 -11  -3   9 164.631 11.2249   8
 -11  -3   9 140.037 10.4661   3
 -11  -3   9 148.484 9.43234  15
 -11   3   9 154.363 11.7465   8
  11   3  -9 148.408 8.43432   7
 -11   3   9 156.700 12.2875   3
  -9  -3   9 -2.1268 2.24644  15
   9  -3  -9 3.33173 2.35738   7
  -9  -3   9 -4.8380 2.96097   3
  -9  -3   9 -2.1546 3.52743   8
   9   3  -9 -1.0120 1.62697  11
  -9   3   9 6.36564 4.49771   3
  -9   3   9 3.49047 3.95318   8
   9   3  -9 -0.1111 1.80003   7
  -7  -3   9 249.576 9.63755  16
  -7  -3   9 251.001 9.49239  15
   7  -3  -9 269.814 9.95015   7
  -7  -3   9 304.461 13.0875   3
  -7  -3   9 263.011 12.6579   8
   7  -3  -9 269.005 9.57328  10
   7   3  -9 270.626 9.74186  11
  -7   3   9 281.710 13.2981   3
   7   3  -9 263.926 9.31292   7
  -7   3   9 287.763 11.8721   8
   7   3  -9 280.131 9.48887   4
  -7   3   9 252.787 9.55576  16
  -5  -3   9 1.82609 1.91921  12
  -5  -3   9 0.76903 1.21609  16
  -5  -3   9 1.82769 2.76097   8
  -5  -3   9 0.35892 2.86524   3
   5  -3  -9 3.97337 1.91583  10
   5  -3  -9 3.16893 1.69818   7
   5   3  -9 0.90023 1.09457  11
  -5   3   9 2.02275 1.53018  16
   5   3  -9 -0.8894 1.73438   4
   5   3  -9 0.18806 1.56588  10
  -5   3   9 2.70114 2.67360  12
   5   3  -9 0.41757 1.16314   7
  -5   3   9 3.82265 3.20576   3
  -3  -3   9 1.99217 3.03833   3
   3  -3  -9 0.15038 1.66348   6
   3  -3  -9 2.41992 1.81651  10
  -3  -3   9 5.44416 2.66069   8
  -3  -3   9 2.97693 2.13548  12
   3  -3  -9 2.22737 1.69677  14
  -3  -3   9 5.06491 2.28551  16
   3  -3  -9 0.80447 0.89681   7
  -3   3   9 3.11360 3.17429  12
  -3   3   9 2.80171 2.15237  16
  -3   3   9 3.51154 3.13804   3
   3   3  -9 1.59097 1.75538  14
   3   3  -9 2.66108 1.40452  10
   3   3  -9 -1.5468 1.76092   4
   1  -3  -9 25.7963 3.35614   6
  -1  -3   9 30.1162 5.21933   3
   1  -3  -9 26.6467 3.68493  14
  -1  -3   9 18.8467 3.56415  16
   1  -3  -9 23.4929 3.58556  10
  -1  -3   9 25.4464 3.97369   8
  -1   3   9 26.1154 4.86104   3
   1   3  -9 21.3000 3.11170  10
   1   3  -9 27.3998 3.91351   4
  -1   3   9 33.1464 4.77121   5
  -1   3   9 20.2370 4.68766  12
  -1   3   9 23.3401 3.62748  16
   1   3  -9 24.3679 3.88630  14
  -1  -3  -9 94.9215 6.58209  14
  -1  -3  -9 64.9218 7.56615   6
   1  -3   9 87.0026 6.29923  16
  -1  -3  -9 100.833 6.98692  10
   1  -3   9 100.361 8.26344   3
   1   3   9 93.4784 6.50042  16
   1   3   9 82.0133 6.94809   5
   1   3   9 99.1385 8.24703  12
   1   3   9 98.2221 7.58417   3
  -1   3  -9 89.2660 6.13466   4
  -1   3  -9 86.5182 6.93210  14
  -3  -3  -9 90.0061 7.05476  14
   3  -3   9 100.366 8.81274   3
  -3  -3  -9 88.4954 6.98635  10
   3   3   9 92.4448 7.53653   3
  -3   3  -9 84.8243 7.69849  14
   3   3   9 97.1861 8.86113  12
  10  -4  -9 272.535 11.3769   7
 -10  -4   9 275.464 14.4606   8
 -10  -4   9 260.107 13.2893   3
 -10  -4   9 275.866 12.1652  15
  10   4  -9 273.283 11.0280   7
  10   4  -9 259.592 10.3739  11
 -10   4   9 303.937 14.9079   8
 -10   4   9 281.235 14.8922   3
  -8  -4   9 101.946 8.87839   8
  -8  -4   9 95.2438 6.47517  15
   8  -4  -9 99.1028 6.40919   7
  -8  -4   9 87.2439 7.75026   3
  -8   4   9 98.0636 8.67087   3
   8   4  -9 88.4856 5.61081  11
   8   4  -9 80.3308 5.50754   7
  -8   4   9 83.6099 7.55457   8
  -6  -4   9 452.002 16.1392   8
   6  -4  -9 460.267 13.2634  10
  -6  -4   9 467.493 16.2379   3
  -6  -4   9 435.204 12.7123  15
   6  -4  -9 455.808 13.5735   7
  -6  -4   9 448.279 14.1619  16
  -6   4   9 448.287 13.7913  16
   6   4  -9 454.671 12.4329   7
   6   4  -9 458.574 13.3975   4
  -6   4   9 473.571 17.1269   3
   6   4  -9 458.536 13.3110  11
  -4  -4   9 534.993 15.9954  16
  -4  -4   9 534.935 17.4125   3
  -4  -4   9 538.025 16.9268   8
   4  -4  -9 541.363 14.8112   6
   4  -4  -9 560.202 15.3208  10
   4  -4  -9 524.648 14.2493   7
   4   4  -9 519.028 13.9976  11
   4   4  -9 601.860 14.7660   7
  -4   4   9 526.360 15.5200  16
   4   4  -9 559.852 14.8434  10
   4   4  -9 539.345 15.0928   4
  -4   4   9 513.653 17.1699  12
  -4   4   9 542.384 17.7483   3
  -2  -4   9 2.21616 1.76521  16
   2  -4  -9 4.44715 1.52872   7
  -2  -4   9 1.11073 2.04800   8
   2  -4  -9 1.77541 1.91703   6
   2  -4  -9 2.81092 1.97284  10
  -2  -4   9 3.12692 2.97126   3
  -2   4   9 5.70017 3.20841  12
   2   4  -9 8.17860 2.32281   4
  -2   4   9 4.21401 2.23648  16
  -2   4   9 -0.4964 2.02165   5
   2   4  -9 8.86582 2.75739  14
   2   4  -9 1.95137 1.63093  10
  -2   4   9 2.47033 3.14999   3
   0  -4  -9 235.168 8.93567   6
   0  -4   9 211.800 9.90877  16
   0  -4  -9 235.366 10.1759  10
   0  -4   9 233.024 11.7629   3
   0  -4  -9 232.960 10.3457  14
   0   4   9 223.334 10.7115   3
   0   4   9 227.880 10.8317   5
   0   4   9 235.262 12.0547  12
   0   4  -9 221.713 8.62184  10
   0   4  -9 226.005 10.0884  14
   0   4   9 213.019 9.57777  16
   0   4  -9 233.294 9.73333   4
  -2  -4  -9 288.669 12.2719  14
  -2  -4  -9 280.148 12.1033  10
   2  -4   9 304.783 14.1400   3
   2   4   9 268.534 12.3711   5
  -2   4  -9 301.874 12.8075  14
   2   4   9 302.460 14.2600  12
  -2   4  -9 274.948 10.8431   4
   4  -4   9 42.7907 4.79549   9
 -11  -5   9 69.8348 8.95375   8
 -11  -5   9 91.1642 7.94520  15
  11  -5  -9 76.8307 6.50718   7
  11   5  -9 69.1310 5.73980  11
 -11   5   9 59.7184 8.25465   8
  11   5  -9 86.0309 6.65551   7
 -11   5   9 82.3250 10.2014   3
  -9  -5   9 145.008 10.5340   8
   9  -5  -9 123.541 7.19016   7
  -9  -5   9 153.862 8.86011  15
   9   5  -9 132.043 7.05066   7
   9   5  -9 138.575 7.51881  11
  -9   5   9 137.517 10.9155   3
  -9   5   9 121.283 9.30998   8
   7  -5  -9 162.961 7.85352   7
  -7  -5   9 171.974 9.74224   3
  -7  -5   9 197.911 11.1736   8
   7  -5  -9 171.781 7.31079  10
  -7  -5   9 174.416 8.23019  15
   7   5  -9 173.853 7.29259   7
  -7   5   9 169.562 8.03360  16
  -7   5   9 169.606 10.7460   3
   7   5  -9 174.867 7.75003   4
   7   5  -9 176.306 7.85733  11
   5  -5  -9 890.626 21.3919   6
   5  -5  -9 873.830 21.1117  10
  -5  -5   9 905.919 24.5443   8
  -5  -5   9 880.109 23.8679   3
   5  -5  -9 901.063 21.4226   7
   5   5  -9 848.458 19.4101   7
  -5   5   9 889.746 24.5601   3
  -5   5   9 876.605 22.2972  16
   5   5  -9 877.771 20.9164  11
   5   5  -9 894.397 21.5252   4
  -5   5   9 911.930 24.7227  12
   3  -5  -9 70.4290 4.49822   7
   3  -5  -9 65.0237 5.12808  10
  -3  -5   9 69.5122 5.45439  16
  -3  -5   9 67.3371 6.52239   3
   3  -5  -9 64.9806 5.17339   6
  -3  -5   9 72.4867 6.43368   8
   3   5  -9 65.2312 4.17855  11
  -3   5   9 75.5934 7.04470  12
   3   5  -9 72.3209 5.60467   4
  -3   5   9 74.6165 6.80346   3
   3   5  -9 69.8504 4.72735  10
  -3   5   9 71.3900 5.72168  16
   3   5  -9 70.7237 5.09035  14
  -1  -5   9 -0.5121 1.94002  16
  -1  -5   9 0.43043 2.23800   8
   1  -5  -9 1.37537 1.52541  10
   1  -5  -9 2.79645 2.28085   6
  -1  -5   9 0.80914 2.90598   3
  -1   5   9 2.08250 2.26257   5
  -1   5   9 -2.1566 2.28901   3
   1   5  -9 2.81565 2.39207   4
   1   5  -9 1.13010 1.60423  10
  -1   5   9 1.01165 2.13804  16
   1   5  -9 -1.7708 2.39705  14
  -1   5   9 0.80264 3.53134  12
  -1  -5  -9 311.642 11.0927   6
   1  -5   9 342.369 14.8661   3
  -1  -5  -9 322.363 12.9144  10
   1   5   9 332.103 14.3095  12
  -1   5  -9 310.980 13.0747  14
  -1   5  -9 324.373 12.1186   4
   1   5   9 330.881 14.1264   5
   3  -5   9 94.1474 6.92450   9
  -3  -5  -9 107.640 8.38637  10
   3   5   9 93.9287 8.06820  12
  -3   5  -9 108.743 8.68288  14
  10  -6  -9 303.912 12.4015   7
 -10  -6   9 327.369 13.8573  15
 -10  -6   9 330.272 15.8449   8
  10   6  -9 332.182 12.3978   7
  10   6  -9 333.642 12.4316  11
 -10   6   9 347.797 17.1869   3
  -8  -6   9 -1.8046 2.12244   8
  -8  -6   9 3.07164 2.52763  15
   8  -6  -9 1.87053 1.70143   7
  -8   6   9 1.79180 3.96645   3
   8   6  -9 3.37035 1.93065  11
   6  -6  -9 32.9888 3.74378  10
   6  -6  -9 33.5405 4.39319   7
  -6  -6   9 39.6113 5.96343   3
  -6  -6   9 39.4527 4.35360  15
  -6  -6   9 41.9442 6.06044   8
  -6   6   9 39.8075 6.01726  12
   6   6  -9 48.6059 4.97526  11
   6   6  -9 34.1852 4.00966   4
  -6   6   9 34.6893 4.57942  16
  -6   6   9 30.7147 5.48851   3
  -4  -6   9 325.904 13.0080   3
   4  -6  -9 322.542 10.9998   7
   4  -6  -9 336.207 11.7226   6
  -4  -6   9 320.210 13.4578   8
   4  -6  -9 322.939 11.1669  10
   4   6  -9 343.029 11.7651   4
  -4   6   9 322.371 12.3115  16
  -4   6   9 334.959 13.9644  12
   4   6  -9 359.590 11.1349  11
  -4   6   9 334.153 13.4072   3
  -2  -6   9 71.2824 7.09777   3
   2  -6  -9 64.8467 5.57260  10
   2  -6  -9 75.1394 5.24501   6
  -2  -6   9 72.4173 6.67107   8
  -2   6   9 55.7901 5.60494  16
   2   6  -9 64.9961 4.31665  11
  -2   6   9 71.5185 7.57426  12
  -2   6   9 67.3876 7.40982   5
   2   6  -9 62.0455 5.86337   4
   2   6  -9 71.7709 5.91364  14
   0  -6  -9 314.151 12.3717  10
   0  -6  -9 322.814 11.7147   6
   0  -6   9 329.984 13.9359   3
   0   6   9 315.712 14.0940  12
   0   6   9 319.298 14.4714   5
   0   6  -9 323.201 12.1470   4
   0   6  -9 317.578 12.8667  14
   2  -6   9 138.867 9.79687   3
  -2  -6  -9 124.676 8.12809  10
   2  -6   9 100.360 7.37959   9
   2   6   9 123.267 9.06457  12
   2   6   9 117.746 9.36367   5
  -2   6  -9 112.784 8.68485  14
  -2   6  -9 117.754 7.55840   4
   9  -7  -9 74.2405 6.11027   7
  -9  -7   9 68.1488 8.00558   8
  -9  -7   9 60.3019 6.35761  15
  -9   7   9 62.6747 8.17064   3
   9   7  -9 71.4509 5.48511  11
   7  -7  -9 481.593 15.3706   7
  -7  -7   9 482.129 15.5917  15
  -7  -7   9 514.250 18.2345   8
  -7   7   9 516.106 18.4994  12
   7   7  -9 475.479 14.6025   4
  -7   7   9 475.326 18.1537   3
   7   7  -9 503.736 15.2786  11
   5  -7  -9 88.8213 6.13850   6
   5  -7  -9 87.7969 6.08392   7
  -5  -7   9 86.9273 7.66299   8
  -5   7   9 91.8964 6.68779  16
   5   7  -9 79.3642 5.64571  11
   5   7  -9 78.0259 5.70737   4
  -5   7   9 95.7590 8.13283  12
  -3  -7   9 117.137 8.38298   8
   3  -7  -9 112.536 6.73558  10
   3  -7  -9 126.427 7.29576   6
  -3  -7   9 110.630 7.74905   3
   3  -7  -9 115.568 6.42820   7
  -3   7   9 118.876 9.11977   5
   3   7  -9 108.344 6.67674  14
   3   7  -9 127.811 7.32043   4
  -3   7   9 122.816 9.23979  12
   3   7  -9 120.173 6.17387  11
   1  -7  -9 111.893 7.18236  10
  -1  -7   9 114.853 8.23350   3
   1  -7  -9 102.802 6.86813   6
   1   7  -9 96.7213 7.18710   4
  -1   7   9 113.111 9.18626   5
  -1   7   9 103.367 9.15135  12
   1   7  -9 113.467 7.17459  14
  -1  -7  -9 2.10980 2.65038   6
   1  -7   9 2.58946 2.65158   9
  -1  -7  -9 3.69973 3.00391  10
   1  -7   9 4.39195 3.32823   3
  -1   7  -9 1.05671 3.12732  14
   1   7   9 1.14706 4.03684  12
  -1   7  -9 -0.9218 2.48824   4
   1   7   9 1.72632 3.87000   5
  -8  -8   9 233.314 12.5812   8
  -8  -8   9 249.858 11.2709  15
   8  -8  -9 241.524 10.5720   7
  -8   8   9 240.456 12.7904  12
   8   8  -9 264.844 10.9501  11
   6  -8  -9 107.226 6.84214   6
  -6  -8   9 111.727 8.83446   8
   6  -8  -9 112.922 7.21577   7
   6   8  -9 120.847 7.10114  11
  -6   8   9 113.459 8.95921  12
   6   8  -9 106.805 7.21578   4
   4  -8  -9 161.241 8.48433   6
   4  -8  -9 168.020 8.13734   7
  -4  -8   9 147.642 7.63543   9
  -4  -8   9 159.637 9.99030   8
  -4   8   9 178.207 10.6783   5
  -4   8   9 168.343 10.0454  12
   4   8  -9 154.198 7.58484  11
   4   8  -9 159.519 8.83147   4
  -2  -8   9 885.210 25.3720   8
  -2  -8   9 850.446 22.1559   9
   2  -8  -9 829.843 22.4134   6
   2   8  -9 862.561 22.8820  14
  -2   8   9 838.941 25.2705  12
  -2   8   9 877.069 26.6702   5
   2   8  -9 870.395 23.1364   4
   0  -8  -9 392.412 14.2843  10
   0  -8   9 384.560 14.1339   9
   0  -8  -9 390.576 14.0032   6
   0   8  -9 391.352 14.2784   4
   0   8  -9 366.032 14.6663  14
   0   8   9 385.996 16.3596  12
   0   8   9 391.458 17.0969   5
   7  -9  -9 7.09666 2.50688   7
  -7  -9   9 3.20732 3.49660   8
   7   9  -9 9.44753 3.13991  11
  -7   9   9 3.90751 3.40762  12
   7   9  -9 5.89542 2.91687   4
   5  -9  -9 2.88718 2.68727   6
   5  -9  -9 7.53399 2.99952   7
  -5  -9   9 7.92000 3.51459   8
   5   9  -9 11.0259 3.02986  11
  -5   9   9 11.2524 4.36175  12
  -5   9   9 11.4198 4.40497   5
   5   9  -9 7.92061 3.38698   4
   3  -9  -9 18.2076 3.95700   6
  -3  -9   9 18.9356 4.54238   8
  -3  -9   9 17.6928 3.23869   9
  -3   9   9 16.2925 4.89167  12
  -3   9   9 17.9666 5.33327   5
   3   9  -9 24.3622 4.75866   4
   1  -9  -9 81.9473 6.76738  10
  -1  -9   9 90.6297 7.05185   9
   1  -9  -9 91.4168 7.22650   6
   1   9  -9 103.449 7.29715   4
  -1   9   9 95.2159 8.76271  12
  -1   9   9 91.1124 9.56903   5
   1   9  -9 98.9284 7.88283  14
  -6 -10   9 31.9314 5.59856   8
   6 -10  -9 30.3049 4.49566   6
  -6  10   9 25.0772 5.45294   5
   6  10  -9 31.4825 4.81797   4
   6  10  -9 35.2361 4.47236  11
  -4 -10   9 11.2192 3.72404   8
   4 -10  -9 5.08680 3.04414   6
   4  10  -9 10.5505 2.42181  11
   4  10  -9 8.40906 2.82696   4
  -4  10   9 6.91376 4.19475   5
   2 -10  -9 61.9587 6.55492   6
  -2 -10   9 48.6186 5.47711   9
   2  10  -9 58.6996 6.51368   4
   2  10  -9 57.1311 6.36165  14
  -2  10   9 57.9846 7.62676   5
  10   0 -10 314.799 12.3440   7
 -10   0  10 334.554 16.0892   8
 -10   0  10 351.161 16.7513   3
  -8   0  10 474.619 18.6068   3
   8   0 -10 459.540 14.2005   7
  -8   0  10 483.749 17.6481   8
  -6   0  10 31.6186 6.07789   3
  -6   0  10 28.9944 3.82492  16
   6   0 -10 31.6771 3.96102   4
  -6   0  10 28.4066 4.61609  12
  -6   0  10 40.5378 5.47420   8
   6   0 -10 30.9173 3.87059  10
   6   0 -10 30.0146 3.45793   7
  -4   0  10 48.6214 5.66874  12
   4   0 -10 50.2311 4.94555  10
   4   0 -10 44.4357 4.58174   4
  -4   0  10 39.3580 4.52080   8
  -4   0  10 45.0476 4.80854  16
   4   0 -10 44.5852 3.35008   7
  -4   0  10 48.0951 6.74967   3
  -2   0  10 596.558 17.4607  16
  -2   0  10 611.042 19.7320   3
  -2   0  10 603.836 18.4990  12
   2   0 -10 597.264 16.6137  14
   2   0 -10 598.942 17.0211  10
   2   0 -10 601.058 16.8661   4
   0   0  10 145.025 9.70603   3
   0   0  10 143.832 8.23422  16
   0   0 -10 149.700 7.96323   4
   0   0 -10 142.537 8.16490  14
   0   0 -10 163.382 8.14649  10
   0   0  10 158.022 9.57656  12
   2   0  10 258.101 12.4673  12
  -2   0 -10 261.639 11.1427  10
   2   0  10 284.543 13.8533   3
  -2   0 -10 249.815 11.9013  14
 -11  -1  10 10.0855 4.42001   8
  11  -1 -10 9.97888 3.68798   7
 -11  -1  10 21.5980 5.88886   3
  11   1 -10 15.9699 3.70826   7
 -11   1  10 9.22792 5.49949   8
 -11   1  10 19.1877 5.50087   3
   9  -1 -10 427.247 14.0065   7
  -9  -1  10 428.146 17.4707   8
  -9  -1  10 428.902 18.0568   3
  -9   1  10 416.873 16.6596   8
   9   1 -10 422.371 13.8014   7
  -9   1  10 426.420 18.2871   3
  -7  -1  10 340.718 11.9490  16
  -7  -1  10 364.752 14.7645   8
   7  -1 -10 356.202 11.6652   7
   7  -1 -10 369.286 12.1954  10
  -7  -1  10 370.601 15.5489   3
   7   1 -10 352.170 12.0555  10
   7   1 -10 365.622 11.6118   4
  -7   1  10 379.198 15.9811   3
  -7   1  10 355.136 12.0431  16
   7   1 -10 363.597 11.6696   7
  -7   1  10 369.506 14.2241   8
  -5  -1  10 138.755 7.21534  16
   5  -1 -10 144.403 7.26154  10
  -5  -1  10 148.981 9.97336   3
   5  -1 -10 138.495 6.39320   7
  -5  -1  10 140.886 8.05581  12
  -5  -1  10 152.621 8.57228   8
  -5   1  10 146.317 7.45383  16
  -5   1  10 147.166 8.70014  12
  -5   1  10 159.873 10.1245   3
   5   1 -10 149.449 7.28742   4
  -5   1  10 135.312 7.59901   8
   5   1 -10 153.507 7.26002  10
   5   1 -10 150.496 6.34903   7
  -3  -1  10 753.344 20.3576  16
  -3  -1  10 754.914 22.7355   3
   3  -1 -10 776.900 19.1406  14
  -3  -1  10 772.302 20.0719   8
   3  -1 -10 729.921 19.5395  10
   3  -1 -10 771.601 19.9331   4
  -3  -1  10 748.228 20.8006  12
  -3   1  10 801.278 23.1210   3
  -3   1  10 739.205 20.2022  16
   3   1 -10 735.635 18.6208  14
   3   1 -10 786.062 19.7469  10
  -3   1  10 797.673 22.0883  12
   3   1 -10 764.547 19.5261   4
  -1  -1  10 194.020 9.26634  16
  -1  -1  10 211.005 10.2682  12
   1  -1 -10 185.310 8.92631  10
  -1  -1  10 206.586 11.2558   3
   1  -1 -10 187.698 9.03817  14
  -1   1  10 205.215 11.0204   3
   1   1 -10 204.031 9.18943   4
  -1   1  10 186.056 8.84117  16
  -1   1  10 190.235 10.5594  12
   1   1 -10 189.612 8.87936  10
   1   1 -10 200.095 9.18141  14
  -1  -1 -10 75.2118 6.13526  14
  -1  -1 -10 74.7219 6.37282  10
   1  -1  10 88.8865 9.03226   3
   1  -1  10 78.9673 6.99251  12
  -1   1 -10 66.5839 5.77343  10
  -1   1 -10 83.3777 6.17272   4
   1   1  10 90.6472 8.53172  12
   1   1  10 77.5886 7.56299   3
  -1   1 -10 78.4142 6.78913  14
   3  -1  10 365.824 14.5229  12
  -3  -1 -10 355.636 14.9003  14
  -3  -1 -10 371.809 14.1610  10
   3  -1  10 389.288 16.7208   3
  -3   1 -10 341.738 13.2034  10
  -3   1 -10 360.061 14.8903  14
   3   1  10 359.078 15.3209  12
   3   1  10 363.391 15.8949   3
 -10  -2  10 569.879 21.4426   8
 -10  -2  10 600.403 21.9321   3
  10  -2 -10 584.686 17.9031   7
 -10   2  10 581.532 21.3099   8
 -10   2  10 585.143 22.5956   3
  10   2 -10 588.684 17.6363   7
  -8  -2  10 113.122 9.25841   8
  -8  -2  10 104.313 9.09149   3
   8  -2 -10 110.193 6.75995   7
  -8   2  10 105.976 9.62270   3
  -8   2  10 115.306 8.76164   8
   8   2 -10 118.203 6.38502   7
  -6  -2  10 279.013 12.3737   8
  -6  -2  10 288.186 11.3012  12
   6  -2 -10 258.338 9.44784   7
  -6  -2  10 283.216 13.2580   3
   6  -2 -10 276.640 10.3675  10
  -6  -2  10 271.552 10.5770  16
   6   2 -10 274.682 9.33534   7
  -6   2  10 273.236 13.2096   3
   6   2 -10 261.320 10.0295  10
  -6   2  10 260.452 11.9435  12
   6   2 -10 268.219 10.0526   4
  -6   2  10 269.513 10.3638  16
  -6   2  10 267.540 11.1818   8
  -4  -2  10 140.455 7.82809  16
  -4  -2  10 148.438 9.57515   3
  -4  -2  10 151.927 8.17650  12
   4  -2 -10 141.065 6.22248   7
   4  -2 -10 138.375 7.07700  10
  -4  -2  10 144.111 8.19282   8
  -4   2  10 152.692 10.0553   3
   4   2 -10 147.300 7.51772   4
  -4   2  10 145.721 7.61239  16
   4   2 -10 156.038 7.51135  10
  -4   2  10 157.982 9.15734  12
   2  -2 -10 288.690 10.6935  14
  -2  -2  10 290.577 13.0909   3
   2  -2 -10 274.011 10.7936  10
  -2  -2  10 275.956 11.1710  16
  -2  -2  10 254.664 10.8828  12
   2   2 -10 263.650 10.1649  14
  -2   2  10 275.044 12.5530  12
  -2   2  10 278.269 11.0747  16
   2   2 -10 275.540 10.3882   4
  -2   2  10 247.705 10.9454   5
  -2   2  10 265.215 12.1076   3
   2   2 -10 281.548 10.4440  10
   0  -2 -10 1045.93 26.0649  14
   0  -2  10 987.715 25.5033  12
   0  -2  10 919.593 25.1503  16
   0  -2 -10 1040.21 25.7575  10
   0  -2  10 1047.31 28.8047   3
   0   2  10 967.391 25.2094  16
   0   2  10 1017.87 27.5608   3
   0   2 -10 1032.50 24.9429   4
   0   2 -10 991.971 24.3541  10
   0   2  10 1050.99 28.0805  12
   0   2 -10 1045.13 25.7855  14
  -2  -2 -10 197.193 10.2133  14
   2  -2  10 218.274 12.3666   3
  -2  -2 -10 184.805 9.86559  10
  -2   2 -10 181.895 8.99524  10
   2   2  10 185.258 10.9410   3
  -2   2 -10 193.979 9.15277   4
  -2   2 -10 172.969 10.1346  14
   2   2  10 205.722 11.7878  12
  11  -3 -10 16.5511 3.30922   7
 -11  -3  10 18.3235 5.58332   3
 -11  -3  10 10.3098 5.66363   8
  11   3 -10 21.0768 3.99447   7
 -11   3  10 18.1874 5.95741   3
 -11   3  10 4.59028 4.91829   8
  -9  -3  10 3.59795 4.28160   8
   9  -3 -10 9.45489 3.11000   7
  -9  -3  10 2.63395 3.92027   3
   9   3 -10 5.89162 2.61803   7
  -9   3  10 6.94408 4.54030   3
  -9   3  10 11.1670 4.43088   8
  -7  -3  10 29.0067 5.78303   3
  -7  -3  10 29.4060 5.71178   8
  -7  -3  10 23.7119 3.78002  16
   7  -3 -10 26.6021 3.89998   7
   7  -3 -10 22.2621 3.46059  10
  -7   3  10 22.0516 3.55623  16
  -7   3  10 24.8331 4.56894   8
   7   3 -10 24.0792 3.59323   4
   7   3 -10 33.0458 3.96473   7
  -7   3  10 35.2342 5.79926   3
  -5  -3  10 152.232 9.03886   8
  -5  -3  10 127.953 8.51988   3
   5  -3 -10 148.418 6.92602   7
   5  -3 -10 143.031 7.37640  10
  -5  -3  10 139.553 7.45794  16
  -5   3  10 135.455 7.27675  16
   5   3 -10 134.421 7.05325  10
   5   3 -10 134.695 5.96026   7
  -5   3  10 142.134 9.10738  12
  -5   3  10 142.613 9.89849   3
   5   3 -10 138.251 7.31070   4
   3  -3 -10 6.18263 2.25897  14
   3  -3 -10 10.8674 2.08373   7
   3  -3 -10 12.3730 2.97858  10
  -3  -3  10 5.97811 2.28706   8
  -3  -3  10 8.47328 2.82373  16
  -3  -3  10 10.7041 4.22063   3
  -3   3  10 4.97200 3.85130   3
   3   3 -10 5.79146 2.22686  10
  -3   3  10 11.4603 4.28837  12
   3   3 -10 4.65210 2.32477  14
   3   3 -10 7.86663 2.40306   4
  -3   3  10 5.95490 2.56478  16
   1  -3 -10 0.45622 2.18495  14
  -1  -3  10 0.62914 2.20222  16
   1  -3 -10 1.01516 2.15677  10
   1  -3 -10 -3.3368 1.51533   6
  -1  -3  10 2.49522 3.30109   3
  -1  -3  10 0.15715 1.97803   8
  -1   3  10 1.26726 2.44651  16
   1   3 -10 -0.9137 2.19272   4
  -1   3  10 -1.0937 2.88826   3
  -1   3  10 4.17825 3.66425  12
  -1   3  10 1.24209 2.58558   5
   1   3 -10 2.05619 1.90607  10
   1   3 -10 3.24784 2.60919  14
  -1  -3 -10 27.3108 4.53169  10
  -1  -3 -10 20.9738 4.37210  14
   1  -3  10 22.7487 4.70525   3
   1   3  10 30.6723 6.12276  12
   1   3  10 13.1130 4.11104   3
  -1   3 -10 21.9085 3.99285   4
  -1   3 -10 20.9839 4.55099  14
  -1   3 -10 21.2945 4.11331  10
  -3  -3 -10 2.72979 3.02765  10
  -3  -3 -10 -0.8142 3.22480  14
   3  -3  10 2.06388 4.21682   3
   3   3  10 11.7926 4.83035  12
  -3   3 -10 0.57218 3.56082  14
  10  -4 -10 239.114 10.8188   7
 -10  -4  10 212.307 12.4283   3
 -10  -4  10 235.833 14.0242   8
  10   4 -10 223.117 10.0805   7
 -10   4  10 220.126 13.9136   3
 -10   4  10 225.844 13.0196   8
   8  -4 -10 460.737 14.1107  10
  -8  -4  10 455.614 17.6321   3
  -8  -4  10 521.896 19.1068   8
   8  -4 -10 460.228 14.9731   7
  -8   4  10 493.930 19.5149   3
   8   4 -10 466.923 14.4846  11
   8   4 -10 479.625 14.2645   7
   6  -4 -10 1414.48 31.4705   7
  -6  -4  10 1468.36 35.6871   3
   6  -4 -10 1465.48 31.6605  10
  -6  -4  10 1514.97 35.8230   8
  -6  -4  10 1425.73 32.8442  16
   6   4 -10 1428.24 31.2139  11
  -6   4  10 1469.15 36.3203   3
   6   4 -10 1468.81 30.1704   7
  -6   4  10 1496.63 36.0955  12
  -6   4  10 1408.41 32.2626  16
   6   4 -10 1480.60 31.8076   4
  -4  -4  10 1251.93 31.6316   3
   4  -4 -10 1254.89 28.6196  10
   4  -4 -10 1204.16 26.8718   7
  -4  -4  10 1249.49 30.8773   8
  -4  -4  10 1228.54 29.6476  16
  -4   4  10 1300.93 32.2622  12
   4   4 -10 1282.27 28.7197   4
  -4   4  10 1241.45 29.4348  16
  -4   4  10 1253.91 31.8720   3
   4   4 -10 1249.25 27.8967  10
   2  -4 -10 447.093 13.3082   6
  -2  -4  10 412.167 14.7963  16
  -2  -4  10 433.150 15.4012   8
   2  -4 -10 456.508 14.7681  10
  -2  -4  10 458.638 16.9501   3
  -2   4  10 417.373 14.7020  16
  -2   4  10 471.319 17.3385  12
  -2   4  10 440.776 15.9086   3
   2   4 -10 428.284 13.2068  10
  -2   4  10 423.685 15.8279   5
   2   4 -10 445.345 14.0153  14
   2   4 -10 421.334 14.1399   4
   0  -4 -10 394.065 14.4124  14
   0  -4 -10 407.821 14.5696  10
   0  -4  10 402.290 16.3499   3
   0   4  10 394.021 15.2506   5
   0   4 -10 412.647 14.6517  14
   0   4  10 392.454 16.4818  12
   0   4  10 387.909 15.2533   3
   0   4 -10 411.175 14.0749   4
  -2  -4 -10 315.287 13.5839  10
   2  -4  10 328.371 15.4431   3
  -2  -4 -10 321.445 13.5960  14
  -2   4 -10 344.530 12.5391   4
   2   4  10 345.361 15.9602  12
  -2   4 -10 337.681 14.1294  14
   9  -5 -10 116.587 7.24262   7
  -9  -5  10 116.588 9.94413   8
  -9   5  10 108.065 10.0595   3
   9   5 -10 117.995 7.15827  11
   9   5 -10 113.556 6.96393   7
  -7  -5  10 359.343 15.4358   8
  -7  -5  10 334.060 14.4169   3
   7  -5 -10 361.827 11.8917  10
   7  -5 -10 365.618 12.6951   7
  -7   5  10 374.623 15.6363  12
   7   5 -10 368.847 11.6326   7
  -7   5  10 348.553 12.8329  16
  -7   5  10 365.333 16.1291   3
   7   5 -10 376.004 12.3772   4
   7   5 -10 373.300 12.5256  11
  -5  -5  10 422.088 15.9448   8
  -5  -5  10 412.119 15.7783   3
  -5  -5  10 393.152 14.3790  16
   5  -5 -10 408.452 13.3233  10
   5  -5 -10 411.663 12.8092   7
   5   5 -10 410.380 12.7594  11
  -5   5  10 406.645 16.0808  12
   5   5 -10 407.264 13.5549   4
  -5   5  10 398.235 13.8558  16
  -5   5  10 407.447 16.0727   3
   3  -5 -10 262.628 10.7111  10
  -3  -5  10 222.182 12.1599  16
   3  -5 -10 252.027 8.91635   7
   3  -5 -10 248.867 9.94242   6
  -3  -5  10 273.762 12.7289   3
  -3  -5  10 254.802 11.5991   8
  -3   5  10 266.132 13.1631  12
  -3   5  10 253.929 12.3557   5
  -3   5  10 242.714 10.6860  16
  -3   5  10 263.183 12.5895   3
   3   5 -10 262.006 9.70513  10
   3   5 -10 261.244 10.7926   4
   3   5 -10 272.664 10.1536  14
  -1  -5  10 137.198 9.68061   3
   1  -5 -10 114.046 6.84092   6
   1  -5 -10 131.427 8.00937  10
  -1   5  10 134.300 9.48573   5
  -1   5  10 121.802 9.72702  12
   1   5 -10 105.939 6.87180  14
   1   5 -10 130.513 7.91168   4
   1  -5  10 89.3907 8.29239   3
  -1  -5 -10 86.6649 6.71803  10
   1   5  10 87.6472 9.49690  12
  -1   5 -10 66.3420 6.44345   4
   1   5  10 65.7753 7.80085   5
  -1   5 -10 74.1914 6.52576  14
  10  -6 -10 4.54162 2.59747   7
 -10  -6  10 0.04738 3.72024   8
 -10  -6  10 2.25608 2.80987  15
  10   6 -10 4.42698 2.14630  11
  10   6 -10 0.99241 2.56629   7
 -10   6  10 3.63692 3.60734   3
   8  -6 -10 20.7329 3.69264   7
  -8  -6  10 40.5798 6.14730   8
  -8  -6  10 23.7589 3.79930  15
   8   6 -10 26.2908 3.90014   7
  -8   6  10 32.7140 6.53005   3
   8   6 -10 27.3603 4.21497  11
  -8   6  10 34.9316 6.30616  12
  -6  -6  10 258.055 12.2806   8
   6  -6 -10 254.976 9.72020  10
   6  -6 -10 255.436 10.2874   7
  -6  -6  10 250.328 12.2601   3
  -6   6  10 244.593 12.6763   3
  -6   6  10 243.174 12.7756  12
   6   6 -10 239.330 9.86509  11
   6   6 -10 235.031 8.79712   7
   6   6 -10 247.242 10.2128   4
  -4  -6  10 138.862 9.02818   3
  -4  -6  10 133.737 9.18209   8
   4  -6 -10 134.079 6.75676   7
   4  -6 -10 151.704 7.90270   6
   4  -6 -10 137.910 7.51385  10
   4   6 -10 154.323 8.31744   4
  -4   6  10 135.787 10.2673  12
  -4   6  10 149.455 9.37802   3
   4   6 -10 136.121 6.86528  11
  -2  -6  10 26.9423 5.23339   3
   2  -6 -10 21.1920 3.59542  10
  -2  -6  10 26.0873 4.76456   8
   2  -6 -10 27.9427 4.25244   6
  -2   6  10 25.9385 5.31588   5
   2   6 -10 24.3177 4.24066  14
  -2   6  10 24.0095 5.80490  12
   2   6 -10 29.4510 4.62017   4
   0  -6 -10 9.71499 3.13186   6
   0  -6  10 14.0160 4.55586   3
   0  -6 -10 9.85845 3.53509  10
   0   6 -10 20.7673 4.62175  14
   0   6  10 12.6203 4.41259   5
   0   6  10 6.99373 4.38484  12
   0   6 -10 7.28373 3.29462   4
  -9  -7  10 183.301 9.56413  15
   9  -7 -10 185.491 9.36768   7
  -9  -7  10 206.714 12.4309   8
   9   7 -10 210.811 9.18560   7
  -9   7  10 205.838 13.1115   3
  -9   7  10 193.446 11.9031  12
   9   7 -10 195.546 9.36553  11
   7  -7 -10 155.347 8.27052   7
  -7  -7  10 141.012 9.93424   8
   7   7 -10 149.740 8.12447  11
  -7   7  10 147.324 10.3532   3
   7   7 -10 141.071 7.77668   4
   7   7 -10 147.836 7.25483   7
  -7   7  10 144.434 10.3115  12
  -5  -7  10 175.308 10.6613   8
   5  -7 -10 184.735 8.98490   6
   5  -7 -10 172.437 8.16093   7
   5   7 -10 181.889 8.14688  11
  -5   7  10 172.720 11.3304  12
   5   7 -10 173.972 8.96707   4
  -3  -7  10 163.989 10.2283   8
  -3  -7  10 154.780 9.59558   3
   3  -7 -10 143.222 8.38129   6
   3  -7 -10 153.790 8.07986  10
   3   7 -10 173.719 9.33683   4
  -3   7  10 169.758 11.1395  12
  -3   7  10 178.797 11.2884   5
  -1  -7  10 498.251 18.2011   3
   1  -7 -10 496.485 15.7637   6
   1  -7 -10 499.928 16.7314  10
   1   7 -10 507.396 16.6653   4
  -1   7  10 526.950 20.0129   5
   1   7 -10 522.234 17.1255  14
  -1   7  10 523.665 19.8500  12
  -1  -7 -10 322.285 13.6509  10
   1  -7  10 349.199 16.1637   3
   1  -7  10 339.890 13.4041   9
  -1  -7 -10 321.238 11.9671   6
   1   7  10 364.897 16.8902  12
  -1   7 -10 307.437 12.7975   4
   1   7  10 319.469 15.4565   5
   8  -8 -10 42.6314 5.62562   7
  -8  -8  10 54.9504 7.43118   8
  -8   8  10 45.8434 6.97649  12
   8   8 -10 48.7854 5.42671  11
  -6  -8  10 9.68513 3.95629   8
   6  -8 -10 4.62671 2.73610   7
  -6   8  10 7.72438 4.47982  12
   6   8 -10 10.3715 3.08197  11
   6   8 -10 11.5129 3.39892   4
  -4  -8  10 80.1304 6.15018   9
   4  -8 -10 91.3416 6.86418   6
  -4  -8  10 104.936 8.71867   8
  -4   8  10 96.0941 9.77290  12
   4   8 -10 88.8096 5.92867  11
  -4   8  10 98.7870 9.21716   5
   4   8 -10 98.0375 7.45558   4
   2  -8 -10 40.3887 4.87345  10
  -2  -8  10 51.5105 5.52999   9
   2  -8 -10 45.3274 5.74250   6
   2   8 -10 51.9782 6.09974  14
  -2   8  10 34.2085 6.54262   5
   2   8 -10 38.7862 5.58033   4
  -2   8  10 58.3122 8.19835  12
   0  -8 -10 29.4380 4.68170   6
   0  -8 -10 20.8587 4.26977  10
   0  -8  10 24.9180 4.56927   9
   0   8 -10 32.2924 5.79803   4
   0   8  10 30.0860 6.11967   5
   0   8 -10 16.0197 4.60712  14
   0   8  10 30.1472 6.44908  12
   5  -9 -10 46.2676 5.14367   6
  -5  -9  10 52.9704 6.63814   8
   5   9 -10 37.3096 4.50068  11
   5   9 -10 37.2612 4.81411   4
  -5   9  10 40.9178 6.99114  12
  -5   9  10 50.2584 7.76936   5
  -3  -9  10 120.185 7.59099   9
   3  -9 -10 101.064 7.66003   6
  -3  -9  10 107.485 8.92155   8
   3   9 -10 99.8799 8.21516   4
  -3   9  10 130.946 10.7804   5
 -10   0  11 7.62178 4.98668   3
 -10   0  11 -2.3314 3.96542   8
  10   0 -11 -0.0024 2.16283   7
  -8   0  11 9.60958 4.62836   3
  -8   0  11 3.16410 3.64637   8
   8   0 -11 -2.8759 1.56979   7
  -6   0  11 -4.6377 3.37315   3
   6   0 -11 0.47451 1.87830   4
   6   0 -11 -1.7104 1.56863  10
  -6   0  11 2.23326 3.14533  12
  -6   0  11 -1.0406 1.47537  16
  -6   0  11 -1.6605 2.42514   8
   6   0 -11 -0.3756 1.62075   7
   4   0 -11 3.80743 2.40539  10
  -4   0  11 0.88838 3.82018   3
   4   0 -11 -1.0748 1.91855   4
  -4   0  11 -2.7488 2.55191  12
  -4   0  11 4.22259 2.56299   8
  -4   0  11 -1.7119 2.18800  16
   2   0 -11 0.50273 1.53337  10
  -2   0  11 -2.4173 3.01314  12
   2   0 -11 0.85021 2.20539  14
  -2   0  11 -1.5069 3.25779   3
   2   0 -11 1.46230 1.82499   4
   0   0  11 -0.2133 3.00749  12
   0   0 -11 1.88584 1.81619  10
   0   0 -11 -1.1813 2.38608  14
   0   0  11 2.48916 3.89623   3
   2   0  11 0.94543 3.23162   3
  -2   0 -11 -5.3565 2.31066  14
   2   0  11 1.53541 3.38826  12
  -2   0 -11 -2.1720 2.33068  10
  11  -1 -11 147.217 8.72088   7
 -11  -1  11 147.921 11.8566   3
 -11  -1  11 142.126 11.6565   8
  11   1 -11 146.933 8.72976   7
 -11   1  11 149.540 12.3054   3
 -11   1  11 145.608 11.5114   8
   9  -1 -11 411.829 14.1678   7
  -9  -1  11 411.880 18.1593   3
  -9  -1  11 407.191 17.3405   8
   9   1 -11 435.120 14.2679   7
  -9   1  11 412.188 17.0083   8
  -9   1  11 426.880 18.9105   3
   7  -1 -11 81.9697 5.71059   7
  -7  -1  11 69.2644 5.91930  16
  -7  -1  11 93.5444 8.01570   8
  -7  -1  11 81.0069 8.94151   3
  -7  -1  11 76.3728 6.89447  12
   7  -1 -11 70.1231 5.68578  10
   7   1 -11 81.0166 5.65227  10
  -7   1  11 90.7860 8.32379   3
  -7   1  11 92.8395 7.65178   8
   7   1 -11 78.6285 5.42819   4
  -7   1  11 81.0062 7.38787  12
   7   1 -11 82.4741 5.45260   7
  -7   1  11 72.1628 6.00037  16
  -5  -1  11 5.77723 2.77562  16
  -5  -1  11 8.66881 3.39926   3
  -5  -1  11 3.95387 2.99675   8
   5  -1 -11 2.05710 1.70215   7
  -5  -1  11 0.65221 2.54316  12
   5  -1 -11 3.59639 2.37731  10
   5   1 -11 3.23835 1.86305   4
  -5   1  11 6.94388 3.37455  12
   5   1 -11 3.05814 1.62665  10
  -5   1  11 2.06457 3.75251   3
  -5   1  11 1.42030 2.36968  16
  -3  -1  11 33.4880 5.14474  12
  -3  -1  11 36.3911 4.79760   8
  -3  -1  11 48.1503 7.09088   3
   3  -1 -11 37.1409 4.55953  10
   3  -1 -11 36.5146 4.42422  14
  -3  -1  11 31.0796 4.57184  16
   3   1 -11 38.4786 4.55312  14
  -3   1  11 43.7283 5.38666  16
  -3   1  11 39.6580 6.59659   3
  -3   1  11 43.6755 6.17534  12
   3   1 -11 30.0120 4.25785  10
   3   1 -11 40.5684 4.98314   4
   1  -1 -11 106.059 6.94498  10
  -1  -1  11 111.254 8.07844  12
   1  -1 -11 129.168 7.89199  14
  -1  -1  11 103.736 8.89104   3
   1   1 -11 112.448 7.22272  10
   1   1 -11 103.757 7.02879  14
  -1   1  11 123.763 9.36586  12
  -1   1  11 106.205 8.90710   3
   1   1 -11 118.511 7.54101   4
   1  -1  11 259.573 12.2487  12
   1  -1  11 274.249 13.8149   3
  -1  -1 -11 256.388 11.7200  10
  -1  -1 -11 240.703 11.8103  14
   1   1  11 267.760 13.4208   3
   1   1  11 263.866 13.2532  12
  -1   1 -11 263.288 11.3850  10
  -1   1 -11 250.186 11.8299  14
 -10  -2  11 294.831 15.6203   3
 -10  -2  11 330.081 16.0393   8
  10  -2 -11 310.469 12.5139   7
 -10   2  11 308.799 15.3187   8
 -10   2  11 313.567 16.7937   3
  10   2 -11 324.714 12.4711   7
  -8  -2  11 357.036 16.3780   3
   8  -2 -11 355.999 12.6743   7
  -8  -2  11 366.770 15.8684   8
   8  -2 -11 376.211 12.8804  10
   8   2 -11 351.415 12.2544   7
  -8   2  11 366.449 17.0459   3
  -8   2  11 360.027 14.8080   8
  -6  -2  11 321.521 13.6183   8
  -6  -2  11 320.678 12.6356  12
   6  -2 -11 321.833 11.0798   7
  -6  -2  11 283.357 11.7509  16
  -6  -2  11 319.705 15.0180   3
   6  -2 -11 331.876 12.0252  10
  -6   2  11 327.166 15.4572   3
   6   2 -11 320.975 11.6860   4
  -6   2  11 305.194 13.7881  12
  -6   2  11 312.320 11.9571  16
   6   2 -11 304.075 11.5187  10
   6   2 -11 306.844 10.1974   7
  -4  -2  11 749.783 21.2158   8
  -4  -2  11 708.704 20.6719  16
   4  -2 -11 758.339 20.3599  10
  -4  -2  11 732.721 20.7947  12
  -4  -2  11 767.665 23.8011   3
  -4   2  11 757.109 22.9884  12
   4   2 -11 733.001 20.0907   4
   4   2 -11 751.856 19.8769  10
  -4   2  11 751.043 23.5303   3
  -4   2  11 719.314 20.4033  16
   2  -2 -11 357.983 13.3914  10
   2  -2 -11 375.273 13.2511  14
  -2  -2  11 267.792 17.0377  12
  -2  -2  11 350.775 15.5597   3
  -2  -2  11 364.968 13.1724   8
  -2   2  11 389.417 15.7511  12
   2   2 -11 361.721 12.7767  10
   2   2 -11 361.587 13.0570   4
   2   2 -11 341.798 12.4011  14
  -2   2  11 348.262 15.1259   3
   0  -2  11 161.693 11.0872   3
   0  -2 -11 178.936 9.46473  14
   0  -2 -11 167.901 9.43055  10
   0   2 -11 157.124 8.54667  10
   0   2 -11 186.214 9.82085  14
   0   2  11 159.423 10.8462  12
   0   2 -11 174.692 9.14262   4
   0   2  11 167.521 10.7667   3
  -9  -3  11 11.4319 4.64702   8
  -9  -3  11 0.84750 3.86394   3
   9  -3 -11 -0.5057 2.27110   7
  -9   3  11 7.65478 4.32771   8
  -9   3  11 4.94883 5.12731   3
   9   3 -11 7.43341 2.92179   7
   7  -3 -11 30.8192 4.12890  10
  -7  -3  11 25.8078 5.29910   8
  -7  -3  11 23.9773 6.10625   3
  -7  -3  11 28.6126 4.14434  16
   7  -3 -11 33.6638 4.52747   7
  -7   3  11 43.6659 7.40216   3
   7   3 -11 31.2270 4.19098   4
  -7   3  11 31.8977 4.44588  16
  -7   3  11 26.5913 5.40018  12
   7   3 -11 25.4327 3.66914   7
   5  -3 -11 59.8023 4.74417   7
  -5  -3  11 62.9886 6.64631  16
  -5  -3  11 63.4553 7.90040   3
   5  -3 -11 61.2092 5.80432  10
  -5  -3  11 62.2005 6.76600   8
  -5   3  11 76.1002 8.30912  12
   5   3 -11 67.3691 5.54948  10
   5   3 -11 68.9964 6.30210   4
  -5   3  11 55.6568 5.87761  16
  -5   3  11 79.5676 8.31169   3
   3  -3 -11 139.817 8.14746  10
  -3  -3  11 142.922 8.64455   8
  -3  -3  11 146.333 10.0956   3
   3   3 -11 133.294 8.03269   4
   3   3 -11 134.550 7.51945  10
  -3   3  11 141.538 10.0659  12
  -3   3  11 139.991 9.91090   3
   3   3 -11 167.516 9.45613  14
   1  -3 -11 81.8044 6.16919  14
  -1  -3  11 77.6512 7.34640   3
   1  -3 -11 60.6425 6.42612  10
   1   3 -11 78.0651 7.28859  14
   1   3 -11 67.5944 6.70641   4
   1   3 -11 67.5417 5.25847  10
  -1   3  11 74.2998 7.54338   5
  -1   3  11 68.0562 7.75181   3
  -1   3  11 81.5285 8.80384  12
  -1  -3 -11 26.2220 4.91024  14
   1  -3  11 27.7290 6.26352   3
  -1  -3 -11 19.7026 3.99380  10
   1   3  11 25.3003 5.14915   3
  -1   3 -11 20.9014 3.92844   4
   1   3  11 18.6803 5.55354  12
  -1   3 -11 18.6036 4.26447  14
  10  -4 -11 7.99921 3.27797   7
 -10  -4  11 7.80063 4.75573   8
 -10  -4  11 5.95983 4.41757   3
 -10   4  11 7.02303 5.43076   3
  10   4 -11 8.65162 3.22940   7
   8  -4 -11 63.6766 6.29970   7
  -8  -4  11 60.7858 8.22683   3
  -8  -4  11 65.0792 7.87877   8
   8  -4 -11 66.8176 5.43811  10
  -8   4  11 81.0453 8.96985  12
  -8   4  11 78.2590 9.42421   3
   8   4 -11 65.1650 5.86782   7
   6  -4 -11 473.071 14.7963   7
  -6  -4  11 508.254 18.2148   8
   6  -4 -11 497.285 15.4572  10
  -6  -4  11 516.008 18.7892   3
  -6   4  11 500.729 18.6408  12
   6   4 -11 501.545 15.4117   4
  -6   4  11 503.920 19.1702   3
   4  -4 -11 102.698 6.94377  10
   4  -4 -11 98.2397 5.64171   7
  -4  -4  11 113.793 9.12466   3
  -4  -4  11 105.186 7.55990   8
   4   4 -11 95.7834 6.91353   4
  -4   4  11 93.8234 8.67364   3
   4   4 -11 107.236 6.66310  10
  -4   4  11 119.186 9.33940  12
  -2  -4  11 190.657 10.1431   8
  -2  -4  11 180.312 11.1583   3
   2  -4 -11 161.839 9.00789  10
  -2   4  11 182.822 11.6219  12
  -2   4  11 167.130 10.3635   3
   2   4 -11 176.275 9.39004   4
  -2   4  11 173.795 10.4682   5
   2   4 -11 172.636 8.38680  10
   2   4 -11 181.792 8.99153  14
   0  -4 -11 168.244 9.80717  10
   0  -4  11 167.729 11.1428   3
   0  -4 -11 162.137 9.50975  14
   0   4  11 177.055 11.6871  12
   0   4 -11 148.973 8.38907   4
   0   4 -11 156.427 9.42589  14
  -9  -5  11 19.8005 5.28631   8
   9  -5 -11 16.8967 3.40504   7
  -9   5  11 16.6753 5.77577   3
  -9   5  11 17.0063 4.84237  12
   9   5 -11 11.9128 3.14525   7
   9   5 -11 30.1654 4.69224  11
   7  -5 -11 229.992 9.67926  10
  -7  -5  11 244.929 12.6677   3
   7  -5 -11 226.785 9.84172   7
  -7  -5  11 234.648 12.6561   8
  -7   5  11 230.741 12.8664  12
   7   5 -11 242.423 10.2543   4
   7   5 -11 249.139 10.0413  11
   7   5 -11 227.784 9.12921   7
  -7   5  11 233.322 13.4125   3
   5  -5 -11 310.535 11.0149   7
   5  -5 -11 336.456 12.3420  10
  -5  -5  11 310.369 14.2327   3
  -5  -5  11 327.993 14.2882   8
  -5   5  11 321.742 14.7789   3
   5   5 -11 322.441 12.3895   4
  -5   5  11 324.709 15.2097  12
  -3  -5  11 86.9333 8.31786   3
  -3  -5  11 90.1145 7.53958   8
   3  -5 -11 85.6175 6.76452  10
  -3   5  11 90.3721 8.09970  12
  -3   5  11 97.9886 8.20740   3
   3   5 -11 89.6917 5.98027  10
   3   5 -11 80.9092 6.30073   4
  -3   5  11 86.5609 7.60843   5
   1  -5 -11 204.352 9.27132   6
   1  -5 -11 198.877 10.4105  10
  -1  -5  11 216.663 12.2335   3
   1   5 -11 221.859 10.2286   4
  -1   5  11 205.119 11.9770   5
   1   5 -11 216.300 10.6509  14
  -1   5  11 229.561 13.2942  12
  -8  -6  11 96.3075 9.66443   8
   8  -6 -11 94.3589 6.84160   7
   8   6 -11 98.1997 6.82808  11
  -8   6  11 99.1261 9.13400  12
   8   6 -11 100.567 6.36943   7
  -8   6  11 96.8429 9.41943   3
   6  -6 -11 161.596 8.26438   7
  -6  -6  11 155.918 10.5821   8
  -6  -6  11 146.615 9.80314   3
   6  -6 -11 158.903 8.18495  10
   6   6 -11 172.588 9.03145   4
   6   6 -11 160.779 8.16603  11
  -6   6  11 162.894 10.8634   3
  -6   6  11 205.816 11.9059  12
  -4  -6  11 2.69400 3.38631   3
   4  -6 -11 8.88384 3.04845  10
  -4  -6  11 7.81569 3.62788   8
   4  -6 -11 14.8518 2.87610   7
  -4   6  11 4.58530 3.52303   5
  -4   6  11 5.84308 4.51981  12
   4   6 -11 7.58409 3.27198   4
  -2  -6  11 93.4950 8.33454   3
   2  -6 -11 77.0974 6.31068   6
   2  -6 -11 62.9132 6.30288  10
  -2   6  11 82.1208 8.67017  12
   2   6 -11 87.7956 7.13801  14
   2   6 -11 94.3574 8.19916   4
  -2   6  11 96.0677 9.59184   5
   0  -6  11 308.761 14.8606   3
   0  -6 -11 306.642 13.2900  10
   0  -6 -11 290.152 11.3486   6
   0   6 -11 276.813 12.5508   4
   0   6  11 316.892 14.9603   5
   0   6  11 226.303 16.0073  12
   0   6 -11 324.991 13.5233  14
   7  -7 -11 17.2518 3.35812   7
  -7  -7  11 29.1072 5.72683   8
   7   7 -11 14.5633 3.03692  11
   7   7 -11 13.7406 3.57668   4
  -7   7  11 17.4617 5.48250  12
   5  -7 -11 177.098 8.59904   7
  -5  -7  11 166.620 10.7893   8
   5   7 -11 165.910 9.18873   4
   5   7 -11 158.241 8.01602  11
  -5   7  11 177.491 11.8745  12
  -5   7  11 171.719 11.5607   5
  -3  -7  11 357.740 15.4250   8
   3  -7 -11 363.172 13.3501   6
   3  -7 -11 345.128 13.3199  10
   3   7 -11 365.351 14.1345   4
  -3   7  11 358.782 16.3686  12
  -3   7  11 360.371 16.6286   5
   1  -7 -11 1.10631 2.82540   6
  -1  -7  11 7.78661 3.99092   3
   1  -7 -11 6.10349 2.66284  10
   1   7 -11 6.26694 3.59134   4
   1   7 -11 4.79749 3.57948  14
  -1   7  11 5.18482 3.57220   5
  -6  -8  11 33.0977 6.12757   8
   6  -8 -11 35.1832 4.55657   7
  -6   8  11 26.2552 5.62475   5
   6   8 -11 26.1656 4.47480   4
   6   8 -11 29.9233 4.29086  11
  -6   8  11 27.1206 6.37642  12
   4  -8 -11 143.465 8.67110   6
  -4  -8  11 130.437 7.92277   9
  -4  -8  11 135.196 9.92962   8
  -4   8  11 129.882 10.5792  12
  -4   8  11 139.889 10.3803   5
   4   8 -11 148.089 8.97081   4
 -10   0  12 1280.25 36.7199   3
 -10   0  12 1316.64 35.4879   8
  10   0 -12 1251.85 30.6062   7
  -8   0  12 933.789 26.8297  12
  -8   0  12 924.576 29.2669   3
   8   0 -12 929.905 23.3286   7
  -8   0  12 901.289 26.5142   8
   6   0 -12 761.533 20.7594  10
  -6   0  12 725.591 24.7954   3
  -6   0  12 731.753 22.4764  12
   4   0 -12 762.431 21.4186  10
  -4   0  12 803.000 23.6738  12
  -4   0  12 804.831 25.4415   3
   2   0 -12 226.393 10.3709  14
   2   0 -12 218.213 10.3915  10
  -2   0  12 212.821 11.8411  12
  -2   0  12 214.536 12.6233   3
   0   0 -12 678.516 20.8717  14
   0   0 -12 676.167 20.0760  10
   0   0  12 646.722 22.7299   3
  -9  -1  12 5.84977 3.24459  12
  -9  -1  12 8.42797 5.19277   3
  -9  -1  12 -2.3260 3.71331   8
   9  -1 -12 -0.7507 2.07738   7
  -9   1  12 3.11925 3.65035  12
   9   1 -12 0.73790 2.31591   7
  -9   1  12 0.72640 4.72538   3
  -9   1  12 2.17649 4.05900   8
   7  -1 -12 113.713 7.33063  10
  -7  -1  12 124.823 8.68139  12
  -7  -1  12 92.2933 9.98800   3
   7  -1 -12 115.308 6.76451   7
  -7  -1  12 113.734 8.75599   8
  -7   1  12 125.392 10.5730   3
   7   1 -12 116.053 6.64998   7
  -7   1  12 120.137 9.23911  12
   7   1 -12 110.520 7.27915  10
   7   1 -12 133.715 7.74033   4
  -5  -1  12 4.34278 3.47240  12
  -5  -1  12 9.08860 3.41950   8
   5  -1 -12 8.74828 3.09902  10
  -5  -1  12 12.3241 5.28130   3
   5   1 -12 9.09820 3.16336   4
  -5   1  12 16.5149 5.54408   3
   5   1 -12 9.12262 3.08204  10
  -5   1  12 12.6118 4.73929  12
   3  -1 -12 0.01137 2.30902  10
  -3  -1  12 0.50465 3.25224  12
  -3  -1  12 3.25750 4.05008   3
  -3   1  12 -2.5714 3.66932   3
   3   1 -12 0.50571 2.36910  10
  -3   1  12 3.86636 3.78527  12
   3   1 -12 1.97413 2.47959   4
   1  -1 -12 73.6085 7.43584  14
  -1  -1  12 80.0018 10.6909  12
  -1  -1  12 88.6518 9.63632   3
   1  -1 -12 58.8938 6.23313  10
   1   1 -12 81.0046 6.34034  14
   1   1 -12 71.5891 6.41516  10
  -1   1  12 91.2596 8.91851  12
  -1   1  12 72.9795 8.63747   3
  10  -2 -12 5.44308 2.98677   7
 -10  -2  12 2.76704 4.61448   8
 -10  -2  12 8.55023 5.58614   3
 -10   2  12 4.68356 4.41800   8
 -10   2  12 3.57499 5.09719   3
  10   2 -12 6.27757 2.79264   7
  -8  -2  12 93.7038 8.61305   8
   8  -2 -12 98.0745 6.72995   7
   8  -2 -12 109.284 7.14770  10
  -8  -2  12 91.7559 10.2643   3
  -8   2  12 97.0004 8.78155  12
  -8   2  12 85.3866 10.2479   3
   8   2 -12 99.0988 7.02360   4
   8   2 -12 99.4044 6.37611   7
   6  -2 -12 1.34012 1.94140   7
  -6  -2  12 -0.2330 2.88468   8
  -6  -2  12 2.15336 4.07321   3
   6  -2 -12 -0.5938 2.03328  10
   6   2 -12 -2.1930 1.31679   4
  -6   2  12 -0.8134 3.10566  12
  -6   2  12 -0.4229 4.58365   3
   6   2 -12 1.34392 2.28726  10
   4  -2 -12 228.300 10.7129  10
  -4  -2  12 254.769 13.5752   3
  -4  -2  12 218.414 10.7886   8
  -4   2  12 258.226 13.7041   3
  -4   2  12 223.741 12.6147  12
   4   2 -12 244.897 10.8334   4
   4   2 -12 229.083 10.3586  10
  -2  -2  12 2.52409 4.24653   3
   2  -2 -12 7.20414 2.98285  14
   2  -2 -12 8.11791 3.22021  10
   2   2 -12 4.01904 2.02934  14
  -2   2  12 6.90502 3.42452  12
   2   2 -12 7.61485 2.87374  10
  -2   2  12 6.29639 4.30525   3
   2   2 -12 6.97752 3.26238   4
   0  -2 -12 1.66383 2.78827  10
   0  -2  12 6.49477 4.44037   3
   0  -2 -12 1.28539 2.79884  14
   0   2 -12 5.14955 2.70086   4
   0   2  12 0.96367 3.95423  12
   0   2 -12 2.32278 2.53512  10
   0   2 -12 1.00139 2.73941  14
   0   2  12 -1.1217 3.39076   3
  -9  -3  12 138.790 10.5899   8
  -9  -3  12 149.297 11.3422   3
   9  -3 -12 147.681 8.19111   7
  -9   3  12 146.217 10.5630  12
   9   3 -12 139.714 7.92219   7
  -9   3  12 146.205 11.7672   3
   7  -3 -12 456.069 14.6993   7
  -7  -3  12 463.459 18.9521   3
  -7  -3  12 460.539 17.4000   8
   7  -3 -12 455.708 15.1809  10
   7   3 -12 467.482 15.1987   4
  -7   3  12 481.347 18.1466  12
  -7   3  12 458.085 19.1934   3
   5  -3 -12 319.036 12.5507  10
  -5  -3  12 335.800 15.4864   3
   5   3 -12 311.368 12.4492   4
  -5   3  12 309.712 15.2097   3
  -5   3  12 316.268 15.0929  12
   5   3 -12 294.972 11.8024  10
  -3  -3  12 413.944 15.2697   8
  -3  -3  12 407.244 17.4566   3
   3  -3 -12 389.788 14.6156  10
  -3   3  12 396.255 17.0416  12
  -3   3  12 429.110 17.3023   3
  -3   3  12 386.037 15.8044   5
   3   3 -12 408.251 14.0910  10
   3   3 -12 416.110 14.8105   4
  -1  -3  12 456.076 18.5626   3
   1  -3 -12 440.272 15.8377  14
   1  -3 -12 406.275 15.6402  10
   1   3 -12 436.852 15.5453   4
   1   3 -12 407.498 14.8138  14
  -1   3  12 434.912 18.0359  12
   1   3 -12 425.555 14.4763  10
  -1   3  12 427.893 17.2331   3
  -8  -4  12 6.30246 3.87712   8
   8  -4 -12 -0.7787 2.02524  10
  -8  -4  12 -0.5305 3.90094   3
   8  -4 -12 0.54654 2.14155   7
  -8   4  12 -7.8113 3.94001   3
  -8   4  12 5.29034 4.09183  12
   8   4 -12 0.82762 2.17972   7
   6  -4 -12 52.8307 5.22527   7
  -6  -4  12 51.2126 7.64468   3
   6  -4 -12 42.1848 4.90288  10
  -6  -4  12 49.1040 6.63607   8
   6   4 -12 56.2417 5.60685   4
  -6   4  12 29.9497 6.60117   3
  -6   4  12 43.4439 7.24887  12
   4  -4 -12 94.5199 7.10391  10
  -4  -4  12 115.658 9.57428   3
  -4  -4  12 99.7547 8.00544   8
  -4   4  12 99.0883 8.29477   5
   4   4 -12 84.9888 6.35676  10
  -4   4  12 83.8910 8.92546   3
   4   4 -12 103.567 7.43123   4
  -4   4  12 97.5858 9.09974  12
   2  -4 -12 163.057 9.58391  10
  -2  -4  12 153.325 11.0072   3
   2   4 -12 134.246 12.5448  14
  -2   4  12 155.104 10.3652   5
   2   4 -12 157.159 8.39735  10
  -2   4  12 175.957 11.7191  12
   2   4 -12 163.752 8.95160   4
   7  -5 -12 22.9855 3.94726  10
  -7  -5  12 32.7204 6.16891   8
   7  -5 -12 30.0371 4.21463   7
  -7  -5  12 32.1263 5.89109   3
  -7   5  12 18.2321 5.70256   3
   7   5 -12 34.0015 4.75700   4
  -7   5  12 40.0871 6.85081  12
   5  -5 -12 1.06325 1.96114   7
  -5  -5  12 -1.0800 2.89145   8
  -5  -5  12 -1.0427 3.47659   3
   5  -5 -12 1.38017 1.82123  10
  -5   5  12 -2.3250 3.84512  12
   5   5 -12 1.70401 2.71946   4
  -5   5  12 -0.3287 3.92959   3
  -3  -5  12 3.55217 3.27409   8
   3  -5 -12 4.82863 2.56377  10
  -3  -5  12 9.00206 4.47983   3
   3   5 -12 5.22183 3.38672   4
  -3   5  12 9.44874 5.33316  12
  -3   5  12 8.15324 3.80761   5
  -6  -6  12 346.897 15.6598   8
   6  -6 -12 357.863 13.0723  10
   6  -6 -12 350.184 12.6439   7
   6   6 -12 372.859 13.7678   4
  -6   6  12 332.158 16.0416   3
  -6   6  12 355.093 16.8286  12
  -4  -6  12 584.837 20.5414   3
   4  -6 -12 546.402 17.6286  10
  -4   6  12 556.216 21.0257   5
  -4   6  12 572.642 21.4703  12
   4   6 -12 553.442 17.7787   4
   8   0 -13 0.62923 2.44920  10
  -8   0  13 -4.7452 4.83749   3
  -8   0  13 6.96284 4.07279  12
   8   0 -13 1.66057 2.27607   7
  -8   0  13 -0.4231 3.48431   8
   6   0 -13 2.09867 2.00302  10
  -6   0  13 3.83749 4.50156   3
  -6   0  13 -2.9332 3.37666  12
   4   0 -13 -4.2108 1.91009  10
  -4   0  13 -2.7714 4.07214   3
  -4   0  13 1.71112 3.86362  12
  -2   0  13 1.82304 3.89847  12
   2   0 -13 -1.9106 1.51463  10
  -2   0  13 -1.1503 3.94426   3
  -9  -1  13 115.343 9.61884   8
  -9  -1  13 117.311 11.2875   3
   9  -1 -13 115.351 7.16976   7
  -9   1  13 128.050 9.95324  12
   9   1 -13 124.734 7.62337   7
  -9   1  13 108.499 15.4584   3
   7  -1 -13 220.277 10.4300  10
  -7  -1  13 196.704 11.0301   8
  -7  -1  13 231.793 14.1145   3
  -7  -1  13 217.174 12.0357  12
   7   1 -13 199.325 10.0348  10
  -7   1  13 215.113 12.3406  12
  -7   1  13 211.380 13.6008   3
  -5  -1  13 98.8066 11.6056  12
   5  -1 -13 106.118 7.67571  10
  -5  -1  13 120.568 10.6124   3
  -5   1  13 124.103 10.5860   3
   5   1 -13 113.368 7.78271  10
  -5   1  13 117.901 9.48584  12
   5   1 -13 119.237 8.12070   4
  -3  -1  13 0.10500 4.18745   3
   3  -1 -13 1.72514 2.77510  10
  -3   1  13 -0.5153 3.51245  12
  -3   1  13 0.49792 3.91821   3
   3   1 -13 -0.7313 1.48541  10
   8  -2 -13 99.0691 6.46900   7
   8  -2 -13 101.959 6.95043  10
  -8  -2  13 99.7814 10.7678   3
  -8  -2  13 115.315 9.45288   8
  -8   2  13 104.483 9.40944  12
  -8   2  13 86.6332 10.3947   3
   6  -2 -13 318.062 12.9176  10
  -6  -2  13 318.894 16.0251   3
  -6   2  13 324.671 16.3874   3
  -6   2  13 347.485 16.1303  12
   6   2 -13 325.005 12.7154  10
   6   2 -13 325.072 13.0344   4
   4  -2 -13 324.532 13.3346  10
  -4  -2  13 323.493 15.8307   3
   4   2 -13 315.998 12.7261  10
  -4   2  13 323.570 15.2601   3
   4   2 -13 329.421 13.3633   4
  -4   2  13 336.251 15.6748  12
  -2  -2  13 204.624 15.4933   3
  -2   2  13 124.505 13.5540   3
  -7  -3  13 89.7879 9.77930   3
   7  -3 -13 75.9629 6.54530  10
   7  -3 -13 76.4051 6.03063   7
  -7  -3  13 75.2387 7.93784   8
   7   3 -13 88.3960 6.84862   4
  -7   3  13 78.4051 9.88583   3
  -7   3  13 74.1643 8.26067  12
  -5  -3  13 21.7971 5.91787   3
  -5  -3  13 14.5692 3.99019   8
   5  -3 -13 18.8273 4.09308  10
  -5   3  13 18.8059 5.57538   3
   5   3 -13 20.9623 4.24855   4
   5   3 -13 20.3104 3.66427  10
  -5   3  13 18.1765 5.74743  12
  -3  -3  13 4.89351 3.46604   3
   3  -3 -13 1.04952 2.19555  10
  -3   3  13 5.07704 4.45913  12
  -3   3  13 11.4440 4.75008   3
   3   3 -13 4.57785 2.98896   4
   3   3 -13 4.03596 2.68004  10
  -6  -4  13 18.8984 4.89560   8
   6  -4 -13 20.3113 4.22283  10
  -6  -4  13 19.3840 5.71070   3
  -6   4  13 17.3862 5.40352  12
  -6   4  13 11.0509 5.58042   3
   6   4 -13 22.3100 4.48069   4
  -4  -4  13 108.723 8.38513   8
   4  -4 -13 104.786 7.80530  10
  -4  -4  13 114.204 10.0203   3
   4   4 -13 108.062 7.32209  10
   4   4 -13 98.1037 7.31366   4
  -4   4  13 91.2683 9.49714   3
  -4   4  13 106.846 9.08720   5
  -4   4  13 96.3240 10.2607  12
   0   0   0    0.00    0.00   0

 _exptl_absorpt_process_details
)
 SADABS 2016/2: Krause, L., Herbst-Irmer, R., Sheldrick G.M. & Stalke D.,
 J. Appl. Cryst. 48 (2015) 3-10
)
 _exptl_absorpt_correction_type   multi-scan
 _exptl_absorpt_correction_T_max  0.7479
 _exptl_absorpt_correction_T_min  0.6913
 _exptl_special_details
)
 The following wavelength and cell were deduced by SADABS from the
 direction cosines etc. They are given here for emergency use only:
 CELL 0.71066    6.872    7.666    7.617   90.032  117.810   90.041
)

;
_shelx_hkl_checksum              66375
loop_
_space_group_symop_operation_xyz
'x, y, z'
'-x, y, -z+1/2'
'x+1/2, y+1/2, z'
'-x+1/2, y+1/2, -z+1/2'
'-x, -y, -z'
'x, -y, z-1/2'
'-x+1/2, -y+1/2, -z'
'x+1/2, -y+1/2, z-1/2'
loop_
_atom_site_label
_atom_site_type_symbol
_atom_site_fract_x
_atom_site_fract_y
_atom_site_fract_z
_atom_site_U_iso_or_equiv
_atom_site_adp_type
_atom_site_occupancy
_atom_site_site_symmetry_order
_atom_site_calc_flag
_atom_site_refinement_flags_posn
_atom_site_refinement_flags_adp
_atom_site_refinement_flags_occupancy
_atom_site_disorder_assembly
_atom_site_disorder_group
Mg Mg 0.000000 0.500000 0.000000 0.00490(6) Uani 1 2 d S . P . .
S S 0.000000 0.15678(2) 0.250000 0.00394(5) Uani 1 2 d S T P . .
O1 O 0.17528(7) 0.04724(6) 0.39649(6) 0.00764(7) Uani 1 1 d . . . . .
O2 O 0.09519(7) 0.26939(5) 0.15082(6) 0.00695(7) Uani 1 1 d . . . . .
O3 O 0.000000 0.63402(8) 0.250000 0.00651(9) Uani 1 2 d S T P . .
H H 0.105(2) 0.6999(18) 0.290(2) 0.019(3) Uiso 1 1 d . . . . .
loop_
_atom_site_aniso_label
_atom_site_aniso_U_11
_atom_site_aniso_U_22
_atom_site_aniso_U_33
_atom_site_aniso_U_23
_atom_site_aniso_U_13
_atom_site_aniso_U_12
Mg 0.00441(11) 0.00511(11) 0.00489(11) 0.00018(8) 0.00194(8) -0.00030(8)
S 0.00310(7) 0.00392(7) 0.00449(7) 0.000 0.00152(5) 0.000
O1 0.00485(14) 0.00865(15) 0.00845(15) 0.00359(12) 0.00228(12) 0.00234(11)
O2 0.00680(15) 0.00652(14) 0.00900(15) 0.00257(11) 0.00491(12) 0.00050(11)
O3 0.0059(2) 0.0072(2) 0.0065(2) 0.000 0.00297(16) 0.000
loop_
_atom_type_symbol
_atom_type_description
_atom_type_scat_dispersion_real
_atom_type_scat_dispersion_imag
_atom_type_scat_source
O O 0.0106 0.0060 'International Tables Vol C Tables 4.2.6.8 and 6.1.1.4'
H H 0.0000 0.0000 'International Tables Vol C Tables 4.2.6.8 and 6.1.1.4'
S S 0.1246 0.1234 'International Tables Vol C Tables 4.2.6.8 and 6.1.1.4'
Mg Mg 0.0486 0.0363 'International Tables Vol C Tables 4.2.6.8 and 6.1.1.4'
Fe Fe 0.3463 0.8444 'International Tables Vol C Tables 4.2.6.8 and 6.1.1.4'
loop_
_geom_angle_atom_site_label_1
_geom_angle_atom_site_label_2
_geom_angle_atom_site_label_3
_geom_angle
_geom_angle_site_symmetry_1
_geom_angle_site_symmetry_3
_geom_angle_publ_flag
O1 Mg O1 180.0 8_455 4 ?
O1 Mg O2 86.004(19) 8_455 5_565 ?
O1 Mg O2 93.996(19) 4 5_565 ?
O1 Mg O2 93.996(19) 8_455 . ?
O1 Mg O2 86.004(19) 4 . ?
O2 Mg O2 180.0 5_565 . ?
O1 Mg O3 91.465(16) 8_455 5_565 ?
O1 Mg O3 88.535(16) 4 5_565 ?
O2 Mg O3 92.76(2) 5_565 5_565 ?
O2 Mg O3 87.24(2) . 5_565 ?
O1 Mg O3 88.535(16) 8_455 . ?
O1 Mg O3 91.465(16) 4 . ?
O2 Mg O3 87.24(2) 5_565 . ?
O2 Mg O3 92.76(2) . . ?
O3 Mg O3 180.0 5_565 . ?
O1 Mg O2 138.196(15) 8_455 4 ?
O1 Mg O2 41.804(15) 4 4 ?
O2 Mg O2 81.266(13) 5_565 4 ?
O2 Mg O2 98.734(12) . 4 ?
O3 Mg O2 128.613(12) 5_565 4 ?
O3 Mg O2 51.387(12) . 4 ?
O1 Mg O2 41.805(15) 8_455 8_455 ?
O1 Mg O2 138.195(15) 4 8_455 ?
O2 Mg O2 98.734(13) 5_565 8_455 ?
O2 Mg O2 81.266(13) . 8_455 ?
O3 Mg O2 51.387(12) 5_565 8_455 ?
O3 Mg O2 128.614(12) . 8_455 ?
O2 Mg O2 180.0 4 8_455 ?
O1 Mg O2 110.994(18) 8_455 6_565 ?
O1 Mg O2 69.006(17) 4 6_565 ?
O2 Mg O2 42.269(16) 5_565 6_565 ?
O2 Mg O2 137.731(17) . 6_565 ?
O3 Mg O2 59.645(18) 5_565 6_565 ?
O3 Mg O2 120.354(18) . 6_565 ?
O2 Mg O2 85.078(15) 4 6_565 ?
O2 Mg O2 94.922(14) 8_455 6_565 ?
O1 Mg O2 69.006(18) 8_455 2 ?
O1 Mg O2 110.994(17) 4 2 ?
O2 Mg O2 137.731(16) 5_565 2 ?
O2 Mg O2 42.269(16) . 2 ?
O3 Mg O2 120.355(17) 5_565 2 ?
O3 Mg O2 59.646(18) . 2 ?
O2 Mg O2 94.922(15) 4 2 ?
O2 Mg O2 85.078(15) 8_455 2 ?
O2 Mg O2 180.0 6_565 2 ?
O1 Mg O1 118.204(17) 8_455 6_565 ?
O1 Mg O1 61.796(17) 4 6_565 ?
O2 Mg O1 32.694(15) 5_565 6_565 ?
O2 Mg O1 147.306(15) . 6_565 ?
O3 Mg O1 96.824(17) 5_565 6_565 ?
O3 Mg O1 83.176(17) . 6_565 ?
O2 Mg O1 53.936(12) 4 6_565 ?
O2 Mg O1 126.064(12) 8_455 6_565 ?
O2 Mg O1 37.491(9) 6_565 6_565 ?
O2 Mg O1 142.509(9) 2 6_565 ?
O1 Mg O1 61.796(17) 8_455 2 ?
O1 Mg O1 118.204(17) 4 2 ?
O2 Mg O1 147.306(15) 5_565 2 ?
O2 Mg O1 32.694(15) . 2 ?
O3 Mg O1 83.176(17) 5_565 2 ?
O3 Mg O1 96.824(17) . 2 ?
O2 Mg O1 126.064(12) 4 2 ?
O2 Mg O1 53.936(12) 8_455 2 ?
O2 Mg O1 142.509(9) 6_565 2 ?
O2 Mg O1 37.491(9) 2 2 ?
O1 Mg O1 180.0 6_565 2 ?
O1 S O1 110.05(4) . 2 ?
O1 S O2 108.62(3) . . ?
O1 S O2 110.32(3) 2 . ?
O1 S O2 110.32(3) . 2 ?
O1 S O2 108.62(3) 2 2 ?
O2 S O2 108.91(4) . 2 ?
S O1 Mg 139.91(3) . 4_545 ?
S O1 O2 35.971(16) . . ?
Mg O1 O2 103.94(2) 4_545 . ?
S O1 O1 34.976(19) . 2 ?
Mg O1 O1 143.94(3) 4_545 2 ?
O2 O1 O1 60.632(19) . 2 ?
S O1 O2 35.110(16) . 2 ?
Mg O1 O2 144.59(2) 4_545 2 ?
O2 O1 O2 60.22(2) . 2 ?
O1 O1 O2 59.584(18) 2 2 ?
S O1 O2 131.09(3) . 4_545 ?
Mg O1 O2 47.286(13) 4_545 4_545 ?
O2 O1 O2 112.457(19) . 4_545 ?
O1 O1 O2 105.34(2) 2 4_545 ?
O2 O1 O2 164.83(3) 2 4_545 ?
S O1 O3 167.53(3) . 7_556 ?
Mg O1 O3 47.694(12) 4_545 7_556 ?
O2 O1 O3 148.75(2) . 7_556 ?
O1 O1 O3 149.214(17) 2 7_556 ?
O2 O1 O3 132.42(2) 2 7_556 ?
O2 O1 O3 61.195(16) 4_545 7_556 ?
S O1 O2 115.35(3) . 8_556 ?
Mg O1 O2 43.253(14) 4_545 8_556 ?
O2 O1 O2 88.377(19) . 8_556 ?
O1 O1 O2 148.579(17) 2 8_556 ?
O2 O1 O2 102.07(2) 2 8_556 ?
O2 O1 O2 90.539(19) 4_545 8_556 ?
O3 O1 O2 62.181(19) 7_556 8_556 ?
S O1 O3 94.60(2) . 3_545 ?
Mg O1 O3 46.133(13) 4_545 3_545 ?
O2 O1 O3 59.449(18) . 3_545 ?
O1 O1 O3 104.66(3) 2 3_545 ?
O2 O1 O3 116.23(2) 2 3_545 ?
O2 O1 O3 63.547(19) 4_545 3_545 ?
O3 O1 O3 93.827(18) 7_556 3_545 ?
O2 O1 O3 58.151(16) 8_556 3_545 ?
S O1 O2 124.32(3) . 6_556 ?
Mg O1 O2 95.485(18) 4_545 6_556 ?
O2 O1 O2 159.76(2) . 6_556 ?
O1 O1 O2 100.06(2) 2 6_556 ?
O2 O1 O2 106.09(2) 2 6_556 ?
O2 O1 O2 76.856(18) 4_545 6_556 ?
O3 O1 O2 51.431(14) 7_556 6_556 ?
O2 O1 O2 110.01(2) 8_556 6_556 ?
O3 O1 O2 137.453(19) 3_545 6_556 ?
S O1 O2 111.52(3) . 7_556 ?
Mg O1 O2 76.748(18) 4_545 7_556 ?
O2 O1 O2 109.29(2) . 7_556 ?
O1 O1 O2 137.80(2) 2 7_556 ?
O2 O1 O2 79.535(18) 2 7_556 ?
O2 O1 O2 115.59(2) 4_545 7_556 ?
O3 O1 O2 57.519(17) 7_556 7_556 ?
O2 O1 O2 44.376(17) 8_556 7_556 ?
O3 O1 O2 102.370(18) 3_545 7_556 ?
O2 O1 O2 80.400(14) 6_556 7_556 ?
S O1 O3 104.22(2) . 1_545 ?
Mg O1 O3 96.836(17) 4_545 1_545 ?
O2 O1 O3 119.40(2) . 1_545 ?
O1 O1 O3 69.247(9) 2 1_545 ?
O2 O1 O3 118.58(2) 2 1_545 ?
O2 O1 O3 51.344(15) 4_545 1_545 ?
O3 O1 O3 81.949(15) 7_556 1_545 ?
O2 O1 O3 138.117(17) 8_556 1_545 ?
O3 O1 O3 107.284(18) 3_545 1_545 ?
O2 O1 O3 51.361(12) 6_556 1_545 ?
O2 O1 O3 130.852(15) 7_556 1_545 ?
S O2 Mg 133.44(3) . . ?
S O2 O1 35.413(16) . . ?
Mg O2 O1 161.95(2) . . ?
S O2 O2 35.547(18) . 2 ?
Mg O2 O2 103.091(17) . 2 ?
O1 O2 O2 60.413(18) . 2 ?
S O2 O1 34.569(15) . 2 ?
Mg O2 O1 120.20(2) . 2 ?
O1 O2 O1 59.78(2) . 2 ?
O2 O2 O1 59.374(18) 2 2 ?
S O2 O3 105.85(2) . 3_545 ?
Mg O2 O3 120.20(2) . 3_545 ?
O1 O2 O3 71.357(19) . 3_545 ?
O2 O2 O3 127.43(3) 2 3_545 ?
O1 O2 O3 112.78(2) 2 3_545 ?
S O2 O1 157.72(3) . 4 ?
Mg O2 O1 46.710(15) . 4 ?
O1 O2 O1 135.25(2) . 4 ?
O2 O2 O1 126.040(16) 2 4 ?
O1 O2 O1 164.83(3) 2 4 ?
O3 O2 O1 76.06(2) 3_545 4 ?
S O2 O3 138.28(3) . 5_565 ?
Mg O2 O3 48.104(14) . 5_565 ?
O1 O2 O3 149.20(2) . 5_565 ?
O2 O2 O3 137.31(3) 2 5_565 ?
O1 O2 O3 104.04(2) 2 5_565 ?
O3 O2 O3 95.062(17) 3_545 5_565 ?
O1 O2 O3 61.968(17) 4 5_565 ?
S O2 O1 94.68(2) . 8_455 ?
Mg O2 O1 42.751(12) . 8_455 ?
O1 O2 O1 130.08(2) . 8_455 ?
O2 O2 O1 76.26(2) 2 8_455 ?
O1 O2 O1 77.93(2) 2 8_455 ?
O3 O2 O1 156.311(19) 3_545 8_455 ?
O1 O2 O1 89.461(19) 4 8_455 ?
O3 O2 O1 61.374(15) 5_565 8_455 ?
S O2 O3 102.17(2) . . ?
Mg O2 O3 45.188(12) . . ?
O1 O2 O3 117.17(2) . . ?
O2 O2 O3 66.625(10) 2 . ?
O1 O2 O3 116.33(2) 2 . ?
O3 O2 O3 126.20(2) 3_545 . ?
O1 O2 O3 61.851(16) 4 . ?
O3 O2 O3 93.292(15) 5_565 . ?
O1 O2 O3 58.112(13) 8_455 . ?
S O2 O1 95.99(2) . 6 ?
Mg O2 O1 113.79(2) . 6 ?
O1 O2 O1 83.969(16) . 6 ?
O2 O2 O1 130.739(13) 2 6 ?
O1 O2 O1 73.91(2) 2 6 ?
O3 O2 O1 56.993(15) 3_545 6 ?
O1 O2 O1 103.143(19) 4 6 ?
O3 O2 O1 65.745(18) 5_565 6 ?
O1 O2 O1 110.01(2) 8_455 6 ?
O3 O2 O1 158.842(17) . 6 ?
S O2 O1 80.15(2) . 7_556 ?
Mg O2 O1 95.069(19) . 7_556 ?
O1 O2 O1 70.71(2) . 7_556 ?
O2 O2 O1 59.37(2) 2 7_556 ?
O1 O2 O1 114.05(2) 2 7_556 ?
O3 O2 O1 86.865(18) 3_545 7_556 ?
O1 O2 O1 77.784(15) 4 7_556 ?
O3 O2 O1 137.72(2) 5_565 7_556 ?
O1 O2 O1 108.59(2) 8_455 7_556 ?
O3 O2 O1 54.083(11) . 7_556 ?
O1 O2 O1 141.399(17) 6 7_556 ?
Mg O3 Mg 123.28(3) . 2 ?
Mg O3 O2 110.889(14) . 3_455 ?
Mg O3 O2 90.296(12) 2 3_455 ?
Mg O3 O2 90.295(13) . 4 ?
Mg O3 O2 110.890(14) 2 4 ?
O2 O3 O2 135.24(3) 3_455 4 ?
Mg O3 O2 162.51(2) . 6_566 ?
Mg O3 O2 44.654(11) 2 6_566 ?
O2 O3 O2 83.914(17) 3_455 6_566 ?
O2 O3 O2 84.938(17) 4 6_566 ?
Mg O3 O2 44.654(11) . 5_565 ?
Mg O3 O2 162.51(2) 2 5_565 ?
O2 O3 O2 84.937(18) 3_455 5_565 ?
O2 O3 O2 83.914(16) 4 5_565 ?
O2 O3 O2 150.44(3) 6_566 5_565 ?
Mg O3 O1 43.770(13) . 8_455 ?
Mg O3 O1 105.70(2) 2 8_455 ?
O2 O3 O1 71.575(17) 3_455 8_455 ?
O2 O3 O1 132.687(14) 4 8_455 ?
O2 O3 O1 142.144(16) 6_566 8_455 ?
O2 O3 O1 56.837(15) 5_565 8_455 ?
Mg O3 O1 105.70(2) . 7_556 ?
Mg O3 O1 43.770(13) 2 7_556 ?
O2 O3 O1 132.687(15) 3_455 7_556 ?
O2 O3 O1 71.575(16) 4 7_556 ?
O2 O3 O1 56.837(15) 6_566 7_556 ?
O2 O3 O1 142.144(16) 5_565 7_556 ?
O1 O3 O1 123.24(3) 8_455 7_556 ?
Mg O3 O1 121.85(2) . 3_455 ?
Mg O3 O1 42.403(10) 2 3_455 ?
O2 O3 O1 49.196(14) 3_455 3_455 ?
O2 O3 O1 145.326(15) 4 3_455 ?
O2 O3 O1 60.476(15) 6_566 3_455 ?
O2 O3 O1 127.299(15) 5_565 3_455 ?
O1 O3 O1 81.713(16) 8_455 3_455 ?
O1 O3 O1 86.173(18) 7_556 3_455 ?
Mg O3 O1 42.403(10) . 4 ?
Mg O3 O1 121.85(2) 2 4 ?
O2 O3 O1 145.325(15) 3_455 4 ?
O2 O3 O1 49.195(14) 4 4 ?
O2 O3 O1 127.299(15) 6_566 4 ?
O2 O3 O1 60.476(15) 5_565 4 ?
O1 O3 O1 86.173(18) 8_455 4 ?
O1 O3 O1 81.713(16) 7_556 4 ?
O1 O3 O1 154.37(3) 3_455 4 ?
Mg O3 O2 82.56(2) . 2 ?
Mg O3 O2 42.053(13) 2 2 ?
O2 O3 O2 96.221(13) 3_455 2 ?
O2 O3 O2 126.20(2) 4 2 ?
O2 O3 O2 86.707(15) 6_566 2 ?
O2 O3 O2 121.723(19) 5_565 2 ?
O1 O3 O2 68.398(18) 8_455 2 ?
O1 O3 O2 59.707(17) 7_556 2 ?
O1 O3 O2 54.601(13) 3_455 2 ?
O1 O3 O2 99.91(2) 4 2 ?
Mg O3 O2 42.054(13) . . ?
Mg O3 O2 82.56(2) 2 . ?
O2 O3 O2 126.20(2) 3_455 . ?
O2 O3 O2 96.221(13) 4 . ?
O2 O3 O2 121.723(19) 6_566 . ?
O2 O3 O2 86.707(15) 5_565 . ?
O1 O3 O2 59.707(16) 8_455 . ?
O1 O3 O2 68.397(18) 7_556 . ?
O1 O3 O2 99.91(2) 3_455 . ?
O1 O3 O2 54.602(13) 4 . ?
O2 O3 O2 46.751(19) 2 . ?
Mg O3 H 104.9(10) . . ?
Mg O3 H 109.2(10) 2 . ?
O2 O3 H 118.8(10) 3_455 . ?
O2 O3 H 17.8(10) 4 . ?
O2 O3 H 74.0(10) 6_566 . ?
O2 O3 H 87.7(10) 5_565 . ?
O1 O3 H 143.2(10) 8_455 . ?
O1 O3 H 77.7(9) 7_556 . ?
O1 O3 H 133.1(10) 3_455 . ?
O1 O3 H 65.9(10) 4 . ?
O2 O3 H 137.0(9) 2 . ?
O2 O3 H 113.8(10) . . ?
Mg O3 H 109.2(10) . 2 ?
Mg O3 H 104.9(10) 2 2 ?
O2 O3 H 17.8(10) 3_455 2 ?
O2 O3 H 118.8(10) 4 2 ?
O2 O3 H 87.7(10) 6_566 2 ?
O2 O3 H 74.0(10) 5_565 2 ?
O1 O3 H 77.7(10) 8_455 2 ?
O1 O3 H 143.2(10) 7_556 2 ?
O1 O3 H 65.9(10) 3_455 2 ?
O1 O3 H 133.1(10) 4 2 ?
O2 O3 H 113.8(10) 2 2 ?
O2 O3 H 137.0(10) . 2 ?
H O3 H 103.6(19) . 2 ?
loop_
_geom_bond_atom_site_label_1
_geom_bond_atom_site_label_2
_geom_bond_distance
_geom_bond_site_symmetry_2
_geom_bond_publ_flag
Mg O1 2.0222(5) 8_455 ?
Mg O1 2.0222(5) 4 ?
Mg O2 2.0413(5) 5_565 ?
Mg O2 2.0413(5) . ?
Mg O3 2.1619(4) 5_565 ?
Mg O3 2.1619(4) . ?
Mg O2 3.4868(6) 4 ?
Mg O2 3.4868(6) 8_455 ?
Mg O2 3.4978(5) 6_565 ?
Mg O2 3.4978(5) 2 ?
Mg O1 3.8722(6) 6_565 ?
Mg O1 3.8722(6) 2 ?
S O1 1.4643(5) . ?
S O1 1.4643(5) 2 ?
S O2 1.4843(4) . ?
S O2 1.4843(4) 2 ?
O1 O2 2.3948(6) . ?
O1 O1 2.3997(9) 2 ?
O1 O2 2.4201(6) 2 ?
O1 O2 2.7714(6) 4_545 ?
O1 O3 2.9223(6) 7_556 ?
O1 O2 2.9717(7) 8_556 ?
O1 O3 2.9978(6) 3_545 ?
O1 O2 3.3061(7) 6_556 ?
O1 O2 3.3549(8) 7_556 ?
O1 O3 3.3862(8) 1_545 ?
O2 O2 2.4154(9) 2 ?
O2 O3 2.7246(6) 3_545 ?
O2 O3 2.9011(6) 5_565 ?
O2 O3 3.0439(8) . ?
O3 H 0.817(13) . ?
O3 H 0.817(13) 2 ?
loop_
_geom_hbond_atom_site_label_D
_geom_hbond_atom_site_label_H
_geom_hbond_atom_site_label_A
_geom_hbond_distance_DH
_geom_hbond_distance_HA
_geom_hbond_distance_DA
_geom_hbond_angle_DHA
_geom_hbond_site_symmetry_A
_geom_hbond_publ_flag
O3 H O2 0.817(13) 1.963(13) 2.7246(6) 154.9(13) 4 yes
